AV-unprocessed.smi:21|AV-procd|sdf|145|dock3
  -GOLD-   2262015353D 1   1.00000     0.00000
 Structure written by MMmdl.
 62 65  0  0  0  0  0  0  0  0  2 V2000
  143.2494  132.9250  150.9019 C   0  0  0  0  0  0  0  0  0  0  0  0
  144.3148  133.3175  150.0513 O   0  0  0  0  0  0  0  0  0  0  0  0
  145.5807  132.8202  150.4592 C   0  0  1  0  0  0  0  0  0  0  0  0
  146.0310  133.3618  151.8115 C   0  0  0  0  0  0  0  0  0  0  0  0
  147.0308  132.3088  152.3102 C   0  0  1  0  0  0  0  0  0  0  0  0
  147.2050  132.2910  153.8492 C   0  0  0  0  0  0  0  0  0  0  0  0
  148.2350  133.2274  154.3078 N   0  0  0  0  0  0  0  0  0  0  0  0
  147.9381  134.6535  154.2503 C   0  0  0  0  0  0  0  0  0  0  0  0
  149.2880  132.7808  155.0512 C   0  0  0  0  0  0  0  0  0  0  0  0
  149.8740  133.6490  155.9184 N   0  0  0  0  0  0  0  0  0  0  0  0
  150.9121  133.2744  156.6696 C   0  0  0  0  0  0  0  0  0  0  0  0
  151.5209  132.0904  156.7156 N   0  0  0  0  0  0  0  0  0  0  0  0
  150.9443  131.2065  155.8538 C   0  0  0  0  0  0  0  0  0  0  0  0
  149.8391  131.4630  154.9897 C   0  0  0  0  0  0  0  0  0  0  0  0
  149.5626  130.3183  154.2478 N   0  0  0  0  0  0  0  0  0  0  0  0
  150.4373  129.4411  154.6558 C   0  0  0  0  0  0  0  0  0  0  0  0
  151.2944  129.8854  155.6349 N   0  0  0  0  0  0  0  0  0  0  0  0
  152.3632  129.1274  156.2616 C   0  0  0  0  0  0  0  0  0  0  0  0
  153.4564  128.6181  155.2849 C   0  0  2  0  0  0  0  0  0  0  0  0
  153.4772  127.0722  155.3035 C   0  0  0  0  0  0  0  0  0  0  0  0
  152.1989  126.5287  155.0419 O   0  0  0  0  0  0  0  0  0  0  0  0
  154.8666  129.2366  155.5162 C   0  0  1  0  0  0  0  0  0  0  0  0
  155.5270  129.7935  154.2643 C   0  0  0  0  0  0  0  0  0  0  0  0
  156.6040  130.6993  154.8428 C   0  0  0  0  0  0  0  0  0  0  0  0
  155.9992  131.2862  155.9848 O   0  0  0  0  0  0  0  0  0  0  0  0
  154.9149  130.4743  156.4271 C   0  0  0  0  0  0  0  0  0  0  0  0
  146.6016  131.0217  151.6862 N   0  3  1  0  0  0  0  0  0  0  0  0
  146.2944  129.8858  152.5871 C   0  0  0  0  0  0  0  0  0  0  0  0
  145.5066  131.3201  150.7341 C   0  0  0  0  0  0  0  0  0  0  0  0
  146.3413  133.0122  149.7000 H   0  0  0  0  0  0  0  0  0  0  0  0
  147.9992  132.5307  151.8593 H   0  0  0  0  0  0  0  0  0  0  0  0
  142.3194  133.3695  150.5478 H   0  0  0  0  0  0  0  0  0  0  0  0
  143.4148  133.2654  151.9250 H   0  0  0  0  0  0  0  0  0  0  0  0
  143.1185  131.8424  150.9094 H   0  0  0  0  0  0  0  0  0  0  0  0
  146.4689  134.3583  151.7462 H   0  0  0  0  0  0  0  0  0  0  0  0
  145.1737  133.4144  152.4841 H   0  0  0  0  0  0  0  0  0  0  0  0
  146.2518  132.4669  154.3469 H   0  0  0  0  0  0  0  0  0  0  0  0
  147.5190  131.2972  154.1684 H   0  0  0  0  0  0  0  0  0  0  0  0
  147.5047  134.9955  155.1904 H   0  0  0  0  0  0  0  0  0  0  0  0
  147.2241  134.8687  153.4552 H   0  0  0  0  0  0  0  0  0  0  0  0
  148.8396  135.2315  154.0443 H   0  0  0  0  0  0  0  0  0  0  0  0
  151.3113  134.0316  157.3283 H   0  0  0  0  0  0  0  0  0  0  0  0
  150.4731  128.4371  154.2585 H   0  0  0  0  0  0  0  0  0  0  0  0
  152.8133  129.7457  157.0393 H   0  0  0  0  0  0  0  0  0  0  0  0
  151.8996  128.2833  156.7732 H   0  0  0  0  0  0  0  0  0  0  0  0
  153.1483  128.8929  154.2758 H   0  0  0  0  0  0  0  0  0  0  0  0
  154.1754  126.6928  154.5569 H   0  0  0  0  0  0  0  0  0  0  0  0
  153.8295  126.6947  156.2633 H   0  0  0  0  0  0  0  0  0  0  0  0
  151.8976  126.8564  154.2085 H   0  0  0  0  0  0  0  0  0  0  0  0
  155.5286  128.4760  155.9332 H   0  0  0  0  0  0  0  0  0  0  0  0
  155.9415  129.0212  153.6161 H   0  0  0  0  0  0  0  0  0  0  0  0
  154.8154  130.3837  153.6846 H   0  0  0  0  0  0  0  0  0  0  0  0
  157.4666  130.1126  155.1610 H   0  0  0  0  0  0  0  0  0  0  0  0
  156.9454  131.4553  154.1354 H   0  0  0  0  0  0  0  0  0  0  0  0
  154.0005  131.0627  156.3443 H   0  0  0  0  0  0  0  0  0  0  0  0
  155.0532  130.2088  157.4746 H   0  0  0  0  0  0  0  0  0  0  0  0
  145.4719  130.1226  153.2630 H   0  0  0  0  0  0  0  0  0  0  0  0
  147.1660  129.6023  153.1771 H   0  0  0  0  0  0  0  0  0  0  0  0
  146.0047  129.0135  152.0005 H   0  0  0  0  0  0  0  0  0  0  0  0
  144.5465  131.0869  151.1987 H   0  0  0  0  0  0  0  0  0  0  0  0
  145.5887  130.7228  149.8257 H   0  0  0  0  0  0  0  0  0  0  0  0
  147.3872  130.7257  151.1246 H   0  0  0  0  0  0  0  0  0  0  0  0
  1  2  1  0  0  0  0
  1 32  1  0  0  0  0
  1 33  1  0  0  0  0
  1 34  1  0  0  0  0
  2  3  1  0  0  0  0
  3 30  1  0  0  0  0
  3 29  1  0  0  0  0
  3  4  1  0  0  0  0
  4  5  1  0  0  0  0
  4 35  1  0  0  0  0
  4 36  1  0  0  0  0
  5 31  1  0  0  0  0
  5  6  1  0  0  0  0
  5 27  1  0  0  0  0
  6  7  1  0  0  0  0
  6 37  1  0  0  0  0
  6 38  1  0  0  0  0
  7  8  1  0  0  0  0
  7  9  1  0  0  0  0
  8 39  1  0  0  0  0
  8 40  1  0  0  0  0
  8 41  1  0  0  0  0
  9 14  1  0  0  0  0
  9 10  2  0  0  0  0
 10 11  1  0  0  0  0
 11 12  2  0  0  0  0
 11 42  1  0  0  0  0
 12 13  1  0  0  0  0
 13 17  1  0  0  0  0
 13 14  2  0  0  0  0
 14 15  1  0  0  0  0
 15 16  2  0  0  0  0
 16 17  1  0  0  0  0
 16 43  1  0  0  0  0
 17 18  1  0  0  0  0
 18 19  1  0  0  0  0
 18 44  1  0  0  0  0
 18 45  1  0  0  0  0
 19 20  1  0  0  0  0
 19 22  1  0  0  0  0
 19 46  1  0  0  0  0
 20 21  1  0  0  0  0
 20 47  1  0  0  0  0
 20 48  1  0  0  0  0
 21 49  1  0  0  0  0
 22 26  1  0  0  0  0
 22 23  1  0  0  0  0
 22 50  1  0  0  0  0
 23 24  1  0  0  0  0
 23 51  1  0  0  0  0
 23 52  1  0  0  0  0
 24 25  1  0  0  0  0
 24 53  1  0  0  0  0
 24 54  1  0  0  0  0
 25 26  1  0  0  0  0
 26 55  1  0  0  0  0
 26 56  1  0  0  0  0
 27 28  1  0  0  0  0
 27 29  1  0  0  0  0
 27 62  1  0  0  0  0
 28 57  1  0  0  0  0
 28 58  1  0  0  0  0
 28 59  1  0  0  0  0
 29 60  1  0  0  0  0
 29 61  1  0  0  0  0
M  CHG  1  27   1
M  END
> <s_m_source_file>
AV-unprocessed.smi

> <i_m_source_file_index>
21

> <i_lp_mmshare_version>
43012

> <i_f3d_flags>
0

> <s_epik_input>
W0NIM11PW0NASF0xW0NIMl1bQ0BIXShOKFtDSDNdKVtDSDJdMSlbQ0gyXU4oW0NIM10pYyhuW2NIXW4yKWMoYzIzKW5bY0hdbjNbQ0gyXVtDQEhdKFtDSDJdW09IXSlbQ0BASF00W0NIMl1bQ0gyXU9bQ0gyXTQ=

> <s_epik_cmdline>
J2VwaWtfcHl0aG9uJywgJy1waCcsICc3LjAnLCAnLXRuJywgJzgnLCAnLW1hJywgJzIwMCcsICctbWV0YWxfYmluZGluZycsICctaW1hZScsICc8aW5maWxlLm1hZT4nLCAnLW9tYWUnLCAnPG91dGZpbGUubWFlPic=

> <r_lp_tautomer_probability>
1

> <r_epik_Ionization_Penalty>
0.0157465

> <r_epik_Ionization_Penalty_Charging>
0.015354

> <r_epik_Ionization_Penalty_Neutral>
0.000392529

> <r_epik_State_Penalty>
0.0120612

> <r_epik_Charging_Adjusted_Penalty>
0.0274152

> <i_epik_Tot_Q>
1

> <i_epik_Tot_abs_Q>
1

> <r_epik_Metal_State_Penalty>
0.0121253

> <b_epik_Metal_Only>
0

> <s_lp_Force_Field>
OPLS_2005

> <r_lp_Energy>
60.8003

> <b_lp_Chiralities_Consistent>
1

> <s_lp_Variant>
AV-unprocessed.smi:21-25

> <Gold.Version>
5.8.1

> <Gold.Id.Protein>
6NUR|6NUR_protein|mol2

> <Gold.PLP.Fitness>
49.5292

> <Gold.PLP.PLP>
-45.3641

> <Gold.PLP.part.hbond>
-2.0000

> <Gold.PLP.part.metal>
0.0000

> <Gold.PLP.part.buried>
-3.5855

> <Gold.PLP.part.nonpolar>
-39.6292

> <Gold.PLP.part.repulsive>
0.3107

> <Gold.PLP.ligand.clash>
0.0000

> <Gold.PLP.ligand.torsion>
2.6982

> <Gold.PLP.Chemscore.Hbond>
2.0000

> <Gold.PLP.Chemscore.CHOScore>
0.9997

> <Gold.PLP.Chemscore.Metal>
0.0000

> <Gold.Chemscore.Hbonds>
donor molecule, donor type, donor heavy atom, donor atom, acceptor molecule, acceptor atom, score
      L1  H    27    62       P1 10747  1.00

> <Gold.PLP.Chemscore.Internal.Correction>
0.5622

> <Gold.Rescore>
     Score         DG    S(hbond)    S(metal)    S(lipo)     H(rot)  DE(clash)    DE(int)     intcor
     13.02     -15.81       1.99        0.00      98.71       3.08       0.13       2.65       ----

> <Gold.Chemscore.Fitness>
13.0224

> <Gold.Chemscore.DG>
-15.8073

> <Gold.Chemscore.ZeroCoef>
-5.4800

> <Gold.Chemscore.Hbond>
1.9917

> <Gold.Chemscore.Metal>
0.0000

> <Gold.Chemscore.Lipo>
98.7122

> <Gold.Chemscore.Internal_Hbond>
0.0000

> <Gold.Chemscore.DEClash>
0.1320

> <Gold.Chemscore.DEInternal>
2.6530

> <Gold.Chemscore.Rot>
3.0758

> <Gold.Chemscore.Internal.Correction>
   9.000000E+99

> <Gold.Chemscore.Hbonds>
donor molecule, donor type, donor heavy atom, donor atom, acceptor molecule, acceptor atom, score
      L1  H    27    62       P1 10747  0.99

> <Gold.Chemscore.Hbond.Weighted>
-6.6521

> <Gold.Chemscore.Metal.Weighted>
-0.0000

> <Gold.Chemscore.Lipo.Weighted>
-11.5493

> <Gold.Chemscore.Internal_Hbond.Weighted>
0.0000

> <Gold.Chemscore.DEClash.Weighted>
0.1320

> <Gold.Chemscore.DEInternal.Weighted>
2.6530

> <Gold.Chemscore.Rot.Weighted>
7.8741

> <Gold.Chemscore.Internal.Correction.Weighted>
   9.000000E+99

> <Gold.Protein.RotatedTorsions>
[ 6907 6896 6895 6894 ] final    4.51 input  -60.11 | X-H torsion
[ 7974 7965 7964 7962 ] final -151.49 input  175.53 | X-H torsion
[ 8008 7997 7996 7995 ] final  104.95 input   59.86 | X-H torsion
[ 10167 10162 10161 10158 ] final  -84.50 input  -65.29 | X-H torsion
[ 10718 10713 10712 10709 ] final  155.92 input   66.30 | X-H torsion
[ 10763 10752 10751 10750 ] final   98.96 input  -60.55 | X-H torsion
[ 11005 11000 10999 10996 ] final  -28.66 input  -57.11 | X-H torsion

> <Gold.Protein.ActiveResidues>
 VAL166  LYS551  ARG553  GLY616  TRP617  ASP618  TYR619  PRO620  LYS621  CYS622 
 ASP623  PHE694  ASN695  SER759  ASP760  ASP761  ALA762  ILE779  LEU786  VAL792 
 PHE793  MET794  SER795  GLU796  ALA797  LYS798  CYS799  TRP800  GLU811  SER814 

> <Gold.Protein.RotatedAtoms>
  151.6425  135.1011  160.0144 H   0  0  0  0  0  0  0  0  0  0  0  0  # atno 6907 bound_to 6896
  152.4046  133.6865  159.6354 H   0  0  0  0  0  0  0  0  0  0  0  0  # atno 6908 bound_to 6896
  150.7942  133.8649  159.3283 H   0  0  0  0  0  0  0  0  0  0  0  0  # atno 6909 bound_to 6896
  144.7847  140.4790  143.5814 H   0  0  0  0  0  0  0  0  0  0  0  0  # atno 7974 bound_to 7965
  156.1617  140.3139  155.8819 H   0  0  0  0  0  0  0  0  0  0  0  0  # atno 8008 bound_to 7997
  155.3768  140.0485  157.3061 H   0  0  0  0  0  0  0  0  0  0  0  0  # atno 8009 bound_to 7997
  154.5153  140.2179  155.9088 H   0  0  0  0  0  0  0  0  0  0  0  0  # atno 8010 bound_to 7997
  140.4126  143.2616  151.8997 H   0  0  0  0  0  0  0  0  0  0  0  0  # atno 10167 bound_to 10162
  157.2119  131.0699  151.1964 H   0  0  0  0  0  0  0  0  0  0  0  0  # atno 10718 bound_to 10713
  153.2955  135.4130  155.1206 H   0  0  0  0  0  0  0  0  0  0  0  0  # atno 10763 bound_to 10752
  154.8534  135.3529  154.5922 H   0  0  0  0  0  0  0  0  0  0  0  0  # atno 10764 bound_to 10752
  153.6346  135.7059  153.5321 H   0  0  0  0  0  0  0  0  0  0  0  0  # atno 10765 bound_to 10752
  140.9228  133.7388  156.0825 H   0  0  0  0  0  0  0  0  0  0  0  0  # atno 11005 bound_to 11000
  145.5954  139.1499  143.3159 LP  0  0  0  0  0  0  0  0  0  0  0  0  # atno 17320 bound_to 7965
  146.2073  140.6078  142.9075 LP  0  0  0  0  0  0  0  0  0  0  0  0  # atno 17321 bound_to 7965
  139.4782  144.5521  151.8370 LP  0  0  0  0  0  0  0  0  0  0  0  0  # atno 17342 bound_to 10162
  140.4621  144.1707  150.5907 LP  0  0  0  0  0  0  0  0  0  0  0  0  # atno 17343 bound_to 10162
  157.3664  130.7158  149.6535 LP  0  0  0  0  0  0  0  0  0  0  0  0  # atno 17370 bound_to 10713
  155.9690  130.4211  150.4454 LP  0  0  0  0  0  0  0  0  0  0  0  0  # atno 17371 bound_to 10713
  140.7965  134.3557  157.5451 LP  0  0  0  0  0  0  0  0  0  0  0  0  # atno 17394 bound_to 11000
  139.8779  134.9172  156.3173 LP  0  0  0  0  0  0  0  0  0  0  0  0  # atno 17395 bound_to 11000

$$$$
