AV-unprocessed.smi:1190|AV-procd|sdf|4982|dock4
  -GOLD-   22720 3583D 1   1.00000     0.00000
 Structure written by MMmdl.
 44 45  0  0  0  0  0  0  0  0  2 V2000
  153.2192  143.4090  162.7085 C   0  0  0  0  0  0  0  0  0  0  0  0
  153.5691  142.5028  161.6682 O   0  0  0  0  0  0  0  0  0  0  0  0
  152.7890  142.4795  160.5304 C   0  0  0  0  0  0  0  0  0  0  0  0
  152.1335  143.6629  160.1378 C   0  0  0  0  0  0  0  0  0  0  0  0
  151.3381  143.6440  158.9769 C   0  0  0  0  0  0  0  0  0  0  0  0
  151.2261  142.4494  158.2372 C   0  0  0  0  0  0  0  0  0  0  0  0
  150.4028  142.4612  157.0786 N   0  0  0  0  0  0  0  0  0  0  0  0
  150.0171  141.4273  156.3113 C   0  0  0  0  0  0  0  0  0  0  0  0
  150.3393  140.2525  156.4815 O   0  0  0  0  0  0  0  0  0  0  0  0
  149.2376  141.8397  155.3016 N   0  0  0  0  0  0  0  0  0  0  0  0
  148.6364  140.9761  154.2858 C   0  0  0  0  0  0  0  0  0  0  0  0
  147.1416  141.2919  154.0095 C   0  0  2  0  0  0  0  0  0  0  0  0
  146.4896  141.8947  155.2732 C   0  0  0  0  0  0  0  0  0  0  0  0
  146.3881  140.1085  153.4805 N   0  3  0  0  0  0  0  0  0  0  0  0
  146.9448  139.5428  152.2206 C   0  0  0  0  0  0  0  0  0  0  0  0
  146.1097  138.3480  151.7296 C   0  0  0  0  0  0  0  0  0  0  0  0
  146.0444  137.3566  152.7434 O   0  0  0  0  0  0  0  0  0  0  0  0
  145.4094  137.8515  153.9124 C   0  0  0  0  0  0  0  0  0  0  0  0
  146.2243  139.0225  154.4857 C   0  0  0  0  0  0  0  0  0  0  0  0
  151.9137  141.3095  158.7213 C   0  0  0  0  0  0  0  0  0  0  0  0
  152.6775  141.3212  159.8344 N   0  0  0  0  0  0  0  0  0  0  0  0
  153.9258  143.3034  163.5315 H   0  0  0  0  0  0  0  0  0  0  0  0
  152.2225  143.2011  163.1003 H   0  0  0  0  0  0  0  0  0  0  0  0
  153.2613  144.4443  162.3672 H   0  0  0  0  0  0  0  0  0  0  0  0
  152.2384  144.5683  160.7173 H   0  0  0  0  0  0  0  0  0  0  0  0
  150.8247  144.5396  158.6588 H   0  0  0  0  0  0  0  0  0  0  0  0
  150.1088  143.3764  156.7708 H   0  0  0  0  0  0  0  0  0  0  0  0
  149.0200  142.8241  155.2463 H   0  0  0  0  0  0  0  0  0  0  0  0
  149.2143  141.0129  153.3606 H   0  0  0  0  0  0  0  0  0  0  0  0
  148.7405  139.9481  154.6317 H   0  0  0  0  0  0  0  0  0  0  0  0
  147.1120  142.0688  153.2437 H   0  0  0  0  0  0  0  0  0  0  0  0
  147.1254  142.6619  155.7161 H   0  0  0  0  0  0  0  0  0  0  0  0
  146.3107  141.1358  156.0352 H   0  0  0  0  0  0  0  0  0  0  0  0
  145.5400  142.3809  155.0506 H   0  0  0  0  0  0  0  0  0  0  0  0
  146.9488  140.2879  151.4263 H   0  0  0  0  0  0  0  0  0  0  0  0
  147.9790  139.2354  152.3832 H   0  0  0  0  0  0  0  0  0  0  0  0
  145.1045  138.6653  151.4471 H   0  0  0  0  0  0  0  0  0  0  0  0
  146.5659  137.9120  150.8405 H   0  0  0  0  0  0  0  0  0  0  0  0
  144.3870  138.1595  153.6870 H   0  0  0  0  0  0  0  0  0  0  0  0
  145.3445  137.0465  154.6445 H   0  0  0  0  0  0  0  0  0  0  0  0
  147.2062  138.6702  154.8051 H   0  0  0  0  0  0  0  0  0  0  0  0
  145.7109  139.3865  155.3742 H   0  0  0  0  0  0  0  0  0  0  0  0
  151.8501  140.3499  158.2332 H   0  0  0  0  0  0  0  0  0  0  0  0
  145.4606  140.4396  153.2562 H   0  0  0  0  0  0  0  0  0  0  0  0
  1  2  1  0  0  0  0
  1 22  1  0  0  0  0
  1 23  1  0  0  0  0
  1 24  1  0  0  0  0
  2  3  1  0  0  0  0
  3 21  1  0  0  0  0
  3  4  2  0  0  0  0
  4  5  1  0  0  0  0
  4 25  1  0  0  0  0
  5  6  2  0  0  0  0
  5 26  1  0  0  0  0
  6  7  1  0  0  0  0
  6 20  1  0  0  0  0
  7  8  1  0  0  0  0
  7 27  1  0  0  0  0
  8  9  2  0  0  0  0
  8 10  1  0  0  0  0
 10 11  1  0  0  0  0
 10 28  1  0  0  0  0
 11 12  1  0  0  0  0
 11 29  1  0  0  0  0
 11 30  1  0  0  0  0
 12 13  1  0  0  0  0
 12 14  1  0  0  0  0
 12 31  1  0  0  0  0
 13 32  1  0  0  0  0
 13 33  1  0  0  0  0
 13 34  1  0  0  0  0
 14 19  1  0  0  0  0
 14 15  1  0  0  0  0
 14 44  1  0  0  0  0
 15 16  1  0  0  0  0
 15 35  1  0  0  0  0
 15 36  1  0  0  0  0
 16 17  1  0  0  0  0
 16 37  1  0  0  0  0
 16 38  1  0  0  0  0
 17 18  1  0  0  0  0
 18 19  1  0  0  0  0
 18 39  1  0  0  0  0
 18 40  1  0  0  0  0
 19 41  1  0  0  0  0
 19 42  1  0  0  0  0
 20 21  2  0  0  0  0
 20 43  1  0  0  0  0
M  CHG  1  14   1
M  END
> <s_m_source_file>
AV-unprocessed.smi

> <i_m_source_file_index>
1190

> <i_lp_mmshare_version>
43012

> <i_f3d_flags>
0

> <s_epik_input>
W0NIM11PYzFbY0hdW2NIXWMoW2NIXW4xKVtOSF1DKD1PKVtOSF1bQ0gyXVtDQEhdKFtDSDNdKU4yW0NIMl1bQ0gyXU9bQ0gyXVtDSDJdMg==

> <s_epik_cmdline>
J2VwaWtfcHl0aG9uJywgJy1waCcsICc3LjAnLCAnLXRuJywgJzgnLCAnLW1hJywgJzIwMCcsICctbWV0YWxfYmluZGluZycsICctaW1hZScsICc8aW5maWxlLm1hZT4nLCAnLW9tYWUnLCAnPG91dGZpbGUubWFlPic=

> <r_lp_tautomer_probability>
1

> <r_epik_Ionization_Penalty>
0.602608

> <r_epik_Ionization_Penalty_Charging>
0.602531

> <r_epik_Ionization_Penalty_Neutral>
7.70246e-05

> <r_epik_State_Penalty>
0.617039

> <r_epik_Charging_Adjusted_Penalty>
1.21957

> <i_epik_Tot_Q>
1

> <i_epik_Tot_abs_Q>
1

> <r_epik_Metal_State_Penalty>
0.617043

> <b_epik_Metal_Only>
0

> <s_lp_Force_Field>
OPLS_2005

> <r_lp_Energy>
31.3292

> <b_lp_Chiralities_Consistent>
1

> <s_lp_Variant>
AV-unprocessed.smi:1190-3

> <Gold.Version>
5.8.1

> <Gold.Id.Protein>
6NUR|6NUR_protein|mol2

> <Gold.PLP.Fitness>
49.0758

> <Gold.PLP.PLP>
-38.7612

> <Gold.PLP.part.hbond>
-3.0000

> <Gold.PLP.part.metal>
0.0000

> <Gold.PLP.part.buried>
-0.8327

> <Gold.PLP.part.nonpolar>
-37.3952

> <Gold.PLP.part.repulsive>
1.2652

> <Gold.PLP.ligand.clash>
0.0451

> <Gold.PLP.ligand.torsion>
0.8510

> <Gold.PLP.Chemscore.Hbond>
3.9913

> <Gold.PLP.Chemscore.CHOScore>
0.0000

> <Gold.PLP.Chemscore.Metal>
0.0000

> <Gold.Chemscore.Hbonds>
donor molecule, donor type, donor heavy atom, donor atom, acceptor molecule, acceptor atom, score
      L1  H     7    27       P1  8028  0.76
      L1  H    10    28       P1  8028  1.00
      L1  H    14    44       P1 10175  2.00

> <Gold.PLP.Chemscore.Internal.Correction>
0.0879

> <Gold.Rescore>
     Score         DG    S(hbond)    S(metal)    S(lipo)     H(rot)  DE(clash)    DE(int)     intcor
     18.88     -21.10       2.96        0.00      88.03       1.79       0.08       2.14       ----

> <Gold.Chemscore.Fitness>
18.8829

> <Gold.Chemscore.DG>
-21.1032

> <Gold.Chemscore.ZeroCoef>
-5.4800

> <Gold.Chemscore.Hbond>
2.9645

> <Gold.Chemscore.Metal>
0.0000

> <Gold.Chemscore.Lipo>
88.0286

> <Gold.Chemscore.Internal_Hbond>
0.0000

> <Gold.Chemscore.DEClash>
0.0790

> <Gold.Chemscore.DEInternal>
2.1413

> <Gold.Chemscore.Rot>
1.7881

> <Gold.Chemscore.Internal.Correction>
   9.000000E+99

> <Gold.Chemscore.Hbonds>
donor molecule, donor type, donor heavy atom, donor atom, acceptor molecule, acceptor atom, score
      L1  H     7    27       P1  8028  0.75
      L1  H    10    28       P1  8028  0.99
      L1  H    14    44       P1 10175  0.96

> <Gold.Chemscore.Hbond.Weighted>
-9.9014

> <Gold.Chemscore.Metal.Weighted>
-0.0000

> <Gold.Chemscore.Lipo.Weighted>
-10.2993

> <Gold.Chemscore.Internal_Hbond.Weighted>
0.0000

> <Gold.Chemscore.DEClash.Weighted>
0.0790

> <Gold.Chemscore.DEInternal.Weighted>
2.1413

> <Gold.Chemscore.Rot.Weighted>
4.5775

> <Gold.Chemscore.Internal.Correction.Weighted>
   9.000000E+99

> <Gold.Protein.RotatedTorsions>
[ 6907 6896 6895 6894 ] final   50.40 input  -60.11 | X-H torsion
[ 7974 7965 7964 7962 ] final  124.92 input  175.53 | X-H torsion
[ 8008 7997 7996 7995 ] final  -24.13 input   59.86 | X-H torsion
[ 10167 10162 10161 10158 ] final   41.64 input  -65.29 | X-H torsion
[ 10718 10713 10712 10709 ] final -142.18 input   66.30 | X-H torsion
[ 10763 10752 10751 10750 ] final  -97.83 input  -60.55 | X-H torsion
[ 11005 11000 10999 10996 ] final   67.61 input  -57.11 | X-H torsion

> <Gold.Protein.ActiveResidues>
 VAL166  LYS551  ARG553  GLY616  TRP617  ASP618  TYR619  PRO620  LYS621  CYS622 
 ASP623  PHE694  ASN695  SER759  ASP760  ASP761  ALA762  ILE779  LEU786  VAL792 
 PHE793  MET794  SER795  GLU796  ALA797  LYS798  CYS799  TRP800  GLU811  SER814 

> <Gold.Protein.RotatedAtoms>
  152.3014  134.7606  160.0356 H   0  0  0  0  0  0  0  0  0  0  0  0  # atno 6907 bound_to 6896
  151.8118  133.3377  159.3566 H   0  0  0  0  0  0  0  0  0  0  0  0  # atno 6908 bound_to 6896
  150.7275  134.5586  159.5875 H   0  0  0  0  0  0  0  0  0  0  0  0  # atno 6909 bound_to 6896
  145.0789  139.3672  143.4919 H   0  0  0  0  0  0  0  0  0  0  0  0  # atno 7974 bound_to 7965
  154.4546  140.1962  156.0417 H   0  0  0  0  0  0  0  0  0  0  0  0  # atno 8008 bound_to 7997
  156.0719  140.3283  155.7559 H   0  0  0  0  0  0  0  0  0  0  0  0  # atno 8009 bound_to 7997
  155.5249  140.0573  157.2890 H   0  0  0  0  0  0  0  0  0  0  0  0  # atno 8010 bound_to 7997
  140.3623  144.2213  150.6137 H   0  0  0  0  0  0  0  0  0  0  0  0  # atno 10167 bound_to 10162
  156.3428  130.7646  151.1786 H   0  0  0  0  0  0  0  0  0  0  0  0  # atno 10718 bound_to 10713
  154.7362  135.5032  153.9045 H   0  0  0  0  0  0  0  0  0  0  0  0  # atno 10763 bound_to 10752
  153.0997  135.6682  153.9704 H   0  0  0  0  0  0  0  0  0  0  0  0  # atno 10764 bound_to 10752
  153.9493  135.3059  155.3418 H   0  0  0  0  0  0  0  0  0  0  0  0  # atno 10765 bound_to 10752
  139.9760  134.6821  156.0353 H   0  0  0  0  0  0  0  0  0  0  0  0  # atno 11005 bound_to 11000
  146.3530  140.0570  142.8632 LP  0  0  0  0  0  0  0  0  0  0  0  0  # atno 17320 bound_to 7965
  145.1202  140.9458  143.4605 LP  0  0  0  0  0  0  0  0  0  0  0  0  # atno 17321 bound_to 7965
  140.5115  143.2289  151.8528 LP  0  0  0  0  0  0  0  0  0  0  0  0  # atno 17342 bound_to 10162
  139.4813  144.4944  151.9143 LP  0  0  0  0  0  0  0  0  0  0  0  0  # atno 17343 bound_to 10162
  157.7449  131.0449  150.4819 LP  0  0  0  0  0  0  0  0  0  0  0  0  # atno 17370 bound_to 10713
  156.5002  130.4115  149.6357 LP  0  0  0  0  0  0  0  0  0  0  0  0  # atno 17371 bound_to 10713
  141.1437  133.6560  156.3805 LP  0  0  0  0  0  0  0  0  0  0  0  0  # atno 17394 bound_to 11000
  140.5193  134.6319  157.5312 LP  0  0  0  0  0  0  0  0  0  0  0  0  # atno 17395 bound_to 11000

$$$$
