AV-unprocessed.smi:2410|AV-procd|sdf|9529|dock7
  -GOLD-   2272013163D 1   1.00000     0.00000
 Structure written by MMmdl.
 47 49  0  0  0  0  0  0  0  0  2 V2000
  152.0037  144.5281  160.2942 C   0  0  0  0  0  0  0  0  0  0  0  0
  151.9106  143.3914  159.2908 C   0  0  0  0  0  0  0  0  0  0  0  0
  151.0537  143.5435  158.1768 C   0  0  0  0  0  0  0  0  0  0  0  0
  150.9908  142.4868  157.2760 C   0  0  0  0  0  0  0  0  0  0  0  0
  150.2554  142.3271  156.0991 N   0  3  0  0  0  0  0  0  0  0  0  0
  150.5283  141.1088  155.5541 C   0  0  0  0  0  0  0  0  0  0  0  0
  151.4263  140.4891  156.3668 N   0  0  0  0  0  0  0  0  0  0  0  0
  152.0562  139.1677  156.2555 C   0  0  0  0  0  0  0  0  0  0  0  0
  151.2437  138.1971  155.3767 C   0  0  1  0  0  0  0  0  0  0  0  0
  152.1405  137.2683  154.7991 O   0  0  0  0  0  0  0  0  0  0  0  0
  150.1828  137.4306  156.1960 C   0  0  0  0  0  0  0  0  0  0  0  0
  150.1466  136.0004  155.8496 N   0  0  0  0  0  0  0  0  0  0  0  0
  149.2872  135.6347  154.8011 C   0  0  0  0  0  0  0  0  0  0  0  0
  149.1773  134.4072  154.4103 N   0  0  0  0  0  0  0  0  0  0  0  0
  149.9220  133.4054  155.0399 C   0  0  0  0  0  0  0  0  0  0  0  0
  149.7206  132.0011  154.4987 C   0  0  0  0  0  0  0  0  0  0  0  0
  150.7645  133.6922  156.0696 C   0  0  0  0  0  0  0  0  0  0  0  0
  151.5986  132.6430  156.7940 C   0  0  0  0  0  0  0  0  0  0  0  0
  150.8962  135.0842  156.5290 C   0  0  0  0  0  0  0  0  0  0  0  0
  151.6265  135.4143  157.4663 O   0  0  0  0  0  0  0  0  0  0  0  0
  151.7437  141.3104  157.4532 C   0  0  0  0  0  0  0  0  0  0  0  0
  152.5915  141.1426  158.5453 C   0  0  0  0  0  0  0  0  0  0  0  0
  152.6684  142.2053  159.4733 C   0  0  0  0  0  0  0  0  0  0  0  0
  153.5855  142.0510  160.6746 C   0  0  0  0  0  0  0  0  0  0  0  0
  151.3840  145.3750  159.9974 H   0  0  0  0  0  0  0  0  0  0  0  0
  153.0313  144.8823  160.3790 H   0  0  0  0  0  0  0  0  0  0  0  0
  151.6678  144.1980  161.2776 H   0  0  0  0  0  0  0  0  0  0  0  0
  150.4730  144.4427  158.0320 H   0  0  0  0  0  0  0  0  0  0  0  0
  150.1067  140.7068  154.6441 H   0  0  0  0  0  0  0  0  0  0  0  0
  153.0600  139.3074  155.8515 H   0  0  0  0  0  0  0  0  0  0  0  0
  152.1811  138.7701  157.2636 H   0  0  0  0  0  0  0  0  0  0  0  0
  150.7685  138.7598  154.5727 H   0  0  0  0  0  0  0  0  0  0  0  0
  152.3268  137.5402  153.9134 H   0  0  0  0  0  0  0  0  0  0  0  0
  150.3247  137.5986  157.2659 H   0  0  0  0  0  0  0  0  0  0  0  0
  149.1946  137.8474  155.9928 H   0  0  0  0  0  0  0  0  0  0  0  0
  148.7237  136.4520  154.3478 H   0  0  0  0  0  0  0  0  0  0  0  0
  150.6593  131.6012  154.1145 H   0  0  0  0  0  0  0  0  0  0  0  0
  148.9944  131.9890  153.6849 H   0  0  0  0  0  0  0  0  0  0  0  0
  149.3530  131.3383  155.2827 H   0  0  0  0  0  0  0  0  0  0  0  0
  151.3433  132.6267  157.8542 H   0  0  0  0  0  0  0  0  0  0  0  0
  152.6596  132.8785  156.7042 H   0  0  0  0  0  0  0  0  0  0  0  0
  151.4528  131.6359  156.4066 H   0  0  0  0  0  0  0  0  0  0  0  0
  153.1671  140.2388  158.6836 H   0  0  0  0  0  0  0  0  0  0  0  0
  154.0648  141.0716  160.6867 H   0  0  0  0  0  0  0  0  0  0  0  0
  153.0248  142.1577  161.6033 H   0  0  0  0  0  0  0  0  0  0  0  0
  154.3707  142.8070  160.6539 H   0  0  0  0  0  0  0  0  0  0  0  0
  149.6133  142.9977  155.6961 H   0  0  0  0  0  0  0  0  0  0  0  0
  1  2  1  0  0  0  0
  1 25  1  0  0  0  0
  1 26  1  0  0  0  0
  1 27  1  0  0  0  0
  2 23  1  0  0  0  0
  2  3  2  0  0  0  0
  3  4  1  0  0  0  0
  3 28  1  0  0  0  0
  4 21  2  0  0  0  0
  4  5  1  0  0  0  0
  5  6  2  0  0  0  0
  5 47  1  0  0  0  0
  6  7  1  0  0  0  0
  6 29  1  0  0  0  0
  7  8  1  0  0  0  0
  7 21  1  0  0  0  0
  8  9  1  0  0  0  0
  8 30  1  0  0  0  0
  8 31  1  0  0  0  0
  9 10  1  0  0  0  0
  9 11  1  0  0  0  0
  9 32  1  0  0  0  0
 10 33  1  0  0  0  0
 11 12  1  0  0  0  0
 11 34  1  0  0  0  0
 11 35  1  0  0  0  0
 12 19  1  0  0  0  0
 12 13  1  0  0  0  0
 13 14  2  0  0  0  0
 13 36  1  0  0  0  0
 14 15  1  0  0  0  0
 15 16  1  0  0  0  0
 15 17  2  0  0  0  0
 16 37  1  0  0  0  0
 16 38  1  0  0  0  0
 16 39  1  0  0  0  0
 17 18  1  0  0  0  0
 17 19  1  0  0  0  0
 18 40  1  0  0  0  0
 18 41  1  0  0  0  0
 18 42  1  0  0  0  0
 19 20  2  0  0  0  0
 21 22  1  0  0  0  0
 22 23  2  0  0  0  0
 22 43  1  0  0  0  0
 23 24  1  0  0  0  0
 24 44  1  0  0  0  0
 24 45  1  0  0  0  0
 24 46  1  0  0  0  0
M  CHG  1   5   1
M  END
> <s_m_source_file>
AV-unprocessed.smi

> <i_m_source_file_index>
2410

> <i_lp_mmshare_version>
43012

> <i_f3d_flags>
0

> <s_epik_input>
W0NIM11jKFtjSF0xKWMoW0NIM10pW2NIXWMoYzEyKW4oW2NIXW4yKVtDSDJdW0NASF0oW09IXSlbQ0gyXW4zW2NIXW5jKFtDSDNdKWMoW0NIM10pYzM9Tw==

> <s_epik_cmdline>
J2VwaWtfcHl0aG9uJywgJy1waCcsICc3LjAnLCAnLXRuJywgJzgnLCAnLW1hJywgJzIwMCcsICctbWV0YWxfYmluZGluZycsICctaW1hZScsICc8aW5maWxlLm1hZT4nLCAnLW9tYWUnLCAnPG91dGZpbGUubWFlPic=

> <r_lp_tautomer_probability>
1

> <r_epik_Ionization_Penalty>
1.03571

> <r_epik_Ionization_Penalty_Charging>
1.03568

> <r_epik_Ionization_Penalty_Neutral>
3.18232e-05

> <r_epik_State_Penalty>
1.08724

> <r_epik_Charging_Adjusted_Penalty>
2.12292

> <i_epik_Tot_Q>
1

> <i_epik_Tot_abs_Q>
1

> <r_epik_Metal_State_Penalty>
1.18374

> <b_epik_Metal_Only>
0

> <s_lp_Force_Field>
OPLS_2005

> <r_lp_Energy>
24.5117

> <b_lp_Chiralities_Consistent>
1

> <s_lp_Variant>
AV-unprocessed.smi:2410-4

> <Gold.Version>
5.8.1

> <Gold.Id.Protein>
6NUR|6NUR_protein|mol2

> <Gold.PLP.Fitness>
53.3386

> <Gold.PLP.PLP>
-47.0354

> <Gold.PLP.part.hbond>
-3.0000

> <Gold.PLP.part.metal>
0.0000

> <Gold.PLP.part.buried>
-5.2881

> <Gold.PLP.part.nonpolar>
-38.3906

> <Gold.PLP.part.repulsive>
0.3839

> <Gold.PLP.ligand.clash>
0.0000

> <Gold.PLP.ligand.torsion>
1.6468

> <Gold.PLP.Chemscore.Hbond>
2.6720

> <Gold.PLP.Chemscore.CHOScore>
0.5229

> <Gold.PLP.Chemscore.Metal>
0.0000

> <Gold.Chemscore.Hbonds>
donor molecule, donor type, donor heavy atom, donor atom, acceptor molecule, acceptor atom, score
      L1  H     5    47       P1  8028  2.00
      P1  H 10752 10763       L1    10  0.65
      L1  C    13    36       P1  7948  0.53

> <Gold.PLP.Chemscore.Internal.Correction>
0.0120

> <Gold.Rescore>
     Score         DG    S(hbond)    S(metal)    S(lipo)     H(rot)  DE(clash)    DE(int)     intcor
     15.40     -17.15       1.17        0.00     119.04       2.41       0.10       1.66       ----

> <Gold.Chemscore.Fitness>
15.3973

> <Gold.Chemscore.DG>
-17.1541

> <Gold.Chemscore.ZeroCoef>
-5.4800

> <Gold.Chemscore.Hbond>
1.1687

> <Gold.Chemscore.Metal>
0.0000

> <Gold.Chemscore.Lipo>
119.0422

> <Gold.Chemscore.Internal_Hbond>
0.0000

> <Gold.Chemscore.DEClash>
0.0956

> <Gold.Chemscore.DEInternal>
1.6612

> <Gold.Chemscore.Rot>
2.4052

> <Gold.Chemscore.Internal.Correction>
   9.000000E+99

> <Gold.Chemscore.Hbonds>
donor molecule, donor type, donor heavy atom, donor atom, acceptor molecule, acceptor atom, score
      L1  H     5    47       P1  8028  0.94
      P1  H 10752 10763       L1    10  0.15

> <Gold.Chemscore.Hbond.Weighted>
-3.9035

> <Gold.Chemscore.Metal.Weighted>
-0.0000

> <Gold.Chemscore.Lipo.Weighted>
-13.9279

> <Gold.Chemscore.Internal_Hbond.Weighted>
0.0000

> <Gold.Chemscore.DEClash.Weighted>
0.0956

> <Gold.Chemscore.DEInternal.Weighted>
1.6612

> <Gold.Chemscore.Rot.Weighted>
6.1573

> <Gold.Chemscore.Internal.Correction.Weighted>
   9.000000E+99

> <Gold.Protein.RotatedTorsions>
[ 6907 6896 6895 6894 ] final    8.61 input  -60.11 | X-H torsion
[ 7974 7965 7964 7962 ] final -150.77 input  175.53 | X-H torsion
[ 8008 7997 7996 7995 ] final  -87.90 input   59.86 | X-H torsion
[ 10167 10162 10161 10158 ] final   11.93 input  -65.29 | X-H torsion
[ 10718 10713 10712 10709 ] final  -84.41 input   66.30 | X-H torsion
[ 10763 10752 10751 10750 ] final   72.11 input  -60.55 | X-H torsion
[ 11005 11000 10999 10996 ] final   44.85 input  -57.11 | X-H torsion

> <Gold.Protein.ActiveResidues>
 VAL166  LYS551  ARG553  GLY616  TRP617  ASP618  TYR619  PRO620  LYS621  CYS622 
 ASP623  PHE694  ASN695  SER759  ASP760  ASP761  ALA762  ILE779  LEU786  VAL792 
 PHE793  MET794  SER795  GLU796  ALA797  LYS798  CYS799  TRP800  GLU811  SER814 

> <Gold.Protein.RotatedAtoms>
  151.7088  135.0916  160.0263 H   0  0  0  0  0  0  0  0  0  0  0  0  # atno 6907 bound_to 6896
  152.3674  133.6371  159.6070 H   0  0  0  0  0  0  0  0  0  0  0  0  # atno 6908 bound_to 6896
  150.7648  133.9241  159.3448 H   0  0  0  0  0  0  0  0  0  0  0  0  # atno 6909 bound_to 6896
  144.7888  140.4888  143.5787 H   0  0  0  0  0  0  0  0  0  0  0  0  # atno 7974 bound_to 7965
  154.6686  140.0560  157.0141 H   0  0  0  0  0  0  0  0  0  0  0  0  # atno 8008 bound_to 7997
  155.1122  140.3239  155.4500 H   0  0  0  0  0  0  0  0  0  0  0  0  # atno 8009 bound_to 7997
  156.2648  140.2012  156.6246 H   0  0  0  0  0  0  0  0  0  0  0  0  # atno 8010 bound_to 7997
  140.6100  143.8427  150.7055 H   0  0  0  0  0  0  0  0  0  0  0  0  # atno 10167 bound_to 10162
  156.0006  130.4697  150.4406 H   0  0  0  0  0  0  0  0  0  0  0  0  # atno 10718 bound_to 10713
  153.0439  135.5112  154.7695 H   0  0  0  0  0  0  0  0  0  0  0  0  # atno 10763 bound_to 10752
  154.6610  135.2938  154.9868 H   0  0  0  0  0  0  0  0  0  0  0  0  # atno 10764 bound_to 10752
  154.0719  135.6676  153.4878 H   0  0  0  0  0  0  0  0  0  0  0  0  # atno 10765 bound_to 10752
  140.1514  134.4457  155.8379 H   0  0  0  0  0  0  0  0  0  0  0  0  # atno 11005 bound_to 11000
  145.5849  139.1491  143.3215 LP  0  0  0  0  0  0  0  0  0  0  0  0  # atno 17320 bound_to 7965
  146.2132  140.5977  142.9050 LP  0  0  0  0  0  0  0  0  0  0  0  0  # atno 17321 bound_to 7965
  140.1993  143.3972  152.1803 LP  0  0  0  0  0  0  0  0  0  0  0  0  # atno 17342 bound_to 10162
  139.5354  144.7204  151.4911 LP  0  0  0  0  0  0  0  0  0  0  0  0  # atno 17343 bound_to 10162
  157.2447  131.0533  151.2415 LP  0  0  0  0  0  0  0  0  0  0  0  0  # atno 17370 bound_to 10713
  157.3586  130.7119  149.6487 LP  0  0  0  0  0  0  0  0  0  0  0  0  # atno 17371 bound_to 10713
  141.2199  133.6874  156.7428 LP  0  0  0  0  0  0  0  0  0  0  0  0  # atno 17394 bound_to 11000
  140.2600  134.8474  157.3750 LP  0  0  0  0  0  0  0  0  0  0  0  0  # atno 17395 bound_to 11000

$$$$
