AV-unprocessed.smi:701|AV-procd|sdf|3414|dock8
  -GOLD-   22720 0393D 1   1.00000     0.00000
 Structure written by MMmdl.
 48 50  0  0  0  0  0  0  0  0  2 V2000
  147.4199  141.1122  153.6170 C   0  0  0  0  0  0  0  0  0  0  0  0
  147.3904  140.3270  154.9300 C   0  0  0  0  0  0  0  0  0  0  0  0
  148.1947  139.1699  154.7822 O   0  0  0  0  0  0  0  0  0  0  0  0
  149.5849  139.4557  154.6951 C   0  0  2  0  0  0  0  0  0  0  0  0
  150.4064  138.2064  154.3533 C   0  0  0  0  0  0  0  0  0  0  0  0
  150.6022  137.9860  155.8570 C   0  0  2  0  0  0  0  0  0  0  0  0
  149.5971  137.0635  156.3839 N   0  0  0  0  0  0  0  0  0  0  0  0
  149.8409  136.0995  157.2827 C   0  0  0  0  0  0  0  0  0  0  0  0
  150.9629  135.8644  157.7331 O   0  0  0  0  0  0  0  0  0  0  0  0
  148.6332  135.2647  157.7247 C   0  0  0  0  0  0  0  0  0  0  0  0
  148.2762  135.5022  159.1319 N   0  0  0  0  0  0  0  0  0  0  0  0
  148.1410  134.3828  159.9718 C   0  0  0  0  0  0  0  0  0  0  0  0
  147.8232  134.5067  161.2745 C   0  0  0  0  0  0  0  0  0  0  0  0
  147.6170  135.8466  161.8104 C   0  0  0  0  0  0  0  0  0  0  0  0
  147.3202  135.9782  162.9963 O   0  0  0  0  0  0  0  0  0  0  0  0
  147.7654  136.9014  160.9565 N   0  5  0  0  0  0  0  0  0  0  0  0
  148.0920  136.7605  159.6343 C   0  0  0  0  0  0  0  0  0  0  0  0
  148.2235  137.7264  158.8816 O   0  0  0  0  0  0  0  0  0  0  0  0
  150.2719  139.4893  156.0863 C   0  0  0  0  0  0  0  0  0  0  0  0
  151.5231  140.3895  156.1672 C   0  0  0  0  0  0  0  0  0  0  0  0
  151.1951  141.8931  156.1758 C   0  0  0  0  0  0  0  0  0  0  0  0
  150.2459  142.2505  157.3255 C   0  0  0  0  0  0  0  0  0  0  0  0
  149.0002  141.3573  157.3096 C   0  0  0  0  0  0  0  0  0  0  0  0
  149.3849  139.8691  157.2939 C   0  0  0  0  0  0  0  0  0  0  0  0
  146.8021  142.0078  153.6833 H   0  0  0  0  0  0  0  0  0  0  0  0
  147.0455  140.5071  152.7909 H   0  0  0  0  0  0  0  0  0  0  0  0
  148.4356  141.4231  153.3705 H   0  0  0  0  0  0  0  0  0  0  0  0
  147.7593  140.9515  155.7444 H   0  0  0  0  0  0  0  0  0  0  0  0
  146.3658  140.0405  155.1714 H   0  0  0  0  0  0  0  0  0  0  0  0
  149.8066  140.3236  154.0729 H   0  0  0  0  0  0  0  0  0  0  0  0
  149.8630  137.4154  153.8352 H   0  0  0  0  0  0  0  0  0  0  0  0
  151.3381  138.4462  153.8393 H   0  0  0  0  0  0  0  0  0  0  0  0
  151.6282  137.7153  156.1122 H   0  0  0  0  0  0  0  0  0  0  0  0
  148.6450  137.1964  156.0748 H   0  0  0  0  0  0  0  0  0  0  0  0
  147.7764  135.4677  157.0788 H   0  0  0  0  0  0  0  0  0  0  0  0
  148.8701  134.2125  157.5627 H   0  0  0  0  0  0  0  0  0  0  0  0
  148.3174  133.4284  159.4978 H   0  0  0  0  0  0  0  0  0  0  0  0
  147.7273  133.6368  161.9072 H   0  0  0  0  0  0  0  0  0  0  0  0
  152.0931  140.1465  157.0652 H   0  0  0  0  0  0  0  0  0  0  0  0
  152.1967  140.1862  155.3342 H   0  0  0  0  0  0  0  0  0  0  0  0
  152.1145  142.4732  156.2619 H   0  0  0  0  0  0  0  0  0  0  0  0
  150.7414  142.1783  155.2265 H   0  0  0  0  0  0  0  0  0  0  0  0
  150.7661  142.1280  158.2763 H   0  0  0  0  0  0  0  0  0  0  0  0
  149.9575  143.3001  157.2626 H   0  0  0  0  0  0  0  0  0  0  0  0
  148.3792  141.5710  158.1800 H   0  0  0  0  0  0  0  0  0  0  0  0
  148.3935  141.5871  156.4328 H   0  0  0  0  0  0  0  0  0  0  0  0
  148.4654  139.2841  157.3076 H   0  0  0  0  0  0  0  0  0  0  0  0
  149.8975  139.6217  158.2245 H   0  0  0  0  0  0  0  0  0  0  0  0
  1  2  1  0  0  0  0
  1 25  1  0  0  0  0
  1 26  1  0  0  0  0
  1 27  1  0  0  0  0
  2  3  1  0  0  0  0
  2 28  1  0  0  0  0
  2 29  1  0  0  0  0
  3  4  1  0  0  0  0
  4 19  1  0  0  0  0
  4  5  1  0  0  0  0
  4 30  1  0  0  0  0
  5  6  1  0  0  0  0
  5 31  1  0  0  0  0
  5 32  1  0  0  0  0
  6  7  1  0  0  0  0
  6 19  1  0  0  0  0
  6 33  1  0  0  0  0
  7  8  1  0  0  0  0
  7 34  1  0  0  0  0
  8  9  2  0  0  0  0
  8 10  1  0  0  0  0
 10 11  1  0  0  0  0
 10 35  1  0  0  0  0
 10 36  1  0  0  0  0
 11 17  1  0  0  0  0
 11 12  1  0  0  0  0
 12 13  2  0  0  0  0
 12 37  1  0  0  0  0
 13 14  1  0  0  0  0
 13 38  1  0  0  0  0
 14 15  2  0  0  0  0
 14 16  1  0  0  0  0
 16 17  1  0  0  0  0
 17 18  2  0  0  0  0
 19 24  1  0  0  0  0
 19 20  1  0  0  0  0
 20 21  1  0  0  0  0
 20 39  1  0  0  0  0
 20 40  1  0  0  0  0
 21 22  1  0  0  0  0
 21 41  1  0  0  0  0
 21 42  1  0  0  0  0
 22 23  1  0  0  0  0
 22 43  1  0  0  0  0
 22 44  1  0  0  0  0
 23 24  1  0  0  0  0
 23 45  1  0  0  0  0
 23 46  1  0  0  0  0
 24 47  1  0  0  0  0
 24 48  1  0  0  0  0
M  CHG  1  16  -1
M  END
> <s_m_source_file>
AV-unprocessed.smi

> <i_m_source_file_index>
701

> <i_lp_mmshare_version>
43012

> <i_f3d_flags>
0

> <s_epik_input>
W0NIMl0xW0NIMl1bQ0gyXVtDSDJdW0NIMl1DMTJbQ0BIXShPW0NIMl1bQ0gzXSlbQ0gyXVtDQEhdMltOSF1DKD1PKVtDSDJdbjNbY0hdW2NIXWMoPU8pW25IXWMzPU8=

> <s_epik_cmdline>
J2VwaWtfcHl0aG9uJywgJy1waCcsICc3LjAnLCAnLXRuJywgJzgnLCAnLW1hJywgJzIwMCcsICctbWV0YWxfYmluZGluZycsICctaW1hZScsICc8aW5maWxlLm1hZT4nLCAnLW9tYWUnLCAnPG91dGZpbGUubWFlPic=

> <r_lp_tautomer_probability>
0.999537

> <r_epik_Ionization_Penalty>
3.12423

> <r_epik_Ionization_Penalty_Charging>
2.92877e-08

> <r_epik_Ionization_Penalty_Neutral>
3.12423

> <r_epik_State_Penalty>
3.12332

> <r_epik_Charging_Adjusted_Penalty>
3.12332

> <i_epik_Tot_Q>
-1

> <i_epik_Tot_abs_Q>
1

> <r_epik_Metal_State_Penalty>
0.463873

> <b_epik_Metal_Only>
1

> <s_lp_Force_Field>
OPLS_2005

> <r_lp_Energy>
38.2445

> <b_lp_Chiralities_Consistent>
1

> <s_lp_Variant>
AV-unprocessed.smi:701-7

> <Gold.Version>
5.8.1

> <Gold.Id.Protein>
6NUR|6NUR_protein|mol2

> <Gold.PLP.Fitness>
41.9636

> <Gold.PLP.PLP>
-31.2635

> <Gold.PLP.part.hbond>
-3.8503

> <Gold.PLP.part.metal>
0.0000

> <Gold.PLP.part.buried>
-6.1779

> <Gold.PLP.part.nonpolar>
-21.8314

> <Gold.PLP.part.repulsive>
0.0951

> <Gold.PLP.ligand.clash>
0.0000

> <Gold.PLP.ligand.torsion>
0.4899

> <Gold.PLP.Chemscore.Hbond>
3.7776

> <Gold.PLP.Chemscore.CHOScore>
0.0000

> <Gold.PLP.Chemscore.Metal>
0.0000

> <Gold.Chemscore.Hbonds>
donor molecule, donor type, donor heavy atom, donor atom, acceptor molecule, acceptor atom, score
      P1  H  6896  6907       L1     9  0.09
      P1  H  6931  6943       L1    16  1.76
      P1  H  6934  6947       L1    16  1.00

> <Gold.PLP.Chemscore.Internal.Correction>
0.3472

> <Gold.Rescore>
     Score         DG    S(hbond)    S(metal)    S(lipo)     H(rot)  DE(clash)    DE(int)     intcor
      8.10     -11.08       0.63        0.00      74.40       2.04       0.36       2.61       ----

> <Gold.Chemscore.Fitness>
8.1036

> <Gold.Chemscore.DG>
-11.0763

> <Gold.Chemscore.ZeroCoef>
-5.4800

> <Gold.Chemscore.Hbond>
0.6328

> <Gold.Chemscore.Metal>
0.0000

> <Gold.Chemscore.Lipo>
74.4005

> <Gold.Chemscore.Internal_Hbond>
0.0000

> <Gold.Chemscore.DEClash>
0.3605

> <Gold.Chemscore.DEInternal>
2.6122

> <Gold.Chemscore.Rot>
2.0399

> <Gold.Chemscore.Internal.Correction>
   9.000000E+99

> <Gold.Chemscore.Hbonds>
donor molecule, donor type, donor heavy atom, donor atom, acceptor molecule, acceptor atom, score
      P1  H  6896  6907       L1     9  0.06
      P1  H  6931  6943       L1    16  0.39
      P1  H  6934  6947       L1    16  0.11

> <Gold.Chemscore.Hbond.Weighted>
-2.1136

> <Gold.Chemscore.Metal.Weighted>
-0.0000

> <Gold.Chemscore.Lipo.Weighted>
-8.7049

> <Gold.Chemscore.Internal_Hbond.Weighted>
0.0000

> <Gold.Chemscore.DEClash.Weighted>
0.3605

> <Gold.Chemscore.DEInternal.Weighted>
2.6122

> <Gold.Chemscore.Rot.Weighted>
5.2222

> <Gold.Chemscore.Internal.Correction.Weighted>
   9.000000E+99

> <Gold.Protein.RotatedTorsions>
[ 6907 6896 6895 6894 ] final  -87.39 input  -60.11 | X-H torsion
[ 7974 7965 7964 7962 ] final -173.11 input  175.53 | X-H torsion
[ 8008 7997 7996 7995 ] final  -44.35 input   59.86 | X-H torsion
[ 10167 10162 10161 10158 ] final  -52.30 input  -65.29 | X-H torsion
[ 10718 10713 10712 10709 ] final   22.08 input   66.30 | X-H torsion
[ 10763 10752 10751 10750 ] final   58.68 input  -60.55 | X-H torsion
[ 11005 11000 10999 10996 ] final   36.05 input  -57.11 | X-H torsion

> <Gold.Protein.ActiveResidues>
 VAL166  LYS551  ARG553  GLY616  TRP617  ASP618  TYR619  PRO620  LYS621  CYS622 
 ASP623  PHE694  ASN695  SER759  ASP760  ASP761  ALA762  ILE779  LEU786  VAL792 
 PHE793  MET794  SER795  GLU796  ALA797  LYS798  CYS799  TRP800  GLU811  SER814 

> <Gold.Protein.RotatedAtoms>
  150.6866  134.2903  159.4663 H   0  0  0  0  0  0  0  0  0  0  0  0  # atno 6907 bound_to 6896
  152.0809  134.9469  160.0582 H   0  0  0  0  0  0  0  0  0  0  0  0  # atno 6908 bound_to 6896
  152.0822  133.4124  159.4543 H   0  0  0  0  0  0  0  0  0  0  0  0  # atno 6909 bound_to 6896
  144.7140  140.1671  143.6371 H   0  0  0  0  0  0  0  0  0  0  0  0  # atno 7974 bound_to 7965
  154.3997  140.1424  156.3668 H   0  0  0  0  0  0  0  0  0  0  0  0  # atno 8008 bound_to 7997
  155.8130  140.3472  155.5448 H   0  0  0  0  0  0  0  0  0  0  0  0  # atno 8009 bound_to 7997
  155.8367  140.0920  157.1750 H   0  0  0  0  0  0  0  0  0  0  0  0  # atno 8010 bound_to 7997
  140.6544  143.2589  151.4628 H   0  0  0  0  0  0  0  0  0  0  0  0  # atno 10167 bound_to 10162
  157.1474  130.6659  149.6000 H   0  0  0  0  0  0  0  0  0  0  0  0  # atno 10718 bound_to 10713
  152.9876  135.5598  154.5592 H   0  0  0  0  0  0  0  0  0  0  0  0  # atno 10763 bound_to 10752
  154.5014  135.2797  155.1420 H   0  0  0  0  0  0  0  0  0  0  0  0  # atno 10764 bound_to 10752
  154.2849  135.6337  153.5414 H   0  0  0  0  0  0  0  0  0  0  0  0  # atno 10765 bound_to 10752
  140.2365  134.3465  155.7942 H   0  0  0  0  0  0  0  0  0  0  0  0  # atno 11005 bound_to 11000
  145.8977  139.2412  143.1512 LP  0  0  0  0  0  0  0  0  0  0  0  0  # atno 17320 bound_to 7965
  145.9841  140.8658  143.0099 LP  0  0  0  0  0  0  0  0  0  0  0  0  # atno 17321 bound_to 7965
  139.5765  144.1808  152.1909 LP  0  0  0  0  0  0  0  0  0  0  0  0  # atno 17342 bound_to 10162
  140.1120  144.5449  150.6919 LP  0  0  0  0  0  0  0  0  0  0  0  0  # atno 17343 bound_to 10162
  155.9777  130.4756  150.6609 LP  0  0  0  0  0  0  0  0  0  0  0  0  # atno 17370 bound_to 10713
  157.4251  131.0842  151.1093 LP  0  0  0  0  0  0  0  0  0  0  0  0  # atno 17371 bound_to 10713
  141.2214  133.7274  156.8816 LP  0  0  0  0  0  0  0  0  0  0  0  0  # atno 17394 bound_to 11000
  140.1697  134.9108  157.2818 LP  0  0  0  0  0  0  0  0  0  0  0  0  # atno 17395 bound_to 11000

$$$$
