AV-unprocessed.smi:240|AV-procd|sdf|1829|dock8
  -GOLD-   2262020433D 1   1.00000     0.00000
 Structure written by MMmdl.
 55 59  0  0  0  0  0  0  0  0  1 V2000
  146.6637  131.1605  153.5535 O   0  0  0  0  0  0  0  0  0  0  0  0
  147.5088  131.7805  152.6002 C   0  0  1  0  0  0  0  0  0  0  0  0
  146.6359  132.4894  151.5633 C   0  0  0  0  0  0  0  0  0  0  0  0
  146.3179  133.8602  152.1677 C   0  0  0  0  0  0  0  0  0  0  0  0
  147.3082  134.0608  153.3240 C   0  0  0  0  0  0  0  0  0  0  0  0
  148.3390  132.9158  153.2353 C   0  0  1  0  0  0  0  0  0  0  0  0
  149.1072  132.5420  154.5479 C   0  0  1  0  0  0  0  0  0  0  0  0
  149.9405  131.2500  154.3309 C   0  0  0  0  0  0  0  0  0  0  0  0
  150.6842  130.9089  155.4935 O   0  0  0  0  0  0  0  0  0  0  0  0
  151.6238  131.9175  155.8279 C   0  0  0  0  0  0  0  0  0  0  0  0
  150.8557  133.2018  156.1516 C   0  0  0  0  0  0  0  0  0  0  0  0
  150.0200  133.5983  155.0216 N   0  0  0  0  0  0  0  0  0  0  0  0
  149.4962  134.8195  155.2634 C   0  0  0  0  0  0  0  0  0  0  0  0
  148.2454  134.8601  155.7846 N   0  0  0  0  0  0  0  0  0  0  0  0
  147.6673  136.0377  156.0399 C   0  0  0  0  0  0  0  0  0  0  0  0
  148.1517  137.2660  155.8440 N   0  0  0  0  0  0  0  0  0  0  0  0
  149.4044  137.2268  155.3052 C   0  0  0  0  0  0  0  0  0  0  0  0
  150.1457  136.0556  154.9838 C   0  0  0  0  0  0  0  0  0  0  0  0
  151.3811  136.4064  154.4533 N   0  0  0  0  0  0  0  0  0  0  0  0
  151.3716  137.7115  154.4635 C   0  0  0  0  0  0  0  0  0  0  0  0
  150.2196  138.2872  154.9506 N   0  0  0  0  0  0  0  0  0  0  0  0
  149.9379  139.7100  155.0663 C   0  0  0  0  0  0  0  0  0  0  0  0
  148.6005  140.1249  154.4099 C   0  0  1  0  0  0  0  0  0  0  0  0
  148.4348  139.3945  153.2065 O   0  0  0  0  0  0  0  0  0  0  0  0
  147.3738  139.8959  155.2881 C   0  0  0  0  0  0  0  0  0  0  0  0
  146.4342  141.0123  154.8556 C   0  0  0  0  0  0  0  0  0  0  0  0
  147.3167  142.1070  154.6780 O   0  0  0  0  0  0  0  0  0  0  0  0
  148.5184  141.6291  154.0810 C   0  0  0  0  0  0  0  0  0  0  0  0
  146.4265  130.3033  153.2343 H   0  0  0  0  0  0  0  0  0  0  0  0
  148.1343  131.0205  152.1307 H   0  0  0  0  0  0  0  0  0  0  0  0
  147.2116  132.6294  150.6475 H   0  0  0  0  0  0  0  0  0  0  0  0
  145.7404  131.9258  151.2979 H   0  0  0  0  0  0  0  0  0  0  0  0
  146.4160  134.6447  151.4167 H   0  0  0  0  0  0  0  0  0  0  0  0
  145.2938  133.8915  152.5412 H   0  0  0  0  0  0  0  0  0  0  0  0
  147.7703  135.0452  153.2641 H   0  0  0  0  0  0  0  0  0  0  0  0
  146.7683  134.0062  154.2699 H   0  0  0  0  0  0  0  0  0  0  0  0
  149.0835  133.2080  152.4925 H   0  0  0  0  0  0  0  0  0  0  0  0
  148.3813  132.3389  155.3357 H   0  0  0  0  0  0  0  0  0  0  0  0
  149.2968  130.3995  154.1113 H   0  0  0  0  0  0  0  0  0  0  0  0
  150.6160  131.3611  153.4809 H   0  0  0  0  0  0  0  0  0  0  0  0
  152.2023  131.5951  156.6935 H   0  0  0  0  0  0  0  0  0  0  0  0
  152.3277  132.0735  155.0088 H   0  0  0  0  0  0  0  0  0  0  0  0
  150.2349  133.0428  157.0344 H   0  0  0  0  0  0  0  0  0  0  0  0
  151.5616  133.9979  156.3942 H   0  0  0  0  0  0  0  0  0  0  0  0
  146.6737  135.9886  156.4605 H   0  0  0  0  0  0  0  0  0  0  0  0
  152.2077  138.2950  154.1061 H   0  0  0  0  0  0  0  0  0  0  0  0
  149.9304  139.9701  156.1256 H   0  0  0  0  0  0  0  0  0  0  0  0
  150.7670  140.2628  154.6228 H   0  0  0  0  0  0  0  0  0  0  0  0
  148.7648  139.9176  152.4919 H   0  0  0  0  0  0  0  0  0  0  0  0
  146.9382  138.9005  155.1890 H   0  0  0  0  0  0  0  0  0  0  0  0
  147.6288  140.0440  156.3379 H   0  0  0  0  0  0  0  0  0  0  0  0
  145.9465  140.7725  153.9094 H   0  0  0  0  0  0  0  0  0  0  0  0
  145.6658  141.2299  155.5976 H   0  0  0  0  0  0  0  0  0  0  0  0
  149.3614  142.1892  154.4868 H   0  0  0  0  0  0  0  0  0  0  0  0
  148.4921  141.8150  153.0061 H   0  0  0  0  0  0  0  0  0  0  0  0
  1  2  1  0  0  0  0
  1 29  1  0  0  0  0
  2  6  1  0  0  0  0
  2  3  1  0  0  0  0
  2 30  1  0  0  0  0
  3  4  1  0  0  0  0
  3 31  1  0  0  0  0
  3 32  1  0  0  0  0
  4  5  1  0  0  0  0
  4 33  1  0  0  0  0
  4 34  1  0  0  0  0
  5  6  1  0  0  0  0
  5 35  1  0  0  0  0
  5 36  1  0  0  0  0
  6  7  1  0  0  0  0
  6 37  1  0  0  0  0
  7 12  1  0  0  0  0
  7  8  1  0  0  0  0
  7 38  1  0  0  0  0
  8  9  1  0  0  0  0
  8 39  1  0  0  0  0
  8 40  1  0  0  0  0
  9 10  1  0  0  0  0
 10 11  1  0  0  0  0
 10 41  1  0  0  0  0
 10 42  1  0  0  0  0
 11 12  1  0  0  0  0
 11 43  1  0  0  0  0
 11 44  1  0  0  0  0
 12 13  1  0  0  0  0
 13 18  1  0  0  0  0
 13 14  2  0  0  0  0
 14 15  1  0  0  0  0
 15 16  2  0  0  0  0
 15 45  1  0  0  0  0
 16 17  1  0  0  0  0
 17 21  1  0  0  0  0
 17 18  2  0  0  0  0
 18 19  1  0  0  0  0
 19 20  2  0  0  0  0
 20 21  1  0  0  0  0
 20 46  1  0  0  0  0
 21 22  1  0  0  0  0
 22 23  1  0  0  0  0
 22 47  1  0  0  0  0
 22 48  1  0  0  0  0
 23 28  1  0  0  0  0
 23 24  1  0  0  0  0
 23 25  1  0  0  0  0
 24 49  1  0  0  0  0
 25 26  1  0  0  0  0
 25 50  1  0  0  0  0
 25 51  1  0  0  0  0
 26 27  1  0  0  0  0
 26 52  1  0  0  0  0
 26 53  1  0  0  0  0
 27 28  1  0  0  0  0
 28 54  1  0  0  0  0
 28 55  1  0  0  0  0
M  END
> <s_m_source_file>
AV-unprocessed.smi

> <i_m_source_file_index>
240

> <i_lp_mmshare_version>
43012

> <i_f3d_flags>
0

> <s_epik_input>
W09IXVtDQEBIXTFbQ0gyXVtDSDJdW0NIMl1bQ0BIXTFbQ0BASF0yW0NIMl1PW0NIMl1bQ0gyXU4yYyhuW2NIXW4zKWMoYzM0KW5bY0hdbjRbQ0gyXVtDQEBdNShbT0hdKVtDSDJdW0NIMl1PW0NIMl01

> <s_epik_cmdline>
J2VwaWtfcHl0aG9uJywgJy1waCcsICc3LjAnLCAnLXRuJywgJzgnLCAnLW1hJywgJzIwMCcsICctbWV0YWxfYmluZGluZycsICctaW1hZScsICc8aW5maWxlLm1hZT4nLCAnLW9tYWUnLCAnPG91dGZpbGUubWFlPic=

> <r_lp_tautomer_probability>
1

> <r_epik_Ionization_Penalty>
0.000130618

> <r_epik_Ionization_Penalty_Charging>
0

> <r_epik_Ionization_Penalty_Neutral>
0.000130618

> <r_epik_State_Penalty>
-0

> <r_epik_Charging_Adjusted_Penalty>
0

> <i_epik_Tot_Q>
0

> <i_epik_Tot_abs_Q>
0

> <r_epik_Metal_State_Penalty>
-0

> <b_epik_Metal_Only>
0

> <s_lp_Force_Field>
OPLS_2005

> <r_lp_Energy>
62.2831

> <b_lp_Chiralities_Consistent>
1

> <s_lp_Variant>
AV-unprocessed.smi:240-6

> <Gold.Version>
5.8.1

> <Gold.Id.Protein>
6NUR|6NUR_protein|mol2

> <Gold.PLP.Fitness>
41.4405

> <Gold.PLP.PLP>
-37.3912

> <Gold.PLP.part.hbond>
-1.6357

> <Gold.PLP.part.metal>
0.0000

> <Gold.PLP.part.buried>
-4.0061

> <Gold.PLP.part.nonpolar>
-33.1352

> <Gold.PLP.part.repulsive>
1.5115

> <Gold.PLP.ligand.clash>
0.0000

> <Gold.PLP.ligand.torsion>
1.1057

> <Gold.PLP.Chemscore.Hbond>
2.0000

> <Gold.PLP.Chemscore.CHOScore>
0.0000

> <Gold.PLP.Chemscore.Metal>
0.0000

> <Gold.Chemscore.Hbonds>
donor molecule, donor type, donor heavy atom, donor atom, acceptor molecule, acceptor atom, score
      L1  H    24    49       P1  7957  1.00
      P1  H 10752 10763       L1    19  1.00

> <Gold.PLP.Chemscore.Internal.Correction>
0.2606

> <Gold.Rescore>
     Score         DG    S(hbond)    S(metal)    S(lipo)     H(rot)  DE(clash)    DE(int)     intcor
      7.74     -12.24       1.67        0.00      75.81       3.00       0.38       4.12       ----

> <Gold.Chemscore.Fitness>
7.7385

> <Gold.Chemscore.DG>
-12.2383

> <Gold.Chemscore.ZeroCoef>
-5.4800

> <Gold.Chemscore.Hbond>
1.6701

> <Gold.Chemscore.Metal>
0.0000

> <Gold.Chemscore.Lipo>
75.8132

> <Gold.Chemscore.Internal_Hbond>
0.0000

> <Gold.Chemscore.DEClash>
0.3760

> <Gold.Chemscore.DEInternal>
4.1237

> <Gold.Chemscore.Rot>
3.0039

> <Gold.Chemscore.Internal.Correction>
   9.000000E+99

> <Gold.Chemscore.Hbonds>
donor molecule, donor type, donor heavy atom, donor atom, acceptor molecule, acceptor atom, score
      L1  H    24    49       P1  7957  0.92
      P1  H 10752 10763       L1    19  0.95

> <Gold.Chemscore.Hbond.Weighted>
-5.5780

> <Gold.Chemscore.Metal.Weighted>
-0.0000

> <Gold.Chemscore.Lipo.Weighted>
-8.8701

> <Gold.Chemscore.Internal_Hbond.Weighted>
0.0000

> <Gold.Chemscore.DEClash.Weighted>
0.3760

> <Gold.Chemscore.DEInternal.Weighted>
4.1237

> <Gold.Chemscore.Rot.Weighted>
7.6899

> <Gold.Chemscore.Internal.Correction.Weighted>
   9.000000E+99

> <Gold.Protein.RotatedTorsions>
[ 6907 6896 6895 6894 ] final  -38.05 input  -60.11 | X-H torsion
[ 7974 7965 7964 7962 ] final  106.37 input  175.53 | X-H torsion
[ 8008 7997 7996 7995 ] final  125.67 input   59.86 | X-H torsion
[ 10167 10162 10161 10158 ] final   -7.25 input  -65.29 | X-H torsion
[ 10718 10713 10712 10709 ] final  136.12 input   66.30 | X-H torsion
[ 10763 10752 10751 10750 ] final   62.08 input  -60.55 | X-H torsion
[ 11005 11000 10999 10996 ] final   55.35 input  -57.11 | X-H torsion

> <Gold.Protein.ActiveResidues>
 VAL166  LYS551  ARG553  GLY616  TRP617  ASP618  TYR619  PRO620  LYS621  CYS622 
 ASP623  PHE694  ASN695  SER759  ASP760  ASP761  ALA762  ILE779  LEU786  VAL792 
 PHE793  MET794  SER795  GLU796  ALA797  LYS798  CYS799  TRP800  GLU811  SER814 

> <Gold.Protein.RotatedAtoms>
  151.0072  134.9368  159.7986 H   0  0  0  0  0  0  0  0  0  0  0  0  # atno 6907 bound_to 6896
  152.5293  134.3076  159.9111 H   0  0  0  0  0  0  0  0  0  0  0  0  # atno 6908 bound_to 6896
  151.3082  133.4050  159.2679 H   0  0  0  0  0  0  0  0  0  0  0  0  # atno 6909 bound_to 6896
  145.3075  139.2550  143.3781 H   0  0  0  0  0  0  0  0  0  0  0  0  # atno 7974 bound_to 7965
  156.2841  140.2711  156.1987 H   0  0  0  0  0  0  0  0  0  0  0  0  # atno 8008 bound_to 7997
  155.0383  140.0386  157.2518 H   0  0  0  0  0  0  0  0  0  0  0  0  # atno 8009 bound_to 7997
  154.7296  140.2704  155.6473 H   0  0  0  0  0  0  0  0  0  0  0  0  # atno 8010 bound_to 7997
  140.7023  143.6101  150.8712 H   0  0  0  0  0  0  0  0  0  0  0  0  # atno 10167 bound_to 10162
  157.4499  131.1065  151.0045 H   0  0  0  0  0  0  0  0  0  0  0  0  # atno 10718 bound_to 10713
  152.9971  135.5478  154.6136 H   0  0  0  0  0  0  0  0  0  0  0  0  # atno 10763 bound_to 10752
  154.5451  135.2822  155.1062 H   0  0  0  0  0  0  0  0  0  0  0  0  # atno 10764 bound_to 10752
  154.2324  135.6431  153.5232 H   0  0  0  0  0  0  0  0  0  0  0  0  # atno 10765 bound_to 10752
  140.0614  134.5598  155.9148 H   0  0  0  0  0  0  0  0  0  0  0  0  # atno 11005 bound_to 11000
  146.3130  140.3603  142.8664 LP  0  0  0  0  0  0  0  0  0  0  0  0  # atno 17320 bound_to 7965
  144.9043  140.7681  143.5847 LP  0  0  0  0  0  0  0  0  0  0  0  0  # atno 17321 bound_to 7965
  139.9824  143.5936  152.2938 LP  0  0  0  0  0  0  0  0  0  0  0  0  # atno 17342 bound_to 10162
  139.6562  144.7662  151.2051 LP  0  0  0  0  0  0  0  0  0  0  0  0  # atno 17343 bound_to 10162
  157.0878  130.5930  149.5433 LP  0  0  0  0  0  0  0  0  0  0  0  0  # atno 17370 bound_to 10713
  155.9983  130.5056  150.7565 LP  0  0  0  0  0  0  0  0  0  0  0  0  # atno 17371 bound_to 10713
  141.1974  133.6596  156.5742 LP  0  0  0  0  0  0  0  0  0  0  0  0  # atno 17394 bound_to 11000
  140.3765  134.7560  157.4633 LP  0  0  0  0  0  0  0  0  0  0  0  0  # atno 17395 bound_to 11000

$$$$
