AV-unprocessed.smi:48|AV-procd|sdf|450|dock6
  -GOLD-   2262016313D 1   1.00000     0.00000
 Structure written by MMmdl.
 30 32  0  0  0  0  0  0  0  0  1 V2000
  148.0695  136.9924  154.1202 O   0  0  0  0  0  0  0  0  0  0  0  0
  148.2229  137.9555  155.1411 C   0  0  0  0  0  0  0  0  0  0  0  0
  149.6843  137.9950  155.6227 C   0  0  2  0  0  0  0  0  0  0  0  0
  149.8355  138.8915  156.7150 O   0  0  0  0  0  0  0  0  0  0  0  0
  151.1858  139.2015  156.8646 C   0  0  2  0  0  0  0  0  0  0  0  0
  151.2982  140.6341  157.2857 N   0  0  0  0  0  0  0  0  0  0  0  0
  150.7168  141.7025  156.7029 C   0  0  0  0  0  0  0  0  0  0  0  0
  150.9468  142.8985  157.2430 N   0  0  0  0  0  0  0  0  0  0  0  0
  151.7754  142.5677  158.3024 C   0  0  0  0  0  0  0  0  0  0  0  0
  152.4052  143.3440  159.3055 C   0  0  0  0  0  0  0  0  0  0  0  0
  152.2034  145.0570  159.3616 Cl  0  0  0  0  0  0  0  0  0  0  0  0
  153.1730  142.7112  160.2243 N   0  0  0  0  0  0  0  0  0  0  0  0
  153.3138  141.3816  160.1567 C   0  0  0  0  0  0  0  0  0  0  0  0
  152.7870  140.5249  159.2747 N   0  0  0  0  0  0  0  0  0  0  0  0
  152.0111  141.1639  158.3498 C   0  0  0  0  0  0  0  0  0  0  0  0
  151.8891  138.9046  155.5217 C   0  0  2  0  0  0  0  0  0  0  0  0
  152.6621  139.9640  154.9833 O   0  0  0  0  0  0  0  0  0  0  0  0
  150.7427  138.4643  154.6127 C   0  0  2  0  0  0  0  0  0  0  0  0
  150.2517  139.5182  153.8018 O   0  0  0  0  0  0  0  0  0  0  0  0
  149.9654  137.0047  155.9863 H   0  0  0  0  0  0  0  0  0  0  0  0
  151.6117  138.6356  157.6944 H   0  0  0  0  0  0  0  0  0  0  0  0
  152.5520  138.0557  155.6942 H   0  0  0  0  0  0  0  0  0  0  0  0
  151.0488  137.6527  153.9517 H   0  0  0  0  0  0  0  0  0  0  0  0
  148.7886  137.0811  153.5132 H   0  0  0  0  0  0  0  0  0  0  0  0
  147.8896  138.9302  154.7836 H   0  0  0  0  0  0  0  0  0  0  0  0
  147.5686  137.6833  155.9695 H   0  0  0  0  0  0  0  0  0  0  0  0
  150.0852  141.5957  155.8331 H   0  0  0  0  0  0  0  0  0  0  0  0
  153.9390  140.9398  160.9183 H   0  0  0  0  0  0  0  0  0  0  0  0
  152.3369  140.1520  154.1157 H   0  0  0  0  0  0  0  0  0  0  0  0
  150.0734  139.1728  152.9404 H   0  0  0  0  0  0  0  0  0  0  0  0
  1  2  1  0  0  0  0
  1 24  1  0  0  0  0
  2  3  1  0  0  0  0
  2 25  1  0  0  0  0
  2 26  1  0  0  0  0
  3 20  1  0  0  0  0
  3 18  1  0  0  0  0
  3  4  1  0  0  0  0
  4  5  1  0  0  0  0
  5 21  1  0  0  0  0
  5  6  1  0  0  0  0
  5 16  1  0  0  0  0
  6 15  1  0  0  0  0
  6  7  1  0  0  0  0
  7  8  2  0  0  0  0
  7 27  1  0  0  0  0
  8  9  1  0  0  0  0
  9 15  2  0  0  0  0
  9 10  1  0  0  0  0
 10 11  1  0  0  0  0
 10 12  2  0  0  0  0
 12 13  1  0  0  0  0
 13 14  2  0  0  0  0
 13 28  1  0  0  0  0
 14 15  1  0  0  0  0
 16 22  1  0  0  0  0
 16 17  1  0  0  0  0
 16 18  1  0  0  0  0
 17 29  1  0  0  0  0
 18 23  1  0  0  0  0
 18 19  1  0  0  0  0
 19 30  1  0  0  0  0
M  END
> <s_m_source_file>
AV-unprocessed.smi

> <i_m_source_file_index>
48

> <i_lp_mmshare_version>
43012

> <i_f3d_flags>
0

> <s_epik_input>
W09IXVtDSDJdW0NASF0xT1tDQEhdKFtDQEhdKFtPSF0pW0NAQEhdMVtPSF0pbihbY0hdbjIpYyhjMjMpbltjSF1uYzNDbA==

> <s_epik_cmdline>
J2VwaWtfcHl0aG9uJywgJy1waCcsICc3LjAnLCAnLXRuJywgJzgnLCAnLW1hJywgJzIwMCcsICctbWV0YWxfYmluZGluZycsICctaW1hZScsICc8aW5maWxlLm1hZT4nLCAnLW9tYWUnLCAnPG91dGZpbGUubWFlPic=

> <r_lp_tautomer_probability>
1

> <r_epik_Ionization_Penalty>
3.45505e-06

> <r_epik_Ionization_Penalty_Charging>
0

> <r_epik_Ionization_Penalty_Neutral>
3.45505e-06

> <r_epik_State_Penalty>
-0

> <r_epik_Charging_Adjusted_Penalty>
0

> <i_epik_Tot_Q>
0

> <i_epik_Tot_abs_Q>
0

> <r_epik_Metal_State_Penalty>
-0

> <b_epik_Metal_Only>
0

> <s_epik_Chemistry_Notes>
This compound contains an acetal/aminal-like group ( X-CH(R)-Y where X, Y are N, S, or O) that may be acid/base labile, releasing an aldehyde.

> <s_lp_Force_Field>
OPLS_2005

> <r_lp_Energy>
43.6519

> <b_lp_Chiralities_Consistent>
1

> <s_lp_Variant>
AV-unprocessed.smi:48-4

> <Gold.Version>
5.8.1

> <Gold.Id.Protein>
6NUR|6NUR_protein|mol2

> <Gold.PLP.Fitness>
43.4659

> <Gold.PLP.PLP>
-34.1683

> <Gold.PLP.part.hbond>
-5.0000

> <Gold.PLP.part.metal>
0.0000

> <Gold.PLP.part.buried>
-4.7829

> <Gold.PLP.part.nonpolar>
-24.7850

> <Gold.PLP.part.repulsive>
0.1339

> <Gold.PLP.ligand.clash>
0.0000

> <Gold.PLP.ligand.torsion>
0.1635

> <Gold.PLP.Chemscore.Hbond>
3.2080

> <Gold.PLP.Chemscore.CHOScore>
0.0000

> <Gold.PLP.Chemscore.Metal>
0.0000

> <Gold.Chemscore.Hbonds>
donor molecule, donor type, donor heavy atom, donor atom, acceptor molecule, acceptor atom, score
      L1  H     1    24       P1  7948  0.54
      L1  H    19    30       P1  7957  0.67
      P1  H  7989  7998       L1    19  0.98
      P1  H  7997  8010       L1    17  1.00

> <Gold.PLP.Chemscore.Internal.Correction>
0.0006

> <Gold.Rescore>
     Score         DG    S(hbond)    S(metal)    S(lipo)     H(rot)  DE(clash)    DE(int)     intcor
     11.22     -12.12       3.00        0.00      54.31       3.80       0.72       0.18       ----

> <Gold.Chemscore.Fitness>
11.2239

> <Gold.Chemscore.DG>
-12.1183

> <Gold.Chemscore.ZeroCoef>
-5.4800

> <Gold.Chemscore.Hbond>
2.9988

> <Gold.Chemscore.Metal>
0.0000

> <Gold.Chemscore.Lipo>
54.3135

> <Gold.Chemscore.Internal_Hbond>
0.0000

> <Gold.Chemscore.DEClash>
0.7183

> <Gold.Chemscore.DEInternal>
0.1761

> <Gold.Chemscore.Rot>
3.8017

> <Gold.Chemscore.Internal.Correction>
   9.000000E+99

> <Gold.Chemscore.Hbonds>
donor molecule, donor type, donor heavy atom, donor atom, acceptor molecule, acceptor atom, score
      L1  H     1    24       P1  7948  0.56
      L1  H    19    30       P1  7957  0.58
      P1  H  7989  7998       L1    19  0.30
      P1  H  7997  8010       L1    17  0.86

> <Gold.Chemscore.Hbond.Weighted>
-10.0160

> <Gold.Chemscore.Metal.Weighted>
-0.0000

> <Gold.Chemscore.Lipo.Weighted>
-6.3547

> <Gold.Chemscore.Internal_Hbond.Weighted>
0.0000

> <Gold.Chemscore.DEClash.Weighted>
0.7183

> <Gold.Chemscore.DEInternal.Weighted>
0.1761

> <Gold.Chemscore.Rot.Weighted>
9.7324

> <Gold.Chemscore.Internal.Correction.Weighted>
   9.000000E+99

> <Gold.Protein.RotatedTorsions>
[ 6907 6896 6895 6894 ] final -140.03 input  -60.11 | X-H torsion
[ 7974 7965 7964 7962 ] final  -86.94 input  175.53 | X-H torsion
[ 8008 7997 7996 7995 ] final  106.69 input   59.86 | X-H torsion
[ 10167 10162 10161 10158 ] final -107.93 input  -65.29 | X-H torsion
[ 10718 10713 10712 10709 ] final  162.19 input   66.30 | X-H torsion
[ 10763 10752 10751 10750 ] final -132.18 input  -60.55 | X-H torsion
[ 11005 11000 10999 10996 ] final  -18.68 input  -57.11 | X-H torsion

> <Gold.Protein.ActiveResidues>
 VAL166  LYS551  ARG553  GLY616  TRP617  ASP618  TYR619  PRO620  LYS621  CYS622 
 ASP623  PHE694  ASN695  SER759  ASP760  ASP761  ALA762  ILE779  LEU786  VAL792 
 PHE793  MET794  SER795  GLU796  ALA797  LYS798  CYS799  TRP800  GLU811  SER814 

> <Gold.Protein.RotatedAtoms>
  151.0555  133.5588  159.2638 H   0  0  0  0  0  0  0  0  0  0  0  0  # atno 6907 bound_to 6896
  151.2583  135.0645  159.9098 H   0  0  0  0  0  0  0  0  0  0  0  0  # atno 6908 bound_to 6896
  152.5389  134.0304  159.8076 H   0  0  0  0  0  0  0  0  0  0  0  0  # atno 6909 bound_to 6896
  145.4731  140.9559  143.1906 H   0  0  0  0  0  0  0  0  0  0  0  0  # atno 7974 bound_to 7965
  156.1763  140.3108  155.9066 H   0  0  0  0  0  0  0  0  0  0  0  0  # atno 8008 bound_to 7997
  155.3480  140.0469  157.3063 H   0  0  0  0  0  0  0  0  0  0  0  0  # atno 8009 bound_to 7997
  154.5294  140.2225  155.8841 H   0  0  0  0  0  0  0  0  0  0  0  0  # atno 8010 bound_to 7997
  140.1717  143.4038  152.1349 H   0  0  0  0  0  0  0  0  0  0  0  0  # atno 10167 bound_to 10162
  157.1260  131.0504  151.2393 H   0  0  0  0  0  0  0  0  0  0  0  0  # atno 10718 bound_to 10713
  154.8745  135.3806  154.4367 H   0  0  0  0  0  0  0  0  0  0  0  0  # atno 10763 bound_to 10752
  153.5056  135.7030  153.5813 H   0  0  0  0  0  0  0  0  0  0  0  0  # atno 10764 bound_to 10752
  153.4126  135.3921  155.2026 H   0  0  0  0  0  0  0  0  0  0  0  0  # atno 10765 bound_to 10752
  140.8292  133.8009  155.9740 H   0  0  0  0  0  0  0  0  0  0  0  0  # atno 11005 bound_to 11000
  144.7933  139.6284  143.7104 LP  0  0  0  0  0  0  0  0  0  0  0  0  # atno 17320 bound_to 7965
  146.2385  139.5953  142.9507 LP  0  0  0  0  0  0  0  0  0  0  0  0  # atno 17321 bound_to 7965
  139.5335  144.7185  151.4973 LP  0  0  0  0  0  0  0  0  0  0  0  0  # atno 17342 bound_to 10162
  140.6578  143.8563  150.6854 LP  0  0  0  0  0  0  0  0  0  0  0  0  # atno 17343 bound_to 10162
  157.4434  130.7557  149.7089 LP  0  0  0  0  0  0  0  0  0  0  0  0  # atno 17370 bound_to 10713
  155.9818  130.4016  150.3451 LP  0  0  0  0  0  0  0  0  0  0  0  0  # atno 17371 bound_to 10713
  140.9016  134.2371  157.5038 LP  0  0  0  0  0  0  0  0  0  0  0  0  # atno 17394 bound_to 11000
  139.8705  134.9709  156.4718 LP  0  0  0  0  0  0  0  0  0  0  0  0  # atno 17395 bound_to 11000

$$$$
