AV-unprocessed.smi:1512|AV-procd|sdf|6107|dock9
  -GOLD-   22720 6243D 1   1.00000     0.00000
 Structure written by MMmdl.
 44 46  0  0  0  0  0  0  0  0  3 V2000
  150.9457  142.2179  156.3143 C   0  0  0  0  0  0  0  0  0  0  0  0
  150.3450  141.7063  157.6338 C   0  0  1  0  0  0  0  0  0  0  0  0
  150.7337  140.3080  157.8100 N   0  0  0  0  0  0  0  0  0  0  0  0
  149.8963  139.2668  157.9352 C   0  0  0  0  0  0  0  0  0  0  0  0
  148.6714  139.3633  157.8518 O   0  0  0  0  0  0  0  0  0  0  0  0
  150.5520  137.9030  158.1921 C   0  0  0  0  0  0  0  0  0  0  0  0
  150.5264  137.0283  157.0071 N   0  0  0  0  0  0  0  0  0  0  0  0
  150.9754  137.5826  155.7936 C   0  0  0  0  0  0  0  0  0  0  0  0
  150.9797  136.8793  154.6523 C   0  0  0  0  0  0  0  0  0  0  0  0
  150.5106  135.5157  154.6885 C   0  0  0  0  0  0  0  0  0  0  0  0
  150.0761  134.9604  155.8432 C   0  0  0  0  0  0  0  0  0  0  0  0
  149.6240  133.5885  155.8101 N   0  3  0  0  0  0  0  0  0  0  0  0
  149.1093  133.1093  156.8157 O   0  0  0  0  0  0  0  0  0  0  0  0
  149.7839  132.9439  154.7776 O   0  5  0  0  0  0  0  0  0  0  0  0
  150.0666  135.7410  157.0977 C   0  0  0  0  0  0  0  0  0  0  0  0
  149.6631  135.2814  158.1682 O   0  0  0  0  0  0  0  0  0  0  0  0
  150.8065  142.5406  158.8546 C   0  0  1  0  0  0  0  0  0  0  0  0
  152.3396  142.5250  159.0710 C   0  0  0  0  0  0  0  0  0  0  0  0
  152.7069  144.0188  159.1224 C   0  0  2  0  0  0  0  0  0  0  0  0
  152.1570  144.6403  160.4189 C   0  0  0  0  0  0  0  0  0  0  0  0
  150.6416  144.6925  160.1511 C   0  0  0  0  0  0  0  0  0  0  0  0
  150.5221  144.0626  158.7502 C   0  0  1  0  0  0  0  0  0  0  0  0
  151.7749  144.6004  158.0679 C   0  0  0  0  0  0  0  0  0  0  0  0
  150.6425  143.2438  156.1067 H   0  0  0  0  0  0  0  0  0  0  0  0
  150.6169  141.6072  155.4726 H   0  0  0  0  0  0  0  0  0  0  0  0
  152.0356  142.1925  156.3376 H   0  0  0  0  0  0  0  0  0  0  0  0
  149.2597  141.7834  157.5537 H   0  0  0  0  0  0  0  0  0  0  0  0
  151.7235  140.1237  157.8858 H   0  0  0  0  0  0  0  0  0  0  0  0
  151.5751  138.0781  158.5272 H   0  0  0  0  0  0  0  0  0  0  0  0
  150.0579  137.4046  159.0285 H   0  0  0  0  0  0  0  0  0  0  0  0
  151.3047  138.6101  155.8483 H   0  0  0  0  0  0  0  0  0  0  0  0
  151.3235  137.3224  153.7292 H   0  0  0  0  0  0  0  0  0  0  0  0
  150.5193  134.9384  153.7753 H   0  0  0  0  0  0  0  0  0  0  0  0
  150.3064  142.1437  159.7397 H   0  0  0  0  0  0  0  0  0  0  0  0
  152.6242  141.9966  159.9815 H   0  0  0  0  0  0  0  0  0  0  0  0
  152.8578  142.0479  158.2383 H   0  0  0  0  0  0  0  0  0  0  0  0
  153.7670  144.2140  158.9587 H   0  0  0  0  0  0  0  0  0  0  0  0
  152.4043  144.0453  161.2989 H   0  0  0  0  0  0  0  0  0  0  0  0
  152.5544  145.6448  160.5695 H   0  0  0  0  0  0  0  0  0  0  0  0
  150.0646  144.1533  160.9031 H   0  0  0  0  0  0  0  0  0  0  0  0
  150.2904  145.7253  160.1410 H   0  0  0  0  0  0  0  0  0  0  0  0
  149.5875  144.3232  158.2538 H   0  0  0  0  0  0  0  0  0  0  0  0
  151.8056  145.6903  158.0164 H   0  0  0  0  0  0  0  0  0  0  0  0
  151.9378  144.1919  157.0695 H   0  0  0  0  0  0  0  0  0  0  0  0
  1  2  1  0  0  0  0
  1 24  1  0  0  0  0
  1 25  1  0  0  0  0
  1 26  1  0  0  0  0
  2  3  1  0  0  0  0
  2 17  1  0  0  0  0
  2 27  1  0  0  0  0
  3  4  1  0  0  0  0
  3 28  1  0  0  0  0
  4  5  2  0  0  0  0
  4  6  1  0  0  0  0
  6  7  1  0  0  0  0
  6 29  1  0  0  0  0
  6 30  1  0  0  0  0
  7 15  1  0  0  0  0
  7  8  1  0  0  0  0
  8  9  2  0  0  0  0
  8 31  1  0  0  0  0
  9 10  1  0  0  0  0
  9 32  1  0  0  0  0
 10 11  2  0  0  0  0
 10 33  1  0  0  0  0
 11 12  1  0  0  0  0
 11 15  1  0  0  0  0
 12 13  2  0  0  0  0
 12 14  1  0  0  0  0
 15 16  2  0  0  0  0
 17 22  1  0  0  0  0
 17 18  1  0  0  0  0
 17 34  1  0  0  0  0
 18 19  1  0  0  0  0
 18 35  1  0  0  0  0
 18 36  1  0  0  0  0
 19 23  1  0  0  0  0
 19 20  1  0  0  0  0
 19 37  1  0  0  0  0
 20 21  1  0  0  0  0
 20 38  1  0  0  0  0
 20 39  1  0  0  0  0
 21 22  1  0  0  0  0
 21 40  1  0  0  0  0
 21 41  1  0  0  0  0
 22 23  1  0  0  0  0
 22 42  1  0  0  0  0
 23 43  1  0  0  0  0
 23 44  1  0  0  0  0
M  CHG  1  12   1
M  CHG  1  14  -1
M  END
> <s_m_source_file>
AV-unprocessed.smi

> <i_m_source_file_index>
1512

> <i_lp_mmshare_version>
43012

> <i_f3d_flags>
0

> <s_epik_input>
W0NIMl0xW0NIMl1bQ0BIXShbQ0gyXTIpW0NAQEhdKFtDSDJdW0NAQEhdMTIpW0NASF0oW0NIM10pW05IXUMoPU8pW0NIMl1uM1tjSF1bY0hdW2NIXWMoW04rXSg9TylbTy1dKWMzPU8=

> <s_epik_cmdline>
J2VwaWtfcHl0aG9uJywgJy1waCcsICc3LjAnLCAnLXRuJywgJzgnLCAnLW1hJywgJzIwMCcsICctbWV0YWxfYmluZGluZycsICctaW1hZScsICc8aW5maWxlLm1hZT4nLCAnLW9tYWUnLCAnPG91dGZpbGUubWFlPic=

> <r_lp_tautomer_probability>
1

> <r_epik_Ionization_Penalty>
2.17697e-08

> <r_epik_Ionization_Penalty_Charging>
1.42735e-10

> <r_epik_Ionization_Penalty_Neutral>
2.16269e-08

> <r_epik_State_Penalty>
-0

> <r_epik_Charging_Adjusted_Penalty>
1.42735e-10

> <i_epik_Tot_Q>
0

> <i_epik_Tot_abs_Q>
2

> <r_epik_Metal_State_Penalty>
-0

> <b_epik_Metal_Only>
0

> <s_lp_Force_Field>
OPLS_2005

> <r_lp_Energy>
63.9552

> <b_lp_Chiralities_Consistent>
1

> <s_lp_Variant>
AV-unprocessed.smi:1512-8

> <Gold.Version>
5.8.1

> <Gold.Id.Protein>
6NUR|6NUR_protein|mol2

> <Gold.PLP.Fitness>
41.5043

> <Gold.PLP.PLP>
-39.0688

> <Gold.PLP.part.hbond>
-1.0000

> <Gold.PLP.part.metal>
0.0000

> <Gold.PLP.part.buried>
-7.0652

> <Gold.PLP.part.nonpolar>
-30.8729

> <Gold.PLP.part.repulsive>
0.1324

> <Gold.PLP.ligand.clash>
0.0000

> <Gold.PLP.ligand.torsion>
0.3028

> <Gold.PLP.Chemscore.Hbond>
1.0000

> <Gold.PLP.Chemscore.CHOScore>
0.0000

> <Gold.PLP.Chemscore.Metal>
0.0000

> <Gold.Chemscore.Hbonds>
donor molecule, donor type, donor heavy atom, donor atom, acceptor molecule, acceptor atom, score
      P1  H  6896  6908       L1    16  1.00

> <Gold.PLP.Chemscore.Internal.Correction>
0.0412

> <Gold.Rescore>
     Score         DG    S(hbond)    S(metal)    S(lipo)     H(rot)  DE(clash)    DE(int)     intcor
     15.83     -17.75       0.99        0.00     114.76       1.75       0.01       1.91       ----

> <Gold.Chemscore.Fitness>
15.8315

> <Gold.Chemscore.DG>
-17.7475

> <Gold.Chemscore.ZeroCoef>
-5.4800

> <Gold.Chemscore.Hbond>
0.9922

> <Gold.Chemscore.Metal>
0.0000

> <Gold.Chemscore.Lipo>
114.7604

> <Gold.Chemscore.Internal_Hbond>
0.0000

> <Gold.Chemscore.DEClash>
0.0103

> <Gold.Chemscore.DEInternal>
1.9057

> <Gold.Chemscore.Rot>
1.7474

> <Gold.Chemscore.Internal.Correction>
   9.000000E+99

> <Gold.Chemscore.Hbonds>
donor molecule, donor type, donor heavy atom, donor atom, acceptor molecule, acceptor atom, score
      P1  H  6896  6908       L1    16  0.97

> <Gold.Chemscore.Hbond.Weighted>
-3.3139

> <Gold.Chemscore.Metal.Weighted>
-0.0000

> <Gold.Chemscore.Lipo.Weighted>
-13.4270

> <Gold.Chemscore.Internal_Hbond.Weighted>
0.0000

> <Gold.Chemscore.DEClash.Weighted>
0.0103

> <Gold.Chemscore.DEInternal.Weighted>
1.9057

> <Gold.Chemscore.Rot.Weighted>
4.4733

> <Gold.Chemscore.Internal.Correction.Weighted>
   9.000000E+99

> <Gold.Protein.RotatedTorsions>
[ 6907 6896 6895 6894 ] final  155.19 input  -60.11 | X-H torsion
[ 7974 7965 7964 7962 ] final  -61.66 input  175.53 | X-H torsion
[ 8008 7997 7996 7995 ] final    9.18 input   59.86 | X-H torsion
[ 10167 10162 10161 10158 ] final -120.31 input  -65.29 | X-H torsion
[ 10718 10713 10712 10709 ] final   56.57 input   66.30 | X-H torsion
[ 10763 10752 10751 10750 ] final  -73.84 input  -60.55 | X-H torsion
[ 11005 11000 10999 10996 ] final -151.40 input  -57.11 | X-H torsion

> <Gold.Protein.ActiveResidues>
 VAL166  LYS551  ARG553  GLY616  TRP617  ASP618  TYR619  PRO620  LYS621  CYS622 
 ASP623  PHE694  ASN695  SER759  ASP760  ASP761  ALA762  ILE779  LEU786  VAL792 
 PHE793  MET794  SER795  GLU796  ALA797  LYS798  CYS799  TRP800  GLU811  SER814 

> <Gold.Protein.RotatedAtoms>
  152.0477  133.4005  159.4363 H   0  0  0  0  0  0  0  0  0  0  0  0  # atno 6907 bound_to 6896
  150.6872  134.3343  159.4850 H   0  0  0  0  0  0  0  0  0  0  0  0  # atno 6908 bound_to 6896
  152.1150  134.9247  160.0616 H   0  0  0  0  0  0  0  0  0  0  0  0  # atno 6909 bound_to 6896
  145.8008  140.8656  143.0232 H   0  0  0  0  0  0  0  0  0  0  0  0  # atno 7974 bound_to 7965
  154.7767  140.2811  155.6096 H   0  0  0  0  0  0  0  0  0  0  0  0  # atno 8008 bound_to 7997
  156.2943  140.2631  156.2510 H   0  0  0  0  0  0  0  0  0  0  0  0  # atno 8009 bound_to 7997
  154.9834  140.0374  157.2277 H   0  0  0  0  0  0  0  0  0  0  0  0  # atno 8010 bound_to 7997
  140.0372  143.5189  152.2147 H   0  0  0  0  0  0  0  0  0  0  0  0  # atno 10167 bound_to 10162
  157.5442  130.8719  149.8866 H   0  0  0  0  0  0  0  0  0  0  0  0  # atno 10718 bound_to 10713
  154.4650  135.5884  153.6282 H   0  0  0  0  0  0  0  0  0  0  0  0  # atno 10763 bound_to 10752
  152.9827  135.6053  154.3439 H   0  0  0  0  0  0  0  0  0  0  0  0  # atno 10764 bound_to 10752
  154.3315  135.2842  155.2448 H   0  0  0  0  0  0  0  0  0  0  0  0  # atno 10765 bound_to 10752
  140.7300  134.3632  157.5168 H   0  0  0  0  0  0  0  0  0  0  0  0  # atno 11005 bound_to 11000
  144.6769  140.0256  143.7483 LP  0  0  0  0  0  0  0  0  0  0  0  0  # atno 17320 bound_to 7965
  145.9880  139.2992  143.1002 LP  0  0  0  0  0  0  0  0  0  0  0  0  # atno 17321 bound_to 7965
  139.6037  144.7590  151.3112 LP  0  0  0  0  0  0  0  0  0  0  0  0  # atno 17342 bound_to 10162
  140.7276  143.6959  150.7884 LP  0  0  0  0  0  0  0  0  0  0  0  0  # atno 17343 bound_to 10162
  156.0521  130.3715  150.1176 LP  0  0  0  0  0  0  0  0  0  0  0  0  # atno 17370 bound_to 10713
  156.9353  130.9727  151.3526 LP  0  0  0  0  0  0  0  0  0  0  0  0  # atno 17371 bound_to 10713
  139.8828  134.9012  156.2805 LP  0  0  0  0  0  0  0  0  0  0  0  0  # atno 17394 bound_to 11000
  140.9929  133.7197  156.0842 LP  0  0  0  0  0  0  0  0  0  0  0  0  # atno 17395 bound_to 11000

$$$$
