AV-unprocessed.smi:676|AV-procd|sdf|3309|dock9
  -GOLD-   22720 0273D 1   1.00000     0.00000
 Structure written by MMmdl.
 42 43  0  0  0  0  0  0  0  0  1 V2000
  151.4119  131.7623  157.1259 C   0  0  0  0  0  0  0  0  0  0  0  0
  150.6441  132.2739  156.0434 O   0  0  0  0  0  0  0  0  0  0  0  0
  149.8588  133.4484  156.2900 C   0  0  1  0  0  0  0  0  0  0  0  0
  148.8451  133.1924  157.4124 C   0  0  0  0  0  0  0  0  0  0  0  0
  150.7677  134.6907  156.3611 C   0  0  0  0  0  0  0  0  0  0  0  0
  150.7113  134.7276  154.8353 C   0  0  2  0  0  0  0  0  0  0  0  0
  150.6546  136.0861  154.3063 N   0  0  0  0  0  0  0  0  0  0  0  0
  151.5509  137.0440  154.5823 C   0  0  0  0  0  0  0  0  0  0  0  0
  152.5267  136.8621  155.3117 O   0  0  0  0  0  0  0  0  0  0  0  0
  151.3109  138.4022  153.9080 C   0  0  0  0  0  0  0  0  0  0  0  0
  151.1021  139.5013  154.8651 N   0  0  0  0  0  0  0  0  0  0  0  0
  149.8742  140.1891  154.7939 C   0  0  0  0  0  0  0  0  0  0  0  0
  149.5828  141.2084  155.6173 C   0  0  0  0  0  0  0  0  0  0  0  0
  150.5684  141.5968  156.5981 C   0  0  0  0  0  0  0  0  0  0  0  0
  151.7474  140.9480  156.6724 C   0  0  0  0  0  0  0  0  0  0  0  0
  152.0712  139.8346  155.7728 C   0  0  0  0  0  0  0  0  0  0  0  0
  153.1466  139.2381  155.8321 O   0  0  0  0  0  0  0  0  0  0  0  0
  149.3460  133.9971  154.9178 C   0  0  0  0  0  0  0  0  0  0  0  0
  149.0738  132.9595  153.8231 C   0  0  0  0  0  0  0  0  0  0  0  0
  148.0881  134.8846  154.9739 C   0  0  0  0  0  0  0  0  0  0  0  0
  152.0733  130.9804  156.7536 H   0  0  0  0  0  0  0  0  0  0  0  0
  150.7785  131.3103  157.8888 H   0  0  0  0  0  0  0  0  0  0  0  0
  152.0335  132.5253  157.5931 H   0  0  0  0  0  0  0  0  0  0  0  0
  148.1720  134.0377  157.5511 H   0  0  0  0  0  0  0  0  0  0  0  0
  149.3318  133.0344  158.3743 H   0  0  0  0  0  0  0  0  0  0  0  0
  148.2313  132.3172  157.1986 H   0  0  0  0  0  0  0  0  0  0  0  0
  150.2820  135.5441  156.8376 H   0  0  0  0  0  0  0  0  0  0  0  0
  151.7664  134.5340  156.7672 H   0  0  0  0  0  0  0  0  0  0  0  0
  151.4967  134.1125  154.3895 H   0  0  0  0  0  0  0  0  0  0  0  0
  149.8837  136.3112  153.6945 H   0  0  0  0  0  0  0  0  0  0  0  0
  152.1643  138.6150  153.2628 H   0  0  0  0  0  0  0  0  0  0  0  0
  150.4560  138.3252  153.2335 H   0  0  0  0  0  0  0  0  0  0  0  0
  149.1954  139.8420  154.0285 H   0  0  0  0  0  0  0  0  0  0  0  0
  148.6381  141.7271  155.5452 H   0  0  0  0  0  0  0  0  0  0  0  0
  150.3598  142.4122  157.2751 H   0  0  0  0  0  0  0  0  0  0  0  0
  152.4732  141.2532  157.4118 H   0  0  0  0  0  0  0  0  0  0  0  0
  148.7941  133.4332  152.8814 H   0  0  0  0  0  0  0  0  0  0  0  0
  148.2658  132.2845  154.1064 H   0  0  0  0  0  0  0  0  0  0  0  0
  149.9507  132.3466  153.6138 H   0  0  0  0  0  0  0  0  0  0  0  0
  147.8939  135.3694  154.0166 H   0  0  0  0  0  0  0  0  0  0  0  0
  148.1742  135.6760  155.7186 H   0  0  0  0  0  0  0  0  0  0  0  0
  147.2002  134.3031  155.2245 H   0  0  0  0  0  0  0  0  0  0  0  0
  1  2  1  0  0  0  0
  1 21  1  0  0  0  0
  1 22  1  0  0  0  0
  1 23  1  0  0  0  0
  2  3  1  0  0  0  0
  3 18  1  0  0  0  0
  3  4  1  0  0  0  0
  3  5  1  0  0  0  0
  4 24  1  0  0  0  0
  4 25  1  0  0  0  0
  4 26  1  0  0  0  0
  5  6  1  0  0  0  0
  5 27  1  0  0  0  0
  5 28  1  0  0  0  0
  6  7  1  0  0  0  0
  6 18  1  0  0  0  0
  6 29  1  0  0  0  0
  7  8  1  0  0  0  0
  7 30  1  0  0  0  0
  8  9  2  0  0  0  0
  8 10  1  0  0  0  0
 10 11  1  0  0  0  0
 10 31  1  0  0  0  0
 10 32  1  0  0  0  0
 11 16  1  0  0  0  0
 11 12  1  0  0  0  0
 12 13  2  0  0  0  0
 12 33  1  0  0  0  0
 13 14  1  0  0  0  0
 13 34  1  0  0  0  0
 14 15  2  0  0  0  0
 14 35  1  0  0  0  0
 15 16  1  0  0  0  0
 15 36  1  0  0  0  0
 16 17  2  0  0  0  0
 18 19  1  0  0  0  0
 18 20  1  0  0  0  0
 19 37  1  0  0  0  0
 19 38  1  0  0  0  0
 19 39  1  0  0  0  0
 20 40  1  0  0  0  0
 20 41  1  0  0  0  0
 20 42  1  0  0  0  0
M  END
> <s_m_source_file>
AV-unprocessed.smi

> <i_m_source_file_index>
676

> <i_lp_mmshare_version>
43012

> <i_f3d_flags>
0

> <s_epik_input>
W0NIM11PW0NAQF0xKFtDSDNdKVtDSDJdW0NASF0oQzEoW0NIM10pW0NIM10pW05IXUMoPU8pW0NIMl1uMltjSF1bY0hdW2NIXVtjSF1jMj1P

> <s_epik_cmdline>
J2VwaWtfcHl0aG9uJywgJy1waCcsICc3LjAnLCAnLXRuJywgJzgnLCAnLW1hJywgJzIwMCcsICctbWV0YWxfYmluZGluZycsICctaW1hZScsICc8aW5maWxlLm1hZT4nLCAnLW9tYWUnLCAnPG91dGZpbGUubWFlPic=

> <r_lp_tautomer_probability>
1

> <r_epik_Ionization_Penalty>
4.09771e-07

> <r_epik_Ionization_Penalty_Charging>
3.90712e-07

> <r_epik_Ionization_Penalty_Neutral>
1.90591e-08

> <r_epik_State_Penalty>
-0

> <r_epik_Charging_Adjusted_Penalty>
3.90712e-07

> <i_epik_Tot_Q>
0

> <i_epik_Tot_abs_Q>
0

> <r_epik_Metal_State_Penalty>
-0

> <b_epik_Metal_Only>
0

> <s_lp_Force_Field>
OPLS_2005

> <r_lp_Energy>
31.664

> <b_lp_Chiralities_Consistent>
1

> <s_lp_Variant>
AV-unprocessed.smi:676-3

> <Gold.Version>
5.8.1

> <Gold.Id.Protein>
6NUR|6NUR_protein|mol2

> <Gold.PLP.Fitness>
44.6185

> <Gold.PLP.PLP>
-32.7957

> <Gold.PLP.part.hbond>
-4.0000

> <Gold.PLP.part.metal>
0.0000

> <Gold.PLP.part.buried>
-0.9045

> <Gold.PLP.part.nonpolar>
-28.0801

> <Gold.PLP.part.repulsive>
0.1102

> <Gold.PLP.ligand.clash>
0.0000

> <Gold.PLP.ligand.torsion>
0.2761

> <Gold.PLP.Chemscore.Hbond>
3.0000

> <Gold.PLP.Chemscore.CHOScore>
1.0000

> <Gold.PLP.Chemscore.Metal>
0.0000

> <Gold.Chemscore.Hbonds>
donor molecule, donor type, donor heavy atom, donor atom, acceptor molecule, acceptor atom, score
      L1  H     7    30       P1  7948  0.94
      P1  H  7997  8008       L1    17  1.00
      P1  H 10752 10765       L1     9  0.64
      L1  C    12    33       P1  7957  0.06

> <Gold.PLP.Chemscore.Internal.Correction>
0.3751

> <Gold.Rescore>
     Score         DG    S(hbond)    S(metal)    S(lipo)     H(rot)  DE(clash)    DE(int)     intcor
     15.00     -16.80       2.41        0.00      63.31       1.62       0.01       1.80       ----

> <Gold.Chemscore.Fitness>
14.9969

> <Gold.Chemscore.DG>
-16.8044

> <Gold.Chemscore.ZeroCoef>
-5.4800

> <Gold.Chemscore.Hbond>
2.4126

> <Gold.Chemscore.Metal>
0.0000

> <Gold.Chemscore.Lipo>
63.3072

> <Gold.Chemscore.Internal_Hbond>
0.0000

> <Gold.Chemscore.DEClash>
0.0107

> <Gold.Chemscore.DEInternal>
1.7968

> <Gold.Chemscore.Rot>
1.6175

> <Gold.Chemscore.Internal.Correction>
   9.000000E+99

> <Gold.Chemscore.Hbonds>
donor molecule, donor type, donor heavy atom, donor atom, acceptor molecule, acceptor atom, score
      L1  H     7    30       P1  7948  0.19
      P1  H  7997  8008       L1    17  0.87
      P1  H 10752 10765       L1     9  0.42

> <Gold.Chemscore.Hbond.Weighted>
-8.0582

> <Gold.Chemscore.Metal.Weighted>
-0.0000

> <Gold.Chemscore.Lipo.Weighted>
-7.4069

> <Gold.Chemscore.Internal_Hbond.Weighted>
0.0000

> <Gold.Chemscore.DEClash.Weighted>
0.0107

> <Gold.Chemscore.DEInternal.Weighted>
1.7968

> <Gold.Chemscore.Rot.Weighted>
4.1408

> <Gold.Chemscore.Internal.Correction.Weighted>
   9.000000E+99

> <Gold.Protein.RotatedTorsions>
[ 6907 6896 6895 6894 ] final  -20.18 input  -60.11 | X-H torsion
[ 7974 7965 7964 7962 ] final   91.74 input  175.53 | X-H torsion
[ 8008 7997 7996 7995 ] final  -45.13 input   59.86 | X-H torsion
[ 10167 10162 10161 10158 ] final   88.67 input  -65.29 | X-H torsion
[ 10718 10713 10712 10709 ] final -139.91 input   66.30 | X-H torsion
[ 10763 10752 10751 10750 ] final -153.70 input  -60.55 | X-H torsion
[ 11005 11000 10999 10996 ] final  -82.65 input  -57.11 | X-H torsion

> <Gold.Protein.ActiveResidues>
 VAL166  LYS551  ARG553  GLY616  TRP617  ASP618  TYR619  PRO620  LYS621  CYS622 
 ASP623  PHE694  ASN695  SER759  ASP760  ASP761  ALA762  ILE779  LEU786  VAL792 
 PHE793  MET794  SER795  GLU796  ALA797  LYS798  CYS799  TRP800  GLU811  SER814 

> <Gold.Protein.RotatedAtoms>
  151.2520  135.0625  159.9065 H   0  0  0  0  0  0  0  0  0  0  0  0  # atno 6907 bound_to 6896
  152.5379  134.0322  159.8040 H   0  0  0  0  0  0  0  0  0  0  0  0  # atno 6908 bound_to 6896
  151.0532  133.5557  159.2672 H   0  0  0  0  0  0  0  0  0  0  0  0  # atno 6909 bound_to 6896
  145.5015  139.2276  143.2774 H   0  0  0  0  0  0  0  0  0  0  0  0  # atno 7974 bound_to 7965
  154.3999  140.1404  156.3797 H   0  0  0  0  0  0  0  0  0  0  0  0  # atno 8008 bound_to 7997
  155.8016  140.3476  155.5385 H   0  0  0  0  0  0  0  0  0  0  0  0  # atno 8009 bound_to 7997
  155.8478  140.0936  157.1684 H   0  0  0  0  0  0  0  0  0  0  0  0  # atno 8010 bound_to 7997
  139.8650  144.6524  150.9015 H   0  0  0  0  0  0  0  0  0  0  0  0  # atno 10167 bound_to 10162
  156.3162  130.7509  151.1596 H   0  0  0  0  0  0  0  0  0  0  0  0  # atno 10718 bound_to 10713
  154.7910  135.3207  154.7777 H   0  0  0  0  0  0  0  0  0  0  0  0  # atno 10763 bound_to 10752
  153.8466  135.6866  153.4801 H   0  0  0  0  0  0  0  0  0  0  0  0  # atno 10764 bound_to 10752
  153.1580  135.4672  154.9672 H   0  0  0  0  0  0  0  0  0  0  0  0  # atno 10765 bound_to 10752
  141.1662  133.7255  156.8603 H   0  0  0  0  0  0  0  0  0  0  0  0  # atno 11005 bound_to 11000
  146.2223  140.5817  142.9012 LP  0  0  0  0  0  0  0  0  0  0  0  0  # atno 17320 bound_to 7965
  144.7777  140.5774  143.6627 LP  0  0  0  0  0  0  0  0  0  0  0  0  # atno 17321 bound_to 7965
  140.7769  143.3712  151.1646 LP  0  0  0  0  0  0  0  0  0  0  0  0  # atno 17342 bound_to 10162
  139.7338  143.9031  152.3028 LP  0  0  0  0  0  0  0  0  0  0  0  0  # atno 17343 bound_to 10162
  157.7402  131.0520  150.5182 LP  0  0  0  0  0  0  0  0  0  0  0  0  # atno 17370 bound_to 10713
  156.5329  130.4189  149.6193 LP  0  0  0  0  0  0  0  0  0  0  0  0  # atno 17371 bound_to 10713
  140.1853  134.9004  157.2997 LP  0  0  0  0  0  0  0  0  0  0  0  0  # atno 17394 bound_to 11000
  140.2350  134.3864  155.7505 LP  0  0  0  0  0  0  0  0  0  0  0  0  # atno 17395 bound_to 11000

$$$$
