AV-unprocessed.smi:129|AV-procd|sdf|1158|dock6
  -GOLD-   2262018293D 1   1.00000     0.00000
 Structure written by MMmdl.
 58 61  0  0  0  0  0  0  0  0  1 V2000
  151.2694  140.9489  156.3157 C   0  0  0  0  0  0  0  0  0  0  0  0
  151.8414  141.0087  157.6141 O   0  0  0  0  0  0  0  0  0  0  0  0
  151.9202  142.2368  158.2414 C   0  0  0  0  0  0  0  0  0  0  0  0
  151.4007  143.4332  157.6836 C   0  0  0  0  0  0  0  0  0  0  0  0
  151.5091  144.6529  158.3762 C   0  0  0  0  0  0  0  0  0  0  0  0
  152.1297  144.6938  159.6359 C   0  0  0  0  0  0  0  0  0  0  0  0
  152.6491  143.5157  160.2013 C   0  0  0  0  0  0  0  0  0  0  0  0
  152.5602  142.2859  159.5038 C   0  0  0  0  0  0  0  0  0  0  0  0
  153.0508  141.0587  160.0329 N   0  0  0  0  0  0  0  0  0  0  0  0
  153.8699  140.8488  161.0813 C   0  0  0  0  0  0  0  0  0  0  0  0
  154.3101  141.7268  161.8232 O   0  0  0  0  0  0  0  0  0  0  0  0
  154.1948  139.4061  161.3460 C   0  0  0  0  0  0  0  0  0  0  0  0
  154.1604  138.4715  160.2887 C   0  0  0  0  0  0  0  0  0  0  0  0
  154.4391  137.1125  160.5276 C   0  0  0  0  0  0  0  0  0  0  0  0
  154.7571  136.6625  161.8247 C   0  0  0  0  0  0  0  0  0  0  0  0
  155.0048  135.2721  161.9840 N   0  0  0  0  0  0  0  0  0  0  0  0
  154.9098  134.2851  161.0748 C   0  0  0  0  0  0  0  0  0  0  0  0
  154.5284  134.4378  159.9137 O   0  0  0  0  0  0  0  0  0  0  0  0
  155.2735  132.8861  161.5965 C   0  0  0  0  0  0  0  0  0  0  0  0
  154.3394  132.3789  162.6252 N   0  0  0  0  0  0  0  0  0  0  0  0
  154.3119  133.0205  163.8883 C   0  0  0  0  0  0  0  0  0  0  0  0
  155.0405  133.9839  164.1311 O   0  0  0  0  0  0  0  0  0  0  0  0
  153.3790  132.4602  164.8591 C   0  0  0  0  0  0  0  0  0  0  0  0
  153.2788  133.0117  166.0806 F   0  0  0  0  0  0  0  0  0  0  0  0
  152.6116  131.3946  164.5509 C   0  0  0  0  0  0  0  0  0  0  0  0
  152.6578  130.7701  163.3172 N   0  0  0  0  0  0  0  0  0  0  0  0
  151.7988  129.5667  162.9928 C   0  0  1  0  0  0  0  0  0  0  0  0
  151.0792  129.0600  164.2559 C   0  0  0  0  0  0  0  0  0  0  0  0
  149.6408  128.9422  163.7934 C   0  0  0  0  0  0  0  0  0  0  0  0
  149.5599  130.0355  162.7385 C   0  0  0  0  0  0  0  0  0  0  0  0
  150.8097  129.9239  162.0691 O   0  0  0  0  0  0  0  0  0  0  0  0
  153.5324  131.2567  162.3216 C   0  0  0  0  0  0  0  0  0  0  0  0
  153.5941  130.7086  161.2187 O   0  0  0  0  0  0  0  0  0  0  0  0
  154.7670  137.5920  162.8922 C   0  0  0  0  0  0  0  0  0  0  0  0
  154.4898  138.9522  162.6523 C   0  0  0  0  0  0  0  0  0  0  0  0
  151.2779  139.9163  155.9674 H   0  0  0  0  0  0  0  0  0  0  0  0
  151.8402  141.5421  155.5999 H   0  0  0  0  0  0  0  0  0  0  0  0
  150.2319  141.2861  156.3208 H   0  0  0  0  0  0  0  0  0  0  0  0
  150.9108  143.4435  156.7220 H   0  0  0  0  0  0  0  0  0  0  0  0
  151.1090  145.5575  157.9424 H   0  0  0  0  0  0  0  0  0  0  0  0
  152.2024  145.6282  160.1725 H   0  0  0  0  0  0  0  0  0  0  0  0
  153.0982  143.5812  161.1797 H   0  0  0  0  0  0  0  0  0  0  0  0
  152.8149  140.2376  159.4943 H   0  0  0  0  0  0  0  0  0  0  0  0
  153.9222  138.7906  159.2842 H   0  0  0  0  0  0  0  0  0  0  0  0
  154.4097  136.4140  159.7039 H   0  0  0  0  0  0  0  0  0  0  0  0
  155.2386  134.9821  162.9224 H   0  0  0  0  0  0  0  0  0  0  0  0
  155.3247  132.1955  160.7527 H   0  0  0  0  0  0  0  0  0  0  0  0
  156.2973  132.9183  161.9717 H   0  0  0  0  0  0  0  0  0  0  0  0
  151.9411  131.0299  165.3137 H   0  0  0  0  0  0  0  0  0  0  0  0
  152.4680  128.8357  162.5354 H   0  0  0  0  0  0  0  0  0  0  0  0
  151.5026  128.1144  164.5960 H   0  0  0  0  0  0  0  0  0  0  0  0
  151.1627  129.7956  165.0581 H   0  0  0  0  0  0  0  0  0  0  0  0
  149.4722  127.9672  163.3345 H   0  0  0  0  0  0  0  0  0  0  0  0
  148.9191  129.0723  164.6002 H   0  0  0  0  0  0  0  0  0  0  0  0
  148.7242  129.8996  162.0521 H   0  0  0  0  0  0  0  0  0  0  0  0
  149.4672  131.0174  163.2045 H   0  0  0  0  0  0  0  0  0  0  0  0
  154.9661  137.2841  163.9069 H   0  0  0  0  0  0  0  0  0  0  0  0
  154.4948  139.6393  163.4863 H   0  0  0  0  0  0  0  0  0  0  0  0
  1  2  1  0  0  0  0
  1 36  1  0  0  0  0
  1 37  1  0  0  0  0
  1 38  1  0  0  0  0
  2  3  1  0  0  0  0
  3  8  1  0  0  0  0
  3  4  2  0  0  0  0
  4  5  1  0  0  0  0
  4 39  1  0  0  0  0
  5  6  2  0  0  0  0
  5 40  1  0  0  0  0
  6  7  1  0  0  0  0
  6 41  1  0  0  0  0
  7  8  2  0  0  0  0
  7 42  1  0  0  0  0
  8  9  1  0  0  0  0
  9 10  1  0  0  0  0
  9 43  1  0  0  0  0
 10 11  2  0  0  0  0
 10 12  1  0  0  0  0
 12 35  1  0  0  0  0
 12 13  2  0  0  0  0
 13 14  1  0  0  0  0
 13 44  1  0  0  0  0
 14 15  2  0  0  0  0
 14 45  1  0  0  0  0
 15 16  1  0  0  0  0
 15 34  1  0  0  0  0
 16 17  1  0  0  0  0
 16 46  1  0  0  0  0
 17 18  2  0  0  0  0
 17 19  1  0  0  0  0
 19 20  1  0  0  0  0
 19 47  1  0  0  0  0
 19 48  1  0  0  0  0
 20 32  1  0  0  0  0
 20 21  1  0  0  0  0
 21 22  2  0  0  0  0
 21 23  1  0  0  0  0
 23 24  1  0  0  0  0
 23 25  2  0  0  0  0
 25 26  1  0  0  0  0
 25 49  1  0  0  0  0
 26 27  1  0  0  0  0
 26 32  1  0  0  0  0
 27 31  1  0  0  0  0
 27 28  1  0  0  0  0
 27 50  1  0  0  0  0
 28 29  1  0  0  0  0
 28 51  1  0  0  0  0
 28 52  1  0  0  0  0
 29 30  1  0  0  0  0
 29 53  1  0  0  0  0
 29 54  1  0  0  0  0
 30 31  1  0  0  0  0
 30 55  1  0  0  0  0
 30 56  1  0  0  0  0
 32 33  2  0  0  0  0
 34 35  2  0  0  0  0
 34 57  1  0  0  0  0
 35 58  1  0  0  0  0
M  END
> <s_m_source_file>
AV-unprocessed.smi

> <i_m_source_file_index>
129

> <i_lp_mmshare_version>
43012

> <i_f3d_flags>
0

> <s_epik_input>
W0NIM11PYzFbY0hdW2NIXVtjSF1bY0hdYzFbTkhdQyg9TyljMltjSF1bY0hdYyhbY0hdW2NIXTIpW05IXUMoPU8pW0NIMl1uM2MoPU8pYyhGKVtjSF1uKGMzPU8pW0NAQEhdNFtDSDJdW0NIMl1bQ0gyXU80

> <s_epik_cmdline>
J2VwaWtfcHl0aG9uJywgJy1waCcsICc3LjAnLCAnLXRuJywgJzgnLCAnLW1hJywgJzIwMCcsICctbWV0YWxfYmluZGluZycsICctaW1hZScsICc8aW5maWxlLm1hZT4nLCAnLW9tYWUnLCAnPG91dGZpbGUubWFlPic=

> <r_lp_tautomer_probability>
1

> <r_epik_Ionization_Penalty>
2.57954e-06

> <r_epik_Ionization_Penalty_Charging>
3.88729e-08

> <r_epik_Ionization_Penalty_Neutral>
2.54066e-06

> <r_epik_State_Penalty>
-0

> <r_epik_Charging_Adjusted_Penalty>
3.88729e-08

> <i_epik_Tot_Q>
0

> <i_epik_Tot_abs_Q>
0

> <r_epik_Metal_State_Penalty>
-0

> <b_epik_Metal_Only>
0

> <s_epik_Chemistry_Notes>
This compound contains an acetal/aminal-like group ( X-CH(R)-Y where X, Y are N, S, or O) that may be acid/base labile, releasing an aldehyde.

> <s_lp_Force_Field>
OPLS_2005

> <r_lp_Energy>
51.387

> <b_lp_Chiralities_Consistent>
1

> <s_lp_Variant>
AV-unprocessed.smi:129-2

> <Gold.Version>
5.8.1

> <Gold.Id.Protein>
6NUR|6NUR_protein|mol2

> <Gold.PLP.Fitness>
58.9074

> <Gold.PLP.PLP>
-57.1917

> <Gold.PLP.part.hbond>
-2.0000

> <Gold.PLP.part.metal>
0.0000

> <Gold.PLP.part.buried>
-6.5917

> <Gold.PLP.part.nonpolar>
-49.0770

> <Gold.PLP.part.repulsive>
0.1917

> <Gold.PLP.ligand.clash>
0.1568

> <Gold.PLP.ligand.torsion>
0.6276

> <Gold.PLP.Chemscore.Hbond>
1.0000

> <Gold.PLP.Chemscore.CHOScore>
0.0000

> <Gold.PLP.Chemscore.Metal>
0.0000

> <Gold.Chemscore.Hbonds>
donor molecule, donor type, donor heavy atom, donor atom, acceptor molecule, acceptor atom, score
      P1  H  6896  6908       L1    18  1.00

> <Gold.PLP.Chemscore.Internal.Correction>
0.1278

> <Gold.Rescore>
     Score         DG    S(hbond)    S(metal)    S(lipo)     H(rot)  DE(clash)    DE(int)     intcor
     14.19     -20.68       0.94        0.00     145.46       1.94       0.68       5.81       ----

> <Gold.Chemscore.Fitness>
14.1861

> <Gold.Chemscore.DG>
-20.6767

> <Gold.Chemscore.ZeroCoef>
-5.4800

> <Gold.Chemscore.Hbond>
0.9437

> <Gold.Chemscore.Metal>
0.0000

> <Gold.Chemscore.Lipo>
145.4599

> <Gold.Chemscore.Internal_Hbond>
0.0000

> <Gold.Chemscore.DEClash>
0.6849

> <Gold.Chemscore.DEInternal>
5.8056

> <Gold.Chemscore.Rot>
1.9430

> <Gold.Chemscore.Internal.Correction>
   9.000000E+99

> <Gold.Chemscore.Hbonds>
donor molecule, donor type, donor heavy atom, donor atom, acceptor molecule, acceptor atom, score
      P1  H  6896  6908       L1    18  0.65

> <Gold.Chemscore.Hbond.Weighted>
-3.1520

> <Gold.Chemscore.Metal.Weighted>
-0.0000

> <Gold.Chemscore.Lipo.Weighted>
-17.0188

> <Gold.Chemscore.Internal_Hbond.Weighted>
0.0000

> <Gold.Chemscore.DEClash.Weighted>
0.6849

> <Gold.Chemscore.DEInternal.Weighted>
5.8056

> <Gold.Chemscore.Rot.Weighted>
4.9741

> <Gold.Chemscore.Internal.Correction.Weighted>
   9.000000E+99

> <Gold.Protein.RotatedTorsions>
[ 6907 6896 6895 6894 ] final  -39.01 input  -60.11 | X-H torsion
[ 7974 7965 7964 7962 ] final  -57.70 input  175.53 | X-H torsion
[ 8008 7997 7996 7995 ] final -133.36 input   59.86 | X-H torsion
[ 10167 10162 10161 10158 ] final   48.29 input  -65.29 | X-H torsion
[ 10718 10713 10712 10709 ] final   -2.98 input   66.30 | X-H torsion
[ 10763 10752 10751 10750 ] final   91.76 input  -60.55 | X-H torsion
[ 11005 11000 10999 10996 ] final -133.85 input  -57.11 | X-H torsion

> <Gold.Protein.ActiveResidues>
 VAL166  LYS551  ARG553  GLY616  TRP617  ASP618  TYR619  PRO620  LYS621  CYS622 
 ASP623  PHE694  ASN695  SER759  ASP760  ASP761  ALA762  ILE779  LEU786  VAL792 
 PHE793  MET794  SER795  GLU796  ALA797  LYS798  CYS799  TRP800  GLU811  SER814 

> <Gold.Protein.RotatedAtoms>
  150.9954  134.9279  159.7923 H   0  0  0  0  0  0  0  0  0  0  0  0  # atno 6907 bound_to 6896
  152.5263  134.3225  159.9163 H   0  0  0  0  0  0  0  0  0  0  0  0  # atno 6908 bound_to 6896
  151.3231  133.3990  159.2690 H   0  0  0  0  0  0  0  0  0  0  0  0  # atno 6909 bound_to 6896
  145.8479  140.8372  143.0000 H   0  0  0  0  0  0  0  0  0  0  0  0  # atno 7974 bound_to 7965
  155.3443  140.0474  157.3045 H   0  0  0  0  0  0  0  0  0  0  0  0  # atno 8008 bound_to 7997
  154.5261  140.2241  155.8853 H   0  0  0  0  0  0  0  0  0  0  0  0  # atno 8009 bound_to 7997
  156.1740  140.3089  155.9032 H   0  0  0  0  0  0  0  0  0  0  0  0  # atno 8010 bound_to 7997
  140.2948  144.3003  150.6232 H   0  0  0  0  0  0  0  0  0  0  0  0  # atno 10167 bound_to 10162
  156.7829  130.5336  149.5748 H   0  0  0  0  0  0  0  0  0  0  0  0  # atno 10718 bound_to 10713
  153.2117  135.4386  155.0387 H   0  0  0  0  0  0  0  0  0  0  0  0  # atno 10763 bound_to 10752
  154.8203  135.3334  154.7059 H   0  0  0  0  0  0  0  0  0  0  0  0  # atno 10764 bound_to 10752
  153.7496  135.6999  153.5004 H   0  0  0  0  0  0  0  0  0  0  0  0  # atno 10765 bound_to 10752
  140.9044  134.1649  157.4437 H   0  0  0  0  0  0  0  0  0  0  0  0  # atno 11005 bound_to 11000
  144.6730  140.0910  143.7465 LP  0  0  0  0  0  0  0  0  0  0  0  0  # atno 17320 bound_to 7965
  145.9390  139.2656  143.1280 LP  0  0  0  0  0  0  0  0  0  0  0  0  # atno 17321 bound_to 7965
  140.5701  143.2182  151.7614 LP  0  0  0  0  0  0  0  0  0  0  0  0  # atno 17342 bound_to 10162
  139.4929  144.4228  151.9958 LP  0  0  0  0  0  0  0  0  0  0  0  0  # atno 17343 bound_to 10162
  156.1207  130.6108  151.0189 LP  0  0  0  0  0  0  0  0  0  0  0  0  # atno 17370 bound_to 10713
  157.6638  131.0876  150.7777 LP  0  0  0  0  0  0  0  0  0  0  0  0  # atno 17371 bound_to 10713
  139.8747  134.9911  156.5532 LP  0  0  0  0  0  0  0  0  0  0  0  0  # atno 17394 bound_to 11000
  140.8190  133.8369  155.8878 LP  0  0  0  0  0  0  0  0  0  0  0  0  # atno 17395 bound_to 11000

$$$$
