AV-unprocessed.smi:109|AV-procd|sdf|1038|dock9
  -GOLD-   2262018 63D 1   1.00000     0.00000
 Structure written by MMmdl.
 58 61  0  0  0  0  0  0  0  0  1 V2000
  146.7551  137.3940  160.1679 O   0  0  0  0  0  0  0  0  0  0  0  0
  146.5463  137.5074  158.7769 C   0  0  0  0  0  0  0  0  0  0  0  0
  147.7723  136.9700  158.0180 C   0  0  0  0  0  0  0  0  0  0  0  0
  147.8926  137.4910  156.5650 C   0  0  1  0  0  0  0  0  0  0  0  0
  146.5644  137.5136  155.9474 N   0  0  0  0  0  0  0  0  0  0  0  0
  146.3912  137.4560  154.6077 C   0  0  0  0  0  0  0  0  0  0  0  0
  146.5006  138.5635  153.8284 N   0  0  0  0  0  0  0  0  0  0  0  0
  146.3296  138.4729  152.5059 C   0  0  0  0  0  0  0  0  0  0  0  0
  146.0493  137.3933  151.7723 N   0  0  0  0  0  0  0  0  0  0  0  0
  145.9380  136.2795  152.5524 C   0  0  0  0  0  0  0  0  0  0  0  0
  146.0927  136.2271  153.9648 C   0  0  0  0  0  0  0  0  0  0  0  0
  145.9157  134.9226  154.4080 N   0  0  0  0  0  0  0  0  0  0  0  0
  145.6738  134.2473  153.3156 C   0  0  0  0  0  0  0  0  0  0  0  0
  145.6584  134.9915  152.1546 N   0  0  0  0  0  0  0  0  0  0  0  0
  145.4257  134.5509  150.7434 C   0  0  1  0  0  0  0  0  0  0  0  0
  146.2367  133.4401  150.4753 O   0  0  0  0  0  0  0  0  0  0  0  0
  145.4618  132.3001  150.0991 C   0  0  1  0  0  0  0  0  0  0  0  0
  145.2863  131.3769  151.3247 C   0  0  0  0  0  0  0  0  0  0  0  0
  146.5515  131.0123  151.8333 O   0  0  0  0  0  0  0  0  0  0  0  0
  144.1722  132.9392  149.5661 C   0  0  1  0  0  0  0  0  0  0  0  0
  143.0537  132.0751  149.4810 O   0  0  0  0  0  0  0  0  0  0  0  0
  143.9637  134.1398  150.4747 C   0  0  1  0  0  0  0  0  0  0  0  0
  143.2300  133.8161  151.6461 O   0  0  0  0  0  0  0  0  0  0  0  0
  148.5380  138.9020  156.4551 C   0  0  0  0  0  0  0  0  0  0  0  0
  148.9074  139.2294  154.9854 C   0  0  0  0  0  0  0  0  0  0  0  0
  149.5510  140.6163  154.8337 C   0  0  0  0  0  0  0  0  0  0  0  0
  150.7954  140.7500  155.7193 C   0  0  0  0  0  0  0  0  0  0  0  0
  150.4483  140.4543  157.1831 C   0  0  0  0  0  0  0  0  0  0  0  0
  149.7983  139.0696  157.3406 C   0  0  0  0  0  0  0  0  0  0  0  0
  145.7535  135.3936  150.1332 H   0  0  0  0  0  0  0  0  0  0  0  0
  145.9599  131.7535  149.2968 H   0  0  0  0  0  0  0  0  0  0  0  0
  144.3734  133.3091  148.5595 H   0  0  0  0  0  0  0  0  0  0  0  0
  143.4452  134.9495  149.9602 H   0  0  0  0  0  0  0  0  0  0  0  0
  146.8299  136.4778  160.3869 H   0  0  0  0  0  0  0  0  0  0  0  0
  145.6508  136.9473  158.5060 H   0  0  0  0  0  0  0  0  0  0  0  0
  146.3615  138.5554  158.5412 H   0  0  0  0  0  0  0  0  0  0  0  0
  148.6819  137.2079  158.5712 H   0  0  0  0  0  0  0  0  0  0  0  0
  147.6875  135.8846  158.0158 H   0  0  0  0  0  0  0  0  0  0  0  0
  148.5558  136.8097  156.0331 H   0  0  0  0  0  0  0  0  0  0  0  0
  145.7889  137.4720  156.5931 H   0  0  0  0  0  0  0  0  0  0  0  0
  146.4323  139.3977  151.9579 H   0  0  0  0  0  0  0  0  0  0  0  0
  145.5026  133.1810  153.3331 H   0  0  0  0  0  0  0  0  0  0  0  0
  144.6874  131.8379  152.1086 H   0  0  0  0  0  0  0  0  0  0  0  0
  144.7832  130.4527  151.0423 H   0  0  0  0  0  0  0  0  0  0  0  0
  147.1206  130.8107  151.1063 H   0  0  0  0  0  0  0  0  0  0  0  0
  142.2849  132.5964  149.3062 H   0  0  0  0  0  0  0  0  0  0  0  0
  143.8008  133.3418  152.2315 H   0  0  0  0  0  0  0  0  0  0  0  0
  147.8022  139.6358  156.7884 H   0  0  0  0  0  0  0  0  0  0  0  0
  149.5909  138.4699  154.6028 H   0  0  0  0  0  0  0  0  0  0  0  0
  148.0245  139.1913  154.3474 H   0  0  0  0  0  0  0  0  0  0  0  0
  149.8180  140.7893  153.7908 H   0  0  0  0  0  0  0  0  0  0  0  0
  148.8262  141.3866  155.0998 H   0  0  0  0  0  0  0  0  0  0  0  0
  151.5677  140.0600  155.3769 H   0  0  0  0  0  0  0  0  0  0  0  0
  151.2120  141.7536  155.6297 H   0  0  0  0  0  0  0  0  0  0  0  0
  151.3481  140.5131  157.7963 H   0  0  0  0  0  0  0  0  0  0  0  0
  149.7686  141.2204  157.5587 H   0  0  0  0  0  0  0  0  0  0  0  0
  149.5516  138.9451  158.3937 H   0  0  0  0  0  0  0  0  0  0  0  0
  150.5260  138.2944  157.0965 H   0  0  0  0  0  0  0  0  0  0  0  0
  1  2  1  0  0  0  0
  1 34  1  0  0  0  0
  2  3  1  0  0  0  0
  2 35  1  0  0  0  0
  2 36  1  0  0  0  0
  3  4  1  0  0  0  0
  3 37  1  0  0  0  0
  3 38  1  0  0  0  0
  4  5  1  0  0  0  0
  4 24  1  0  0  0  0
  4 39  1  0  0  0  0
  5  6  1  0  0  0  0
  5 40  1  0  0  0  0
  6 11  1  0  0  0  0
  6  7  2  0  0  0  0
  7  8  1  0  0  0  0
  8  9  2  0  0  0  0
  8 41  1  0  0  0  0
  9 10  1  0  0  0  0
 10 14  1  0  0  0  0
 10 11  2  0  0  0  0
 11 12  1  0  0  0  0
 12 13  2  0  0  0  0
 13 14  1  0  0  0  0
 13 42  1  0  0  0  0
 14 15  1  0  0  0  0
 15 30  1  0  0  0  0
 15 22  1  0  0  0  0
 15 16  1  0  0  0  0
 16 17  1  0  0  0  0
 17 31  1  0  0  0  0
 17 18  1  0  0  0  0
 17 20  1  0  0  0  0
 18 19  1  0  0  0  0
 18 43  1  0  0  0  0
 18 44  1  0  0  0  0
 19 45  1  0  0  0  0
 20 32  1  0  0  0  0
 20 21  1  0  0  0  0
 20 22  1  0  0  0  0
 21 46  1  0  0  0  0
 22 33  1  0  0  0  0
 22 23  1  0  0  0  0
 23 47  1  0  0  0  0
 24 29  1  0  0  0  0
 24 25  1  0  0  0  0
 24 48  1  0  0  0  0
 25 26  1  0  0  0  0
 25 49  1  0  0  0  0
 25 50  1  0  0  0  0
 26 27  1  0  0  0  0
 26 51  1  0  0  0  0
 26 52  1  0  0  0  0
 27 28  1  0  0  0  0
 27 53  1  0  0  0  0
 27 54  1  0  0  0  0
 28 29  1  0  0  0  0
 28 55  1  0  0  0  0
 28 56  1  0  0  0  0
 29 57  1  0  0  0  0
 29 58  1  0  0  0  0
M  END
> <s_m_source_file>
AV-unprocessed.smi

> <i_m_source_file_index>
109

> <i_lp_mmshare_version>
43012

> <i_f3d_flags>
0

> <s_epik_input>
W0NIMl0xW0NIMl1bQ0gyXVtDSDJdW0NIMl1bQ0hdMVtDQEhdKFtDSDJdW0NIMl1bT0hdKVtOSF1jKG5bY0hdbjIpYyhjMjMpbltjSF1uM1tDQEBIXTRPW0NASF0oW0NIMl1bT0hdKVtDQEBIXShbT0hdKVtDQEhdNFtPSF0=

> <s_epik_cmdline>
J2VwaWtfcHl0aG9uJywgJy1waCcsICc3LjAnLCAnLXRuJywgJzgnLCAnLW1hJywgJzIwMCcsICctbWV0YWxfYmluZGluZycsICctaW1hZScsICc8aW5maWxlLm1hZT4nLCAnLW9tYWUnLCAnPG91dGZpbGUubWFlPic=

> <r_lp_tautomer_probability>
1

> <r_epik_Ionization_Penalty>
0.000793976

> <r_epik_Ionization_Penalty_Charging>
0

> <r_epik_Ionization_Penalty_Neutral>
0.000793976

> <r_epik_State_Penalty>
-0

> <r_epik_Charging_Adjusted_Penalty>
0

> <i_epik_Tot_Q>
0

> <i_epik_Tot_abs_Q>
0

> <r_epik_Metal_State_Penalty>
-0

> <b_epik_Metal_Only>
0

> <s_epik_Chemistry_Notes>
This compound contains an acetal/aminal-like group ( X-CH(R)-Y where X, Y are N, S, or O) that may be acid/base labile, releasing an aldehyde.

> <s_lp_Force_Field>
OPLS_2005

> <r_lp_Energy>
62.3675

> <b_lp_Chiralities_Consistent>
1

> <s_lp_Variant>
AV-unprocessed.smi:109-8

> <Gold.Version>
5.8.1

> <Gold.Id.Protein>
6NUR|6NUR_protein|mol2

> <Gold.PLP.Fitness>
41.0773

> <Gold.PLP.PLP>
-34.4421

> <Gold.PLP.part.hbond>
-5.4663

> <Gold.PLP.part.metal>
0.0000

> <Gold.PLP.part.buried>
-4.3234

> <Gold.PLP.part.nonpolar>
-26.5572

> <Gold.PLP.part.repulsive>
1.1341

> <Gold.PLP.ligand.clash>
0.3040

> <Gold.PLP.ligand.torsion>
1.7114

> <Gold.PLP.Chemscore.Hbond>
3.3975

> <Gold.PLP.Chemscore.CHOScore>
0.0163

> <Gold.PLP.Chemscore.Metal>
0.0000

> <Gold.Chemscore.Hbonds>
donor molecule, donor type, donor heavy atom, donor atom, acceptor molecule, acceptor atom, score
      L1  H    19    45       P1 10747  0.99
      L1  H    21    46       P1 10186  0.50
      P1  H  6934  6947       L1     1  1.00
      P1  H 10785 10796       L1    21  0.89

> <Gold.PLP.Chemscore.Internal.Correction>
0.1206

> <Gold.Rescore>
     Score         DG    S(hbond)    S(metal)    S(lipo)     H(rot)  DE(clash)    DE(int)     intcor
      4.13      -8.87       2.98        0.00      63.47       5.47       0.28       4.46       ----

> <Gold.Chemscore.Fitness>
4.1341

> <Gold.Chemscore.DG>
-8.8690

> <Gold.Chemscore.ZeroCoef>
-5.4800

> <Gold.Chemscore.Hbond>
2.9812

> <Gold.Chemscore.Metal>
0.0000

> <Gold.Chemscore.Lipo>
63.4654

> <Gold.Chemscore.Internal_Hbond>
0.0000

> <Gold.Chemscore.DEClash>
0.2790

> <Gold.Chemscore.DEInternal>
4.4559

> <Gold.Chemscore.Rot>
5.4662

> <Gold.Chemscore.Internal.Correction>
   9.000000E+99

> <Gold.Chemscore.Hbonds>
donor molecule, donor type, donor heavy atom, donor atom, acceptor molecule, acceptor atom, score
      L1  H    19    45       P1 10747  0.88
      L1  H    21    46       P1 10186  0.49
      P1  H  6934  6947       L1     1  0.78
      P1  H 10785 10796       L1    21  0.83

> <Gold.Chemscore.Hbond.Weighted>
-9.9571

> <Gold.Chemscore.Metal.Weighted>
-0.0000

> <Gold.Chemscore.Lipo.Weighted>
-7.4255

> <Gold.Chemscore.Internal_Hbond.Weighted>
0.0000

> <Gold.Chemscore.DEClash.Weighted>
0.2790

> <Gold.Chemscore.DEInternal.Weighted>
4.4559

> <Gold.Chemscore.Rot.Weighted>
13.9935

> <Gold.Chemscore.Internal.Correction.Weighted>
   9.000000E+99

> <Gold.Protein.RotatedTorsions>
[ 6907 6896 6895 6894 ] final  -36.54 input  -60.11 | X-H torsion
[ 7974 7965 7964 7962 ] final  102.95 input  175.53 | X-H torsion
[ 8008 7997 7996 7995 ] final -128.76 input   59.86 | X-H torsion
[ 10167 10162 10161 10158 ] final  145.45 input  -65.29 | X-H torsion
[ 10718 10713 10712 10709 ] final  -90.95 input   66.30 | X-H torsion
[ 10763 10752 10751 10750 ] final  125.48 input  -60.55 | X-H torsion
[ 11005 11000 10999 10996 ] final -149.24 input  -57.11 | X-H torsion

> <Gold.Protein.ActiveResidues>
 VAL166  LYS551  ARG553  GLY616  TRP617  ASP618  TYR619  PRO620  LYS621  CYS622 
 ASP623  PHE694  ASN695  SER759  ASP760  ASP761  ALA762  ILE779  LEU786  VAL792 
 PHE793  MET794  SER795  GLU796  ALA797  LYS798  CYS799  TRP800  GLU811  SER814 

> <Gold.Protein.RotatedAtoms>
  151.0259  134.9504  159.8084 H   0  0  0  0  0  0  0  0  0  0  0  0  # atno 6907 bound_to 6896
  152.5335  134.2843  159.9029 H   0  0  0  0  0  0  0  0  0  0  0  0  # atno 6908 bound_to 6896
  151.2851  133.4149  159.2663 H   0  0  0  0  0  0  0  0  0  0  0  0  # atno 6909 bound_to 6896
  145.3524  139.2436  143.3551 H   0  0  0  0  0  0  0  0  0  0  0  0  # atno 7974 bound_to 7965
  155.2680  140.0439  157.3004 H   0  0  0  0  0  0  0  0  0  0  0  0  # atno 8008 bound_to 7997
  154.5671  140.2363  155.8217 H   0  0  0  0  0  0  0  0  0  0  0  0  # atno 8009 bound_to 7997
  156.2093  140.3003  155.9705 H   0  0  0  0  0  0  0  0  0  0  0  0  # atno 8010 bound_to 7997
  139.4926  144.5900  151.6699 H   0  0  0  0  0  0  0  0  0  0  0  0  # atno 10167 bound_to 10162
  155.9990  130.4929  150.5401 H   0  0  0  0  0  0  0  0  0  0  0  0  # atno 10718 bound_to 10713
  153.6780  135.3319  155.3171 H   0  0  0  0  0  0  0  0  0  0  0  0  # atno 10763 bound_to 10752
  154.8473  135.4402  154.1636 H   0  0  0  0  0  0  0  0  0  0  0  0  # atno 10764 bound_to 10752
  153.2645  135.6994  153.7621 H   0  0  0  0  0  0  0  0  0  0  0  0  # atno 10765 bound_to 10752
  140.7529  134.3386  157.5121 H   0  0  0  0  0  0  0  0  0  0  0  0  # atno 11005 bound_to 11000
  146.2962  140.4142  142.8721 LP  0  0  0  0  0  0  0  0  0  0  0  0  # atno 17320 bound_to 7965
  144.8708  140.7269  143.6048 LP  0  0  0  0  0  0  0  0  0  0  0  0  # atno 17321 bound_to 7965
  140.5525  144.0402  150.6133 LP  0  0  0  0  0  0  0  0  0  0  0  0  # atno 17342 bound_to 10162
  140.3460  143.2991  152.0537 LP  0  0  0  0  0  0  0  0  0  0  0  0  # atno 17343 bound_to 10162
  157.3338  131.0704  151.1840 LP  0  0  0  0  0  0  0  0  0  0  0  0  # atno 17370 bound_to 10713
  157.2712  130.6705  149.6020 LP  0  0  0  0  0  0  0  0  0  0  0  0  # atno 17371 bound_to 10713
  139.8784  134.9153  156.3128 LP  0  0  0  0  0  0  0  0  0  0  0  0  # atno 17394 bound_to 11000
  140.9735  133.7312  156.0568 LP  0  0  0  0  0  0  0  0  0  0  0  0  # atno 17395 bound_to 11000

$$$$
