AV-unprocessed.smi:132|AV-procd|sdf|1164|dock4
  -GOLD-   2262018303D 1   1.00000     0.00000
 Structure written by MMmdl.
 41 44  0  0  0  0  0  0  0  0  1 V2000
  150.6300  139.9476  153.6673 O   0  0  0  0  0  0  0  0  0  0  0  0
  150.7919  140.4665  154.7732 C   0  0  0  0  0  0  0  0  0  0  0  0
  149.7875  141.3005  155.4243 C   0  0  0  0  0  0  0  0  0  0  0  0
  148.6275  141.5567  154.7964 F   0  0  0  0  0  0  0  0  0  0  0  0
  150.0046  141.8234  156.6504 C   0  0  0  0  0  0  0  0  0  0  0  0
  151.1681  141.6089  157.3685 N   0  0  0  0  0  0  0  0  0  0  0  0
  151.3531  142.2171  158.7390 C   0  0  1  0  0  0  0  0  0  0  0  0
  152.5393  143.1883  158.7472 C   0  0  0  0  0  0  0  0  0  0  0  0
  152.0031  144.3208  159.5959 C   0  0  0  0  0  0  0  0  0  0  0  0
  150.5283  144.3194  159.2144 C   0  0  0  0  0  0  0  0  0  0  0  0
  150.2040  142.9391  159.0801 O   0  0  0  0  0  0  0  0  0  0  0  0
  152.2046  140.8297  156.8092 C   0  0  0  0  0  0  0  0  0  0  0  0
  153.2536  140.6323  157.4263 O   0  0  0  0  0  0  0  0  0  0  0  0
  151.9823  140.2877  155.5201 N   0  0  0  0  0  0  0  0  0  0  0  0
  153.0198  139.4515  154.9359 C   0  0  0  0  0  0  0  0  0  0  0  0
  152.8328  138.0108  155.3058 C   0  0  0  0  0  0  0  0  0  0  0  0
  152.8204  137.4947  156.5354 N   0  0  0  0  0  0  0  0  0  0  0  0
  152.6161  136.1435  156.3724 N   0  0  0  0  0  0  0  0  0  0  0  0
  152.5204  135.9362  155.0546 C   0  0  0  0  0  0  0  0  0  0  0  0
  152.3090  134.6751  154.3464 C   0  0  0  0  0  0  0  0  0  0  0  0
  151.4554  134.6097  153.2212 C   0  0  0  0  0  0  0  0  0  0  0  0
  151.2595  133.3889  152.5464 C   0  0  0  0  0  0  0  0  0  0  0  0
  151.9114  132.2231  152.9921 C   0  0  0  0  0  0  0  0  0  0  0  0
  151.6711  130.7279  152.1651 Cl  0  0  0  0  0  0  0  0  0  0  0  0
  152.7594  132.2793  154.1144 C   0  0  0  0  0  0  0  0  0  0  0  0
  152.9573  133.5001  154.7884 C   0  0  0  0  0  0  0  0  0  0  0  0
  152.6430  137.0818  154.3318 O   0  0  0  0  0  0  0  0  0  0  0  0
  149.2277  142.4360  157.0806 H   0  0  0  0  0  0  0  0  0  0  0  0
  151.4536  141.4011  159.4555 H   0  0  0  0  0  0  0  0  0  0  0  0
  153.4345  142.7162  159.1530 H   0  0  0  0  0  0  0  0  0  0  0  0
  152.7464  143.5385  157.7348 H   0  0  0  0  0  0  0  0  0  0  0  0
  152.1181  144.0850  160.6546 H   0  0  0  0  0  0  0  0  0  0  0  0
  152.4948  145.2739  159.3995 H   0  0  0  0  0  0  0  0  0  0  0  0
  149.9006  144.8053  159.9616 H   0  0  0  0  0  0  0  0  0  0  0  0
  150.3785  144.8280  158.2615 H   0  0  0  0  0  0  0  0  0  0  0  0
  152.9884  139.5852  153.8531 H   0  0  0  0  0  0  0  0  0  0  0  0
  153.9989  139.8084  155.2567 H   0  0  0  0  0  0  0  0  0  0  0  0
  150.9473  135.4927  152.8619 H   0  0  0  0  0  0  0  0  0  0  0  0
  150.6083  133.3486  151.6855 H   0  0  0  0  0  0  0  0  0  0  0  0
  153.2597  131.3867  154.4602 H   0  0  0  0  0  0  0  0  0  0  0  0
  153.6106  133.5260  155.6482 H   0  0  0  0  0  0  0  0  0  0  0  0
  1  2  2  0  0  0  0
  2 14  1  0  0  0  0
  2  3  1  0  0  0  0
  3  4  1  0  0  0  0
  3  5  2  0  0  0  0
  5  6  1  0  0  0  0
  5 28  1  0  0  0  0
  6  7  1  0  0  0  0
  6 12  1  0  0  0  0
  7 11  1  0  0  0  0
  7  8  1  0  0  0  0
  7 29  1  0  0  0  0
  8  9  1  0  0  0  0
  8 30  1  0  0  0  0
  8 31  1  0  0  0  0
  9 10  1  0  0  0  0
  9 32  1  0  0  0  0
  9 33  1  0  0  0  0
 10 11  1  0  0  0  0
 10 34  1  0  0  0  0
 10 35  1  0  0  0  0
 12 13  2  0  0  0  0
 12 14  1  0  0  0  0
 14 15  1  0  0  0  0
 15 16  1  0  0  0  0
 15 36  1  0  0  0  0
 15 37  1  0  0  0  0
 16 27  1  0  0  0  0
 16 17  2  0  0  0  0
 17 18  1  0  0  0  0
 18 19  2  0  0  0  0
 19 20  1  0  0  0  0
 19 27  1  0  0  0  0
 20 26  1  0  0  0  0
 20 21  2  0  0  0  0
 21 22  1  0  0  0  0
 21 38  1  0  0  0  0
 22 23  2  0  0  0  0
 22 39  1  0  0  0  0
 23 24  1  0  0  0  0
 23 25  1  0  0  0  0
 25 26  2  0  0  0  0
 25 40  1  0  0  0  0
 26 41  1  0  0  0  0
M  END
> <s_m_source_file>
AV-unprocessed.smi

> <i_m_source_file_index>
132

> <i_lp_mmshare_version>
43012

> <i_f3d_flags>
0

> <s_epik_input>
TzFbQ0gyXVtDSDJdW0NIMl1bQ0BIXTFuKFtjSF1jKEYpYzI9TyljKD1PKW4yW0NIMl1jM25uYyhvMyktYzRbY0hdW2NIXWMoQ2wpW2NIXVtjSF00

> <s_epik_cmdline>
J2VwaWtfcHl0aG9uJywgJy1waCcsICc3LjAnLCAnLXRuJywgJzgnLCAnLW1hJywgJzIwMCcsICctbWV0YWxfYmluZGluZycsICctaW1hZScsICc8aW5maWxlLm1hZT4nLCAnLW9tYWUnLCAnPG91dGZpbGUubWFlPic=

> <r_lp_tautomer_probability>
1

> <r_epik_Ionization_Penalty>
2.5553e-09

> <r_epik_Ionization_Penalty_Charging>
2.54231e-09

> <r_epik_Ionization_Penalty_Neutral>
1.29923e-11

> <r_epik_State_Penalty>
-0

> <r_epik_Charging_Adjusted_Penalty>
2.54231e-09

> <i_epik_Tot_Q>
0

> <i_epik_Tot_abs_Q>
0

> <r_epik_Metal_State_Penalty>
-0

> <b_epik_Metal_Only>
0

> <s_epik_Chemistry_Notes>
This compound contains an acetal/aminal-like group ( X-CH(R)-Y where X, Y are N, S, or O) that may be acid/base labile, releasing an aldehyde.

> <s_lp_Force_Field>
OPLS_2005

> <r_lp_Energy>
32.8563

> <b_lp_Chiralities_Consistent>
1

> <s_lp_Variant>
AV-unprocessed.smi:132-2

> <Gold.Version>
5.8.1

> <Gold.Id.Protein>
6NUR|6NUR_protein|mol2

> <Gold.PLP.Fitness>
60.3528

> <Gold.PLP.PLP>
-53.3140

> <Gold.PLP.part.hbond>
-4.0000

> <Gold.PLP.part.metal>
0.0000

> <Gold.PLP.part.buried>
-4.7772

> <Gold.PLP.part.nonpolar>
-46.1273

> <Gold.PLP.part.repulsive>
0.6201

> <Gold.PLP.ligand.clash>
0.0000

> <Gold.PLP.ligand.torsion>
0.9936

> <Gold.PLP.Chemscore.Hbond>
2.0000

> <Gold.PLP.Chemscore.CHOScore>
1.0000

> <Gold.PLP.Chemscore.Metal>
0.0000

> <Gold.Chemscore.Hbonds>
donor molecule, donor type, donor heavy atom, donor atom, acceptor molecule, acceptor atom, score
      P1  H  7997  8008       L1    13  0.50
      L1  C     5    28       P1  8028  0.35

> <Gold.PLP.Chemscore.Internal.Correction>
0.0260

> <Gold.Rescore>
     Score         DG    S(hbond)    S(metal)    S(lipo)     H(rot)  DE(clash)    DE(int)     intcor
     16.36     -17.89       1.80        0.00      91.99       1.70       0.32       1.21       ----

> <Gold.Chemscore.Fitness>
16.3637

> <Gold.Chemscore.DG>
-17.8948

> <Gold.Chemscore.ZeroCoef>
-5.4800

> <Gold.Chemscore.Hbond>
1.7959

> <Gold.Chemscore.Metal>
0.0000

> <Gold.Chemscore.Lipo>
91.9929

> <Gold.Chemscore.Internal_Hbond>
0.0000

> <Gold.Chemscore.DEClash>
0.3244

> <Gold.Chemscore.DEInternal>
1.2066

> <Gold.Chemscore.Rot>
1.6980

> <Gold.Chemscore.Internal.Correction>
   9.000000E+99

> <Gold.Chemscore.Hbonds>
donor molecule, donor type, donor heavy atom, donor atom, acceptor molecule, acceptor atom, score
      P1  H  7997  8008       L1    13  0.50

> <Gold.Chemscore.Hbond.Weighted>
-5.9985

> <Gold.Chemscore.Metal.Weighted>
-0.0000

> <Gold.Chemscore.Lipo.Weighted>
-10.7632

> <Gold.Chemscore.Internal_Hbond.Weighted>
0.0000

> <Gold.Chemscore.DEClash.Weighted>
0.3244

> <Gold.Chemscore.DEInternal.Weighted>
1.2066

> <Gold.Chemscore.Rot.Weighted>
4.3469

> <Gold.Chemscore.Internal.Correction.Weighted>
   9.000000E+99

> <Gold.Protein.RotatedTorsions>
[ 6907 6896 6895 6894 ] final   -3.85 input  -60.11 | X-H torsion
[ 7974 7965 7964 7962 ] final   44.71 input  175.53 | X-H torsion
[ 8008 7997 7996 7995 ] final  -75.49 input   59.86 | X-H torsion
[ 10167 10162 10161 10158 ] final   73.49 input  -65.29 | X-H torsion
[ 10718 10713 10712 10709 ] final  105.32 input   66.30 | X-H torsion
[ 10763 10752 10751 10750 ] final   59.62 input  -60.55 | X-H torsion
[ 11005 11000 10999 10996 ] final  152.35 input  -57.11 | X-H torsion

> <Gold.Protein.ActiveResidues>
 VAL166  LYS551  ARG553  GLY616  TRP617  ASP618  TYR619  PRO620  LYS621  CYS622 
 ASP623  PHE694  ASN695  SER759  ASP760  ASP761  ALA762  ILE779  LEU786  VAL792 
 PHE793  MET794  SER795  GLU796  ALA797  LYS798  CYS799  TRP800  GLU811  SER814 

> <Gold.Protein.RotatedAtoms>
  151.5071  135.1064  159.9843 H   0  0  0  0  0  0  0  0  0  0  0  0  # atno 6907 bound_to 6896
  152.4677  133.7956  159.6936 H   0  0  0  0  0  0  0  0  0  0  0  0  # atno 6908 bound_to 6896
  150.8670  133.7497  159.2999 H   0  0  0  0  0  0  0  0  0  0  0  0  # atno 6909 bound_to 6896
  146.0545  139.5045  142.9697 H   0  0  0  0  0  0  0  0  0  0  0  0  # atno 7974 bound_to 7965
  154.5421  140.0743  156.8527 H   0  0  0  0  0  0  0  0  0  0  0  0  # atno 8008 bound_to 7997
  155.3160  140.3393  155.4224 H   0  0  0  0  0  0  0  0  0  0  0  0  # atno 8009 bound_to 7997
  156.1884  140.1677  156.8126 H   0  0  0  0  0  0  0  0  0  0  0  0  # atno 8010 bound_to 7997
  140.0239  144.5519  150.7560 H   0  0  0  0  0  0  0  0  0  0  0  0  # atno 10167 bound_to 10162
  157.6709  131.0825  150.5839 H   0  0  0  0  0  0  0  0  0  0  0  0  # atno 10718 bound_to 10713
  152.9899  135.5565  154.5743 H   0  0  0  0  0  0  0  0  0  0  0  0  # atno 10763 bound_to 10752
  154.5137  135.2803  155.1323 H   0  0  0  0  0  0  0  0  0  0  0  0  # atno 10764 bound_to 10752
  154.2705  135.6364  153.5361 H   0  0  0  0  0  0  0  0  0  0  0  0  # atno 10765 bound_to 10752
  140.1300  134.8808  157.2190 H   0  0  0  0  0  0  0  0  0  0  0  0  # atno 11005 bound_to 11000
  145.6668  141.0227  143.1679 LP  0  0  0  0  0  0  0  0  0  0  0  0  # atno 17320 bound_to 7965
  144.7140  139.8264  143.7405 LP  0  0  0  0  0  0  0  0  0  0  0  0  # atno 17321 bound_to 7965
  140.7331  143.2713  151.3880 LP  0  0  0  0  0  0  0  0  0  0  0  0  # atno 17342 bound_to 10162
  139.6121  144.1077  152.2309 LP  0  0  0  0  0  0  0  0  0  0  0  0  # atno 17343 bound_to 10162
  156.6139  130.4387  149.5848 LP  0  0  0  0  0  0  0  0  0  0  0  0  # atno 17370 bound_to 10713
  156.2408  130.6850  151.1554 LP  0  0  0  0  0  0  0  0  0  0  0  0  # atno 17371 bound_to 10713
  140.2855  134.3301  155.7330 LP  0  0  0  0  0  0  0  0  0  0  0  0  # atno 17394 bound_to 11000
  141.2168  133.7503  156.9426 LP  0  0  0  0  0  0  0  0  0  0  0  0  # atno 17395 bound_to 11000

$$$$
