AV-unprocessed.smi:2686|AV-procd|sdf|10384|dock1
  -GOLD-   2272014413D 1   1.00000     0.00000
 Structure written by MMmdl.
 32 32  0  0  0  0  0  0  0  0  1 V2000
  145.0189  144.1200  154.0826 C   0  0  0  0  0  0  0  0  0  0  0  0
  145.9407  143.0269  153.8137 N   0  0  0  0  0  0  0  0  0  0  0  0
  146.6149  142.3580  154.7594 C   0  0  0  0  0  0  0  0  0  0  0  0
  146.5006  142.5952  155.9628 O   0  0  0  0  0  0  0  0  0  0  0  0
  147.5406  141.2387  154.2656 C   0  0  0  0  0  0  0  0  0  0  0  0
  148.9460  141.4832  154.5809 N   0  0  0  0  0  0  0  0  0  0  0  0
  149.4931  141.3769  155.8020 C   0  0  0  0  0  0  0  0  0  0  0  0
  148.8435  141.0752  156.8047 O   0  0  0  0  0  0  0  0  0  0  0  0
  151.0018  141.6510  155.8839 C   0  0  0  0  0  0  0  0  0  0  0  0
  151.5070  141.7585  157.2628 N   0  0  0  0  0  0  0  0  0  0  0  0
  151.2483  142.9645  157.9433 C   0  0  0  0  0  0  0  0  0  0  0  0
  151.6469  143.1924  159.2094 C   0  0  0  0  0  0  0  0  0  0  0  0
  151.4063  144.5281  159.8953 C   0  0  0  0  0  0  0  0  0  0  0  0
  151.9343  144.5413  161.1196 F   0  0  0  0  0  0  0  0  0  0  0  0
  151.9403  145.5317  159.1980 F   0  0  0  0  0  0  0  0  0  0  0  0
  150.0974  144.7510  160.0058 F   0  0  0  0  0  0  0  0  0  0  0  0
  152.3998  142.1313  159.8489 C   0  0  0  0  0  0  0  0  0  0  0  0
  152.6685  140.9773  159.2073 C   0  0  0  0  0  0  0  0  0  0  0  0
  152.2133  140.7383  157.8357 C   0  0  0  0  0  0  0  0  0  0  0  0
  152.4539  139.6883  157.2393 O   0  0  0  0  0  0  0  0  0  0  0  0
  144.5403  144.4392  153.1569 H   0  0  0  0  0  0  0  0  0  0  0  0
  145.5483  144.9747  154.5055 H   0  0  0  0  0  0  0  0  0  0  0  0
  144.2395  143.8133  154.7817 H   0  0  0  0  0  0  0  0  0  0  0  0
  146.0849  142.7703  152.8478 H   0  0  0  0  0  0  0  0  0  0  0  0
  147.2398  140.3058  154.7427 H   0  0  0  0  0  0  0  0  0  0  0  0
  147.4193  141.0941  153.1904 H   0  0  0  0  0  0  0  0  0  0  0  0
  149.5493  141.7293  153.8095 H   0  0  0  0  0  0  0  0  0  0  0  0
  151.5272  140.8534  155.3562 H   0  0  0  0  0  0  0  0  0  0  0  0
  151.2248  142.5582  155.3196 H   0  0  0  0  0  0  0  0  0  0  0  0
  150.7114  143.7002  157.3619 H   0  0  0  0  0  0  0  0  0  0  0  0
  152.7527  142.2626  160.8611 H   0  0  0  0  0  0  0  0  0  0  0  0
  153.2317  140.2086  159.7155 H   0  0  0  0  0  0  0  0  0  0  0  0
  1  2  1  0  0  0  0
  1 21  1  0  0  0  0
  1 22  1  0  0  0  0
  1 23  1  0  0  0  0
  2  3  1  0  0  0  0
  2 24  1  0  0  0  0
  3  4  2  0  0  0  0
  3  5  1  0  0  0  0
  5  6  1  0  0  0  0
  5 25  1  0  0  0  0
  5 26  1  0  0  0  0
  6  7  1  0  0  0  0
  6 27  1  0  0  0  0
  7  8  2  0  0  0  0
  7  9  1  0  0  0  0
  9 10  1  0  0  0  0
  9 28  1  0  0  0  0
  9 29  1  0  0  0  0
 10 19  1  0  0  0  0
 10 11  1  0  0  0  0
 11 12  2  0  0  0  0
 11 30  1  0  0  0  0
 12 13  1  0  0  0  0
 12 17  1  0  0  0  0
 13 14  1  0  0  0  0
 13 15  1  0  0  0  0
 13 16  1  0  0  0  0
 17 18  2  0  0  0  0
 17 31  1  0  0  0  0
 18 19  1  0  0  0  0
 18 32  1  0  0  0  0
 19 20  2  0  0  0  0
M  END
> <s_m_source_file>
AV-unprocessed.smi

> <i_m_source_file_index>
2686

> <i_lp_mmshare_version>
43012

> <i_f3d_flags>
0

> <s_epik_input>
W0NIM11bTkhdQyg9TylbQ0gyXVtOSF1DKD1PKVtDSDJdbjFbY0hdYyhDKEYpKEYpRilbY0hdW2NIXWMxPU8=

> <s_epik_cmdline>
J2VwaWtfcHl0aG9uJywgJy1waCcsICc3LjAnLCAnLXRuJywgJzgnLCAnLW1hJywgJzIwMCcsICctbWV0YWxfYmluZGluZycsICctaW1hZScsICc8aW5maWxlLm1hZT4nLCAnLW9tYWUnLCAnPG91dGZpbGUubWFlPic=

> <r_lp_tautomer_probability>
1

> <r_epik_Ionization_Penalty>
8.267e-08

> <r_epik_Ionization_Penalty_Charging>
1.5129e-08

> <r_epik_Ionization_Penalty_Neutral>
6.7541e-08

> <r_epik_State_Penalty>
-0

> <r_epik_Charging_Adjusted_Penalty>
1.5129e-08

> <i_epik_Tot_Q>
0

> <i_epik_Tot_abs_Q>
0

> <r_epik_Metal_State_Penalty>
-0

> <b_epik_Metal_Only>
0

> <s_lp_Force_Field>
OPLS_2005

> <r_lp_Energy>
10.5627

> <b_lp_Chiralities_Consistent>
1

> <s_lp_Variant>
AV-unprocessed.smi:2686-1

> <Gold.Version>
5.8.1

> <Gold.Id.Protein>
6NUR|6NUR_protein|mol2

> <Gold.PLP.Fitness>
45.5644

> <Gold.PLP.PLP>
-41.1850

> <Gold.PLP.part.hbond>
-1.0000

> <Gold.PLP.part.metal>
0.0000

> <Gold.PLP.part.buried>
-6.1684

> <Gold.PLP.part.nonpolar>
-33.0664

> <Gold.PLP.part.repulsive>
0.5236

> <Gold.PLP.ligand.clash>
0.0000

> <Gold.PLP.ligand.torsion>
0.4267

> <Gold.PLP.Chemscore.Hbond>
0.9913

> <Gold.PLP.Chemscore.CHOScore>
0.7116

> <Gold.PLP.Chemscore.Metal>
0.0000

> <Gold.Chemscore.Hbonds>
donor molecule, donor type, donor heavy atom, donor atom, acceptor molecule, acceptor atom, score
      P1  H  7997  8008       L1    20  0.90
      L1  C    11    30       P1  8028  0.63

> <Gold.PLP.Chemscore.Internal.Correction>
0.1243

> <Gold.Rescore>
     Score         DG    S(hbond)    S(metal)    S(lipo)     H(rot)  DE(clash)    DE(int)     intcor
      8.49     -10.69       0.93        0.00      68.87       2.32       0.50       1.71       ----

> <Gold.Chemscore.Fitness>
8.4855

> <Gold.Chemscore.DG>
-10.6938

> <Gold.Chemscore.ZeroCoef>
-5.4800

> <Gold.Chemscore.Hbond>
0.9255

> <Gold.Chemscore.Metal>
0.0000

> <Gold.Chemscore.Lipo>
68.8703

> <Gold.Chemscore.Internal_Hbond>
0.0000

> <Gold.Chemscore.DEClash>
0.5023

> <Gold.Chemscore.DEInternal>
1.7060

> <Gold.Chemscore.Rot>
2.3184

> <Gold.Chemscore.Internal.Correction>
   9.000000E+99

> <Gold.Chemscore.Hbonds>
donor molecule, donor type, donor heavy atom, donor atom, acceptor molecule, acceptor atom, score
      P1  H  7997  8008       L1    20  0.19

> <Gold.Chemscore.Hbond.Weighted>
-3.0912

> <Gold.Chemscore.Metal.Weighted>
-0.0000

> <Gold.Chemscore.Lipo.Weighted>
-8.0578

> <Gold.Chemscore.Internal_Hbond.Weighted>
0.0000

> <Gold.Chemscore.DEClash.Weighted>
0.5023

> <Gold.Chemscore.DEInternal.Weighted>
1.7060

> <Gold.Chemscore.Rot.Weighted>
5.9352

> <Gold.Chemscore.Internal.Correction.Weighted>
   9.000000E+99

> <Gold.Protein.RotatedTorsions>
[ 6907 6896 6895 6894 ] final  147.89 input  -60.11 | X-H torsion
[ 7974 7965 7964 7962 ] final -155.37 input  175.53 | X-H torsion
[ 8008 7997 7996 7995 ] final  -57.42 input   59.86 | X-H torsion
[ 10167 10162 10161 10158 ] final  -22.40 input  -65.29 | X-H torsion
[ 10718 10713 10712 10709 ] final -112.23 input   66.30 | X-H torsion
[ 10763 10752 10751 10750 ] final  156.41 input  -60.55 | X-H torsion
[ 11005 11000 10999 10996 ] final  -30.38 input  -57.11 | X-H torsion

> <Gold.Protein.ActiveResidues>
 VAL166  LYS551  ARG553  GLY616  TRP617  ASP618  TYR619  PRO620  LYS621  CYS622 
 ASP623  PHE694  ASN695  SER759  ASP760  ASP761  ALA762  ILE779  LEU786  VAL792 
 PHE793  MET794  SER795  GLU796  ALA797  LYS798  CYS799  TRP800  GLU811  SER814 

> <Gold.Protein.RotatedAtoms>
  152.1488  133.4509  159.4803 H   0  0  0  0  0  0  0  0  0  0  0  0  # atno 6907 bound_to 6896
  150.6893  134.2214  159.4407 H   0  0  0  0  0  0  0  0  0  0  0  0  # atno 6908 bound_to 6896
  152.0110  134.9876  160.0618 H   0  0  0  0  0  0  0  0  0  0  0  0  # atno 6909 bound_to 6896
  144.7644  140.4259  143.5953 H   0  0  0  0  0  0  0  0  0  0  0  0  # atno 7974 bound_to 7965
  154.4267  140.1107  156.5795 H   0  0  0  0  0  0  0  0  0  0  0  0  # atno 8008 bound_to 7997
  155.6128  140.3494  155.4608 H   0  0  0  0  0  0  0  0  0  0  0  0  # atno 8009 bound_to 7997
  156.0086  140.1214  157.0466 H   0  0  0  0  0  0  0  0  0  0  0  0  # atno 8010 bound_to 7997
  140.7286  143.4538  151.0477 H   0  0  0  0  0  0  0  0  0  0  0  0  # atno 10167 bound_to 10162
  156.0693  130.5909  150.8480 H   0  0  0  0  0  0  0  0  0  0  0  0  # atno 10718 bound_to 10713
  154.1838  135.2798  155.3043 H   0  0  0  0  0  0  0  0  0  0  0  0  # atno 10763 bound_to 10752
  154.5982  135.5538  153.7350 H   0  0  0  0  0  0  0  0  0  0  0  0  # atno 10764 bound_to 10752
  153.0130  135.6385  154.1977 H   0  0  0  0  0  0  0  0  0  0  0  0  # atno 10765 bound_to 10752
  140.9378  133.7298  156.1030 H   0  0  0  0  0  0  0  0  0  0  0  0  # atno 11005 bound_to 11000
  145.6518  139.1566  143.2858 LP  0  0  0  0  0  0  0  0  0  0  0  0  # atno 17320 bound_to 7965
  146.1737  140.6606  142.9221 LP  0  0  0  0  0  0  0  0  0  0  0  0  # atno 17321 bound_to 7965
  139.8217  143.7811  152.3177 LP  0  0  0  0  0  0  0  0  0  0  0  0  # atno 17342 bound_to 10162
  139.7896  144.7415  150.9974 LP  0  0  0  0  0  0  0  0  0  0  0  0  # atno 17343 bound_to 10162
  157.5755  131.0946  150.9353 LP  0  0  0  0  0  0  0  0  0  0  0  0  # atno 17370 bound_to 10713
  156.9560  130.5437  149.5284 LP  0  0  0  0  0  0  0  0  0  0  0  0  # atno 17371 bound_to 10713
  140.7776  134.3762  157.5494 LP  0  0  0  0  0  0  0  0  0  0  0  0  # atno 17394 bound_to 11000
  139.8812  134.9061  156.2915 LP  0  0  0  0  0  0  0  0  0  0  0  0  # atno 17395 bound_to 11000

$$$$
