AV-unprocessed.smi:3141|AV-procd|sdf|11969|dock9
  -GOLD-   2272017373D 1   1.00000     0.00000
 Structure written by MMmdl.
 35 37  0  0  0  0  0  0  0  0  1 V2000
  151.2774  141.4247  157.7664 O   0  0  0  0  0  0  0  0  0  0  0  0
  150.7327  142.3288  157.1326 C   0  0  0  0  0  0  0  0  0  0  0  0
  151.0952  143.6169  157.1914 N   0  0  0  0  0  0  0  0  0  0  0  0
  152.1587  144.1418  157.9848 C   0  0  0  0  0  0  0  0  0  0  0  0
  152.1143  143.8823  159.4751 C   0  0  0  0  0  0  0  0  0  0  0  0
  151.8302  145.2617  158.9484 C   0  0  0  0  0  0  0  0  0  0  0  0
  149.7031  142.1437  156.2954 N   0  0  0  0  0  0  0  0  0  0  0  0
  149.0925  140.8534  155.9882 C   0  0  1  0  0  0  0  0  0  0  0  0
  147.5595  140.9670  155.8553 C   0  0  0  0  0  0  0  0  0  0  0  0
  147.2267  140.6576  154.3931 C   0  0  0  0  0  0  0  0  0  0  0  0
  148.3597  139.7484  153.9269 C   0  0  0  0  0  0  0  0  0  0  0  0
  149.5944  140.3263  154.6273 C   0  0  2  0  0  0  0  0  0  0  0  0
  150.6967  139.3847  154.7473 N   0  0  0  0  0  0  0  0  0  0  0  0
  151.8995  139.5977  155.4090 C   0  0  0  0  0  0  0  0  0  0  0  0
  152.6310  138.4385  155.2846 C   0  0  0  0  0  0  0  0  0  0  0  0
  151.9006  137.4993  154.5614 N   0  0  0  0  0  0  0  0  0  0  0  0
  150.7666  138.1283  154.2817 C   0  0  0  0  0  0  0  0  0  0  0  0
  150.5802  144.2793  156.6305 H   0  0  0  0  0  0  0  0  0  0  0  0
  153.1500  144.1741  157.5347 H   0  0  0  0  0  0  0  0  0  0  0  0
  151.2746  143.3129  159.8690 H   0  0  0  0  0  0  0  0  0  0  0  0
  153.0627  143.7244  159.9844 H   0  0  0  0  0  0  0  0  0  0  0  0
  152.5888  146.0254  159.1062 H   0  0  0  0  0  0  0  0  0  0  0  0
  150.8009  145.6131  158.9891 H   0  0  0  0  0  0  0  0  0  0  0  0
  149.3225  142.9508  155.8235 H   0  0  0  0  0  0  0  0  0  0  0  0
  149.3228  140.1381  156.7804 H   0  0  0  0  0  0  0  0  0  0  0  0
  147.0888  140.2229  156.4992 H   0  0  0  0  0  0  0  0  0  0  0  0
  147.1696  141.9400  156.1580 H   0  0  0  0  0  0  0  0  0  0  0  0
  146.2444  140.1995  154.2745 H   0  0  0  0  0  0  0  0  0  0  0  0
  147.2359  141.5806  153.8116 H   0  0  0  0  0  0  0  0  0  0  0  0
  148.1611  138.7285  154.2580 H   0  0  0  0  0  0  0  0  0  0  0  0
  148.4634  139.7318  152.8416 H   0  0  0  0  0  0  0  0  0  0  0  0
  149.9388  141.1675  154.0221 H   0  0  0  0  0  0  0  0  0  0  0  0
  152.1298  140.5308  155.9016 H   0  0  0  0  0  0  0  0  0  0  0  0
  153.6169  138.2087  155.6610 H   0  0  0  0  0  0  0  0  0  0  0  0
  149.9658  137.6610  153.7271 H   0  0  0  0  0  0  0  0  0  0  0  0
  1  2  2  0  0  0  0
  2  3  1  0  0  0  0
  2  7  1  0  0  0  0
  3  4  1  0  0  0  0
  3 18  1  0  0  0  0
  4  6  1  0  0  0  0
  4  5  1  0  0  0  0
  4 19  1  0  0  0  0
  5  6  1  0  0  0  0
  5 20  1  0  0  0  0
  5 21  1  0  0  0  0
  6 22  1  0  0  0  0
  6 23  1  0  0  0  0
  7  8  1  0  0  0  0
  7 24  1  0  0  0  0
  8 12  1  0  0  0  0
  8  9  1  0  0  0  0
  8 25  1  0  0  0  0
  9 10  1  0  0  0  0
  9 26  1  0  0  0  0
  9 27  1  0  0  0  0
 10 11  1  0  0  0  0
 10 28  1  0  0  0  0
 10 29  1  0  0  0  0
 11 12  1  0  0  0  0
 11 30  1  0  0  0  0
 11 31  1  0  0  0  0
 12 13  1  0  0  0  0
 12 32  1  0  0  0  0
 13 17  1  0  0  0  0
 13 14  1  0  0  0  0
 14 15  2  0  0  0  0
 14 33  1  0  0  0  0
 15 16  1  0  0  0  0
 15 34  1  0  0  0  0
 16 17  2  0  0  0  0
 17 35  1  0  0  0  0
M  END
> <s_m_source_file>
AV-unprocessed.smi

> <i_m_source_file_index>
3141

> <i_lp_mmshare_version>
43012

> <i_f3d_flags>
0

> <s_epik_input>
W0NIMl0xW0NIMl1bQ0hdMVtOSF1DKD1PKVtOSF1bQ0BASF0yW0NIMl1bQ0gyXVtDSDJdW0NASF0ybjNbY0hdW2NIXW5bY0hdMw==

> <s_epik_cmdline>
J2VwaWtfcHl0aG9uJywgJy1waCcsICc3LjAnLCAnLXRuJywgJzgnLCAnLW1hJywgJzIwMCcsICctbWV0YWxfYmluZGluZycsICctaW1hZScsICc8aW5maWxlLm1hZT4nLCAnLW9tYWUnLCAnPG91dGZpbGUubWFlPic=

> <r_lp_tautomer_probability>
1

> <r_epik_Ionization_Penalty>
0.728419

> <r_epik_Ionization_Penalty_Charging>
0.728357

> <r_epik_Ionization_Penalty_Neutral>
6.27871e-05

> <r_epik_State_Penalty>
0.753408

> <r_epik_Charging_Adjusted_Penalty>
1.48176

> <i_epik_Tot_Q>
0

> <i_epik_Tot_abs_Q>
0

> <r_epik_Metal_State_Penalty>
0.332413

> <b_epik_Metal_Only>
0

> <s_lp_Force_Field>
OPLS_2005

> <r_lp_Energy>
34.7591

> <b_lp_Chiralities_Consistent>
1

> <s_lp_Variant>
AV-unprocessed.smi:3141-8

> <Gold.Version>
5.8.1

> <Gold.Id.Protein>
6NUR|6NUR_protein|mol2

> <Gold.PLP.Fitness>
50.0576

> <Gold.PLP.PLP>
-39.4142

> <Gold.PLP.part.hbond>
-3.0000

> <Gold.PLP.part.metal>
0.0000

> <Gold.PLP.part.buried>
-3.4615

> <Gold.PLP.part.nonpolar>
-33.8200

> <Gold.PLP.part.repulsive>
0.2338

> <Gold.PLP.ligand.clash>
0.0000

> <Gold.PLP.ligand.torsion>
0.3368

> <Gold.PLP.Chemscore.Hbond>
2.7583

> <Gold.PLP.Chemscore.CHOScore>
1.0000

> <Gold.PLP.Chemscore.Metal>
0.0000

> <Gold.Chemscore.Hbonds>
donor molecule, donor type, donor heavy atom, donor atom, acceptor molecule, acceptor atom, score
      L1  H     3    18       P1  8028  0.99
      L1  H     7    24       P1  8028  1.00
      P1  H 10752 10765       L1    16  0.71
      L1  C    17    35       P1  7948  1.00

> <Gold.PLP.Chemscore.Internal.Correction>
0.0419

> <Gold.Rescore>
     Score         DG    S(hbond)    S(metal)    S(lipo)     H(rot)  DE(clash)    DE(int)     intcor
     19.48     -19.92       2.68        0.00      81.18       1.57       0.15       0.29       ----

> <Gold.Chemscore.Fitness>
19.4825

> <Gold.Chemscore.DG>
-19.9162

> <Gold.Chemscore.ZeroCoef>
-5.4800

> <Gold.Chemscore.Hbond>
2.6824

> <Gold.Chemscore.Metal>
0.0000

> <Gold.Chemscore.Lipo>
81.1775

> <Gold.Chemscore.Internal_Hbond>
0.0000

> <Gold.Chemscore.DEClash>
0.1456

> <Gold.Chemscore.DEInternal>
0.2882

> <Gold.Chemscore.Rot>
1.5705

> <Gold.Chemscore.Internal.Correction>
   9.000000E+99

> <Gold.Chemscore.Hbonds>
donor molecule, donor type, donor heavy atom, donor atom, acceptor molecule, acceptor atom, score
      L1  H     3    18       P1  8028  0.91
      L1  H     7    24       P1  8028  0.98
      P1  H 10752 10765       L1    16  0.56

> <Gold.Chemscore.Hbond.Weighted>
-8.9591

> <Gold.Chemscore.Metal.Weighted>
-0.0000

> <Gold.Chemscore.Lipo.Weighted>
-9.4978

> <Gold.Chemscore.Internal_Hbond.Weighted>
0.0000

> <Gold.Chemscore.DEClash.Weighted>
0.1456

> <Gold.Chemscore.DEInternal.Weighted>
0.2882

> <Gold.Chemscore.Rot.Weighted>
4.0206

> <Gold.Chemscore.Internal.Correction.Weighted>
   9.000000E+99

> <Gold.Protein.RotatedTorsions>
[ 6907 6896 6895 6894 ] final  145.44 input  -60.11 | X-H torsion
[ 7974 7965 7964 7962 ] final   -1.41 input  175.53 | X-H torsion
[ 8008 7997 7996 7995 ] final -153.27 input   59.86 | X-H torsion
[ 10167 10162 10161 10158 ] final   22.77 input  -65.29 | X-H torsion
[ 10718 10713 10712 10709 ] final  -26.63 input   66.30 | X-H torsion
[ 10763 10752 10751 10750 ] final  162.30 input  -60.55 | X-H torsion
[ 11005 11000 10999 10996 ] final   18.52 input  -57.11 | X-H torsion

> <Gold.Protein.ActiveResidues>
 VAL166  LYS551  ARG553  GLY616  TRP617  ASP618  TYR619  PRO620  LYS621  CYS622 
 ASP623  PHE694  ASN695  SER759  ASP760  ASP761  ALA762  ILE779  LEU786  VAL792 
 PHE793  MET794  SER795  GLU796  ALA797  LYS798  CYS799  TRP800  GLU811  SER814 

> <Gold.Protein.RotatedAtoms>
  152.1808  133.4706  159.4956 H   0  0  0  0  0  0  0  0  0  0  0  0  # atno 6907 bound_to 6896
  150.6934  134.1836  159.4267 H   0  0  0  0  0  0  0  0  0  0  0  0  # atno 6908 bound_to 6896
  151.9747  135.0059  160.0605 H   0  0  0  0  0  0  0  0  0  0  0  0  # atno 6909 bound_to 6896
  146.2417  140.1416  142.8335 H   0  0  0  0  0  0  0  0  0  0  0  0  # atno 7974 bound_to 7965
  155.6682  140.0730  157.2530 H   0  0  0  0  0  0  0  0  0  0  0  0  # atno 8008 bound_to 7997
  154.4129  140.1704  156.1901 H   0  0  0  0  0  0  0  0  0  0  0  0  # atno 8009 bound_to 7997
  155.9639  140.3367  155.6518 H   0  0  0  0  0  0  0  0  0  0  0  0  # atno 8010 bound_to 7997
  140.5322  143.9822  150.6472 H   0  0  0  0  0  0  0  0  0  0  0  0  # atno 10167 bound_to 10162
  156.4487  130.4479  149.7004 H   0  0  0  0  0  0  0  0  0  0  0  0  # atno 10718 bound_to 10713
  154.2762  135.2764  155.2717 H   0  0  0  0  0  0  0  0  0  0  0  0  # atno 10763 bound_to 10752
  154.5258  135.5743  153.6721 H   0  0  0  0  0  0  0  0  0  0  0  0  # atno 10764 bound_to 10752
  152.9936  135.6215  154.2919 H   0  0  0  0  0  0  0  0  0  0  0  0  # atno 10765 bound_to 10752
  140.4239  134.1490  155.7675 H   0  0  0  0  0  0  0  0  0  0  0  0  # atno 11005 bound_to 11000
  145.0242  140.8818  143.5148 LP  0  0  0  0  0  0  0  0  0  0  0  0  # atno 17320 bound_to 7965
  145.1469  139.2538  143.5461 LP  0  0  0  0  0  0  0  0  0  0  0  0  # atno 17321 bound_to 7965
  140.3200  143.3143  152.0793 LP  0  0  0  0  0  0  0  0  0  0  0  0  # atno 17342 bound_to 10162
  139.4958  144.6580  151.6529 LP  0  0  0  0  0  0  0  0  0  0  0  0  # atno 17343 bound_to 10162
  156.3840  130.7593  151.2588 LP  0  0  0  0  0  0  0  0  0  0  0  0  # atno 17370 bound_to 10713
  157.7504  131.0287  150.4062 LP  0  0  0  0  0  0  0  0  0  0  0  0  # atno 17371 bound_to 10713
  141.1773  133.8488  157.1379 LP  0  0  0  0  0  0  0  0  0  0  0  0  # atno 17394 bound_to 11000
  140.0181  134.9958  157.0534 LP  0  0  0  0  0  0  0  0  0  0  0  0  # atno 17395 bound_to 11000

$$$$
