AV-unprocessed.smi:2013|AV-procd|sdf|8159|dock3
  -GOLD-   2272010403D 1   1.00000     0.00000
 Structure written by MMmdl.
 50 51  0  0  0  0  0  0  0  0  1 V2000
  143.3987  142.0578  156.9890 C   0  0  0  0  0  0  0  0  0  0  0  0
  144.2760  143.2312  156.5187 C   0  0  0  0  0  0  0  0  0  0  0  0
  144.2173  143.3918  154.9849 C   0  0  0  0  0  0  0  0  0  0  0  0
  145.6972  143.2199  157.1703 C   0  0  2  0  0  0  0  0  0  0  0  0
  146.5508  141.9820  156.7850 C   0  0  0  0  0  0  0  0  0  0  0  0
  147.9678  142.3107  156.6899 N   0  0  0  0  0  0  0  0  0  0  0  0
  148.9585  141.5559  157.1834 C   0  0  0  0  0  0  0  0  0  0  0  0
  148.7626  140.5045  157.7947 O   0  0  0  0  0  0  0  0  0  0  0  0
  150.3799  142.0886  156.9543 C   0  0  0  0  0  0  0  0  0  0  0  0
  151.1325  142.3077  158.1965 N   0  0  0  0  0  0  0  0  0  0  0  0
  151.7457  141.2371  158.8207 C   0  0  0  0  0  0  0  0  0  0  0  0
  152.4686  141.3507  159.9561 C   0  0  0  0  0  0  0  0  0  0  0  0
  152.6437  142.6441  160.6053 C   0  0  0  0  0  0  0  0  0  0  0  0
  153.3119  142.7974  161.6285 O   0  0  0  0  0  0  0  0  0  0  0  0
  151.9925  143.7200  159.9560 N   0  0  0  0  0  0  0  0  0  0  0  0
  152.1345  145.0455  160.5223 C   0  0  0  0  0  0  0  0  0  0  0  0
  151.2530  143.5975  158.7578 C   0  0  0  0  0  0  0  0  0  0  0  0
  150.7335  144.5712  158.2067 O   0  0  0  0  0  0  0  0  0  0  0  0
  145.7301  143.5744  158.6037 N   0  0  0  0  0  0  0  0  0  0  0  0
  147.0361  144.0578  159.0482 C   0  0  0  0  0  0  0  0  0  0  0  0
  146.9974  144.5492  160.5045 C   0  0  0  0  0  0  0  0  0  0  0  0
  146.5362  143.4975  161.3458 O   0  0  0  0  0  0  0  0  0  0  0  0
  145.2429  143.0297  160.9781 C   0  0  0  0  0  0  0  0  0  0  0  0
  145.2571  142.5383  159.5197 C   0  0  0  0  0  0  0  0  0  0  0  0
  143.7565  141.1063  156.5949 H   0  0  0  0  0  0  0  0  0  0  0  0
  142.3676  142.1826  156.6575 H   0  0  0  0  0  0  0  0  0  0  0  0
  143.3867  141.9864  158.0771 H   0  0  0  0  0  0  0  0  0  0  0  0
  143.7852  144.1239  156.9085 H   0  0  0  0  0  0  0  0  0  0  0  0
  144.5814  142.5178  154.4508 H   0  0  0  0  0  0  0  0  0  0  0  0
  144.7806  144.2572  154.6382 H   0  0  0  0  0  0  0  0  0  0  0  0
  143.1868  143.5431  154.6624 H   0  0  0  0  0  0  0  0  0  0  0  0
  146.1932  144.0528  156.6689 H   0  0  0  0  0  0  0  0  0  0  0  0
  146.4411  141.1919  157.5278 H   0  0  0  0  0  0  0  0  0  0  0  0
  146.2213  141.5625  155.8341 H   0  0  0  0  0  0  0  0  0  0  0  0
  148.2101  143.1629  156.2054 H   0  0  0  0  0  0  0  0  0  0  0  0
  150.9226  141.4002  156.3043 H   0  0  0  0  0  0  0  0  0  0  0  0
  150.3078  143.0235  156.3967 H   0  0  0  0  0  0  0  0  0  0  0  0
  151.6487  140.2571  158.3761 H   0  0  0  0  0  0  0  0  0  0  0  0
  152.9267  140.4732  160.3882 H   0  0  0  0  0  0  0  0  0  0  0  0
  151.2115  145.6047  160.3612 H   0  0  0  0  0  0  0  0  0  0  0  0
  152.9802  145.5155  160.0184 H   0  0  0  0  0  0  0  0  0  0  0  0
  152.3010  144.9758  161.5979 H   0  0  0  0  0  0  0  0  0  0  0  0
  147.7808  143.2659  158.9714 H   0  0  0  0  0  0  0  0  0  0  0  0
  147.3729  144.8708  158.4043 H   0  0  0  0  0  0  0  0  0  0  0  0
  147.9923  144.8547  160.8285 H   0  0  0  0  0  0  0  0  0  0  0  0
  146.3459  145.4190  160.6032 H   0  0  0  0  0  0  0  0  0  0  0  0
  144.9527  142.2201  161.6476 H   0  0  0  0  0  0  0  0  0  0  0  0
  144.5114  143.8287  161.1070 H   0  0  0  0  0  0  0  0  0  0  0  0
  144.2485  142.2312  159.2623 H   0  0  0  0  0  0  0  0  0  0  0  0
  145.8904  141.6538  159.4476 H   0  0  0  0  0  0  0  0  0  0  0  0
  1  2  1  0  0  0  0
  1 25  1  0  0  0  0
  1 26  1  0  0  0  0
  1 27  1  0  0  0  0
  2  3  1  0  0  0  0
  2  4  1  0  0  0  0
  2 28  1  0  0  0  0
  3 29  1  0  0  0  0
  3 30  1  0  0  0  0
  3 31  1  0  0  0  0
  4  5  1  0  0  0  0
  4 19  1  0  0  0  0
  4 32  1  0  0  0  0
  5  6  1  0  0  0  0
  5 33  1  0  0  0  0
  5 34  1  0  0  0  0
  6  7  1  0  0  0  0
  6 35  1  0  0  0  0
  7  8  2  0  0  0  0
  7  9  1  0  0  0  0
  9 10  1  0  0  0  0
  9 36  1  0  0  0  0
  9 37  1  0  0  0  0
 10 17  1  0  0  0  0
 10 11  1  0  0  0  0
 11 12  2  0  0  0  0
 11 38  1  0  0  0  0
 12 13  1  0  0  0  0
 12 39  1  0  0  0  0
 13 14  2  0  0  0  0
 13 15  1  0  0  0  0
 15 16  1  0  0  0  0
 15 17  1  0  0  0  0
 16 40  1  0  0  0  0
 16 41  1  0  0  0  0
 16 42  1  0  0  0  0
 17 18  2  0  0  0  0
 19 24  1  0  0  0  0
 19 20  1  0  0  0  0
 20 21  1  0  0  0  0
 20 43  1  0  0  0  0
 20 44  1  0  0  0  0
 21 22  1  0  0  0  0
 21 45  1  0  0  0  0
 21 46  1  0  0  0  0
 22 23  1  0  0  0  0
 23 24  1  0  0  0  0
 23 47  1  0  0  0  0
 23 48  1  0  0  0  0
 24 49  1  0  0  0  0
 24 50  1  0  0  0  0
M  END
> <s_m_source_file>
AV-unprocessed.smi

> <i_m_source_file_index>
2013

> <i_lp_mmshare_version>
43012

> <i_f3d_flags>
0

> <s_epik_input>
W0NIMl0xW0NIMl1PW0NIMl1bQ0gyXU4xW0NASF0oW0NIXShbQ0gzXSlbQ0gzXSlbQ0gyXVtOSF1DKD1PKVtDSDJdbjJbY0hdW2NIXWMoPU8pbihbQ0gzXSljMj1P

> <s_epik_cmdline>
J2VwaWtfcHl0aG9uJywgJy1waCcsICc3LjAnLCAnLXRuJywgJzgnLCAnLW1hJywgJzIwMCcsICctbWV0YWxfYmluZGluZycsICctaW1hZScsICc8aW5maWxlLm1hZT4nLCAnLW9tYWUnLCAnPG91dGZpbGUubWFlPic=

> <r_lp_tautomer_probability>
1

> <r_epik_Ionization_Penalty>
0.45351

> <r_epik_Ionization_Penalty_Charging>
1.24653e-08

> <r_epik_Ionization_Penalty_Neutral>
0.45351

> <r_epik_State_Penalty>
0.456487

> <r_epik_Charging_Adjusted_Penalty>
0.456487

> <i_epik_Tot_Q>
0

> <i_epik_Tot_abs_Q>
0

> <r_epik_Metal_State_Penalty>
0.456449

> <b_epik_Metal_Only>
0

> <s_lp_Force_Field>
OPLS_2005

> <r_lp_Energy>
47.2128

> <b_lp_Chiralities_Consistent>
1

> <s_lp_Variant>
AV-unprocessed.smi:2013-3

> <Gold.Version>
5.8.1

> <Gold.Id.Protein>
6NUR|6NUR_protein|mol2

> <Gold.PLP.Fitness>
40.2909

> <Gold.PLP.PLP>
-37.2157

> <Gold.PLP.part.hbond>
-2.5594

> <Gold.PLP.part.metal>
0.0000

> <Gold.PLP.part.buried>
-5.9980

> <Gold.PLP.part.nonpolar>
-28.8900

> <Gold.PLP.part.repulsive>
0.3510

> <Gold.PLP.ligand.clash>
0.0000

> <Gold.PLP.ligand.torsion>
1.0524

> <Gold.PLP.Chemscore.Hbond>
1.5472

> <Gold.PLP.Chemscore.CHOScore>
0.0000

> <Gold.PLP.Chemscore.Metal>
0.0000

> <Gold.Chemscore.Hbonds>
donor molecule, donor type, donor heavy atom, donor atom, acceptor molecule, acceptor atom, score
      L1  H     6    35       P1  8028  1.00
      P1  H  6933  6944       L1    22  0.36

> <Gold.PLP.Chemscore.Internal.Correction>
0.5384

> <Gold.Rescore>
     Score         DG    S(hbond)    S(metal)    S(lipo)     H(rot)  DE(clash)    DE(int)     intcor
      9.65     -10.94       1.26        0.00      59.06       2.20       0.03       1.26       ----

> <Gold.Chemscore.Fitness>
9.6467

> <Gold.Chemscore.DG>
-10.9416

> <Gold.Chemscore.ZeroCoef>
-5.4800

> <Gold.Chemscore.Hbond>
1.2557

> <Gold.Chemscore.Metal>
0.0000

> <Gold.Chemscore.Lipo>
59.0553

> <Gold.Chemscore.Internal_Hbond>
0.0000

> <Gold.Chemscore.DEClash>
0.0348

> <Gold.Chemscore.DEInternal>
1.2601

> <Gold.Chemscore.Rot>
2.2039

> <Gold.Chemscore.Internal.Correction>
   9.000000E+99

> <Gold.Chemscore.Hbonds>
donor molecule, donor type, donor heavy atom, donor atom, acceptor molecule, acceptor atom, score
      L1  H     6    35       P1  8028  0.60
      P1  H  6933  6944       L1    22  0.06

> <Gold.Chemscore.Hbond.Weighted>
-4.1941

> <Gold.Chemscore.Metal.Weighted>
-0.0000

> <Gold.Chemscore.Lipo.Weighted>
-6.9095

> <Gold.Chemscore.Internal_Hbond.Weighted>
0.0000

> <Gold.Chemscore.DEClash.Weighted>
0.0348

> <Gold.Chemscore.DEInternal.Weighted>
1.2601

> <Gold.Chemscore.Rot.Weighted>
5.6420

> <Gold.Chemscore.Internal.Correction.Weighted>
   9.000000E+99

> <Gold.Protein.RotatedTorsions>
[ 6907 6896 6895 6894 ] final  -30.48 input  -60.11 | X-H torsion
[ 7974 7965 7964 7962 ] final  -37.87 input  175.53 | X-H torsion
[ 8008 7997 7996 7995 ] final  170.21 input   59.86 | X-H torsion
[ 10167 10162 10161 10158 ] final  -67.44 input  -65.29 | X-H torsion
[ 10718 10713 10712 10709 ] final   44.19 input   66.30 | X-H torsion
[ 10763 10752 10751 10750 ] final  -23.03 input  -60.55 | X-H torsion
[ 11005 11000 10999 10996 ] final  -89.07 input  -57.11 | X-H torsion

> <Gold.Protein.ActiveResidues>
 VAL166  LYS551  ARG553  GLY616  TRP617  ASP618  TYR619  PRO620  LYS621  CYS622 
 ASP623  PHE694  ASN695  SER759  ASP760  ASP761  ALA762  ILE779  LEU786  VAL792 
 PHE793  MET794  SER795  GLU796  ALA797  LYS798  CYS799  TRP800  GLU811  SER814 

> <Gold.Protein.RotatedAtoms>
  151.1050  134.9994  159.8466 H   0  0  0  0  0  0  0  0  0  0  0  0  # atno 6907 bound_to 6896
  152.5439  134.1904  159.8681 H   0  0  0  0  0  0  0  0  0  0  0  0  # atno 6908 bound_to 6896
  151.1950  133.4600  159.2628 H   0  0  0  0  0  0  0  0  0  0  0  0  # atno 6909 bound_to 6896
  146.0537  140.6446  142.9030 H   0  0  0  0  0  0  0  0  0  0  0  0  # atno 7974 bound_to 7965
  156.1386  140.1544  156.8956 H   0  0  0  0  0  0  0  0  0  0  0  0  # atno 8008 bound_to 7997
  154.4968  140.0836  156.7752 H   0  0  0  0  0  0  0  0  0  0  0  0  # atno 8009 bound_to 7997
  155.4122  140.3419  155.4267 H   0  0  0  0  0  0  0  0  0  0  0  0  # atno 8010 bound_to 7997
  140.5582  143.2312  151.6779 H   0  0  0  0  0  0  0  0  0  0  0  0  # atno 10167 bound_to 10162
  157.4242  130.7987  149.7543 H   0  0  0  0  0  0  0  0  0  0  0  0  # atno 10718 bound_to 10713
  153.6613  135.6976  153.5176 H   0  0  0  0  0  0  0  0  0  0  0  0  # atno 10763 bound_to 10752
  153.2630  135.4239  155.0912 H   0  0  0  0  0  0  0  0  0  0  0  0  # atno 10764 bound_to 10752
  154.8451  135.3559  154.6157 H   0  0  0  0  0  0  0  0  0  0  0  0  # atno 10765 bound_to 10752
  141.1591  133.7608  156.9543 H   0  0  0  0  0  0  0  0  0  0  0  0  # atno 11005 bound_to 11000
  144.7136  140.4130  143.7061 LP  0  0  0  0  0  0  0  0  0  0  0  0  # atno 17320 bound_to 7965
  145.6680  139.1594  143.2770 LP  0  0  0  0  0  0  0  0  0  0  0  0  # atno 17321 bound_to 7965
  139.5058  144.3705  152.0475 LP  0  0  0  0  0  0  0  0  0  0  0  0  # atno 17342 bound_to 10162
  140.2829  144.3840  150.6113 LP  0  0  0  0  0  0  0  0  0  0  0  0  # atno 17343 bound_to 10162
  155.9891  130.3954  150.3090 LP  0  0  0  0  0  0  0  0  0  0  0  0  # atno 17370 bound_to 10713
  157.1240  131.0254  151.2997 LP  0  0  0  0  0  0  0  0  0  0  0  0  # atno 17371 bound_to 10713
  140.1236  134.9401  157.2238 LP  0  0  0  0  0  0  0  0  0  0  0  0  # atno 17394 bound_to 11000
  140.3041  134.3098  155.7282 LP  0  0  0  0  0  0  0  0  0  0  0  0  # atno 17395 bound_to 11000

$$$$
