AV-unprocessed.smi:2489|AV-procd|sdf|9799|dock5
  -GOLD-   2272013433D 1   1.00000     0.00000
 Structure written by MMmdl.
 33 34  0  0  0  0  0  0  0  0  1 V2000
  152.8641  142.9775  161.8921 C   0  0  0  0  0  0  0  0  0  0  0  0
  153.1514  142.4559  160.6024 O   0  0  0  0  0  0  0  0  0  0  0  0
  152.3426  142.8529  159.5623 C   0  0  0  0  0  0  0  0  0  0  0  0
  152.2816  144.2269  159.0698 C   0  0  0  0  0  0  0  0  0  0  0  0
  151.4523  144.5007  158.0517 C   0  0  0  0  0  0  0  0  0  0  0  0
  150.6609  143.5274  157.4591 N   0  0  0  0  0  0  0  0  0  0  0  0
  150.6724  142.1854  157.8796 C   0  0  0  0  0  0  0  0  0  0  0  0
  149.9585  141.2265  157.3654 N   0  0  0  0  0  0  0  0  0  0  0  0
  149.0691  141.4314  156.3140 C   0  0  0  0  0  0  0  0  0  0  0  0
  147.9651  141.9839  156.3195 O   0  0  0  0  0  0  0  0  0  0  0  0
  149.6088  140.8649  154.9928 C   0  0  2  0  0  0  0  0  0  0  0  0
  148.8321  139.6268  154.5119 C   0  0  0  0  0  0  0  0  0  0  0  0
  149.9252  138.6368  154.1632 C   0  0  0  0  0  0  0  0  0  0  0  0
  151.0214  139.0143  155.1519 C   0  0  1  0  0  0  0  0  0  0  0  0
  152.4228  138.5469  154.7458 C   0  0  0  0  0  0  0  0  0  0  0  0
  150.9584  140.4337  155.1787 O   0  0  0  0  0  0  0  0  0  0  0  0
  151.5747  141.8984  158.9863 C   0  0  0  0  0  0  0  0  0  0  0  0
  153.5815  142.5770  162.6083 H   0  0  0  0  0  0  0  0  0  0  0  0
  151.8682  142.6874  162.2296 H   0  0  0  0  0  0  0  0  0  0  0  0
  152.9531  144.0645  161.9129 H   0  0  0  0  0  0  0  0  0  0  0  0
  152.8758  145.0228  159.4925 H   0  0  0  0  0  0  0  0  0  0  0  0
  151.3442  145.4872  157.6258 H   0  0  0  0  0  0  0  0  0  0  0  0
  149.6155  141.6353  154.2197 H   0  0  0  0  0  0  0  0  0  0  0  0
  148.2012  139.2146  155.3012 H   0  0  0  0  0  0  0  0  0  0  0  0
  148.1909  139.8454  153.6577 H   0  0  0  0  0  0  0  0  0  0  0  0
  149.6068  137.5980  154.2537 H   0  0  0  0  0  0  0  0  0  0  0  0
  150.2629  138.8034  153.1393 H   0  0  0  0  0  0  0  0  0  0  0  0
  150.7704  138.6348  156.1438 H   0  0  0  0  0  0  0  0  0  0  0  0
  152.4740  137.4591  154.6956 H   0  0  0  0  0  0  0  0  0  0  0  0
  153.1682  138.8830  155.4666 H   0  0  0  0  0  0  0  0  0  0  0  0
  152.7029  138.9417  153.7687 H   0  0  0  0  0  0  0  0  0  0  0  0
  151.6525  140.8964  159.3837 H   0  0  0  0  0  0  0  0  0  0  0  0
  150.0678  143.8303  156.6995 H   0  0  0  0  0  0  0  0  0  0  0  0
  1  2  1  0  0  0  0
  1 18  1  0  0  0  0
  1 19  1  0  0  0  0
  1 20  1  0  0  0  0
  2  3  1  0  0  0  0
  3 17  2  0  0  0  0
  3  4  1  0  0  0  0
  4  5  2  0  0  0  0
  4 21  1  0  0  0  0
  5  6  1  0  0  0  0
  5 22  1  0  0  0  0
  6  7  1  0  0  0  0
  6 33  1  0  0  0  0
  7  8  2  0  0  0  0
  7 17  1  0  0  0  0
  8  9  1  0  0  0  0
  9 10  2  0  0  0  0
  9 11  1  0  0  0  0
 11 16  1  0  0  0  0
 11 12  1  0  0  0  0
 11 23  1  0  0  0  0
 12 13  1  0  0  0  0
 12 24  1  0  0  0  0
 12 25  1  0  0  0  0
 13 14  1  0  0  0  0
 13 26  1  0  0  0  0
 13 27  1  0  0  0  0
 14 15  1  0  0  0  0
 14 16  1  0  0  0  0
 14 28  1  0  0  0  0
 15 29  1  0  0  0  0
 15 30  1  0  0  0  0
 15 31  1  0  0  0  0
 17 32  1  0  0  0  0
M  END
> <s_m_source_file>
AV-unprocessed.smi

> <i_m_source_file_index>
2489

> <i_lp_mmshare_version>
43012

> <i_f3d_flags>
0

> <s_epik_input>
W0NIM11PYzFbY0hdW2NIXW5jKFtjSF0xKVtOSF1DKD1PKVtDQEBIXTJbQ0gyXVtDSDJdW0NASF0oTzIpW0NIM10=

> <s_epik_cmdline>
J2VwaWtfcHl0aG9uJywgJy1waCcsICc3LjAnLCAnLXRuJywgJzgnLCAnLW1hJywgJzIwMCcsICctbWV0YWxfYmluZGluZycsICctaW1hZScsICc8aW5maWxlLm1hZT4nLCAnLW9tYWUnLCAnPG91dGZpbGUubWFlPic=

> <r_epik_Ionization_Penalty>
0.410206

> <r_epik_Ionization_Penalty_Charging>
0.410206

> <r_epik_Ionization_Penalty_Neutral>
6.57528e-13

> <r_epik_State_Penalty>
1.30987

> <r_epik_Charging_Adjusted_Penalty>
1.72007

> <i_epik_Tot_Q>
0

> <i_epik_Tot_abs_Q>
0

> <r_epik_Metal_State_Penalty>
1.32171

> <b_epik_Metal_Only>
0

> <s_lp_Force_Field>
OPLS_2005

> <r_lp_Energy>
36.165

> <b_lp_Chiralities_Consistent>
1

> <s_lp_Variant>
AV-unprocessed.smi:2489-5

> <Gold.Version>
5.8.1

> <Gold.Id.Protein>
6NUR|6NUR_protein|mol2

> <Gold.PLP.Fitness>
43.9544

> <Gold.PLP.PLP>
-39.8389

> <Gold.PLP.part.hbond>
-2.0000

> <Gold.PLP.part.metal>
0.0000

> <Gold.PLP.part.buried>
-6.0163

> <Gold.PLP.part.nonpolar>
-33.2832

> <Gold.PLP.part.repulsive>
1.2929

> <Gold.PLP.ligand.clash>
0.0000

> <Gold.PLP.ligand.torsion>
0.8717

> <Gold.PLP.Chemscore.Hbond>
1.9500

> <Gold.PLP.Chemscore.CHOScore>
0.0000

> <Gold.PLP.Chemscore.Metal>
0.0000

> <Gold.Chemscore.Hbonds>
donor molecule, donor type, donor heavy atom, donor atom, acceptor molecule, acceptor atom, score
      L1  H     6    33       P1  8028  1.00
      P1  H  7989  7998       L1    16  0.95

> <Gold.PLP.Chemscore.Internal.Correction>
0.0089

> <Gold.Rescore>
     Score         DG    S(hbond)    S(metal)    S(lipo)     H(rot)  DE(clash)    DE(int)     intcor
     16.96     -17.74       1.33        0.00      93.73       1.23       0.06       0.72       ----

> <Gold.Chemscore.Fitness>
16.9631

> <Gold.Chemscore.DG>
-17.7439

> <Gold.Chemscore.ZeroCoef>
-5.4800

> <Gold.Chemscore.Hbond>
1.3285

> <Gold.Chemscore.Metal>
0.0000

> <Gold.Chemscore.Lipo>
93.7283

> <Gold.Chemscore.Internal_Hbond>
0.0000

> <Gold.Chemscore.DEClash>
0.0615

> <Gold.Chemscore.DEInternal>
0.7193

> <Gold.Chemscore.Rot>
1.2264

> <Gold.Chemscore.Internal.Correction>
   9.000000E+99

> <Gold.Chemscore.Hbonds>
donor molecule, donor type, donor heavy atom, donor atom, acceptor molecule, acceptor atom, score
      L1  H     6    33       P1  8028  1.00
      P1  H  7989  7998       L1    16  0.07

> <Gold.Chemscore.Hbond.Weighted>
-4.4373

> <Gold.Chemscore.Metal.Weighted>
-0.0000

> <Gold.Chemscore.Lipo.Weighted>
-10.9662

> <Gold.Chemscore.Internal_Hbond.Weighted>
0.0000

> <Gold.Chemscore.DEClash.Weighted>
0.0615

> <Gold.Chemscore.DEInternal.Weighted>
0.7193

> <Gold.Chemscore.Rot.Weighted>
3.1396

> <Gold.Chemscore.Internal.Correction.Weighted>
   9.000000E+99

> <Gold.Protein.RotatedTorsions>
[ 6907 6896 6895 6894 ] final  105.00 input  -60.11 | X-H torsion
[ 7974 7965 7964 7962 ] final -161.08 input  175.53 | X-H torsion
[ 8008 7997 7996 7995 ] final   63.30 input   59.86 | X-H torsion
[ 10167 10162 10161 10158 ] final  -14.74 input  -65.29 | X-H torsion
[ 10718 10713 10712 10709 ] final   70.63 input   66.30 | X-H torsion
[ 10763 10752 10751 10750 ] final  170.01 input  -60.55 | X-H torsion
[ 11005 11000 10999 10996 ] final  135.12 input  -57.11 | X-H torsion

> <Gold.Protein.ActiveResidues>
 VAL166  LYS551  ARG553  GLY616  TRP617  ASP618  TYR619  PRO620  LYS621  CYS622 
 ASP623  PHE694  ASN695  SER759  ASP760  ASP761  ALA762  ILE779  LEU786  VAL792 
 PHE793  MET794  SER795  GLU796  ALA797  LYS798  CYS799  TRP800  GLU811  SER814 

> <Gold.Protein.RotatedAtoms>
  152.5245  133.9594  159.7709 H   0  0  0  0  0  0  0  0  0  0  0  0  # atno 6907 bound_to 6896
  150.9887  133.6163  159.2718 H   0  0  0  0  0  0  0  0  0  0  0  0  # atno 6908 bound_to 6896
  151.3314  135.0848  159.9393 H   0  0  0  0  0  0  0  0  0  0  0  0  # atno 6909 bound_to 6896
  144.7404  140.3449  143.6127 H   0  0  0  0  0  0  0  0  0  0  0  0  # atno 7974 bound_to 7965
  155.6280  140.3496  155.4673 H   0  0  0  0  0  0  0  0  0  0  0  0  # atno 8008 bound_to 7997
  156.0026  140.1216  157.0556 H   0  0  0  0  0  0  0  0  0  0  0  0  # atno 8009 bound_to 7997
  154.4254  140.1097  156.5704 H   0  0  0  0  0  0  0  0  0  0  0  0  # atno 8010 bound_to 7997
  140.7206  143.5290  150.9543 H   0  0  0  0  0  0  0  0  0  0  0  0  # atno 10167 bound_to 10162
  157.6410  130.9487  150.0678 H   0  0  0  0  0  0  0  0  0  0  0  0  # atno 10718 bound_to 10713
  154.3915  135.2754  155.2152 H   0  0  0  0  0  0  0  0  0  0  0  0  # atno 10763 bound_to 10752
  154.4216  135.5998  153.6017 H   0  0  0  0  0  0  0  0  0  0  0  0  # atno 10764 bound_to 10752
  152.9832  135.5974  154.4170 H   0  0  0  0  0  0  0  0  0  0  0  0  # atno 10765 bound_to 10752
  139.9959  134.9497  156.9962 H   0  0  0  0  0  0  0  0  0  0  0  0  # atno 11005 bound_to 11000
  145.7336  139.1743  143.2416 LP  0  0  0  0  0  0  0  0  0  0  0  0  # atno 17320 bound_to 7965
  146.1188  140.7336  142.9468 LP  0  0  0  0  0  0  0  0  0  0  0  0  # atno 17321 bound_to 7965
  139.9010  143.6836  152.3131 LP  0  0  0  0  0  0  0  0  0  0  0  0  # atno 17342 bound_to 10162
  139.7186  144.7607  151.0993 LP  0  0  0  0  0  0  0  0  0  0  0  0  # atno 17343 bound_to 10162
  156.1691  130.3646  149.9190 LP  0  0  0  0  0  0  0  0  0  0  0  0  # atno 17370 bound_to 10713
  156.7170  130.8992  151.3615 LP  0  0  0  0  0  0  0  0  0  0  0  0  # atno 17371 bound_to 10713
  140.4820  134.1280  155.7218 LP  0  0  0  0  0  0  0  0  0  0  0  0  # atno 17394 bound_to 11000
  141.1603  133.8804  157.1865 LP  0  0  0  0  0  0  0  0  0  0  0  0  # atno 17395 bound_to 11000

$$$$
