AV-unprocessed.smi:470|AV-procd|sdf|2654|dock1
  -GOLD-   2262023 63D 1   1.00000     0.00000
 Structure written by MMmdl.
 33 34  0  0  0  0  0  0  0  0  1 V2000
  152.4642  137.2966  156.5718 N   0  0  0  0  0  0  0  0  0  0  0  0
  152.3479  138.0838  155.4988 C   0  0  0  0  0  0  0  0  0  0  0  0
  153.2892  138.7426  155.0615 O   0  0  0  0  0  0  0  0  0  0  0  0
  150.9801  138.1383  154.8162 C   0  0  0  0  0  0  0  0  0  0  0  0
  150.4021  139.5197  154.9198 C   0  0  0  0  0  0  0  0  0  0  0  0
  149.2732  139.9916  154.2947 C   0  0  0  0  0  0  0  0  0  0  0  0
  148.9651  141.6645  154.6757 S   0  0  0  0  0  0  0  0  0  0  0  0
  150.3802  141.6486  155.7165 C   0  0  0  0  0  0  0  0  0  0  0  0
  150.8201  142.8112  156.4011 N   0  0  0  0  0  0  0  0  0  0  0  0
  151.5385  142.9425  157.5352 C   0  0  0  0  0  0  0  0  0  0  0  0
  151.9384  141.9324  158.1126 O   0  0  0  0  0  0  0  0  0  0  0  0
  151.9070  144.3349  158.1048 C   0  0  2  0  0  0  0  0  0  0  0  0
  152.9296  144.2488  159.2685 C   0  0  0  0  0  0  0  0  0  0  0  0
  152.2947  143.9512  160.6176 C   0  0  0  0  0  0  0  0  0  0  0  0
  150.9785  144.0697  160.8598 C   0  0  0  0  0  0  0  0  0  0  0  0
  149.9731  144.5088  159.8114 C   0  0  0  0  0  0  0  0  0  0  0  0
  150.6523  145.1147  158.5653 C   0  0  0  0  0  0  0  0  0  0  0  0
  151.0285  140.4798  155.7213 N   0  0  0  0  0  0  0  0  0  0  0  0
  153.3479  137.2373  157.0564 H   0  0  0  0  0  0  0  0  0  0  0  0
  151.6673  136.7696  156.8989 H   0  0  0  0  0  0  0  0  0  0  0  0
  151.0900  137.8480  153.7705 H   0  0  0  0  0  0  0  0  0  0  0  0
  150.3169  137.4008  155.2710 H   0  0  0  0  0  0  0  0  0  0  0  0
  148.6133  139.4594  153.6257 H   0  0  0  0  0  0  0  0  0  0  0  0
  150.5423  143.6819  155.9722 H   0  0  0  0  0  0  0  0  0  0  0  0
  152.4129  144.8995  157.3239 H   0  0  0  0  0  0  0  0  0  0  0  0
  153.6813  143.4862  159.0596 H   0  0  0  0  0  0  0  0  0  0  0  0
  153.4708  145.1912  159.3571 H   0  0  0  0  0  0  0  0  0  0  0  0
  152.9606  143.6452  161.4111 H   0  0  0  0  0  0  0  0  0  0  0  0
  150.5891  143.8322  161.8390 H   0  0  0  0  0  0  0  0  0  0  0  0
  149.3721  143.6421  159.5344 H   0  0  0  0  0  0  0  0  0  0  0  0
  149.2910  145.2368  160.2508 H   0  0  0  0  0  0  0  0  0  0  0  0
  150.9505  146.1389  158.7924 H   0  0  0  0  0  0  0  0  0  0  0  0
  149.9231  145.1934  157.7588 H   0  0  0  0  0  0  0  0  0  0  0  0
  1  2  1  0  0  0  0
  1 19  1  0  0  0  0
  1 20  1  0  0  0  0
  2  3  2  0  0  0  0
  2  4  1  0  0  0  0
  4  5  1  0  0  0  0
  4 21  1  0  0  0  0
  4 22  1  0  0  0  0
  5 18  1  0  0  0  0
  5  6  2  0  0  0  0
  6  7  1  0  0  0  0
  6 23  1  0  0  0  0
  7  8  1  0  0  0  0
  8  9  1  0  0  0  0
  8 18  2  0  0  0  0
  9 10  1  0  0  0  0
  9 24  1  0  0  0  0
 10 11  2  0  0  0  0
 10 12  1  0  0  0  0
 12 17  1  0  0  0  0
 12 13  1  0  0  0  0
 12 25  1  0  0  0  0
 13 14  1  0  0  0  0
 13 26  1  0  0  0  0
 13 27  1  0  0  0  0
 14 15  2  0  0  0  0
 14 28  1  0  0  0  0
 15 16  1  0  0  0  0
 15 29  1  0  0  0  0
 16 17  1  0  0  0  0
 16 30  1  0  0  0  0
 16 31  1  0  0  0  0
 17 32  1  0  0  0  0
 17 33  1  0  0  0  0
M  END
> <s_m_source_file>
AV-unprocessed.smi

> <i_m_source_file_index>
470

> <i_lp_mmshare_version>
43012

> <i_f3d_flags>
0

> <s_epik_input>
W05IMl1DKD1PKVtDSDJdYzFbY0hdc2MobjEpW05IXUMoPU8pW0NAQEhdMltDSDJdW0NIXT1bQ0hdW0NIMl1bQ0gyXTI=

> <s_epik_cmdline>
J2VwaWtfcHl0aG9uJywgJy1waCcsICc3LjAnLCAnLXRuJywgJzgnLCAnLW1hJywgJzIwMCcsICctbWV0YWxfYmluZGluZycsICctaW1hZScsICc8aW5maWxlLm1hZT4nLCAnLW9tYWUnLCAnPG91dGZpbGUubWFlPic=

> <r_lp_tautomer_probability>
1

> <r_epik_Ionization_Penalty>
0.00025496

> <r_epik_Ionization_Penalty_Charging>
0

> <r_epik_Ionization_Penalty_Neutral>
0.00025496

> <r_epik_State_Penalty>
-0

> <r_epik_Charging_Adjusted_Penalty>
0

> <i_epik_Tot_Q>
0

> <i_epik_Tot_abs_Q>
0

> <r_epik_Metal_State_Penalty>
0.149391

> <b_epik_Metal_Only>
0

> <s_lp_Force_Field>
OPLS_2005

> <r_lp_Energy>
11.789

> <b_lp_Chiralities_Consistent>
1

> <s_lp_Variant>
AV-unprocessed.smi:470-1

> <Gold.Version>
5.8.1

> <Gold.Id.Protein>
6NUR|6NUR_protein|mol2

> <Gold.PLP.Fitness>
43.2602

> <Gold.PLP.PLP>
-37.1389

> <Gold.PLP.part.hbond>
-2.9855

> <Gold.PLP.part.metal>
0.0000

> <Gold.PLP.part.buried>
-0.1419

> <Gold.PLP.part.nonpolar>
-33.6910

> <Gold.PLP.part.repulsive>
0.3040

> <Gold.PLP.ligand.clash>
0.0000

> <Gold.PLP.ligand.torsion>
0.3456

> <Gold.PLP.Chemscore.Hbond>
1.9600

> <Gold.PLP.Chemscore.CHOScore>
0.2979

> <Gold.PLP.Chemscore.Metal>
0.0000

> <Gold.Chemscore.Hbonds>
donor molecule, donor type, donor heavy atom, donor atom, acceptor molecule, acceptor atom, score
      L1  H     9    24       P1  8028  0.80
      P1  H  7997  8009       L1     3  0.99
      L1  C     6    23       P1  7957  0.25

> <Gold.PLP.Chemscore.Internal.Correction>
0.0390

> <Gold.Rescore>
     Score         DG    S(hbond)    S(metal)    S(lipo)     H(rot)  DE(clash)    DE(int)     intcor
     15.44     -18.31       1.92        0.00      96.43       1.90       0.24       2.63       ----

> <Gold.Chemscore.Fitness>
15.4413

> <Gold.Chemscore.DG>
-18.3086

> <Gold.Chemscore.ZeroCoef>
-5.4800

> <Gold.Chemscore.Hbond>
1.9169

> <Gold.Chemscore.Metal>
0.0000

> <Gold.Chemscore.Lipo>
96.4279

> <Gold.Chemscore.Internal_Hbond>
0.0000

> <Gold.Chemscore.DEClash>
0.2357

> <Gold.Chemscore.DEInternal>
2.6316

> <Gold.Chemscore.Rot>
1.8968

> <Gold.Chemscore.Internal.Correction>
   9.000000E+99

> <Gold.Chemscore.Hbonds>
donor molecule, donor type, donor heavy atom, donor atom, acceptor molecule, acceptor atom, score
      L1  H     9    24       P1  8028  0.78
      P1  H  7997  8009       L1     3  0.88

> <Gold.Chemscore.Hbond.Weighted>
-6.4023

> <Gold.Chemscore.Metal.Weighted>
-0.0000

> <Gold.Chemscore.Lipo.Weighted>
-11.2821

> <Gold.Chemscore.Internal_Hbond.Weighted>
0.0000

> <Gold.Chemscore.DEClash.Weighted>
0.2357

> <Gold.Chemscore.DEInternal.Weighted>
2.6316

> <Gold.Chemscore.Rot.Weighted>
4.8558

> <Gold.Chemscore.Internal.Correction.Weighted>
   9.000000E+99

> <Gold.Protein.RotatedTorsions>
[ 6907 6896 6895 6894 ] final  -58.24 input  -60.11 | X-H torsion
[ 7974 7965 7964 7962 ] final   55.99 input  175.53 | X-H torsion
[ 8008 7997 7996 7995 ] final -129.80 input   59.86 | X-H torsion
[ 10167 10162 10161 10158 ] final   56.39 input  -65.29 | X-H torsion
[ 10718 10713 10712 10709 ] final   11.94 input   66.30 | X-H torsion
[ 10763 10752 10751 10750 ] final  -47.29 input  -60.55 | X-H torsion
[ 11005 11000 10999 10996 ] final  -79.06 input  -57.11 | X-H torsion

> <Gold.Protein.ActiveResidues>
 VAL166  LYS551  ARG553  GLY616  TRP617  ASP618  TYR619  PRO620  LYS621  CYS622 
 ASP623  PHE694  ASN695  SER759  ASP760  ASP761  ALA762  ILE779  LEU786  VAL792 
 PHE793  MET794  SER795  GLU796  ALA797  LYS798  CYS799  TRP800  GLU811  SER814 

> <Gold.Protein.RotatedAtoms>
  150.8023  134.7124  159.6611 H   0  0  0  0  0  0  0  0  0  0  0  0  # atno 6907 bound_to 6896
  152.4140  134.6071  160.0025 H   0  0  0  0  0  0  0  0  0  0  0  0  # atno 6908 bound_to 6896
  151.6305  133.3295  159.3144 H   0  0  0  0  0  0  0  0  0  0  0  0  # atno 6909 bound_to 6896
  145.9445  139.3918  143.0343 H   0  0  0  0  0  0  0  0  0  0  0  0  # atno 7974 bound_to 7965
  155.2852  140.0446  157.3019 H   0  0  0  0  0  0  0  0  0  0  0  0  # atno 8008 bound_to 7997
  154.5573  140.2335  155.8357 H   0  0  0  0  0  0  0  0  0  0  0  0  # atno 8009 bound_to 7997
  156.2018  140.3023  155.9550 H   0  0  0  0  0  0  0  0  0  0  0  0  # atno 8010 bound_to 7997
  140.2092  144.3906  150.6496 H   0  0  0  0  0  0  0  0  0  0  0  0  # atno 10167 bound_to 10162
  157.0029  130.6087  149.5698 H   0  0  0  0  0  0  0  0  0  0  0  0  # atno 10718 bound_to 10713
  154.0589  135.6621  153.4809 H   0  0  0  0  0  0  0  0  0  0  0  0  # atno 10763 bound_to 10752
  153.0434  135.5130  154.7678 H   0  0  0  0  0  0  0  0  0  0  0  0  # atno 10764 bound_to 10752
  154.6708  135.3029  154.9711 H   0  0  0  0  0  0  0  0  0  0  0  0  # atno 10765 bound_to 10752
  141.1666  133.7089  156.8065 H   0  0  0  0  0  0  0  0  0  0  0  0  # atno 11005 bound_to 11000
  145.8254  140.9658  143.0876 LP  0  0  0  0  0  0  0  0  0  0  0  0  # atno 17320 bound_to 7965
  144.6785  140.0095  143.7484 LP  0  0  0  0  0  0  0  0  0  0  0  0  # atno 17321 bound_to 7965
  140.6335  143.2191  151.6444 LP  0  0  0  0  0  0  0  0  0  0  0  0  # atno 17342 bound_to 10162
  139.5186  144.3278  152.0853 LP  0  0  0  0  0  0  0  0  0  0  0  0  # atno 17343 bound_to 10162
  156.0164  130.5258  150.8148 LP  0  0  0  0  0  0  0  0  0  0  0  0  # atno 17370 bound_to 10713
  157.5377  131.0939  150.9870 LP  0  0  0  0  0  0  0  0  0  0  0  0  # atno 17371 bound_to 10713
  140.2218  134.8751  157.3385 LP  0  0  0  0  0  0  0  0  0  0  0  0  # atno 17394 bound_to 11000
  140.1980  134.4290  155.7678 LP  0  0  0  0  0  0  0  0  0  0  0  0  # atno 17395 bound_to 11000

$$$$
