AV-unprocessed.smi:79|AV-procd|sdf|778|dock5
  -GOLD-   2262017133D 1   1.00000     0.00000
 Structure written by MMmdl.
 56 59  0  0  0  0  0  0  0  0  2 V2000
  144.7114  133.4277  151.0704 C   0  0  0  0  0  0  0  0  0  0  0  0
  146.0588  132.6946  151.0800 C   0  0  1  0  0  0  0  0  0  0  0  0
  146.4530  132.4779  149.7402 O   0  0  0  0  0  0  0  0  0  0  0  0
  147.1539  133.5019  151.8039 C   0  0  0  0  0  0  0  0  0  0  0  0
  147.5495  132.8858  153.0959 N   0  3  2  0  0  0  0  0  0  0  0  0
  146.7156  133.3312  154.2437 C   0  0  0  0  0  0  0  0  0  0  0  0
  147.1027  132.5846  155.5313 C   0  0  0  0  0  0  0  0  0  0  0  0
  148.5355  132.7102  155.7884 N   0  0  0  0  0  0  0  0  0  0  0  0
  148.8897  133.7591  156.5759 C   0  0  0  0  0  0  0  0  0  0  0  0
  148.4901  133.8027  157.8747 N   0  0  0  0  0  0  0  0  0  0  0  0
  148.8500  134.8237  158.6576 C   0  0  0  0  0  0  0  0  0  0  0  0
  149.5905  135.8896  158.3494 N   0  0  0  0  0  0  0  0  0  0  0  0
  149.9863  135.8592  157.0448 C   0  0  0  0  0  0  0  0  0  0  0  0
  149.6864  134.8381  156.0997 C   0  0  0  0  0  0  0  0  0  0  0  0
  150.2596  135.1465  154.8724 N   0  0  0  0  0  0  0  0  0  0  0  0
  150.8685  136.2816  155.0815 C   0  0  0  0  0  0  0  0  0  0  0  0
  150.7429  136.7917  156.3543 N   0  0  0  0  0  0  0  0  0  0  0  0
  151.3137  138.0337  156.8565 C   0  0  0  0  0  0  0  0  0  0  0  0
  151.5565  139.1070  155.7727 C   0  0  0  0  0  0  0  0  0  0  0  0
  150.2545  139.4150  155.0144 C   0  0  0  0  0  0  0  0  0  0  0  0
  150.3739  140.5991  154.2528 O   0  0  0  0  0  0  0  0  0  0  0  0
  152.3481  140.3338  156.2460 C   0  0  0  0  0  0  0  0  0  0  0  0
  153.5361  139.9289  155.5342 O   0  0  0  0  0  0  0  0  0  0  0  0
  152.7869  138.8831  154.8806 C   0  0  0  0  0  0  0  0  0  0  0  0
  149.4139  132.3184  154.6808 C   0  0  1  0  0  0  0  0  0  0  0  0
  149.4463  130.7900  154.5073 C   0  0  0  0  0  0  0  0  0  0  0  0
  149.0023  133.0343  153.3739 C   0  0  0  0  0  0  0  0  0  0  0  0
  144.3534  133.6005  152.0858 H   0  0  0  0  0  0  0  0  0  0  0  0
  143.9502  132.8452  150.5500 H   0  0  0  0  0  0  0  0  0  0  0  0
  144.7862  134.3968  150.5756 H   0  0  0  0  0  0  0  0  0  0  0  0
  145.9169  131.7243  151.5547 H   0  0  0  0  0  0  0  0  0  0  0  0
  147.3730  132.2607  149.7249 H   0  0  0  0  0  0  0  0  0  0  0  0
  148.0218  133.5743  151.1462 H   0  0  0  0  0  0  0  0  0  0  0  0
  146.8234  134.5267  151.9812 H   0  0  0  0  0  0  0  0  0  0  0  0
  146.8415  134.4058  154.3863 H   0  0  0  0  0  0  0  0  0  0  0  0
  145.6591  133.1625  154.0405 H   0  0  0  0  0  0  0  0  0  0  0  0
  146.5087  132.9652  156.3622 H   0  0  0  0  0  0  0  0  0  0  0  0
  146.8513  131.5278  155.4415 H   0  0  0  0  0  0  0  0  0  0  0  0
  148.4938  134.7814  159.6765 H   0  0  0  0  0  0  0  0  0  0  0  0
  151.4307  136.7781  154.3041 H   0  0  0  0  0  0  0  0  0  0  0  0
  150.6629  138.4185  157.6424 H   0  0  0  0  0  0  0  0  0  0  0  0
  152.2513  137.7847  157.3557 H   0  0  0  0  0  0  0  0  0  0  0  0
  150.0082  138.6047  154.3276 H   0  0  0  0  0  0  0  0  0  0  0  0
  149.4039  139.5045  155.6898 H   0  0  0  0  0  0  0  0  0  0  0  0
  149.9452  140.4662  153.4212 H   0  0  0  0  0  0  0  0  0  0  0  0
  151.9584  141.2837  155.8769 H   0  0  0  0  0  0  0  0  0  0  0  0
  152.5023  140.3720  157.3249 H   0  0  0  0  0  0  0  0  0  0  0  0
  153.2607  137.9093  154.9948 H   0  0  0  0  0  0  0  0  0  0  0  0
  152.6172  139.1060  153.8261 H   0  0  0  0  0  0  0  0  0  0  0  0
  150.4369  132.6125  154.9201 H   0  0  0  0  0  0  0  0  0  0  0  0
  150.1627  130.5006  153.7381 H   0  0  0  0  0  0  0  0  0  0  0  0
  148.4750  130.3880  154.2183 H   0  0  0  0  0  0  0  0  0  0  0  0
  149.7464  130.2990  155.4336 H   0  0  0  0  0  0  0  0  0  0  0  0
  149.5849  132.6395  152.5404 H   0  0  0  0  0  0  0  0  0  0  0  0
  149.2381  134.0974  153.4387 H   0  0  0  0  0  0  0  0  0  0  0  0
  147.3908  131.8937  152.9910 H   0  0  0  0  0  0  0  0  0  0  0  0
  1  2  1  0  0  0  0
  1 28  1  0  0  0  0
  1 29  1  0  0  0  0
  1 30  1  0  0  0  0
  2  3  1  0  0  0  0
  2  4  1  0  0  0  0
  2 31  1  0  0  0  0
  3 32  1  0  0  0  0
  4  5  1  0  0  0  0
  4 33  1  0  0  0  0
  4 34  1  0  0  0  0
  5 27  1  0  0  0  0
  5  6  1  0  0  0  0
  5 56  1  0  0  0  0
  6  7  1  0  0  0  0
  6 35  1  0  0  0  0
  6 36  1  0  0  0  0
  7  8  1  0  0  0  0
  7 37  1  0  0  0  0
  7 38  1  0  0  0  0
  8  9  1  0  0  0  0
  8 25  1  0  0  0  0
  9 14  1  0  0  0  0
  9 10  2  0  0  0  0
 10 11  1  0  0  0  0
 11 12  2  0  0  0  0
 11 39  1  0  0  0  0
 12 13  1  0  0  0  0
 13 17  1  0  0  0  0
 13 14  2  0  0  0  0
 14 15  1  0  0  0  0
 15 16  2  0  0  0  0
 16 17  1  0  0  0  0
 16 40  1  0  0  0  0
 17 18  1  0  0  0  0
 18 19  1  0  0  0  0
 18 41  1  0  0  0  0
 18 42  1  0  0  0  0
 19 24  1  0  0  0  0
 19 20  1  0  0  0  0
 19 22  1  0  0  0  0
 20 21  1  0  0  0  0
 20 43  1  0  0  0  0
 20 44  1  0  0  0  0
 21 45  1  0  0  0  0
 22 23  1  0  0  0  0
 22 46  1  0  0  0  0
 22 47  1  0  0  0  0
 23 24  1  0  0  0  0
 24 48  1  0  0  0  0
 24 49  1  0  0  0  0
 25 26  1  0  0  0  0
 25 27  1  0  0  0  0
 25 50  1  0  0  0  0
 26 51  1  0  0  0  0
 26 52  1  0  0  0  0
 26 53  1  0  0  0  0
 27 54  1  0  0  0  0
 27 55  1  0  0  0  0
M  CHG  1   5   1
M  END
> <s_m_source_file>
AV-unprocessed.smi

> <i_m_source_file_index>
79

> <i_lp_mmshare_version>
43012

> <i_f3d_flags>
0

> <s_epik_input>
W0NIM11bQ0BIXShbT0hdKVtDSDJdTjFbQ0gyXVtDSDJdTihbQ0BASF0oW0NIM10pW0NIMl0xKWMobltjSF1uMiljKGMyMyluW2NIXW4zW0NIMl1DNChbQ0gyXVtPSF0pW0NIMl1PW0NIMl00

> <s_epik_cmdline>
J2VwaWtfcHl0aG9uJywgJy1waCcsICc3LjAnLCAnLXRuJywgJzgnLCAnLW1hJywgJzIwMCcsICctbWV0YWxfYmluZGluZycsICctaW1hZScsICc8aW5maWxlLm1hZT4nLCAnLW9tYWUnLCAnPG91dGZpbGUubWFlPic=

> <r_lp_tautomer_probability>
1

> <r_epik_Ionization_Penalty>
0.00515943

> <r_epik_Ionization_Penalty_Charging>
0.00509693

> <r_epik_Ionization_Penalty_Neutral>
6.25007e-05

> <r_epik_State_Penalty>
-0

> <r_epik_Charging_Adjusted_Penalty>
0.00509693

> <i_epik_Tot_Q>
1

> <i_epik_Tot_abs_Q>
1

> <r_epik_Metal_State_Penalty>
-0

> <b_epik_Metal_Only>
0

> <s_lp_Force_Field>
OPLS_2005

> <r_lp_Energy>
48.7837

> <b_lp_Chiralities_Consistent>
1

> <s_lp_Variant>
AV-unprocessed.smi:79-2

> <Gold.Version>
5.8.1

> <Gold.Id.Protein>
6NUR|6NUR_protein|mol2

> <Gold.PLP.Fitness>
50.5530

> <Gold.PLP.PLP>
-39.4425

> <Gold.PLP.part.hbond>
-4.7530

> <Gold.PLP.part.metal>
0.0000

> <Gold.PLP.part.buried>
-6.4343

> <Gold.PLP.part.nonpolar>
-29.0569

> <Gold.PLP.part.repulsive>
0.1695

> <Gold.PLP.ligand.clash>
0.0000

> <Gold.PLP.ligand.torsion>
2.1625

> <Gold.PLP.Chemscore.Hbond>
3.8320

> <Gold.PLP.Chemscore.CHOScore>
1.0000

> <Gold.PLP.Chemscore.Metal>
0.0000

> <Gold.Chemscore.Hbonds>
donor molecule, donor type, donor heavy atom, donor atom, acceptor molecule, acceptor atom, score
      L1  H     3    32       P1 10747  0.61
      L1  H    21    45       P1  7957  0.28
      P1  H  7989  7998       L1    21  0.27

> <Gold.PLP.Chemscore.Internal.Correction>
0.9395

> <Gold.Rescore>
     Score         DG    S(hbond)    S(metal)    S(lipo)     H(rot)  DE(clash)    DE(int)     intcor
     12.40     -17.20       3.49        0.00      81.89       3.72       0.48       4.32       ----

> <Gold.Chemscore.Fitness>
12.4046

> <Gold.Chemscore.DG>
-17.2007

> <Gold.Chemscore.ZeroCoef>
-5.4800

> <Gold.Chemscore.Hbond>
3.4939

> <Gold.Chemscore.Metal>
0.0000

> <Gold.Chemscore.Lipo>
81.8875

> <Gold.Chemscore.Internal_Hbond>
0.0000

> <Gold.Chemscore.DEClash>
0.4788

> <Gold.Chemscore.DEInternal>
4.3173

> <Gold.Chemscore.Rot>
3.7226

> <Gold.Chemscore.Internal.Correction>
   9.000000E+99

> <Gold.Chemscore.Hbonds>
donor molecule, donor type, donor heavy atom, donor atom, acceptor molecule, acceptor atom, score
      L1  H     3    32       P1 10747  0.58
      L1  H    21    45       P1  7957  0.29
      P1  H  7989  7998       L1    21  0.01

> <Gold.Chemscore.Hbond.Weighted>
-11.6696

> <Gold.Chemscore.Metal.Weighted>
-0.0000

> <Gold.Chemscore.Lipo.Weighted>
-9.5808

> <Gold.Chemscore.Internal_Hbond.Weighted>
0.0000

> <Gold.Chemscore.DEClash.Weighted>
0.4788

> <Gold.Chemscore.DEInternal.Weighted>
4.3173

> <Gold.Chemscore.Rot.Weighted>
9.5298

> <Gold.Chemscore.Internal.Correction.Weighted>
   9.000000E+99

> <Gold.Protein.RotatedTorsions>
[ 6907 6896 6895 6894 ] final  136.19 input  -60.11 | X-H torsion
[ 7974 7965 7964 7962 ] final   94.80 input  175.53 | X-H torsion
[ 8008 7997 7996 7995 ] final -146.30 input   59.86 | X-H torsion
[ 10167 10162 10161 10158 ] final  126.65 input  -65.29 | X-H torsion
[ 10718 10713 10712 10709 ] final  -99.25 input   66.30 | X-H torsion
[ 10763 10752 10751 10750 ] final  -32.35 input  -60.55 | X-H torsion
[ 11005 11000 10999 10996 ] final   53.48 input  -57.11 | X-H torsion

> <Gold.Protein.ActiveResidues>
 VAL166  LYS551  ARG553  GLY616  TRP617  ASP618  TYR619  PRO620  LYS621  CYS622 
 ASP623  PHE694  ASN695  SER759  ASP760  ASP761  ALA762  ILE779  LEU786  VAL792 
 PHE793  MET794  SER795  GLU796  ALA797  LYS798  CYS799  TRP800  GLU811  SER814 

> <Gold.Protein.RotatedAtoms>
  152.2922  133.5572  159.5564 H   0  0  0  0  0  0  0  0  0  0  0  0  # atno 6907 bound_to 6896
  150.7240  134.0413  159.3775 H   0  0  0  0  0  0  0  0  0  0  0  0  # atno 6908 bound_to 6896
  151.8318  135.0619  160.0488 H   0  0  0  0  0  0  0  0  0  0  0  0  # atno 6909 bound_to 6896
  145.4607  139.2287  143.2989 H   0  0  0  0  0  0  0  0  0  0  0  0  # atno 7974 bound_to 7965
  155.5571  140.0622  157.2837 H   0  0  0  0  0  0  0  0  0  0  0  0  # atno 8008 bound_to 7997
  154.4402  140.1892  156.0790 H   0  0  0  0  0  0  0  0  0  0  0  0  # atno 8009 bound_to 7997
  156.0474  140.3288  155.7316 H   0  0  0  0  0  0  0  0  0  0  0  0  # atno 8010 bound_to 7997
  139.5620  144.6888  151.4016 H   0  0  0  0  0  0  0  0  0  0  0  0  # atno 10167 bound_to 10162
  156.0129  130.5274  150.6642 H   0  0  0  0  0  0  0  0  0  0  0  0  # atno 10718 bound_to 10713
  153.8123  135.6881  153.4839 H   0  0  0  0  0  0  0  0  0  0  0  0  # atno 10763 bound_to 10752
  153.1621  135.4576  154.9784 H   0  0  0  0  0  0  0  0  0  0  0  0  # atno 10764 bound_to 10752
  154.7962  135.3320  154.7602 H   0  0  0  0  0  0  0  0  0  0  0  0  # atno 10765 bound_to 10752
  140.0763  134.5399  155.8992 H   0  0  0  0  0  0  0  0  0  0  0  0  # atno 11005 bound_to 11000
  146.2453  140.5376  142.8917 LP  0  0  0  0  0  0  0  0  0  0  0  0  # atno 17320 bound_to 7965
  144.8004  140.6203  143.6482 LP  0  0  0  0  0  0  0  0  0  0  0  0  # atno 17321 bound_to 7965
  140.6900  143.7883  150.7242 LP  0  0  0  0  0  0  0  0  0  0  0  0  # atno 17342 bound_to 10162
  140.1362  143.4481  152.2223 LP  0  0  0  0  0  0  0  0  0  0  0  0  # atno 17343 bound_to 10162
  157.4378  131.0857  151.0974 LP  0  0  0  0  0  0  0  0  0  0  0  0  # atno 17370 bound_to 10713
  157.1527  130.6191  149.5587 LP  0  0  0  0  0  0  0  0  0  0  0  0  # atno 17371 bound_to 10713
  141.2031  133.6629  156.6042 LP  0  0  0  0  0  0  0  0  0  0  0  0  # atno 17394 bound_to 11000
  140.3552  134.7734  157.4495 LP  0  0  0  0  0  0  0  0  0  0  0  0  # atno 17395 bound_to 11000

$$$$
