AV-unprocessed.smi:2965|AV-procd|sdf|11323|dock5
  -GOLD-   2272016233D 1   1.00000     0.00000
 Structure written by MMmdl.
 36 37  0  0  0  0  0  0  0  0  1 V2000
  148.3714  140.1611  156.3580 O   0  0  0  0  0  0  0  0  0  0  0  0
  148.6726  141.3375  156.1518 C   0  0  0  0  0  0  0  0  0  0  0  0
  150.1188  141.7297  155.8182 C   0  0  0  0  0  0  0  0  0  0  0  0
  151.0198  141.6552  156.9804 N   0  0  0  0  0  0  0  0  0  0  0  0
  151.2054  142.8362  157.7254 C   0  0  0  0  0  0  0  0  0  0  0  0
  152.0088  142.9037  158.8042 C   0  0  0  0  0  0  0  0  0  0  0  0
  152.1389  144.1790  159.6228 C   0  0  0  0  0  0  0  0  0  0  0  0
  152.8017  145.1192  158.9490 F   0  0  0  0  0  0  0  0  0  0  0  0
  150.9292  144.6535  159.9170 F   0  0  0  0  0  0  0  0  0  0  0  0
  152.7835  143.9506  160.7676 F   0  0  0  0  0  0  0  0  0  0  0  0
  152.6680  141.6730  159.1957 C   0  0  0  0  0  0  0  0  0  0  0  0
  152.4903  140.5314  158.5022 C   0  0  0  0  0  0  0  0  0  0  0  0
  151.6258  140.4783  157.3212 C   0  0  0  0  0  0  0  0  0  0  0  0
  151.4553  139.4412  156.6794 O   0  0  0  0  0  0  0  0  0  0  0  0
  147.7890  142.3452  156.2104 N   0  0  0  0  0  0  0  0  0  0  0  0
  146.3611  142.2050  156.4760 C   0  0  0  0  0  0  0  0  0  0  0  0
  145.5181  143.0559  155.5106 C   0  0  1  0  0  0  0  0  0  0  0  0
  145.3520  144.5223  155.9092 C   0  0  0  0  0  0  0  0  0  0  0  0
  145.0235  145.1594  154.5788 C   0  0  0  0  0  0  0  0  0  0  0  0
  145.9181  144.3754  153.6212 C   0  0  0  0  0  0  0  0  0  0  0  0
  146.1332  143.1020  154.2266 O   0  0  0  0  0  0  0  0  0  0  0  0
  150.4944  141.0924  155.0151 H   0  0  0  0  0  0  0  0  0  0  0  0
  150.1099  142.7376  155.4011 H   0  0  0  0  0  0  0  0  0  0  0  0
  150.6412  143.6859  157.3692 H   0  0  0  0  0  0  0  0  0  0  0  0
  153.3178  141.6658  160.0582 H   0  0  0  0  0  0  0  0  0  0  0  0
  152.9979  139.6333  158.8225 H   0  0  0  0  0  0  0  0  0  0  0  0
  148.1270  143.2806  156.0360 H   0  0  0  0  0  0  0  0  0  0  0  0
  146.0529  141.1589  156.4345 H   0  0  0  0  0  0  0  0  0  0  0  0
  146.1816  142.5344  157.4996 H   0  0  0  0  0  0  0  0  0  0  0  0
  144.5318  142.6062  155.3834 H   0  0  0  0  0  0  0  0  0  0  0  0
  144.5767  144.6760  156.6604 H   0  0  0  0  0  0  0  0  0  0  0  0
  146.2893  144.9259  156.2949 H   0  0  0  0  0  0  0  0  0  0  0  0
  143.9734  144.9911  154.3356 H   0  0  0  0  0  0  0  0  0  0  0  0
  145.2121  146.2329  154.5572 H   0  0  0  0  0  0  0  0  0  0  0  0
  145.4713  144.2733  152.6318 H   0  0  0  0  0  0  0  0  0  0  0  0
  146.8832  144.8700  153.5069 H   0  0  0  0  0  0  0  0  0  0  0  0
  1  2  2  0  0  0  0
  2  3  1  0  0  0  0
  2 15  1  0  0  0  0
  3  4  1  0  0  0  0
  3 22  1  0  0  0  0
  3 23  1  0  0  0  0
  4 13  1  0  0  0  0
  4  5  1  0  0  0  0
  5  6  2  0  0  0  0
  5 24  1  0  0  0  0
  6  7  1  0  0  0  0
  6 11  1  0  0  0  0
  7  8  1  0  0  0  0
  7  9  1  0  0  0  0
  7 10  1  0  0  0  0
 11 12  2  0  0  0  0
 11 25  1  0  0  0  0
 12 13  1  0  0  0  0
 12 26  1  0  0  0  0
 13 14  2  0  0  0  0
 15 16  1  0  0  0  0
 15 27  1  0  0  0  0
 16 17  1  0  0  0  0
 16 28  1  0  0  0  0
 16 29  1  0  0  0  0
 17 21  1  0  0  0  0
 17 18  1  0  0  0  0
 17 30  1  0  0  0  0
 18 19  1  0  0  0  0
 18 31  1  0  0  0  0
 18 32  1  0  0  0  0
 19 20  1  0  0  0  0
 19 33  1  0  0  0  0
 19 34  1  0  0  0  0
 20 21  1  0  0  0  0
 20 35  1  0  0  0  0
 20 36  1  0  0  0  0
M  END
> <s_m_source_file>
AV-unprocessed.smi

> <i_m_source_file_index>
2965

> <i_lp_mmshare_version>
43012

> <i_f3d_flags>
0

> <s_epik_input>
TzFbQ0gyXVtDSDJdW0NIMl1bQ0BIXTFbQ0gyXVtOSF1DKD1PKVtDSDJdbjJbY0hdYyhDKEYpKEYpRilbY0hdW2NIXWMyPU8=

> <s_epik_cmdline>
J2VwaWtfcHl0aG9uJywgJy1waCcsICc3LjAnLCAnLXRuJywgJzgnLCAnLW1hJywgJzIwMCcsICctbWV0YWxfYmluZGluZycsICctaW1hZScsICc8aW5maWxlLm1hZT4nLCAnLW9tYWUnLCAnPG91dGZpbGUubWFlPic=

> <r_lp_tautomer_probability>
1

> <r_epik_Ionization_Penalty>
4.53327e-08

> <r_epik_Ionization_Penalty_Charging>
1.84737e-08

> <r_epik_Ionization_Penalty_Neutral>
2.6859e-08

> <r_epik_State_Penalty>
-0

> <r_epik_Charging_Adjusted_Penalty>
1.84737e-08

> <i_epik_Tot_Q>
0

> <i_epik_Tot_abs_Q>
0

> <r_epik_Metal_State_Penalty>
-0

> <b_epik_Metal_Only>
0

> <s_lp_Force_Field>
OPLS_2005

> <r_lp_Energy>
29.2256

> <b_lp_Chiralities_Consistent>
1

> <s_lp_Variant>
AV-unprocessed.smi:2965-2

> <Gold.Version>
5.8.1

> <Gold.Id.Protein>
6NUR|6NUR_protein|mol2

> <Gold.PLP.Fitness>
47.1207

> <Gold.PLP.PLP>
-43.2652

> <Gold.PLP.part.hbond>
-1.0000

> <Gold.PLP.part.metal>
0.0000

> <Gold.PLP.part.buried>
-7.5564

> <Gold.PLP.part.nonpolar>
-35.3938

> <Gold.PLP.part.repulsive>
0.2170

> <Gold.PLP.ligand.clash>
0.0000

> <Gold.PLP.ligand.torsion>
1.1102

> <Gold.PLP.Chemscore.Hbond>
1.0000

> <Gold.PLP.Chemscore.CHOScore>
1.0000

> <Gold.PLP.Chemscore.Metal>
0.0000

> <Gold.Chemscore.Hbonds>
donor molecule, donor type, donor heavy atom, donor atom, acceptor molecule, acceptor atom, score
      L1  H    15    27       P1  8028  1.00
      L1  C     5    24       P1  8028  0.72

> <Gold.PLP.Chemscore.Internal.Correction>
0.0758

> <Gold.Rescore>
     Score         DG    S(hbond)    S(metal)    S(lipo)     H(rot)  DE(clash)    DE(int)     intcor
     10.42     -12.30       0.65        0.00      80.54       1.87       0.41       1.47       ----

> <Gold.Chemscore.Fitness>
10.4209

> <Gold.Chemscore.DG>
-12.2956

> <Gold.Chemscore.ZeroCoef>
-5.4800

> <Gold.Chemscore.Hbond>
0.6512

> <Gold.Chemscore.Metal>
0.0000

> <Gold.Chemscore.Lipo>
80.5353

> <Gold.Chemscore.Internal_Hbond>
0.0000

> <Gold.Chemscore.DEClash>
0.4077

> <Gold.Chemscore.DEInternal>
1.4670

> <Gold.Chemscore.Rot>
1.8681

> <Gold.Chemscore.Internal.Correction>
   9.000000E+99

> <Gold.Chemscore.Hbonds>
donor molecule, donor type, donor heavy atom, donor atom, acceptor molecule, acceptor atom, score
      L1  H    15    27       P1  8028  0.50

> <Gold.Chemscore.Hbond.Weighted>
-2.1752

> <Gold.Chemscore.Metal.Weighted>
-0.0000

> <Gold.Chemscore.Lipo.Weighted>
-9.4226

> <Gold.Chemscore.Internal_Hbond.Weighted>
0.0000

> <Gold.Chemscore.DEClash.Weighted>
0.4077

> <Gold.Chemscore.DEInternal.Weighted>
1.4670

> <Gold.Chemscore.Rot.Weighted>
4.7822

> <Gold.Chemscore.Internal.Correction.Weighted>
   9.000000E+99

> <Gold.Protein.RotatedTorsions>
[ 6907 6896 6895 6894 ] final   31.58 input  -60.11 | X-H torsion
[ 7974 7965 7964 7962 ] final   37.86 input  175.53 | X-H torsion
[ 8008 7997 7996 7995 ] final  131.11 input   59.86 | X-H torsion
[ 10167 10162 10161 10158 ] final  177.46 input  -65.29 | X-H torsion
[ 10718 10713 10712 10709 ] final  111.57 input   66.30 | X-H torsion
[ 10763 10752 10751 10750 ] final  175.41 input  -60.55 | X-H torsion
[ 11005 11000 10999 10996 ] final  -52.62 input  -57.11 | X-H torsion

> <Gold.Protein.ActiveResidues>
 VAL166  LYS551  ARG553  GLY616  TRP617  ASP618  TYR619  PRO620  LYS621  CYS622 
 ASP623  PHE694  ASN695  SER759  ASP760  ASP761  ALA762  ILE779  LEU786  VAL792 
 PHE793  MET794  SER795  GLU796  ALA797  LYS798  CYS799  TRP800  GLU811  SER814 

> <Gold.Protein.RotatedAtoms>
  152.0624  134.9586  160.0574 H   0  0  0  0  0  0  0  0  0  0  0  0  # atno 6907 bound_to 6896
  152.0944  133.4212  159.4567 H   0  0  0  0  0  0  0  0  0  0  0  0  # atno 6908 bound_to 6896
  150.6837  134.2753  159.4648 H   0  0  0  0  0  0  0  0  0  0  0  0  # atno 6909 bound_to 6896
  146.1106  139.5842  142.9355 H   0  0  0  0  0  0  0  0  0  0  0  0  # atno 7974 bound_to 7965
  156.2965  140.2579  156.2872 H   0  0  0  0  0  0  0  0  0  0  0  0  # atno 8008 bound_to 7997
  154.9544  140.0393  157.2178 H   0  0  0  0  0  0  0  0  0  0  0  0  # atno 8009 bound_to 7997
  154.8005  140.2827  155.5929 H   0  0  0  0  0  0  0  0  0  0  0  0  # atno 8010 bound_to 7997
  139.5254  144.2795  152.0558 H   0  0  0  0  0  0  0  0  0  0  0  0  # atno 10167 bound_to 10162
  157.6438  131.0953  150.6767 H   0  0  0  0  0  0  0  0  0  0  0  0  # atno 10718 bound_to 10713
  154.4672  135.2770  155.1669 H   0  0  0  0  0  0  0  0  0  0  0  0  # atno 10763 bound_to 10752
  154.3433  135.6165  153.5610 H   0  0  0  0  0  0  0  0  0  0  0  0  # atno 10764 bound_to 10752
  152.9860  135.5793  154.5046 H   0  0  0  0  0  0  0  0  0  0  0  0  # atno 10765 bound_to 10752
  141.0933  133.6629  156.4050 H   0  0  0  0  0  0  0  0  0  0  0  0  # atno 11005 bound_to 11000
  145.5672  141.0398  143.2194 LP  0  0  0  0  0  0  0  0  0  0  0  0  # atno 17320 bound_to 7965
  144.7508  139.7199  143.7274 LP  0  0  0  0  0  0  0  0  0  0  0  0  # atno 17321 bound_to 7965
  140.2251  144.4426  150.6324 LP  0  0  0  0  0  0  0  0  0  0  0  0  # atno 17342 bound_to 10162
  140.6392  143.2200  151.6327 LP  0  0  0  0  0  0  0  0  0  0  0  0  # atno 17343 bound_to 10162
  156.7087  130.4645  149.5553 LP  0  0  0  0  0  0  0  0  0  0  0  0  # atno 17370 bound_to 10713
  156.1744  130.6458  151.0877 LP  0  0  0  0  0  0  0  0  0  0  0  0  # atno 17371 bound_to 10713
  140.5199  134.6314  157.5314 LP  0  0  0  0  0  0  0  0  0  0  0  0  # atno 17394 bound_to 11000
  139.9764  134.7208  155.9941 LP  0  0  0  0  0  0  0  0  0  0  0  0  # atno 17395 bound_to 11000

$$$$
