AV-unprocessed.smi:2438|AV-procd|sdf|9599|dock6
  -GOLD-   2272013233D 1   1.00000     0.00000
 Structure written by MMmdl.
 44 45  0  0  0  0  0  0  0  0  2 V2000
  151.0940  140.9273  157.8522 C   0  0  0  0  0  0  0  0  0  0  0  0
  151.1046  139.4731  157.7508 N   0  0  0  0  0  0  0  0  0  0  0  0
  152.3563  138.8142  158.0996 C   0  0  0  0  0  0  0  0  0  0  0  0
  150.4545  138.9112  156.6334 C   0  0  0  0  0  0  0  0  0  0  0  0
  150.8418  139.3150  155.4016 N   0  0  0  0  0  0  0  0  0  0  0  0
  150.2621  138.7905  154.3169 C   0  0  0  0  0  0  0  0  0  0  0  0
  149.2911  137.8704  154.3836 N   0  3  0  0  0  0  0  0  0  0  0  0
  148.8637  137.4349  155.5923 C   0  0  0  0  0  0  0  0  0  0  0  0
  149.4396  137.9356  156.7837 C   0  0  0  0  0  0  0  0  0  0  0  0
  149.0066  137.5473  158.0828 N   0  0  0  0  0  0  0  0  0  0  0  0
  147.7496  137.3424  158.5082 C   0  0  0  0  0  0  0  0  0  0  0  0
  146.7353  137.5246  157.8355 O   0  0  0  0  0  0  0  0  0  0  0  0
  147.7341  136.8843  159.7675 N   0  0  0  0  0  0  0  0  0  0  0  0
  146.5380  136.4999  160.5158 C   0  0  2  0  0  0  0  0  0  0  0  0
  146.6607  136.9502  161.9841 C   0  0  0  0  0  0  0  0  0  0  0  0
  147.7076  136.1293  162.7568 C   0  0  0  0  0  0  0  0  0  0  0  0
  147.4258  134.6217  162.6562 C   0  0  0  0  0  0  0  0  0  0  0  0
  147.3445  134.1533  161.1880 C   0  0  1  0  0  0  0  0  0  0  0  0
  147.0861  132.6373  161.0744 C   0  0  0  0  0  0  0  0  0  0  0  0
  148.0107  131.9462  161.7417 F   0  0  0  0  0  0  0  0  0  0  0  0
  145.8845  132.3416  161.5700 F   0  0  0  0  0  0  0  0  0  0  0  0
  147.1098  132.2658  159.7944 F   0  0  0  0  0  0  0  0  0  0  0  0
  146.2812  134.9790  160.4292 C   0  0  0  0  0  0  0  0  0  0  0  0
  150.0975  141.3245  157.6559 H   0  0  0  0  0  0  0  0  0  0  0  0
  151.7929  141.3734  157.1437 H   0  0  0  0  0  0  0  0  0  0  0  0
  151.3852  141.2367  158.8563 H   0  0  0  0  0  0  0  0  0  0  0  0
  152.2975  137.7310  157.9921 H   0  0  0  0  0  0  0  0  0  0  0  0
  152.6200  139.0331  159.1347 H   0  0  0  0  0  0  0  0  0  0  0  0
  153.1637  139.1728  157.4601 H   0  0  0  0  0  0  0  0  0  0  0  0
  150.5652  139.1077  153.3299 H   0  0  0  0  0  0  0  0  0  0  0  0
  148.0622  136.7132  155.5505 H   0  0  0  0  0  0  0  0  0  0  0  0
  149.7421  137.2890  158.7250 H   0  0  0  0  0  0  0  0  0  0  0  0
  148.6180  136.7691  160.2416 H   0  0  0  0  0  0  0  0  0  0  0  0
  145.6863  137.0226  160.0767 H   0  0  0  0  0  0  0  0  0  0  0  0
  146.9042  138.0121  162.0359 H   0  0  0  0  0  0  0  0  0  0  0  0
  145.6921  136.8384  162.4731 H   0  0  0  0  0  0  0  0  0  0  0  0
  148.7044  136.3415  162.3686 H   0  0  0  0  0  0  0  0  0  0  0  0
  147.7162  136.4345  163.8036 H   0  0  0  0  0  0  0  0  0  0  0  0
  148.2073  134.0733  163.1827 H   0  0  0  0  0  0  0  0  0  0  0  0
  146.4908  134.3927  163.1691 H   0  0  0  0  0  0  0  0  0  0  0  0
  148.3134  134.3465  160.7249 H   0  0  0  0  0  0  0  0  0  0  0  0
  145.2963  134.7646  160.8459 H   0  0  0  0  0  0  0  0  0  0  0  0
  146.2351  134.6658  159.3858 H   0  0  0  0  0  0  0  0  0  0  0  0
  148.8650  137.4985  153.5344 H   0  0  0  0  0  0  0  0  0  0  0  0
  1  2  1  0  0  0  0
  1 24  1  0  0  0  0
  1 25  1  0  0  0  0
  1 26  1  0  0  0  0
  2  3  1  0  0  0  0
  2  4  1  0  0  0  0
  3 27  1  0  0  0  0
  3 28  1  0  0  0  0
  3 29  1  0  0  0  0
  4  9  1  0  0  0  0
  4  5  2  0  0  0  0
  5  6  1  0  0  0  0
  6  7  2  0  0  0  0
  6 30  1  0  0  0  0
  7  8  1  0  0  0  0
  7 44  1  0  0  0  0
  8  9  2  0  0  0  0
  8 31  1  0  0  0  0
  9 10  1  0  0  0  0
 10 11  1  0  0  0  0
 10 32  1  0  0  0  0
 11 12  2  0  0  0  0
 11 13  1  0  0  0  0
 13 14  1  0  0  0  0
 13 33  1  0  0  0  0
 14 23  1  0  0  0  0
 14 15  1  0  0  0  0
 14 34  1  0  0  0  0
 15 16  1  0  0  0  0
 15 35  1  0  0  0  0
 15 36  1  0  0  0  0
 16 17  1  0  0  0  0
 16 37  1  0  0  0  0
 16 38  1  0  0  0  0
 17 18  1  0  0  0  0
 17 39  1  0  0  0  0
 17 40  1  0  0  0  0
 18 19  1  0  0  0  0
 18 23  1  0  0  0  0
 18 41  1  0  0  0  0
 19 20  1  0  0  0  0
 19 21  1  0  0  0  0
 19 22  1  0  0  0  0
 23 42  1  0  0  0  0
 23 43  1  0  0  0  0
M  CHG  1   7   1
M  END
> <s_m_source_file>
AV-unprocessed.smi

> <i_m_source_file_index>
2438

> <i_lp_mmshare_version>
43012

> <i_f3d_flags>
0

> <s_epik_input>
W0NIM11OKFtDSDNdKWMxbltjSF1uW2NIXWMxW05IXUMoPU8pW05IXVtDQEBIXTJbQ0gyXVtDSDJdW0NIMl1bQ0BASF0oQyhGKShGKUYpW0NIMl0y

> <s_epik_cmdline>
J2VwaWtfcHl0aG9uJywgJy1waCcsICc3LjAnLCAnLXRuJywgJzgnLCAnLW1hJywgJzIwMCcsICctbWV0YWxfYmluZGluZycsICctaW1hZScsICc8aW5maWxlLm1hZT4nLCAnLW9tYWUnLCAnPG91dGZpbGUubWFlPic=

> <r_lp_tautomer_probability>
0.999336

> <r_epik_Ionization_Penalty>
2.11643

> <r_epik_Ionization_Penalty_Charging>
2.11639

> <r_epik_Ionization_Penalty_Neutral>
4.47523e-05

> <r_epik_State_Penalty>
2.25369

> <r_epik_Charging_Adjusted_Penalty>
4.37008

> <i_epik_Tot_Q>
1

> <i_epik_Tot_abs_Q>
1

> <r_epik_Metal_State_Penalty>
2.27019

> <b_epik_Metal_Only>
0

> <s_lp_Force_Field>
OPLS_2005

> <r_lp_Energy>
15.0376

> <b_lp_Chiralities_Consistent>
1

> <s_lp_Variant>
AV-unprocessed.smi:2438-5

> <Gold.Version>
5.8.1

> <Gold.Id.Protein>
6NUR|6NUR_protein|mol2

> <Gold.PLP.Fitness>
38.1286

> <Gold.PLP.PLP>
-30.7939

> <Gold.PLP.part.hbond>
-1.0000

> <Gold.PLP.part.metal>
0.0000

> <Gold.PLP.part.buried>
-5.3601

> <Gold.PLP.part.nonpolar>
-25.0223

> <Gold.PLP.part.repulsive>
0.3149

> <Gold.PLP.ligand.clash>
0.0000

> <Gold.PLP.ligand.torsion>
1.0309

> <Gold.PLP.Chemscore.Hbond>
2.0000

> <Gold.PLP.Chemscore.CHOScore>
1.0000

> <Gold.PLP.Chemscore.Metal>
0.0000

> <Gold.Chemscore.Hbonds>
donor molecule, donor type, donor heavy atom, donor atom, acceptor molecule, acceptor atom, score
      L1  H     7    44       P1  7948  1.68
      L1  C     6    30       P1  7957  1.00

> <Gold.PLP.Chemscore.Internal.Correction>
0.3965

> <Gold.Rescore>
     Score         DG    S(hbond)    S(metal)    S(lipo)     H(rot)  DE(clash)    DE(int)     intcor
     11.34     -12.82       0.98        0.00      63.28       1.31       0.07       1.42       ----

> <Gold.Chemscore.Fitness>
11.3362

> <Gold.Chemscore.DG>
-12.8228

> <Gold.Chemscore.ZeroCoef>
-5.4800

> <Gold.Chemscore.Hbond>
0.9843

> <Gold.Chemscore.Metal>
0.0000

> <Gold.Chemscore.Lipo>
63.2762

> <Gold.Chemscore.Internal_Hbond>
0.0000

> <Gold.Chemscore.DEClash>
0.0695

> <Gold.Chemscore.DEInternal>
1.4171

> <Gold.Chemscore.Rot>
1.3078

> <Gold.Chemscore.Internal.Correction>
   9.000000E+99

> <Gold.Chemscore.Hbonds>
donor molecule, donor type, donor heavy atom, donor atom, acceptor molecule, acceptor atom, score
      L1  H     7    44       P1  7948  0.78

> <Gold.Chemscore.Hbond.Weighted>
-3.2875

> <Gold.Chemscore.Metal.Weighted>
-0.0000

> <Gold.Chemscore.Lipo.Weighted>
-7.4033

> <Gold.Chemscore.Internal_Hbond.Weighted>
0.0000

> <Gold.Chemscore.DEClash.Weighted>
0.0695

> <Gold.Chemscore.DEInternal.Weighted>
1.4171

> <Gold.Chemscore.Rot.Weighted>
3.3481

> <Gold.Chemscore.Internal.Correction.Weighted>
   9.000000E+99

> <Gold.Protein.RotatedTorsions>
[ 6907 6896 6895 6894 ] final  142.99 input  -60.11 | X-H torsion
[ 7974 7965 7964 7962 ] final   81.96 input  175.53 | X-H torsion
[ 8008 7997 7996 7995 ] final -123.13 input   59.86 | X-H torsion
[ 10167 10162 10161 10158 ] final -169.64 input  -65.29 | X-H torsion
[ 10718 10713 10712 10709 ] final  174.40 input   66.30 | X-H torsion
[ 10763 10752 10751 10750 ] final   89.72 input  -60.55 | X-H torsion
[ 11005 11000 10999 10996 ] final  131.80 input  -57.11 | X-H torsion

> <Gold.Protein.ActiveResidues>
 VAL166  LYS551  ARG553  GLY616  TRP617  ASP618  TYR619  PRO620  LYS621  CYS622 
 ASP623  PHE694  ASN695  SER759  ASP760  ASP761  ALA762  ILE779  LEU786  VAL792 
 PHE793  MET794  SER795  GLU796  ALA797  LYS798  CYS799  TRP800  GLU811  SER814 

> <Gold.Protein.RotatedAtoms>
  152.2119  133.4917  159.5114 H   0  0  0  0  0  0  0  0  0  0  0  0  # atno 6907 bound_to 6896
  150.6992  134.1456  159.4130 H   0  0  0  0  0  0  0  0  0  0  0  0  # atno 6908 bound_to 6896
  151.9376  135.0228  160.0584 H   0  0  0  0  0  0  0  0  0  0  0  0  # atno 6909 bound_to 6896
  145.6313  139.2405  143.2083 H   0  0  0  0  0  0  0  0  0  0  0  0  # atno 7974 bound_to 7965
  155.1756  140.0409  157.2872 H   0  0  0  0  0  0  0  0  0  0  0  0  # atno 8008 bound_to 7997
  154.6239  140.2507  155.7488 H   0  0  0  0  0  0  0  0  0  0  0  0  # atno 8009 bound_to 7997
  156.2449  140.2889  156.0560 H   0  0  0  0  0  0  0  0  0  0  0  0  # atno 8010 bound_to 7997
  139.5910  144.1214  152.1634 H   0  0  0  0  0  0  0  0  0  0  0  0  # atno 10167 bound_to 10162
  156.9502  131.0029  151.2950 H   0  0  0  0  0  0  0  0  0  0  0  0  # atno 10718 bound_to 10713
  153.1900  135.4460  155.0137 H   0  0  0  0  0  0  0  0  0  0  0  0  # atno 10763 bound_to 10752
  154.8084  135.3284  154.7372 H   0  0  0  0  0  0  0  0  0  0  0  0  # atno 10764 bound_to 10752
  153.7827  135.6976  153.4940 H   0  0  0  0  0  0  0  0  0  0  0  0  # atno 10765 bound_to 10752
  139.9752  134.9565  156.9490 H   0  0  0  0  0  0  0  0  0  0  0  0  # atno 11005 bound_to 11000
  146.1354  140.7130  142.9392 LP  0  0  0  0  0  0  0  0  0  0  0  0  # atno 17320 bound_to 7965
  144.7192  140.4316  143.7021 LP  0  0  0  0  0  0  0  0  0  0  0  0  # atno 17321 bound_to 7965
  140.0788  144.5718  150.7137 LP  0  0  0  0  0  0  0  0  0  0  0  0  # atno 17342 bound_to 10162
  140.7173  143.2556  151.4394 LP  0  0  0  0  0  0  0  0  0  0  0  0  # atno 17343 bound_to 10162
  157.5727  130.8321  149.8413 LP  0  0  0  0  0  0  0  0  0  0  0  0  # atno 17370 bound_to 10713
  156.0366  130.3750  150.1544 LP  0  0  0  0  0  0  0  0  0  0  0  0  # atno 17371 bound_to 10713
  140.5210  134.0907  155.7292 LP  0  0  0  0  0  0  0  0  0  0  0  0  # atno 17394 bound_to 11000
  141.1429  133.9106  157.2283 LP  0  0  0  0  0  0  0  0  0  0  0  0  # atno 17395 bound_to 11000

$$$$
