AV-unprocessed.smi:38|AV-procd|sdf|347|dock6
  -GOLD-   2262016183D 1   1.00000     0.00000
 Structure written by MMmdl.
 27 28  0  0  0  0  0  0  0  0  2 V2000
  151.7659  142.6950  160.6141 O   0  0  0  0  0  0  0  0  0  0  0  0
  151.7580  142.0897  159.5430 C   0  0  0  0  0  0  0  0  0  0  0  0
  152.4817  140.9525  159.3322 N   0  5  0  0  0  0  0  0  0  0  0  0
  152.4700  140.2808  158.1435 C   0  0  0  0  0  0  0  0  0  0  0  0
  153.1198  139.2538  157.9452 O   0  0  0  0  0  0  0  0  0  0  0  0
  151.6712  140.7791  157.0776 N   0  0  0  0  0  0  0  0  0  0  0  0
  151.6631  140.0276  155.7604 C   0  0  1  0  0  0  0  0  0  0  0  0
  151.3039  138.5464  155.9811 C   0  0  0  0  0  0  0  0  0  0  0  0
  150.1739  138.3076  154.9957 C   0  0  2  0  0  0  0  0  0  0  0  0
  150.6748  137.8057  153.7706 O   0  0  0  0  0  0  0  0  0  0  0  0
  149.5650  139.7061  154.8435 C   0  0  2  0  0  0  0  0  0  0  0  0
  148.7386  139.9725  153.5731 C   0  0  0  0  0  0  0  0  0  0  0  0
  148.5273  141.3583  153.4033 O   0  0  0  0  0  0  0  0  0  0  0  0
  150.6946  140.5691  154.9077 O   0  0  0  0  0  0  0  0  0  0  0  0
  150.9305  141.9358  157.2627 C   0  0  0  0  0  0  0  0  0  0  0  0
  150.9456  142.5960  158.4388 C   0  0  0  0  0  0  0  0  0  0  0  0
  150.2157  143.7151  158.5872 F   0  0  0  0  0  0  0  0  0  0  0  0
  152.6506  140.1860  155.3236 H   0  0  0  0  0  0  0  0  0  0  0  0
  149.4463  137.5940  155.3837 H   0  0  0  0  0  0  0  0  0  0  0  0
  148.9469  139.9107  155.7194 H   0  0  0  0  0  0  0  0  0  0  0  0
  152.1717  137.9040  155.8262 H   0  0  0  0  0  0  0  0  0  0  0  0
  150.9448  138.4019  157.0013 H   0  0  0  0  0  0  0  0  0  0  0  0
  149.9865  137.3184  153.3445 H   0  0  0  0  0  0  0  0  0  0  0  0
  149.2725  139.5972  152.6997 H   0  0  0  0  0  0  0  0  0  0  0  0
  147.7795  139.4552  153.6030 H   0  0  0  0  0  0  0  0  0  0  0  0
  148.0804  141.6895  154.1672 H   0  0  0  0  0  0  0  0  0  0  0  0
  150.3250  142.3337  156.4631 H   0  0  0  0  0  0  0  0  0  0  0  0
  1  2  2  0  0  0  0
  2 16  1  0  0  0  0
  2  3  1  0  0  0  0
  3  4  1  0  0  0  0
  4  5  2  0  0  0  0
  4  6  1  0  0  0  0
  6  7  1  0  0  0  0
  6 15  1  0  0  0  0
  7 18  1  0  0  0  0
  7 14  1  0  0  0  0
  7  8  1  0  0  0  0
  8  9  1  0  0  0  0
  8 21  1  0  0  0  0
  8 22  1  0  0  0  0
  9 19  1  0  0  0  0
  9 10  1  0  0  0  0
  9 11  1  0  0  0  0
 10 23  1  0  0  0  0
 11 20  1  0  0  0  0
 11 12  1  0  0  0  0
 11 14  1  0  0  0  0
 12 13  1  0  0  0  0
 12 24  1  0  0  0  0
 12 25  1  0  0  0  0
 13 26  1  0  0  0  0
 15 16  2  0  0  0  0
 15 27  1  0  0  0  0
 16 17  1  0  0  0  0
M  CHG  1   3  -1
M  END
> <s_m_source_file>
AV-unprocessed.smi

> <i_m_source_file_index>
38

> <i_lp_mmshare_version>
43012

> <i_f3d_flags>
0

> <s_epik_input>
Tz1jMVtuSF1jKD1PKW4oW2NIXWMxRilbQ0BIXTJbQ0gyXVtDQEhdKFtPSF0pW0NASF0oTzIpW0NIMl1bT0hd

> <s_epik_cmdline>
J2VwaWtfcHl0aG9uJywgJy1waCcsICc3LjAnLCAnLXRuJywgJzgnLCAnLW1hJywgJzIwMCcsICctbWV0YWxfYmluZGluZycsICctaW1hZScsICc8aW5maWxlLm1hZT4nLCAnLW9tYWUnLCAnPG91dGZpbGUubWFlPic=

> <r_epik_Ionization_Penalty>
1.68146

> <r_epik_Ionization_Penalty_Charging>
3.4211e-08

> <r_epik_Ionization_Penalty_Neutral>
1.68146

> <r_epik_State_Penalty>
1.78593

> <r_epik_Charging_Adjusted_Penalty>
1.78593

> <i_epik_Tot_Q>
-1

> <i_epik_Tot_abs_Q>
1

> <r_epik_Metal_State_Penalty>
0.0113696

> <b_epik_Metal_Only>
0

> <s_epik_Chemistry_Notes>
This compound contains an acetal/aminal-like group ( X-CH(R)-Y where X, Y are N, S, or O) that may be acid/base labile, releasing an aldehyde.

> <s_lp_Force_Field>
OPLS_2005

> <r_lp_Energy>
41.2479

> <b_lp_Chiralities_Consistent>
1

> <s_lp_Variant>
AV-unprocessed.smi:38-13

> <Gold.Version>
5.8.1

> <Gold.Id.Protein>
6NUR|6NUR_protein|mol2

> <Gold.PLP.Fitness>
38.5259

> <Gold.PLP.PLP>
-27.3185

> <Gold.PLP.part.hbond>
-6.5734

> <Gold.PLP.part.metal>
0.0000

> <Gold.PLP.part.buried>
0.5165

> <Gold.PLP.part.nonpolar>
-20.6410

> <Gold.PLP.part.repulsive>
0.1275

> <Gold.PLP.ligand.clash>
0.0000

> <Gold.PLP.ligand.torsion>
0.1891

> <Gold.PLP.Chemscore.Hbond>
3.7340

> <Gold.PLP.Chemscore.CHOScore>
0.1268

> <Gold.PLP.Chemscore.Metal>
0.0000

> <Gold.Chemscore.Hbonds>
donor molecule, donor type, donor heavy atom, donor atom, acceptor molecule, acceptor atom, score
      L1  H    10    23       P1  7948  0.91
      P1  H  7989  7998       L1    14  0.99
      P1  H  7997  8009       L1     5  1.00
      P1  H  8011  8017       L1    13  0.82
      L1  C    15    27       P1  8028  0.08

> <Gold.PLP.Chemscore.Internal.Correction>
0.0034

> <Gold.Rescore>
     Score         DG    S(hbond)    S(metal)    S(lipo)     H(rot)  DE(clash)    DE(int)     intcor
      7.22      -9.78       2.14        0.00      38.78       2.88       0.91       1.64       ----

> <Gold.Chemscore.Fitness>
7.2230

> <Gold.Chemscore.DG>
-9.7812

> <Gold.Chemscore.ZeroCoef>
-5.4800

> <Gold.Chemscore.Hbond>
2.1377

> <Gold.Chemscore.Metal>
0.0000

> <Gold.Chemscore.Lipo>
38.7832

> <Gold.Chemscore.Internal_Hbond>
0.0000

> <Gold.Chemscore.DEClash>
0.9141

> <Gold.Chemscore.DEInternal>
1.6441

> <Gold.Chemscore.Rot>
2.8815

> <Gold.Chemscore.Internal.Correction>
   9.000000E+99

> <Gold.Chemscore.Hbonds>
donor molecule, donor type, donor heavy atom, donor atom, acceptor molecule, acceptor atom, score
      L1  H    10    23       P1  7948  0.30
      P1  H  7989  7998       L1    14  0.28
      P1  H  7997  8009       L1     5  0.25
      P1  H  8011  8017       L1    13  0.78

> <Gold.Chemscore.Hbond.Weighted>
-7.1401

> <Gold.Chemscore.Metal.Weighted>
-0.0000

> <Gold.Chemscore.Lipo.Weighted>
-4.5376

> <Gold.Chemscore.Internal_Hbond.Weighted>
0.0000

> <Gold.Chemscore.DEClash.Weighted>
0.9141

> <Gold.Chemscore.DEInternal.Weighted>
1.6441

> <Gold.Chemscore.Rot.Weighted>
7.3765

> <Gold.Chemscore.Internal.Correction.Weighted>
   9.000000E+99

> <Gold.Protein.RotatedTorsions>
[ 6907 6896 6895 6894 ] final  129.90 input  -60.11 | X-H torsion
[ 7974 7965 7964 7962 ] final -156.36 input  175.53 | X-H torsion
[ 8008 7997 7996 7995 ] final  144.95 input   59.86 | X-H torsion
[ 10167 10162 10161 10158 ] final   39.92 input  -65.29 | X-H torsion
[ 10718 10713 10712 10709 ] final  -70.68 input   66.30 | X-H torsion
[ 10763 10752 10751 10750 ] final  -95.51 input  -60.55 | X-H torsion
[ 11005 11000 10999 10996 ] final  -25.07 input  -57.11 | X-H torsion

> <Gold.Protein.ActiveResidues>
 VAL166  LYS551  ARG553  GLY616  TRP617  ASP618  TYR619  PRO620  LYS621  CYS622 
 ASP623  PHE694  ASN695  SER759  ASP760  ASP761  ALA762  ILE779  LEU786  VAL792 
 PHE793  MET794  SER795  GLU796  ALA797  LYS798  CYS799  TRP800  GLU811  SER814 

> <Gold.Protein.RotatedAtoms>
  152.3579  133.6260  159.5992 H   0  0  0  0  0  0  0  0  0  0  0  0  # atno 6907 bound_to 6896
  150.7581  133.9470  159.3483 H   0  0  0  0  0  0  0  0  0  0  0  0  # atno 6908 bound_to 6896
  151.7313  135.0875  160.0351 H   0  0  0  0  0  0  0  0  0  0  0  0  # atno 6909 bound_to 6896
  144.7597  140.4120  143.5986 H   0  0  0  0  0  0  0  0  0  0  0  0  # atno 7974 bound_to 7965
  156.2895  140.2222  156.5136 H   0  0  0  0  0  0  0  0  0  0  0  0  # atno 8008 bound_to 7997
  154.7587  140.0475  157.0977 H   0  0  0  0  0  0  0  0  0  0  0  0  # atno 8009 bound_to 7997
  155.0018  140.3102  155.4868 H   0  0  0  0  0  0  0  0  0  0  0  0  # atno 8010 bound_to 7997
  140.3792  144.2002  150.6131 H   0  0  0  0  0  0  0  0  0  0  0  0  # atno 10167 bound_to 10162
  156.0397  130.4336  150.2331 H   0  0  0  0  0  0  0  0  0  0  0  0  # atno 10718 bound_to 10713
  154.7155  135.5118  153.8731 H   0  0  0  0  0  0  0  0  0  0  0  0  # atno 10763 bound_to 10752
  153.0817  135.6633  154.0041 H   0  0  0  0  0  0  0  0  0  0  0  0  # atno 10764 bound_to 10752
  153.9875  135.3023  155.3394 H   0  0  0  0  0  0  0  0  0  0  0  0  # atno 10765 bound_to 10752
  140.8903  133.7593  156.0413 H   0  0  0  0  0  0  0  0  0  0  0  0  # atno 11005 bound_to 11000
  145.6661  139.1590  143.2781 LP  0  0  0  0  0  0  0  0  0  0  0  0  # atno 17320 bound_to 7965
  146.1646  140.6737  142.9261 LP  0  0  0  0  0  0  0  0  0  0  0  0  # atno 17321 bound_to 7965
  140.4955  143.2334  151.8756 LP  0  0  0  0  0  0  0  0  0  0  0  0  # atno 17342 bound_to 10162
  139.4797  144.5119  151.8921 LP  0  0  0  0  0  0  0  0  0  0  0  0  # atno 17343 bound_to 10162
  157.0427  131.0040  151.3278 LP  0  0  0  0  0  0  0  0  0  0  0  0  # atno 17370 bound_to 10713
  157.5197  130.7990  149.7796 LP  0  0  0  0  0  0  0  0  0  0  0  0  # atno 17371 bound_to 10713
  140.8354  134.3129  157.5333 LP  0  0  0  0  0  0  0  0  0  0  0  0  # atno 17394 bound_to 11000
  139.8729  134.9387  156.3721 LP  0  0  0  0  0  0  0  0  0  0  0  0  # atno 17395 bound_to 11000

$$$$
