AV-unprocessed.smi:95|AV-procd|sdf|855|dock7
  -GOLD-   2262017303D 1   1.00000     0.00000
 Structure written by MMmdl.
 41 44  0  0  0  0  0  0  0  0  1 V2000
  149.8138  138.8648  155.8267 O   0  0  0  0  0  0  0  0  0  0  0  0
  149.5525  138.2609  156.8689 C   0  0  0  0  0  0  0  0  0  0  0  0
  148.2098  137.8168  157.2258 C   0  0  0  0  0  0  0  0  0  0  0  0
  147.1910  138.0293  156.3759 F   0  0  0  0  0  0  0  0  0  0  0  0
  147.9713  137.1933  158.3997 C   0  0  0  0  0  0  0  0  0  0  0  0
  148.9564  136.9436  159.3379 N   0  0  0  0  0  0  0  0  0  0  0  0
  148.5934  136.2231  160.6156 C   0  0  2  0  0  0  0  0  0  0  0  0
  147.9288  134.8523  160.3833 C   0  0  0  0  0  0  0  0  0  0  0  0
  146.5925  134.9980  161.0927 C   0  0  0  0  0  0  0  0  0  0  0  0
  146.8484  136.1432  162.0661 C   0  0  0  0  0  0  0  0  0  0  0  0
  147.6962  137.0133  161.3326 O   0  0  0  0  0  0  0  0  0  0  0  0
  150.2969  137.2965  159.0569 C   0  0  0  0  0  0  0  0  0  0  0  0
  151.2003  137.0513  159.8584 O   0  0  0  0  0  0  0  0  0  0  0  0
  150.5483  137.9504  157.8263 N   0  0  0  0  0  0  0  0  0  0  0  0
  151.9020  138.4064  157.5468 C   0  0  0  0  0  0  0  0  0  0  0  0
  152.3038  139.7064  158.2343 C   0  0  0  0  0  0  0  0  0  0  0  0
  153.2297  139.6862  159.2962 C   0  0  0  0  0  0  0  0  0  0  0  0
  153.5698  140.9038  159.9129 C   0  0  0  0  0  0  0  0  0  0  0  0
  152.9693  142.0925  159.4502 C   0  0  0  0  0  0  0  0  0  0  0  0
  153.2898  143.3290  160.0472 C   0  0  0  0  0  0  0  0  0  0  0  0
  152.6849  144.5114  159.5829 C   0  0  0  0  0  0  0  0  0  0  0  0
  151.7616  144.4562  158.5230 C   0  0  0  0  0  0  0  0  0  0  0  0
  151.4441  143.2199  157.9277 C   0  0  0  0  0  0  0  0  0  0  0  0
  152.0383  142.0216  158.3777 C   0  0  0  0  0  0  0  0  0  0  0  0
  151.7195  140.8447  157.7941 N   0  0  0  0  0  0  0  0  0  0  0  0
  146.9578  136.8848  158.6110 H   0  0  0  0  0  0  0  0  0  0  0  0
  149.5208  136.1297  161.1828 H   0  0  0  0  0  0  0  0  0  0  0  0
  147.8253  134.6088  159.3253 H   0  0  0  0  0  0  0  0  0  0  0  0
  148.5422  134.0843  160.8555 H   0  0  0  0  0  0  0  0  0  0  0  0
  145.8168  135.2821  160.3811 H   0  0  0  0  0  0  0  0  0  0  0  0
  146.2731  134.0824  161.5907 H   0  0  0  0  0  0  0  0  0  0  0  0
  145.9320  136.6429  162.3801 H   0  0  0  0  0  0  0  0  0  0  0  0
  147.3711  135.7881  162.9555 H   0  0  0  0  0  0  0  0  0  0  0  0
  152.6020  137.6131  157.8099 H   0  0  0  0  0  0  0  0  0  0  0  0
  151.9864  138.4961  156.4622 H   0  0  0  0  0  0  0  0  0  0  0  0
  153.6727  138.7594  159.6304 H   0  0  0  0  0  0  0  0  0  0  0  0
  154.2790  140.9205  160.7277 H   0  0  0  0  0  0  0  0  0  0  0  0
  153.9984  143.3753  160.8613 H   0  0  0  0  0  0  0  0  0  0  0  0
  152.9284  145.4597  160.0394 H   0  0  0  0  0  0  0  0  0  0  0  0
  151.2959  145.3627  158.1654 H   0  0  0  0  0  0  0  0  0  0  0  0
  150.7336  143.1915  157.1145 H   0  0  0  0  0  0  0  0  0  0  0  0
  1  2  2  0  0  0  0
  2 14  1  0  0  0  0
  2  3  1  0  0  0  0
  3  4  1  0  0  0  0
  3  5  2  0  0  0  0
  5  6  1  0  0  0  0
  5 26  1  0  0  0  0
  6  7  1  0  0  0  0
  6 12  1  0  0  0  0
  7 11  1  0  0  0  0
  7  8  1  0  0  0  0
  7 27  1  0  0  0  0
  8  9  1  0  0  0  0
  8 28  1  0  0  0  0
  8 29  1  0  0  0  0
  9 10  1  0  0  0  0
  9 30  1  0  0  0  0
  9 31  1  0  0  0  0
 10 11  1  0  0  0  0
 10 32  1  0  0  0  0
 10 33  1  0  0  0  0
 12 13  2  0  0  0  0
 12 14  1  0  0  0  0
 14 15  1  0  0  0  0
 15 16  1  0  0  0  0
 15 34  1  0  0  0  0
 15 35  1  0  0  0  0
 16 25  1  0  0  0  0
 16 17  2  0  0  0  0
 17 18  1  0  0  0  0
 17 36  1  0  0  0  0
 18 19  2  0  0  0  0
 18 37  1  0  0  0  0
 19 24  1  0  0  0  0
 19 20  1  0  0  0  0
 20 21  2  0  0  0  0
 20 38  1  0  0  0  0
 21 22  1  0  0  0  0
 21 39  1  0  0  0  0
 22 23  2  0  0  0  0
 22 40  1  0  0  0  0
 23 24  1  0  0  0  0
 23 41  1  0  0  0  0
 24 25  2  0  0  0  0
M  END
> <s_m_source_file>
AV-unprocessed.smi

> <i_m_source_file_index>
95

> <i_lp_mmshare_version>
43012

> <i_f3d_flags>
0

> <s_epik_input>
TzFbQ0gyXVtDSDJdW0NIMl1bQ0BIXTFuKFtjSF1jKEYpYzI9TyljKD1PKW4yW0NIMl1jKFtjSF1bY0hdMyluYyhjMzQpW2NIXVtjSF1bY0hdW2NIXTQ=

> <s_epik_cmdline>
J2VwaWtfcHl0aG9uJywgJy1waCcsICc3LjAnLCAnLXRuJywgJzgnLCAnLW1hJywgJzIwMCcsICctbWV0YWxfYmluZGluZycsICctaW1hZScsICc8aW5maWxlLm1hZT4nLCAnLW9tYWUnLCAnPG91dGZpbGUubWFlPic=

> <r_lp_tautomer_probability>
1

> <r_epik_Ionization_Penalty>
0.0274176

> <r_epik_Ionization_Penalty_Charging>
1.11818e-08

> <r_epik_Ionization_Penalty_Neutral>
0.0274176

> <r_epik_State_Penalty>
0.0224396

> <r_epik_Charging_Adjusted_Penalty>
0.0224396

> <i_epik_Tot_Q>
0

> <i_epik_Tot_abs_Q>
0

> <r_epik_Metal_State_Penalty>
2.28695e-05

> <b_epik_Metal_Only>
0

> <s_epik_Chemistry_Notes>
This compound contains an acetal/aminal-like group ( X-CH(R)-Y where X, Y are N, S, or O) that may be acid/base labile, releasing an aldehyde.

> <s_lp_Force_Field>
OPLS_2005

> <r_lp_Energy>
29.0351

> <b_lp_Chiralities_Consistent>
1

> <s_lp_Variant>
AV-unprocessed.smi:95-1

> <Gold.Version>
5.8.1

> <Gold.Id.Protein>
6NUR|6NUR_protein|mol2

> <Gold.PLP.Fitness>
50.8804

> <Gold.PLP.PLP>
-44.1464

> <Gold.PLP.part.hbond>
-3.0000

> <Gold.PLP.part.metal>
0.0000

> <Gold.PLP.part.buried>
-6.1059

> <Gold.PLP.part.nonpolar>
-34.7767

> <Gold.PLP.part.repulsive>
0.0286

> <Gold.PLP.ligand.clash>
0.0000

> <Gold.PLP.ligand.torsion>
0.4143

> <Gold.PLP.Chemscore.Hbond>
2.5140

> <Gold.PLP.Chemscore.CHOScore>
0.0000

> <Gold.PLP.Chemscore.Metal>
0.0000

> <Gold.Chemscore.Hbonds>
donor molecule, donor type, donor heavy atom, donor atom, acceptor molecule, acceptor atom, score
      P1  H  6896  6907       L1    13  1.00
      P1  H  6931  6943       L1    11  0.70
      P1  H  6934  6947       L1    11  0.69

> <Gold.PLP.Chemscore.Internal.Correction>
0.0205

> <Gold.Rescore>
     Score         DG    S(hbond)    S(metal)    S(lipo)     H(rot)  DE(clash)    DE(int)     intcor
     20.84     -21.23       1.80        0.00     116.09       1.50       0.00       0.38       ----

> <Gold.Chemscore.Fitness>
20.8445

> <Gold.Chemscore.DG>
-21.2328

> <Gold.Chemscore.ZeroCoef>
-5.4800

> <Gold.Chemscore.Hbond>
1.7983

> <Gold.Chemscore.Metal>
0.0000

> <Gold.Chemscore.Lipo>
116.0928

> <Gold.Chemscore.Internal_Hbond>
0.0000

> <Gold.Chemscore.DEClash>
0.0038

> <Gold.Chemscore.DEInternal>
0.3846

> <Gold.Chemscore.Rot>
1.4985

> <Gold.Chemscore.Internal.Correction>
   9.000000E+99

> <Gold.Chemscore.Hbonds>
donor molecule, donor type, donor heavy atom, donor atom, acceptor molecule, acceptor atom, score
      P1  H  6896  6907       L1    13  0.60
      P1  H  6931  6943       L1    11  0.07
      P1  H  6934  6947       L1    11  0.65

> <Gold.Chemscore.Hbond.Weighted>
-6.0062

> <Gold.Chemscore.Metal.Weighted>
-0.0000

> <Gold.Chemscore.Lipo.Weighted>
-13.5829

> <Gold.Chemscore.Internal_Hbond.Weighted>
0.0000

> <Gold.Chemscore.DEClash.Weighted>
0.0038

> <Gold.Chemscore.DEInternal.Weighted>
0.3846

> <Gold.Chemscore.Rot.Weighted>
3.8362

> <Gold.Chemscore.Internal.Correction.Weighted>
   9.000000E+99

> <Gold.Protein.RotatedTorsions>
[ 6907 6896 6895 6894 ] final  -12.17 input  -60.11 | X-H torsion
[ 7974 7965 7964 7962 ] final  122.08 input  175.53 | X-H torsion
[ 8008 7997 7996 7995 ] final  -21.01 input   59.86 | X-H torsion
[ 10167 10162 10161 10158 ] final -128.07 input  -65.29 | X-H torsion
[ 10718 10713 10712 10709 ] final  -29.07 input   66.30 | X-H torsion
[ 10763 10752 10751 10750 ] final  163.45 input  -60.55 | X-H torsion
[ 11005 11000 10999 10996 ] final   59.99 input  -57.11 | X-H torsion

> <Gold.Protein.ActiveResidues>
 VAL166  LYS551  ARG553  GLY616  TRP617  ASP618  TYR619  PRO620  LYS621  CYS622 
 ASP623  PHE694  ASN695  SER759  ASP760  ASP761  ALA762  ILE779  LEU786  VAL792 
 PHE793  MET794  SER795  GLU796  ALA797  LYS798  CYS799  TRP800  GLU811  SER814 

> <Gold.Protein.RotatedAtoms>
  151.3747  135.0929  159.9476 H   0  0  0  0  0  0  0  0  0  0  0  0  # atno 6907 bound_to 6896
  152.5125  133.9130  159.7507 H   0  0  0  0  0  0  0  0  0  0  0  0  # atno 6908 bound_to 6896
  150.9551  133.6451  159.2793 H   0  0  0  0  0  0  0  0  0  0  0  0  # atno 6909 bound_to 6896
  145.1118  139.3447  143.4759 H   0  0  0  0  0  0  0  0  0  0  0  0  # atno 7974 bound_to 7965
  154.4732  140.2046  155.9942 H   0  0  0  0  0  0  0  0  0  0  0  0  # atno 8008 bound_to 7997
  156.1046  140.3238  155.7959 H   0  0  0  0  0  0  0  0  0  0  0  0  # atno 8009 bound_to 7997
  155.4739  140.0533  157.2967 H   0  0  0  0  0  0  0  0  0  0  0  0  # atno 8010 bound_to 7997
  139.9541  143.6022  152.2466 H   0  0  0  0  0  0  0  0  0  0  0  0  # atno 10167 bound_to 10162
  156.4171  130.4419  149.7210 H   0  0  0  0  0  0  0  0  0  0  0  0  # atno 10718 bound_to 10713
  154.2939  135.2760  155.2642 H   0  0  0  0  0  0  0  0  0  0  0  0  # atno 10763 bound_to 10752
  154.5108  135.5783  153.6607 H   0  0  0  0  0  0  0  0  0  0  0  0  # atno 10764 bound_to 10752
  152.9910  135.6181  154.3106 H   0  0  0  0  0  0  0  0  0  0  0  0  # atno 10765 bound_to 10752
  140.0264  134.6076  155.9567 H   0  0  0  0  0  0  0  0  0  0  0  0  # atno 11005 bound_to 11000
  146.3526  140.1040  142.8606 LP  0  0  0  0  0  0  0  0  0  0  0  0  # atno 17320 bound_to 7965
  145.0838  140.9239  143.4809 LP  0  0  0  0  0  0  0  0  0  0  0  0  # atno 17321 bound_to 7965
  139.6605  144.7662  151.1972 LP  0  0  0  0  0  0  0  0  0  0  0  0  # atno 17342 bound_to 10162
  140.7574  143.6018  150.8692 LP  0  0  0  0  0  0  0  0  0  0  0  0  # atno 17343 bound_to 10162
  156.4166  130.7748  151.2763 LP  0  0  0  0  0  0  0  0  0  0  0  0  # atno 17370 bound_to 10713
  157.7508  131.0195  150.3671 LP  0  0  0  0  0  0  0  0  0  0  0  0  # atno 17371 bound_to 10713
  141.1805  133.6546  156.5001 LP  0  0  0  0  0  0  0  0  0  0  0  0  # atno 17394 bound_to 11000
  140.4299  134.7111  157.4936 LP  0  0  0  0  0  0  0  0  0  0  0  0  # atno 17395 bound_to 11000

$$$$
