AV-unprocessed.smi:1002|AV-procd|sdf|4359|dock9
  -GOLD-   22720 2263D 1   1.00000     0.00000
 Structure written by MMmdl.
 36 37  0  0  0  0  0  0  0  0  2 V2000
  146.6448  133.6193  154.5875 O   0  0  0  0  0  0  0  0  0  0  0  0
  146.9286  133.8462  153.4113 C   0  0  0  0  0  0  0  0  0  0  0  0
  145.9098  134.5276  152.4970 C   0  0  0  0  0  0  0  0  0  0  0  0
  145.2837  133.5158  151.5535 C   0  0  0  0  0  0  0  0  0  0  0  0
  143.8852  133.4635  151.3770 C   0  0  0  0  0  0  0  0  0  0  0  0
  143.3545  132.5060  150.4895 C   0  0  0  0  0  0  0  0  0  0  0  0
  144.1173  131.6323  149.7976 N   0  0  0  0  0  0  0  0  0  0  0  0
  145.4551  131.6864  149.9726 C   0  0  0  0  0  0  0  0  0  0  0  0
  146.0866  132.6037  150.8363 C   0  0  0  0  0  0  0  0  0  0  0  0
  148.1092  133.5281  152.8574 N   0  0  0  0  0  0  0  0  0  0  0  0
  149.2235  132.8862  153.5471 C   0  0  2  0  0  0  0  0  0  0  0  0
  148.7345  131.5820  154.2050 C   0  0  0  0  0  0  0  0  0  0  0  0
  149.8551  130.9034  155.0157 C   0  0  0  0  0  0  0  0  0  0  0  0
  150.4685  131.8456  156.0811 C   0  0  2  0  0  0  0  0  0  0  0  0
  149.5127  132.1147  157.2676 C   0  0  0  0  0  0  0  0  0  0  0  0
  148.3909  131.5612  157.2477 O   0  0  0  0  0  0  0  0  0  0  0  0
  149.8992  132.8930  158.1680 O   0  5  0  0  0  0  0  0  0  0  0  0
  150.9517  133.1500  155.4008 C   0  0  0  0  0  0  0  0  0  0  0  0
  149.8355  133.8399  154.5944 C   0  0  0  0  0  0  0  0  0  0  0  0
  145.1335  135.0106  153.0925 H   0  0  0  0  0  0  0  0  0  0  0  0
  146.4011  135.3151  151.9238 H   0  0  0  0  0  0  0  0  0  0  0  0
  143.2324  134.1423  151.9060 H   0  0  0  0  0  0  0  0  0  0  0  0
  142.2881  132.4403  150.3319 H   0  0  0  0  0  0  0  0  0  0  0  0
  146.0409  130.9767  149.4073 H   0  0  0  0  0  0  0  0  0  0  0  0
  147.1618  132.6079  150.9405 H   0  0  0  0  0  0  0  0  0  0  0  0
  148.2503  133.7513  151.8828 H   0  0  0  0  0  0  0  0  0  0  0  0
  149.9922  132.6268  152.8162 H   0  0  0  0  0  0  0  0  0  0  0  0
  147.8841  131.7908  154.8554 H   0  0  0  0  0  0  0  0  0  0  0  0
  148.3706  130.8940  153.4409 H   0  0  0  0  0  0  0  0  0  0  0  0
  149.4834  129.9848  155.4713 H   0  0  0  0  0  0  0  0  0  0  0  0
  150.6427  130.5868  154.3309 H   0  0  0  0  0  0  0  0  0  0  0  0
  151.3373  131.3471  156.5122 H   0  0  0  0  0  0  0  0  0  0  0  0
  151.3669  133.8451  156.1313 H   0  0  0  0  0  0  0  0  0  0  0  0
  151.7768  132.9115  154.7287 H   0  0  0  0  0  0  0  0  0  0  0  0
  150.2398  134.7258  154.1035 H   0  0  0  0  0  0  0  0  0  0  0  0
  149.0577  134.1960  155.2714 H   0  0  0  0  0  0  0  0  0  0  0  0
  1  2  2  0  0  0  0
  2  3  1  0  0  0  0
  2 10  1  0  0  0  0
  3  4  1  0  0  0  0
  3 20  1  0  0  0  0
  3 21  1  0  0  0  0
  4  9  1  0  0  0  0
  4  5  2  0  0  0  0
  5  6  1  0  0  0  0
  5 22  1  0  0  0  0
  6  7  2  0  0  0  0
  6 23  1  0  0  0  0
  7  8  1  0  0  0  0
  8  9  2  0  0  0  0
  8 24  1  0  0  0  0
  9 25  1  0  0  0  0
 10 11  1  0  0  0  0
 10 26  1  0  0  0  0
 11 19  1  0  0  0  0
 11 12  1  0  0  0  0
 11 27  1  0  0  0  0
 12 13  1  0  0  0  0
 12 28  1  0  0  0  0
 12 29  1  0  0  0  0
 13 14  1  0  0  0  0
 13 30  1  0  0  0  0
 13 31  1  0  0  0  0
 14 15  1  0  0  0  0
 14 18  1  0  0  0  0
 14 32  1  0  0  0  0
 15 16  2  0  0  0  0
 15 17  1  0  0  0  0
 18 19  1  0  0  0  0
 18 33  1  0  0  0  0
 18 34  1  0  0  0  0
 19 35  1  0  0  0  0
 19 36  1  0  0  0  0
M  CHG  1  17  -1
M  END
> <s_m_source_file>
AV-unprocessed.smi

> <i_m_source_file_index>
1002

> <i_lp_mmshare_version>
43012

> <i_f3d_flags>
0

> <s_epik_input>
Tz1DKFtPSF0pW0NAQEhdKFtDSDJdW0NIMl0xKVtDSDJdW0NIMl1bQ0BIXTFbTkhdQyg9TylbQ0gyXWMyW2NIXVtjSF1uW2NIXVtjSF0y

> <s_epik_cmdline>
J2VwaWtfcHl0aG9uJywgJy1waCcsICc3LjAnLCAnLXRuJywgJzgnLCAnLW1hJywgJzIwMCcsICctbWV0YWxfYmluZGluZycsICctaW1hZScsICc8aW5maWxlLm1hZT4nLCAnLW9tYWUnLCAnPG91dGZpbGUubWFlPic=

> <r_lp_tautomer_probability>
1

> <r_epik_Ionization_Penalty>
0.0065671

> <r_epik_Ionization_Penalty_Charging>
0.00222897

> <r_epik_Ionization_Penalty_Neutral>
0.00433813

> <r_epik_State_Penalty>
-0

> <r_epik_Charging_Adjusted_Penalty>
0.00222897

> <i_epik_Tot_Q>
-1

> <i_epik_Tot_abs_Q>
1

> <r_epik_Metal_State_Penalty>
-0

> <b_epik_Metal_Only>
0

> <s_lp_Force_Field>
OPLS_2005

> <r_lp_Energy>
6.9224

> <b_lp_Chiralities_Consistent>
1

> <s_lp_Variant>
AV-unprocessed.smi:1002-2

> <Gold.Version>
5.8.1

> <Gold.Id.Protein>
6NUR|6NUR_protein|mol2

> <Gold.PLP.Fitness>
44.6667

> <Gold.PLP.PLP>
-32.2783

> <Gold.PLP.part.hbond>
-3.0000

> <Gold.PLP.part.metal>
0.0000

> <Gold.PLP.part.buried>
-2.8796

> <Gold.PLP.part.nonpolar>
-27.0102

> <Gold.PLP.part.repulsive>
0.2201

> <Gold.PLP.ligand.clash>
0.0000

> <Gold.PLP.ligand.torsion>
0.4136

> <Gold.PLP.Chemscore.Hbond>
2.5166

> <Gold.PLP.Chemscore.CHOScore>
1.8775

> <Gold.PLP.Chemscore.Metal>
0.0000

> <Gold.Chemscore.Hbonds>
donor molecule, donor type, donor heavy atom, donor atom, acceptor molecule, acceptor atom, score
      P1  H  6896  6908       L1    17  2.00
      P1  H 10785 10796       L1     7  0.65
      L1  C     6    23       P1 10186  0.82
      L1  C     6    23       P1 10952  0.69

> <Gold.PLP.Chemscore.Internal.Correction>
0.0334

> <Gold.Rescore>
     Score         DG    S(hbond)    S(metal)    S(lipo)     H(rot)  DE(clash)    DE(int)     intcor
     13.29     -15.55       1.72        0.00      78.18       1.88       0.05       2.21       ----

> <Gold.Chemscore.Fitness>
13.2938

> <Gold.Chemscore.DG>
-15.5550

> <Gold.Chemscore.ZeroCoef>
-5.4800

> <Gold.Chemscore.Hbond>
1.7208

> <Gold.Chemscore.Metal>
0.0000

> <Gold.Chemscore.Lipo>
78.1836

> <Gold.Chemscore.Internal_Hbond>
0.0000

> <Gold.Chemscore.DEClash>
0.0544

> <Gold.Chemscore.DEInternal>
2.2068

> <Gold.Chemscore.Rot>
1.8828

> <Gold.Chemscore.Internal.Correction>
   9.000000E+99

> <Gold.Chemscore.Hbonds>
donor molecule, donor type, donor heavy atom, donor atom, acceptor molecule, acceptor atom, score
      P1  H  6896  6908       L1    17  1.00
      P1  H 10785 10796       L1     7  0.59

> <Gold.Chemscore.Hbond.Weighted>
-5.7474

> <Gold.Chemscore.Metal.Weighted>
-0.0000

> <Gold.Chemscore.Lipo.Weighted>
-9.1475

> <Gold.Chemscore.Internal_Hbond.Weighted>
0.0000

> <Gold.Chemscore.DEClash.Weighted>
0.0544

> <Gold.Chemscore.DEInternal.Weighted>
2.2068

> <Gold.Chemscore.Rot.Weighted>
4.8199

> <Gold.Chemscore.Internal.Correction.Weighted>
   9.000000E+99

> <Gold.Protein.RotatedTorsions>
[ 6907 6896 6895 6894 ] final  105.86 input  -60.11 | X-H torsion
[ 7974 7965 7964 7962 ] final  103.09 input  175.53 | X-H torsion
[ 8008 7997 7996 7995 ] final -140.55 input   59.86 | X-H torsion
[ 10167 10162 10161 10158 ] final  127.10 input  -65.29 | X-H torsion
[ 10718 10713 10712 10709 ] final  -18.45 input   66.30 | X-H torsion
[ 10763 10752 10751 10750 ] final -121.74 input  -60.55 | X-H torsion
[ 11005 11000 10999 10996 ] final -146.99 input  -57.11 | X-H torsion

> <Gold.Protein.ActiveResidues>
 VAL166  LYS551  ARG553  GLY616  TRP617  ASP618  TYR619  PRO620  LYS621  CYS622 
 ASP623  PHE694  ASN695  SER759  ASP760  ASP761  ALA762  ILE779  LEU786  VAL792 
 PHE793  MET794  SER795  GLU796  ALA797  LYS798  CYS799  TRP800  GLU811  SER814 

> <Gold.Protein.RotatedAtoms>
  152.5215  133.9466  159.7651 H   0  0  0  0  0  0  0  0  0  0  0  0  # atno 6907 bound_to 6896
  150.9784  133.6262  159.2733 H   0  0  0  0  0  0  0  0  0  0  0  0  # atno 6908 bound_to 6896
  151.3448  135.0877  159.9436 H   0  0  0  0  0  0  0  0  0  0  0  0  # atno 6909 bound_to 6896
  145.3505  139.2440  143.3560 H   0  0  0  0  0  0  0  0  0  0  0  0  # atno 7974 bound_to 7965
  155.4633  140.0547  157.2988 H   0  0  0  0  0  0  0  0  0  0  0  0  # atno 8008 bound_to 7997
  154.4728  140.2048  155.9906 H   0  0  0  0  0  0  0  0  0  0  0  0  # atno 8009 bound_to 7997
  156.1084  140.3208  155.8043 H   0  0  0  0  0  0  0  0  0  0  0  0  # atno 8010 bound_to 7997
  139.5596  144.6872  151.4082 H   0  0  0  0  0  0  0  0  0  0  0  0  # atno 10167 bound_to 10162
  156.5593  130.4721  149.6414 H   0  0  0  0  0  0  0  0  0  0  0  0  # atno 10718 bound_to 10713
  154.8675  135.4157  154.2669 H   0  0  0  0  0  0  0  0  0  0  0  0  # atno 10763 bound_to 10752
  153.3586  135.7002  153.6736 H   0  0  0  0  0  0  0  0  0  0  0  0  # atno 10764 bound_to 10752
  153.5646  135.3603  155.2785 H   0  0  0  0  0  0  0  0  0  0  0  0  # atno 10765 bound_to 10752
  140.7763  134.3130  157.5059 H   0  0  0  0  0  0  0  0  0  0  0  0  # atno 11005 bound_to 11000
  146.2970  140.4121  142.8718 LP  0  0  0  0  0  0  0  0  0  0  0  0  # atno 17320 bound_to 7965
  144.8721  140.7286  143.6040 LP  0  0  0  0  0  0  0  0  0  0  0  0  # atno 17321 bound_to 7965
  140.6874  143.7942  150.7205 LP  0  0  0  0  0  0  0  0  0  0  0  0  # atno 17342 bound_to 10162
  140.1414  143.4438  152.2191 LP  0  0  0  0  0  0  0  0  0  0  0  0  # atno 17343 bound_to 10162
  156.2813  130.7072  151.1897 LP  0  0  0  0  0  0  0  0  0  0  0  0  # atno 17370 bound_to 10713
  157.7372  131.0555  150.5371 LP  0  0  0  0  0  0  0  0  0  0  0  0  # atno 17371 bound_to 10713
  139.8748  134.9291  156.3469 LP  0  0  0  0  0  0  0  0  0  0  0  0  # atno 17394 bound_to 11000
  140.9525  133.7441  156.0291 LP  0  0  0  0  0  0  0  0  0  0  0  0  # atno 17395 bound_to 11000

$$$$
