AV-unprocessed.smi:2195|AV-procd|sdf|8906|dock2
  -GOLD-   2272012123D 1   1.00000     0.00000
 Structure written by MMmdl.
 40 42  0  0  0  0  0  0  0  0  2 V2000
  150.8277  141.9502  155.9096 C   0  0  0  0  0  0  0  0  0  0  0  0
  149.8885  140.9733  155.2325 C   0  0  0  0  0  0  0  0  0  0  0  0
  148.8897  141.4347  154.3524 C   0  0  0  0  0  0  0  0  0  0  0  0
  148.0216  140.5191  153.7272 C   0  0  0  0  0  0  0  0  0  0  0  0
  148.1356  139.1344  153.9687 C   0  0  0  0  0  0  0  0  0  0  0  0
  147.2454  138.3108  153.3139 O   0  0  0  0  0  0  0  0  0  0  0  0
  146.7557  138.7207  152.0431 C   0  0  0  0  0  0  0  0  0  0  0  0
  145.7543  137.6842  151.5070 C   0  0  2  0  0  0  0  0  0  0  0  0
  144.5748  137.7281  152.2855 O   0  0  0  0  0  0  0  0  0  0  0  0
  146.3326  136.2568  151.4216 C   0  0  0  0  0  0  0  0  0  0  0  0
  145.3322  135.2576  151.0212 N   0  0  0  0  0  0  0  0  0  0  0  0
  144.1312  135.4293  150.4050 C   0  0  0  0  0  0  0  0  0  0  0  0
  143.5734  134.1980  150.2389 N   0  3  0  0  0  0  0  0  0  0  0  0
  144.4296  133.2244  150.7578 C   0  0  0  0  0  0  0  0  0  0  0  0
  144.3024  131.8402  150.8218 C   0  0  0  0  0  0  0  0  0  0  0  0
  145.3653  131.1340  151.4225 C   0  0  0  0  0  0  0  0  0  0  0  0
  146.4965  131.8035  151.9327 C   0  0  0  0  0  0  0  0  0  0  0  0
  146.6152  133.2071  151.8617 C   0  0  0  0  0  0  0  0  0  0  0  0
  145.5615  133.8982  151.2643 C   0  0  0  0  0  0  0  0  0  0  0  0
  149.1412  138.6770  154.8573 C   0  0  0  0  0  0  0  0  0  0  0  0
  150.0096  139.5925  155.4835 C   0  0  0  0  0  0  0  0  0  0  0  0
  150.6940  142.9617  155.5249 H   0  0  0  0  0  0  0  0  0  0  0  0
  151.8647  141.6586  155.7414 H   0  0  0  0  0  0  0  0  0  0  0  0
  150.6449  141.9666  156.9842 H   0  0  0  0  0  0  0  0  0  0  0  0
  148.7844  142.4910  154.1526 H   0  0  0  0  0  0  0  0  0  0  0  0
  147.2600  140.8832  153.0533 H   0  0  0  0  0  0  0  0  0  0  0  0
  146.2894  139.7059  152.1007 H   0  0  0  0  0  0  0  0  0  0  0  0
  147.5919  138.7902  151.3454 H   0  0  0  0  0  0  0  0  0  0  0  0
  145.4630  137.9973  150.5037 H   0  0  0  0  0  0  0  0  0  0  0  0
  144.2102  138.5984  152.2301 H   0  0  0  0  0  0  0  0  0  0  0  0
  147.1294  136.2271  150.6774 H   0  0  0  0  0  0  0  0  0  0  0  0
  146.7854  135.9484  152.3643 H   0  0  0  0  0  0  0  0  0  0  0  0
  143.6997  136.3720  150.1005 H   0  0  0  0  0  0  0  0  0  0  0  0
  143.4361  131.3249  150.4336 H   0  0  0  0  0  0  0  0  0  0  0  0
  145.3112  130.0575  151.4949 H   0  0  0  0  0  0  0  0  0  0  0  0
  147.2895  131.2292  152.3893 H   0  0  0  0  0  0  0  0  0  0  0  0
  147.4831  133.7105  152.2616 H   0  0  0  0  0  0  0  0  0  0  0  0
  149.2684  137.6278  155.0764 H   0  0  0  0  0  0  0  0  0  0  0  0
  150.7704  139.2302  156.1593 H   0  0  0  0  0  0  0  0  0  0  0  0
  142.6745  134.0372  149.8027 H   0  0  0  0  0  0  0  0  0  0  0  0
  1  2  1  0  0  0  0
  1 22  1  0  0  0  0
  1 23  1  0  0  0  0
  1 24  1  0  0  0  0
  2 21  1  0  0  0  0
  2  3  2  0  0  0  0
  3  4  1  0  0  0  0
  3 25  1  0  0  0  0
  4  5  2  0  0  0  0
  4 26  1  0  0  0  0
  5  6  1  0  0  0  0
  5 20  1  0  0  0  0
  6  7  1  0  0  0  0
  7  8  1  0  0  0  0
  7 27  1  0  0  0  0
  7 28  1  0  0  0  0
  8  9  1  0  0  0  0
  8 10  1  0  0  0  0
  8 29  1  0  0  0  0
  9 30  1  0  0  0  0
 10 11  1  0  0  0  0
 10 31  1  0  0  0  0
 10 32  1  0  0  0  0
 11 19  1  0  0  0  0
 11 12  1  0  0  0  0
 12 13  2  0  0  0  0
 12 33  1  0  0  0  0
 13 14  1  0  0  0  0
 13 40  1  0  0  0  0
 14 19  2  0  0  0  0
 14 15  1  0  0  0  0
 15 16  2  0  0  0  0
 15 34  1  0  0  0  0
 16 17  1  0  0  0  0
 16 35  1  0  0  0  0
 17 18  2  0  0  0  0
 17 36  1  0  0  0  0
 18 19  1  0  0  0  0
 18 37  1  0  0  0  0
 20 21  2  0  0  0  0
 20 38  1  0  0  0  0
 21 39  1  0  0  0  0
M  CHG  1  13   1
M  END
> <s_m_source_file>
AV-unprocessed.smi

> <i_m_source_file_index>
2195

> <i_lp_mmshare_version>
43012

> <i_f3d_flags>
0

> <s_epik_input>
W0NIM11jMVtjSF1bY0hdYyhbY0hdW2NIXTEpT1tDSDJdW0NASF0oW09IXSlbQ0gyXW4oW2NIXW4yKWMoYzIzKVtjSF1bY0hdW2NIXVtjSF0z

> <s_epik_cmdline>
J2VwaWtfcHl0aG9uJywgJy1waCcsICc3LjAnLCAnLXRuJywgJzgnLCAnLW1hJywgJzIwMCcsICctbWV0YWxfYmluZGluZycsICctaW1hZScsICc8aW5maWxlLm1hZT4nLCAnLW9tYWUnLCAnPG91dGZpbGUubWFlPic=

> <r_lp_tautomer_probability>
1

> <r_epik_Ionization_Penalty>
1.3774

> <r_epik_Ionization_Penalty_Charging>
1.37739

> <r_epik_Ionization_Penalty_Neutral>
2.3993e-06

> <r_epik_State_Penalty>
1.45762

> <r_epik_Charging_Adjusted_Penalty>
2.83501

> <i_epik_Tot_Q>
1

> <i_epik_Tot_abs_Q>
1

> <r_epik_Metal_State_Penalty>
5.49752

> <b_epik_Metal_Only>
0

> <s_lp_Force_Field>
OPLS_2005

> <r_lp_Energy>
21.3932

> <b_lp_Chiralities_Consistent>
1

> <s_lp_Variant>
AV-unprocessed.smi:2195-3

> <Gold.Version>
5.8.1

> <Gold.Id.Protein>
6NUR|6NUR_protein|mol2

> <Gold.PLP.Fitness>
50.3384

> <Gold.PLP.PLP>
-39.6665

> <Gold.PLP.part.hbond>
-3.0000

> <Gold.PLP.part.metal>
0.0000

> <Gold.PLP.part.buried>
1.9950

> <Gold.PLP.part.nonpolar>
-39.8450

> <Gold.PLP.part.repulsive>
0.3632

> <Gold.PLP.ligand.clash>
0.0000

> <Gold.PLP.ligand.torsion>
0.6907

> <Gold.PLP.Chemscore.Hbond>
3.0000

> <Gold.PLP.Chemscore.CHOScore>
1.0000

> <Gold.PLP.Chemscore.Metal>
0.0000

> <Gold.Chemscore.Hbonds>
donor molecule, donor type, donor heavy atom, donor atom, acceptor molecule, acceptor atom, score
      L1  H     9    30       P1 10175  1.00
      L1  H    13    40       P1 10186  2.00
      L1  C    12    33       P1 10171  1.00

> <Gold.PLP.Chemscore.Internal.Correction>
0.0533

> <Gold.Rescore>
     Score         DG    S(hbond)    S(metal)    S(lipo)     H(rot)  DE(clash)    DE(int)     intcor
     15.83     -18.39       1.97        0.00     103.87       2.27       1.90       0.66       ----

> <Gold.Chemscore.Fitness>
15.8319

> <Gold.Chemscore.DG>
-18.3873

> <Gold.Chemscore.ZeroCoef>
-5.4800

> <Gold.Chemscore.Hbond>
1.9674

> <Gold.Chemscore.Metal>
0.0000

> <Gold.Chemscore.Lipo>
103.8744

> <Gold.Chemscore.Internal_Hbond>
0.0000

> <Gold.Chemscore.DEClash>
1.8953

> <Gold.Chemscore.DEInternal>
0.6600

> <Gold.Chemscore.Rot>
2.2723

> <Gold.Chemscore.Internal.Correction>
   9.000000E+99

> <Gold.Chemscore.Hbonds>
donor molecule, donor type, donor heavy atom, donor atom, acceptor molecule, acceptor atom, score
      L1  H     9    30       P1 10175  0.99
      L1  H    13    40       P1 10186  0.96

> <Gold.Chemscore.Hbond.Weighted>
-6.5710

> <Gold.Chemscore.Metal.Weighted>
-0.0000

> <Gold.Chemscore.Lipo.Weighted>
-12.1533

> <Gold.Chemscore.Internal_Hbond.Weighted>
0.0000

> <Gold.Chemscore.DEClash.Weighted>
1.8953

> <Gold.Chemscore.DEInternal.Weighted>
0.6600

> <Gold.Chemscore.Rot.Weighted>
5.8170

> <Gold.Chemscore.Internal.Correction.Weighted>
   9.000000E+99

> <Gold.Protein.RotatedTorsions>
[ 6907 6896 6895 6894 ] final   68.92 input  -60.11 | X-H torsion
[ 7974 7965 7964 7962 ] final  156.70 input  175.53 | X-H torsion
[ 8008 7997 7996 7995 ] final   10.06 input   59.86 | X-H torsion
[ 10167 10162 10161 10158 ] final   73.64 input  -65.29 | X-H torsion
[ 10718 10713 10712 10709 ] final  -29.84 input   66.30 | X-H torsion
[ 10763 10752 10751 10750 ] final -116.91 input  -60.55 | X-H torsion
[ 11005 11000 10999 10996 ] final  -82.81 input  -57.11 | X-H torsion

> <Gold.Protein.ActiveResidues>
 VAL166  LYS551  ARG553  GLY616  TRP617  ASP618  TYR619  PRO620  LYS621  CYS622 
 ASP623  PHE694  ASN695  SER759  ASP760  ASP761  ALA762  ILE779  LEU786  VAL792 
 PHE793  MET794  SER795  GLU796  ALA797  LYS798  CYS799  TRP800  GLU811  SER814 

> <Gold.Protein.RotatedAtoms>
  152.4652  134.5092  159.9748 H   0  0  0  0  0  0  0  0  0  0  0  0  # atno 6907 bound_to 6896
  151.5131  133.3475  159.2896 H   0  0  0  0  0  0  0  0  0  0  0  0  # atno 6908 bound_to 6896
  150.8633  134.8019  159.7161 H   0  0  0  0  0  0  0  0  0  0  0  0  # atno 6909 bound_to 6896
  144.7947  139.7239  143.6207 H   0  0  0  0  0  0  0  0  0  0  0  0  # atno 7974 bound_to 7965
  154.7883  140.2831  155.6011 H   0  0  0  0  0  0  0  0  0  0  0  0  # atno 8008 bound_to 7997
  156.2960  140.2609  156.2653 H   0  0  0  0  0  0  0  0  0  0  0  0  # atno 8009 bound_to 7997
  154.9701  140.0376  157.2220 H   0  0  0  0  0  0  0  0  0  0  0  0  # atno 8010 bound_to 7997
  140.0223  144.5531  150.7572 H   0  0  0  0  0  0  0  0  0  0  0  0  # atno 10167 bound_to 10162
  156.4074  130.4401  149.7277 H   0  0  0  0  0  0  0  0  0  0  0  0  # atno 10718 bound_to 10713
  154.8536  135.4328  154.1897 H   0  0  0  0  0  0  0  0  0  0  0  0  # atno 10763 bound_to 10752
  153.2968  135.6966  153.7246 H   0  0  0  0  0  0  0  0  0  0  0  0  # atno 10764 bound_to 10752
  153.6392  135.3471  155.3040 H   0  0  0  0  0  0  0  0  0  0  0  0  # atno 10765 bound_to 10752
  141.1661  133.7263  156.8626 H   0  0  0  0  0  0  0  0  0  0  0  0  # atno 11005 bound_to 11000
  146.2211  139.5638  142.9617 LP  0  0  0  0  0  0  0  0  0  0  0  0  # atno 17320 bound_to 7965
  145.5703  141.0395  143.2177 LP  0  0  0  0  0  0  0  0  0  0  0  0  # atno 17321 bound_to 7965
  140.7337  143.2720  151.3858 LP  0  0  0  0  0  0  0  0  0  0  0  0  # atno 17342 bound_to 10162
  139.6131  144.1057  152.2319 LP  0  0  0  0  0  0  0  0  0  0  0  0  # atno 17343 bound_to 10162
  156.4269  130.7796  151.2815 LP  0  0  0  0  0  0  0  0  0  0  0  0  # atno 17370 bound_to 10713
  157.7506  131.0166  150.3550 LP  0  0  0  0  0  0  0  0  0  0  0  0  # atno 17371 bound_to 10713
  140.1837  134.9015  157.2979 LP  0  0  0  0  0  0  0  0  0  0  0  0  # atno 17394 bound_to 11000
  140.2366  134.3845  155.7498 LP  0  0  0  0  0  0  0  0  0  0  0  0  # atno 17395 bound_to 11000

$$$$
