AV-unprocessed.smi:2996|AV-procd|sdf|11411|dock1
  -GOLD-   2272016333D 1   1.00000     0.00000
 Structure written by MMmdl.
 46 47  0  0  0  0  0  0  0  0  1 V2000
  152.8244  138.7296  154.7517 C   0  0  0  0  0  0  0  0  0  0  0  0
  151.4272  138.2026  154.4046 C   0  0  0  0  0  0  0  0  0  0  0  0
  150.4117  139.3094  154.3281 C   0  0  0  0  0  0  0  0  0  0  0  0
  150.7366  140.5369  154.7022 N   0  0  0  0  0  0  0  0  0  0  0  0
  149.5905  141.3235  154.5100 O   0  0  0  0  0  0  0  0  0  0  0  0
  148.5878  140.5442  154.0219 C   0  0  0  0  0  0  0  0  0  0  0  0
  147.3049  141.2415  153.7097 C   0  0  0  0  0  0  0  0  0  0  0  0
  149.0544  139.2612  153.9150 C   0  0  0  0  0  0  0  0  0  0  0  0
  148.4004  138.0981  153.4349 N   0  0  0  0  0  0  0  0  0  0  0  0
  147.1544  137.6915  153.7221 C   0  0  0  0  0  0  0  0  0  0  0  0
  146.3766  138.2779  154.4739 O   0  0  0  0  0  0  0  0  0  0  0  0
  146.8658  136.5368  153.1068 N   0  0  0  0  0  0  0  0  0  0  0  0
  145.6150  135.7953  153.2545 C   0  0  1  0  0  0  0  0  0  0  0  0
  144.8756  135.6744  151.9366 C   0  0  0  0  0  0  0  0  0  0  0  0
  143.9984  134.4326  152.1421 C   0  0  0  0  0  0  0  0  0  0  0  0
  142.6170  134.7930  152.7145 C   0  0  0  0  0  0  0  0  0  0  0  0
  143.8618  133.5967  150.8601 C   0  0  0  0  0  0  0  0  0  0  0  0
  144.6717  133.6475  153.1256 O   0  0  0  0  0  0  0  0  0  0  0  0
  145.8104  134.3190  153.6618 C   0  0  0  0  0  0  0  0  0  0  0  0
  147.0516  133.6458  153.0384 C   0  0  0  0  0  0  0  0  0  0  0  0
  145.7975  134.1266  155.1864 C   0  0  0  0  0  0  0  0  0  0  0  0
  153.5442  137.9130  154.8100 H   0  0  0  0  0  0  0  0  0  0  0  0
  152.8229  139.2426  155.7140 H   0  0  0  0  0  0  0  0  0  0  0  0
  153.1794  139.4324  153.9974 H   0  0  0  0  0  0  0  0  0  0  0  0
  151.4679  137.6667  153.4556 H   0  0  0  0  0  0  0  0  0  0  0  0
  151.1235  137.4680  155.1508 H   0  0  0  0  0  0  0  0  0  0  0  0
  146.8384  140.8189  152.8199 H   0  0  0  0  0  0  0  0  0  0  0  0
  147.4728  142.3028  153.5252 H   0  0  0  0  0  0  0  0  0  0  0  0
  146.6040  141.1524  154.5396 H   0  0  0  0  0  0  0  0  0  0  0  0
  148.9703  137.4620  152.8972 H   0  0  0  0  0  0  0  0  0  0  0  0
  147.5691  136.1259  152.5106 H   0  0  0  0  0  0  0  0  0  0  0  0
  144.9558  136.2972  153.9658 H   0  0  0  0  0  0  0  0  0  0  0  0
  144.3026  136.5688  151.6889 H   0  0  0  0  0  0  0  0  0  0  0  0
  145.5853  135.5075  151.1246 H   0  0  0  0  0  0  0  0  0  0  0  0
  142.0490  135.4084  152.0164 H   0  0  0  0  0  0  0  0  0  0  0  0
  142.7033  135.3464  153.6500 H   0  0  0  0  0  0  0  0  0  0  0  0
  142.0305  133.8965  152.9185 H   0  0  0  0  0  0  0  0  0  0  0  0
  143.3668  134.1633  150.0710 H   0  0  0  0  0  0  0  0  0  0  0  0
  143.2767  132.6941  151.0395 H   0  0  0  0  0  0  0  0  0  0  0  0
  144.8371  133.2845  150.4851 H   0  0  0  0  0  0  0  0  0  0  0  0
  147.9773  134.0704  153.4276 H   0  0  0  0  0  0  0  0  0  0  0  0
  147.0662  133.7525  151.9536 H   0  0  0  0  0  0  0  0  0  0  0  0
  147.0671  132.5781  153.2591 H   0  0  0  0  0  0  0  0  0  0  0  0
  146.6515  134.6161  155.6548 H   0  0  0  0  0  0  0  0  0  0  0  0
  145.8370  133.0693  155.4497 H   0  0  0  0  0  0  0  0  0  0  0  0
  144.8916  134.5411  155.6301 H   0  0  0  0  0  0  0  0  0  0  0  0
  1  2  1  0  0  0  0
  1 22  1  0  0  0  0
  1 23  1  0  0  0  0
  1 24  1  0  0  0  0
  2  3  1  0  0  0  0
  2 25  1  0  0  0  0
  2 26  1  0  0  0  0
  3  8  1  0  0  0  0
  3  4  2  0  0  0  0
  4  5  1  0  0  0  0
  5  6  1  0  0  0  0
  6  7  1  0  0  0  0
  6  8  2  0  0  0  0
  7 27  1  0  0  0  0
  7 28  1  0  0  0  0
  7 29  1  0  0  0  0
  8  9  1  0  0  0  0
  9 10  1  0  0  0  0
  9 30  1  0  0  0  0
 10 11  2  0  0  0  0
 10 12  1  0  0  0  0
 12 13  1  0  0  0  0
 12 31  1  0  0  0  0
 13 19  1  0  0  0  0
 13 14  1  0  0  0  0
 13 32  1  0  0  0  0
 14 15  1  0  0  0  0
 14 33  1  0  0  0  0
 14 34  1  0  0  0  0
 15 16  1  0  0  0  0
 15 17  1  0  0  0  0
 15 18  1  0  0  0  0
 16 35  1  0  0  0  0
 16 36  1  0  0  0  0
 16 37  1  0  0  0  0
 17 38  1  0  0  0  0
 17 39  1  0  0  0  0
 17 40  1  0  0  0  0
 18 19  1  0  0  0  0
 19 20  1  0  0  0  0
 19 21  1  0  0  0  0
 20 41  1  0  0  0  0
 20 42  1  0  0  0  0
 20 43  1  0  0  0  0
 21 44  1  0  0  0  0
 21 45  1  0  0  0  0
 21 46  1  0  0  0  0
M  END
> <s_m_source_file>
AV-unprocessed.smi

> <i_m_source_file_index>
2996

> <i_lp_mmshare_version>
43012

> <i_f3d_flags>
0

> <s_epik_input>
W0NIM11bQ0gyXWMxbm9jKFtDSDNdKWMxW05IXUMoPU8pW05IXVtDQEBIXShDKE8yKShbQ0gzXSlbQ0gzXSlbQ0gyXUMyKFtDSDNdKVtDSDNd

> <s_epik_cmdline>
J2VwaWtfcHl0aG9uJywgJy1waCcsICc3LjAnLCAnLXRuJywgJzgnLCAnLW1hJywgJzIwMCcsICctbWV0YWxfYmluZGluZycsICctaW1hZScsICc8aW5maWxlLm1hZT4nLCAnLW9tYWUnLCAnPG91dGZpbGUubWFlPic=

> <r_lp_tautomer_probability>
1

> <r_epik_Ionization_Penalty>
3.17207e-05

> <r_epik_Ionization_Penalty_Charging>
0

> <r_epik_Ionization_Penalty_Neutral>
3.17207e-05

> <r_epik_State_Penalty>
-0

> <r_epik_Charging_Adjusted_Penalty>
0

> <i_epik_Tot_Q>
0

> <i_epik_Tot_abs_Q>
0

> <r_epik_Metal_State_Penalty>
-0

> <b_epik_Metal_Only>
0

> <s_lp_Force_Field>
OPLS_2005

> <r_lp_Energy>
17.4613

> <b_lp_Chiralities_Consistent>
1

> <s_lp_Variant>
AV-unprocessed.smi:2996-2

> <Gold.Version>
5.8.1

> <Gold.Id.Protein>
6NUR|6NUR_protein|mol2

> <Gold.PLP.Fitness>
39.3862

> <Gold.PLP.PLP>
-31.6374

> <Gold.PLP.part.hbond>
-3.9835

> <Gold.PLP.part.metal>
0.0000

> <Gold.PLP.part.buried>
-0.8060

> <Gold.PLP.part.nonpolar>
-27.0562

> <Gold.PLP.part.repulsive>
0.4798

> <Gold.PLP.ligand.clash>
0.0000

> <Gold.PLP.ligand.torsion>
0.4236

> <Gold.PLP.Chemscore.Hbond>
2.7940

> <Gold.PLP.Chemscore.CHOScore>
0.0000

> <Gold.PLP.Chemscore.Metal>
0.0000

> <Gold.Chemscore.Hbonds>
donor molecule, donor type, donor heavy atom, donor atom, acceptor molecule, acceptor atom, score
      L1  H     9    30       P1  7948  0.93
      L1  H    12    31       P1  7948  0.97
      P1  H  7989  7998       L1     4  0.90

> <Gold.PLP.Chemscore.Internal.Correction>
0.2140

> <Gold.Rescore>
     Score         DG    S(hbond)    S(metal)    S(lipo)     H(rot)  DE(clash)    DE(int)     intcor
     17.06     -17.50       1.91        0.00      73.60       1.16       0.05       0.39       ----

> <Gold.Chemscore.Fitness>
17.0585

> <Gold.Chemscore.DG>
-17.5019

> <Gold.Chemscore.ZeroCoef>
-5.4800

> <Gold.Chemscore.Hbond>
1.9095

> <Gold.Chemscore.Metal>
0.0000

> <Gold.Chemscore.Lipo>
73.6007

> <Gold.Chemscore.Internal_Hbond>
0.0000

> <Gold.Chemscore.DEClash>
0.0540

> <Gold.Chemscore.DEInternal>
0.3894

> <Gold.Chemscore.Rot>
1.1590

> <Gold.Chemscore.Internal.Correction>
   9.000000E+99

> <Gold.Chemscore.Hbonds>
donor molecule, donor type, donor heavy atom, donor atom, acceptor molecule, acceptor atom, score
      L1  H     9    30       P1  7948  0.88
      L1  H    12    31       P1  7948  0.86
      P1  H  7989  7998       L1     4  0.07

> <Gold.Chemscore.Hbond.Weighted>
-6.3777

> <Gold.Chemscore.Metal.Weighted>
-0.0000

> <Gold.Chemscore.Lipo.Weighted>
-8.6113

> <Gold.Chemscore.Internal_Hbond.Weighted>
0.0000

> <Gold.Chemscore.DEClash.Weighted>
0.0540

> <Gold.Chemscore.DEInternal.Weighted>
0.3894

> <Gold.Chemscore.Rot.Weighted>
2.9671

> <Gold.Chemscore.Internal.Correction.Weighted>
   9.000000E+99

> <Gold.Protein.RotatedTorsions>
[ 6907 6896 6895 6894 ] final   72.18 input  -60.11 | X-H torsion
[ 7974 7965 7964 7962 ] final  106.00 input  175.53 | X-H torsion
[ 8008 7997 7996 7995 ] final -118.99 input   59.86 | X-H torsion
[ 10167 10162 10161 10158 ] final  -95.36 input  -65.29 | X-H torsion
[ 10718 10713 10712 10709 ] final  161.10 input   66.30 | X-H torsion
[ 10763 10752 10751 10750 ] final  -12.38 input  -60.55 | X-H torsion
[ 11005 11000 10999 10996 ] final  105.76 input  -57.11 | X-H torsion

> <Gold.Protein.ActiveResidues>
 VAL166  LYS551  ARG553  GLY616  TRP617  ASP618  TYR619  PRO620  LYS621  CYS622 
 ASP623  PHE694  ASN695  SER759  ASP760  ASP761  ALA762  ILE779  LEU786  VAL792 
 PHE793  MET794  SER795  GLU796  ALA797  LYS798  CYS799  TRP800  GLU811  SER814 

> <Gold.Protein.RotatedAtoms>
  152.4853  134.4609  159.9604 H   0  0  0  0  0  0  0  0  0  0  0  0  # atno 6907 bound_to 6896
  151.4607  133.3587  159.2816 H   0  0  0  0  0  0  0  0  0  0  0  0  # atno 6908 bound_to 6896
  150.8958  134.8391  159.7386 H   0  0  0  0  0  0  0  0  0  0  0  0  # atno 6909 bound_to 6896
  145.3123  139.2537  143.3756 H   0  0  0  0  0  0  0  0  0  0  0  0  # atno 7974 bound_to 7965
  155.1085  140.0397  157.2717 H   0  0  0  0  0  0  0  0  0  0  0  0  # atno 8008 bound_to 7997
  154.6703  140.2611  155.6988 H   0  0  0  0  0  0  0  0  0  0  0  0  # atno 8009 bound_to 7997
  156.2655  140.2799  156.1210 H   0  0  0  0  0  0  0  0  0  0  0  0  # atno 8010 bound_to 7997
  140.3050  143.3139  152.0208 H   0  0  0  0  0  0  0  0  0  0  0  0  # atno 10167 bound_to 10162
  157.1413  131.0541  151.2325 H   0  0  0  0  0  0  0  0  0  0  0  0  # atno 10718 bound_to 10713
  153.4977  135.7017  153.5849 H   0  0  0  0  0  0  0  0  0  0  0  0  # atno 10763 bound_to 10752
  153.3994  135.3876  155.1977 H   0  0  0  0  0  0  0  0  0  0  0  0  # atno 10764 bound_to 10752
  154.8713  135.3878  154.4444 H   0  0  0  0  0  0  0  0  0  0  0  0  # atno 10765 bound_to 10752
  139.8806  134.9347  156.5563 H   0  0  0  0  0  0  0  0  0  0  0  0  # atno 11005 bound_to 11000
  146.3113  140.3661  142.8669 LP  0  0  0  0  0  0  0  0  0  0  0  0  # atno 17320 bound_to 7965
  144.9006  140.7638  143.5869 LP  0  0  0  0  0  0  0  0  0  0  0  0  # atno 17321 bound_to 7965
  139.4906  144.6427  151.6842 LP  0  0  0  0  0  0  0  0  0  0  0  0  # atno 17342 bound_to 10162
  140.5618  144.0256  150.6173 LP  0  0  0  0  0  0  0  0  0  0  0  0  # atno 17343 bound_to 10162
  157.4305  130.7488  149.6986 LP  0  0  0  0  0  0  0  0  0  0  0  0  # atno 17370 bound_to 10713
  155.9788  130.4047  150.3626 LP  0  0  0  0  0  0  0  0  0  0  0  0  # atno 17371 bound_to 10713
  140.8202  133.8359  155.8889 LP  0  0  0  0  0  0  0  0  0  0  0  0  # atno 17394 bound_to 11000
  140.9425  134.1882  157.4787 LP  0  0  0  0  0  0  0  0  0  0  0  0  # atno 17395 bound_to 11000

$$$$
