AV-unprocessed.smi:1749|AV-procd|sdf|7051|dock7
  -GOLD-   22720 8263D 1   1.00000     0.00000
 Structure written by MMmdl.
 31 32  0  0  0  0  0  0  0  0  2 V2000
  152.8708  142.5384  162.3429 C   0  0  0  0  0  0  0  0  0  0  0  0
  152.2995  142.9472  160.9780 C   0  0  1  0  0  0  0  0  0  0  0  0
  151.8948  144.4337  160.9588 C   0  0  0  0  0  0  0  0  0  0  0  0
  151.3273  144.8477  159.5919 C   0  0  0  0  0  0  0  0  0  0  0  0
  152.3205  144.5413  158.4582 C   0  0  0  0  0  0  0  0  0  0  0  0
  152.7546  143.0606  158.4546 C   0  0  2  0  0  0  0  0  0  0  0  0
  151.6479  142.1875  158.0694 N   0  0  0  0  0  0  0  0  0  0  0  0
  151.7152  140.8742  157.7779 C   0  0  0  0  0  0  0  0  0  0  0  0
  152.8027  140.3028  157.8442 O   0  0  0  0  0  0  0  0  0  0  0  0
  150.5629  140.2477  157.4205 N   0  5  0  0  0  0  0  0  0  0  0  0
  150.4817  139.4454  156.3425 C   0  0  0  0  0  0  0  0  0  0  0  0
  149.3608  138.7781  156.0246 N   0  0  0  0  0  0  0  0  0  0  0  0
  149.4951  137.9971  154.8847 N   0  0  0  0  0  0  0  0  0  0  0  0
  150.7165  138.1050  154.3630 C   0  0  0  0  0  0  0  0  0  0  0  0
  151.8138  139.1687  155.2172 S   0  0  0  0  0  0  0  0  0  0  0  0
  153.2942  142.6434  159.8371 C   0  0  0  0  0  0  0  0  0  0  0  0
  153.7777  143.0970  162.5766 H   0  0  0  0  0  0  0  0  0  0  0  0
  153.1187  141.4768  162.3621 H   0  0  0  0  0  0  0  0  0  0  0  0
  152.1508  142.7228  163.1407 H   0  0  0  0  0  0  0  0  0  0  0  0
  151.3994  142.3527  160.8131 H   0  0  0  0  0  0  0  0  0  0  0  0
  151.1538  144.6291  161.7346 H   0  0  0  0  0  0  0  0  0  0  0  0
  152.7600  145.0546  161.1950 H   0  0  0  0  0  0  0  0  0  0  0  0
  150.3879  144.3234  159.4108 H   0  0  0  0  0  0  0  0  0  0  0  0
  151.0883  145.9114  159.5964 H   0  0  0  0  0  0  0  0  0  0  0  0
  151.8845  144.8138  157.4964 H   0  0  0  0  0  0  0  0  0  0  0  0
  153.2026  145.1710  158.5786 H   0  0  0  0  0  0  0  0  0  0  0  0
  153.5605  142.9330  157.7298 H   0  0  0  0  0  0  0  0  0  0  0  0
  150.7405  142.6242  157.9999 H   0  0  0  0  0  0  0  0  0  0  0  0
  150.9726  137.5559  153.4694 H   0  0  0  0  0  0  0  0  0  0  0  0
  154.2297  143.1718  160.0258 H   0  0  0  0  0  0  0  0  0  0  0  0
  153.5434  141.5813  159.8309 H   0  0  0  0  0  0  0  0  0  0  0  0
  1  2  1  0  0  0  0
  1 17  1  0  0  0  0
  1 18  1  0  0  0  0
  1 19  1  0  0  0  0
  2 16  1  0  0  0  0
  2  3  1  0  0  0  0
  2 20  1  0  0  0  0
  3  4  1  0  0  0  0
  3 21  1  0  0  0  0
  3 22  1  0  0  0  0
  4  5  1  0  0  0  0
  4 23  1  0  0  0  0
  4 24  1  0  0  0  0
  5  6  1  0  0  0  0
  5 25  1  0  0  0  0
  5 26  1  0  0  0  0
  6  7  1  0  0  0  0
  6 16  1  0  0  0  0
  6 27  1  0  0  0  0
  7  8  1  0  0  0  0
  7 28  1  0  0  0  0
  8  9  2  0  0  0  0
  8 10  1  0  0  0  0
 10 11  1  0  0  0  0
 11 15  1  0  0  0  0
 11 12  2  0  0  0  0
 12 13  1  0  0  0  0
 13 14  2  0  0  0  0
 14 15  1  0  0  0  0
 14 29  1  0  0  0  0
 16 30  1  0  0  0  0
 16 31  1  0  0  0  0
M  CHG  1  10  -1
M  END
> <s_m_source_file>
AV-unprocessed.smi

> <i_m_source_file_index>
1749

> <i_lp_mmshare_version>
43012

> <i_f3d_flags>
0

> <s_epik_input>
W0NIM11bQ0BASF0xW0NIMl1bQ0gyXVtDSDJdW0NASF0oW0NIMl0xKVtOSF1DKD1PKVtOSF1jMm5uW2NIXXMy

> <s_epik_cmdline>
J2VwaWtfcHl0aG9uJywgJy1waCcsICc3LjAnLCAnLXRuJywgJzgnLCAnLW1hJywgJzIwMCcsICctbWV0YWxfYmluZGluZycsICctaW1hZScsICc8aW5maWxlLm1hZT4nLCAnLW9tYWUnLCAnPG91dGZpbGUubWFlPic=

> <r_lp_tautomer_probability>
1

> <r_epik_Ionization_Penalty>
4.55442

> <r_epik_Ionization_Penalty_Charging>
4.5081

> <r_epik_Ionization_Penalty_Neutral>
0.0463156

> <r_epik_State_Penalty>
4.50781

> <r_epik_Charging_Adjusted_Penalty>
9.01591

> <i_epik_Tot_Q>
-1

> <i_epik_Tot_abs_Q>
1

> <r_epik_Metal_State_Penalty>
0.823335

> <b_epik_Metal_Only>
1

> <s_lp_Force_Field>
OPLS_2005

> <r_lp_Energy>
7.79441

> <b_lp_Chiralities_Consistent>
1

> <s_lp_Variant>
AV-unprocessed.smi:1749-8

> <Gold.Version>
5.8.1

> <Gold.Id.Protein>
6NUR|6NUR_protein|mol2

> <Gold.PLP.Fitness>
41.9919

> <Gold.PLP.PLP>
-36.9365

> <Gold.PLP.part.hbond>
-1.0000

> <Gold.PLP.part.metal>
0.0000

> <Gold.PLP.part.buried>
-4.1807

> <Gold.PLP.part.nonpolar>
-32.3457

> <Gold.PLP.part.repulsive>
0.2159

> <Gold.PLP.ligand.clash>
0.0000

> <Gold.PLP.ligand.torsion>
0.4888

> <Gold.PLP.Chemscore.Hbond>
0.9440

> <Gold.PLP.Chemscore.CHOScore>
1.0633

> <Gold.PLP.Chemscore.Metal>
0.0000

> <Gold.Chemscore.Hbonds>
donor molecule, donor type, donor heavy atom, donor atom, acceptor molecule, acceptor atom, score
      P1  H  7997  8008       L1     9  0.94
      L1  C    14    29       P1  7948  0.06
      L1  C    14    29       P1  7949  1.00

> <Gold.PLP.Chemscore.Internal.Correction>
0.0112

> <Gold.Rescore>
     Score         DG    S(hbond)    S(metal)    S(lipo)     H(rot)  DE(clash)    DE(int)     intcor
     15.69     -17.64       0.92        0.00      99.52       1.00       0.44       1.52       ----

> <Gold.Chemscore.Fitness>
15.6881

> <Gold.Chemscore.DG>
-17.6431

> <Gold.Chemscore.ZeroCoef>
-5.4800

> <Gold.Chemscore.Hbond>
0.9220

> <Gold.Chemscore.Metal>
0.0000

> <Gold.Chemscore.Lipo>
99.5168

> <Gold.Chemscore.Internal_Hbond>
0.0000

> <Gold.Chemscore.DEClash>
0.4386

> <Gold.Chemscore.DEInternal>
1.5164

> <Gold.Chemscore.Rot>
1.0000

> <Gold.Chemscore.Internal.Correction>
   9.000000E+99

> <Gold.Chemscore.Hbonds>
donor molecule, donor type, donor heavy atom, donor atom, acceptor molecule, acceptor atom, score
      P1  H  7997  8008       L1     9  0.90

> <Gold.Chemscore.Hbond.Weighted>
-3.0796

> <Gold.Chemscore.Metal.Weighted>
-0.0000

> <Gold.Chemscore.Lipo.Weighted>
-11.6435

> <Gold.Chemscore.Internal_Hbond.Weighted>
0.0000

> <Gold.Chemscore.DEClash.Weighted>
0.4386

> <Gold.Chemscore.DEInternal.Weighted>
1.5164

> <Gold.Chemscore.Rot.Weighted>
2.5600

> <Gold.Chemscore.Internal.Correction.Weighted>
   9.000000E+99

> <Gold.Protein.RotatedTorsions>
[ 6907 6896 6895 6894 ] final -138.40 input  -60.11 | X-H torsion
[ 7974 7965 7964 7962 ] final -119.51 input  175.53 | X-H torsion
[ 8008 7997 7996 7995 ] final  -74.46 input   59.86 | X-H torsion
[ 10167 10162 10161 10158 ] final  147.66 input  -65.29 | X-H torsion
[ 10718 10713 10712 10709 ] final -114.97 input   66.30 | X-H torsion
[ 10763 10752 10751 10750 ] final -102.40 input  -60.55 | X-H torsion
[ 11005 11000 10999 10996 ] final -104.42 input  -57.11 | X-H torsion

> <Gold.Protein.ActiveResidues>
 VAL166  LYS551  ARG553  GLY616  TRP617  ASP618  TYR619  PRO620  LYS621  CYS622 
 ASP623  PHE694  ASN695  SER759  ASP760  ASP761  ALA762  ILE779  LEU786  VAL792 
 PHE793  MET794  SER795  GLU796  ALA797  LYS798  CYS799  TRP800  GLU811  SER814 

> <Gold.Protein.RotatedAtoms>
  151.0345  133.5760  159.2657 H   0  0  0  0  0  0  0  0  0  0  0  0  # atno 6907 bound_to 6896
  151.2830  135.0718  159.9186 H   0  0  0  0  0  0  0  0  0  0  0  0  # atno 6908 bound_to 6896
  152.5352  134.0057  159.7969 H   0  0  0  0  0  0  0  0  0  0  0  0  # atno 6909 bound_to 6896
  145.0617  140.8295  143.4148 H   0  0  0  0  0  0  0  0  0  0  0  0  # atno 7974 bound_to 7965
  154.5333  140.0761  156.8383 H   0  0  0  0  0  0  0  0  0  0  0  0  # atno 8008 bound_to 7997
  155.3330  140.3403  155.4221 H   0  0  0  0  0  0  0  0  0  0  0  0  # atno 8009 bound_to 7997
  156.1803  140.1650  156.8274 H   0  0  0  0  0  0  0  0  0  0  0  0  # atno 8010 bound_to 7997
  139.4886  144.5738  151.7003 H   0  0  0  0  0  0  0  0  0  0  0  0  # atno 10167 bound_to 10162
  156.0865  130.6056  150.8845 H   0  0  0  0  0  0  0  0  0  0  0  0  # atno 10718 bound_to 10713
  154.7731  135.4862  153.9688 H   0  0  0  0  0  0  0  0  0  0  0  0  # atno 10763 bound_to 10752
  153.1393  135.6769  153.9060 H   0  0  0  0  0  0  0  0  0  0  0  0  # atno 10764 bound_to 10752
  153.8739  135.3140  155.3421 H   0  0  0  0  0  0  0  0  0  0  0  0  # atno 10765 bound_to 10752
  141.1101  133.8721  157.1608 H   0  0  0  0  0  0  0  0  0  0  0  0  # atno 11005 bound_to 11000
  145.1401  139.2578  143.5495 LP  0  0  0  0  0  0  0  0  0  0  0  0  # atno 17320 bound_to 7965
  146.3524  140.1076  142.8605 LP  0  0  0  0  0  0  0  0  0  0  0  0  # atno 17321 bound_to 7965
  140.5331  144.0699  150.6060 LP  0  0  0  0  0  0  0  0  0  0  0  0  # atno 17342 bound_to 10162
  140.3696  143.2862  152.0293 LP  0  0  0  0  0  0  0  0  0  0  0  0  # atno 17343 bound_to 10162
  157.6001  131.0941  150.8975 LP  0  0  0  0  0  0  0  0  0  0  0  0  # atno 17370 bound_to 10713
  156.9134  130.5289  149.5280 LP  0  0  0  0  0  0  0  0  0  0  0  0  # atno 17371 bound_to 10713
  139.9991  135.0035  157.0149 LP  0  0  0  0  0  0  0  0  0  0  0  0  # atno 17394 bound_to 11000
  140.4797  134.1302  155.7215 LP  0  0  0  0  0  0  0  0  0  0  0  0  # atno 17395 bound_to 11000

$$$$
