AV-unprocessed.smi:1701|AV-procd|sdf|6836|dock2
  -GOLD-   22720 8 13D 1   1.00000     0.00000
 Structure written by MMmdl.
 54 56  0  0  0  0  0  0  0  0  2 V2000
  152.3942  140.2558  158.8070 C   0  0  0  0  0  0  0  0  0  0  0  0
  150.8667  140.3242  158.6663 C   0  0  0  0  0  0  0  0  0  0  0  0
  150.4300  140.6864  157.3176 N   0  0  0  0  0  0  0  0  0  0  0  0
  150.8647  141.9646  156.7481 C   0  0  0  0  0  0  0  0  0  0  0  0
  151.3914  142.9475  157.8051 C   0  0  0  0  0  0  0  0  0  0  0  0
  149.7332  139.7533  156.5097 C   0  0  0  0  0  0  0  0  0  0  0  0
  148.9069  138.7469  157.0709 C   0  0  0  0  0  0  0  0  0  0  0  0
  148.2355  137.8464  156.2221 C   0  0  0  0  0  0  0  0  0  0  0  0
  148.4074  137.9627  154.8241 C   0  0  0  0  0  0  0  0  0  0  0  0
  147.7729  137.1317  153.8619 N   0  0  0  0  0  0  0  0  0  0  0  0
  146.6982  136.3327  154.0121 C   0  0  0  0  0  0  0  0  0  0  0  0
  146.0939  136.1594  155.0677 O   0  0  0  0  0  0  0  0  0  0  0  0
  146.3328  135.6860  152.8910 N   0  0  0  0  0  0  0  0  0  0  0  0
  145.2203  134.7518  152.7118 C   0  0  1  0  0  0  0  0  0  0  0  0
  143.9486  135.1351  153.4873 C   0  0  0  0  0  0  0  0  0  0  0  0
  142.7763  134.8163  152.5386 C   0  0  0  0  0  0  0  0  0  0  0  0
  143.3623  134.1768  151.3386 N   0  3  2  0  0  0  0  0  0  0  0  0
  143.2839  132.6913  151.4008 C   0  0  0  0  0  0  0  0  0  0  0  0
  144.0939  132.0228  150.2827 C   0  0  0  0  0  0  0  0  0  0  0  0
  145.5586  132.4614  150.3569 C   0  0  0  0  0  0  0  0  0  0  0  0
  145.6423  133.9876  150.2433 C   0  0  0  0  0  0  0  0  0  0  0  0
  144.7383  134.7238  151.2577 C   0  0  2  0  0  0  0  0  0  0  0  0
  149.2364  138.9997  154.3561 C   0  0  0  0  0  0  0  0  0  0  0  0
  149.8811  139.8638  155.1665 N   0  0  0  0  0  0  0  0  0  0  0  0
  152.6710  139.9292  159.8095 H   0  0  0  0  0  0  0  0  0  0  0  0
  152.8532  141.2302  158.6447 H   0  0  0  0  0  0  0  0  0  0  0  0
  152.8333  139.5541  158.0977 H   0  0  0  0  0  0  0  0  0  0  0  0
  150.4101  139.3839  158.9745 H   0  0  0  0  0  0  0  0  0  0  0  0
  150.4811  141.0657  159.3666 H   0  0  0  0  0  0  0  0  0  0  0  0
  151.6208  141.7955  155.9810 H   0  0  0  0  0  0  0  0  0  0  0  0
  150.0234  142.4243  156.2291 H   0  0  0  0  0  0  0  0  0  0  0  0
  151.6938  143.8845  157.3373 H   0  0  0  0  0  0  0  0  0  0  0  0
  152.2599  142.5472  158.3281 H   0  0  0  0  0  0  0  0  0  0  0  0
  150.6334  143.1834  158.5506 H   0  0  0  0  0  0  0  0  0  0  0  0
  148.7746  138.6391  158.1361 H   0  0  0  0  0  0  0  0  0  0  0  0
  147.5965  137.0974  156.6627 H   0  0  0  0  0  0  0  0  0  0  0  0
  148.2173  137.1076  152.9560 H   0  0  0  0  0  0  0  0  0  0  0  0
  146.9102  135.8440  152.0775 H   0  0  0  0  0  0  0  0  0  0  0  0
  145.5319  133.7470  153.0022 H   0  0  0  0  0  0  0  0  0  0  0  0
  143.8765  134.5721  154.4186 H   0  0  0  0  0  0  0  0  0  0  0  0
  143.9395  136.1953  153.7449 H   0  0  0  0  0  0  0  0  0  0  0  0
  142.0119  134.1987  153.0126 H   0  0  0  0  0  0  0  0  0  0  0  0
  142.2943  135.7448  152.2299 H   0  0  0  0  0  0  0  0  0  0  0  0
  143.6456  132.3395  152.3684 H   0  0  0  0  0  0  0  0  0  0  0  0
  142.2385  132.3884  151.3315 H   0  0  0  0  0  0  0  0  0  0  0  0
  144.0254  130.9382  150.3723 H   0  0  0  0  0  0  0  0  0  0  0  0
  143.6740  132.2826  149.3100 H   0  0  0  0  0  0  0  0  0  0  0  0
  146.0038  132.1262  151.2944 H   0  0  0  0  0  0  0  0  0  0  0  0
  146.1326  131.9946  149.5559 H   0  0  0  0  0  0  0  0  0  0  0  0
  146.6763  134.3166  150.3510 H   0  0  0  0  0  0  0  0  0  0  0  0
  145.3407  134.2750  149.2353 H   0  0  0  0  0  0  0  0  0  0  0  0
  144.6406  135.7574  150.9187 H   0  0  0  0  0  0  0  0  0  0  0  0
  149.3921  139.1418  153.2966 H   0  0  0  0  0  0  0  0  0  0  0  0
  142.8487  134.4689  150.5191 H   0  0  0  0  0  0  0  0  0  0  0  0
  1  2  1  0  0  0  0
  1 25  1  0  0  0  0
  1 26  1  0  0  0  0
  1 27  1  0  0  0  0
  2  3  1  0  0  0  0
  2 28  1  0  0  0  0
  2 29  1  0  0  0  0
  3  4  1  0  0  0  0
  3  6  1  0  0  0  0
  4  5  1  0  0  0  0
  4 30  1  0  0  0  0
  4 31  1  0  0  0  0
  5 32  1  0  0  0  0
  5 33  1  0  0  0  0
  5 34  1  0  0  0  0
  6 24  1  0  0  0  0
  6  7  2  0  0  0  0
  7  8  1  0  0  0  0
  7 35  1  0  0  0  0
  8  9  2  0  0  0  0
  8 36  1  0  0  0  0
  9 10  1  0  0  0  0
  9 23  1  0  0  0  0
 10 11  1  0  0  0  0
 10 37  1  0  0  0  0
 11 12  2  0  0  0  0
 11 13  1  0  0  0  0
 13 14  1  0  0  0  0
 13 38  1  0  0  0  0
 14 22  1  0  0  0  0
 14 15  1  0  0  0  0
 14 39  1  0  0  0  0
 15 16  1  0  0  0  0
 15 40  1  0  0  0  0
 15 41  1  0  0  0  0
 16 17  1  0  0  0  0
 16 42  1  0  0  0  0
 16 43  1  0  0  0  0
 17 22  1  0  0  0  0
 17 18  1  0  0  0  0
 17 54  1  0  0  0  0
 18 19  1  0  0  0  0
 18 44  1  0  0  0  0
 18 45  1  0  0  0  0
 19 20  1  0  0  0  0
 19 46  1  0  0  0  0
 19 47  1  0  0  0  0
 20 21  1  0  0  0  0
 20 48  1  0  0  0  0
 20 49  1  0  0  0  0
 21 22  1  0  0  0  0
 21 50  1  0  0  0  0
 21 51  1  0  0  0  0
 22 52  1  0  0  0  0
 23 24  2  0  0  0  0
 23 53  1  0  0  0  0
M  CHG  1  17   1
M  END
> <s_m_source_file>
AV-unprocessed.smi

> <i_m_source_file_index>
1701

> <i_lp_mmshare_version>
43012

> <i_f3d_flags>
0

> <s_epik_input>
W0NIM11bQ0gyXU4oW0NIMl1bQ0gzXSljMVtjSF1bY0hdYyhbY0hdbjEpW05IXUMoPU8pW05IXVtDQEhdKFtDSDJdW0NIMl0yKVtDQEBIXShOMjMpW0NIMl1bQ0gyXVtDSDJdW0NIMl0z

> <s_epik_cmdline>
J2VwaWtfcHl0aG9uJywgJy1waCcsICc3LjAnLCAnLXRuJywgJzgnLCAnLW1hJywgJzIwMCcsICctbWV0YWxfYmluZGluZycsICctaW1hZScsICc8aW5maWxlLm1hZT4nLCAnLW9tYWUnLCAnPG91dGZpbGUubWFlPic=

> <r_lp_tautomer_probability>
1

> <r_epik_Ionization_Penalty>
0.56662

> <r_epik_Ionization_Penalty_Charging>
0.000974069

> <r_epik_Ionization_Penalty_Neutral>
0.565646

> <r_epik_State_Penalty>
2.0247

> <r_epik_Charging_Adjusted_Penalty>
2.02568

> <i_epik_Tot_Q>
1

> <i_epik_Tot_abs_Q>
1

> <r_epik_Metal_State_Penalty>
1.51504

> <b_epik_Metal_Only>
0

> <s_lp_Force_Field>
OPLS_2005

> <r_lp_Energy>
57.4509

> <b_lp_Chiralities_Consistent>
1

> <s_lp_Variant>
AV-unprocessed.smi:1701-16

> <Gold.Version>
5.8.1

> <Gold.Id.Protein>
6NUR|6NUR_protein|mol2

> <Gold.PLP.Fitness>
43.5388

> <Gold.PLP.PLP>
-32.2517

> <Gold.PLP.part.hbond>
-2.8620

> <Gold.PLP.part.metal>
0.0000

> <Gold.PLP.part.buried>
-2.9845

> <Gold.PLP.part.nonpolar>
-27.0105

> <Gold.PLP.part.repulsive>
0.0925

> <Gold.PLP.ligand.clash>
0.0000

> <Gold.PLP.ligand.torsion>
0.8753

> <Gold.PLP.Chemscore.Hbond>
3.2940

> <Gold.PLP.Chemscore.CHOScore>
1.0000

> <Gold.PLP.Chemscore.Metal>
0.0000

> <Gold.Chemscore.Hbonds>
donor molecule, donor type, donor heavy atom, donor atom, acceptor molecule, acceptor atom, score
      L1  H    10    37       P1  7948  0.96
      L1  H    13    38       P1  7948  0.61
      L1  H    17    54       P1 10186  1.63
      L1  C    23    53       P1  7957  1.00

> <Gold.PLP.Chemscore.Internal.Correction>
0.1558

> <Gold.Rescore>
     Score         DG    S(hbond)    S(metal)    S(lipo)     H(rot)  DE(clash)    DE(int)     intcor
     15.29     -18.67       1.88        0.00      87.12       1.28       0.01       3.36       ----

> <Gold.Chemscore.Fitness>
15.2919

> <Gold.Chemscore.DG>
-18.6676

> <Gold.Chemscore.ZeroCoef>
-5.4800

> <Gold.Chemscore.Hbond>
1.8805

> <Gold.Chemscore.Metal>
0.0000

> <Gold.Chemscore.Lipo>
87.1219

> <Gold.Chemscore.Internal_Hbond>
0.0000

> <Gold.Chemscore.DEClash>
0.0147

> <Gold.Chemscore.DEInternal>
3.3610

> <Gold.Chemscore.Rot>
1.2838

> <Gold.Chemscore.Internal.Correction>
   9.000000E+99

> <Gold.Chemscore.Hbonds>
donor molecule, donor type, donor heavy atom, donor atom, acceptor molecule, acceptor atom, score
      L1  H    10    37       P1  7948  0.90
      L1  H    13    38       P1  7948  0.57
      L1  H    17    54       P1 10186  0.38

> <Gold.Chemscore.Hbond.Weighted>
-6.2809

> <Gold.Chemscore.Metal.Weighted>
-0.0000

> <Gold.Chemscore.Lipo.Weighted>
-10.1933

> <Gold.Chemscore.Internal_Hbond.Weighted>
0.0000

> <Gold.Chemscore.DEClash.Weighted>
0.0147

> <Gold.Chemscore.DEInternal.Weighted>
3.3610

> <Gold.Chemscore.Rot.Weighted>
3.2865

> <Gold.Chemscore.Internal.Correction.Weighted>
   9.000000E+99

> <Gold.Protein.RotatedTorsions>
[ 6907 6896 6895 6894 ] final  -56.27 input  -60.11 | X-H torsion
[ 7974 7965 7964 7962 ] final   66.56 input  175.53 | X-H torsion
[ 8008 7997 7996 7995 ] final    2.05 input   59.86 | X-H torsion
[ 10167 10162 10161 10158 ] final    3.45 input  -65.29 | X-H torsion
[ 10718 10713 10712 10709 ] final -179.85 input   66.30 | X-H torsion
[ 10763 10752 10751 10750 ] final  162.83 input  -60.55 | X-H torsion
[ 11005 11000 10999 10996 ] final  164.29 input  -57.11 | X-H torsion

> <Gold.Protein.ActiveResidues>
 VAL166  LYS551  ARG553  GLY616  TRP617  ASP618  TYR619  PRO620  LYS621  CYS622 
 ASP623  PHE694  ASN695  SER759  ASP760  ASP761  ALA762  ILE779  LEU786  VAL792 
 PHE793  MET794  SER795  GLU796  ALA797  LYS798  CYS799  TRP800  GLU811  SER814 

> <Gold.Protein.RotatedAtoms>
  150.8181  134.7375  159.6747 H   0  0  0  0  0  0  0  0  0  0  0  0  # atno 6907 bound_to 6896
  152.4299  134.5794  159.9953 H   0  0  0  0  0  0  0  0  0  0  0  0  # atno 6908 bound_to 6896
  151.5986  133.3321  159.3078 H   0  0  0  0  0  0  0  0  0  0  0  0  # atno 6909 bound_to 6896
  145.8251  139.3107  143.1020 H   0  0  0  0  0  0  0  0  0  0  0  0  # atno 7974 bound_to 7965
  154.6870  140.2645  155.6850 H   0  0  0  0  0  0  0  0  0  0  0  0  # atno 8008 bound_to 7997
  156.2718  140.2799  156.1358 H   0  0  0  0  0  0  0  0  0  0  0  0  # atno 8009 bound_to 7997
  155.0950  140.0374  157.2670 H   0  0  0  0  0  0  0  0  0  0  0  0  # atno 8010 bound_to 7997
  140.6585  143.7366  150.7696 H   0  0  0  0  0  0  0  0  0  0  0  0  # atno 10167 bound_to 10162
  156.8653  130.9765  151.3079 H   0  0  0  0  0  0  0  0  0  0  0  0  # atno 10718 bound_to 10713
  154.2844  135.2762  155.2682 H   0  0  0  0  0  0  0  0  0  0  0  0  # atno 10763 bound_to 10752
  154.5189  135.5762  153.6668 H   0  0  0  0  0  0  0  0  0  0  0  0  # atno 10764 bound_to 10752
  152.9924  135.6199  154.3006 H   0  0  0  0  0  0  0  0  0  0  0  0  # atno 10765 bound_to 10752
  140.2444  134.8026  157.3442 H   0  0  0  0  0  0  0  0  0  0  0  0  # atno 11005 bound_to 11000
  145.9632  140.8819  143.0200 LP  0  0  0  0  0  0  0  0  0  0  0  0  # atno 17320 bound_to 7965
  144.6744  140.1842  143.7403 LP  0  0  0  0  0  0  0  0  0  0  0  0  # atno 17321 bound_to 7965
  140.1030  143.4770  152.2414 LP  0  0  0  0  0  0  0  0  0  0  0  0  # atno 17342 bound_to 10162
  139.5813  144.7511  151.3633 LP  0  0  0  0  0  0  0  0  0  0  0  0  # atno 17343 bound_to 10162
  157.6227  130.8667  149.9136 LP  0  0  0  0  0  0  0  0  0  0  0  0  # atno 17370 bound_to 10713
  156.0755  130.3679  150.0686 LP  0  0  0  0  0  0  0  0  0  0  0  0  # atno 17371 bound_to 10713
  140.1621  134.4715  155.7888 LP  0  0  0  0  0  0  0  0  0  0  0  0  # atno 17394 bound_to 11000
  141.2207  133.6905  156.7562 LP  0  0  0  0  0  0  0  0  0  0  0  0  # atno 17395 bound_to 11000

$$$$
