AV-unprocessed.smi:3266|AV-procd|sdf|12501|dock1
  -GOLD-   2272018403D 1   1.00000     0.00000
 Structure written by MMmdl.
 38 39  0  0  0  0  0  0  0  0  1 V2000
  150.2240  140.3527  154.7302 O   0  0  0  0  0  0  0  0  0  0  0  0
  149.5294  141.3421  154.9643 C   0  0  0  0  0  0  0  0  0  0  0  0
  148.2428  141.5863  154.1720 C   0  0  0  0  0  0  0  0  0  0  0  0
  147.0003  141.6415  155.0780 C   0  0  0  0  0  0  0  0  0  0  0  0
  145.7991  142.3121  154.3962 C   0  0  1  0  0  0  0  0  0  0  0  0
  144.9429  143.1506  155.3402 C   0  0  0  0  0  0  0  0  0  0  0  0
  144.2262  144.0973  154.3939 C   0  0  0  0  0  0  0  0  0  0  0  0
  145.1235  144.1275  153.1516 C   0  0  0  0  0  0  0  0  0  0  0  0
  146.2241  143.2741  153.4438 O   0  0  0  0  0  0  0  0  0  0  0  0
  149.8349  142.2492  155.9045 N   0  0  0  0  0  0  0  0  0  0  0  0
  151.0083  142.1927  156.7710 C   0  0  0  0  0  0  0  0  0  0  0  0
  150.7716  142.8475  158.1463 C   0  0  0  0  0  0  0  0  0  0  0  0
  151.8326  142.5036  159.1791 C   0  0  0  0  0  0  0  0  0  0  0  0
  152.0241  143.3285  160.3082 C   0  0  0  0  0  0  0  0  0  0  0  0
  153.0128  142.9684  161.2442 C   0  0  0  0  0  0  0  0  0  0  0  0
  153.7678  141.8017  161.0177 C   0  0  0  0  0  0  0  0  0  0  0  0
  153.5003  141.0449  159.8594 C   0  0  0  0  0  0  0  0  0  0  0  0
  152.5551  141.3820  158.9558 N   0  0  0  0  0  0  0  0  0  0  0  0
  148.3498  142.5248  153.6265 H   0  0  0  0  0  0  0  0  0  0  0  0
  148.1178  140.8031  153.4226 H   0  0  0  0  0  0  0  0  0  0  0  0
  146.7213  140.6267  155.3655 H   0  0  0  0  0  0  0  0  0  0  0  0
  147.2331  142.1706  156.0035 H   0  0  0  0  0  0  0  0  0  0  0  0
  145.1761  141.5673  153.8976 H   0  0  0  0  0  0  0  0  0  0  0  0
  144.2594  142.5492  155.9403 H   0  0  0  0  0  0  0  0  0  0  0  0
  145.5782  143.7214  156.0191 H   0  0  0  0  0  0  0  0  0  0  0  0
  143.2400  143.7097  154.1360 H   0  0  0  0  0  0  0  0  0  0  0  0
  144.0942  145.0856  154.8351 H   0  0  0  0  0  0  0  0  0  0  0  0
  144.5878  143.7470  152.2810 H   0  0  0  0  0  0  0  0  0  0  0  0
  145.4754  145.1333  152.9209 H   0  0  0  0  0  0  0  0  0  0  0  0
  149.2059  143.0280  156.0362 H   0  0  0  0  0  0  0  0  0  0  0  0
  151.3248  141.1564  156.9001 H   0  0  0  0  0  0  0  0  0  0  0  0
  151.8274  142.6996  156.2602 H   0  0  0  0  0  0  0  0  0  0  0  0
  150.7191  143.9318  158.0375 H   0  0  0  0  0  0  0  0  0  0  0  0
  149.7976  142.5403  158.5288 H   0  0  0  0  0  0  0  0  0  0  0  0
  151.4272  144.2166  160.4555 H   0  0  0  0  0  0  0  0  0  0  0  0
  153.1877  143.5755  162.1200 H   0  0  0  0  0  0  0  0  0  0  0  0
  154.5334  141.4941  161.7144 H   0  0  0  0  0  0  0  0  0  0  0  0
  154.0603  140.1447  159.6536 H   0  0  0  0  0  0  0  0  0  0  0  0
  1  2  2  0  0  0  0
  2  3  1  0  0  0  0
  2 10  1  0  0  0  0
  3  4  1  0  0  0  0
  3 19  1  0  0  0  0
  3 20  1  0  0  0  0
  4  5  1  0  0  0  0
  4 21  1  0  0  0  0
  4 22  1  0  0  0  0
  5  9  1  0  0  0  0
  5  6  1  0  0  0  0
  5 23  1  0  0  0  0
  6  7  1  0  0  0  0
  6 24  1  0  0  0  0
  6 25  1  0  0  0  0
  7  8  1  0  0  0  0
  7 26  1  0  0  0  0
  7 27  1  0  0  0  0
  8  9  1  0  0  0  0
  8 28  1  0  0  0  0
  8 29  1  0  0  0  0
 10 11  1  0  0  0  0
 10 30  1  0  0  0  0
 11 12  1  0  0  0  0
 11 31  1  0  0  0  0
 11 32  1  0  0  0  0
 12 13  1  0  0  0  0
 12 33  1  0  0  0  0
 12 34  1  0  0  0  0
 13 18  1  0  0  0  0
 13 14  2  0  0  0  0
 14 15  1  0  0  0  0
 14 35  1  0  0  0  0
 15 16  2  0  0  0  0
 15 36  1  0  0  0  0
 16 17  1  0  0  0  0
 16 37  1  0  0  0  0
 17 18  2  0  0  0  0
 17 38  1  0  0  0  0
M  END
> <s_m_source_file>
AV-unprocessed.smi

> <i_m_source_file_index>
3266

> <i_lp_mmshare_version>
43012

> <i_f3d_flags>
0

> <s_epik_input>
TzFbQ0gyXVtDSDJdW0NIMl1bQ0BIXTFbQ0gyXVtDSDJdQyg9TylbTkhdW0NIMl1bQ0gyXWMyW2NIXVtjSF1bY0hdW2NIXW4y

> <s_epik_cmdline>
J2VwaWtfcHl0aG9uJywgJy1waCcsICc3LjAnLCAnLXRuJywgJzgnLCAnLW1hJywgJzIwMCcsICctbWV0YWxfYmluZGluZycsICctaW1hZScsICc8aW5maWxlLm1hZT4nLCAnLW9tYWUnLCAnPG91dGZpbGUubWFlPic=

> <r_epik_Ionization_Penalty>
0.0267142

> <r_epik_Ionization_Penalty_Charging>
0

> <r_epik_Ionization_Penalty_Neutral>
0.0267142

> <r_epik_State_Penalty>
0.0218233

> <r_epik_Charging_Adjusted_Penalty>
0.0218233

> <i_epik_Tot_Q>
0

> <i_epik_Tot_abs_Q>
0

> <r_epik_Metal_State_Penalty>
0.0208786

> <b_epik_Metal_Only>
0

> <s_lp_Force_Field>
OPLS_2005

> <r_lp_Energy>
16.882

> <b_lp_Chiralities_Consistent>
1

> <s_lp_Variant>
AV-unprocessed.smi:3266-2

> <Gold.Version>
5.8.1

> <Gold.Id.Protein>
6NUR|6NUR_protein|mol2

> <Gold.PLP.Fitness>
47.2039

> <Gold.PLP.PLP>
-43.1380

> <Gold.PLP.part.hbond>
-3.0000

> <Gold.PLP.part.metal>
0.0000

> <Gold.PLP.part.buried>
-4.4267

> <Gold.PLP.part.nonpolar>
-35.2663

> <Gold.PLP.part.repulsive>
0.4411

> <Gold.PLP.ligand.clash>
0.0000

> <Gold.PLP.ligand.torsion>
1.0611

> <Gold.PLP.Chemscore.Hbond>
2.0000

> <Gold.PLP.Chemscore.CHOScore>
0.0000

> <Gold.PLP.Chemscore.Metal>
0.0000

> <Gold.Chemscore.Hbonds>
donor molecule, donor type, donor heavy atom, donor atom, acceptor molecule, acceptor atom, score
      L1  H    10    30       P1  8028  0.91
      P1  H  7989  7998       L1     1  1.00

> <Gold.PLP.Chemscore.Internal.Correction>
0.1881

> <Gold.Rescore>
     Score         DG    S(hbond)    S(metal)    S(lipo)     H(rot)  DE(clash)    DE(int)     intcor
     17.72     -18.83       1.66        0.00     104.03       1.71       0.06       1.05       ----

> <Gold.Chemscore.Fitness>
17.7162

> <Gold.Chemscore.DG>
-18.8256

> <Gold.Chemscore.ZeroCoef>
-5.4800

> <Gold.Chemscore.Hbond>
1.6643

> <Gold.Chemscore.Metal>
0.0000

> <Gold.Chemscore.Lipo>
104.0284

> <Gold.Chemscore.Internal_Hbond>
0.0000

> <Gold.Chemscore.DEClash>
0.0623

> <Gold.Chemscore.DEInternal>
1.0471

> <Gold.Chemscore.Rot>
1.7127

> <Gold.Chemscore.Internal.Correction>
   9.000000E+99

> <Gold.Chemscore.Hbonds>
donor molecule, donor type, donor heavy atom, donor atom, acceptor molecule, acceptor atom, score
      L1  H    10    30       P1  8028  0.90
      P1  H  7989  7998       L1     1  0.62

> <Gold.Chemscore.Hbond.Weighted>
-5.5588

> <Gold.Chemscore.Metal.Weighted>
-0.0000

> <Gold.Chemscore.Lipo.Weighted>
-12.1713

> <Gold.Chemscore.Internal_Hbond.Weighted>
0.0000

> <Gold.Chemscore.DEClash.Weighted>
0.0623

> <Gold.Chemscore.DEInternal.Weighted>
1.0471

> <Gold.Chemscore.Rot.Weighted>
4.3846

> <Gold.Chemscore.Internal.Correction.Weighted>
   9.000000E+99

> <Gold.Protein.RotatedTorsions>
[ 6907 6896 6895 6894 ] final  177.55 input  -60.11 | X-H torsion
[ 7974 7965 7964 7962 ] final   -8.98 input  175.53 | X-H torsion
[ 8008 7997 7996 7995 ] final  135.32 input   59.86 | X-H torsion
[ 10167 10162 10161 10158 ] final   45.13 input  -65.29 | X-H torsion
[ 10718 10713 10712 10709 ] final   98.00 input   66.30 | X-H torsion
[ 10763 10752 10751 10750 ] final -149.13 input  -60.55 | X-H torsion
[ 11005 11000 10999 10996 ] final -158.32 input  -57.11 | X-H torsion

> <Gold.Protein.ActiveResidues>
 VAL166  LYS551  ARG553  GLY616  TRP617  ASP618  TYR619  PRO620  LYS621  CYS622 
 ASP623  PHE694  ASN695  SER759  ASP760  ASP761  ALA762  ILE779  LEU786  VAL792 
 PHE793  MET794  SER795  GLU796  ALA797  LYS798  CYS799  TRP800  GLU811  SER814 

> <Gold.Protein.RotatedAtoms>
  151.7021  133.3311  159.3269 H   0  0  0  0  0  0  0  0  0  0  0  0  # atno 6907 bound_to 6896
  150.7731  134.6606  159.6347 H   0  0  0  0  0  0  0  0  0  0  0  0  # atno 6908 bound_to 6896
  152.3763  134.6661  160.0210 H   0  0  0  0  0  0  0  0  0  0  0  0  # atno 6909 bound_to 6896
  146.2265  140.2548  142.8349 H   0  0  0  0  0  0  0  0  0  0  0  0  # atno 7974 bound_to 7965
  156.3002  140.2473  156.3562 H   0  0  0  0  0  0  0  0  0  0  0  0  # atno 8008 bound_to 7997
  154.8919  140.0409  157.1863 H   0  0  0  0  0  0  0  0  0  0  0  0  # atno 8009 bound_to 7997
  154.8589  140.2917  155.5555 H   0  0  0  0  0  0  0  0  0  0  0  0  # atno 8010 bound_to 7997
  140.3273  144.2632  150.6173 H   0  0  0  0  0  0  0  0  0  0  0  0  # atno 10167 bound_to 10162
  157.6903  131.0626  150.4729 H   0  0  0  0  0  0  0  0  0  0  0  0  # atno 10718 bound_to 10713
  154.8195  135.3317  154.7081 H   0  0  0  0  0  0  0  0  0  0  0  0  # atno 10763 bound_to 10752
  153.7716  135.6925  153.4910 H   0  0  0  0  0  0  0  0  0  0  0  0  # atno 10764 bound_to 10752
  153.2041  135.4505  155.0250 H   0  0  0  0  0  0  0  0  0  0  0  0  # atno 10765 bound_to 10752
  140.6549  134.4411  157.5235 H   0  0  0  0  0  0  0  0  0  0  0  0  # atno 11005 bound_to 11000
  144.9384  140.8052  143.5646 LP  0  0  0  0  0  0  0  0  0  0  0  0  # atno 17320 bound_to 7965
  145.2497  139.2037  143.4949 LP  0  0  0  0  0  0  0  0  0  0  0  0  # atno 17321 bound_to 7965
  140.5429  143.2220  151.8054 LP  0  0  0  0  0  0  0  0  0  0  0  0  # atno 17342 bound_to 10162
  139.4863  144.4576  151.9579 LP  0  0  0  0  0  0  0  0  0  0  0  0  # atno 17343 bound_to 10162
  156.5066  130.4129  149.6324 LP  0  0  0  0  0  0  0  0  0  0  0  0  # atno 17370 bound_to 10713
  156.3279  130.7316  151.2240 LP  0  0  0  0  0  0  0  0  0  0  0  0  # atno 17371 bound_to 10713
  139.9033  134.8506  156.1807 LP  0  0  0  0  0  0  0  0  0  0  0  0  # atno 17394 bound_to 11000
  141.0509  133.6889  156.1770 LP  0  0  0  0  0  0  0  0  0  0  0  0  # atno 17395 bound_to 11000

$$$$
