AV-unprocessed.smi:890|AV-procd|sdf|4059|dock4
  -GOLD-   22720 1543D 1   1.00000     0.00000
 Structure written by MMmdl.
 51 54  0  0  0  0  0  0  0  0  1 V2000
  151.0989  135.0300  155.5621 O   0  0  0  0  0  0  0  0  0  0  0  0
  150.3398  135.4714  154.6993 C   0  0  0  0  0  0  0  0  0  0  0  0
  149.5036  134.7316  153.9521 N   0  0  0  0  0  0  0  0  0  0  0  0
  149.2950  133.3237  153.9922 C   0  0  0  0  0  0  0  0  0  0  0  0
  150.0977  132.4753  154.7935 C   0  0  0  0  0  0  0  0  0  0  0  0
  149.8591  131.0903  154.7863 C   0  0  0  0  0  0  0  0  0  0  0  0
  148.8210  130.5994  153.9772 C   0  0  0  0  0  0  0  0  0  0  0  0
  148.0360  131.3947  153.2235 N   0  0  0  0  0  0  0  0  0  0  0  0
  148.2441  132.7344  153.2321 C   0  0  0  0  0  0  0  0  0  0  0  0
  147.3765  133.5206  152.4397 N   0  0  0  0  0  0  0  0  0  0  0  0
  146.6738  132.9317  151.3048 C   0  0  0  0  0  0  0  0  0  0  0  0
  145.5763  133.9337  150.9581 C   0  0  0  0  0  0  0  0  0  0  0  0
  145.1752  134.4631  152.3314 C   0  0  0  0  0  0  0  0  0  0  0  0
  146.4894  134.4596  153.1200 C   0  0  0  0  0  0  0  0  0  0  0  0
  150.2594  136.7679  154.3685 N   0  0  0  0  0  0  0  0  0  0  0  0
  151.0375  137.8514  154.9622 C   0  0  0  0  0  0  0  0  0  0  0  0
  151.0433  137.7120  156.4923 C   0  0  0  0  0  0  0  0  0  0  0  0
  151.7112  138.9289  157.1557 C   0  0  0  0  0  0  0  0  0  0  0  0
  151.0120  140.1560  156.7744 N   0  0  0  0  0  0  0  0  0  0  0  0
  151.6284  141.2807  157.4587 C   0  0  0  0  0  0  0  0  0  0  0  0
  150.8507  141.9263  158.5830 C   0  0  0  0  0  0  0  0  0  0  0  0
  151.0051  142.6444  157.2641 C   0  0  0  0  0  0  0  0  0  0  0  0
  151.1241  140.3607  155.3300 C   0  0  0  0  0  0  0  0  0  0  0  0
  150.4335  139.2112  154.5747 C   0  0  0  0  0  0  0  0  0  0  0  0
  149.0251  135.2174  153.2079 H   0  0  0  0  0  0  0  0  0  0  0  0
  150.8854  132.8650  155.4200 H   0  0  0  0  0  0  0  0  0  0  0  0
  150.4582  130.4212  155.3860 H   0  0  0  0  0  0  0  0  0  0  0  0
  148.6089  129.5412  153.9403 H   0  0  0  0  0  0  0  0  0  0  0  0
  147.3482  132.7615  150.4651 H   0  0  0  0  0  0  0  0  0  0  0  0
  146.2200  131.9787  151.5796 H   0  0  0  0  0  0  0  0  0  0  0  0
  145.9862  134.7427  150.3519 H   0  0  0  0  0  0  0  0  0  0  0  0
  144.7462  133.4847  150.4122 H   0  0  0  0  0  0  0  0  0  0  0  0
  144.7084  135.4474  152.2896 H   0  0  0  0  0  0  0  0  0  0  0  0
  144.4674  133.7746  152.7954 H   0  0  0  0  0  0  0  0  0  0  0  0
  146.3261  134.1886  154.1642 H   0  0  0  0  0  0  0  0  0  0  0  0
  146.9409  135.4516  153.0926 H   0  0  0  0  0  0  0  0  0  0  0  0
  149.6089  137.0290  153.6419 H   0  0  0  0  0  0  0  0  0  0  0  0
  152.0719  137.8191  154.6148 H   0  0  0  0  0  0  0  0  0  0  0  0
  150.0221  137.6139  156.8643 H   0  0  0  0  0  0  0  0  0  0  0  0
  151.5671  136.8002  156.7814 H   0  0  0  0  0  0  0  0  0  0  0  0
  151.6804  138.8130  158.2396 H   0  0  0  0  0  0  0  0  0  0  0  0
  152.7628  138.9884  156.8693 H   0  0  0  0  0  0  0  0  0  0  0  0
  152.7097  141.2799  157.5865 H   0  0  0  0  0  0  0  0  0  0  0  0
  149.8683  141.5232  158.8220 H   0  0  0  0  0  0  0  0  0  0  0  0
  151.4176  142.3047  159.4311 H   0  0  0  0  0  0  0  0  0  0  0  0
  151.6740  143.5018  157.2336 H   0  0  0  0  0  0  0  0  0  0  0  0
  150.1249  142.7176  156.6280 H   0  0  0  0  0  0  0  0  0  0  0  0
  150.6533  141.3065  155.0591 H   0  0  0  0  0  0  0  0  0  0  0  0
  152.1735  140.4301  155.0388 H   0  0  0  0  0  0  0  0  0  0  0  0
  150.5258  139.3679  153.4994 H   0  0  0  0  0  0  0  0  0  0  0  0
  149.3656  139.2240  154.7989 H   0  0  0  0  0  0  0  0  0  0  0  0
  1  2  2  0  0  0  0
  2  3  1  0  0  0  0
  2 15  1  0  0  0  0
  3  4  1  0  0  0  0
  3 25  1  0  0  0  0
  4  9  1  0  0  0  0
  4  5  2  0  0  0  0
  5  6  1  0  0  0  0
  5 26  1  0  0  0  0
  6  7  2  0  0  0  0
  6 27  1  0  0  0  0
  7  8  1  0  0  0  0
  7 28  1  0  0  0  0
  8  9  2  0  0  0  0
  9 10  1  0  0  0  0
 10 14  1  0  0  0  0
 10 11  1  0  0  0  0
 11 12  1  0  0  0  0
 11 29  1  0  0  0  0
 11 30  1  0  0  0  0
 12 13  1  0  0  0  0
 12 31  1  0  0  0  0
 12 32  1  0  0  0  0
 13 14  1  0  0  0  0
 13 33  1  0  0  0  0
 13 34  1  0  0  0  0
 14 35  1  0  0  0  0
 14 36  1  0  0  0  0
 15 16  1  0  0  0  0
 15 37  1  0  0  0  0
 16 24  1  0  0  0  0
 16 17  1  0  0  0  0
 16 38  1  0  0  0  0
 17 18  1  0  0  0  0
 17 39  1  0  0  0  0
 17 40  1  0  0  0  0
 18 19  1  0  0  0  0
 18 41  1  0  0  0  0
 18 42  1  0  0  0  0
 19 20  1  0  0  0  0
 19 23  1  0  0  0  0
 20 22  1  0  0  0  0
 20 21  1  0  0  0  0
 20 43  1  0  0  0  0
 21 22  1  0  0  0  0
 21 44  1  0  0  0  0
 21 45  1  0  0  0  0
 22 46  1  0  0  0  0
 22 47  1  0  0  0  0
 23 24  1  0  0  0  0
 23 48  1  0  0  0  0
 23 49  1  0  0  0  0
 24 50  1  0  0  0  0
 24 51  1  0  0  0  0
M  END
> <s_m_source_file>
AV-unprocessed.smi

> <i_m_source_file_index>
890

> <i_lp_mmshare_version>
43012

> <i_f3d_flags>
0

> <s_epik_input>
W0NIMl0xW0NIMl1bQ0hdMU4oW0NIMl1bQ0gyXTIpW0NIMl1bQ0gyXVtDSF0yW05IXUMoPU8pW05IXWMzW2NIXVtjSF1bY0hdbmMzTjRbQ0gyXVtDSDJdW0NIMl1bQ0gyXTQ=

> <s_epik_cmdline>
J2VwaWtfcHl0aG9uJywgJy1waCcsICc3LjAnLCAnLXRuJywgJzgnLCAnLW1hJywgJzIwMCcsICctbWV0YWxfYmluZGluZycsICctaW1hZScsICc8aW5maWxlLm1hZT4nLCAnLW9tYWUnLCAnPG91dGZpbGUubWFlPic=

> <r_lp_tautomer_probability>
1

> <r_epik_Ionization_Penalty>
1.12957

> <r_epik_Ionization_Penalty_Charging>
0

> <r_epik_Ionization_Penalty_Neutral>
1.12957

> <r_epik_State_Penalty>
1.1789

> <r_epik_Charging_Adjusted_Penalty>
1.1789

> <i_epik_Tot_Q>
0

> <i_epik_Tot_abs_Q>
0

> <r_epik_Metal_State_Penalty>
1.14786

> <b_epik_Metal_Only>
0

> <s_lp_Force_Field>
OPLS_2005

> <r_lp_Energy>
50.3158

> <b_lp_Chiralities_Consistent>
1

> <s_lp_Variant>
AV-unprocessed.smi:890-3

> <Gold.Version>
5.8.1

> <Gold.Id.Protein>
6NUR|6NUR_protein|mol2

> <Gold.PLP.Fitness>
45.1054

> <Gold.PLP.PLP>
-38.5656

> <Gold.PLP.part.hbond>
-4.1629

> <Gold.PLP.part.metal>
0.0000

> <Gold.PLP.part.buried>
-0.6270

> <Gold.PLP.part.nonpolar>
-33.7455

> <Gold.PLP.part.repulsive>
0.5988

> <Gold.PLP.ligand.clash>
0.0000

> <Gold.PLP.ligand.torsion>
1.2234

> <Gold.PLP.Chemscore.Hbond>
2.4994

> <Gold.PLP.Chemscore.CHOScore>
0.0000

> <Gold.PLP.Chemscore.Metal>
0.0000

> <Gold.Chemscore.Hbonds>
donor molecule, donor type, donor heavy atom, donor atom, acceptor molecule, acceptor atom, score
      L1  H     3    25       P1  7948  1.00
      L1  H    15    37       P1  7948  0.72
      P1  H 10752 10764       L1     1  0.78

> <Gold.PLP.Chemscore.Internal.Correction>
1.4884

> <Gold.Rescore>
     Score         DG    S(hbond)    S(metal)    S(lipo)     H(rot)  DE(clash)    DE(int)     intcor
     13.15     -18.06       1.61        0.00      90.07       1.30       0.91       3.99       ----

> <Gold.Chemscore.Fitness>
13.1548

> <Gold.Chemscore.DG>
-18.0557

> <Gold.Chemscore.ZeroCoef>
-5.4800

> <Gold.Chemscore.Hbond>
1.6094

> <Gold.Chemscore.Metal>
0.0000

> <Gold.Chemscore.Lipo>
90.0674

> <Gold.Chemscore.Internal_Hbond>
0.0000

> <Gold.Chemscore.DEClash>
0.9137

> <Gold.Chemscore.DEInternal>
3.9872

> <Gold.Chemscore.Rot>
1.3037

> <Gold.Chemscore.Internal.Correction>
   9.000000E+99

> <Gold.Chemscore.Hbonds>
donor molecule, donor type, donor heavy atom, donor atom, acceptor molecule, acceptor atom, score
      L1  H     3    25       P1  7948  0.29
      L1  H    15    37       P1  7948  0.55
      P1  H 10752 10764       L1     1  0.41

> <Gold.Chemscore.Hbond.Weighted>
-5.3754

> <Gold.Chemscore.Metal.Weighted>
-0.0000

> <Gold.Chemscore.Lipo.Weighted>
-10.5379

> <Gold.Chemscore.Internal_Hbond.Weighted>
0.0000

> <Gold.Chemscore.DEClash.Weighted>
0.9137

> <Gold.Chemscore.DEInternal.Weighted>
3.9872

> <Gold.Chemscore.Rot.Weighted>
3.3376

> <Gold.Chemscore.Internal.Correction.Weighted>
   9.000000E+99

> <Gold.Protein.RotatedTorsions>
[ 6907 6896 6895 6894 ] final -164.64 input  -60.11 | X-H torsion
[ 7974 7965 7964 7962 ] final  -27.69 input  175.53 | X-H torsion
[ 8008 7997 7996 7995 ] final  -70.63 input   59.86 | X-H torsion
[ 10167 10162 10161 10158 ] final   65.74 input  -65.29 | X-H torsion
[ 10718 10713 10712 10709 ] final  -19.58 input   66.30 | X-H torsion
[ 10763 10752 10751 10750 ] final  -39.93 input  -60.55 | X-H torsion
[ 11005 11000 10999 10996 ] final -161.55 input  -57.11 | X-H torsion

> <Gold.Protein.ActiveResidues>
 VAL166  LYS551  ARG553  GLY616  TRP617  ASP618  TYR619  PRO620  LYS621  CYS622 
 ASP623  PHE694  ASN695  SER759  ASP760  ASP761  ALA762  ILE779  LEU786  VAL792 
 PHE793  MET794  SER795  GLU796  ALA797  LYS798  CYS799  TRP800  GLU811  SER814 

> <Gold.Protein.RotatedAtoms>
  151.4150  133.3715  159.2748 H   0  0  0  0  0  0  0  0  0  0  0  0  # atno 6907 bound_to 6896
  150.9335  134.8750  159.7577 H   0  0  0  0  0  0  0  0  0  0  0  0  # atno 6908 bound_to 6896
  152.5039  134.4096  159.9496 H   0  0  0  0  0  0  0  0  0  0  0  0  # atno 6909 bound_to 6896
  146.1340  140.5185  142.8681 H   0  0  0  0  0  0  0  0  0  0  0  0  # atno 7974 bound_to 7965
  154.5027  140.0830  156.7830 H   0  0  0  0  0  0  0  0  0  0  0  0  # atno 8008 bound_to 7997
  155.3966  140.3435  155.4236 H   0  0  0  0  0  0  0  0  0  0  0  0  # atno 8009 bound_to 7997
  156.1476  140.1548  156.8809 H   0  0  0  0  0  0  0  0  0  0  0  0  # atno 8010 bound_to 7997
  140.1080  144.4844  150.6995 H   0  0  0  0  0  0  0  0  0  0  0  0  # atno 10167 bound_to 10162
  156.5437  130.4684  149.6486 H   0  0  0  0  0  0  0  0  0  0  0  0  # atno 10718 bound_to 10713
  153.9376  135.6765  153.4744 H   0  0  0  0  0  0  0  0  0  0  0  0  # atno 10763 bound_to 10752
  153.0948  135.4857  154.8754 H   0  0  0  0  0  0  0  0  0  0  0  0  # atno 10764 bound_to 10752
  154.7394  135.3157  154.8712 H   0  0  0  0  0  0  0  0  0  0  0  0  # atno 10765 bound_to 10752
  140.6191  134.4769  157.5222 H   0  0  0  0  0  0  0  0  0  0  0  0  # atno 11005 bound_to 11000
  144.7720  140.5659  143.6663 LP  0  0  0  0  0  0  0  0  0  0  0  0  # atno 17320 bound_to 7965
  145.5197  139.1477  143.3559 LP  0  0  0  0  0  0  0  0  0  0  0  0  # atno 17321 bound_to 7965
  140.6941  143.2393  151.5049 LP  0  0  0  0  0  0  0  0  0  0  0  0  # atno 17342 bound_to 10162
  139.5634  144.2100  152.1728 LP  0  0  0  0  0  0  0  0  0  0  0  0  # atno 17343 bound_to 10162
  156.2948  130.7144  151.2002 LP  0  0  0  0  0  0  0  0  0  0  0  0  # atno 17370 bound_to 10713
  157.7400  131.0522  150.5191 LP  0  0  0  0  0  0  0  0  0  0  0  0  # atno 17371 bound_to 10713
  139.9160  134.8244  156.1364 LP  0  0  0  0  0  0  0  0  0  0  0  0  # atno 17394 bound_to 11000
  141.0755  133.6777  156.2227 LP  0  0  0  0  0  0  0  0  0  0  0  0  # atno 17395 bound_to 11000

$$$$
