AV-unprocessed.smi:3250|AV-procd|sdf|12429|dock10
  -GOLD-   2272018313D 1   1.00000     0.00000
 Structure written by MMmdl.
 38 39  0  0  0  0  0  0  0  0  1 V2000
  151.0031  145.2673  159.9590 C   0  0  0  0  0  0  0  0  0  0  0  0
  152.2362  145.0169  159.0796 C   0  0  0  0  0  0  0  0  0  0  0  0
  152.7503  143.6490  159.1131 N   0  0  0  0  0  0  0  0  0  0  0  0
  153.0007  143.1772  160.4728 C   0  0  0  0  0  0  0  0  0  0  0  0
  153.5056  141.7246  160.4908 C   0  0  0  0  0  0  0  0  0  0  0  0
  152.5705  140.8876  159.8193 O   0  0  0  0  0  0  0  0  0  0  0  0
  152.3470  141.2769  158.4661 C   0  0  1  0  0  0  0  0  0  0  0  0
  151.3322  140.3086  157.8444 C   0  0  0  0  0  0  0  0  0  0  0  0
  151.1638  140.5493  156.4193 N   0  0  0  0  0  0  0  0  0  0  0  0
  149.9662  140.9097  155.8317 C   0  0  0  0  0  0  0  0  0  0  0  0
  149.9028  140.7498  154.5079 N   0  0  0  0  0  0  0  0  0  0  0  0
  148.7424  141.0875  153.9046 C   0  0  0  0  0  0  0  0  0  0  0  0
  147.6443  141.5876  154.6325 C   0  0  0  0  0  0  0  0  0  0  0  0
  147.8210  141.7200  156.0245 C   0  0  0  0  0  0  0  0  0  0  0  0
  146.7870  142.2079  156.7964 O   0  0  0  0  0  0  0  0  0  0  0  0
  145.6436  142.7325  156.1308 C   0  0  0  0  0  0  0  0  0  0  0  0
  148.9907  141.3766  156.6197 N   0  0  0  0  0  0  0  0  0  0  0  0
  151.8284  142.7287  158.4555 C   0  0  0  0  0  0  0  0  0  0  0  0
  150.7424  146.3257  159.9588 H   0  0  0  0  0  0  0  0  0  0  0  0
  151.1905  144.9731  160.9922 H   0  0  0  0  0  0  0  0  0  0  0  0
  150.1303  144.7203  159.6035 H   0  0  0  0  0  0  0  0  0  0  0  0
  152.0144  145.3052  158.0511 H   0  0  0  0  0  0  0  0  0  0  0  0
  153.0208  145.6950  159.4179 H   0  0  0  0  0  0  0  0  0  0  0  0
  153.7406  143.8086  160.9630 H   0  0  0  0  0  0  0  0  0  0  0  0
  152.0863  143.2481  161.0640 H   0  0  0  0  0  0  0  0  0  0  0  0
  154.4829  141.6486  160.0115 H   0  0  0  0  0  0  0  0  0  0  0  0
  153.6233  141.3763  161.5169 H   0  0  0  0  0  0  0  0  0  0  0  0
  153.2860  141.2248  157.9113 H   0  0  0  0  0  0  0  0  0  0  0  0
  151.6441  139.2763  158.0074 H   0  0  0  0  0  0  0  0  0  0  0  0
  150.3636  140.4323  158.3304 H   0  0  0  0  0  0  0  0  0  0  0  0
  151.9408  140.3511  155.8058 H   0  0  0  0  0  0  0  0  0  0  0  0
  148.6893  140.9577  152.8338 H   0  0  0  0  0  0  0  0  0  0  0  0
  146.7169  141.8561  154.1487 H   0  0  0  0  0  0  0  0  0  0  0  0
  144.9180  143.0696  156.8707 H   0  0  0  0  0  0  0  0  0  0  0  0
  145.1590  141.9746  155.5137 H   0  0  0  0  0  0  0  0  0  0  0  0
  145.9029  143.5891  155.5071 H   0  0  0  0  0  0  0  0  0  0  0  0
  150.8544  142.7694  158.9463 H   0  0  0  0  0  0  0  0  0  0  0  0
  151.6692  143.0446  157.4237 H   0  0  0  0  0  0  0  0  0  0  0  0
  1  2  1  0  0  0  0
  1 19  1  0  0  0  0
  1 20  1  0  0  0  0
  1 21  1  0  0  0  0
  2  3  1  0  0  0  0
  2 22  1  0  0  0  0
  2 23  1  0  0  0  0
  3 18  1  0  0  0  0
  3  4  1  0  0  0  0
  4  5  1  0  0  0  0
  4 24  1  0  0  0  0
  4 25  1  0  0  0  0
  5  6  1  0  0  0  0
  5 26  1  0  0  0  0
  5 27  1  0  0  0  0
  6  7  1  0  0  0  0
  7  8  1  0  0  0  0
  7 18  1  0  0  0  0
  7 28  1  0  0  0  0
  8  9  1  0  0  0  0
  8 29  1  0  0  0  0
  8 30  1  0  0  0  0
  9 10  1  0  0  0  0
  9 31  1  0  0  0  0
 10 17  1  0  0  0  0
 10 11  2  0  0  0  0
 11 12  1  0  0  0  0
 12 13  2  0  0  0  0
 12 32  1  0  0  0  0
 13 14  1  0  0  0  0
 13 33  1  0  0  0  0
 14 15  1  0  0  0  0
 14 17  2  0  0  0  0
 15 16  1  0  0  0  0
 16 34  1  0  0  0  0
 16 35  1  0  0  0  0
 16 36  1  0  0  0  0
 18 37  1  0  0  0  0
 18 38  1  0  0  0  0
M  END
> <s_m_source_file>
AV-unprocessed.smi

> <i_m_source_file_index>
3250

> <i_lp_mmshare_version>
43012

> <i_f3d_flags>
0

> <s_epik_input>
W0NIM11bQ0gyXU4xW0NIMl1bQ0gyXU9bQ0BIXShbQ0gyXTEpW0NIMl1bTkhdYzJuW2NIXVtjSF1jKG4yKU9bQ0gzXQ==

> <s_epik_cmdline>
J2VwaWtfcHl0aG9uJywgJy1waCcsICc3LjAnLCAnLXRuJywgJzgnLCAnLW1hJywgJzIwMCcsICctbWV0YWxfYmluZGluZycsICctaW1hZScsICc8aW5maWxlLm1hZT4nLCAnLW9tYWUnLCAnPG91dGZpbGUubWFlPic=

> <r_lp_tautomer_probability>
1

> <r_epik_Ionization_Penalty>
0.832605

> <r_epik_Ionization_Penalty_Charging>
0

> <r_epik_Ionization_Penalty_Neutral>
0.832605

> <r_epik_State_Penalty>
0.927194

> <r_epik_Charging_Adjusted_Penalty>
0.927194

> <i_epik_Tot_Q>
0

> <i_epik_Tot_abs_Q>
0

> <r_epik_Metal_State_Penalty>
0.908632

> <b_epik_Metal_Only>
0

> <s_lp_Force_Field>
OPLS_2005

> <r_lp_Energy>
15.3419

> <b_lp_Chiralities_Consistent>
1

> <s_lp_Variant>
AV-unprocessed.smi:3250-5

> <Gold.Version>
5.8.1

> <Gold.Id.Protein>
6NUR|6NUR_protein|mol2

> <Gold.PLP.Fitness>
39.4488

> <Gold.PLP.PLP>
-34.6811

> <Gold.PLP.part.hbond>
-1.0000

> <Gold.PLP.part.metal>
0.0000

> <Gold.PLP.part.buried>
-5.2775

> <Gold.PLP.part.nonpolar>
-28.7748

> <Gold.PLP.part.repulsive>
0.4583

> <Gold.PLP.ligand.clash>
0.0257

> <Gold.PLP.ligand.torsion>
0.1908

> <Gold.PLP.Chemscore.Hbond>
0.7200

> <Gold.PLP.Chemscore.CHOScore>
1.0000

> <Gold.PLP.Chemscore.Metal>
0.0000

> <Gold.Chemscore.Hbonds>
donor molecule, donor type, donor heavy atom, donor atom, acceptor molecule, acceptor atom, score
      P1  H  7989  7998       L1    11  0.72
      L1  C    12    32       P1  7957  1.00

> <Gold.PLP.Chemscore.Internal.Correction>
0.0151

> <Gold.Rescore>
     Score         DG    S(hbond)    S(metal)    S(lipo)     H(rot)  DE(clash)    DE(int)     intcor
     13.54     -13.82       0.75        0.00      86.27       1.67       0.16       0.12       ----

> <Gold.Chemscore.Fitness>
13.5402

> <Gold.Chemscore.DG>
-13.8212

> <Gold.Chemscore.ZeroCoef>
-5.4800

> <Gold.Chemscore.Hbond>
0.7522

> <Gold.Chemscore.Metal>
0.0000

> <Gold.Chemscore.Lipo>
86.2662

> <Gold.Chemscore.Internal_Hbond>
0.0000

> <Gold.Chemscore.DEClash>
0.1587

> <Gold.Chemscore.DEInternal>
0.1223

> <Gold.Chemscore.Rot>
1.6657

> <Gold.Chemscore.Internal.Correction>
   9.000000E+99

> <Gold.Chemscore.Hbonds>
donor molecule, donor type, donor heavy atom, donor atom, acceptor molecule, acceptor atom, score
      P1  H  7989  7998       L1    11  0.64

> <Gold.Chemscore.Hbond.Weighted>
-2.5123

> <Gold.Chemscore.Metal.Weighted>
-0.0000

> <Gold.Chemscore.Lipo.Weighted>
-10.0931

> <Gold.Chemscore.Internal_Hbond.Weighted>
0.0000

> <Gold.Chemscore.DEClash.Weighted>
0.1587

> <Gold.Chemscore.DEInternal.Weighted>
0.1223

> <Gold.Chemscore.Rot.Weighted>
4.2642

> <Gold.Chemscore.Internal.Correction.Weighted>
   9.000000E+99

> <Gold.Protein.RotatedTorsions>
[ 6907 6896 6895 6894 ] final  120.69 input  -60.11 | X-H torsion
[ 7974 7965 7964 7962 ] final  -41.60 input  175.53 | X-H torsion
[ 8008 7997 7996 7995 ] final  162.80 input   59.86 | X-H torsion
[ 10167 10162 10161 10158 ] final -156.48 input  -65.29 | X-H torsion
[ 10718 10713 10712 10709 ] final -172.02 input   66.30 | X-H torsion
[ 10763 10752 10751 10750 ] final -138.64 input  -60.55 | X-H torsion
[ 11005 11000 10999 10996 ] final   47.77 input  -57.11 | X-H torsion

> <Gold.Protein.ActiveResidues>
 VAL166  LYS551  ARG553  GLY616  TRP617  ASP618  TYR619  PRO620  LYS621  CYS622 
 ASP623  PHE694  ASN695  SER759  ASP760  ASP761  ALA762  ILE779  LEU786  VAL792 
 PHE793  MET794  SER795  GLU796  ALA797  LYS798  CYS799  TRP800  GLU811  SER814 

> <Gold.Protein.RotatedAtoms>
  152.4379  133.7394  159.6631 H   0  0  0  0  0  0  0  0  0  0  0  0  # atno 6907 bound_to 6896
  150.8265  133.8152  159.3122 H   0  0  0  0  0  0  0  0  0  0  0  0  # atno 6908 bound_to 6896
  151.5819  135.1060  160.0071 H   0  0  0  0  0  0  0  0  0  0  0  0  # atno 6909 bound_to 6896
  146.0195  140.6867  142.9185 H   0  0  0  0  0  0  0  0  0  0  0  0  # atno 7974 bound_to 7965
  156.2004  140.1740  156.7910 H   0  0  0  0  0  0  0  0  0  0  0  0  # atno 8008 bound_to 7997
  154.5584  140.0704  156.8812 H   0  0  0  0  0  0  0  0  0  0  0  0  # atno 8009 bound_to 7997
  155.2894  140.3354  155.4256 H   0  0  0  0  0  0  0  0  0  0  0  0  # atno 8010 bound_to 7997
  139.6847  143.9522  152.2355 H   0  0  0  0  0  0  0  0  0  0  0  0  # atno 10167 bound_to 10162
  156.7494  130.9372  151.3114 H   0  0  0  0  0  0  0  0  0  0  0  0  # atno 10718 bound_to 10713
  154.8631  135.3606  154.5418 H   0  0  0  0  0  0  0  0  0  0  0  0  # atno 10763 bound_to 10752
  153.6039  135.7011  153.5378 H   0  0  0  0  0  0  0  0  0  0  0  0  # atno 10764 bound_to 10752
  153.3267  135.4136  155.1423 H   0  0  0  0  0  0  0  0  0  0  0  0  # atno 10765 bound_to 10752
  140.1250  134.4780  155.8567 H   0  0  0  0  0  0  0  0  0  0  0  0  # atno 11005 bound_to 11000
  144.6984  140.3541  143.7176 LP  0  0  0  0  0  0  0  0  0  0  0  0  # atno 17320 bound_to 7965
  145.7215  139.1711  143.2482 LP  0  0  0  0  0  0  0  0  0  0  0  0  # atno 17321 bound_to 7965
  139.9321  144.6734  150.8352 LP  0  0  0  0  0  0  0  0  0  0  0  0  # atno 17342 bound_to 10162
  140.7664  143.3301  151.2428 LP  0  0  0  0  0  0  0  0  0  0  0  0  # atno 17343 bound_to 10162
  157.6783  130.9116  150.0205 LP  0  0  0  0  0  0  0  0  0  0  0  0  # atno 17370 bound_to 10713
  156.1411  130.3642  149.9581 LP  0  0  0  0  0  0  0  0  0  0  0  0  # atno 17371 bound_to 10713
  141.2159  133.6774  156.6961 LP  0  0  0  0  0  0  0  0  0  0  0  0  # atno 17394 bound_to 11000
  140.2916  134.8236  157.4021 LP  0  0  0  0  0  0  0  0  0  0  0  0  # atno 17395 bound_to 11000

$$$$
