AV-unprocessed.smi:3296|AV-procd|sdf|12637|dock2
  -GOLD-   2272018573D 1   1.00000     0.00000
 Structure written by MMmdl.
 37 38  0  0  0  0  0  0  0  0  1 V2000
  149.4562  134.9281  155.3697 C   0  0  0  0  0  0  0  0  0  0  0  0
  149.7552  136.0863  154.5422 N   0  0  0  0  0  0  0  0  0  0  0  0
  150.4457  137.1567  154.9621 C   0  0  0  0  0  0  0  0  0  0  0  0
  150.8848  137.2726  156.1061 O   0  0  0  0  0  0  0  0  0  0  0  0
  150.6771  138.2686  153.9375 C   0  0  0  0  0  0  0  0  0  0  0  0
  150.1733  139.5474  154.5251 C   0  0  0  0  0  0  0  0  0  0  0  0
  150.9262  140.3657  155.2663 N   0  0  0  0  0  0  0  0  0  0  0  0
  150.2231  141.4881  155.7136 C   0  0  0  0  0  0  0  0  0  0  0  0
  150.9069  142.5018  156.5796 C   0  0  0  0  0  0  0  0  0  0  0  0
  151.4030  141.8930  157.9008 C   0  0  0  0  0  0  0  0  0  0  0  0
  152.1494  142.8991  158.7948 C   0  0  0  0  0  0  0  0  0  0  0  0
  152.3652  142.3974  160.2236 C   0  0  0  0  0  0  0  0  0  0  0  0
  152.6913  143.6589  161.0244 C   0  0  0  0  0  0  0  0  0  0  0  0
  151.9499  144.8046  160.3207 C   0  0  0  0  0  0  0  0  0  0  0  0
  151.4201  144.2332  158.9977 C   0  0  0  0  0  0  0  0  0  0  0  0
  148.9186  141.5149  155.2875 C   0  0  0  0  0  0  0  0  0  0  0  0
  148.5246  140.1273  154.3112 S   0  0  0  0  0  0  0  0  0  0  0  0
  148.8762  134.2030  154.7991 H   0  0  0  0  0  0  0  0  0  0  0  0
  148.8754  135.2161  156.2470 H   0  0  0  0  0  0  0  0  0  0  0  0
  150.3746  134.4431  155.7029 H   0  0  0  0  0  0  0  0  0  0  0  0
  149.4328  136.0678  153.5851 H   0  0  0  0  0  0  0  0  0  0  0  0
  151.7374  138.3567  153.6964 H   0  0  0  0  0  0  0  0  0  0  0  0
  150.1410  138.0542  153.0123 H   0  0  0  0  0  0  0  0  0  0  0  0
  151.7491  142.9397  156.0425 H   0  0  0  0  0  0  0  0  0  0  0  0
  150.2245  143.3260  156.7887 H   0  0  0  0  0  0  0  0  0  0  0  0
  150.5599  141.4685  158.4475 H   0  0  0  0  0  0  0  0  0  0  0  0
  152.0703  141.0593  157.6779 H   0  0  0  0  0  0  0  0  0  0  0  0
  153.1296  143.1040  158.3606 H   0  0  0  0  0  0  0  0  0  0  0  0
  151.4467  141.9496  160.6061 H   0  0  0  0  0  0  0  0  0  0  0  0
  153.1531  141.6467  160.2902 H   0  0  0  0  0  0  0  0  0  0  0  0
  152.4094  143.5633  162.0734 H   0  0  0  0  0  0  0  0  0  0  0  0
  153.7654  143.8448  160.9897 H   0  0  0  0  0  0  0  0  0  0  0  0
  151.1274  145.1784  160.9315 H   0  0  0  0  0  0  0  0  0  0  0  0
  152.6280  145.6399  160.1418 H   0  0  0  0  0  0  0  0  0  0  0  0
  151.5745  144.9185  158.1637 H   0  0  0  0  0  0  0  0  0  0  0  0
  150.3462  144.0617  159.0846 H   0  0  0  0  0  0  0  0  0  0  0  0
  148.1667  142.2626  155.4919 H   0  0  0  0  0  0  0  0  0  0  0  0
  1  2  1  0  0  0  0
  1 18  1  0  0  0  0
  1 19  1  0  0  0  0
  1 20  1  0  0  0  0
  2  3  1  0  0  0  0
  2 21  1  0  0  0  0
  3  4  2  0  0  0  0
  3  5  1  0  0  0  0
  5  6  1  0  0  0  0
  5 22  1  0  0  0  0
  5 23  1  0  0  0  0
  6 17  1  0  0  0  0
  6  7  2  0  0  0  0
  7  8  1  0  0  0  0
  8  9  1  0  0  0  0
  8 16  2  0  0  0  0
  9 10  1  0  0  0  0
  9 24  1  0  0  0  0
  9 25  1  0  0  0  0
 10 11  1  0  0  0  0
 10 26  1  0  0  0  0
 10 27  1  0  0  0  0
 11 15  1  0  0  0  0
 11 12  1  0  0  0  0
 11 28  1  0  0  0  0
 12 13  1  0  0  0  0
 12 29  1  0  0  0  0
 12 30  1  0  0  0  0
 13 14  1  0  0  0  0
 13 31  1  0  0  0  0
 13 32  1  0  0  0  0
 14 15  1  0  0  0  0
 14 33  1  0  0  0  0
 14 34  1  0  0  0  0
 15 35  1  0  0  0  0
 15 36  1  0  0  0  0
 16 17  1  0  0  0  0
 16 37  1  0  0  0  0
M  END
> <s_m_source_file>
AV-unprocessed.smi

> <i_m_source_file_index>
3296

> <i_lp_mmshare_version>
43012

> <i_f3d_flags>
0

> <s_epik_input>
W0NIM11bTkhdQyg9TylbQ0gyXWMxbmMoW2NIXXMxKVtDSDJdW0NIMl1bQ0hdMltDSDJdW0NIMl1bQ0gyXVtDSDJdMg==

> <s_epik_cmdline>
J2VwaWtfcHl0aG9uJywgJy1waCcsICc3LjAnLCAnLXRuJywgJzgnLCAnLW1hJywgJzIwMCcsICctbWV0YWxfYmluZGluZycsICctaW1hZScsICc8aW5maWxlLm1hZT4nLCAnLW9tYWUnLCAnPG91dGZpbGUubWFlPic=

> <r_lp_tautomer_probability>
1

> <r_epik_Ionization_Penalty>
6.30814e-05

> <r_epik_Ionization_Penalty_Charging>
0

> <r_epik_Ionization_Penalty_Neutral>
6.30814e-05

> <r_epik_State_Penalty>
-0

> <r_epik_Charging_Adjusted_Penalty>
0

> <i_epik_Tot_Q>
0

> <i_epik_Tot_abs_Q>
0

> <r_epik_Metal_State_Penalty>
-0

> <b_epik_Metal_Only>
0

> <s_lp_Force_Field>
OPLS_2005

> <r_lp_Energy>
17.2937

> <b_lp_Chiralities_Consistent>
1

> <s_lp_Variant>
AV-unprocessed.smi:3296-1

> <Gold.Version>
5.8.1

> <Gold.Id.Protein>
6NUR|6NUR_protein|mol2

> <Gold.PLP.Fitness>
45.3132

> <Gold.PLP.PLP>
-40.3329

> <Gold.PLP.part.hbond>
-2.0000

> <Gold.PLP.part.metal>
0.0000

> <Gold.PLP.part.buried>
-3.2451

> <Gold.PLP.part.nonpolar>
-34.5420

> <Gold.PLP.part.repulsive>
0.0767

> <Gold.PLP.ligand.clash>
0.0000

> <Gold.PLP.ligand.torsion>
0.4817

> <Gold.PLP.Chemscore.Hbond>
1.0375

> <Gold.PLP.Chemscore.CHOScore>
0.9357

> <Gold.PLP.Chemscore.Metal>
0.0000

> <Gold.Chemscore.Hbonds>
donor molecule, donor type, donor heavy atom, donor atom, acceptor molecule, acceptor atom, score
      L1  H     2    21       P1  7948  1.00
      P1  H  7989  7998       L1     7  0.15
      L1  C    16    37       P1  8028  0.75

> <Gold.PLP.Chemscore.Internal.Correction>
0.0242

> <Gold.Rescore>
     Score         DG    S(hbond)    S(metal)    S(lipo)     H(rot)  DE(clash)    DE(int)     intcor
     17.42     -17.85       0.98        0.00     114.44       1.68       0.04       0.39       ----

> <Gold.Chemscore.Fitness>
17.4186

> <Gold.Chemscore.DG>
-17.8472

> <Gold.Chemscore.ZeroCoef>
-5.4800

> <Gold.Chemscore.Hbond>
0.9810

> <Gold.Chemscore.Metal>
0.0000

> <Gold.Chemscore.Lipo>
114.4400

> <Gold.Chemscore.Internal_Hbond>
0.0000

> <Gold.Chemscore.DEClash>
0.0430

> <Gold.Chemscore.DEInternal>
0.3856

> <Gold.Chemscore.Rot>
1.6792

> <Gold.Chemscore.Internal.Correction>
   9.000000E+99

> <Gold.Chemscore.Hbonds>
donor molecule, donor type, donor heavy atom, donor atom, acceptor molecule, acceptor atom, score
      L1  H     2    21       P1  7948  0.60

> <Gold.Chemscore.Hbond.Weighted>
-3.2766

> <Gold.Chemscore.Metal.Weighted>
-0.0000

> <Gold.Chemscore.Lipo.Weighted>
-13.3895

> <Gold.Chemscore.Internal_Hbond.Weighted>
0.0000

> <Gold.Chemscore.DEClash.Weighted>
0.0430

> <Gold.Chemscore.DEInternal.Weighted>
0.3856

> <Gold.Chemscore.Rot.Weighted>
4.2988

> <Gold.Chemscore.Internal.Correction.Weighted>
   9.000000E+99

> <Gold.Protein.RotatedTorsions>
[ 6907 6896 6895 6894 ] final  171.46 input  -60.11 | X-H torsion
[ 7974 7965 7964 7962 ] final -171.02 input  175.53 | X-H torsion
[ 8008 7997 7996 7995 ] final  101.17 input   59.86 | X-H torsion
[ 10167 10162 10161 10158 ] final -159.94 input  -65.29 | X-H torsion
[ 10718 10713 10712 10709 ] final  -76.61 input   66.30 | X-H torsion
[ 10763 10752 10751 10750 ] final   78.11 input  -60.55 | X-H torsion
[ 11005 11000 10999 10996 ] final  -49.66 input  -57.11 | X-H torsion

> <Gold.Protein.ActiveResidues>
 VAL166  LYS551  ARG553  GLY616  TRP617  ASP618  TYR619  PRO620  LYS621  CYS622 
 ASP623  PHE694  ASN695  SER759  ASP760  ASP761  ALA762  ILE779  LEU786  VAL792 
 PHE793  MET794  SER795  GLU796  ALA797  LYS798  CYS799  TRP800  GLU811  SER814 

> <Gold.Protein.RotatedAtoms>
  151.7999  133.3369  159.3523 H   0  0  0  0  0  0  0  0  0  0  0  0  # atno 6907 bound_to 6896
  150.7362  134.5763  159.5925 H   0  0  0  0  0  0  0  0  0  0  0  0  # atno 6908 bound_to 6896
  152.3150  134.7452  160.0378 H   0  0  0  0  0  0  0  0  0  0  0  0  # atno 6909 bound_to 6896
  144.7162  140.1984  143.6341 H   0  0  0  0  0  0  0  0  0  0  0  0  # atno 7974 bound_to 7965
  156.1274  140.3201  155.8297 H   0  0  0  0  0  0  0  0  0  0  0  0  # atno 8008 bound_to 7997
  155.4395  140.0524  157.3029 H   0  0  0  0  0  0  0  0  0  0  0  0  # atno 8009 bound_to 7997
  154.4873  140.2078  155.9640 H   0  0  0  0  0  0  0  0  0  0  0  0  # atno 8010 bound_to 7997
  139.6577  143.9969  152.2205 H   0  0  0  0  0  0  0  0  0  0  0  0  # atno 10167 bound_to 10162
  156.0169  130.4470  150.3220 H   0  0  0  0  0  0  0  0  0  0  0  0  # atno 10718 bound_to 10713
  153.0849  135.4889  154.8578 H   0  0  0  0  0  0  0  0  0  0  0  0  # atno 10763 bound_to 10752
  154.7198  135.3037  154.9067 H   0  0  0  0  0  0  0  0  0  0  0  0  # atno 10764 bound_to 10752
  153.9735  135.6798  153.4801 H   0  0  0  0  0  0  0  0  0  0  0  0  # atno 10765 bound_to 10752
  141.0772  133.6663  156.3618 H   0  0  0  0  0  0  0  0  0  0  0  0  # atno 11005 bound_to 11000
  145.8703  139.2268  143.1665 LP  0  0  0  0  0  0  0  0  0  0  0  0  # atno 17320 bound_to 7965
  146.0091  140.8451  142.9980 LP  0  0  0  0  0  0  0  0  0  0  0  0  # atno 17321 bound_to 7965
  139.9700  144.6500  150.7998 LP  0  0  0  0  0  0  0  0  0  0  0  0  # atno 17342 bound_to 10162
  140.7566  143.3070  151.2938 LP  0  0  0  0  0  0  0  0  0  0  0  0  # atno 17343 bound_to 10162
  157.1320  131.0274  151.2965 LP  0  0  0  0  0  0  0  0  0  0  0  0  # atno 17370 bound_to 10713
  157.4542  130.7616  149.7178 LP  0  0  0  0  0  0  0  0  0  0  0  0  # atno 17371 bound_to 10713
  140.5548  134.5992  157.5417 LP  0  0  0  0  0  0  0  0  0  0  0  0  # atno 17394 bound_to 11000
  139.9584  134.7494  156.0290 LP  0  0  0  0  0  0  0  0  0  0  0  0  # atno 17395 bound_to 11000

$$$$
