AV-unprocessed.smi:1037|AV-procd|sdf|4520|dock8
  -GOLD-   22720 2533D 1   1.00000     0.00000
 Structure written by MMmdl.
 29 29  0  0  0  0  0  0  0  0  1 V2000
  148.2647  138.5123  152.8799 N   0  0  0  0  0  0  0  0  0  0  0  0
  147.6207  138.7472  154.0254 C   0  0  0  0  0  0  0  0  0  0  0  0
  147.0038  137.8649  154.6204 O   0  0  0  0  0  0  0  0  0  0  0  0
  147.7070  140.1744  154.5818 C   0  0  0  0  0  0  0  0  0  0  0  0
  149.0790  140.6041  154.8406 N   0  0  0  0  0  0  0  0  0  0  0  0
  149.5308  141.0878  156.0082 C   0  0  0  0  0  0  0  0  0  0  0  0
  148.8095  141.2562  156.9926 O   0  0  0  0  0  0  0  0  0  0  0  0
  151.0212  141.4521  156.0572 C   0  0  0  0  0  0  0  0  0  0  0  0
  151.4441  141.9685  157.3703 N   0  0  0  0  0  0  0  0  0  0  0  0
  150.8533  143.1687  157.8041 C   0  0  0  0  0  0  0  0  0  0  0  0
  151.1635  143.7211  158.9846 C   0  0  0  0  0  0  0  0  0  0  0  0
  152.1321  143.0514  159.8178 C   0  0  0  0  0  0  0  0  0  0  0  0
  152.7153  141.8940  159.4288 C   0  0  0  0  0  0  0  0  0  0  0  0
  153.7400  141.1705  160.2995 C   0  0  0  0  0  0  0  0  0  0  0  0
  153.4305  139.8783  160.4138 F   0  0  0  0  0  0  0  0  0  0  0  0
  154.9576  141.2617  159.7633 F   0  0  0  0  0  0  0  0  0  0  0  0
  153.7968  141.6857  161.5287 F   0  0  0  0  0  0  0  0  0  0  0  0
  152.3645  141.2925  158.1259 C   0  0  0  0  0  0  0  0  0  0  0  0
  152.8674  140.2399  157.7287 O   0  0  0  0  0  0  0  0  0  0  0  0
  148.2337  137.5905  152.4688 H   0  0  0  0  0  0  0  0  0  0  0  0
  148.7746  139.2556  152.4252 H   0  0  0  0  0  0  0  0  0  0  0  0
  147.2669  140.8565  153.8543 H   0  0  0  0  0  0  0  0  0  0  0  0
  147.1101  140.2586  155.4917 H   0  0  0  0  0  0  0  0  0  0  0  0
  149.7388  140.4978  154.0839 H   0  0  0  0  0  0  0  0  0  0  0  0
  151.6221  140.5818  155.7863 H   0  0  0  0  0  0  0  0  0  0  0  0
  151.2154  142.1858  155.2738 H   0  0  0  0  0  0  0  0  0  0  0  0
  150.1332  143.6018  157.1252 H   0  0  0  0  0  0  0  0  0  0  0  0
  150.6975  144.6410  159.3060 H   0  0  0  0  0  0  0  0  0  0  0  0
  152.3842  143.4954  160.7692 H   0  0  0  0  0  0  0  0  0  0  0  0
  1  2  1  0  0  0  0
  1 20  1  0  0  0  0
  1 21  1  0  0  0  0
  2  3  2  0  0  0  0
  2  4  1  0  0  0  0
  4  5  1  0  0  0  0
  4 22  1  0  0  0  0
  4 23  1  0  0  0  0
  5  6  1  0  0  0  0
  5 24  1  0  0  0  0
  6  7  2  0  0  0  0
  6  8  1  0  0  0  0
  8  9  1  0  0  0  0
  8 25  1  0  0  0  0
  8 26  1  0  0  0  0
  9 18  1  0  0  0  0
  9 10  1  0  0  0  0
 10 11  2  0  0  0  0
 10 27  1  0  0  0  0
 11 12  1  0  0  0  0
 11 28  1  0  0  0  0
 12 13  2  0  0  0  0
 12 29  1  0  0  0  0
 13 14  1  0  0  0  0
 13 18  1  0  0  0  0
 14 15  1  0  0  0  0
 14 16  1  0  0  0  0
 14 17  1  0  0  0  0
 18 19  2  0  0  0  0
M  END
> <s_m_source_file>
AV-unprocessed.smi

> <i_m_source_file_index>
1037

> <i_lp_mmshare_version>
43012

> <i_f3d_flags>
0

> <s_epik_input>
W05IMl1DKD1PKVtDSDJdW05IXUMoPU8pW0NIMl1uMVtjSF1bY0hdW2NIXWMoQyhGKShGKUYpYzE9Tw==

> <s_epik_cmdline>
J2VwaWtfcHl0aG9uJywgJy1waCcsICc3LjAnLCAnLXRuJywgJzgnLCAnLW1hJywgJzIwMCcsICctbWV0YWxfYmluZGluZycsICctaW1hZScsICc8aW5maWxlLm1hZT4nLCAnLW9tYWUnLCAnPG91dGZpbGUubWFlPic=

> <r_lp_tautomer_probability>
1

> <r_epik_Ionization_Penalty>
9.73018e-08

> <r_epik_Ionization_Penalty_Charging>
1.58095e-09

> <r_epik_Ionization_Penalty_Neutral>
9.57208e-08

> <r_epik_State_Penalty>
-0

> <r_epik_Charging_Adjusted_Penalty>
1.58095e-09

> <i_epik_Tot_Q>
0

> <i_epik_Tot_abs_Q>
0

> <r_epik_Metal_State_Penalty>
-0

> <b_epik_Metal_Only>
0

> <s_lp_Force_Field>
OPLS_2005

> <r_lp_Energy>
7.91729

> <b_lp_Chiralities_Consistent>
1

> <s_lp_Variant>
AV-unprocessed.smi:1037-1

> <Gold.Version>
5.8.1

> <Gold.Id.Protein>
6NUR|6NUR_protein|mol2

> <Gold.PLP.Fitness>
45.8405

> <Gold.PLP.PLP>
-34.2590

> <Gold.PLP.part.hbond>
-3.0000

> <Gold.PLP.part.metal>
0.0000

> <Gold.PLP.part.buried>
-5.0006

> <Gold.PLP.part.nonpolar>
-26.1966

> <Gold.PLP.part.repulsive>
0.3811

> <Gold.PLP.ligand.clash>
0.0000

> <Gold.PLP.ligand.torsion>
0.3432

> <Gold.PLP.Chemscore.Hbond>
2.9760

> <Gold.PLP.Chemscore.CHOScore>
1.0000

> <Gold.PLP.Chemscore.Metal>
0.0000

> <Gold.Chemscore.Hbonds>
donor molecule, donor type, donor heavy atom, donor atom, acceptor molecule, acceptor atom, score
      L1  H     1    20       P1  7948  1.00
      L1  H     1    21       P1  7957  1.00
      P1  H  7997  8009       L1    19  0.98
      L1  C    10    27       P1  8028  1.00

> <Gold.PLP.Chemscore.Internal.Correction>
0.3399

> <Gold.Rescore>
     Score         DG    S(hbond)    S(metal)    S(lipo)     H(rot)  DE(clash)    DE(int)     intcor
     12.21     -15.36       2.87        0.00      62.46       2.74       0.04       3.11       ----

> <Gold.Chemscore.Fitness>
12.2117

> <Gold.Chemscore.DG>
-15.3560

> <Gold.Chemscore.ZeroCoef>
-5.4800

> <Gold.Chemscore.Hbond>
2.8719

> <Gold.Chemscore.Metal>
0.0000

> <Gold.Chemscore.Lipo>
62.4553

> <Gold.Chemscore.Internal_Hbond>
0.0000

> <Gold.Chemscore.DEClash>
0.0373

> <Gold.Chemscore.DEInternal>
3.1069

> <Gold.Chemscore.Rot>
2.7435

> <Gold.Chemscore.Internal.Correction>
   9.000000E+99

> <Gold.Chemscore.Hbonds>
donor molecule, donor type, donor heavy atom, donor atom, acceptor molecule, acceptor atom, score
      L1  H     1    20       P1  7948  0.96
      L1  H     1    21       P1  7957  0.98
      P1  H  7997  8009       L1    19  0.93

> <Gold.Chemscore.Hbond.Weighted>
-9.5921

> <Gold.Chemscore.Metal.Weighted>
-0.0000

> <Gold.Chemscore.Lipo.Weighted>
-7.3073

> <Gold.Chemscore.Internal_Hbond.Weighted>
0.0000

> <Gold.Chemscore.DEClash.Weighted>
0.0373

> <Gold.Chemscore.DEInternal.Weighted>
3.1069

> <Gold.Chemscore.Rot.Weighted>
7.0234

> <Gold.Chemscore.Internal.Correction.Weighted>
   9.000000E+99

> <Gold.Protein.RotatedTorsions>
[ 6907 6896 6895 6894 ] final   59.27 input  -60.11 | X-H torsion
[ 7974 7965 7964 7962 ] final  -37.71 input  175.53 | X-H torsion
[ 8008 7997 7996 7995 ] final  166.43 input   59.86 | X-H torsion
[ 10167 10162 10161 10158 ] final  -78.52 input  -65.29 | X-H torsion
[ 10718 10713 10712 10709 ] final   86.79 input   66.30 | X-H torsion
[ 10763 10752 10751 10750 ] final   74.48 input  -60.55 | X-H torsion
[ 11005 11000 10999 10996 ] final  113.14 input  -57.11 | X-H torsion

> <Gold.Protein.ActiveResidues>
 VAL166  LYS551  ARG553  GLY616  TRP617  ASP618  TYR619  PRO620  LYS621  CYS622 
 ASP623  PHE694  ASN695  SER759  ASP760  ASP761  ALA762  ILE779  LEU786  VAL792 
 PHE793  MET794  SER795  GLU796  ALA797  LYS798  CYS799  TRP800  GLU811  SER814 

> <Gold.Protein.RotatedAtoms>
  152.3899  134.6458  160.0111 H   0  0  0  0  0  0  0  0  0  0  0  0  # atno 6907 bound_to 6896
  151.6695  133.3309  159.3201 H   0  0  0  0  0  0  0  0  0  0  0  0  # atno 6908 bound_to 6896
  150.7817  134.6812  159.6489 H   0  0  0  0  0  0  0  0  0  0  0  0  # atno 6909 bound_to 6896
  146.0551  140.6427  142.9023 H   0  0  0  0  0  0  0  0  0  0  0  0  # atno 7974 bound_to 7965
  156.1719  140.1643  156.8432 H   0  0  0  0  0  0  0  0  0  0  0  0  # atno 8008 bound_to 7997
  154.5265  140.0766  156.8303 H   0  0  0  0  0  0  0  0  0  0  0  0  # atno 8009 bound_to 7997
  155.3495  140.3389  155.4241 H   0  0  0  0  0  0  0  0  0  0  0  0  # atno 8010 bound_to 7997
  140.4674  143.2436  151.8256 H   0  0  0  0  0  0  0  0  0  0  0  0  # atno 10167 bound_to 10162
  157.6933  131.0230  150.3026 H   0  0  0  0  0  0  0  0  0  0  0  0  # atno 10718 bound_to 10713
  153.0590  135.5024  154.8049 H   0  0  0  0  0  0  0  0  0  0  0  0  # atno 10763 bound_to 10752
  154.6853  135.2975  154.9559 H   0  0  0  0  0  0  0  0  0  0  0  0  # atno 10764 bound_to 10752
  154.0332  135.6727  153.4835 H   0  0  0  0  0  0  0  0  0  0  0  0  # atno 10765 bound_to 10752
  139.8945  134.9544  156.6692 H   0  0  0  0  0  0  0  0  0  0  0  0  # atno 11005 bound_to 11000
  144.7143  140.4155  143.7056 LP  0  0  0  0  0  0  0  0  0  0  0  0  # atno 17320 bound_to 7965
  145.6658  139.1589  143.2783 LP  0  0  0  0  0  0  0  0  0  0  0  0  # atno 17321 bound_to 7965
  139.4814  144.4933  151.9156 LP  0  0  0  0  0  0  0  0  0  0  0  0  # atno 17342 bound_to 10162
  140.4019  144.2482  150.5892 LP  0  0  0  0  0  0  0  0  0  0  0  0  # atno 17343 bound_to 10162
  156.3540  130.3835  149.7306 LP  0  0  0  0  0  0  0  0  0  0  0  0  # atno 17370 bound_to 10713
  156.4774  130.8025  151.3041 LP  0  0  0  0  0  0  0  0  0  0  0  0  # atno 17371 bound_to 10713
  140.7386  133.8997  155.8262 LP  0  0  0  0  0  0  0  0  0  0  0  0  # atno 17394 bound_to 11000
  141.0096  134.1039  157.4235 LP  0  0  0  0  0  0  0  0  0  0  0  0  # atno 17395 bound_to 11000

$$$$
