AV-unprocessed.smi:2547|AV-procd|sdf|10004|dock1
  -GOLD-   2272014 53D 1   1.00000     0.00000
 Structure written by MMmdl.
 45 46  0  0  0  0  0  0  0  0  3 V2000
  148.2797  135.5067  155.0287 C   0  0  0  0  0  0  0  0  0  0  0  0
  149.0389  136.6667  154.5144 N   0  3  2  0  0  0  0  0  0  0  0  0
  150.4225  136.7182  155.0481 C   0  0  0  0  0  0  0  0  0  0  0  0
  151.2264  137.8537  154.3903 C   0  0  0  0  0  0  0  0  0  0  0  0
  150.5269  139.2201  154.5401 C   0  0  2  0  0  0  0  0  0  0  0  0
  150.5761  139.7097  155.9180 N   0  0  0  0  0  0  0  0  0  0  0  0
  151.6896  139.8301  156.6560 C   0  0  0  0  0  0  0  0  0  0  0  0
  152.8082  139.5151  156.2510 O   0  0  0  0  0  0  0  0  0  0  0  0
  151.4152  140.3121  157.8808 N   0  0  0  0  0  0  0  0  0  0  0  0
  152.3216  140.5867  158.9397 C   0  0  0  0  0  0  0  0  0  0  0  0
  153.4468  139.7868  159.2536 C   0  0  0  0  0  0  0  0  0  0  0  0
  154.2883  140.1655  160.3171 C   0  0  0  0  0  0  0  0  0  0  0  0
  154.0024  141.3366  161.0457 C   0  0  0  0  0  0  0  0  0  0  0  0
  152.8764  142.1213  160.6973 C   0  0  0  0  0  0  0  0  0  0  0  0
  152.5243  143.3100  161.3729 N   0  0  0  0  0  0  0  0  0  0  0  0
  151.8198  144.3665  160.6579 C   0  0  0  0  0  0  0  0  0  0  0  0
  153.0137  143.5429  162.7273 C   0  0  0  0  0  0  0  0  0  0  0  0
  152.1023  141.7085  159.6624 N   0  3  0  0  0  0  0  0  0  0  0  0
  149.0701  139.1179  154.0533 C   0  0  0  0  0  0  0  0  0  0  0  0
  148.3175  137.9481  154.7141 C   0  0  0  0  0  0  0  0  0  0  0  0
  148.1439  135.5752  156.1088 H   0  0  0  0  0  0  0  0  0  0  0  0
  148.8026  134.5756  154.8079 H   0  0  0  0  0  0  0  0  0  0  0  0
  147.2956  135.4530  154.5619 H   0  0  0  0  0  0  0  0  0  0  0  0
  150.3940  136.8512  156.1308 H   0  0  0  0  0  0  0  0  0  0  0  0
  150.9215  135.7667  154.8601 H   0  0  0  0  0  0  0  0  0  0  0  0
  152.2345  137.8877  154.8053 H   0  0  0  0  0  0  0  0  0  0  0  0
  151.3480  137.6317  153.3292 H   0  0  0  0  0  0  0  0  0  0  0  0
  151.0405  139.9473  153.9081 H   0  0  0  0  0  0  0  0  0  0  0  0
  149.7003  139.9929  156.3325 H   0  0  0  0  0  0  0  0  0  0  0  0
  150.4386  140.4449  158.0984 H   0  0  0  0  0  0  0  0  0  0  0  0
  153.6879  138.8972  158.6919 H   0  0  0  0  0  0  0  0  0  0  0  0
  155.1492  139.5640  160.5689 H   0  0  0  0  0  0  0  0  0  0  0  0
  154.6566  141.6145  161.8586 H   0  0  0  0  0  0  0  0  0  0  0  0
  150.8697  144.0008  160.2672 H   0  0  0  0  0  0  0  0  0  0  0  0
  152.4226  144.7322  159.8260 H   0  0  0  0  0  0  0  0  0  0  0  0
  151.6047  145.2118  161.3116 H   0  0  0  0  0  0  0  0  0  0  0  0
  152.6124  142.7957  163.4127 H   0  0  0  0  0  0  0  0  0  0  0  0
  152.7154  144.5253  163.0939 H   0  0  0  0  0  0  0  0  0  0  0  0
  154.1028  143.4934  162.7569 H   0  0  0  0  0  0  0  0  0  0  0  0
  148.5425  140.0549  154.2354 H   0  0  0  0  0  0  0  0  0  0  0  0
  149.0657  138.9751  152.9717 H   0  0  0  0  0  0  0  0  0  0  0  0
  147.3172  137.8738  154.2858 H   0  0  0  0  0  0  0  0  0  0  0  0
  148.1899  138.1339  155.7817 H   0  0  0  0  0  0  0  0  0  0  0  0
  149.1208  136.5344  153.5163 H   0  0  0  0  0  0  0  0  0  0  0  0
  151.2954  142.2821  159.4180 H   0  0  0  0  0  0  0  0  0  0  0  0
  1  2  1  0  0  0  0
  1 21  1  0  0  0  0
  1 22  1  0  0  0  0
  1 23  1  0  0  0  0
  2 20  1  0  0  0  0
  2  3  1  0  0  0  0
  2 44  1  0  0  0  0
  3  4  1  0  0  0  0
  3 24  1  0  0  0  0
  3 25  1  0  0  0  0
  4  5  1  0  0  0  0
  4 26  1  0  0  0  0
  4 27  1  0  0  0  0
  5  6  1  0  0  0  0
  5 19  1  0  0  0  0
  5 28  1  0  0  0  0
  6  7  1  0  0  0  0
  6 29  1  0  0  0  0
  7  8  2  0  0  0  0
  7  9  1  0  0  0  0
  9 10  1  0  0  0  0
  9 30  1  0  0  0  0
 10 18  1  0  0  0  0
 10 11  2  0  0  0  0
 11 12  1  0  0  0  0
 11 31  1  0  0  0  0
 12 13  2  0  0  0  0
 12 32  1  0  0  0  0
 13 14  1  0  0  0  0
 13 33  1  0  0  0  0
 14 15  1  0  0  0  0
 14 18  2  0  0  0  0
 15 16  1  0  0  0  0
 15 17  1  0  0  0  0
 16 34  1  0  0  0  0
 16 35  1  0  0  0  0
 16 36  1  0  0  0  0
 17 37  1  0  0  0  0
 17 38  1  0  0  0  0
 17 39  1  0  0  0  0
 18 45  1  0  0  0  0
 19 20  1  0  0  0  0
 19 40  1  0  0  0  0
 19 41  1  0  0  0  0
 20 42  1  0  0  0  0
 20 43  1  0  0  0  0
M  CHG  1   2   1
M  CHG  1  18   1
M  END
> <s_m_source_file>
AV-unprocessed.smi

> <i_m_source_file_index>
2547

> <i_lp_mmshare_version>
43012

> <i_f3d_flags>
0

> <s_epik_input>
W0NIM11OMVtDSDJdW0NIMl1bQ0hdKFtDSDJdW0NIMl0xKVtOSF1DKD1PKVtOSF1jMltjSF1bY0hdW2NIXWMobjIpTihbQ0gzXSlbQ0gzXQ==

> <s_epik_cmdline>
J2VwaWtfcHl0aG9uJywgJy1waCcsICc3LjAnLCAnLXRuJywgJzgnLCAnLW1hJywgJzIwMCcsICctbWV0YWxfYmluZGluZycsICctaW1hZScsICc8aW5maWxlLm1hZT4nLCAnLW9tYWUnLCAnPG91dGZpbGUubWFlPic=

> <r_lp_tautomer_probability>
0.999994

> <r_epik_Ionization_Penalty>
2.17028

> <r_epik_Ionization_Penalty_Charging>
2.10368

> <r_epik_Ionization_Penalty_Neutral>
0.0666017

> <r_epik_State_Penalty>
2.2357

> <r_epik_Charging_Adjusted_Penalty>
4.33938

> <i_epik_Tot_Q>
2

> <i_epik_Tot_abs_Q>
2

> <r_epik_Metal_State_Penalty>
2.25749

> <b_epik_Metal_Only>
0

> <s_lp_Force_Field>
OPLS_2005

> <r_lp_Energy>
27.0899

> <b_lp_Chiralities_Consistent>
1

> <s_lp_Variant>
AV-unprocessed.smi:2547-4

> <Gold.Version>
5.8.1

> <Gold.Id.Protein>
6NUR|6NUR_protein|mol2

> <Gold.PLP.Fitness>
48.3031

> <Gold.PLP.PLP>
-40.4871

> <Gold.PLP.part.hbond>
-2.0000

> <Gold.PLP.part.metal>
0.0000

> <Gold.PLP.part.buried>
-4.9612

> <Gold.PLP.part.nonpolar>
-34.3580

> <Gold.PLP.part.repulsive>
0.2823

> <Gold.PLP.ligand.clash>
0.0000

> <Gold.PLP.ligand.torsion>
0.6070

> <Gold.PLP.Chemscore.Hbond>
3.0000

> <Gold.PLP.Chemscore.CHOScore>
0.0000

> <Gold.PLP.Chemscore.Metal>
0.0000

> <Gold.Chemscore.Hbonds>
donor molecule, donor type, donor heavy atom, donor atom, acceptor molecule, acceptor atom, score
      L1  H     2    44       P1  7948  2.00
      P1  H  7997  8010       L1     8  1.00

> <Gold.PLP.Chemscore.Internal.Correction>
0.0301

> <Gold.Rescore>
     Score         DG    S(hbond)    S(metal)    S(lipo)     H(rot)  DE(clash)    DE(int)     intcor
     17.54     -19.14       1.96        0.00      82.67       1.00       0.44       1.15       ----

> <Gold.Chemscore.Fitness>
17.5418

> <Gold.Chemscore.DG>
-19.1400

> <Gold.Chemscore.ZeroCoef>
-5.4800

> <Gold.Chemscore.Hbond>
1.9603

> <Gold.Chemscore.Metal>
0.0000

> <Gold.Chemscore.Lipo>
82.6727

> <Gold.Chemscore.Internal_Hbond>
0.0000

> <Gold.Chemscore.DEClash>
0.4448

> <Gold.Chemscore.DEInternal>
1.1533

> <Gold.Chemscore.Rot>
1.0000

> <Gold.Chemscore.Internal.Correction>
   9.000000E+99

> <Gold.Chemscore.Hbonds>
donor molecule, donor type, donor heavy atom, donor atom, acceptor molecule, acceptor atom, score
      L1  H     2    44       P1  7948  0.98
      P1  H  7997  8010       L1     8  0.98

> <Gold.Chemscore.Hbond.Weighted>
-6.5473

> <Gold.Chemscore.Metal.Weighted>
-0.0000

> <Gold.Chemscore.Lipo.Weighted>
-9.6727

> <Gold.Chemscore.Internal_Hbond.Weighted>
0.0000

> <Gold.Chemscore.DEClash.Weighted>
0.4448

> <Gold.Chemscore.DEInternal.Weighted>
1.1533

> <Gold.Chemscore.Rot.Weighted>
2.5600

> <Gold.Chemscore.Internal.Correction.Weighted>
   9.000000E+99

> <Gold.Protein.RotatedTorsions>
[ 6907 6896 6895 6894 ] final  126.04 input  -60.11 | X-H torsion
[ 7974 7965 7964 7962 ] final   78.67 input  175.53 | X-H torsion
[ 8008 7997 7996 7995 ] final   60.09 input   59.86 | X-H torsion
[ 10167 10162 10161 10158 ] final  125.90 input  -65.29 | X-H torsion
[ 10718 10713 10712 10709 ] final   54.30 input   66.30 | X-H torsion
[ 10763 10752 10751 10750 ] final  -61.08 input  -60.55 | X-H torsion
[ 11005 11000 10999 10996 ] final   -7.89 input  -57.11 | X-H torsion

> <Gold.Protein.ActiveResidues>
 VAL166  LYS551  ARG553  GLY616  TRP617  ASP618  TYR619  PRO620  LYS621  CYS622 
 ASP623  PHE694  ASN695  SER759  ASP760  ASP761  ALA762  ILE779  LEU786  VAL792 
 PHE793  MET794  SER795  GLU796  ALA797  LYS798  CYS799  TRP800  GLU811  SER814 

> <Gold.Protein.RotatedAtoms>
  152.3939  133.6718  159.6259 H   0  0  0  0  0  0  0  0  0  0  0  0  # atno 6907 bound_to 6896
  150.7841  133.8908  159.3321 H   0  0  0  0  0  0  0  0  0  0  0  0  # atno 6908 bound_to 6896
  151.6689  135.0980  160.0245 H   0  0  0  0  0  0  0  0  0  0  0  0  # atno 6909 bound_to 6896
  145.6741  139.2505  143.1851 H   0  0  0  0  0  0  0  0  0  0  0  0  # atno 7974 bound_to 7965
  155.5767  140.3491  155.4529 H   0  0  0  0  0  0  0  0  0  0  0  0  # atno 8008 bound_to 7997
  156.0404  140.1294  157.0187 H   0  0  0  0  0  0  0  0  0  0  0  0  # atno 8009 bound_to 7997
  154.4389  140.1025  156.6214 H   0  0  0  0  0  0  0  0  0  0  0  0  # atno 8010 bound_to 7997
  139.5660  144.6911  151.3909 H   0  0  0  0  0  0  0  0  0  0  0  0  # atno 10167 bound_to 10162
  157.5245  130.8587  149.8602 H   0  0  0  0  0  0  0  0  0  0  0  0  # atno 10718 bound_to 10713
  154.2790  135.6275  153.5340 H   0  0  0  0  0  0  0  0  0  0  0  0  # atno 10763 bound_to 10752
  152.9868  135.5628  154.5516 H   0  0  0  0  0  0  0  0  0  0  0  0  # atno 10764 bound_to 10752
  154.5102  135.2876  155.1324 H   0  0  0  0  0  0  0  0  0  0  0  0  # atno 10765 bound_to 10752
  140.7176  133.8856  155.8796 H   0  0  0  0  0  0  0  0  0  0  0  0  # atno 11005 bound_to 11000
  146.1020  140.7532  142.9544 LP  0  0  0  0  0  0  0  0  0  0  0  0  # atno 17320 bound_to 7965
  144.7047  140.3803  143.7127 LP  0  0  0  0  0  0  0  0  0  0  0  0  # atno 17321 bound_to 7965
  140.6944  143.7785  150.7303 LP  0  0  0  0  0  0  0  0  0  0  0  0  # atno 17342 bound_to 10162
  140.1277  143.4554  152.2274 LP  0  0  0  0  0  0  0  0  0  0  0  0  # atno 17343 bound_to 10162
  156.0377  130.3747  150.1518 LP  0  0  0  0  0  0  0  0  0  0  0  0  # atno 17370 bound_to 10713
  156.9704  130.9833  151.3460 LP  0  0  0  0  0  0  0  0  0  0  0  0  # atno 17371 bound_to 10713
  141.0031  134.1123  157.4297 LP  0  0  0  0  0  0  0  0  0  0  0  0  # atno 17394 bound_to 11000
  139.8856  135.0074  156.6445 LP  0  0  0  0  0  0  0  0  0  0  0  0  # atno 17395 bound_to 11000

$$$$
