AV-unprocessed.smi:564|AV-procd|sdf|2947|dock4
  -GOLD-   2262023443D 1   1.00000     0.00000
 Structure written by MMmdl.
 50 51  0  0  0  0  0  0  0  0  2 V2000
  148.6706  137.3955  158.9141 C   0  0  0  0  0  0  0  0  0  0  0  0
  148.1515  136.5684  160.0555 C   0  0  0  0  0  0  0  0  0  0  0  0
  147.8853  137.1576  161.2085 N   0  0  0  0  0  0  0  0  0  0  0  0
  147.4606  136.1652  162.0152 N   0  0  0  0  0  0  0  0  0  0  0  0
  147.0925  136.4803  163.3822 C   0  0  0  0  0  0  0  0  0  0  0  0
  147.4467  134.9452  161.3656 C   0  0  0  0  0  0  0  0  0  0  0  0
  147.0139  133.6819  162.0384 C   0  0  0  0  0  0  0  0  0  0  0  0
  147.8906  135.1666  160.0887 C   0  0  0  0  0  0  0  0  0  0  0  0
  148.0680  134.1745  158.9657 C   0  0  0  0  0  0  0  0  0  0  0  0
  147.1218  134.5360  157.8221 C   0  0  0  0  0  0  0  0  0  0  0  0
  146.0945  135.1745  158.0477 O   0  0  0  0  0  0  0  0  0  0  0  0
  147.4588  134.0852  156.6038 N   0  0  0  0  0  0  0  0  0  0  0  0
  146.6211  134.1823  155.4120 C   0  0  0  0  0  0  0  0  0  0  0  0
  147.2411  135.0895  154.3241 C   0  0  0  0  0  0  0  0  0  0  0  0
  146.8694  134.6825  152.9369 N   0  3  2  0  0  0  0  0  0  0  0  0
  145.5003  135.1565  152.5881 C   0  0  0  0  0  0  0  0  0  0  0  0
  145.1565  134.8881  151.1181 C   0  0  0  0  0  0  0  0  0  0  0  0
  145.2831  133.3981  150.8032 C   0  0  0  0  0  0  0  0  0  0  0  0
  146.6910  132.9207  151.1667 C   0  0  0  0  0  0  0  0  0  0  0  0
  147.0531  133.2250  152.6380 C   0  0  1  0  0  0  0  0  0  0  0  0
  148.4921  132.7317  152.8955 C   0  0  0  0  0  0  0  0  0  0  0  0
  148.3100  137.0198  157.9565 H   0  0  0  0  0  0  0  0  0  0  0  0
  149.7604  137.3806  158.8873 H   0  0  0  0  0  0  0  0  0  0  0  0
  148.3534  138.4360  158.9966 H   0  0  0  0  0  0  0  0  0  0  0  0
  147.3694  135.6591  164.0435 H   0  0  0  0  0  0  0  0  0  0  0  0
  146.0170  136.6440  163.4454 H   0  0  0  0  0  0  0  0  0  0  0  0
  147.6080  137.3821  163.7158 H   0  0  0  0  0  0  0  0  0  0  0  0
  146.7506  132.9162  161.3092 H   0  0  0  0  0  0  0  0  0  0  0  0
  146.1414  133.8479  162.6699 H   0  0  0  0  0  0  0  0  0  0  0  0
  147.8139  133.2876  162.6650 H   0  0  0  0  0  0  0  0  0  0  0  0
  149.0939  134.1760  158.5953 H   0  0  0  0  0  0  0  0  0  0  0  0
  147.8664  133.1533  159.2908 H   0  0  0  0  0  0  0  0  0  0  0  0
  148.3324  133.5873  156.5100 H   0  0  0  0  0  0  0  0  0  0  0  0
  146.4299  133.1864  155.0089 H   0  0  0  0  0  0  0  0  0  0  0  0
  145.6505  134.5712  155.7192 H   0  0  0  0  0  0  0  0  0  0  0  0
  146.8907  136.0954  154.5382 H   0  0  0  0  0  0  0  0  0  0  0  0
  148.3262  135.1275  154.4277 H   0  0  0  0  0  0  0  0  0  0  0  0
  144.7706  134.6682  153.2362 H   0  0  0  0  0  0  0  0  0  0  0  0
  145.4129  136.2273  152.7682 H   0  0  0  0  0  0  0  0  0  0  0  0
  144.1442  135.2306  150.9017 H   0  0  0  0  0  0  0  0  0  0  0  0
  145.8233  135.4614  150.4749 H   0  0  0  0  0  0  0  0  0  0  0  0
  144.5400  132.8320  151.3663 H   0  0  0  0  0  0  0  0  0  0  0  0
  145.0842  133.2167  149.7465 H   0  0  0  0  0  0  0  0  0  0  0  0
  146.7663  131.8495  150.9761 H   0  0  0  0  0  0  0  0  0  0  0  0
  147.4137  133.3987  150.5049 H   0  0  0  0  0  0  0  0  0  0  0  0
  146.3768  132.6602  153.2819 H   0  0  0  0  0  0  0  0  0  0  0  0
  148.6414  131.7324  152.4855 H   0  0  0  0  0  0  0  0  0  0  0  0
  148.7255  132.6563  153.9567 H   0  0  0  0  0  0  0  0  0  0  0  0
  149.2263  133.3888  152.4295 H   0  0  0  0  0  0  0  0  0  0  0  0
  147.5098  135.1680  152.3246 H   0  0  0  0  0  0  0  0  0  0  0  0
  1  2  1  0  0  0  0
  1 22  1  0  0  0  0
  1 23  1  0  0  0  0
  1 24  1  0  0  0  0
  2  8  1  0  0  0  0
  2  3  2  0  0  0  0
  3  4  1  0  0  0  0
  4  5  1  0  0  0  0
  4  6  1  0  0  0  0
  5 25  1  0  0  0  0
  5 26  1  0  0  0  0
  5 27  1  0  0  0  0
  6  7  1  0  0  0  0
  6  8  2  0  0  0  0
  7 28  1  0  0  0  0
  7 29  1  0  0  0  0
  7 30  1  0  0  0  0
  8  9  1  0  0  0  0
  9 10  1  0  0  0  0
  9 31  1  0  0  0  0
  9 32  1  0  0  0  0
 10 11  2  0  0  0  0
 10 12  1  0  0  0  0
 12 13  1  0  0  0  0
 12 33  1  0  0  0  0
 13 14  1  0  0  0  0
 13 34  1  0  0  0  0
 13 35  1  0  0  0  0
 14 15  1  0  0  0  0
 14 36  1  0  0  0  0
 14 37  1  0  0  0  0
 15 20  1  0  0  0  0
 15 16  1  0  0  0  0
 15 50  1  0  0  0  0
 16 17  1  0  0  0  0
 16 38  1  0  0  0  0
 16 39  1  0  0  0  0
 17 18  1  0  0  0  0
 17 40  1  0  0  0  0
 17 41  1  0  0  0  0
 18 19  1  0  0  0  0
 18 42  1  0  0  0  0
 18 43  1  0  0  0  0
 19 20  1  0  0  0  0
 19 44  1  0  0  0  0
 19 45  1  0  0  0  0
 20 21  1  0  0  0  0
 20 46  1  0  0  0  0
 21 47  1  0  0  0  0
 21 48  1  0  0  0  0
 21 49  1  0  0  0  0
M  CHG  1  15   1
M  END
> <s_m_source_file>
AV-unprocessed.smi

> <i_m_source_file_index>
564

> <i_lp_mmshare_version>
43012

> <i_f3d_flags>
0

> <s_epik_input>
W0NIM11jMW5uKFtDSDNdKWMoW0NIM10pYzFbQ0gyXUMoPU8pW05IXVtDSDJdW0NIMl1OMltDSDJdW0NIMl1bQ0gyXVtDSDJdW0NASF0yW0NIM10=

> <s_epik_cmdline>
J2VwaWtfcHl0aG9uJywgJy1waCcsICc3LjAnLCAnLXRuJywgJzgnLCAnLW1hJywgJzIwMCcsICctbWV0YWxfYmluZGluZycsICctaW1hZScsICc8aW5maWxlLm1hZT4nLCAnLW9tYWUnLCAnPG91dGZpbGUubWFlPic=

> <r_lp_tautomer_probability>
1

> <r_epik_Ionization_Penalty>
0.00456826

> <r_epik_Ionization_Penalty_Charging>
0.00240401

> <r_epik_Ionization_Penalty_Neutral>
0.00216425

> <r_epik_State_Penalty>
-0

> <r_epik_Charging_Adjusted_Penalty>
0.00240401

> <i_epik_Tot_Q>
1

> <i_epik_Tot_abs_Q>
1

> <r_epik_Metal_State_Penalty>
-0

> <b_epik_Metal_Only>
0

> <s_lp_Force_Field>
OPLS_2005

> <r_lp_Energy>
16.6365

> <b_lp_Chiralities_Consistent>
1

> <s_lp_Variant>
AV-unprocessed.smi:564-1

> <Gold.Version>
5.8.1

> <Gold.Id.Protein>
6NUR|6NUR_protein|mol2

> <Gold.PLP.Fitness>
44.5025

> <Gold.PLP.PLP>
-35.2188

> <Gold.PLP.part.hbond>
-2.7887

> <Gold.PLP.part.metal>
0.0000

> <Gold.PLP.part.buried>
-3.0449

> <Gold.PLP.part.nonpolar>
-28.8719

> <Gold.PLP.part.repulsive>
0.0000

> <Gold.PLP.ligand.clash>
0.0000

> <Gold.PLP.ligand.torsion>
0.6673

> <Gold.PLP.Chemscore.Hbond>
3.5287

> <Gold.PLP.Chemscore.CHOScore>
0.0000

> <Gold.PLP.Chemscore.Metal>
0.0000

> <Gold.Chemscore.Hbonds>
donor molecule, donor type, donor heavy atom, donor atom, acceptor molecule, acceptor atom, score
      L1  H    15    50       P1  7948  2.00
      P1  H  6931  6943       L1     3  1.00
      P1  H  6934  6947       L1     3  0.77

> <Gold.PLP.Chemscore.Internal.Correction>
0.0323

> <Gold.Rescore>
     Score         DG    S(hbond)    S(metal)    S(lipo)     H(rot)  DE(clash)    DE(int)     intcor
     17.43     -18.23       2.28        0.00      79.13       1.61       0.20       0.60       ----

> <Gold.Chemscore.Fitness>
17.4329

> <Gold.Chemscore.DG>
-18.2313

> <Gold.Chemscore.ZeroCoef>
-5.4800

> <Gold.Chemscore.Hbond>
2.2832

> <Gold.Chemscore.Metal>
0.0000

> <Gold.Chemscore.Lipo>
79.1263

> <Gold.Chemscore.Internal_Hbond>
0.0000

> <Gold.Chemscore.DEClash>
0.1987

> <Gold.Chemscore.DEInternal>
0.5997

> <Gold.Chemscore.Rot>
1.6142

> <Gold.Chemscore.Internal.Correction>
   9.000000E+99

> <Gold.Chemscore.Hbonds>
donor molecule, donor type, donor heavy atom, donor atom, acceptor molecule, acceptor atom, score
      L1  H    15    50       P1  7948  0.98
      P1  H  6931  6943       L1     3  0.86
      P1  H  6934  6947       L1     3  0.59

> <Gold.Chemscore.Hbond.Weighted>
-7.6260

> <Gold.Chemscore.Metal.Weighted>
-0.0000

> <Gold.Chemscore.Lipo.Weighted>
-9.2578

> <Gold.Chemscore.Internal_Hbond.Weighted>
0.0000

> <Gold.Chemscore.DEClash.Weighted>
0.1987

> <Gold.Chemscore.DEInternal.Weighted>
0.5997

> <Gold.Chemscore.Rot.Weighted>
4.1324

> <Gold.Chemscore.Internal.Correction.Weighted>
   9.000000E+99

> <Gold.Protein.RotatedTorsions>
[ 6907 6896 6895 6894 ] final   21.57 input  -60.11 | X-H torsion
[ 7974 7965 7964 7962 ] final   42.28 input  175.53 | X-H torsion
[ 8008 7997 7996 7995 ] final    9.86 input   59.86 | X-H torsion
[ 10167 10162 10161 10158 ] final  171.90 input  -65.29 | X-H torsion
[ 10718 10713 10712 10709 ] final   -2.35 input   66.30 | X-H torsion
[ 10763 10752 10751 10750 ] final   99.63 input  -60.55 | X-H torsion
[ 11005 11000 10999 10996 ] final -116.68 input  -57.11 | X-H torsion

> <Gold.Protein.ActiveResidues>
 VAL166  LYS551  ARG553  GLY616  TRP617  ASP618  TYR619  PRO620  LYS621  CYS622 
 ASP623  PHE694  ASN695  SER759  ASP760  ASP761  ALA762  ILE779  LEU786  VAL792 
 PHE793  MET794  SER795  GLU796  ALA797  LYS798  CYS799  TRP800  GLU811  SER814 

> <Gold.Protein.RotatedAtoms>
  151.9138  135.0327  160.0516 H   0  0  0  0  0  0  0  0  0  0  0  0  # atno 6907 bound_to 6896
  152.2257  133.5013  159.5195 H   0  0  0  0  0  0  0  0  0  0  0  0  # atno 6908 bound_to 6896
  150.7011  134.1200  159.4074 H   0  0  0  0  0  0  0  0  0  0  0  0  # atno 6909 bound_to 6896
  146.0753  139.5318  142.9571 H   0  0  0  0  0  0  0  0  0  0  0  0  # atno 7974 bound_to 7965
  154.7856  140.2826  155.6030 H   0  0  0  0  0  0  0  0  0  0  0  0  # atno 8008 bound_to 7997
  156.2957  140.2614  156.2620 H   0  0  0  0  0  0  0  0  0  0  0  0  # atno 8009 bound_to 7997
  154.9731  140.0376  157.2233 H   0  0  0  0  0  0  0  0  0  0  0  0  # atno 8010 bound_to 7997
  139.5060  144.3434  151.9995 H   0  0  0  0  0  0  0  0  0  0  0  0  # atno 10167 bound_to 10162
  156.7922  130.5365  149.5734 H   0  0  0  0  0  0  0  0  0  0  0  0  # atno 10718 bound_to 10713
  153.3038  135.4107  155.1276 H   0  0  0  0  0  0  0  0  0  0  0  0  # atno 10763 bound_to 10752
  154.8557  135.3548  154.5815 H   0  0  0  0  0  0  0  0  0  0  0  0  # atno 10764 bound_to 10752
  153.6241  135.7063  153.5358 H   0  0  0  0  0  0  0  0  0  0  0  0  # atno 10765 bound_to 10752
  141.0406  133.9842  157.3001 H   0  0  0  0  0  0  0  0  0  0  0  0  # atno 11005 bound_to 11000
  145.6317  141.0303  143.1860 LP  0  0  0  0  0  0  0  0  0  0  0  0  # atno 17320 bound_to 7965
  144.7258  139.7881  143.7365 LP  0  0  0  0  0  0  0  0  0  0  0  0  # atno 17321 bound_to 7965
  140.2872  144.3794  150.6100 LP  0  0  0  0  0  0  0  0  0  0  0  0  # atno 17342 bound_to 10162
  140.5974  143.2167  151.7138 LP  0  0  0  0  0  0  0  0  0  0  0  0  # atno 17343 bound_to 10162
  156.1152  130.6070  151.0109 LP  0  0  0  0  0  0  0  0  0  0  0  0  # atno 17370 bound_to 10713
  157.6595  131.0883  150.7871 LP  0  0  0  0  0  0  0  0  0  0  0  0  # atno 17371 bound_to 10713
  139.9273  135.0201  156.8278 LP  0  0  0  0  0  0  0  0  0  0  0  0  # atno 17394 bound_to 11000
  140.6241  133.9966  155.7632 LP  0  0  0  0  0  0  0  0  0  0  0  0  # atno 17395 bound_to 11000

$$$$
