AV-unprocessed.smi:3031|AV-procd|sdf|11555|dock2
  -GOLD-   2272016523D 1   1.00000     0.00000
 Structure written by MMmdl.
 46 47  0  0  0  0  0  0  0  0  1 V2000
  152.5560  144.9449  158.3882 C   0  0  0  0  0  0  0  0  0  0  0  0
  152.0436  143.5336  158.3865 C   0  0  0  0  0  0  0  0  0  0  0  0
  152.2621  142.5251  159.3675 C   0  0  0  0  0  0  0  0  0  0  0  0
  151.6694  141.3810  159.0693 N   0  0  0  0  0  0  0  0  0  0  0  0
  151.0453  141.6181  157.8953 N   0  0  0  0  0  0  0  0  0  0  0  0
  150.2746  140.5613  157.2584 C   0  0  0  0  0  0  0  0  0  0  0  0
  149.7908  140.9147  155.8286 C   0  0  2  0  0  0  0  0  0  0  0  0
  148.4715  141.7028  155.8379 C   0  0  0  0  0  0  0  0  0  0  0  0
  149.6453  139.7360  154.9676 N   0  0  0  0  0  0  0  0  0  0  0  0
  150.8869  139.0430  154.6238 C   0  0  0  0  0  0  0  0  0  0  0  0
  150.6573  137.5285  154.4977 C   0  0  1  0  0  0  0  0  0  0  0  0
  151.8869  136.9480  154.1143 O   0  0  0  0  0  0  0  0  0  0  0  0
  150.2275  136.8948  155.8398 C   0  0  0  0  0  0  0  0  0  0  0  0
  150.9930  137.3186  157.0132 N   0  0  0  0  0  0  0  0  0  0  0  0
  152.2272  136.5539  157.1863 C   0  0  0  0  0  0  0  0  0  0  0  0
  153.0023  136.9894  158.4422 C   0  0  0  0  0  0  0  0  0  0  0  0
  152.1658  136.8718  159.5884 O   0  0  0  0  0  0  0  0  0  0  0  0
  150.9725  137.6403  159.4770 C   0  0  0  0  0  0  0  0  0  0  0  0
  150.1921  137.1991  158.2270 C   0  0  0  0  0  0  0  0  0  0  0  0
  151.2622  142.9075  157.4568 C   0  0  0  0  0  0  0  0  0  0  0  0
  152.0790  145.5435  159.1643 H   0  0  0  0  0  0  0  0  0  0  0  0
  152.3721  145.4457  157.4374 H   0  0  0  0  0  0  0  0  0  0  0  0
  153.6306  144.9823  158.5676 H   0  0  0  0  0  0  0  0  0  0  0  0
  152.8324  142.5902  160.2824 H   0  0  0  0  0  0  0  0  0  0  0  0
  150.9033  139.6711  157.2161 H   0  0  0  0  0  0  0  0  0  0  0  0
  149.4403  140.2924  157.9063 H   0  0  0  0  0  0  0  0  0  0  0  0
  150.5429  141.5699  155.3873 H   0  0  0  0  0  0  0  0  0  0  0  0
  148.5478  142.5882  156.4697 H   0  0  0  0  0  0  0  0  0  0  0  0
  147.6413  141.0996  156.2067 H   0  0  0  0  0  0  0  0  0  0  0  0
  148.2113  142.0400  154.8340 H   0  0  0  0  0  0  0  0  0  0  0  0
  149.1533  139.9921  154.1175 H   0  0  0  0  0  0  0  0  0  0  0  0
  151.2640  139.4338  153.6778 H   0  0  0  0  0  0  0  0  0  0  0  0
  151.6602  139.2264  155.3692 H   0  0  0  0  0  0  0  0  0  0  0  0
  149.9305  137.3447  153.7074 H   0  0  0  0  0  0  0  0  0  0  0  0
  151.7653  136.5114  153.2851 H   0  0  0  0  0  0  0  0  0  0  0  0
  149.1709  137.1195  155.9958 H   0  0  0  0  0  0  0  0  0  0  0  0
  150.2824  135.8079  155.7612 H   0  0  0  0  0  0  0  0  0  0  0  0
  151.9960  135.4900  157.2578 H   0  0  0  0  0  0  0  0  0  0  0  0
  152.8772  136.6744  156.3209 H   0  0  0  0  0  0  0  0  0  0  0  0
  153.8842  136.3633  158.5794 H   0  0  0  0  0  0  0  0  0  0  0  0
  153.3524  138.0182  158.3428 H   0  0  0  0  0  0  0  0  0  0  0  0
  150.3692  137.4944  160.3730 H   0  0  0  0  0  0  0  0  0  0  0  0
  151.2180  138.7023  159.4246 H   0  0  0  0  0  0  0  0  0  0  0  0
  149.2898  137.8051  158.1362 H   0  0  0  0  0  0  0  0  0  0  0  0
  149.8622  136.1665  158.3536 H   0  0  0  0  0  0  0  0  0  0  0  0
  150.8409  143.2710  156.5310 H   0  0  0  0  0  0  0  0  0  0  0  0
  1  2  1  0  0  0  0
  1 21  1  0  0  0  0
  1 22  1  0  0  0  0
  1 23  1  0  0  0  0
  2 20  2  0  0  0  0
  2  3  1  0  0  0  0
  3  4  2  0  0  0  0
  3 24  1  0  0  0  0
  4  5  1  0  0  0  0
  5  6  1  0  0  0  0
  5 20  1  0  0  0  0
  6  7  1  0  0  0  0
  6 25  1  0  0  0  0
  6 26  1  0  0  0  0
  7  8  1  0  0  0  0
  7  9  1  0  0  0  0
  7 27  1  0  0  0  0
  8 28  1  0  0  0  0
  8 29  1  0  0  0  0
  8 30  1  0  0  0  0
  9 10  1  0  0  0  0
  9 31  1  0  0  0  0
 10 11  1  0  0  0  0
 10 32  1  0  0  0  0
 10 33  1  0  0  0  0
 11 12  1  0  0  0  0
 11 13  1  0  0  0  0
 11 34  1  0  0  0  0
 12 35  1  0  0  0  0
 13 14  1  0  0  0  0
 13 36  1  0  0  0  0
 13 37  1  0  0  0  0
 14 19  1  0  0  0  0
 14 15  1  0  0  0  0
 15 16  1  0  0  0  0
 15 38  1  0  0  0  0
 15 39  1  0  0  0  0
 16 17  1  0  0  0  0
 16 40  1  0  0  0  0
 16 41  1  0  0  0  0
 17 18  1  0  0  0  0
 18 19  1  0  0  0  0
 18 42  1  0  0  0  0
 18 43  1  0  0  0  0
 19 44  1  0  0  0  0
 19 45  1  0  0  0  0
 20 46  1  0  0  0  0
M  END
> <s_m_source_file>
AV-unprocessed.smi

> <i_m_source_file_index>
3031

> <i_lp_mmshare_version>
43012

> <i_f3d_flags>
0

> <s_epik_input>
W0NIM11jMVtjSF1ubihbY0hdMSlbQ0gyXVtDQEhdKFtDSDNdKVtOSF1bQ0gyXVtDQEhdKFtPSF0pW0NIMl1OMltDSDJdW0NIMl1PW0NIMl1bQ0gyXTI=

> <s_epik_cmdline>
J2VwaWtfcHl0aG9uJywgJy1waCcsICc3LjAnLCAnLXRuJywgJzgnLCAnLW1hJywgJzIwMCcsICctbWV0YWxfYmluZGluZycsICctaW1hZScsICc8aW5maWxlLm1hZT4nLCAnLW9tYWUnLCAnPG91dGZpbGUubWFlPic=

> <r_lp_tautomer_probability>
1

> <r_epik_Ionization_Penalty>
2.8101

> <r_epik_Ionization_Penalty_Charging>
0

> <r_epik_Ionization_Penalty_Neutral>
2.8101

> <r_epik_State_Penalty>
2.12351

> <r_epik_Charging_Adjusted_Penalty>
2.12351

> <i_epik_Tot_Q>
0

> <i_epik_Tot_abs_Q>
0

> <r_epik_Metal_State_Penalty>
2.12345

> <b_epik_Metal_Only>
0

> <s_lp_Force_Field>
OPLS_2005

> <r_lp_Energy>
32.0321

> <b_lp_Chiralities_Consistent>
1

> <s_lp_Variant>
AV-unprocessed.smi:3031-15

> <Gold.Version>
5.8.1

> <Gold.Id.Protein>
6NUR|6NUR_protein|mol2

> <Gold.PLP.Fitness>
43.9069

> <Gold.PLP.PLP>
-35.6769

> <Gold.PLP.part.hbond>
-3.0000

> <Gold.PLP.part.metal>
0.0000

> <Gold.PLP.part.buried>
-4.8349

> <Gold.PLP.part.nonpolar>
-28.4974

> <Gold.PLP.part.repulsive>
0.0000

> <Gold.PLP.ligand.clash>
0.0000

> <Gold.PLP.ligand.torsion>
1.0403

> <Gold.PLP.Chemscore.Hbond>
2.3536

> <Gold.PLP.Chemscore.CHOScore>
1.0000

> <Gold.PLP.Chemscore.Metal>
0.0000

> <Gold.Chemscore.Hbonds>
donor molecule, donor type, donor heavy atom, donor atom, acceptor molecule, acceptor atom, score
      L1  H    12    35       P1  7949  1.00
      P1  H  6896  6908       L1    17  1.00
      P1  H 10752 10763       L1    12  0.34
      L1  C    20    46       P1  8028  0.89

> <Gold.PLP.Chemscore.Internal.Correction>
0.2499

> <Gold.Rescore>
     Score         DG    S(hbond)    S(metal)    S(lipo)     H(rot)  DE(clash)    DE(int)     intcor
     15.63     -16.80       1.81        0.00     100.63       2.53       0.15       1.03       ----

> <Gold.Chemscore.Fitness>
15.6278

> <Gold.Chemscore.DG>
-16.8036

> <Gold.Chemscore.ZeroCoef>
-5.4800

> <Gold.Chemscore.Hbond>
1.8070

> <Gold.Chemscore.Metal>
0.0000

> <Gold.Chemscore.Lipo>
100.6275

> <Gold.Chemscore.Internal_Hbond>
0.0000

> <Gold.Chemscore.DEClash>
0.1493

> <Gold.Chemscore.DEInternal>
1.0266

> <Gold.Chemscore.Rot>
2.5333

> <Gold.Chemscore.Internal.Correction>
   9.000000E+99

> <Gold.Chemscore.Hbonds>
donor molecule, donor type, donor heavy atom, donor atom, acceptor molecule, acceptor atom, score
      L1  H    12    35       P1  7949  0.98
      P1  H  6896  6908       L1    17  0.70
      P1  H 10752 10763       L1    12  0.02

> <Gold.Chemscore.Hbond.Weighted>
-6.0353

> <Gold.Chemscore.Metal.Weighted>
-0.0000

> <Gold.Chemscore.Lipo.Weighted>
-11.7734

> <Gold.Chemscore.Internal_Hbond.Weighted>
0.0000

> <Gold.Chemscore.DEClash.Weighted>
0.1493

> <Gold.Chemscore.DEInternal.Weighted>
1.0266

> <Gold.Chemscore.Rot.Weighted>
6.4852

> <Gold.Chemscore.Internal.Correction.Weighted>
   9.000000E+99

> <Gold.Protein.RotatedTorsions>
[ 6907 6896 6895 6894 ] final -103.90 input  -60.11 | X-H torsion
[ 7974 7965 7964 7962 ] final  -46.51 input  175.53 | X-H torsion
[ 8008 7997 7996 7995 ] final   67.22 input   59.86 | X-H torsion
[ 10167 10162 10161 10158 ] final   13.03 input  -65.29 | X-H torsion
[ 10718 10713 10712 10709 ] final -150.93 input   66.30 | X-H torsion
[ 10763 10752 10751 10750 ] final   68.84 input  -60.55 | X-H torsion
[ 11005 11000 10999 10996 ] final  -10.14 input  -57.11 | X-H torsion

> <Gold.Protein.ActiveResidues>
 VAL166  LYS551  ARG553  GLY616  TRP617  ASP618  TYR619  PRO620  LYS621  CYS622 
 ASP623  PHE694  ASN695  SER759  ASP760  ASP761  ALA762  ILE779  LEU786  VAL792 
 PHE793  MET794  SER795  GLU796  ALA797  LYS798  CYS799  TRP800  GLU811  SER814 

> <Gold.Protein.RotatedAtoms>
  150.7261  134.0360  159.3749 H   0  0  0  0  0  0  0  0  0  0  0  0  # atno 6907 bound_to 6896
  151.8331  135.0613  160.0448 H   0  0  0  0  0  0  0  0  0  0  0  0  # atno 6908 bound_to 6896
  152.2919  133.5533  159.5599 H   0  0  0  0  0  0  0  0  0  0  0  0  # atno 6909 bound_to 6896
  145.9712  140.7381  142.9409 H   0  0  0  0  0  0  0  0  0  0  0  0  # atno 7974 bound_to 7965
  155.6895  140.3496  155.4887 H   0  0  0  0  0  0  0  0  0  0  0  0  # atno 8008 bound_to 7997
  155.9537  140.1124  157.0977 H   0  0  0  0  0  0  0  0  0  0  0  0  # atno 8009 bound_to 7997
  154.4127  140.1189  156.5072 H   0  0  0  0  0  0  0  0  0  0  0  0  # atno 8010 bound_to 7997
  140.6029  143.8566  150.6984 H   0  0  0  0  0  0  0  0  0  0  0  0  # atno 10167 bound_to 10162
  156.4525  130.8175  151.2406 H   0  0  0  0  0  0  0  0  0  0  0  0  # atno 10718 bound_to 10713
  153.0256  135.5232  154.7196 H   0  0  0  0  0  0  0  0  0  0  0  0  # atno 10763 bound_to 10752
  154.6255  135.2894  155.0279 H   0  0  0  0  0  0  0  0  0  0  0  0  # atno 10764 bound_to 10752
  154.1250  135.6602  153.4963 H   0  0  0  0  0  0  0  0  0  0  0  0  # atno 10765 bound_to 10752
  140.7416  133.8666  155.8972 H   0  0  0  0  0  0  0  0  0  0  0  0  # atno 11005 bound_to 11000
  144.6837  140.2751  143.7300 LP  0  0  0  0  0  0  0  0  0  0  0  0  # atno 17320 bound_to 7965
  145.7904  139.1925  143.2106 LP  0  0  0  0  0  0  0  0  0  0  0  0  # atno 17321 bound_to 7965
  140.2117  143.3878  152.1713 LP  0  0  0  0  0  0  0  0  0  0  0  0  # atno 17342 bound_to 10162
  139.5304  144.7152  151.5076 LP  0  0  0  0  0  0  0  0  0  0  0  0  # atno 17343 bound_to 10162
  157.7502  131.0133  150.3419 LP  0  0  0  0  0  0  0  0  0  0  0  0  # atno 17370 bound_to 10713
  156.3801  130.3879  149.7108 LP  0  0  0  0  0  0  0  0  0  0  0  0  # atno 17371 bound_to 10713
  140.9832  134.1378  157.4476 LP  0  0  0  0  0  0  0  0  0  0  0  0  # atno 17394 bound_to 11000
  139.8805  135.0017  156.6083 LP  0  0  0  0  0  0  0  0  0  0  0  0  # atno 17395 bound_to 11000

$$$$
