AV-unprocessed.smi:1631|AV-procd|sdf|6527|dock6
  -GOLD-   22720 7203D 1   1.00000     0.00000
 Structure written by MMmdl.
 38 39  0  0  0  0  0  0  0  0  1 V2000
  147.3925  141.3832  154.4327 C   0  0  0  0  0  0  0  0  0  0  0  0
  147.1361  141.7342  155.8733 C   0  0  0  0  0  0  0  0  0  0  0  0
  148.1739  141.9703  156.6058 N   0  0  0  0  0  0  0  0  0  0  0  0
  148.0520  142.3178  157.9371 N   0  0  0  0  0  0  0  0  0  0  0  0
  149.3284  142.6100  158.6038 C   0  0  0  0  0  0  0  0  0  0  0  0
  150.5517  142.0964  157.8052 C   0  0  1  0  0  0  0  0  0  0  0  0
  150.8804  143.0715  156.8375 O   0  0  0  0  0  0  0  0  0  0  0  0
  151.7530  141.7562  158.6917 C   0  0  0  0  0  0  0  0  0  0  0  0
  152.3184  142.7978  159.4637 C   0  0  0  0  0  0  0  0  0  0  0  0
  153.4031  142.5566  160.3240 C   0  0  0  0  0  0  0  0  0  0  0  0
  153.9429  141.2642  160.4181 C   0  0  0  0  0  0  0  0  0  0  0  0
  153.4023  140.2211  159.6456 C   0  0  0  0  0  0  0  0  0  0  0  0
  152.3118  140.4475  158.7720 C   0  0  0  0  0  0  0  0  0  0  0  0
  151.7808  139.2813  157.9369 C   0  0  0  0  0  0  0  0  0  0  0  0
  152.4572  138.1558  158.1695 F   0  0  0  0  0  0  0  0  0  0  0  0
  150.5026  139.0469  158.2269 F   0  0  0  0  0  0  0  0  0  0  0  0
  151.8975  139.5570  156.6376 F   0  0  0  0  0  0  0  0  0  0  0  0
  146.8703  142.4036  158.6112 C   0  0  0  0  0  0  0  0  0  0  0  0
  146.8089  142.6954  159.8065 O   0  0  0  0  0  0  0  0  0  0  0  0
  145.6977  142.1343  157.7760 C   0  0  0  0  0  0  0  0  0  0  0  0
  144.4372  142.2342  158.4380 C   0  0  0  0  0  0  0  0  0  0  0  0
  143.4166  142.3364  158.9749 N   0  0  0  0  0  0  0  0  0  0  0  0
  145.8031  141.8187  156.4608 C   0  0  0  0  0  0  0  0  0  0  0  0
  144.6171  141.5350  155.5496 C   0  0  0  0  0  0  0  0  0  0  0  0
  146.9413  140.4235  154.1802 H   0  0  0  0  0  0  0  0  0  0  0  0
  148.4595  141.3117  154.2155 H   0  0  0  0  0  0  0  0  0  0  0  0
  146.9726  142.1406  153.7705 H   0  0  0  0  0  0  0  0  0  0  0  0
  149.4213  143.6843  158.7753 H   0  0  0  0  0  0  0  0  0  0  0  0
  149.3238  142.1698  159.6027 H   0  0  0  0  0  0  0  0  0  0  0  0
  150.2294  141.2243  157.2431 H   0  0  0  0  0  0  0  0  0  0  0  0
  150.1170  143.6059  156.6797 H   0  0  0  0  0  0  0  0  0  0  0  0
  151.9111  143.7964  159.4048 H   0  0  0  0  0  0  0  0  0  0  0  0
  153.8186  143.3622  160.9112 H   0  0  0  0  0  0  0  0  0  0  0  0
  154.7762  141.0730  161.0780 H   0  0  0  0  0  0  0  0  0  0  0  0
  153.8441  139.2401  159.7331 H   0  0  0  0  0  0  0  0  0  0  0  0
  143.6635  141.7009  156.0499 H   0  0  0  0  0  0  0  0  0  0  0  0
  144.6367  140.4986  155.2113 H   0  0  0  0  0  0  0  0  0  0  0  0
  144.6399  142.1834  154.6732 H   0  0  0  0  0  0  0  0  0  0  0  0
  1  2  1  0  0  0  0
  1 25  1  0  0  0  0
  1 26  1  0  0  0  0
  1 27  1  0  0  0  0
  2 23  1  0  0  0  0
  2  3  2  0  0  0  0
  3  4  1  0  0  0  0
  4  5  1  0  0  0  0
  4 18  1  0  0  0  0
  5  6  1  0  0  0  0
  5 28  1  0  0  0  0
  5 29  1  0  0  0  0
  6  7  1  0  0  0  0
  6  8  1  0  0  0  0
  6 30  1  0  0  0  0
  7 31  1  0  0  0  0
  8 13  1  0  0  0  0
  8  9  2  0  0  0  0
  9 10  1  0  0  0  0
  9 32  1  0  0  0  0
 10 11  2  0  0  0  0
 10 33  1  0  0  0  0
 11 12  1  0  0  0  0
 11 34  1  0  0  0  0
 12 13  2  0  0  0  0
 12 35  1  0  0  0  0
 13 14  1  0  0  0  0
 14 15  1  0  0  0  0
 14 16  1  0  0  0  0
 14 17  1  0  0  0  0
 18 19  2  0  0  0  0
 18 20  1  0  0  0  0
 20 21  1  0  0  0  0
 20 23  2  0  0  0  0
 21 22  3  0  0  0  0
 23 24  1  0  0  0  0
 24 36  1  0  0  0  0
 24 37  1  0  0  0  0
 24 38  1  0  0  0  0
M  END
> <s_m_source_file>
AV-unprocessed.smi

> <i_m_source_file_index>
1631

> <i_lp_mmshare_version>
43012

> <i_f3d_flags>
0

> <s_epik_input>
TiNDYyhjMVtDSDNdKWMoPU8pbihuYzFbQ0gzXSlbQ0gyXVtDQEhdKFtPSF0pYzJbY0hdW2NIXVtjSF1bY0hdYzJDKEYpKEYpRg==

> <s_epik_cmdline>
J2VwaWtfcHl0aG9uJywgJy1waCcsICc3LjAnLCAnLXRuJywgJzgnLCAnLW1hJywgJzIwMCcsICctbWV0YWxfYmluZGluZycsICctaW1hZScsICc8aW5maWxlLm1hZT4nLCAnLW9tYWUnLCAnPG91dGZpbGUubWFlPic=

> <r_lp_tautomer_probability>
1

> <r_epik_Ionization_Penalty>
7.1854e-08

> <r_epik_Ionization_Penalty_Charging>
1.40848e-10

> <r_epik_Ionization_Penalty_Neutral>
7.17131e-08

> <r_epik_State_Penalty>
-0

> <r_epik_Charging_Adjusted_Penalty>
1.40848e-10

> <i_epik_Tot_Q>
0

> <i_epik_Tot_abs_Q>
0

> <r_epik_Metal_State_Penalty>
-0

> <b_epik_Metal_Only>
0

> <s_lp_Force_Field>
OPLS_2005

> <r_lp_Energy>
27.8833

> <b_lp_Chiralities_Consistent>
1

> <s_lp_Variant>
AV-unprocessed.smi:1631-2

> <Gold.Version>
5.8.1

> <Gold.Id.Protein>
6NUR|6NUR_protein|mol2

> <Gold.PLP.Fitness>
40.3743

> <Gold.PLP.PLP>
-34.8843

> <Gold.PLP.part.hbond>
-2.5991

> <Gold.PLP.part.metal>
0.0000

> <Gold.PLP.part.buried>
-6.7002

> <Gold.PLP.part.nonpolar>
-28.6293

> <Gold.PLP.part.repulsive>
1.3915

> <Gold.PLP.ligand.clash>
1.4877

> <Gold.PLP.ligand.torsion>
0.5012

> <Gold.PLP.Chemscore.Hbond>
2.1594

> <Gold.PLP.Chemscore.CHOScore>
0.0000

> <Gold.PLP.Chemscore.Metal>
0.0000

> <Gold.Chemscore.Hbonds>
donor molecule, donor type, donor heavy atom, donor atom, acceptor molecule, acceptor atom, score
      L1  H     7    31       P1  8028  1.00
      P1  H  6933  6944       L1    19  0.12
      P1  H  6934  6946       L1    19  0.94

> <Gold.PLP.Chemscore.Internal.Correction>
1.5017

> <Gold.Rescore>
     Score         DG    S(hbond)    S(metal)    S(lipo)     H(rot)  DE(clash)    DE(int)     intcor
     15.40     -16.81       1.96        0.00      87.03       2.11       0.26       1.15       ----

> <Gold.Chemscore.Fitness>
15.3988

> <Gold.Chemscore.DG>
-16.8067

> <Gold.Chemscore.ZeroCoef>
-5.4800

> <Gold.Chemscore.Hbond>
1.9618

> <Gold.Chemscore.Metal>
0.0000

> <Gold.Chemscore.Lipo>
87.0253

> <Gold.Chemscore.Internal_Hbond>
0.0000

> <Gold.Chemscore.DEClash>
0.2590

> <Gold.Chemscore.DEInternal>
1.1488

> <Gold.Chemscore.Rot>
2.1124

> <Gold.Chemscore.Internal.Correction>
   9.000000E+99

> <Gold.Chemscore.Hbonds>
donor molecule, donor type, donor heavy atom, donor atom, acceptor molecule, acceptor atom, score
      L1  H     7    31       P1  8028  0.98
      P1  H  6933  6944       L1    19  0.13
      P1  H  6934  6946       L1    19  0.30

> <Gold.Chemscore.Hbond.Weighted>
-6.5525

> <Gold.Chemscore.Metal.Weighted>
-0.0000

> <Gold.Chemscore.Lipo.Weighted>
-10.1820

> <Gold.Chemscore.Internal_Hbond.Weighted>
0.0000

> <Gold.Chemscore.DEClash.Weighted>
0.2590

> <Gold.Chemscore.DEInternal.Weighted>
1.1488

> <Gold.Chemscore.Rot.Weighted>
5.4078

> <Gold.Chemscore.Internal.Correction.Weighted>
   9.000000E+99

> <Gold.Protein.RotatedTorsions>
[ 6907 6896 6895 6894 ] final  -22.64 input  -60.11 | X-H torsion
[ 7974 7965 7964 7962 ] final  -56.02 input  175.53 | X-H torsion
[ 8008 7997 7996 7995 ] final  -82.53 input   59.86 | X-H torsion
[ 10167 10162 10161 10158 ] final -133.86 input  -65.29 | X-H torsion
[ 10718 10713 10712 10709 ] final  107.99 input   66.30 | X-H torsion
[ 10763 10752 10751 10750 ] final  -75.67 input  -60.55 | X-H torsion
[ 11005 11000 10999 10996 ] final  -70.42 input  -57.11 | X-H torsion

> <Gold.Protein.ActiveResidues>
 VAL166  LYS551  ARG553  GLY616  TRP617  ASP618  TYR619  PRO620  LYS621  CYS622 
 ASP623  PHE694  ASN695  SER759  ASP760  ASP761  ALA762  ILE779  LEU786  VAL792 
 PHE793  MET794  SER795  GLU796  ALA797  LYS798  CYS799  TRP800  GLU811  SER814 

> <Gold.Protein.RotatedAtoms>
  151.2156  135.0498  159.8928 H   0  0  0  0  0  0  0  0  0  0  0  0  # atno 6907 bound_to 6896
  152.5420  134.0696  159.8198 H   0  0  0  0  0  0  0  0  0  0  0  0  # atno 6908 bound_to 6896
  151.0856  133.5308  159.2650 H   0  0  0  0  0  0  0  0  0  0  0  0  # atno 6909 bound_to 6896
  145.8675  140.8240  142.9905 H   0  0  0  0  0  0  0  0  0  0  0  0  # atno 7974 bound_to 7965
  154.6095  140.0632  156.9475 H   0  0  0  0  0  0  0  0  0  0  0  0  # atno 8008 bound_to 7997
  155.1997  140.3314  155.4327 H   0  0  0  0  0  0  0  0  0  0  0  0  # atno 8009 bound_to 7997
  156.2368  140.1867  156.7081 H   0  0  0  0  0  0  0  0  0  0  0  0  # atno 8010 bound_to 7997
  139.8939  143.6688  152.2607 H   0  0  0  0  0  0  0  0  0  0  0  0  # atno 10167 bound_to 10162
  157.6605  131.0884  150.6238 H   0  0  0  0  0  0  0  0  0  0  0  0  # atno 10718 bound_to 10713
  154.4897  135.5823  153.6450 H   0  0  0  0  0  0  0  0  0  0  0  0  # atno 10763 bound_to 10752
  152.9860  135.6109  154.3141 H   0  0  0  0  0  0  0  0  0  0  0  0  # atno 10764 bound_to 10752
  154.3039  135.2846  155.2577 H   0  0  0  0  0  0  0  0  0  0  0  0  # atno 10765 bound_to 10752
  141.1574  133.6790  156.6751 H   0  0  0  0  0  0  0  0  0  0  0  0  # atno 11005 bound_to 11000
  144.6726  140.1188  143.7451 LP  0  0  0  0  0  0  0  0  0  0  0  0  # atno 17320 bound_to 7965
  145.9176  139.2525  143.1400 LP  0  0  0  0  0  0  0  0  0  0  0  0  # atno 17321 bound_to 7965
  139.7085  144.7624  151.1153 LP  0  0  0  0  0  0  0  0  0  0  0  0  # atno 17342 bound_to 10162
  140.7721  143.5363  150.9365 LP  0  0  0  0  0  0  0  0  0  0  0  0  # atno 17343 bound_to 10162
  156.6541  130.4493  149.5709 LP  0  0  0  0  0  0  0  0  0  0  0  0  # atno 17370 bound_to 10713
  156.2115  130.6682  151.1275 LP  0  0  0  0  0  0  0  0  0  0  0  0  # atno 17371 bound_to 10713
  140.3145  134.8058  157.4203 LP  0  0  0  0  0  0  0  0  0  0  0  0  # atno 17394 bound_to 11000
  140.1149  134.5296  155.8233 LP  0  0  0  0  0  0  0  0  0  0  0  0  # atno 17395 bound_to 11000

$$$$
