AV-unprocessed.smi:1574|AV-procd|sdf|6337|dock10
  -GOLD-   22720 6553D 1   1.00000     0.00000
 Structure written by MMmdl.
 40 41  0  0  0  0  0  0  0  0  1 V2000
  151.0218  142.6278  157.7642 C   0  0  0  0  0  0  0  0  0  0  0  0
  151.5691  141.5861  158.7528 C   0  0  2  0  0  0  0  0  0  0  0  0
  152.9693  141.9720  159.2745 C   0  0  0  0  0  0  0  0  0  0  0  0
  153.4946  140.9466  160.2917 C   0  0  0  0  0  0  0  0  0  0  0  0
  153.4898  139.5271  159.7052 C   0  0  0  0  0  0  0  0  0  0  0  0
  152.0938  139.1435  159.1915 C   0  0  0  0  0  0  0  0  0  0  0  0
  151.5754  140.1622  158.1526 C   0  0  2  0  0  0  0  0  0  0  0  0
  152.4055  140.1885  156.9974 O   0  0  0  0  0  0  0  0  0  0  0  0
  151.7551  140.5030  155.7765 C   0  0  0  0  0  0  0  0  0  0  0  0
  150.7297  139.4029  155.4686 C   0  0  0  0  0  0  0  0  0  0  0  0
  149.3912  139.9557  155.2867 N   0  0  0  0  0  0  0  0  0  0  0  0
  149.0966  141.0448  154.5588 C   0  0  0  0  0  0  0  0  0  0  0  0
  149.9404  141.7181  153.9674 O   0  0  0  0  0  0  0  0  0  0  0  0
  147.6216  141.4347  154.4781 C   0  0  0  0  0  0  0  0  0  0  0  0
  146.8704  140.4678  153.7009 N   0  0  0  0  0  0  0  0  0  0  0  0
  146.9873  140.0841  152.4280 C   0  0  0  0  0  0  0  0  0  0  0  0
  146.0839  139.1698  152.1086 N   0  0  0  0  0  0  0  0  0  0  0  0
  145.3806  138.9960  153.2889 N   0  0  0  0  0  0  0  0  0  0  0  0
  145.8434  139.7629  154.2377 N   0  0  0  0  0  0  0  0  0  0  0  0
  151.6603  142.7187  156.8847 H   0  0  0  0  0  0  0  0  0  0  0  0
  150.9574  143.6120  158.2286 H   0  0  0  0  0  0  0  0  0  0  0  0
  150.0219  142.3581  157.4235 H   0  0  0  0  0  0  0  0  0  0  0  0
  150.8923  141.5768  159.6086 H   0  0  0  0  0  0  0  0  0  0  0  0
  153.6693  142.0474  158.4410 H   0  0  0  0  0  0  0  0  0  0  0  0
  152.9367  142.9589  159.7370 H   0  0  0  0  0  0  0  0  0  0  0  0
  154.5030  141.2174  160.6052 H   0  0  0  0  0  0  0  0  0  0  0  0
  152.8755  140.9723  161.1893 H   0  0  0  0  0  0  0  0  0  0  0  0
  154.2046  139.4678  158.8845 H   0  0  0  0  0  0  0  0  0  0  0  0
  153.8227  138.8115  160.4575 H   0  0  0  0  0  0  0  0  0  0  0  0
  152.1107  138.1343  158.7823 H   0  0  0  0  0  0  0  0  0  0  0  0
  151.4013  139.1072  160.0334 H   0  0  0  0  0  0  0  0  0  0  0  0
  150.5573  139.8995  157.8605 H   0  0  0  0  0  0  0  0  0  0  0  0
  151.2553  141.4699  155.8280 H   0  0  0  0  0  0  0  0  0  0  0  0
  152.4901  140.5550  154.9724 H   0  0  0  0  0  0  0  0  0  0  0  0
  151.0086  138.8953  154.5453 H   0  0  0  0  0  0  0  0  0  0  0  0
  150.7360  138.6429  156.2517 H   0  0  0  0  0  0  0  0  0  0  0  0
  148.6307  139.4629  155.7320 H   0  0  0  0  0  0  0  0  0  0  0  0
  147.1879  141.5164  155.4761 H   0  0  0  0  0  0  0  0  0  0  0  0
  147.5259  142.4125  154.0049 H   0  0  0  0  0  0  0  0  0  0  0  0
  147.7258  140.4721  151.7421 H   0  0  0  0  0  0  0  0  0  0  0  0
  1  2  1  0  0  0  0
  1 20  1  0  0  0  0
  1 21  1  0  0  0  0
  1 22  1  0  0  0  0
  2  7  1  0  0  0  0
  2  3  1  0  0  0  0
  2 23  1  0  0  0  0
  3  4  1  0  0  0  0
  3 24  1  0  0  0  0
  3 25  1  0  0  0  0
  4  5  1  0  0  0  0
  4 26  1  0  0  0  0
  4 27  1  0  0  0  0
  5  6  1  0  0  0  0
  5 28  1  0  0  0  0
  5 29  1  0  0  0  0
  6  7  1  0  0  0  0
  6 30  1  0  0  0  0
  6 31  1  0  0  0  0
  7  8  1  0  0  0  0
  7 32  1  0  0  0  0
  8  9  1  0  0  0  0
  9 10  1  0  0  0  0
  9 33  1  0  0  0  0
  9 34  1  0  0  0  0
 10 11  1  0  0  0  0
 10 35  1  0  0  0  0
 10 36  1  0  0  0  0
 11 12  1  0  0  0  0
 11 37  1  0  0  0  0
 12 13  2  0  0  0  0
 12 14  1  0  0  0  0
 14 15  1  0  0  0  0
 14 38  1  0  0  0  0
 14 39  1  0  0  0  0
 15 19  1  0  0  0  0
 15 16  1  0  0  0  0
 16 17  2  0  0  0  0
 16 40  1  0  0  0  0
 17 18  1  0  0  0  0
 18 19  2  0  0  0  0
M  END
> <s_m_source_file>
AV-unprocessed.smi

> <i_m_source_file_index>
1574

> <i_lp_mmshare_version>
43012

> <i_f3d_flags>
0

> <s_epik_input>
W0NIM11bQ0BASF0xW0NIMl1bQ0gyXVtDSDJdW0NIMl1bQ0BIXTFPW0NIMl1bQ0gyXVtOSF1DKD1PKVtDSDJdbjJbY0hdbm5uMg==

> <s_epik_cmdline>
J2VwaWtfcHl0aG9uJywgJy1waCcsICc3LjAnLCAnLXRuJywgJzgnLCAnLW1hJywgJzIwMCcsICctbWV0YWxfYmluZGluZycsICctaW1hZScsICc8aW5maWxlLm1hZT4nLCAnLW9tYWUnLCAnPG91dGZpbGUubWFlPic=

> <r_lp_tautomer_probability>
1

> <r_epik_Ionization_Penalty>
1.44269e-06

> <r_epik_Ionization_Penalty_Charging>
0

> <r_epik_Ionization_Penalty_Neutral>
1.44269e-06

> <r_epik_State_Penalty>
-0

> <r_epik_Charging_Adjusted_Penalty>
0

> <i_epik_Tot_Q>
0

> <i_epik_Tot_abs_Q>
0

> <r_epik_Metal_State_Penalty>
-0

> <b_epik_Metal_Only>
0

> <s_lp_Force_Field>
OPLS_2005

> <r_lp_Energy>
10.5238

> <b_lp_Chiralities_Consistent>
1

> <s_lp_Variant>
AV-unprocessed.smi:1574-3

> <Gold.Version>
5.8.1

> <Gold.Id.Protein>
6NUR|6NUR_protein|mol2

> <Gold.PLP.Fitness>
37.5023

> <Gold.PLP.PLP>
-29.5497

> <Gold.PLP.part.hbond>
-2.7886

> <Gold.PLP.part.metal>
0.0000

> <Gold.PLP.part.buried>
-1.6146

> <Gold.PLP.part.nonpolar>
-27.0333

> <Gold.PLP.part.repulsive>
2.6552

> <Gold.PLP.ligand.clash>
0.0000

> <Gold.PLP.ligand.torsion>
0.9297

> <Gold.PLP.Chemscore.Hbond>
2.2480

> <Gold.PLP.Chemscore.CHOScore>
1.0000

> <Gold.PLP.Chemscore.Metal>
0.0000

> <Gold.Chemscore.Hbonds>
donor molecule, donor type, donor heavy atom, donor atom, acceptor molecule, acceptor atom, score
      P1  H  7989  7998       L1    13  0.10
      P1  H  7997  8010       L1     8  1.00
      P1  H  8011  8017       L1    13  0.51
      L1  C    16    40       P1  7957  0.88

> <Gold.PLP.Chemscore.Internal.Correction>
0.0680

> <Gold.Rescore>
     Score         DG    S(hbond)    S(metal)    S(lipo)     H(rot)  DE(clash)    DE(int)     intcor
      9.65     -13.16       2.04        0.00      70.89       2.90       1.12       2.40       ----

> <Gold.Chemscore.Fitness>
9.6463

> <Gold.Chemscore.DG>
-13.1638

> <Gold.Chemscore.ZeroCoef>
-5.4800

> <Gold.Chemscore.Hbond>
2.0438

> <Gold.Chemscore.Metal>
0.0000

> <Gold.Chemscore.Lipo>
70.8915

> <Gold.Chemscore.Internal_Hbond>
0.0000

> <Gold.Chemscore.DEClash>
1.1184

> <Gold.Chemscore.DEInternal>
2.3991

> <Gold.Chemscore.Rot>
2.9050

> <Gold.Chemscore.Internal.Correction>
   9.000000E+99

> <Gold.Chemscore.Hbonds>
donor molecule, donor type, donor heavy atom, donor atom, acceptor molecule, acceptor atom, score
      P1  H  7989  7998       L1    13  0.12
      P1  H  7997  8010       L1     8  0.47
      P1  H  8011  8017       L1    13  0.50

> <Gold.Chemscore.Hbond.Weighted>
-6.8262

> <Gold.Chemscore.Metal.Weighted>
-0.0000

> <Gold.Chemscore.Lipo.Weighted>
-8.2943

> <Gold.Chemscore.Internal_Hbond.Weighted>
0.0000

> <Gold.Chemscore.DEClash.Weighted>
1.1184

> <Gold.Chemscore.DEInternal.Weighted>
2.3991

> <Gold.Chemscore.Rot.Weighted>
7.4367

> <Gold.Chemscore.Internal.Correction.Weighted>
   9.000000E+99

> <Gold.Protein.RotatedTorsions>
[ 6907 6896 6895 6894 ] final  105.66 input  -60.11 | X-H torsion
[ 7974 7965 7964 7962 ] final   51.91 input  175.53 | X-H torsion
[ 8008 7997 7996 7995 ] final   66.80 input   59.86 | X-H torsion
[ 10167 10162 10161 10158 ] final -154.54 input  -65.29 | X-H torsion
[ 10718 10713 10712 10709 ] final   -9.61 input   66.30 | X-H torsion
[ 10763 10752 10751 10750 ] final -172.00 input  -60.55 | X-H torsion
[ 11005 11000 10999 10996 ] final -149.58 input  -57.11 | X-H torsion

> <Gold.Protein.ActiveResidues>
 VAL166  LYS551  ARG553  GLY616  TRP617  ASP618  TYR619  PRO620  LYS621  CYS622 
 ASP623  PHE694  ASN695  SER759  ASP760  ASP761  ALA762  ILE779  LEU786  VAL792 
 PHE793  MET794  SER795  GLU796  ALA797  LYS798  CYS799  TRP800  GLU811  SER814 

> <Gold.Protein.RotatedAtoms>
  152.5222  133.9496  159.7665 H   0  0  0  0  0  0  0  0  0  0  0  0  # atno 6907 bound_to 6896
  150.9809  133.6238  159.2730 H   0  0  0  0  0  0  0  0  0  0  0  0  # atno 6908 bound_to 6896
  151.3416  135.0871  159.9426 H   0  0  0  0  0  0  0  0  0  0  0  0  # atno 6909 bound_to 6896
  145.9866  139.4296  143.0099 H   0  0  0  0  0  0  0  0  0  0  0  0  # atno 7974 bound_to 7965
  155.6830  140.3496  155.4863 H   0  0  0  0  0  0  0  0  0  0  0  0  # atno 8008 bound_to 7997
  155.9591  140.1134  157.0934 H   0  0  0  0  0  0  0  0  0  0  0  0  # atno 8009 bound_to 7997
  154.4139  140.1179  156.5140 H   0  0  0  0  0  0  0  0  0  0  0  0  # atno 8010 bound_to 7997
  139.7005  143.9271  152.2426 H   0  0  0  0  0  0  0  0  0  0  0  0  # atno 10167 bound_to 10162
  156.6855  130.5049  149.5959 H   0  0  0  0  0  0  0  0  0  0  0  0  # atno 10718 bound_to 10713
  154.6243  135.2879  155.0290 H   0  0  0  0  0  0  0  0  0  0  0  0  # atno 10763 bound_to 10752
  154.1474  135.6509  153.4959 H   0  0  0  0  0  0  0  0  0  0  0  0  # atno 10764 bound_to 10752
  153.0250  135.5347  154.7044 H   0  0  0  0  0  0  0  0  0  0  0  0  # atno 10765 bound_to 10752
  140.7492  134.3426  157.5130 H   0  0  0  0  0  0  0  0  0  0  0  0  # atno 11005 bound_to 11000
  145.7691  140.9904  143.1159 LP  0  0  0  0  0  0  0  0  0  0  0  0  # atno 17320 bound_to 7965
  144.6876  139.9425  143.7475 LP  0  0  0  0  0  0  0  0  0  0  0  0  # atno 17321 bound_to 7965
  139.9112  144.6855  150.8560 LP  0  0  0  0  0  0  0  0  0  0  0  0  # atno 17342 bound_to 10162
  140.7708  143.3442  151.2145 LP  0  0  0  0  0  0  0  0  0  0  0  0  # atno 17343 bound_to 10162
  156.1836  130.6515  151.0980 LP  0  0  0  0  0  0  0  0  0  0  0  0  # atno 17370 bound_to 10713
  157.7028  131.0769  150.6765 LP  0  0  0  0  0  0  0  0  0  0  0  0  # atno 17371 bound_to 10713
  139.8791  134.9131  156.3076 LP  0  0  0  0  0  0  0  0  0  0  0  0  # atno 17394 bound_to 11000
  140.9766  133.7293  156.0611 LP  0  0  0  0  0  0  0  0  0  0  0  0  # atno 17395 bound_to 11000

$$$$
