AV-unprocessed.smi:2772|AV-procd|sdf|10667|dock4
  -GOLD-   2272015113D 1   1.00000     0.00000
 Structure written by MMmdl.
 55 57  0  0  0  0  0  0  0  0  3 V2000
  151.4350  141.3843  157.9177 C   0  0  0  0  0  0  0  0  0  0  0  0
  150.5925  140.9087  156.7528 C   0  0  0  0  0  0  0  0  0  0  0  0
  150.1706  141.8054  155.7498 C   0  0  0  0  0  0  0  0  0  0  0  0
  149.3942  141.3078  154.6855 C   0  0  0  0  0  0  0  0  0  0  0  0
  149.0744  139.9287  154.6577 C   0  0  0  0  0  0  0  0  0  0  0  0
  148.2916  139.3091  153.6460 N   0  0  0  0  0  0  0  0  0  0  0  0
  147.4005  138.3109  153.7747 C   0  0  0  0  0  0  0  0  0  0  0  0
  147.1081  137.7475  154.8292 O   0  0  0  0  0  0  0  0  0  0  0  0
  146.8360  138.0062  152.5968 N   0  0  0  0  0  0  0  0  0  0  0  0
  145.8193  136.9767  152.3974 C   0  0  2  0  0  0  0  0  0  0  0  0
  146.2340  135.6806  153.1172 C   0  0  0  0  0  0  0  0  0  0  0  0
  145.2434  134.5379  152.8175 C   0  0  0  0  0  0  0  0  0  0  0  0
  145.1075  134.2854  151.3536 N   0  3  2  0  0  0  0  0  0  0  0  0
  146.2924  133.6224  150.7035 C   0  0  2  0  0  0  0  0  0  0  0  0
  145.9272  132.3577  149.8882 C   0  0  0  0  0  0  0  0  0  0  0  0
  145.4445  131.2096  150.7942 C   0  0  0  0  0  0  0  0  0  0  0  0
  146.4763  130.8587  151.8021 N   0  3  2  0  0  0  0  0  0  0  0  0
  146.0803  129.7045  152.6376 C   0  0  0  0  0  0  0  0  0  0  0  0
  146.8928  132.0295  152.6142 C   0  0  0  0  0  0  0  0  0  0  0  0
  147.3786  133.1816  151.7149 C   0  0  0  0  0  0  0  0  0  0  0  0
  144.6220  135.5285  150.6880 C   0  0  0  0  0  0  0  0  0  0  0  0
  145.5922  136.7070  150.8957 C   0  0  0  0  0  0  0  0  0  0  0  0
  149.5336  139.1264  155.7237 C   0  0  0  0  0  0  0  0  0  0  0  0
  150.2791  139.5952  156.7470 N   0  0  0  0  0  0  0  0  0  0  0  0
  151.6834  142.4415  157.8210 H   0  0  0  0  0  0  0  0  0  0  0  0
  152.3669  140.8204  157.9671 H   0  0  0  0  0  0  0  0  0  0  0  0
  150.8977  141.2450  158.8560 H   0  0  0  0  0  0  0  0  0  0  0  0
  150.4316  142.8527  155.7929 H   0  0  0  0  0  0  0  0  0  0  0  0
  149.0528  141.9924  153.9250 H   0  0  0  0  0  0  0  0  0  0  0  0
  148.3678  139.7233  152.7286 H   0  0  0  0  0  0  0  0  0  0  0  0
  147.1342  138.5209  151.7810 H   0  0  0  0  0  0  0  0  0  0  0  0
  144.8803  137.3185  152.8375 H   0  0  0  0  0  0  0  0  0  0  0  0
  147.2422  135.3889  152.8215 H   0  0  0  0  0  0  0  0  0  0  0  0
  146.2740  135.8543  154.1933 H   0  0  0  0  0  0  0  0  0  0  0  0
  145.5086  133.6393  153.3694 H   0  0  0  0  0  0  0  0  0  0  0  0
  144.2612  134.8155  153.2033 H   0  0  0  0  0  0  0  0  0  0  0  0
  146.7451  134.3371  150.0168 H   0  0  0  0  0  0  0  0  0  0  0  0
  145.2041  132.5628  149.1007 H   0  0  0  0  0  0  0  0  0  0  0  0
  146.8160  132.0199  149.3528 H   0  0  0  0  0  0  0  0  0  0  0  0
  144.5154  131.4846  151.2956 H   0  0  0  0  0  0  0  0  0  0  0  0
  145.2253  130.3329  150.1833 H   0  0  0  0  0  0  0  0  0  0  0  0
  145.1997  129.9380  153.2373 H   0  0  0  0  0  0  0  0  0  0  0  0
  146.8890  129.4218  153.3125 H   0  0  0  0  0  0  0  0  0  0  0  0
  145.8507  128.8389  152.0152 H   0  0  0  0  0  0  0  0  0  0  0  0
  146.0627  132.3599  153.2406 H   0  0  0  0  0  0  0  0  0  0  0  0
  147.6970  131.7321  153.2884 H   0  0  0  0  0  0  0  0  0  0  0  0
  148.2526  132.8377  151.1599 H   0  0  0  0  0  0  0  0  0  0  0  0
  147.7511  134.0093  152.3149 H   0  0  0  0  0  0  0  0  0  0  0  0
  144.4091  135.3774  149.6323 H   0  0  0  0  0  0  0  0  0  0  0  0
  143.6565  135.7891  151.1239 H   0  0  0  0  0  0  0  0  0  0  0  0
  145.1852  137.5971  150.4146 H   0  0  0  0  0  0  0  0  0  0  0  0
  146.5416  136.5031  150.3994 H   0  0  0  0  0  0  0  0  0  0  0  0
  149.3030  138.0716  155.7548 H   0  0  0  0  0  0  0  0  0  0  0  0
  144.3518  133.6214  151.2630 H   0  0  0  0  0  0  0  0  0  0  0  0
  147.2930  130.5656  151.2843 H   0  0  0  0  0  0  0  0  0  0  0  0
  1  2  1  0  0  0  0
  1 25  1  0  0  0  0
  1 26  1  0  0  0  0
  1 27  1  0  0  0  0
  2 24  1  0  0  0  0
  2  3  2  0  0  0  0
  3  4  1  0  0  0  0
  3 28  1  0  0  0  0
  4  5  2  0  0  0  0
  4 29  1  0  0  0  0
  5  6  1  0  0  0  0
  5 23  1  0  0  0  0
  6  7  1  0  0  0  0
  6 30  1  0  0  0  0
  7  8  2  0  0  0  0
  7  9  1  0  0  0  0
  9 10  1  0  0  0  0
  9 31  1  0  0  0  0
 10 22  1  0  0  0  0
 10 11  1  0  0  0  0
 10 32  1  0  0  0  0
 11 12  1  0  0  0  0
 11 33  1  0  0  0  0
 11 34  1  0  0  0  0
 12 13  1  0  0  0  0
 12 35  1  0  0  0  0
 12 36  1  0  0  0  0
 13 14  1  0  0  0  0
 13 21  1  0  0  0  0
 13 54  1  0  0  0  0
 14 20  1  0  0  0  0
 14 15  1  0  0  0  0
 14 37  1  0  0  0  0
 15 16  1  0  0  0  0
 15 38  1  0  0  0  0
 15 39  1  0  0  0  0
 16 17  1  0  0  0  0
 16 40  1  0  0  0  0
 16 41  1  0  0  0  0
 17 18  1  0  0  0  0
 17 19  1  0  0  0  0
 17 55  1  0  0  0  0
 18 42  1  0  0  0  0
 18 43  1  0  0  0  0
 18 44  1  0  0  0  0
 19 20  1  0  0  0  0
 19 45  1  0  0  0  0
 19 46  1  0  0  0  0
 20 47  1  0  0  0  0
 20 48  1  0  0  0  0
 21 22  1  0  0  0  0
 21 49  1  0  0  0  0
 21 50  1  0  0  0  0
 22 51  1  0  0  0  0
 22 52  1  0  0  0  0
 23 24  2  0  0  0  0
 23 53  1  0  0  0  0
M  CHG  1  13   1
M  CHG  1  17   1
M  END
> <s_m_source_file>
AV-unprocessed.smi

> <i_m_source_file_index>
2772

> <i_lp_mmshare_version>
43012

> <i_f3d_flags>
0

> <s_epik_input>
W0NIM11jMVtjSF1bY0hdYyhbY0hdbjEpW05IXUMoPU8pW05IXVtDSF0yW0NIMl1bQ0gyXU4oW0NIMl1bQ0gyXTIpW0NIXTNbQ0gyXVtDSDJdTihbQ0gzXSlbQ0gyXVtDSDJdMw==

> <s_epik_cmdline>
J2VwaWtfcHl0aG9uJywgJy1waCcsICc3LjAnLCAnLXRuJywgJzgnLCAnLW1hJywgJzIwMCcsICctbWV0YWxfYmluZGluZycsICctaW1hZScsICc8aW5maWxlLm1hZT4nLCAnLW9tYWUnLCAnPG91dGZpbGUubWFlPic=

> <r_epik_Ionization_Penalty>
0.196786

> <r_epik_Ionization_Penalty_Charging>
0.180787

> <r_epik_Ionization_Penalty_Neutral>
0.0159988

> <r_epik_State_Penalty>
0.163322

> <r_epik_Charging_Adjusted_Penalty>
0.344109

> <i_epik_Tot_Q>
2

> <i_epik_Tot_abs_Q>
2

> <r_epik_Metal_State_Penalty>
0.163596

> <b_epik_Metal_Only>
0

> <s_lp_Force_Field>
OPLS_2005

> <r_lp_Energy>
49.9042

> <b_lp_Chiralities_Consistent>
1

> <s_lp_Variant>
AV-unprocessed.smi:2772-4

> <Gold.Version>
5.8.1

> <Gold.Id.Protein>
6NUR|6NUR_protein|mol2

> <Gold.PLP.Fitness>
38.8389

> <Gold.PLP.PLP>
-36.5444

> <Gold.PLP.part.hbond>
-3.0000

> <Gold.PLP.part.metal>
0.0000

> <Gold.PLP.part.buried>
0.9357

> <Gold.PLP.part.nonpolar>
-34.3687

> <Gold.PLP.part.repulsive>
0.1847

> <Gold.PLP.ligand.clash>
0.0000

> <Gold.PLP.ligand.torsion>
1.7428

> <Gold.PLP.Chemscore.Hbond>
1.9120

> <Gold.PLP.Chemscore.CHOScore>
0.0000

> <Gold.PLP.Chemscore.Metal>
0.0000

> <Gold.Chemscore.Hbonds>
donor molecule, donor type, donor heavy atom, donor atom, acceptor molecule, acceptor atom, score
      L1  H     6    30       P1  7957  0.90
      L1  H    17    55       P1 10747  1.00

> <Gold.PLP.Chemscore.Internal.Correction>
0.0441

> <Gold.Rescore>
     Score         DG    S(hbond)    S(metal)    S(lipo)     H(rot)  DE(clash)    DE(int)     intcor
     16.38     -21.99       1.86        0.00     114.44       1.21       1.63       3.99       ----

> <Gold.Chemscore.Fitness>
16.3814

> <Gold.Chemscore.DG>
-21.9934

> <Gold.Chemscore.ZeroCoef>
-5.4800

> <Gold.Chemscore.Hbond>
1.8621

> <Gold.Chemscore.Metal>
0.0000

> <Gold.Chemscore.Lipo>
114.4408

> <Gold.Chemscore.Internal_Hbond>
0.0000

> <Gold.Chemscore.DEClash>
1.6254

> <Gold.Chemscore.DEInternal>
3.9865

> <Gold.Chemscore.Rot>
1.2092

> <Gold.Chemscore.Internal.Correction>
   9.000000E+99

> <Gold.Chemscore.Hbonds>
donor molecule, donor type, donor heavy atom, donor atom, acceptor molecule, acceptor atom, score
      L1  H     6    30       P1  7957  0.83
      L1  H    17    55       P1 10747  0.96

> <Gold.Chemscore.Hbond.Weighted>
-6.2193

> <Gold.Chemscore.Metal.Weighted>
-0.0000

> <Gold.Chemscore.Lipo.Weighted>
-13.3896

> <Gold.Chemscore.Internal_Hbond.Weighted>
0.0000

> <Gold.Chemscore.DEClash.Weighted>
1.6254

> <Gold.Chemscore.DEInternal.Weighted>
3.9865

> <Gold.Chemscore.Rot.Weighted>
3.0955

> <Gold.Chemscore.Internal.Correction.Weighted>
   9.000000E+99

> <Gold.Protein.RotatedTorsions>
[ 6907 6896 6895 6894 ] final  -35.74 input  -60.11 | X-H torsion
[ 7974 7965 7964 7962 ] final  -52.66 input  175.53 | X-H torsion
[ 8008 7997 7996 7995 ] final -105.88 input   59.86 | X-H torsion
[ 10167 10162 10161 10158 ] final  103.75 input  -65.29 | X-H torsion
[ 10718 10713 10712 10709 ] final   47.92 input   66.30 | X-H torsion
[ 10763 10752 10751 10750 ] final -105.86 input  -60.55 | X-H torsion
[ 11005 11000 10999 10996 ] final  167.15 input  -57.11 | X-H torsion

> <Gold.Protein.ActiveResidues>
 VAL166  LYS551  ARG553  GLY616  TRP617  ASP618  TYR619  PRO620  LYS621  CYS622 
 ASP623  PHE694  ASN695  SER759  ASP760  ASP761  ALA762  ILE779  LEU786  VAL792 
 PHE793  MET794  SER795  GLU796  ALA797  LYS798  CYS799  TRP800  GLU811  SER814 

> <Gold.Protein.RotatedAtoms>
  151.0360  134.9573  159.8136 H   0  0  0  0  0  0  0  0  0  0  0  0  # atno 6907 bound_to 6896
  152.5355  134.2719  159.8985 H   0  0  0  0  0  0  0  0  0  0  0  0  # atno 6908 bound_to 6896
  151.2730  133.4204  159.2656 H   0  0  0  0  0  0  0  0  0  0  0  0  # atno 6909 bound_to 6896
  145.9054  140.7959  142.9722 H   0  0  0  0  0  0  0  0  0  0  0  0  # atno 7974 bound_to 7965
  154.9063  140.0411  157.1921 H   0  0  0  0  0  0  0  0  0  0  0  0  # atno 8008 bound_to 7997
  154.8393  140.2912  155.5648 H   0  0  0  0  0  0  0  0  0  0  0  0  # atno 8009 bound_to 7997
  156.2991  140.2486  156.3333 H   0  0  0  0  0  0  0  0  0  0  0  0  # atno 8010 bound_to 7997
  139.7236  144.7052  151.0833 H   0  0  0  0  0  0  0  0  0  0  0  0  # atno 10167 bound_to 10162
  157.4634  130.8210  149.7910 H   0  0  0  0  0  0  0  0  0  0  0  0  # atno 10718 bound_to 10713
  154.7974  135.4733  154.0194 H   0  0  0  0  0  0  0  0  0  0  0  0  # atno 10763 bound_to 10752
  153.1726  135.6827  153.8594 H   0  0  0  0  0  0  0  0  0  0  0  0  # atno 10764 bound_to 10752
  153.8171  135.3209  155.3384 H   0  0  0  0  0  0  0  0  0  0  0  0  # atno 10765 bound_to 10752
  140.2738  134.7805  157.3698 H   0  0  0  0  0  0  0  0  0  0  0  0  # atno 11005 bound_to 11000
  144.6739  140.1743  143.7411 LP  0  0  0  0  0  0  0  0  0  0  0  0  # atno 17320 bound_to 7965
  145.8738  139.2286  143.1645 LP  0  0  0  0  0  0  0  0  0  0  0  0  # atno 17321 bound_to 7965
  140.7758  143.5134  150.9624 LP  0  0  0  0  0  0  0  0  0  0  0  0  # atno 17342 bound_to 10162
  139.8821  143.7058  152.3155 LP  0  0  0  0  0  0  0  0  0  0  0  0  # atno 17343 bound_to 10162
  156.0039  130.3865  150.2503 LP  0  0  0  0  0  0  0  0  0  0  0  0  # atno 17370 bound_to 10713
  157.0682  131.0109  151.3199 LP  0  0  0  0  0  0  0  0  0  0  0  0  # atno 17371 bound_to 10713
  140.1348  134.5048  155.8077 LP  0  0  0  0  0  0  0  0  0  0  0  0  # atno 17394 bound_to 11000
  141.2173  133.6803  156.7104 LP  0  0  0  0  0  0  0  0  0  0  0  0  # atno 17395 bound_to 11000

$$$$
