AV-unprocessed.smi:2751|AV-procd|sdf|10602|dock5
  -GOLD-   2272015 53D 1   1.00000     0.00000
 Structure written by MMmdl.
 34 35  0  0  0  0  0  0  0  0  1 V2000
  150.4381  140.2964  154.5475 O   0  0  0  0  0  0  0  0  0  0  0  0
  149.6622  141.2566  154.5879 C   0  0  0  0  0  0  0  0  0  0  0  0
  149.8207  142.2481  155.4774 N   0  0  0  0  0  0  0  0  0  0  0  0
  150.8783  142.3252  156.4792 C   0  0  0  0  0  0  0  0  0  0  0  0
  150.3018  142.4379  157.9010 C   0  0  0  0  0  0  0  0  0  0  0  0
  151.3838  142.3820  158.9907 C   0  0  1  0  0  0  0  0  0  0  0  0
  152.0729  141.0046  159.0466 C   0  0  0  0  0  0  0  0  0  0  0  0
  153.1978  141.0049  160.0880 C   0  0  0  0  0  0  0  0  0  0  0  0
  154.1514  142.1733  159.8177 C   0  0  0  0  0  0  0  0  0  0  0  0
  153.3662  143.4906  159.7146 C   0  0  0  0  0  0  0  0  0  0  0  0
  152.3631  143.3806  158.7093 O   0  0  0  0  0  0  0  0  0  0  0  0
  148.5475  141.5013  153.7975 N   0  0  0  0  0  0  0  0  0  0  0  0
  147.9142  140.5144  153.2407 C   0  0  0  0  0  0  0  0  0  0  0  0
  148.1081  139.1356  153.2484 N   0  0  0  0  0  0  0  0  0  0  0  0
  147.1320  138.5631  152.4819 C   0  0  0  0  0  0  0  0  0  0  0  0
  146.3553  139.5343  152.0117 C   0  0  0  0  0  0  0  0  0  0  0  0
  146.8091  140.7388  152.4588 O   0  0  0  0  0  0  0  0  0  0  0  0
  149.1534  143.0060  155.4609 H   0  0  0  0  0  0  0  0  0  0  0  0
  151.5372  141.4594  156.3959 H   0  0  0  0  0  0  0  0  0  0  0  0
  151.4890  143.2007  156.2569 H   0  0  0  0  0  0  0  0  0  0  0  0
  149.7560  143.3785  157.9858 H   0  0  0  0  0  0  0  0  0  0  0  0
  149.5732  141.6446  158.0734 H   0  0  0  0  0  0  0  0  0  0  0  0
  150.9214  142.5941  159.9565 H   0  0  0  0  0  0  0  0  0  0  0  0
  151.3465  140.2269  159.2848 H   0  0  0  0  0  0  0  0  0  0  0  0
  152.4847  140.7587  158.0669 H   0  0  0  0  0  0  0  0  0  0  0  0
  152.7728  141.1008  161.0880 H   0  0  0  0  0  0  0  0  0  0  0  0
  153.7386  140.0585  160.0652 H   0  0  0  0  0  0  0  0  0  0  0  0
  154.9007  142.2402  160.6068 H   0  0  0  0  0  0  0  0  0  0  0  0
  154.6910  141.9975  158.8863 H   0  0  0  0  0  0  0  0  0  0  0  0
  152.9102  143.7490  160.6715 H   0  0  0  0  0  0  0  0  0  0  0  0
  154.0387  144.3073  159.4524 H   0  0  0  0  0  0  0  0  0  0  0  0
  148.8293  138.6087  153.7202 H   0  0  0  0  0  0  0  0  0  0  0  0
  147.0970  137.4916  152.3515 H   0  0  0  0  0  0  0  0  0  0  0  0
  145.4822  139.5325  151.3760 H   0  0  0  0  0  0  0  0  0  0  0  0
  1  2  2  0  0  0  0
  2 12  1  0  0  0  0
  2  3  1  0  0  0  0
  3  4  1  0  0  0  0
  3 18  1  0  0  0  0
  4  5  1  0  0  0  0
  4 19  1  0  0  0  0
  4 20  1  0  0  0  0
  5  6  1  0  0  0  0
  5 21  1  0  0  0  0
  5 22  1  0  0  0  0
  6 11  1  0  0  0  0
  6  7  1  0  0  0  0
  6 23  1  0  0  0  0
  7  8  1  0  0  0  0
  7 24  1  0  0  0  0
  7 25  1  0  0  0  0
  8  9  1  0  0  0  0
  8 26  1  0  0  0  0
  8 27  1  0  0  0  0
  9 10  1  0  0  0  0
  9 28  1  0  0  0  0
  9 29  1  0  0  0  0
 10 11  1  0  0  0  0
 10 30  1  0  0  0  0
 10 31  1  0  0  0  0
 12 13  2  0  0  0  0
 13 17  1  0  0  0  0
 13 14  1  0  0  0  0
 14 32  1  0  0  0  0
 14 15  1  0  0  0  0
 15 33  1  0  0  0  0
 15 16  2  0  0  0  0
 16 34  1  0  0  0  0
 16 17  1  0  0  0  0
M  END
> <s_m_source_file>
AV-unprocessed.smi

> <i_m_source_file_index>
2751

> <i_lp_mmshare_version>
43012

> <i_f3d_flags>
0

> <s_epik_input>
bzFbY0hdW2NIXW5jMVtOSF1DKD1PKVtOSF1bQ0gyXVtDSDJdW0NAQEhdMltDSDJdW0NIMl1bQ0gyXVtDSDJdTzI=

> <s_epik_cmdline>
J2VwaWtfcHl0aG9uJywgJy1waCcsICc3LjAnLCAnLXRuJywgJzgnLCAnLW1hJywgJzIwMCcsICctbWV0YWxfYmluZGluZycsICctaW1hZScsICc8aW5maWxlLm1hZT4nLCAnLW9tYWUnLCAnPG91dGZpbGUubWFlPic=

> <r_lp_tautomer_probability>
0.107061

> <r_epik_Ionization_Penalty>
1.421

> <r_epik_Ionization_Penalty_Charging>
1.42064

> <r_epik_Ionization_Penalty_Neutral>
0.0003614

> <r_epik_State_Penalty>
2.61489

> <r_epik_Charging_Adjusted_Penalty>
4.03553

> <i_epik_Tot_Q>
0

> <i_epik_Tot_abs_Q>
0

> <r_epik_Metal_State_Penalty>
3.57288

> <b_epik_Metal_Only>
0

> <s_lp_Force_Field>
OPLS_2005

> <r_lp_Energy>
32.5629

> <b_lp_Chiralities_Consistent>
1

> <s_lp_Variant>
AV-unprocessed.smi:2751-8

> <Gold.Version>
5.8.1

> <Gold.Id.Protein>
6NUR|6NUR_protein|mol2

> <Gold.PLP.Fitness>
42.1273

> <Gold.PLP.PLP>
-28.2374

> <Gold.PLP.part.hbond>
-4.1394

> <Gold.PLP.part.metal>
0.0000

> <Gold.PLP.part.buried>
5.0261

> <Gold.PLP.part.nonpolar>
-28.8917

> <Gold.PLP.part.repulsive>
0.8031

> <Gold.PLP.ligand.clash>
0.0000

> <Gold.PLP.ligand.torsion>
0.1695

> <Gold.PLP.Chemscore.Hbond>
2.2376

> <Gold.PLP.Chemscore.CHOScore>
2.5008

> <Gold.PLP.Chemscore.Metal>
0.0000

> <Gold.Chemscore.Hbonds>
donor molecule, donor type, donor heavy atom, donor atom, acceptor molecule, acceptor atom, score
      L1  H     3    18       P1  8028  0.94
      P1  H  7989  7998       L1     1  1.00
      P1  H  8011  8017       L1    12  0.26
      L1  C    15    33       P1  7948  0.85
      L1  C    16    34       P1 10171  1.00
      L1  C    16    34       P1 10175  0.64

> <Gold.PLP.Chemscore.Internal.Correction>
0.0138

> <Gold.Rescore>
     Score         DG    S(hbond)    S(metal)    S(lipo)     H(rot)  DE(clash)    DE(int)     intcor
     11.40     -13.78       1.04        0.00      77.09       1.63       2.20       0.18       ----

> <Gold.Chemscore.Fitness>
11.4003

> <Gold.Chemscore.DG>
-13.7791

> <Gold.Chemscore.ZeroCoef>
-5.4800

> <Gold.Chemscore.Hbond>
1.0359

> <Gold.Chemscore.Metal>
0.0000

> <Gold.Chemscore.Lipo>
77.0868

> <Gold.Chemscore.Internal_Hbond>
0.0000

> <Gold.Chemscore.DEClash>
2.1958

> <Gold.Chemscore.DEInternal>
0.1830

> <Gold.Chemscore.Rot>
1.6328

> <Gold.Chemscore.Internal.Correction>
   9.000000E+99

> <Gold.Chemscore.Hbonds>
donor molecule, donor type, donor heavy atom, donor atom, acceptor molecule, acceptor atom, score
      L1  H     3    18       P1  8028  0.91
      P1  H  7989  7998       L1     1  0.29
      P1  H  8011  8017       L1    12  0.01

> <Gold.Chemscore.Hbond.Weighted>
-3.4599

> <Gold.Chemscore.Metal.Weighted>
-0.0000

> <Gold.Chemscore.Lipo.Weighted>
-9.0192

> <Gold.Chemscore.Internal_Hbond.Weighted>
0.0000

> <Gold.Chemscore.DEClash.Weighted>
2.1958

> <Gold.Chemscore.DEInternal.Weighted>
0.1830

> <Gold.Chemscore.Rot.Weighted>
4.1799

> <Gold.Chemscore.Internal.Correction.Weighted>
   9.000000E+99

> <Gold.Protein.RotatedTorsions>
[ 6907 6896 6895 6894 ] final -162.12 input  -60.11 | X-H torsion
[ 7974 7965 7964 7962 ] final   67.80 input  175.53 | X-H torsion
[ 8008 7997 7996 7995 ] final  -33.67 input   59.86 | X-H torsion
[ 10167 10162 10161 10158 ] final  -54.72 input  -65.29 | X-H torsion
[ 10718 10713 10712 10709 ] final  125.55 input   66.30 | X-H torsion
[ 10763 10752 10751 10750 ] final  111.70 input  -60.55 | X-H torsion
[ 11005 11000 10999 10996 ] final  179.97 input  -57.11 | X-H torsion

> <Gold.Protein.ActiveResidues>
 VAL166  LYS551  ARG553  GLY616  TRP617  ASP618  TYR619  PRO620  LYS621  CYS622 
 ASP623  PHE694  ASN695  SER759  ASP760  ASP761  ALA762  ILE779  LEU786  VAL792 
 PHE793  MET794  SER795  GLU796  ALA797  LYS798  CYS799  TRP800  GLU811  SER814 

> <Gold.Protein.RotatedAtoms>
  151.3753  133.3840  159.2703 H   0  0  0  0  0  0  0  0  0  0  0  0  # atno 6907 bound_to 6896
  150.9620  134.9007  159.7746 H   0  0  0  0  0  0  0  0  0  0  0  0  # atno 6908 bound_to 6896
  152.5153  134.3712  159.9371 H   0  0  0  0  0  0  0  0  0  0  0  0  # atno 6909 bound_to 6896
  145.8103  139.3029  143.1103 H   0  0  0  0  0  0  0  0  0  0  0  0  # atno 7974 bound_to 7965
  154.4142  140.1704  156.1926 H   0  0  0  0  0  0  0  0  0  0  0  0  # atno 8008 bound_to 7997
  155.9591  140.3395  155.6451 H   0  0  0  0  0  0  0  0  0  0  0  0  # atno 8009 bound_to 7997
  155.6772  140.0718  157.2489 H   0  0  0  0  0  0  0  0  0  0  0  0  # atno 8010 bound_to 7997
  140.6415  143.2510  151.4977 H   0  0  0  0  0  0  0  0  0  0  0  0  # atno 10167 bound_to 10162
  157.5493  131.1094  150.8728 H   0  0  0  0  0  0  0  0  0  0  0  0  # atno 10718 bound_to 10713
  153.4671  135.3709  155.2370 H   0  0  0  0  0  0  0  0  0  0  0  0  # atno 10763 bound_to 10752
  154.8757  135.3922  154.3855 H   0  0  0  0  0  0  0  0  0  0  0  0  # atno 10764 bound_to 10752
  153.4438  135.7084  153.6216 H   0  0  0  0  0  0  0  0  0  0  0  0  # atno 10765 bound_to 10752
  140.4121  134.6682  157.4619 H   0  0  0  0  0  0  0  0  0  0  0  0  # atno 11005 bound_to 11000
  145.9784  140.8703  143.0127 LP  0  0  0  0  0  0  0  0  0  0  0  0  # atno 17320 bound_to 7965
  144.6758  140.2045  143.7383 LP  0  0  0  0  0  0  0  0  0  0  0  0  # atno 17321 bound_to 7965
  139.5624  144.2124  152.1712 LP  0  0  0  0  0  0  0  0  0  0  0  0  # atno 17342 bound_to 10162
  140.1396  144.5214  150.6752 LP  0  0  0  0  0  0  0  0  0  0  0  0  # atno 17343 bound_to 10162
  156.9258  130.5331  149.5279 LP  0  0  0  0  0  0  0  0  0  0  0  0  # atno 17370 bound_to 10713
  156.0563  130.5624  150.9098 LP  0  0  0  0  0  0  0  0  0  0  0  0  # atno 17371 bound_to 10713
  140.0260  134.6477  155.9172 LP  0  0  0  0  0  0  0  0  0  0  0  0  # atno 17394 bound_to 11000
  141.1817  133.6548  156.5047 LP  0  0  0  0  0  0  0  0  0  0  0  0  # atno 17395 bound_to 11000

$$$$
