AV-unprocessed.smi:2284|AV-procd|sdf|9202|dock3
  -GOLD-   2272012413D 1   1.00000     0.00000
 Structure written by MMmdl.
 44 45  0  0  0  0  0  0  0  0  1 V2000
  153.7955  139.6066  159.7257 C   0  0  0  0  0  0  0  0  0  0  0  0
  153.1070  140.9011  159.3445 C   0  0  0  0  0  0  0  0  0  0  0  0
  153.3061  142.0669  160.1093 C   0  0  0  0  0  0  0  0  0  0  0  0
  152.6636  143.2642  159.7457 C   0  0  0  0  0  0  0  0  0  0  0  0
  151.8187  143.3037  158.6172 C   0  0  0  0  0  0  0  0  0  0  0  0
  151.1302  144.6020  158.2389 C   0  0  0  0  0  0  0  0  0  0  0  0
  151.6087  142.1398  157.8424 C   0  0  0  0  0  0  0  0  0  0  0  0
  150.7708  142.2479  156.7529 O   0  0  0  0  0  0  0  0  0  0  0  0
  150.5919  141.1139  155.9151 C   0  0  0  0  0  0  0  0  0  0  0  0
  149.4215  141.4012  154.9631 C   0  0  1  0  0  0  0  0  0  0  0  0
  149.7805  140.8979  153.6923 O   0  0  0  0  0  0  0  0  0  0  0  0
  148.1114  140.7209  155.4249 C   0  0  0  0  0  0  0  0  0  0  0  0
  146.9530  141.6195  155.2979 N   0  0  0  0  0  0  0  0  0  0  0  0
  146.6424  142.0552  153.9984 C   0  0  0  0  0  0  0  0  0  0  0  0
  145.6404  142.8382  153.7658 N   0  0  0  0  0  0  0  0  0  0  0  0
  144.8337  143.2695  154.8228 C   0  0  0  0  0  0  0  0  0  0  0  0
  143.6858  144.1864  154.4396 C   0  0  0  0  0  0  0  0  0  0  0  0
  145.0780  142.8795  156.1039 C   0  0  0  0  0  0  0  0  0  0  0  0
  144.2334  143.3177  157.2940 C   0  0  0  0  0  0  0  0  0  0  0  0
  146.2125  141.9841  156.3836 C   0  0  0  0  0  0  0  0  0  0  0  0
  146.4847  141.5855  157.5176 O   0  0  0  0  0  0  0  0  0  0  0  0
  152.2625  140.9386  158.2168 C   0  0  0  0  0  0  0  0  0  0  0  0
  154.3933  139.7236  160.6302 H   0  0  0  0  0  0  0  0  0  0  0  0
  154.4549  139.2787  158.9217 H   0  0  0  0  0  0  0  0  0  0  0  0
  153.0571  138.8247  159.9047 H   0  0  0  0  0  0  0  0  0  0  0  0
  153.9509  142.0487  160.9759 H   0  0  0  0  0  0  0  0  0  0  0  0
  152.8223  144.1532  160.3385 H   0  0  0  0  0  0  0  0  0  0  0  0
  150.0473  144.4747  158.2527 H   0  0  0  0  0  0  0  0  0  0  0  0
  151.4268  144.9094  157.2357 H   0  0  0  0  0  0  0  0  0  0  0  0
  151.3858  145.4061  158.9292 H   0  0  0  0  0  0  0  0  0  0  0  0
  151.5034  140.9408  155.3401 H   0  0  0  0  0  0  0  0  0  0  0  0
  150.3859  140.2204  156.5072 H   0  0  0  0  0  0  0  0  0  0  0  0
  149.2956  142.4819  154.8824 H   0  0  0  0  0  0  0  0  0  0  0  0
  149.8693  139.9590  153.7535 H   0  0  0  0  0  0  0  0  0  0  0  0
  147.9561  139.7774  154.8981 H   0  0  0  0  0  0  0  0  0  0  0  0
  148.2013  140.4188  156.4704 H   0  0  0  0  0  0  0  0  0  0  0  0
  147.2988  141.6831  153.2094 H   0  0  0  0  0  0  0  0  0  0  0  0
  143.7903  145.1543  154.9303 H   0  0  0  0  0  0  0  0  0  0  0  0
  142.7317  143.7472  154.7324 H   0  0  0  0  0  0  0  0  0  0  0  0
  143.6574  144.3590  153.3629 H   0  0  0  0  0  0  0  0  0  0  0  0
  143.7856  142.4481  157.7763 H   0  0  0  0  0  0  0  0  0  0  0  0
  143.4256  143.9951  157.0223 H   0  0  0  0  0  0  0  0  0  0  0  0
  144.8560  143.8293  158.0289 H   0  0  0  0  0  0  0  0  0  0  0  0
  152.1329  140.0294  157.6494 H   0  0  0  0  0  0  0  0  0  0  0  0
  1  2  1  0  0  0  0
  1 23  1  0  0  0  0
  1 24  1  0  0  0  0
  1 25  1  0  0  0  0
  2 22  1  0  0  0  0
  2  3  2  0  0  0  0
  3  4  1  0  0  0  0
  3 26  1  0  0  0  0
  4  5  2  0  0  0  0
  4 27  1  0  0  0  0
  5  6  1  0  0  0  0
  5  7  1  0  0  0  0
  6 28  1  0  0  0  0
  6 29  1  0  0  0  0
  6 30  1  0  0  0  0
  7  8  1  0  0  0  0
  7 22  2  0  0  0  0
  8  9  1  0  0  0  0
  9 10  1  0  0  0  0
  9 31  1  0  0  0  0
  9 32  1  0  0  0  0
 10 11  1  0  0  0  0
 10 12  1  0  0  0  0
 10 33  1  0  0  0  0
 11 34  1  0  0  0  0
 12 13  1  0  0  0  0
 12 35  1  0  0  0  0
 12 36  1  0  0  0  0
 13 20  1  0  0  0  0
 13 14  1  0  0  0  0
 14 15  2  0  0  0  0
 14 37  1  0  0  0  0
 15 16  1  0  0  0  0
 16 17  1  0  0  0  0
 16 18  2  0  0  0  0
 17 38  1  0  0  0  0
 17 39  1  0  0  0  0
 17 40  1  0  0  0  0
 18 19  1  0  0  0  0
 18 20  1  0  0  0  0
 19 41  1  0  0  0  0
 19 42  1  0  0  0  0
 19 43  1  0  0  0  0
 20 21  2  0  0  0  0
 22 44  1  0  0  0  0
M  END
> <s_m_source_file>
AV-unprocessed.smi

> <i_m_source_file_index>
2284

> <i_lp_mmshare_version>
43012

> <i_f3d_flags>
0

> <s_epik_input>
W0NIM11jMVtjSF1bY0hdYyhbQ0gzXSljKFtjSF0xKU9bQ0gyXVtDQEhdKFtPSF0pW0NIMl1uMltjSF1uYyhbQ0gzXSljKFtDSDNdKWMyPU8=

> <s_epik_cmdline>
J2VwaWtfcHl0aG9uJywgJy1waCcsICc3LjAnLCAnLXRuJywgJzgnLCAnLW1hJywgJzIwMCcsICctbWV0YWxfYmluZGluZycsICctaW1hZScsICc8aW5maWxlLm1hZT4nLCAnLW9tYWUnLCAnPG91dGZpbGUubWFlPic=

> <r_lp_tautomer_probability>
1

> <r_epik_Ionization_Penalty>
3.7476e-05

> <r_epik_Ionization_Penalty_Charging>
8.44705e-08

> <r_epik_Ionization_Penalty_Neutral>
3.73915e-05

> <r_epik_State_Penalty>
-0

> <r_epik_Charging_Adjusted_Penalty>
8.44705e-08

> <i_epik_Tot_Q>
0

> <i_epik_Tot_abs_Q>
0

> <r_epik_Metal_State_Penalty>
-0

> <b_epik_Metal_Only>
0

> <s_lp_Force_Field>
OPLS_2005

> <r_lp_Energy>
21.7941

> <b_lp_Chiralities_Consistent>
1

> <s_lp_Variant>
AV-unprocessed.smi:2284-2

> <Gold.Version>
5.8.1

> <Gold.Id.Protein>
6NUR|6NUR_protein|mol2

> <Gold.PLP.Fitness>
49.0242

> <Gold.PLP.PLP>
-47.7036

> <Gold.PLP.part.hbond>
-2.8706

> <Gold.PLP.part.metal>
0.0000

> <Gold.PLP.part.buried>
-6.4575

> <Gold.PLP.part.nonpolar>
-37.6149

> <Gold.PLP.part.repulsive>
0.4372

> <Gold.PLP.ligand.clash>
0.0000

> <Gold.PLP.ligand.torsion>
1.2368

> <Gold.PLP.Chemscore.Hbond>
1.2329

> <Gold.PLP.Chemscore.CHOScore>
0.0000

> <Gold.PLP.Chemscore.Metal>
0.0000

> <Gold.Chemscore.Hbonds>
donor molecule, donor type, donor heavy atom, donor atom, acceptor molecule, acceptor atom, score
      P1  H  7989  7998       L1    11  0.10
      P1  H  8011  8017       L1    11  0.98

> <Gold.PLP.Chemscore.Internal.Correction>
0.0955

> <Gold.Rescore>
     Score         DG    S(hbond)    S(metal)    S(lipo)     H(rot)  DE(clash)    DE(int)     intcor
     14.44     -15.79       0.74        0.00     117.70       2.32       0.11       1.24       ----

> <Gold.Chemscore.Fitness>
14.4352

> <Gold.Chemscore.DG>
-15.7906

> <Gold.Chemscore.ZeroCoef>
-5.4800

> <Gold.Chemscore.Hbond>
0.7450

> <Gold.Chemscore.Metal>
0.0000

> <Gold.Chemscore.Lipo>
117.6988

> <Gold.Chemscore.Internal_Hbond>
0.0000

> <Gold.Chemscore.DEClash>
0.1118

> <Gold.Chemscore.DEInternal>
1.2435

> <Gold.Chemscore.Rot>
2.3236

> <Gold.Chemscore.Internal.Correction>
   9.000000E+99

> <Gold.Chemscore.Hbonds>
donor molecule, donor type, donor heavy atom, donor atom, acceptor molecule, acceptor atom, score
      P1  H  8011  8017       L1    11  0.65

> <Gold.Chemscore.Hbond.Weighted>
-2.4882

> <Gold.Chemscore.Metal.Weighted>
-0.0000

> <Gold.Chemscore.Lipo.Weighted>
-13.7708

> <Gold.Chemscore.Internal_Hbond.Weighted>
0.0000

> <Gold.Chemscore.DEClash.Weighted>
0.1118

> <Gold.Chemscore.DEInternal.Weighted>
1.2435

> <Gold.Chemscore.Rot.Weighted>
5.9484

> <Gold.Chemscore.Internal.Correction.Weighted>
   9.000000E+99

> <Gold.Protein.RotatedTorsions>
[ 6907 6896 6895 6894 ] final  138.50 input  -60.11 | X-H torsion
[ 7974 7965 7964 7962 ] final -100.75 input  175.53 | X-H torsion
[ 8008 7997 7996 7995 ] final  118.02 input   59.86 | X-H torsion
[ 10167 10162 10161 10158 ] final -146.13 input  -65.29 | X-H torsion
[ 10718 10713 10712 10709 ] final  105.70 input   66.30 | X-H torsion
[ 10763 10752 10751 10750 ] final -179.94 input  -60.55 | X-H torsion
[ 11005 11000 10999 10996 ] final   53.07 input  -57.11 | X-H torsion

> <Gold.Protein.ActiveResidues>
 VAL166  LYS551  ARG553  GLY616  TRP617  ASP618  TYR619  PRO620  LYS621  CYS622 
 ASP623  PHE694  ASN695  SER759  ASP760  ASP761  ALA762  ILE779  LEU786  VAL792 
 PHE793  MET794  SER795  GLU796  ALA797  LYS798  CYS799  TRP800  GLU811  SER814 

> <Gold.Protein.RotatedAtoms>
  152.2658  133.5338  159.5408 H   0  0  0  0  0  0  0  0  0  0  0  0  # atno 6907 bound_to 6896
  150.7141  134.0766  159.3892 H   0  0  0  0  0  0  0  0  0  0  0  0  # atno 6908 bound_to 6896
  151.8682  135.0499  160.0527 H   0  0  0  0  0  0  0  0  0  0  0  0  # atno 6909 bound_to 6896
  145.2905  140.9351  143.2880 H   0  0  0  0  0  0  0  0  0  0  0  0  # atno 7974 bound_to 7965
  156.2524  140.2884  156.0769 H   0  0  0  0  0  0  0  0  0  0  0  0  # atno 8008 bound_to 7997
  155.1610  140.0399  157.2860 H   0  0  0  0  0  0  0  0  0  0  0  0  # atno 8009 bound_to 7997
  154.6393  140.2518  155.7347 H   0  0  0  0  0  0  0  0  0  0  0  0  # atno 8010 bound_to 7997
  139.7742  143.8194  152.2629 H   0  0  0  0  0  0  0  0  0  0  0  0  # atno 10167 bound_to 10162
  157.6695  131.0834  150.5897 H   0  0  0  0  0  0  0  0  0  0  0  0  # atno 10718 bound_to 10713
  154.5286  135.2798  155.1200 H   0  0  0  0  0  0  0  0  0  0  0  0  # atno 10763 bound_to 10752
  154.2728  135.6300  153.5320 H   0  0  0  0  0  0  0  0  0  0  0  0  # atno 10764 bound_to 10752
  152.9952  135.5632  154.5794 H   0  0  0  0  0  0  0  0  0  0  0  0  # atno 10765 bound_to 10752
  140.0797  134.5355  155.8959 H   0  0  0  0  0  0  0  0  0  0  0  0  # atno 11005 bound_to 11000
  144.9176  139.4451  143.6556 LP  0  0  0  0  0  0  0  0  0  0  0  0  # atno 17320 bound_to 7965
  146.3186  139.8019  142.8963 LP  0  0  0  0  0  0  0  0  0  0  0  0  # atno 17321 bound_to 7965
  139.8238  144.7284  150.9539 LP  0  0  0  0  0  0  0  0  0  0  0  0  # atno 17342 bound_to 10162
  140.7815  143.4134  151.0956 LP  0  0  0  0  0  0  0  0  0  0  0  0  # atno 17343 bound_to 10162
  156.6197  130.4402  149.5827 LP  0  0  0  0  0  0  0  0  0  0  0  0  # atno 17370 bound_to 10713
  156.2365  130.6826  151.1515 LP  0  0  0  0  0  0  0  0  0  0  0  0  # atno 17371 bound_to 10713
  141.2042  133.6637  156.6109 LP  0  0  0  0  0  0  0  0  0  0  0  0  # atno 17394 bound_to 11000
  140.3505  134.7772  157.4463 LP  0  0  0  0  0  0  0  0  0  0  0  0  # atno 17395 bound_to 11000

$$$$
