AV-unprocessed.smi:861|AV-procd|sdf|3975|dock3
  -GOLD-   22720 1453D 1   1.00000     0.00000
 Structure written by MMmdl.
 45 46  0  0  0  0  0  0  0  0  3 V2000
  151.4810  144.3803  160.1570 C   0  0  0  0  0  0  0  0  0  0  0  0
  151.6002  143.7090  158.7783 C   0  0  0  0  0  0  0  0  0  0  0  0
  152.4530  144.5722  157.8360 C   0  0  0  0  0  0  0  0  0  0  0  0
  150.2243  143.4102  158.1481 C   0  0  0  0  0  0  0  0  0  0  0  0
  150.2600  142.3167  157.0627 C   0  0  0  0  0  0  0  0  0  0  0  0
  148.9432  142.1284  156.4033 N   0  3  2  0  0  0  0  0  0  0  0  0
  147.8322  141.8925  157.3579 C   0  0  0  0  0  0  0  0  0  0  0  0
  146.5026  141.7306  156.6044 C   0  0  0  0  0  0  0  0  0  0  0  0
  146.6165  140.6708  155.6636 O   0  0  0  0  0  0  0  0  0  0  0  0
  147.6080  140.9283  154.6747 C   0  0  2  0  0  0  0  0  0  0  0  0
  147.5934  139.7638  153.6728 C   0  0  0  0  0  0  0  0  0  0  0  0
  146.2557  139.5156  153.1560 N   0  0  0  0  0  0  0  0  0  0  0  0
  145.7209  138.2206  153.1551 C   0  0  0  0  0  0  0  0  0  0  0  0
  146.4027  137.0804  153.6400 C   0  0  0  0  0  0  0  0  0  0  0  0
  145.7473  135.8385  153.5847 C   0  0  0  0  0  0  0  0  0  0  0  0
  144.4479  135.8110  153.0476 C   0  0  0  0  0  0  0  0  0  0  0  0
  143.8135  136.9125  152.5878 N   0  0  0  0  0  0  0  0  0  0  0  0
  144.4673  138.0858  152.6539 N   0  3  0  0  0  0  0  0  0  0  0  0
  148.9756  141.0598  155.3754 C   0  0  0  0  0  0  0  0  0  0  0  0
  150.9338  145.3216  160.0941 H   0  0  0  0  0  0  0  0  0  0  0  0
  152.4654  144.5980  160.5723 H   0  0  0  0  0  0  0  0  0  0  0  0
  150.9667  143.7417  160.8745 H   0  0  0  0  0  0  0  0  0  0  0  0
  152.1261  142.7628  158.9112 H   0  0  0  0  0  0  0  0  0  0  0  0
  151.9868  145.5413  157.6551 H   0  0  0  0  0  0  0  0  0  0  0  0
  152.5922  144.0842  156.8709 H   0  0  0  0  0  0  0  0  0  0  0  0
  153.4433  144.7525  158.2556 H   0  0  0  0  0  0  0  0  0  0  0  0
  149.5230  143.1437  158.9389 H   0  0  0  0  0  0  0  0  0  0  0  0
  149.8384  144.3257  157.6977 H   0  0  0  0  0  0  0  0  0  0  0  0
  150.9919  142.6115  156.3093 H   0  0  0  0  0  0  0  0  0  0  0  0
  150.6010  141.3644  157.4703 H   0  0  0  0  0  0  0  0  0  0  0  0
  148.0375  140.9960  157.9450 H   0  0  0  0  0  0  0  0  0  0  0  0
  147.7471  142.7216  158.0595 H   0  0  0  0  0  0  0  0  0  0  0  0
  145.7004  141.4960  157.3041 H   0  0  0  0  0  0  0  0  0  0  0  0
  146.2235  142.6565  156.0987 H   0  0  0  0  0  0  0  0  0  0  0  0
  147.3766  141.8582  154.1509 H   0  0  0  0  0  0  0  0  0  0  0  0
  148.2468  139.9968  152.8313 H   0  0  0  0  0  0  0  0  0  0  0  0
  147.9835  138.8613  154.1454 H   0  0  0  0  0  0  0  0  0  0  0  0
  145.6575  140.3044  152.9544 H   0  0  0  0  0  0  0  0  0  0  0  0
  147.4016  137.1407  154.0455 H   0  0  0  0  0  0  0  0  0  0  0  0
  146.2226  134.9370  153.9418 H   0  0  0  0  0  0  0  0  0  0  0  0
  143.9015  134.8815  152.9837 H   0  0  0  0  0  0  0  0  0  0  0  0
  149.7445  141.2882  154.6360 H   0  0  0  0  0  0  0  0  0  0  0  0
  149.2529  140.1141  155.8445 H   0  0  0  0  0  0  0  0  0  0  0  0
  148.7381  142.9884  155.9144 H   0  0  0  0  0  0  0  0  0  0  0  0
  143.9939  138.9208  152.3084 H   0  0  0  0  0  0  0  0  0  0  0  0
  1  2  1  0  0  0  0
  1 20  1  0  0  0  0
  1 21  1  0  0  0  0
  1 22  1  0  0  0  0
  2  3  1  0  0  0  0
  2  4  1  0  0  0  0
  2 23  1  0  0  0  0
  3 24  1  0  0  0  0
  3 25  1  0  0  0  0
  3 26  1  0  0  0  0
  4  5  1  0  0  0  0
  4 27  1  0  0  0  0
  4 28  1  0  0  0  0
  5  6  1  0  0  0  0
  5 29  1  0  0  0  0
  5 30  1  0  0  0  0
  6 19  1  0  0  0  0
  6  7  1  0  0  0  0
  6 44  1  0  0  0  0
  7  8  1  0  0  0  0
  7 31  1  0  0  0  0
  7 32  1  0  0  0  0
  8  9  1  0  0  0  0
  8 33  1  0  0  0  0
  8 34  1  0  0  0  0
  9 10  1  0  0  0  0
 10 11  1  0  0  0  0
 10 19  1  0  0  0  0
 10 35  1  0  0  0  0
 11 12  1  0  0  0  0
 11 36  1  0  0  0  0
 11 37  1  0  0  0  0
 12 13  1  0  0  0  0
 12 38  1  0  0  0  0
 13 18  1  0  0  0  0
 13 14  2  0  0  0  0
 14 15  1  0  0  0  0
 14 39  1  0  0  0  0
 15 16  2  0  0  0  0
 15 40  1  0  0  0  0
 16 17  1  0  0  0  0
 16 41  1  0  0  0  0
 17 18  2  0  0  0  0
 18 45  1  0  0  0  0
 19 42  1  0  0  0  0
 19 43  1  0  0  0  0
M  CHG  1   6   1
M  CHG  1  18   1
M  END
> <s_m_source_file>
AV-unprocessed.smi

> <i_m_source_file_index>
861

> <i_lp_mmshare_version>
43012

> <i_f3d_flags>
0

> <s_epik_input>
W0NIM11bQ0hdKFtDSDNdKVtDSDJdW0NIMl1OMVtDSDJdW0NIMl1PW0NASF0oW0NIMl0xKVtDSDJdW05IXWMyW2NIXVtjSF1bY0hdbm4y

> <s_epik_cmdline>
J2VwaWtfcHl0aG9uJywgJy1waCcsICc3LjAnLCAnLXRuJywgJzgnLCAnLW1hJywgJzIwMCcsICctbWV0YWxfYmluZGluZycsICctaW1hZScsICc8aW5maWxlLm1hZT4nLCAnLW9tYWUnLCAnPG91dGZpbGUubWFlPic=

> <r_lp_tautomer_probability>
0.966961

> <r_epik_Ionization_Penalty>
2.478

> <r_epik_Ionization_Penalty_Charging>
2.47799

> <r_epik_Ionization_Penalty_Neutral>
3.15286e-06

> <r_epik_State_Penalty>
2.10794

> <r_epik_Charging_Adjusted_Penalty>
4.58594

> <i_epik_Tot_Q>
2

> <i_epik_Tot_abs_Q>
2

> <r_epik_Metal_State_Penalty>
2.11378

> <b_epik_Metal_Only>
0

> <s_lp_Force_Field>
OPLS_2005

> <r_lp_Energy>
32.9485

> <b_lp_Chiralities_Consistent>
1

> <s_lp_Variant>
AV-unprocessed.smi:861-10

> <Gold.Version>
5.8.1

> <Gold.Id.Protein>
6NUR|6NUR_protein|mol2

> <Gold.PLP.Fitness>
43.0125

> <Gold.PLP.PLP>
-27.0239

> <Gold.PLP.part.hbond>
-4.0000

> <Gold.PLP.part.metal>
0.0000

> <Gold.PLP.part.buried>
-2.5362

> <Gold.PLP.part.nonpolar>
-21.7121

> <Gold.PLP.part.repulsive>
0.2496

> <Gold.PLP.ligand.clash>
0.0000

> <Gold.PLP.ligand.torsion>
0.2753

> <Gold.PLP.Chemscore.Hbond>
5.4908

> <Gold.PLP.Chemscore.CHOScore>
0.0000

> <Gold.PLP.Chemscore.Metal>
0.0000

> <Gold.Chemscore.Hbonds>
donor molecule, donor type, donor heavy atom, donor atom, acceptor molecule, acceptor atom, score
      L1  H     6    44       P1  8028  2.00
      L1  H    12    38       P1 10175  1.33
      L1  H    18    45       P1 10175  2.00

> <Gold.PLP.Chemscore.Internal.Correction>
0.0667

> <Gold.Rescore>
     Score         DG    S(hbond)    S(metal)    S(lipo)     H(rot)  DE(clash)    DE(int)     intcor
     18.68     -19.09       2.70        0.00      78.15       1.78       0.09       0.32       ----

> <Gold.Chemscore.Fitness>
18.6826

> <Gold.Chemscore.DG>
-19.0945

> <Gold.Chemscore.ZeroCoef>
-5.4800

> <Gold.Chemscore.Hbond>
2.6998

> <Gold.Chemscore.Metal>
0.0000

> <Gold.Chemscore.Lipo>
78.1485

> <Gold.Chemscore.Internal_Hbond>
0.0000

> <Gold.Chemscore.DEClash>
0.0914

> <Gold.Chemscore.DEInternal>
0.3206

> <Gold.Chemscore.Rot>
1.7759

> <Gold.Chemscore.Internal.Correction>
   9.000000E+99

> <Gold.Chemscore.Hbonds>
donor molecule, donor type, donor heavy atom, donor atom, acceptor molecule, acceptor atom, score
      L1  H     6    44       P1  8028  0.97
      L1  H    12    38       P1 10175  0.58
      L1  H    18    45       P1 10175  0.92

> <Gold.Chemscore.Hbond.Weighted>
-9.0174

> <Gold.Chemscore.Metal.Weighted>
-0.0000

> <Gold.Chemscore.Lipo.Weighted>
-9.1434

> <Gold.Chemscore.Internal_Hbond.Weighted>
0.0000

> <Gold.Chemscore.DEClash.Weighted>
0.0914

> <Gold.Chemscore.DEInternal.Weighted>
0.3206

> <Gold.Chemscore.Rot.Weighted>
4.5462

> <Gold.Chemscore.Internal.Correction.Weighted>
   9.000000E+99

> <Gold.Protein.RotatedTorsions>
[ 6907 6896 6895 6894 ] final  164.70 input  -60.11 | X-H torsion
[ 7974 7965 7964 7962 ] final   30.08 input  175.53 | X-H torsion
[ 8008 7997 7996 7995 ] final   97.49 input   59.86 | X-H torsion
[ 10167 10162 10161 10158 ] final  132.43 input  -65.29 | X-H torsion
[ 10718 10713 10712 10709 ] final   38.73 input   66.30 | X-H torsion
[ 10763 10752 10751 10750 ] final   98.13 input  -60.55 | X-H torsion
[ 11005 11000 10999 10996 ] final  -63.65 input  -57.11 | X-H torsion

> <Gold.Protein.ActiveResidues>
 VAL166  LYS551  ARG553  GLY616  TRP617  ASP618  TYR619  PRO620  LYS621  CYS622 
 ASP623  PHE694  ASN695  SER759  ASP760  ASP761  ALA762  ILE779  LEU786  VAL792 
 PHE793  MET794  SER795  GLU796  ALA797  LYS798  CYS799  TRP800  GLU811  SER814 

> <Gold.Protein.RotatedAtoms>
  151.9057  133.3549  159.3845 H   0  0  0  0  0  0  0  0  0  0  0  0  # atno 6907 bound_to 6896
  150.7069  134.4783  159.5467 H   0  0  0  0  0  0  0  0  0  0  0  0  # atno 6908 bound_to 6896
  152.2379  134.8257  160.0515 H   0  0  0  0  0  0  0  0  0  0  0  0  # atno 6909 bound_to 6896
  146.1633  139.6836  142.9018 H   0  0  0  0  0  0  0  0  0  0  0  0  # atno 7974 bound_to 7965
  156.0906  140.3257  155.7811 H   0  0  0  0  0  0  0  0  0  0  0  0  # atno 8008 bound_to 7997
  155.5002  140.0568  157.2957 H   0  0  0  0  0  0  0  0  0  0  0  0  # atno 8009 bound_to 7997
  154.4635  140.1978  156.0195 H   0  0  0  0  0  0  0  0  0  0  0  0  # atno 8010 bound_to 7997
  139.5340  144.6662  151.4850 H   0  0  0  0  0  0  0  0  0  0  0  0  # atno 10167 bound_to 10162
  157.3623  130.7656  149.7057 H   0  0  0  0  0  0  0  0  0  0  0  0  # atno 10718 bound_to 10713
  153.2853  135.4159  155.1117 H   0  0  0  0  0  0  0  0  0  0  0  0  # atno 10763 bound_to 10752
  154.8503  135.3505  154.6056 H   0  0  0  0  0  0  0  0  0  0  0  0  # atno 10764 bound_to 10752
  153.6477  135.7054  153.5277 H   0  0  0  0  0  0  0  0  0  0  0  0  # atno 10765 bound_to 10752
  141.1400  133.6655  156.5712 H   0  0  0  0  0  0  0  0  0  0  0  0  # atno 11005 bound_to 11000
  145.4531  141.0429  143.2793 LP  0  0  0  0  0  0  0  0  0  0  0  0  # atno 17320 bound_to 7965
  144.8058  139.6055  143.7051 LP  0  0  0  0  0  0  0  0  0  0  0  0  # atno 17321 bound_to 7965
  140.6536  143.8646  150.6811 LP  0  0  0  0  0  0  0  0  0  0  0  0  # atno 17342 bound_to 10162
  140.2019  143.3953  152.1785 LP  0  0  0  0  0  0  0  0  0  0  0  0  # atno 17343 bound_to 10162
  155.9740  130.4110  150.3960 LP  0  0  0  0  0  0  0  0  0  0  0  0  # atno 17370 bound_to 10713
  157.2039  131.0444  151.2635 LP  0  0  0  0  0  0  0  0  0  0  0  0  # atno 17371 bound_to 10713
  140.3911  134.7439  157.4722 LP  0  0  0  0  0  0  0  0  0  0  0  0  # atno 17394 bound_to 11000
  140.0565  134.6056  155.8799 LP  0  0  0  0  0  0  0  0  0  0  0  0  # atno 17395 bound_to 11000

$$$$
