AV-unprocessed.smi:148|AV-procd|sdf|1204|dock2
  -GOLD-   2262018373D 1   1.00000     0.00000
 Structure written by MMmdl.
 63 67  0  0  0  0  0  0  0  0  1 V2000
  150.4125  142.4188  155.8456 O   0  0  0  0  0  0  0  0  0  0  0  0
  150.3143  141.4255  156.8454 C   0  0  0  0  0  0  0  0  0  0  0  0
  151.5135  141.4851  157.8236 C   0  0  2  0  0  0  0  0  0  0  0  0
  151.6792  140.1826  158.6459 C   0  0  0  0  0  0  0  0  0  0  0  0
  151.3930  138.9850  157.8758 N   0  0  0  0  0  0  0  0  0  0  0  0
  151.8701  138.6852  156.6196 C   0  0  0  0  0  0  0  0  0  0  0  0
  151.4545  137.5527  156.1215 N   0  0  0  0  0  0  0  0  0  0  0  0
  150.6329  137.0326  157.1130 C   0  0  0  0  0  0  0  0  0  0  0  0
  149.8408  135.8598  157.2227 C   0  0  0  0  0  0  0  0  0  0  0  0
  149.7551  134.9566  156.2201 N   0  0  0  0  0  0  0  0  0  0  0  0
  150.4851  133.7308  156.5521 C   0  0  0  0  0  0  0  0  0  0  0  0
  150.6864  132.8510  155.3145 C   0  0  0  0  0  0  0  0  0  0  0  0
  149.3337  132.5453  154.6692 C   0  0  0  0  0  0  0  0  0  0  0  0
  148.6009  133.8542  154.3468 C   0  0  0  0  0  0  0  0  0  0  0  0
  148.4299  134.7687  155.5897 C   0  0  2  0  0  0  0  0  0  0  0  0
  147.7022  136.1126  155.2286 C   0  0  2  0  0  0  0  0  0  0  0  0
  147.1219  136.8676  156.4530 C   0  0  0  0  0  0  0  0  0  0  0  0
  145.7451  137.4211  156.0670 C   0  0  0  0  0  0  0  0  0  0  0  0
  145.6514  137.2469  154.5583 C   0  0  0  0  0  0  0  0  0  0  0  0
  146.4804  135.9939  154.2898 C   0  0  1  0  0  0  0  0  0  0  0  0
  146.8376  135.9509  152.9224 O   0  0  0  0  0  0  0  0  0  0  0  0
  149.1434  135.6660  158.3735 N   0  0  0  0  0  0  0  0  0  0  0  0
  149.2077  136.5742  159.3519 C   0  0  0  0  0  0  0  0  0  0  0  0
  149.8890  137.7219  159.3824 N   0  0  0  0  0  0  0  0  0  0  0  0
  150.5934  137.9126  158.2298 C   0  0  0  0  0  0  0  0  0  0  0  0
  151.4694  142.7346  158.7393 C   0  0  2  0  0  0  0  0  0  0  0  0
  151.7998  144.0468  158.0499 C   0  0  0  0  0  0  0  0  0  0  0  0
  152.1309  144.9519  159.2301 C   0  0  0  0  0  0  0  0  0  0  0  0
  152.7490  144.1064  160.1926 O   0  0  0  0  0  0  0  0  0  0  0  0
  152.5108  142.7404  159.8649 C   0  0  0  0  0  0  0  0  0  0  0  0
  149.6517  142.9769  155.8995 H   0  0  0  0  0  0  0  0  0  0  0  0
  149.3693  141.5537  157.3733 H   0  0  0  0  0  0  0  0  0  0  0  0
  150.2547  140.4502  156.3630 H   0  0  0  0  0  0  0  0  0  0  0  0
  152.4053  141.5782  157.2020 H   0  0  0  0  0  0  0  0  0  0  0  0
  152.6977  140.0936  159.0240 H   0  0  0  0  0  0  0  0  0  0  0  0
  151.0275  140.2012  159.5202 H   0  0  0  0  0  0  0  0  0  0  0  0
  152.5323  139.3441  156.0770 H   0  0  0  0  0  0  0  0  0  0  0  0
  151.4572  133.9794  156.9814 H   0  0  0  0  0  0  0  0  0  0  0  0
  149.9348  133.1723  157.3109 H   0  0  0  0  0  0  0  0  0  0  0  0
  151.3322  133.3621  154.5992 H   0  0  0  0  0  0  0  0  0  0  0  0
  151.1923  131.9250  155.5885 H   0  0  0  0  0  0  0  0  0  0  0  0
  149.4735  131.9582  153.7612 H   0  0  0  0  0  0  0  0  0  0  0  0
  148.7280  131.9397  155.3448 H   0  0  0  0  0  0  0  0  0  0  0  0
  149.1518  134.3897  153.5723 H   0  0  0  0  0  0  0  0  0  0  0  0
  147.6333  133.5931  153.9202 H   0  0  0  0  0  0  0  0  0  0  0  0
  147.8052  134.2259  156.3007 H   0  0  0  0  0  0  0  0  0  0  0  0
  148.4160  136.7745  154.7348 H   0  0  0  0  0  0  0  0  0  0  0  0
  147.0165  136.2143  157.3194 H   0  0  0  0  0  0  0  0  0  0  0  0
  147.7796  137.6857  156.7452 H   0  0  0  0  0  0  0  0  0  0  0  0
  144.9650  136.8328  156.5518 H   0  0  0  0  0  0  0  0  0  0  0  0
  145.6123  138.4594  156.3722 H   0  0  0  0  0  0  0  0  0  0  0  0
  144.6227  137.1576  154.2075 H   0  0  0  0  0  0  0  0  0  0  0  0
  146.1002  138.1110  154.0652 H   0  0  0  0  0  0  0  0  0  0  0  0
  145.8886  135.1140  154.5461 H   0  0  0  0  0  0  0  0  0  0  0  0
  147.7695  136.0912  152.8514 H   0  0  0  0  0  0  0  0  0  0  0  0
  148.6256  136.3526  160.2341 H   0  0  0  0  0  0  0  0  0  0  0  0
  150.4790  142.8236  159.1889 H   0  0  0  0  0  0  0  0  0  0  0  0
  152.6747  143.9326  157.4082 H   0  0  0  0  0  0  0  0  0  0  0  0
  150.9795  144.4353  157.4461 H   0  0  0  0  0  0  0  0  0  0  0  0
  152.7780  145.7840  158.9520 H   0  0  0  0  0  0  0  0  0  0  0  0
  151.2171  145.3617  159.6624 H   0  0  0  0  0  0  0  0  0  0  0  0
  152.1783  142.1826  160.7406 H   0  0  0  0  0  0  0  0  0  0  0  0
  153.4521  142.3048  159.5266 H   0  0  0  0  0  0  0  0  0  0  0  0
  1  2  1  0  0  0  0
  1 31  1  0  0  0  0
  2  3  1  0  0  0  0
  2 32  1  0  0  0  0
  2 33  1  0  0  0  0
  3  4  1  0  0  0  0
  3 26  1  0  0  0  0
  3 34  1  0  0  0  0
  4  5  1  0  0  0  0
  4 35  1  0  0  0  0
  4 36  1  0  0  0  0
  5 25  1  0  0  0  0
  5  6  1  0  0  0  0
  6  7  2  0  0  0  0
  6 37  1  0  0  0  0
  7  8  1  0  0  0  0
  8 25  2  0  0  0  0
  8  9  1  0  0  0  0
  9 10  1  0  0  0  0
  9 22  2  0  0  0  0
 10 15  1  0  0  0  0
 10 11  1  0  0  0  0
 11 12  1  0  0  0  0
 11 38  1  0  0  0  0
 11 39  1  0  0  0  0
 12 13  1  0  0  0  0
 12 40  1  0  0  0  0
 12 41  1  0  0  0  0
 13 14  1  0  0  0  0
 13 42  1  0  0  0  0
 13 43  1  0  0  0  0
 14 15  1  0  0  0  0
 14 44  1  0  0  0  0
 14 45  1  0  0  0  0
 15 16  1  0  0  0  0
 15 46  1  0  0  0  0
 16 20  1  0  0  0  0
 16 17  1  0  0  0  0
 16 47  1  0  0  0  0
 17 18  1  0  0  0  0
 17 48  1  0  0  0  0
 17 49  1  0  0  0  0
 18 19  1  0  0  0  0
 18 50  1  0  0  0  0
 18 51  1  0  0  0  0
 19 20  1  0  0  0  0
 19 52  1  0  0  0  0
 19 53  1  0  0  0  0
 20 21  1  0  0  0  0
 20 54  1  0  0  0  0
 21 55  1  0  0  0  0
 22 23  1  0  0  0  0
 23 24  2  0  0  0  0
 23 56  1  0  0  0  0
 24 25  1  0  0  0  0
 26 30  1  0  0  0  0
 26 27  1  0  0  0  0
 26 57  1  0  0  0  0
 27 28  1  0  0  0  0
 27 58  1  0  0  0  0
 27 59  1  0  0  0  0
 28 29  1  0  0  0  0
 28 60  1  0  0  0  0
 28 61  1  0  0  0  0
 29 30  1  0  0  0  0
 30 62  1  0  0  0  0
 30 63  1  0  0  0  0
M  END
> <s_m_source_file>
AV-unprocessed.smi

> <i_m_source_file_index>
148

> <i_lp_mmshare_version>
43012

> <i_f3d_flags>
0

> <s_epik_input>
W0NIMl0xT1tDSDJdW0NIMl1bQ0BIXTFbQ0BIXShbQ0gyXVtPSF0pW0NIMl1uKFtjSF1uMiljKGMyMyluW2NIXW5jM040W0NIMl1bQ0gyXVtDSDJdW0NIMl1bQ0BIXTRbQ0BASF01W0NIMl1bQ0gyXVtDSDJdW0NASF01W09IXQ==

> <s_epik_cmdline>
J2VwaWtfcHl0aG9uJywgJy1waCcsICc3LjAnLCAnLXRuJywgJzgnLCAnLW1hJywgJzIwMCcsICctbWV0YWxfYmluZGluZycsICctaW1hZScsICc8aW5maWxlLm1hZT4nLCAnLW9tYWUnLCAnPG91dGZpbGUubWFlPic=

> <r_lp_tautomer_probability>
1

> <r_epik_Ionization_Penalty>
0.00556303

> <r_epik_Ionization_Penalty_Charging>
0

> <r_epik_Ionization_Penalty_Neutral>
0.00556303

> <r_epik_State_Penalty>
0.00401767

> <r_epik_Charging_Adjusted_Penalty>
0.00401767

> <i_epik_Tot_Q>
0

> <i_epik_Tot_abs_Q>
0

> <r_epik_Metal_State_Penalty>
-0

> <b_epik_Metal_Only>
0

> <s_lp_Force_Field>
OPLS_2005

> <r_lp_Energy>
68.5956

> <b_lp_Chiralities_Consistent>
1

> <s_lp_Variant>
AV-unprocessed.smi:148-3

> <Gold.Version>
5.8.1

> <Gold.Id.Protein>
6NUR|6NUR_protein|mol2

> <Gold.PLP.Fitness>
44.6214

> <Gold.PLP.PLP>
-39.7068

> <Gold.PLP.part.hbond>
-3.1556

> <Gold.PLP.part.metal>
0.0000

> <Gold.PLP.part.buried>
-4.9027

> <Gold.PLP.part.nonpolar>
-31.0178

> <Gold.PLP.part.repulsive>
0.0456

> <Gold.PLP.ligand.clash>
0.0000

> <Gold.PLP.ligand.torsion>
1.0151

> <Gold.PLP.Chemscore.Hbond>
2.1107

> <Gold.PLP.Chemscore.CHOScore>
0.0000

> <Gold.PLP.Chemscore.Metal>
0.0000

> <Gold.Chemscore.Hbonds>
donor molecule, donor type, donor heavy atom, donor atom, acceptor molecule, acceptor atom, score
      L1  H     1    31       P1  8028  0.96
      L1  H    21    55       P1  7948  0.88
      P1  H  6896  6907       L1    22  0.21

> <Gold.PLP.Chemscore.Internal.Correction>
0.6127

> <Gold.Rescore>
     Score         DG    S(hbond)    S(metal)    S(lipo)     H(rot)  DE(clash)    DE(int)     intcor
     11.45     -14.32       1.91        0.00      93.82       3.32       0.07       2.80       ----

> <Gold.Chemscore.Fitness>
11.4545

> <Gold.Chemscore.DG>
-14.3206

> <Gold.Chemscore.ZeroCoef>
-5.4800

> <Gold.Chemscore.Hbond>
1.9053

> <Gold.Chemscore.Metal>
0.0000

> <Gold.Chemscore.Lipo>
93.8195

> <Gold.Chemscore.Internal_Hbond>
0.0000

> <Gold.Chemscore.DEClash>
0.0691

> <Gold.Chemscore.DEInternal>
2.7970

> <Gold.Chemscore.Rot>
3.3203

> <Gold.Chemscore.Internal.Correction>
   9.000000E+99

> <Gold.Chemscore.Hbonds>
donor molecule, donor type, donor heavy atom, donor atom, acceptor molecule, acceptor atom, score
      L1  H     1    31       P1  8028  0.92
      L1  H    21    55       P1  7948  0.82

> <Gold.Chemscore.Hbond.Weighted>
-6.3637

> <Gold.Chemscore.Metal.Weighted>
-0.0000

> <Gold.Chemscore.Lipo.Weighted>
-10.9769

> <Gold.Chemscore.Internal_Hbond.Weighted>
0.0000

> <Gold.Chemscore.DEClash.Weighted>
0.0691

> <Gold.Chemscore.DEInternal.Weighted>
2.7970

> <Gold.Chemscore.Rot.Weighted>
8.5000

> <Gold.Chemscore.Internal.Correction.Weighted>
   9.000000E+99

> <Gold.Protein.RotatedTorsions>
[ 6907 6896 6895 6894 ] final  -83.02 input  -60.11 | X-H torsion
[ 7974 7965 7964 7962 ] final   53.47 input  175.53 | X-H torsion
[ 8008 7997 7996 7995 ] final -174.45 input   59.86 | X-H torsion
[ 10167 10162 10161 10158 ] final -129.36 input  -65.29 | X-H torsion
[ 10718 10713 10712 10709 ] final -164.96 input   66.30 | X-H torsion
[ 10763 10752 10751 10750 ] final -150.55 input  -60.55 | X-H torsion
[ 11005 11000 10999 10996 ] final  163.63 input  -57.11 | X-H torsion

> <Gold.Protein.ActiveResidues>
 VAL166  LYS551  ARG553  GLY616  TRP617  ASP618  TYR619  PRO620  LYS621  CYS622 
 ASP623  PHE694  ASN695  SER759  ASP760  ASP761  ALA762  ILE779  LEU786  VAL792 
 PHE793  MET794  SER795  GLU796  ALA797  LYS798  CYS799  TRP800  GLU811  SER814 

> <Gold.Protein.RotatedAtoms>
  150.6890  134.3576  159.4936 H   0  0  0  0  0  0  0  0  0  0  0  0  # atno 6907 bound_to 6896
  152.1409  134.9060  160.0563 H   0  0  0  0  0  0  0  0  0  0  0  0  # atno 6908 bound_to 6896
  152.0194  133.3858  159.4289 H   0  0  0  0  0  0  0  0  0  0  0  0  # atno 6909 bound_to 6896
  145.9708  139.4147  143.0191 H   0  0  0  0  0  0  0  0  0  0  0  0  # atno 7974 bound_to 7965
  155.9703  140.1161  157.0818 H   0  0  0  0  0  0  0  0  0  0  0  0  # atno 8008 bound_to 7997
  154.4154  140.1164  156.5364 H   0  0  0  0  0  0  0  0  0  0  0  0  # atno 8009 bound_to 7997
  155.6606  140.3473  155.4783 H   0  0  0  0  0  0  0  0  0  0  0  0  # atno 8010 bound_to 7997
  139.9406  143.6168  152.2504 H   0  0  0  0  0  0  0  0  0  0  0  0  # atno 10167 bound_to 10162
  156.6465  130.8990  151.3005 H   0  0  0  0  0  0  0  0  0  0  0  0  # atno 10718 bound_to 10713
  154.8112  135.3281  154.7300 H   0  0  0  0  0  0  0  0  0  0  0  0  # atno 10763 bound_to 10752
  153.7949  135.6908  153.4869 H   0  0  0  0  0  0  0  0  0  0  0  0  # atno 10764 bound_to 10752
  153.1892  135.4557  155.0074 H   0  0  0  0  0  0  0  0  0  0  0  0  # atno 10765 bound_to 10752
  140.2377  134.8075  157.3380 H   0  0  0  0  0  0  0  0  0  0  0  0  # atno 11005 bound_to 11000
  145.7909  140.9815  143.1049 LP  0  0  0  0  0  0  0  0  0  0  0  0  # atno 17320 bound_to 7965
  144.6836  139.9681  143.7481 LP  0  0  0  0  0  0  0  0  0  0  0  0  # atno 17321 bound_to 7965
  139.6708  144.7661  151.1787 LP  0  0  0  0  0  0  0  0  0  0  0  0  # atno 17342 bound_to 10162
  140.7612  143.5868  150.8837 LP  0  0  0  0  0  0  0  0  0  0  0  0  # atno 17343 bound_to 10162
  157.7154  130.9491  150.1238 LP  0  0  0  0  0  0  0  0  0  0  0  0  # atno 17370 bound_to 10713
  156.2118  130.3667  149.8661 LP  0  0  0  0  0  0  0  0  0  0  0  0  # atno 17371 bound_to 10713
  140.1685  134.4638  155.7847 LP  0  0  0  0  0  0  0  0  0  0  0  0  # atno 17394 bound_to 11000
  141.2213  133.6931  156.7667 LP  0  0  0  0  0  0  0  0  0  0  0  0  # atno 17395 bound_to 11000

$$$$
