AV-unprocessed.smi:1762|AV-procd|sdf|7121|dock8
  -GOLD-   22720 8353D 1   1.00000     0.00000
 Structure written by MMmdl.
 52 53  0  0  0  0  0  0  0  0  3 V2000
  150.6307  133.3690  154.8258 C   0  0  0  0  0  0  0  0  0  0  0  0
  149.5394  134.3511  154.3876 C   0  0  2  0  0  0  0  0  0  0  0  0
  149.8007  135.7740  154.9092 C   0  0  0  0  0  0  0  0  0  0  0  0
  148.6747  136.6635  154.5344 N   0  3  2  0  0  0  0  0  0  0  0  0
  148.8770  138.1302  154.7494 C   0  0  1  0  0  0  0  0  0  0  0  0
  150.3579  138.5396  154.9581 C   0  0  0  0  0  0  0  0  0  0  0  0
  151.1389  138.3605  154.0175 O   0  0  0  0  0  0  0  0  0  0  0  0
  150.5920  139.0543  156.1988 N   0  5  0  0  0  0  0  0  0  0  0  0
  151.5543  140.1233  156.4712 C   0  0  0  0  0  0  0  0  0  0  0  0
  151.5069  140.5753  157.9513 C   0  0  0  0  0  0  0  0  0  0  0  0
  151.8952  142.0292  158.2149 C   0  0  0  0  0  0  0  0  0  0  0  0
  152.8155  142.3523  159.2379 C   0  0  0  0  0  0  0  0  0  0  0  0
  153.1205  143.7074  159.4694 C   0  0  0  0  0  0  0  0  0  0  0  0
  152.4936  144.6894  158.6799 C   0  0  0  0  0  0  0  0  0  0  0  0
  151.5783  144.2711  157.6944 C   0  0  0  0  0  0  0  0  0  0  0  0
  151.2748  142.9756  157.4673 N   0  0  0  0  0  0  0  0  0  0  0  0
  148.0761  139.0063  153.7326 C   0  0  0  0  0  0  0  0  0  0  0  0
  148.3179  140.5174  153.9261 C   0  0  0  0  0  0  0  0  0  0  0  0
  146.5626  138.7224  153.7951 C   0  0  0  0  0  0  0  0  0  0  0  0
  147.3954  136.1354  155.0672 C   0  0  0  0  0  0  0  0  0  0  0  0
  147.1629  134.6911  154.5846 C   0  0  1  0  0  0  0  0  0  0  0  0
  146.7718  134.5980  153.0986 C   0  0  0  0  0  0  0  0  0  0  0  0
  148.2941  133.8766  154.8968 O   0  0  0  0  0  0  0  0  0  0  0  0
  151.6115  133.6858  154.4704 H   0  0  0  0  0  0  0  0  0  0  0  0
  150.4392  132.3715  154.4299 H   0  0  0  0  0  0  0  0  0  0  0  0
  150.6767  133.2920  155.9118 H   0  0  0  0  0  0  0  0  0  0  0  0
  149.5124  134.3611  153.2979 H   0  0  0  0  0  0  0  0  0  0  0  0
  149.9107  135.7533  155.9921 H   0  0  0  0  0  0  0  0  0  0  0  0
  150.7378  136.1467  154.4977 H   0  0  0  0  0  0  0  0  0  0  0  0
  148.3965  138.3338  155.7081 H   0  0  0  0  0  0  0  0  0  0  0  0
  152.5698  139.8115  156.2259 H   0  0  0  0  0  0  0  0  0  0  0  0
  151.3701  140.9950  155.8417 H   0  0  0  0  0  0  0  0  0  0  0  0
  150.4926  140.4336  158.3260 H   0  0  0  0  0  0  0  0  0  0  0  0
  152.1341  139.9201  158.5576 H   0  0  0  0  0  0  0  0  0  0  0  0
  153.2747  141.5775  159.8339 H   0  0  0  0  0  0  0  0  0  0  0  0
  153.8191  143.9898  160.2427 H   0  0  0  0  0  0  0  0  0  0  0  0
  152.7035  145.7382  158.8294 H   0  0  0  0  0  0  0  0  0  0  0  0
  151.0722  144.9969  157.0752 H   0  0  0  0  0  0  0  0  0  0  0  0
  148.3986  138.7631  152.7200 H   0  0  0  0  0  0  0  0  0  0  0  0
  148.0432  140.8361  154.9321 H   0  0  0  0  0  0  0  0  0  0  0  0
  147.7271  141.1022  153.2207 H   0  0  0  0  0  0  0  0  0  0  0  0
  149.3606  140.7898  153.7644 H   0  0  0  0  0  0  0  0  0  0  0  0
  146.1658  138.9131  154.7928 H   0  0  0  0  0  0  0  0  0  0  0  0
  146.3306  137.6899  153.5338 H   0  0  0  0  0  0  0  0  0  0  0  0
  146.0164  139.3558  153.0956 H   0  0  0  0  0  0  0  0  0  0  0  0
  147.4217  136.1549  156.1578 H   0  0  0  0  0  0  0  0  0  0  0  0
  146.5625  136.7690  154.7596 H   0  0  0  0  0  0  0  0  0  0  0  0
  146.3289  134.2817  155.1555 H   0  0  0  0  0  0  0  0  0  0  0  0
  145.8357  135.1248  152.9122 H   0  0  0  0  0  0  0  0  0  0  0  0
  146.6295  133.5597  152.7984 H   0  0  0  0  0  0  0  0  0  0  0  0
  147.5242  135.0361  152.4435 H   0  0  0  0  0  0  0  0  0  0  0  0
  148.5942  136.5747  153.5321 H   0  0  0  0  0  0  0  0  0  0  0  0
  1  2  1  0  0  0  0
  1 24  1  0  0  0  0
  1 25  1  0  0  0  0
  1 26  1  0  0  0  0
  2 23  1  0  0  0  0
  2  3  1  0  0  0  0
  2 27  1  0  0  0  0
  3  4  1  0  0  0  0
  3 28  1  0  0  0  0
  3 29  1  0  0  0  0
  4  5  1  0  0  0  0
  4 20  1  0  0  0  0
  4 52  1  0  0  0  0
  5  6  1  0  0  0  0
  5 17  1  0  0  0  0
  5 30  1  0  0  0  0
  6  7  2  0  0  0  0
  6  8  1  0  0  0  0
  8  9  1  0  0  0  0
  9 10  1  0  0  0  0
  9 31  1  0  0  0  0
  9 32  1  0  0  0  0
 10 11  1  0  0  0  0
 10 33  1  0  0  0  0
 10 34  1  0  0  0  0
 11 16  1  0  0  0  0
 11 12  2  0  0  0  0
 12 13  1  0  0  0  0
 12 35  1  0  0  0  0
 13 14  2  0  0  0  0
 13 36  1  0  0  0  0
 14 15  1  0  0  0  0
 14 37  1  0  0  0  0
 15 16  2  0  0  0  0
 15 38  1  0  0  0  0
 17 18  1  0  0  0  0
 17 19  1  0  0  0  0
 17 39  1  0  0  0  0
 18 40  1  0  0  0  0
 18 41  1  0  0  0  0
 18 42  1  0  0  0  0
 19 43  1  0  0  0  0
 19 44  1  0  0  0  0
 19 45  1  0  0  0  0
 20 21  1  0  0  0  0
 20 46  1  0  0  0  0
 20 47  1  0  0  0  0
 21 22  1  0  0  0  0
 21 23  1  0  0  0  0
 21 48  1  0  0  0  0
 22 49  1  0  0  0  0
 22 50  1  0  0  0  0
 22 51  1  0  0  0  0
M  CHG  1   4   1
M  CHG  1   8  -1
M  END
> <s_m_source_file>
AV-unprocessed.smi

> <i_m_source_file_index>
1762

> <i_lp_mmshare_version>
43012

> <i_f3d_flags>
0

> <s_epik_input>
W0NIM11bQ0BASF0xW0NIMl1OKFtDSDJdW0NASF0oTzEpW0NIM10pW0NAQEhdKFtDSF0oW0NIM10pW0NIM10pQyg9TylbTkhdW0NIMl1bQ0gyXWMyW2NIXVtjSF1bY0hdW2NIXW4y

> <s_epik_cmdline>
J2VwaWtfcHl0aG9uJywgJy1waCcsICc3LjAnLCAnLXRuJywgJzgnLCAnLW1hJywgJzIwMCcsICctbWV0YWxfYmluZGluZycsICctaW1hZScsICc8aW5maWxlLm1hZT4nLCAnLW9tYWUnLCAnPG91dGZpbGUubWFlPic=

> <r_epik_Ionization_Penalty>
7.82966

> <r_epik_Ionization_Penalty_Charging>
7.7461

> <r_epik_Ionization_Penalty_Neutral>
0.0835571

> <r_epik_State_Penalty>
8.52273

> <r_epik_Charging_Adjusted_Penalty>
16.2688

> <i_epik_Tot_Q>
0

> <i_epik_Tot_abs_Q>
2

> <r_epik_Metal_State_Penalty>
4.47451

> <b_epik_Metal_Only>
1

> <s_lp_Force_Field>
OPLS_2005

> <r_lp_Energy>
25.1161

> <b_lp_Chiralities_Consistent>
1

> <s_lp_Variant>
AV-unprocessed.smi:1762-23

> <Gold.Version>
5.8.1

> <Gold.Id.Protein>
6NUR|6NUR_protein|mol2

> <Gold.PLP.Fitness>
44.5035

> <Gold.PLP.PLP>
-37.7384

> <Gold.PLP.part.hbond>
-1.0000

> <Gold.PLP.part.metal>
0.0000

> <Gold.PLP.part.buried>
-3.5284

> <Gold.PLP.part.nonpolar>
-33.3570

> <Gold.PLP.part.repulsive>
0.3731

> <Gold.PLP.ligand.clash>
0.0000

> <Gold.PLP.ligand.torsion>
1.5027

> <Gold.PLP.Chemscore.Hbond>
2.0000

> <Gold.PLP.Chemscore.CHOScore>
0.9918

> <Gold.PLP.Chemscore.Metal>
0.0000

> <Gold.Chemscore.Hbonds>
donor molecule, donor type, donor heavy atom, donor atom, acceptor molecule, acceptor atom, score
      L1  H     4    52       P1  7948  2.00
      L1  C    15    38       P1  8028  0.90

> <Gold.PLP.Chemscore.Internal.Correction>
0.7950

> <Gold.Rescore>
     Score         DG    S(hbond)    S(metal)    S(lipo)     H(rot)  DE(clash)    DE(int)     intcor
     15.13     -17.74       0.98        0.00     111.69       1.60       0.99       1.62       ----

> <Gold.Chemscore.Fitness>
15.1287

> <Gold.Chemscore.DG>
-17.7359

> <Gold.Chemscore.ZeroCoef>
-5.4800

> <Gold.Chemscore.Hbond>
0.9842

> <Gold.Chemscore.Metal>
0.0000

> <Gold.Chemscore.Lipo>
111.6889

> <Gold.Chemscore.Internal_Hbond>
0.0000

> <Gold.Chemscore.DEClash>
0.9881

> <Gold.Chemscore.DEInternal>
1.6190

> <Gold.Chemscore.Rot>
1.6012

> <Gold.Chemscore.Internal.Correction>
   9.000000E+99

> <Gold.Chemscore.Hbonds>
donor molecule, donor type, donor heavy atom, donor atom, acceptor molecule, acceptor atom, score
      L1  H     4    52       P1  7948  1.00

> <Gold.Chemscore.Hbond.Weighted>
-3.2872

> <Gold.Chemscore.Metal.Weighted>
-0.0000

> <Gold.Chemscore.Lipo.Weighted>
-13.0676

> <Gold.Chemscore.Internal_Hbond.Weighted>
0.0000

> <Gold.Chemscore.DEClash.Weighted>
0.9881

> <Gold.Chemscore.DEInternal.Weighted>
1.6190

> <Gold.Chemscore.Rot.Weighted>
4.0990

> <Gold.Chemscore.Internal.Correction.Weighted>
   9.000000E+99

> <Gold.Protein.RotatedTorsions>
[ 6907 6896 6895 6894 ] final -116.76 input  -60.11 | X-H torsion
[ 7974 7965 7964 7962 ] final  -78.23 input  175.53 | X-H torsion
[ 8008 7997 7996 7995 ] final -145.79 input   59.86 | X-H torsion
[ 10167 10162 10161 10158 ] final   26.82 input  -65.29 | X-H torsion
[ 10718 10713 10712 10709 ] final  -88.25 input   66.30 | X-H torsion
[ 10763 10752 10751 10750 ] final   -4.87 input  -60.55 | X-H torsion
[ 11005 11000 10999 10996 ] final   46.27 input  -57.11 | X-H torsion

> <Gold.Protein.ActiveResidues>
 VAL166  LYS551  ARG553  GLY616  TRP617  ASP618  TYR619  PRO620  LYS621  CYS622 
 ASP623  PHE694  ASN695  SER759  ASP760  ASP761  ALA762  ILE779  LEU786  VAL792 
 PHE793  MET794  SER795  GLU796  ALA797  LYS798  CYS799  TRP800  GLU811  SER814 

> <Gold.Protein.RotatedAtoms>
  150.8081  133.8472  159.3195 H   0  0  0  0  0  0  0  0  0  0  0  0  # atno 6907 bound_to 6896
  151.6265  135.1025  160.0122 H   0  0  0  0  0  0  0  0  0  0  0  0  # atno 6908 bound_to 6896
  152.4173  133.7018  159.6485 H   0  0  0  0  0  0  0  0  0  0  0  0  # atno 6909 bound_to 6896
  145.5892  140.9433  143.1301 H   0  0  0  0  0  0  0  0  0  0  0  0  # atno 7974 bound_to 7965
  155.5489  140.0615  157.2854 H   0  0  0  0  0  0  0  0  0  0  0  0  # atno 8008 bound_to 7997
  154.4427  140.1906  156.0710 H   0  0  0  0  0  0  0  0  0  0  0  0  # atno 8009 bound_to 7997
  156.0531  140.3282  155.7377 H   0  0  0  0  0  0  0  0  0  0  0  0  # atno 8010 bound_to 7997
  140.4990  144.0345  150.6325 H   0  0  0  0  0  0  0  0  0  0  0  0  # atno 10167 bound_to 10162
  155.9984  130.4829  150.4991 H   0  0  0  0  0  0  0  0  0  0  0  0  # atno 10718 bound_to 10713
  153.3908  135.7002  153.6496 H   0  0  0  0  0  0  0  0  0  0  0  0  # atno 10763 bound_to 10752
  153.5070  135.3640  155.2568 H   0  0  0  0  0  0  0  0  0  0  0  0  # atno 10764 bound_to 10752
  154.8702  135.4125  154.3224 H   0  0  0  0  0  0  0  0  0  0  0  0  # atno 10765 bound_to 10752
  140.1384  134.4615  155.8468 H   0  0  0  0  0  0  0  0  0  0  0  0  # atno 11005 bound_to 11000
  144.7359  139.7588  143.7329 LP  0  0  0  0  0  0  0  0  0  0  0  0  # atno 17320 bound_to 7965
  146.1659  139.4791  142.9958 LP  0  0  0  0  0  0  0  0  0  0  0  0  # atno 17321 bound_to 7965
  140.3636  143.2894  152.0356 LP  0  0  0  0  0  0  0  0  0  0  0  0  # atno 17342 bound_to 10162
  139.4868  144.6284  151.7118 LP  0  0  0  0  0  0  0  0  0  0  0  0  # atno 17343 bound_to 10162
  157.2977  131.0639  151.2090 LP  0  0  0  0  0  0  0  0  0  0  0  0  # atno 17370 bound_to 10713
  157.3080  130.6875  149.6200 LP  0  0  0  0  0  0  0  0  0  0  0  0  # atno 17371 bound_to 10713
  141.2182  133.6823  156.7200 LP  0  0  0  0  0  0  0  0  0  0  0  0  # atno 17394 bound_to 11000
  140.2753  134.8359  157.3885 LP  0  0  0  0  0  0  0  0  0  0  0  0  # atno 17395 bound_to 11000

$$$$
