AV-unprocessed.smi:952|AV-procd|sdf|4255|dock5
  -GOLD-   22720 2163D 1   1.00000     0.00000
 Structure written by MMmdl.
 35 35  0  0  0  0  0  0  0  0  1 V2000
  153.4462  141.9250  160.5644 C   0  0  0  0  0  0  0  0  0  0  0  0
  152.7728  143.2941  160.4243 C   0  0  0  0  0  0  0  0  0  0  0  0
  152.7102  143.7708  158.9638 C   0  0  0  0  0  0  0  0  0  0  0  0
  151.4421  143.4166  158.3368 N   0  0  0  0  0  0  0  0  0  0  0  0
  150.9597  142.1698  158.2264 C   0  0  0  0  0  0  0  0  0  0  0  0
  151.5607  141.1750  158.6358 O   0  0  0  0  0  0  0  0  0  0  0  0
  149.6021  142.0290  157.5276 C   0  0  0  0  0  0  0  0  0  0  0  0
  149.7031  141.2772  156.2804 N   0  0  0  0  0  0  0  0  0  0  0  0
  148.7396  141.1922  155.3489 C   0  0  0  0  0  0  0  0  0  0  0  0
  147.6789  141.8145  155.4194 O   0  0  0  0  0  0  0  0  0  0  0  0
  149.0168  140.2429  154.1739 C   0  0  2  0  0  0  0  0  0  0  0  0
  147.7914  139.3824  153.8025 C   0  0  0  0  0  0  0  0  0  0  0  0
  150.2008  139.4399  154.4596 N   0  0  0  0  0  0  0  0  0  0  0  0
  150.3403  138.0706  154.3523 C   0  0  0  0  0  0  0  0  0  0  0  0
  151.6334  137.7622  154.6631 C   0  0  0  0  0  0  0  0  0  0  0  0
  152.2250  139.0265  154.9365 C   0  0  0  0  0  0  0  0  0  0  0  0
  151.3703  140.0274  154.8056 N   0  0  0  0  0  0  0  0  0  0  0  0
  153.4773  141.6128  161.6085 H   0  0  0  0  0  0  0  0  0  0  0  0
  154.4711  141.9500  160.1933 H   0  0  0  0  0  0  0  0  0  0  0  0
  152.9048  141.1615  160.0050 H   0  0  0  0  0  0  0  0  0  0  0  0
  151.7662  143.2385  160.8408 H   0  0  0  0  0  0  0  0  0  0  0  0
  153.3149  144.0248  161.0257 H   0  0  0  0  0  0  0  0  0  0  0  0
  152.8157  144.8552  158.9231 H   0  0  0  0  0  0  0  0  0  0  0  0
  153.5408  143.3565  158.3895 H   0  0  0  0  0  0  0  0  0  0  0  0
  150.8865  144.1754  157.9690 H   0  0  0  0  0  0  0  0  0  0  0  0
  148.8761  141.5636  158.1970 H   0  0  0  0  0  0  0  0  0  0  0  0
  149.2247  143.0258  157.2994 H   0  0  0  0  0  0  0  0  0  0  0  0
  150.5416  140.7310  156.1466 H   0  0  0  0  0  0  0  0  0  0  0  0
  149.2515  140.8572  153.3029 H   0  0  0  0  0  0  0  0  0  0  0  0
  146.9409  140.0087  153.5318 H   0  0  0  0  0  0  0  0  0  0  0  0
  147.4763  138.7366  154.6231 H   0  0  0  0  0  0  0  0  0  0  0  0
  148.0115  138.7441  152.9464 H   0  0  0  0  0  0  0  0  0  0  0  0
  149.5159  137.4355  154.0629 H   0  0  0  0  0  0  0  0  0  0  0  0
  152.0895  136.7836  154.6836 H   0  0  0  0  0  0  0  0  0  0  0  0
  153.2444  139.2457  155.2180 H   0  0  0  0  0  0  0  0  0  0  0  0
  1  2  1  0  0  0  0
  1 18  1  0  0  0  0
  1 19  1  0  0  0  0
  1 20  1  0  0  0  0
  2  3  1  0  0  0  0
  2 21  1  0  0  0  0
  2 22  1  0  0  0  0
  3  4  1  0  0  0  0
  3 23  1  0  0  0  0
  3 24  1  0  0  0  0
  4  5  1  0  0  0  0
  4 25  1  0  0  0  0
  5  6  2  0  0  0  0
  5  7  1  0  0  0  0
  7  8  1  0  0  0  0
  7 26  1  0  0  0  0
  7 27  1  0  0  0  0
  8  9  1  0  0  0  0
  8 28  1  0  0  0  0
  9 10  2  0  0  0  0
  9 11  1  0  0  0  0
 11 12  1  0  0  0  0
 11 13  1  0  0  0  0
 11 29  1  0  0  0  0
 12 30  1  0  0  0  0
 12 31  1  0  0  0  0
 12 32  1  0  0  0  0
 13 17  1  0  0  0  0
 13 14  1  0  0  0  0
 14 15  2  0  0  0  0
 14 33  1  0  0  0  0
 15 16  1  0  0  0  0
 15 34  1  0  0  0  0
 16 17  2  0  0  0  0
 16 35  1  0  0  0  0
M  END
> <s_m_source_file>
AV-unprocessed.smi

> <i_m_source_file_index>
952

> <i_lp_mmshare_version>
43012

> <i_f3d_flags>
0

> <s_epik_input>
W0NIM11bQ0gyXVtDSDJdW05IXUMoPU8pW0NIMl1bTkhdQyg9TylbQ0BIXShbQ0gzXSluMVtjSF1bY0hdW2NIXW4x

> <s_epik_cmdline>
J2VwaWtfcHl0aG9uJywgJy1waCcsICc3LjAnLCAnLXRuJywgJzgnLCAnLW1hJywgJzIwMCcsICctbWV0YWxfYmluZGluZycsICctaW1hZScsICc8aW5maWxlLm1hZT4nLCAnLW9tYWUnLCAnPG91dGZpbGUubWFlPic=

> <r_lp_tautomer_probability>
1

> <r_epik_Ionization_Penalty>
2.62173e-05

> <r_epik_Ionization_Penalty_Charging>
0

> <r_epik_Ionization_Penalty_Neutral>
2.62173e-05

> <r_epik_State_Penalty>
-0

> <r_epik_Charging_Adjusted_Penalty>
0

> <i_epik_Tot_Q>
0

> <i_epik_Tot_abs_Q>
0

> <r_epik_Metal_State_Penalty>
-0

> <b_epik_Metal_Only>
0

> <s_lp_Force_Field>
OPLS_2005

> <r_lp_Energy>
2.54984

> <b_lp_Chiralities_Consistent>
1

> <s_lp_Variant>
AV-unprocessed.smi:952-1

> <Gold.Version>
5.8.1

> <Gold.Id.Protein>
6NUR|6NUR_protein|mol2

> <Gold.PLP.Fitness>
39.9853

> <Gold.PLP.PLP>
-35.3011

> <Gold.PLP.part.hbond>
-1.0000

> <Gold.PLP.part.metal>
0.0000

> <Gold.PLP.part.buried>
-4.0891

> <Gold.PLP.part.nonpolar>
-31.5413

> <Gold.PLP.part.repulsive>
0.3194

> <Gold.PLP.ligand.clash>
0.0000

> <Gold.PLP.ligand.torsion>
0.7275

> <Gold.PLP.Chemscore.Hbond>
1.0000

> <Gold.PLP.Chemscore.CHOScore>
1.0000

> <Gold.PLP.Chemscore.Metal>
0.0000

> <Gold.Chemscore.Hbonds>
donor molecule, donor type, donor heavy atom, donor atom, acceptor molecule, acceptor atom, score
      P1  H  7989  7998       L1    17  1.00
      L1  C    14    33       P1  7948  0.96

> <Gold.PLP.Chemscore.Internal.Correction>
0.1393

> <Gold.Rescore>
     Score         DG    S(hbond)    S(metal)    S(lipo)     H(rot)  DE(clash)    DE(int)     intcor
     11.71     -15.18       1.96        0.00      75.80       2.24       0.06       3.41       ----

> <Gold.Chemscore.Fitness>
11.7065

> <Gold.Chemscore.DG>
-15.1754

> <Gold.Chemscore.ZeroCoef>
-5.4800

> <Gold.Chemscore.Hbond>
1.9617

> <Gold.Chemscore.Metal>
0.0000

> <Gold.Chemscore.Lipo>
75.7994

> <Gold.Chemscore.Internal_Hbond>
0.0000

> <Gold.Chemscore.DEClash>
0.0612

> <Gold.Chemscore.DEInternal>
3.4076

> <Gold.Chemscore.Rot>
2.2364

> <Gold.Chemscore.Internal.Correction>
   9.000000E+99

> <Gold.Chemscore.Hbonds>
donor molecule, donor type, donor heavy atom, donor atom, acceptor molecule, acceptor atom, score
      P1  H  7989  7998       L1    17  0.20

> <Gold.Chemscore.Hbond.Weighted>
-6.5520

> <Gold.Chemscore.Metal.Weighted>
-0.0000

> <Gold.Chemscore.Lipo.Weighted>
-8.8685

> <Gold.Chemscore.Internal_Hbond.Weighted>
0.0000

> <Gold.Chemscore.DEClash.Weighted>
0.0612

> <Gold.Chemscore.DEInternal.Weighted>
3.4076

> <Gold.Chemscore.Rot.Weighted>
5.7251

> <Gold.Chemscore.Internal.Correction.Weighted>
   9.000000E+99

> <Gold.Protein.RotatedTorsions>
[ 6907 6896 6895 6894 ] final -142.92 input  -60.11 | X-H torsion
[ 7974 7965 7964 7962 ] final  -20.33 input  175.53 | X-H torsion
[ 8008 7997 7996 7995 ] final   68.14 input   59.86 | X-H torsion
[ 10167 10162 10161 10158 ] final   15.52 input  -65.29 | X-H torsion
[ 10718 10713 10712 10709 ] final   86.41 input   66.30 | X-H torsion
[ 10763 10752 10751 10750 ] final   63.25 input  -60.55 | X-H torsion
[ 11005 11000 10999 10996 ] final -164.73 input  -57.11 | X-H torsion

> <Gold.Protein.ActiveResidues>
 VAL166  LYS551  ARG553  GLY616  TRP617  ASP618  TYR619  PRO620  LYS621  CYS622 
 ASP623  PHE694  ASN695  SER759  ASP760  ASP761  ALA762  ILE779  LEU786  VAL792 
 PHE793  MET794  SER795  GLU796  ALA797  LYS798  CYS799  TRP800  GLU811  SER814 

> <Gold.Protein.RotatedAtoms>
  151.0934  133.5298  159.2613 H   0  0  0  0  0  0  0  0  0  0  0  0  # atno 6907 bound_to 6896
  151.2156  135.0498  159.8939 H   0  0  0  0  0  0  0  0  0  0  0  0  # atno 6908 bound_to 6896
  152.5436  134.0744  159.8261 H   0  0  0  0  0  0  0  0  0  0  0  0  # atno 6909 bound_to 6896
  146.1794  140.4187  142.8500 H   0  0  0  0  0  0  0  0  0  0  0  0  # atno 7974 bound_to 7965
  155.7037  140.3495  155.4944 H   0  0  0  0  0  0  0  0  0  0  0  0  # atno 8008 bound_to 7997
  155.9418  140.1103  157.1071 H   0  0  0  0  0  0  0  0  0  0  0  0  # atno 8009 bound_to 7997
  154.4104  140.1211  156.4923 H   0  0  0  0  0  0  0  0  0  0  0  0  # atno 8010 bound_to 7997
  140.5861  143.8886  150.6832 H   0  0  0  0  0  0  0  0  0  0  0  0  # atno 10167 bound_to 10162
  157.6928  131.0214  150.2968 H   0  0  0  0  0  0  0  0  0  0  0  0  # atno 10718 bound_to 10713
  153.0011  135.5436  154.6322 H   0  0  0  0  0  0  0  0  0  0  0  0  # atno 10763 bound_to 10752
  154.5597  135.2833  155.0933 H   0  0  0  0  0  0  0  0  0  0  0  0  # atno 10764 bound_to 10752
  154.2140  135.6462  153.5176 H   0  0  0  0  0  0  0  0  0  0  0  0  # atno 10765 bound_to 10752
  140.5836  134.5116  157.5182 H   0  0  0  0  0  0  0  0  0  0  0  0  # atno 11005 bound_to 11000
  144.8289  140.6675  143.6303 LP  0  0  0  0  0  0  0  0  0  0  0  0  # atno 17320 bound_to 7965
  145.4120  139.1578  143.4121 LP  0  0  0  0  0  0  0  0  0  0  0  0  # atno 17321 bound_to 7965
  140.2397  143.3673  152.1496 LP  0  0  0  0  0  0  0  0  0  0  0  0  # atno 17342 bound_to 10162
  139.5199  144.7025  151.5451 LP  0  0  0  0  0  0  0  0  0  0  0  0  # atno 17343 bound_to 10162
  156.3490  130.3828  149.7345 LP  0  0  0  0  0  0  0  0  0  0  0  0  # atno 17370 bound_to 10713
  156.4829  130.8049  151.3063 LP  0  0  0  0  0  0  0  0  0  0  0  0  # atno 17371 bound_to 10713
  139.9306  134.7972  156.0943 LP  0  0  0  0  0  0  0  0  0  0  0  0  # atno 17394 bound_to 11000
  141.0980  133.6688  156.2689 LP  0  0  0  0  0  0  0  0  0  0  0  0  # atno 17395 bound_to 11000

$$$$
