AV-unprocessed.smi:2924|AV-procd|sdf|11221|dock9
  -GOLD-   2272016113D 1   1.00000     0.00000
 Structure written by MMmdl.
 29 31  0  0  0  0  0  0  0  0  1 V2000
  153.5198  139.0763  155.0073 N   0  0  0  0  0  0  0  0  0  0  0  0
  152.4541  139.4597  155.2438 C   0  0  0  0  0  0  0  0  0  0  0  0
  151.1112  139.9428  155.5414 C   0  0  0  0  0  0  0  0  0  0  0  0
  150.0267  139.4560  154.7816 C   0  0  0  0  0  0  0  0  0  0  0  0
  148.7284  139.9167  155.0656 C   0  0  0  0  0  0  0  0  0  0  0  0
  148.5660  140.8520  156.1036 C   0  0  0  0  0  0  0  0  0  0  0  0
  149.5940  141.3258  156.8376 N   0  0  0  0  0  0  0  0  0  0  0  0
  150.8483  140.8852  156.5720 C   0  0  0  0  0  0  0  0  0  0  0  0
  151.8995  141.3990  157.3536 N   0  0  0  0  0  0  0  0  0  0  0  0
  151.6459  142.1063  158.6047 C   0  0  1  0  0  0  0  0  0  0  0  0
  152.5192  141.6100  159.7646 C   0  0  0  0  0  0  0  0  0  0  0  0
  153.2116  142.9019  160.2158 C   0  0  2  0  0  0  0  0  0  0  0  0
  152.2354  143.8859  160.8747 C   0  0  0  0  0  0  0  0  0  0  0  0
  151.4451  144.3953  159.6699 C   0  0  0  0  0  0  0  0  0  0  0  0
  152.0614  143.5848  158.5215 C   0  0  1  0  0  0  0  0  0  0  0  0
  153.4093  143.5272  158.9604 O   0  0  0  0  0  0  0  0  0  0  0  0
  150.1825  138.7374  153.9896 H   0  0  0  0  0  0  0  0  0  0  0  0
  147.8782  139.5621  154.5019 H   0  0  0  0  0  0  0  0  0  0  0  0
  147.5854  141.2302  156.3514 H   0  0  0  0  0  0  0  0  0  0  0  0
  152.8454  141.1015  157.1610 H   0  0  0  0  0  0  0  0  0  0  0  0
  150.5843  142.0380  158.8460 H   0  0  0  0  0  0  0  0  0  0  0  0
  151.9354  141.1494  160.5620 H   0  0  0  0  0  0  0  0  0  0  0  0
  153.2617  140.8845  159.4286 H   0  0  0  0  0  0  0  0  0  0  0  0
  154.1267  142.7368  160.7847 H   0  0  0  0  0  0  0  0  0  0  0  0
  151.6053  143.4035  161.6225 H   0  0  0  0  0  0  0  0  0  0  0  0
  152.7712  144.7056  161.3548 H   0  0  0  0  0  0  0  0  0  0  0  0
  150.3712  144.2336  159.7674 H   0  0  0  0  0  0  0  0  0  0  0  0
  151.6175  145.4622  159.5243 H   0  0  0  0  0  0  0  0  0  0  0  0
  151.9201  144.0420  157.5414 H   0  0  0  0  0  0  0  0  0  0  0  0
  1  2  3  0  0  0  0
  2  3  1  0  0  0  0
  3  8  1  0  0  0  0
  3  4  2  0  0  0  0
  4  5  1  0  0  0  0
  4 17  1  0  0  0  0
  5  6  2  0  0  0  0
  5 18  1  0  0  0  0
  6  7  1  0  0  0  0
  6 19  1  0  0  0  0
  7  8  2  0  0  0  0
  8  9  1  0  0  0  0
  9 10  1  0  0  0  0
  9 20  1  0  0  0  0
 10 15  1  0  0  0  0
 10 11  1  0  0  0  0
 10 21  1  0  0  0  0
 11 12  1  0  0  0  0
 11 22  1  0  0  0  0
 11 23  1  0  0  0  0
 12 16  1  0  0  0  0
 12 13  1  0  0  0  0
 12 24  1  0  0  0  0
 13 14  1  0  0  0  0
 13 25  1  0  0  0  0
 13 26  1  0  0  0  0
 14 15  1  0  0  0  0
 14 27  1  0  0  0  0
 14 28  1  0  0  0  0
 15 16  1  0  0  0  0
 15 29  1  0  0  0  0
M  END
> <s_m_source_file>
AV-unprocessed.smi

> <i_m_source_file_index>
2924

> <i_lp_mmshare_version>
43012

> <i_f3d_flags>
0

> <s_epik_input>
TiNDYzFbY0hdW2NIXVtjSF1uYzFbTkhdW0NASF0oW0NIMl1bQ0BASF0yMylbQ0BASF0oTzMpW0NIMl1bQ0gyXTI=

> <s_epik_cmdline>
J2VwaWtfcHl0aG9uJywgJy1waCcsICc3LjAnLCAnLXRuJywgJzgnLCAnLW1hJywgJzIwMCcsICctbWV0YWxfYmluZGluZycsICctaW1hZScsICc8aW5maWxlLm1hZT4nLCAnLW9tYWUnLCAnPG91dGZpbGUubWFlPic=

> <r_lp_tautomer_probability>
1

> <r_epik_Ionization_Penalty>
2.11559e-05

> <r_epik_Ionization_Penalty_Charging>
0

> <r_epik_Ionization_Penalty_Neutral>
2.11559e-05

> <r_epik_State_Penalty>
-0

> <r_epik_Charging_Adjusted_Penalty>
0

> <i_epik_Tot_Q>
0

> <i_epik_Tot_abs_Q>
0

> <r_epik_Metal_State_Penalty>
-0

> <b_epik_Metal_Only>
0

> <s_lp_Force_Field>
OPLS_2005

> <r_lp_Energy>
42.1946

> <b_lp_Chiralities_Consistent>
1

> <s_lp_Variant>
AV-unprocessed.smi:2924-4

> <Gold.Version>
5.8.1

> <Gold.Id.Protein>
6NUR|6NUR_protein|mol2

> <Gold.PLP.Fitness>
38.3076

> <Gold.PLP.PLP>
-35.5459

> <Gold.PLP.part.hbond>
-1.0000

> <Gold.PLP.part.metal>
0.0000

> <Gold.PLP.part.buried>
-3.1234

> <Gold.PLP.part.nonpolar>
-32.4419

> <Gold.PLP.part.repulsive>
0.2033

> <Gold.PLP.ligand.clash>
0.0000

> <Gold.PLP.ligand.torsion>
0.1290

> <Gold.PLP.Chemscore.Hbond>
1.0000

> <Gold.PLP.Chemscore.CHOScore>
0.0000

> <Gold.PLP.Chemscore.Metal>
0.0000

> <Gold.Chemscore.Hbonds>
donor molecule, donor type, donor heavy atom, donor atom, acceptor molecule, acceptor atom, score
      P1  H  7997  8008       L1     1  1.00

> <Gold.PLP.Chemscore.Internal.Correction>
0.0197

> <Gold.Rescore>
     Score         DG    S(hbond)    S(metal)    S(lipo)     H(rot)  DE(clash)    DE(int)     intcor
     16.04     -16.13       0.90        0.00      87.22       1.00       0.02       0.07       ----

> <Gold.Chemscore.Fitness>
16.0389

> <Gold.Chemscore.DG>
-16.1331

> <Gold.Chemscore.ZeroCoef>
-5.4800

> <Gold.Chemscore.Hbond>
0.9005

> <Gold.Chemscore.Metal>
0.0000

> <Gold.Chemscore.Lipo>
87.2249

> <Gold.Chemscore.Internal_Hbond>
0.0000

> <Gold.Chemscore.DEClash>
0.0234

> <Gold.Chemscore.DEInternal>
0.0708

> <Gold.Chemscore.Rot>
1.0000

> <Gold.Chemscore.Internal.Correction>
   9.000000E+99

> <Gold.Chemscore.Hbonds>
donor molecule, donor type, donor heavy atom, donor atom, acceptor molecule, acceptor atom, score
      P1  H  7997  8008       L1     1  0.34

> <Gold.Chemscore.Hbond.Weighted>
-3.0077

> <Gold.Chemscore.Metal.Weighted>
-0.0000

> <Gold.Chemscore.Lipo.Weighted>
-10.2053

> <Gold.Chemscore.Internal_Hbond.Weighted>
0.0000

> <Gold.Chemscore.DEClash.Weighted>
0.0234

> <Gold.Chemscore.DEInternal.Weighted>
0.0708

> <Gold.Chemscore.Rot.Weighted>
2.5600

> <Gold.Chemscore.Internal.Correction.Weighted>
   9.000000E+99

> <Gold.Protein.RotatedTorsions>
[ 6907 6896 6895 6894 ] final  150.59 input  -60.11 | X-H torsion
[ 7974 7965 7964 7962 ] final  160.23 input  175.53 | X-H torsion
[ 8008 7997 7996 7995 ] final  -13.90 input   59.86 | X-H torsion
[ 10167 10162 10161 10158 ] final  -56.67 input  -65.29 | X-H torsion
[ 10718 10713 10712 10709 ] final  -45.68 input   66.30 | X-H torsion
[ 10763 10752 10751 10750 ] final  159.38 input  -60.55 | X-H torsion
[ 11005 11000 10999 10996 ] final -101.50 input  -57.11 | X-H torsion

> <Gold.Protein.ActiveResidues>
 VAL166  LYS551  ARG553  GLY616  TRP617  ASP618  TYR619  PRO620  LYS621  CYS622 
 ASP623  PHE694  ASN695  SER759  ASP760  ASP761  ALA762  ILE779  LEU786  VAL792 
 PHE793  MET794  SER795  GLU796  ALA797  LYS798  CYS799  TRP800  GLU811  SER814 

> <Gold.Protein.RotatedAtoms>
  152.1123  133.4307  159.4636 H   0  0  0  0  0  0  0  0  0  0  0  0  # atno 6907 bound_to 6896
  150.6868  134.2633  159.4567 H   0  0  0  0  0  0  0  0  0  0  0  0  # atno 6908 bound_to 6896
  152.0503  134.9657  160.0625 H   0  0  0  0  0  0  0  0  0  0  0  0  # atno 6909 bound_to 6896
  144.7748  139.7728  143.6283 H   0  0  0  0  0  0  0  0  0  0  0  0  # atno 7974 bound_to 7965
  154.5254  140.2237  155.8899 H   0  0  0  0  0  0  0  0  0  0  0  0  # atno 8008 bound_to 7997
  156.1708  140.3122  155.8934 H   0  0  0  0  0  0  0  0  0  0  0  0  # atno 8009 bound_to 7997
  155.3562  140.0458  157.3037 H   0  0  0  0  0  0  0  0  0  0  0  0  # atno 8010 bound_to 7997
  140.6304  143.2456  151.5257 H   0  0  0  0  0  0  0  0  0  0  0  0  # atno 10167 bound_to 10162
  156.2259  130.4169  149.8934 H   0  0  0  0  0  0  0  0  0  0  0  0  # atno 10718 bound_to 10713
  154.2309  135.2778  155.2890 H   0  0  0  0  0  0  0  0  0  0  0  0  # atno 10763 bound_to 10752
  154.5625  135.5643  153.7023 H   0  0  0  0  0  0  0  0  0  0  0  0  # atno 10764 bound_to 10752
  153.0020  135.6301  154.2451 H   0  0  0  0  0  0  0  0  0  0  0  0  # atno 10765 bound_to 10752
  141.1228  133.8483  157.1240 H   0  0  0  0  0  0  0  0  0  0  0  0  # atno 11005 bound_to 11000
  146.1920  139.5165  142.9799 LP  0  0  0  0  0  0  0  0  0  0  0  0  # atno 17320 bound_to 7965
  145.6218  141.0321  143.1911 LP  0  0  0  0  0  0  0  0  0  0  0  0  # atno 17321 bound_to 7965
  139.5518  144.2375  152.1544 LP  0  0  0  0  0  0  0  0  0  0  0  0  # atno 17342 bound_to 10162
  140.1617  144.5019  150.6629 LP  0  0  0  0  0  0  0  0  0  0  0  0  # atno 17343 bound_to 10162
  156.6565  130.8764  151.3540 LP  0  0  0  0  0  0  0  0  0  0  0  0  # atno 17370 bound_to 10713
  157.7110  130.9441  150.1090 LP  0  0  0  0  0  0  0  0  0  0  0  0  # atno 17371 bound_to 10713
  140.0200  134.9950  157.0572 LP  0  0  0  0  0  0  0  0  0  0  0  0  # atno 17394 bound_to 11000
  140.4456  134.1636  155.7177 LP  0  0  0  0  0  0  0  0  0  0  0  0  # atno 17395 bound_to 11000

$$$$
