AV-unprocessed.smi:3303|AV-procd|sdf|12694|dock4
  -GOLD-   2272019 23D 1   1.00000     0.00000
 Structure written by MMmdl.
 44 45  0  0  0  0  0  0  0  0  2 V2000
  147.2266  141.9495  154.1024 C   0  0  0  0  0  0  0  0  0  0  0  0
  148.0241  140.7299  154.5966 C   0  0  1  0  0  0  0  0  0  0  0  0
  147.9476  139.5958  153.5483 C   0  0  0  0  0  0  0  0  0  0  0  0
  148.7248  138.3938  153.9456 N   0  3  2  0  0  0  0  0  0  0  0  0
  148.0626  137.6046  155.0154 C   0  0  0  0  0  0  0  0  0  0  0  0
  150.1576  138.7275  154.1864 C   0  0  2  0  0  0  0  0  0  0  0  0
  151.0213  137.4888  154.4810 C   0  0  0  0  0  0  0  0  0  0  0  0
  150.3014  139.8152  155.2681 C   0  0  0  0  0  0  0  0  0  0  0  0
  149.4994  141.0808  154.9094 C   0  0  2  0  0  0  0  0  0  0  0  0
  149.5671  141.9752  156.0591 N   0  0  0  0  0  0  0  0  0  0  0  0
  150.9451  142.2743  156.4184 C   0  0  0  0  0  0  0  0  0  0  0  0
  151.2574  141.6778  157.7975 C   0  0  0  0  0  0  0  0  0  0  0  0
  151.5370  142.7481  158.8355 C   0  0  0  0  0  0  0  0  0  0  0  0
  152.0211  142.4019  160.1151 C   0  0  0  0  0  0  0  0  0  0  0  0
  152.2622  143.4337  161.0429 C   0  0  0  0  0  0  0  0  0  0  0  0
  152.0102  144.7648  160.6584 C   0  0  0  0  0  0  0  0  0  0  0  0
  151.5264  145.0057  159.3569 C   0  0  0  0  0  0  0  0  0  0  0  0
  151.2918  144.0238  158.4595 N   0  0  0  0  0  0  0  0  0  0  0  0
  147.6732  142.3780  153.2045 H   0  0  0  0  0  0  0  0  0  0  0  0
  147.1823  142.7328  154.8591 H   0  0  0  0  0  0  0  0  0  0  0  0
  146.1986  141.6753  153.8637 H   0  0  0  0  0  0  0  0  0  0  0  0
  147.5482  140.3780  155.5132 H   0  0  0  0  0  0  0  0  0  0  0  0
  146.9099  139.3155  153.3629 H   0  0  0  0  0  0  0  0  0  0  0  0
  148.3374  139.9534  152.5941 H   0  0  0  0  0  0  0  0  0  0  0  0
  148.0771  138.1201  155.9753 H   0  0  0  0  0  0  0  0  0  0  0  0
  148.5387  136.6330  155.1436 H   0  0  0  0  0  0  0  0  0  0  0  0
  147.0213  137.4120  154.7561 H   0  0  0  0  0  0  0  0  0  0  0  0
  150.5323  139.1461  153.2507 H   0  0  0  0  0  0  0  0  0  0  0  0
  152.0792  137.7526  154.4950 H   0  0  0  0  0  0  0  0  0  0  0  0
  150.8861  136.7214  153.7182 H   0  0  0  0  0  0  0  0  0  0  0  0
  150.7886  137.0484  155.4507 H   0  0  0  0  0  0  0  0  0  0  0  0
  149.9791  139.4226  156.2337 H   0  0  0  0  0  0  0  0  0  0  0  0
  151.3544  140.0748  155.3856 H   0  0  0  0  0  0  0  0  0  0  0  0
  149.9540  141.5393  154.0289 H   0  0  0  0  0  0  0  0  0  0  0  0
  149.1061  141.5481  156.8502 H   0  0  0  0  0  0  0  0  0  0  0  0
  151.6165  141.8548  155.6678 H   0  0  0  0  0  0  0  0  0  0  0  0
  151.1005  143.3538  156.4324 H   0  0  0  0  0  0  0  0  0  0  0  0
  150.4232  141.0614  158.1353 H   0  0  0  0  0  0  0  0  0  0  0  0
  152.1225  141.0158  157.7342 H   0  0  0  0  0  0  0  0  0  0  0  0
  152.2036  141.3712  160.3815 H   0  0  0  0  0  0  0  0  0  0  0  0
  152.6337  143.2081  162.0315 H   0  0  0  0  0  0  0  0  0  0  0  0
  152.1829  145.5811  161.3439 H   0  0  0  0  0  0  0  0  0  0  0  0
  151.3224  146.0139  159.0283 H   0  0  0  0  0  0  0  0  0  0  0  0
  148.7168  137.7894  153.1362 H   0  0  0  0  0  0  0  0  0  0  0  0
  1  2  1  0  0  0  0
  1 19  1  0  0  0  0
  1 20  1  0  0  0  0
  1 21  1  0  0  0  0
  2  9  1  0  0  0  0
  2  3  1  0  0  0  0
  2 22  1  0  0  0  0
  3  4  1  0  0  0  0
  3 23  1  0  0  0  0
  3 24  1  0  0  0  0
  4  5  1  0  0  0  0
  4  6  1  0  0  0  0
  4 44  1  0  0  0  0
  5 25  1  0  0  0  0
  5 26  1  0  0  0  0
  5 27  1  0  0  0  0
  6  7  1  0  0  0  0
  6  8  1  0  0  0  0
  6 28  1  0  0  0  0
  7 29  1  0  0  0  0
  7 30  1  0  0  0  0
  7 31  1  0  0  0  0
  8  9  1  0  0  0  0
  8 32  1  0  0  0  0
  8 33  1  0  0  0  0
  9 10  1  0  0  0  0
  9 34  1  0  0  0  0
 10 11  1  0  0  0  0
 10 35  1  0  0  0  0
 11 12  1  0  0  0  0
 11 36  1  0  0  0  0
 11 37  1  0  0  0  0
 12 13  1  0  0  0  0
 12 38  1  0  0  0  0
 12 39  1  0  0  0  0
 13 18  1  0  0  0  0
 13 14  2  0  0  0  0
 14 15  1  0  0  0  0
 14 40  1  0  0  0  0
 15 16  2  0  0  0  0
 15 41  1  0  0  0  0
 16 17  1  0  0  0  0
 16 42  1  0  0  0  0
 17 18  2  0  0  0  0
 17 43  1  0  0  0  0
M  CHG  1   4   1
M  END
> <s_m_source_file>
AV-unprocessed.smi

> <i_m_source_file_index>
3303

> <i_lp_mmshare_version>
43012

> <i_f3d_flags>
0

> <s_epik_input>
W0NIM11bQ0BASF0xW0NIMl1OKFtDSDNdKVtDQEBIXShbQ0gzXSlbQ0gyXVtDQEhdMVtOSF1bQ0gyXVtDSDJdYzJbY0hdW2NIXVtjSF1bY0hdbjI=

> <s_epik_cmdline>
J2VwaWtfcHl0aG9uJywgJy1waCcsICc3LjAnLCAnLXRuJywgJzgnLCAnLW1hJywgJzIwMCcsICctbWV0YWxfYmluZGluZycsICctaW1hZScsICc8aW5maWxlLm1hZT4nLCAnLW9tYWUnLCAnPG91dGZpbGUubWFlPic=

> <r_epik_Ionization_Penalty>
2.31085

> <r_epik_Ionization_Penalty_Charging>
0.000313057

> <r_epik_Ionization_Penalty_Neutral>
2.31054

> <r_epik_State_Penalty>
2.4087

> <r_epik_Charging_Adjusted_Penalty>
2.40902

> <i_epik_Tot_Q>
1

> <i_epik_Tot_abs_Q>
1

> <r_epik_Metal_State_Penalty>
2.30979

> <b_epik_Metal_Only>
0

> <s_lp_Force_Field>
OPLS_2005

> <r_lp_Energy>
26.2858

> <b_lp_Chiralities_Consistent>
1

> <s_lp_Variant>
AV-unprocessed.smi:3303-38

> <Gold.Version>
5.8.1

> <Gold.Id.Protein>
6NUR|6NUR_protein|mol2

> <Gold.PLP.Fitness>
46.7858

> <Gold.PLP.PLP>
-42.4042

> <Gold.PLP.part.hbond>
-2.0389

> <Gold.PLP.part.metal>
0.0000

> <Gold.PLP.part.buried>
-4.4874

> <Gold.PLP.part.nonpolar>
-35.8754

> <Gold.PLP.part.repulsive>
0.1356

> <Gold.PLP.ligand.clash>
0.0000

> <Gold.PLP.ligand.torsion>
0.8118

> <Gold.PLP.Chemscore.Hbond>
2.0000

> <Gold.PLP.Chemscore.CHOScore>
0.0000

> <Gold.PLP.Chemscore.Metal>
0.0000

> <Gold.Chemscore.Hbonds>
donor molecule, donor type, donor heavy atom, donor atom, acceptor molecule, acceptor atom, score
      L1  H     4    44       P1  7948  2.00

> <Gold.PLP.Chemscore.Internal.Correction>
0.0051

> <Gold.Rescore>
     Score         DG    S(hbond)    S(metal)    S(lipo)     H(rot)  DE(clash)    DE(int)     intcor
     18.74     -19.55       0.96        0.00     121.83       1.33       0.05       0.75       ----

> <Gold.Chemscore.Fitness>
18.7412

> <Gold.Chemscore.DG>
-19.5453

> <Gold.Chemscore.ZeroCoef>
-5.4800

> <Gold.Chemscore.Hbond>
0.9607

> <Gold.Chemscore.Metal>
0.0000

> <Gold.Chemscore.Lipo>
121.8294

> <Gold.Chemscore.Internal_Hbond>
0.0000

> <Gold.Chemscore.DEClash>
0.0506

> <Gold.Chemscore.DEInternal>
0.7535

> <Gold.Chemscore.Rot>
1.3272

> <Gold.Chemscore.Internal.Correction>
   9.000000E+99

> <Gold.Chemscore.Hbonds>
donor molecule, donor type, donor heavy atom, donor atom, acceptor molecule, acceptor atom, score
      L1  H     4    44       P1  7948  0.95

> <Gold.Chemscore.Hbond.Weighted>
-3.2089

> <Gold.Chemscore.Metal.Weighted>
-0.0000

> <Gold.Chemscore.Lipo.Weighted>
-14.2540

> <Gold.Chemscore.Internal_Hbond.Weighted>
0.0000

> <Gold.Chemscore.DEClash.Weighted>
0.0506

> <Gold.Chemscore.DEInternal.Weighted>
0.7535

> <Gold.Chemscore.Rot.Weighted>
3.3976

> <Gold.Chemscore.Internal.Correction.Weighted>
   9.000000E+99

> <Gold.Protein.RotatedTorsions>
[ 6907 6896 6895 6894 ] final  -75.24 input  -60.11 | X-H torsion
[ 7974 7965 7964 7962 ] final  115.14 input  175.53 | X-H torsion
[ 8008 7997 7996 7995 ] final  -26.91 input   59.86 | X-H torsion
[ 10167 10162 10161 10158 ] final -132.74 input  -65.29 | X-H torsion
[ 10718 10713 10712 10709 ] final  -13.22 input   66.30 | X-H torsion
[ 10763 10752 10751 10750 ] final  -77.29 input  -60.55 | X-H torsion
[ 11005 11000 10999 10996 ] final  111.06 input  -57.11 | X-H torsion

> <Gold.Protein.ActiveResidues>
 VAL166  LYS551  ARG553  GLY616  TRP617  ASP618  TYR619  PRO620  LYS621  CYS622 
 ASP623  PHE694  ASN695  SER759  ASP760  ASP761  ALA762  ILE779  LEU786  VAL792 
 PHE793  MET794  SER795  GLU796  ALA797  LYS798  CYS799  TRP800  GLU811  SER814 

> <Gold.Protein.RotatedAtoms>
  150.7065  134.4750  159.5442 H   0  0  0  0  0  0  0  0  0  0  0  0  # atno 6907 bound_to 6896
  152.2398  134.8237  160.0471 H   0  0  0  0  0  0  0  0  0  0  0  0  # atno 6908 bound_to 6896
  151.9022  133.3506  159.3871 H   0  0  0  0  0  0  0  0  0  0  0  0  # atno 6909 bound_to 6896
  145.1957  139.2977  143.4344 H   0  0  0  0  0  0  0  0  0  0  0  0  # atno 7974 bound_to 7965
  154.4402  140.1886  156.0849 H   0  0  0  0  0  0  0  0  0  0  0  0  # atno 8008 bound_to 7997
  156.0410  140.3320  155.7217 H   0  0  0  0  0  0  0  0  0  0  0  0  # atno 8009 bound_to 7997
  155.5699  140.0611  157.2800 H   0  0  0  0  0  0  0  0  0  0  0  0  # atno 8010 bound_to 7997
  139.9054  143.6557  152.2586 H   0  0  0  0  0  0  0  0  0  0  0  0  # atno 10167 bound_to 10162
  156.6334  130.4908  149.6121 H   0  0  0  0  0  0  0  0  0  0  0  0  # atno 10718 bound_to 10713
  154.5110  135.5769  153.6604 H   0  0  0  0  0  0  0  0  0  0  0  0  # atno 10763 bound_to 10752
  152.9897  135.6158  154.2879 H   0  0  0  0  0  0  0  0  0  0  0  0  # atno 10764 bound_to 10752
  154.2794  135.2851  155.2683 H   0  0  0  0  0  0  0  0  0  0  0  0  # atno 10765 bound_to 10752
  139.8895  134.9499  156.6374 H   0  0  0  0  0  0  0  0  0  0  0  0  # atno 11005 bound_to 11000
  146.3427  140.2185  142.8591 LP  0  0  0  0  0  0  0  0  0  0  0  0  # atno 17320 bound_to 7965
  144.9997  140.8621  143.5289 LP  0  0  0  0  0  0  0  0  0  0  0  0  # atno 17321 bound_to 7965
  139.6988  144.7638  151.1309 LP  0  0  0  0  0  0  0  0  0  0  0  0  # atno 17342 bound_to 10162
  140.7697  143.5486  150.9230 LP  0  0  0  0  0  0  0  0  0  0  0  0  # atno 17343 bound_to 10162
  156.2217  130.6741  151.1374 LP  0  0  0  0  0  0  0  0  0  0  0  0  # atno 17370 bound_to 10713
  157.7193  131.0691  150.6201 LP  0  0  0  0  0  0  0  0  0  0  0  0  # atno 17371 bound_to 10713
  140.7620  133.8809  155.8425 LP  0  0  0  0  0  0  0  0  0  0  0  0  # atno 17394 bound_to 11000
  140.9914  134.1274  157.4404 LP  0  0  0  0  0  0  0  0  0  0  0  0  # atno 17395 bound_to 11000

$$$$
