AV-unprocessed.smi:771|AV-procd|sdf|3684|dock2
  -GOLD-   22720 1103D 1   1.00000     0.00000
 Structure written by MMmdl.
 41 42  0  0  0  0  0  0  0  0  3 V2000
  150.3395  136.3489  156.2592 O   0  0  0  0  0  0  0  0  0  0  0  0
  150.4297  136.4569  155.0353 C   0  0  0  0  0  0  0  0  0  0  0  0
  151.2177  137.6093  154.3958 C   0  0  0  0  0  0  0  0  0  0  0  0
  150.6336  138.9345  154.6615 N   0  0  0  0  0  0  0  0  0  0  0  0
  149.3661  139.1919  154.1031 C   0  0  0  0  0  0  0  0  0  0  0  0
  148.7274  140.3641  154.2855 C   0  0  0  0  0  0  0  0  0  0  0  0
  147.4236  140.6083  153.7088 N   0  3  0  0  0  0  0  0  0  0  0  0
  146.9295  139.7492  152.9858 O   0  0  0  0  0  0  0  0  0  0  0  0
  146.8505  141.6648  153.9587 O   0  5  0  0  0  0  0  0  0  0  0  0
  149.3909  141.3754  155.0853 C   0  0  0  0  0  0  0  0  0  0  0  0
  150.6012  141.1338  155.6264 C   0  0  0  0  0  0  0  0  0  0  0  0
  151.2915  139.8545  155.4316 C   0  0  0  0  0  0  0  0  0  0  0  0
  152.3927  139.6241  155.9314 O   0  0  0  0  0  0  0  0  0  0  0  0
  149.8575  135.5963  154.1801 N   0  0  0  0  0  0  0  0  0  0  0  0
  149.0441  134.4465  154.5643 C   0  0  0  0  0  0  0  0  0  0  0  0
  149.7363  133.0923  154.2707 C   0  0  1  0  0  0  0  0  0  0  0  0
  150.3650  132.4868  155.5480 C   0  0  0  0  0  0  0  0  0  0  0  0
  151.0321  131.1297  155.2780 C   0  0  0  0  0  0  0  0  0  0  0  0
  150.0392  130.1393  154.6559 C   0  0  0  0  0  0  0  0  0  0  0  0
  149.4288  130.7152  153.3711 C   0  0  0  0  0  0  0  0  0  0  0  0
  148.7585  132.0778  153.6276 C   0  0  2  0  0  0  0  0  0  0  0  0
  148.2855  132.5671  152.3886 O   0  0  0  0  0  0  0  0  0  0  0  0
  152.2512  137.5606  154.7430 H   0  0  0  0  0  0  0  0  0  0  0  0
  151.2733  137.4400  153.3190 H   0  0  0  0  0  0  0  0  0  0  0  0
  148.9554  138.3723  153.5306 H   0  0  0  0  0  0  0  0  0  0  0  0
  148.9222  142.3333  155.2573 H   0  0  0  0  0  0  0  0  0  0  0  0
  151.0767  141.9013  156.2195 H   0  0  0  0  0  0  0  0  0  0  0  0
  149.9861  135.7532  153.1908 H   0  0  0  0  0  0  0  0  0  0  0  0
  148.8293  134.5289  155.6301 H   0  0  0  0  0  0  0  0  0  0  0  0
  148.0816  134.5102  154.0544 H   0  0  0  0  0  0  0  0  0  0  0  0
  150.5442  133.2687  153.5586 H   0  0  0  0  0  0  0  0  0  0  0  0
  151.1089  133.1653  155.9662 H   0  0  0  0  0  0  0  0  0  0  0  0
  149.5960  132.3655  156.3122 H   0  0  0  0  0  0  0  0  0  0  0  0
  151.8827  131.2664  154.6088 H   0  0  0  0  0  0  0  0  0  0  0  0
  151.4316  130.7213  156.2068 H   0  0  0  0  0  0  0  0  0  0  0  0
  150.5399  129.1951  154.4405 H   0  0  0  0  0  0  0  0  0  0  0  0
  149.2467  129.9146  155.3711 H   0  0  0  0  0  0  0  0  0  0  0  0
  150.2121  130.8225  152.6189 H   0  0  0  0  0  0  0  0  0  0  0  0
  148.7025  130.0114  152.9626 H   0  0  0  0  0  0  0  0  0  0  0  0
  147.8985  131.9356  154.2836 H   0  0  0  0  0  0  0  0  0  0  0  0
  148.6556  132.0411  151.6960 H   0  0  0  0  0  0  0  0  0  0  0  0
  1  2  2  0  0  0  0
  2  3  1  0  0  0  0
  2 14  1  0  0  0  0
  3  4  1  0  0  0  0
  3 23  1  0  0  0  0
  3 24  1  0  0  0  0
  4 12  1  0  0  0  0
  4  5  1  0  0  0  0
  5  6  2  0  0  0  0
  5 25  1  0  0  0  0
  6  7  1  0  0  0  0
  6 10  1  0  0  0  0
  7  8  2  0  0  0  0
  7  9  1  0  0  0  0
 10 11  2  0  0  0  0
 10 26  1  0  0  0  0
 11 12  1  0  0  0  0
 11 27  1  0  0  0  0
 12 13  2  0  0  0  0
 14 15  1  0  0  0  0
 14 28  1  0  0  0  0
 15 16  1  0  0  0  0
 15 29  1  0  0  0  0
 15 30  1  0  0  0  0
 16 21  1  0  0  0  0
 16 17  1  0  0  0  0
 16 31  1  0  0  0  0
 17 18  1  0  0  0  0
 17 32  1  0  0  0  0
 17 33  1  0  0  0  0
 18 19  1  0  0  0  0
 18 34  1  0  0  0  0
 18 35  1  0  0  0  0
 19 20  1  0  0  0  0
 19 36  1  0  0  0  0
 19 37  1  0  0  0  0
 20 21  1  0  0  0  0
 20 38  1  0  0  0  0
 20 39  1  0  0  0  0
 21 22  1  0  0  0  0
 21 40  1  0  0  0  0
 22 41  1  0  0  0  0
M  CHG  1   7   1
M  CHG  1   9  -1
M  END
> <s_m_source_file>
AV-unprocessed.smi

> <i_m_source_file_index>
771

> <i_lp_mmshare_version>
43012

> <i_f3d_flags>
0

> <s_epik_input>
Tz1jMVtjSF1bY0hdYyhbTitdKD1PKVtPLV0pW2NIXW4xW0NIMl1DKD1PKVtOSF1bQ0gyXVtDQEBIXTJbQ0gyXVtDSDJdW0NIMl1bQ0gyXVtDQEhdMltPSF0=

> <s_epik_cmdline>
J2VwaWtfcHl0aG9uJywgJy1waCcsICc3LjAnLCAnLXRuJywgJzgnLCAnLW1hJywgJzIwMCcsICctbWV0YWxfYmluZGluZycsICctaW1hZScsICc8aW5maWxlLm1hZT4nLCAnLW9tYWUnLCAnPG91dGZpbGUubWFlPic=

> <r_lp_tautomer_probability>
1

> <r_epik_Ionization_Penalty>
3.77175e-07

> <r_epik_Ionization_Penalty_Charging>
7.70067e-11

> <r_epik_Ionization_Penalty_Neutral>
3.77098e-07

> <r_epik_State_Penalty>
-0

> <r_epik_Charging_Adjusted_Penalty>
7.70067e-11

> <i_epik_Tot_Q>
0

> <i_epik_Tot_abs_Q>
2

> <r_epik_Metal_State_Penalty>
-0

> <b_epik_Metal_Only>
0

> <s_lp_Force_Field>
OPLS_2005

> <r_lp_Energy>
22.9473

> <b_lp_Chiralities_Consistent>
1

> <s_lp_Variant>
AV-unprocessed.smi:771-4

> <Gold.Version>
5.8.1

> <Gold.Id.Protein>
6NUR|6NUR_protein|mol2

> <Gold.PLP.Fitness>
48.5316

> <Gold.PLP.PLP>
-41.2840

> <Gold.PLP.part.hbond>
-3.5893

> <Gold.PLP.part.metal>
0.0000

> <Gold.PLP.part.buried>
-2.4960

> <Gold.PLP.part.nonpolar>
-35.0646

> <Gold.PLP.part.repulsive>
0.6121

> <Gold.PLP.ligand.clash>
0.0000

> <Gold.PLP.ligand.torsion>
0.7063

> <Gold.PLP.Chemscore.Hbond>
2.1080

> <Gold.PLP.Chemscore.CHOScore>
0.7623

> <Gold.PLP.Chemscore.Metal>
0.0000

> <Gold.Chemscore.Hbonds>
donor molecule, donor type, donor heavy atom, donor atom, acceptor molecule, acceptor atom, score
      L1  H    14    28       P1  7948  0.11
      L1  H    22    41       P1 10747  1.00
      P1  H  7997  8009       L1    13  0.99
      L1  C     5    25       P1  7948  0.60

> <Gold.PLP.Chemscore.Internal.Correction>
0.0495

> <Gold.Rescore>
     Score         DG    S(hbond)    S(metal)    S(lipo)     H(rot)  DE(clash)    DE(int)     intcor
     13.45     -14.24       1.96        0.00      73.04       2.48       0.13       0.66       ----

> <Gold.Chemscore.Fitness>
13.4488

> <Gold.Chemscore.DG>
-14.2404

> <Gold.Chemscore.ZeroCoef>
-5.4800

> <Gold.Chemscore.Hbond>
1.9616

> <Gold.Chemscore.Metal>
0.0000

> <Gold.Chemscore.Lipo>
73.0388

> <Gold.Chemscore.Internal_Hbond>
0.0000

> <Gold.Chemscore.DEClash>
0.1338

> <Gold.Chemscore.DEInternal>
0.6578

> <Gold.Chemscore.Rot>
2.4753

> <Gold.Chemscore.Internal.Correction>
   9.000000E+99

> <Gold.Chemscore.Hbonds>
donor molecule, donor type, donor heavy atom, donor atom, acceptor molecule, acceptor atom, score
      L1  H    22    41       P1 10747  1.00
      P1  H  7997  8009       L1    13  0.92

> <Gold.Chemscore.Hbond.Weighted>
-6.5517

> <Gold.Chemscore.Metal.Weighted>
-0.0000

> <Gold.Chemscore.Lipo.Weighted>
-8.5455

> <Gold.Chemscore.Internal_Hbond.Weighted>
0.0000

> <Gold.Chemscore.DEClash.Weighted>
0.1338

> <Gold.Chemscore.DEInternal.Weighted>
0.6578

> <Gold.Chemscore.Rot.Weighted>
6.3369

> <Gold.Chemscore.Internal.Correction.Weighted>
   9.000000E+99

> <Gold.Protein.RotatedTorsions>
[ 6907 6896 6895 6894 ] final   72.88 input  -60.11 | X-H torsion
[ 7974 7965 7964 7962 ] final   12.39 input  175.53 | X-H torsion
[ 8008 7997 7996 7995 ] final -155.82 input   59.86 | X-H torsion
[ 10167 10162 10161 10158 ] final    6.08 input  -65.29 | X-H torsion
[ 10718 10713 10712 10709 ] final  122.41 input   66.30 | X-H torsion
[ 10763 10752 10751 10750 ] final   95.63 input  -60.55 | X-H torsion
[ 11005 11000 10999 10996 ] final -158.16 input  -57.11 | X-H torsion

> <Gold.Protein.ActiveResidues>
 VAL166  LYS551  ARG553  GLY616  TRP617  ASP618  TYR619  PRO620  LYS621  CYS622 
 ASP623  PHE694  ASN695  SER759  ASP760  ASP761  ALA762  ILE779  LEU786  VAL792 
 PHE793  MET794  SER795  GLU796  ALA797  LYS798  CYS799  TRP800  GLU811  SER814 

> <Gold.Protein.RotatedAtoms>
  152.4892  134.4506  159.9572 H   0  0  0  0  0  0  0  0  0  0  0  0  # atno 6907 bound_to 6896
  151.4496  133.3615  159.2801 H   0  0  0  0  0  0  0  0  0  0  0  0  # atno 6908 bound_to 6896
  150.9031  134.8468  159.7434 H   0  0  0  0  0  0  0  0  0  0  0  0  # atno 6909 bound_to 6896
  146.2352  139.9343  142.8492 H   0  0  0  0  0  0  0  0  0  0  0  0  # atno 7974 bound_to 7965
  155.7078  140.0774  157.2384 H   0  0  0  0  0  0  0  0  0  0  0  0  # atno 8008 bound_to 7997
  154.4063  140.1635  156.2315 H   0  0  0  0  0  0  0  0  0  0  0  0  # atno 8009 bound_to 7997
  155.9310  140.3391  155.6252 H   0  0  0  0  0  0  0  0  0  0  0  0  # atno 8010 bound_to 7997
  140.6447  143.7690  150.7481 H   0  0  0  0  0  0  0  0  0  0  0  0  # atno 10167 bound_to 10162
  157.5744  131.1080  150.8306 H   0  0  0  0  0  0  0  0  0  0  0  0  # atno 10718 bound_to 10713
  153.2555  135.4247  155.0841 H   0  0  0  0  0  0  0  0  0  0  0  0  # atno 10763 bound_to 10752
  154.8399  135.3436  154.6452 H   0  0  0  0  0  0  0  0  0  0  0  0  # atno 10764 bound_to 10752
  153.6873  135.7035  153.5157 H   0  0  0  0  0  0  0  0  0  0  0  0  # atno 10765 bound_to 10752
  140.6566  134.4393  157.5235 H   0  0  0  0  0  0  0  0  0  0  0  0  # atno 11005 bound_to 11000
  145.2014  140.9856  143.4154 LP  0  0  0  0  0  0  0  0  0  0  0  0  # atno 17320 bound_to 7965
  144.9771  139.3821  143.6280 LP  0  0  0  0  0  0  0  0  0  0  0  0  # atno 17321 bound_to 7965
  140.1328  143.4510  152.2243 LP  0  0  0  0  0  0  0  0  0  0  0  0  # atno 17342 bound_to 10162
  139.5657  144.7434  151.4028 LP  0  0  0  0  0  0  0  0  0  0  0  0  # atno 17343 bound_to 10162
  156.8769  130.5166  149.5293 LP  0  0  0  0  0  0  0  0  0  0  0  0  # atno 17370 bound_to 10713
  156.0789  130.5804  150.9526 LP  0  0  0  0  0  0  0  0  0  0  0  0  # atno 17371 bound_to 10713
  139.9027  134.8519  156.1829 LP  0  0  0  0  0  0  0  0  0  0  0  0  # atno 17394 bound_to 11000
  141.0496  133.6895  156.1748 LP  0  0  0  0  0  0  0  0  0  0  0  0  # atno 17395 bound_to 11000

$$$$
