AV-unprocessed.smi:689|AV-procd|sdf|3358|dock3
  -GOLD-   22720 0333D 1   1.00000     0.00000
 Structure written by MMmdl.
 33 34  0  0  0  0  0  0  0  0  2 V2000
  152.8066  138.8855  158.0950 C   0  0  0  0  0  0  0  0  0  0  0  0
  151.9308  139.1247  156.8985 C   0  0  0  0  0  0  0  0  0  0  0  0
  152.4448  139.6854  155.8164 N   0  0  0  0  0  0  0  0  0  0  0  0
  151.3996  139.7604  154.8906 O   0  0  0  0  0  0  0  0  0  0  0  0
  150.2846  139.2344  155.4582 C   0  0  0  0  0  0  0  0  0  0  0  0
  149.0523  139.2167  154.6191 C   0  0  0  0  0  0  0  0  0  0  0  0
  150.5494  138.8171  156.7335 C   0  0  0  0  0  0  0  0  0  0  0  0
  149.6123  138.1773  157.7271 C   0  0  0  0  0  0  0  0  0  0  0  0
  150.1063  136.7697  158.0750 C   0  0  0  0  0  0  0  0  0  0  0  0
  150.8426  136.1799  157.2840 O   0  0  0  0  0  0  0  0  0  0  0  0
  149.6484  136.3574  159.2785 N   0  5  0  0  0  0  0  0  0  0  0  0
  148.0921  136.5062  159.6876 S   0  0  0  0  0  0  0  0  0  0  0  0
  147.8971  137.3716  160.8614 O   0  0  0  0  0  0  0  0  0  0  0  0
  147.2231  136.7404  158.5238 O   0  0  0  0  0  0  0  0  0  0  0  0
  147.7274  134.7914  160.2582 C   0  0  0  0  0  0  0  0  0  0  0  0
  147.5599  134.7246  161.7636 C   0  0  0  0  0  0  0  0  0  0  0  0
  146.4131  133.9624  162.3874 C   0  0  0  0  0  0  0  0  0  0  0  0
  146.4358  135.4691  162.4486 C   0  0  0  0  0  0  0  0  0  0  0  0
  152.2745  139.1037  159.0208 H   0  0  0  0  0  0  0  0  0  0  0  0
  153.6991  139.5116  158.0732 H   0  0  0  0  0  0  0  0  0  0  0  0
  153.1310  137.8455  158.1366 H   0  0  0  0  0  0  0  0  0  0  0  0
  148.3954  138.3969  154.9096 H   0  0  0  0  0  0  0  0  0  0  0  0
  149.3004  139.0899  153.5651 H   0  0  0  0  0  0  0  0  0  0  0  0
  148.4987  140.1491  154.7282 H   0  0  0  0  0  0  0  0  0  0  0  0
  149.5139  138.7806  158.6313 H   0  0  0  0  0  0  0  0  0  0  0  0
  148.6040  138.0987  157.3191 H   0  0  0  0  0  0  0  0  0  0  0  0
  146.8194  134.4524  159.7591 H   0  0  0  0  0  0  0  0  0  0  0  0
  148.5465  134.1406  159.9533 H   0  0  0  0  0  0  0  0  0  0  0  0
  148.5038  134.7058  162.3052 H   0  0  0  0  0  0  0  0  0  0  0  0
  145.6877  133.4990  161.7215 H   0  0  0  0  0  0  0  0  0  0  0  0
  146.6146  133.4185  163.3080 H   0  0  0  0  0  0  0  0  0  0  0  0
  146.6542  135.9328  163.4084 H   0  0  0  0  0  0  0  0  0  0  0  0
  145.7251  136.0056  161.8231 H   0  0  0  0  0  0  0  0  0  0  0  0
  1  2  1  0  0  0  0
  1 19  1  0  0  0  0
  1 20  1  0  0  0  0
  1 21  1  0  0  0  0
  2  7  1  0  0  0  0
  2  3  2  0  0  0  0
  3  4  1  0  0  0  0
  4  5  1  0  0  0  0
  5  6  1  0  0  0  0
  5  7  2  0  0  0  0
  6 22  1  0  0  0  0
  6 23  1  0  0  0  0
  6 24  1  0  0  0  0
  7  8  1  0  0  0  0
  8  9  1  0  0  0  0
  8 25  1  0  0  0  0
  8 26  1  0  0  0  0
  9 10  2  0  0  0  0
  9 11  1  0  0  0  0
 11 12  1  0  0  0  0
 12 13  2  0  0  0  0
 12 14  2  0  0  0  0
 12 15  1  0  0  0  0
 15 16  1  0  0  0  0
 15 27  1  0  0  0  0
 15 28  1  0  0  0  0
 16 18  1  0  0  0  0
 16 17  1  0  0  0  0
 16 29  1  0  0  0  0
 17 18  1  0  0  0  0
 17 30  1  0  0  0  0
 17 31  1  0  0  0  0
 18 32  1  0  0  0  0
 18 33  1  0  0  0  0
M  CHG  1  11  -1
M  END
> <s_m_source_file>
AV-unprocessed.smi

> <i_m_source_file_index>
689

> <i_lp_mmshare_version>
43012

> <i_f3d_flags>
0

> <s_epik_input>
W0NIM11jMW5vYyhbQ0gzXSljMVtDSDJdQyg9TylbTkhdUyg9TykoPU8pW0NIMl1bQ0hdMltDSDJdW0NIMl0y

> <s_epik_cmdline>
J2VwaWtfcHl0aG9uJywgJy1waCcsICc3LjAnLCAnLXRuJywgJzgnLCAnLW1hJywgJzIwMCcsICctbWV0YWxfYmluZGluZycsICctaW1hZScsICc8aW5maWxlLm1hZT4nLCAnLW9tYWUnLCAnPG91dGZpbGUubWFlPic=

> <r_epik_Ionization_Penalty>
0.0117783

> <r_epik_Ionization_Penalty_Charging>
0.0117783

> <r_epik_Ionization_Penalty_Neutral>
2.69026e-10

> <r_epik_State_Penalty>
0.00908283

> <r_epik_Charging_Adjusted_Penalty>
0.0208612

> <i_epik_Tot_Q>
-1

> <i_epik_Tot_abs_Q>
1

> <r_epik_Metal_State_Penalty>
0.00890557

> <b_epik_Metal_Only>
0

> <s_lp_Force_Field>
OPLS_2005

> <r_lp_Energy>
1.25467

> <b_lp_Chiralities_Consistent>
1

> <s_lp_Variant>
AV-unprocessed.smi:689-1

> <Gold.Version>
5.8.1

> <Gold.Id.Protein>
6NUR|6NUR_protein|mol2

> <Gold.PLP.Fitness>
43.0116

> <Gold.PLP.PLP>
-28.2019

> <Gold.PLP.part.hbond>
-5.2778

> <Gold.PLP.part.metal>
0.0000

> <Gold.PLP.part.buried>
-3.2890

> <Gold.PLP.part.nonpolar>
-18.7519

> <Gold.PLP.part.repulsive>
0.0444

> <Gold.PLP.ligand.clash>
0.0000

> <Gold.PLP.ligand.torsion>
1.8015

> <Gold.PLP.Chemscore.Hbond>
5.6000

> <Gold.PLP.Chemscore.CHOScore>
0.0000

> <Gold.PLP.Chemscore.Metal>
0.0000

> <Gold.Chemscore.Hbonds>
donor molecule, donor type, donor heavy atom, donor atom, acceptor molecule, acceptor atom, score
      P1  H  6896  6909       L1    11  2.00
      P1  H  6931  6943       L1    13  0.78
      P1  H  6934  6947       L1    13  0.77
      P1  H  7989  7998       L1     4  1.00
      P1  H  7997  8008       L1     3  1.00

> <Gold.PLP.Chemscore.Internal.Correction>
1.6129

> <Gold.Rescore>
     Score         DG    S(hbond)    S(metal)    S(lipo)     H(rot)  DE(clash)    DE(int)     intcor
     17.64     -21.20       4.06        0.00      53.57       1.61       0.04       3.51       ----

> <Gold.Chemscore.Fitness>
17.6421

> <Gold.Chemscore.DG>
-21.1978

> <Gold.Chemscore.ZeroCoef>
-5.4800

> <Gold.Chemscore.Hbond>
4.0603

> <Gold.Chemscore.Metal>
0.0000

> <Gold.Chemscore.Lipo>
53.5653

> <Gold.Chemscore.Internal_Hbond>
0.0000

> <Gold.Chemscore.DEClash>
0.0442

> <Gold.Chemscore.DEInternal>
3.5114

> <Gold.Chemscore.Rot>
1.6058

> <Gold.Chemscore.Internal.Correction>
   9.000000E+99

> <Gold.Chemscore.Hbonds>
donor molecule, donor type, donor heavy atom, donor atom, acceptor molecule, acceptor atom, score
      P1  H  6896  6909       L1    11  0.34
      P1  H  6931  6943       L1    13  0.80
      P1  H  6934  6947       L1    13  0.76
      P1  H  7989  7998       L1     4  0.92
      P1  H  7997  8008       L1     3  0.63

> <Gold.Chemscore.Hbond.Weighted>
-13.5615

> <Gold.Chemscore.Metal.Weighted>
-0.0000

> <Gold.Chemscore.Lipo.Weighted>
-6.2671

> <Gold.Chemscore.Internal_Hbond.Weighted>
0.0000

> <Gold.Chemscore.DEClash.Weighted>
0.0442

> <Gold.Chemscore.DEInternal.Weighted>
3.5114

> <Gold.Chemscore.Rot.Weighted>
4.1108

> <Gold.Chemscore.Internal.Correction.Weighted>
   9.000000E+99

> <Gold.Protein.RotatedTorsions>
[ 6907 6896 6895 6894 ] final   82.27 input  -60.11 | X-H torsion
[ 7974 7965 7964 7962 ] final  110.67 input  175.53 | X-H torsion
[ 8008 7997 7996 7995 ] final  -35.46 input   59.86 | X-H torsion
[ 10167 10162 10161 10158 ] final  123.17 input  -65.29 | X-H torsion
[ 10718 10713 10712 10709 ] final  -72.98 input   66.30 | X-H torsion
[ 10763 10752 10751 10750 ] final -141.38 input  -60.55 | X-H torsion
[ 11005 11000 10999 10996 ] final  133.63 input  -57.11 | X-H torsion

> <Gold.Protein.ActiveResidues>
 VAL166  LYS551  ARG553  GLY616  TRP617  ASP618  TYR619  PRO620  LYS621  CYS622 
 ASP623  PHE694  ASN695  SER759  ASP760  ASP761  ALA762  ILE779  LEU786  VAL792 
 PHE793  MET794  SER795  GLU796  ALA797  LYS798  CYS799  TRP800  GLU811  SER814 

> <Gold.Protein.RotatedAtoms>
  152.5294  134.3075  159.9101 H   0  0  0  0  0  0  0  0  0  0  0  0  # atno 6907 bound_to 6896
  151.3025  133.4109  159.2648 H   0  0  0  0  0  0  0  0  0  0  0  0  # atno 6908 bound_to 6896
  151.0107  134.9410  159.8062 H   0  0  0  0  0  0  0  0  0  0  0  0  # atno 6909 bound_to 6896
  145.2520  139.2736  143.4062 H   0  0  0  0  0  0  0  0  0  0  0  0  # atno 7974 bound_to 7965
  154.4095  140.1656  156.2216 H   0  0  0  0  0  0  0  0  0  0  0  0  # atno 8008 bound_to 7997
  155.9359  140.3411  155.6264 H   0  0  0  0  0  0  0  0  0  0  0  0  # atno 8009 bound_to 7997
  155.7049  140.0749  157.2386 H   0  0  0  0  0  0  0  0  0  0  0  0  # atno 8010 bound_to 7997
  139.5815  144.6988  151.3517 H   0  0  0  0  0  0  0  0  0  0  0  0  # atno 10167 bound_to 10162
  156.0298  130.4384  150.2673 H   0  0  0  0  0  0  0  0  0  0  0  0  # atno 10718 bound_to 10713
  154.8547  135.3526  154.5858 H   0  0  0  0  0  0  0  0  0  0  0  0  # atno 10763 bound_to 10752
  153.6468  135.6996  153.5227 H   0  0  0  0  0  0  0  0  0  0  0  0  # atno 10764 bound_to 10752
  153.2926  135.4230  155.1139 H   0  0  0  0  0  0  0  0  0  0  0  0  # atno 10765 bound_to 10752
  139.9864  134.9531  156.9752 H   0  0  0  0  0  0  0  0  0  0  0  0  # atno 11005 bound_to 11000
  146.3300  140.2914  142.8615 LP  0  0  0  0  0  0  0  0  0  0  0  0  # atno 17320 bound_to 7965
  144.9494  140.8162  143.5581 LP  0  0  0  0  0  0  0  0  0  0  0  0  # atno 17321 bound_to 7965
  140.7092  143.7434  150.7537 LP  0  0  0  0  0  0  0  0  0  0  0  0  # atno 17342 bound_to 10162
  140.0967  143.4826  152.2448 LP  0  0  0  0  0  0  0  0  0  0  0  0  # atno 17343 bound_to 10162
  157.0776  131.0134  151.3168 LP  0  0  0  0  0  0  0  0  0  0  0  0  # atno 17370 bound_to 10713
  157.4952  130.7846  149.7548 LP  0  0  0  0  0  0  0  0  0  0  0  0  # atno 17371 bound_to 10713
  140.4995  134.1112  155.7248 LP  0  0  0  0  0  0  0  0  0  0  0  0  # atno 17394 bound_to 11000
  141.1528  133.8938  157.2055 LP  0  0  0  0  0  0  0  0  0  0  0  0  # atno 17395 bound_to 11000

$$$$
