AV-unprocessed.smi:2489|AV-procd|sdf|9801|dock1
  -GOLD-   2272013433D 1   1.00000     0.00000
 Structure written by MMmdl.
 33 34  0  0  0  0  0  0  0  0  1 V2000
  153.0312  142.4561  161.6077 C   0  0  0  0  0  0  0  0  0  0  0  0
  153.5422  142.4880  160.2826 O   0  0  0  0  0  0  0  0  0  0  0  0
  152.6588  142.7773  159.2682 C   0  0  0  0  0  0  0  0  0  0  0  0
  152.4020  144.1330  158.7882 C   0  0  0  0  0  0  0  0  0  0  0  0
  151.5205  144.2974  157.7908 C   0  0  0  0  0  0  0  0  0  0  0  0
  150.8542  143.2292  157.2082 N   0  0  0  0  0  0  0  0  0  0  0  0
  151.0520  141.8994  157.6207 C   0  0  0  0  0  0  0  0  0  0  0  0
  150.4595  140.8563  157.1160 N   0  0  0  0  0  0  0  0  0  0  0  0
  149.5406  140.9442  156.0735 C   0  0  0  0  0  0  0  0  0  0  0  0
  148.5483  141.6705  155.9646 O   0  0  0  0  0  0  0  0  0  0  0  0
  149.8820  139.9741  154.9344 C   0  0  2  0  0  0  0  0  0  0  0  0
  149.4786  138.5201  155.2374 C   0  0  0  0  0  0  0  0  0  0  0  0
  150.8059  137.8108  155.4181 C   0  0  0  0  0  0  0  0  0  0  0  0
  151.7208  138.6195  154.5060 C   0  0  2  0  0  0  0  0  0  0  0  0
  153.2128  138.4652  154.8192 C   0  0  0  0  0  0  0  0  0  0  0  0
  151.2970  139.9538  154.7390 O   0  0  0  0  0  0  0  0  0  0  0  0
  152.0098  141.7312  158.7050 C   0  0  0  0  0  0  0  0  0  0  0  0
  153.8407  142.2193  162.2979 H   0  0  0  0  0  0  0  0  0  0  0  0
  152.2661  141.6870  161.7238 H   0  0  0  0  0  0  0  0  0  0  0  0
  152.6218  143.4234  161.9026 H   0  0  0  0  0  0  0  0  0  0  0  0
  152.8913  144.9995  159.2061 H   0  0  0  0  0  0  0  0  0  0  0  0
  151.2695  145.2623  157.3760 H   0  0  0  0  0  0  0  0  0  0  0  0
  149.4075  140.3092  154.0105 H   0  0  0  0  0  0  0  0  0  0  0  0
  148.8371  138.4095  156.1131 H   0  0  0  0  0  0  0  0  0  0  0  0
  148.9432  138.1018  154.3842 H   0  0  0  0  0  0  0  0  0  0  0  0
  151.1320  137.8936  156.4559 H   0  0  0  0  0  0  0  0  0  0  0  0
  150.7649  136.7537  155.1547 H   0  0  0  0  0  0  0  0  0  0  0  0
  151.5248  138.3670  153.4624 H   0  0  0  0  0  0  0  0  0  0  0  0
  153.5380  137.4349  154.6737 H   0  0  0  0  0  0  0  0  0  0  0  0
  153.4309  138.7437  155.8507 H   0  0  0  0  0  0  0  0  0  0  0  0
  153.8141  139.1005  154.1686 H   0  0  0  0  0  0  0  0  0  0  0  0
  152.2313  140.7468  159.0923 H   0  0  0  0  0  0  0  0  0  0  0  0
  150.2082  143.4535  156.4645 H   0  0  0  0  0  0  0  0  0  0  0  0
  1  2  1  0  0  0  0
  1 18  1  0  0  0  0
  1 19  1  0  0  0  0
  1 20  1  0  0  0  0
  2  3  1  0  0  0  0
  3 17  2  0  0  0  0
  3  4  1  0  0  0  0
  4  5  2  0  0  0  0
  4 21  1  0  0  0  0
  5  6  1  0  0  0  0
  5 22  1  0  0  0  0
  6  7  1  0  0  0  0
  6 33  1  0  0  0  0
  7  8  2  0  0  0  0
  7 17  1  0  0  0  0
  8  9  1  0  0  0  0
  9 10  2  0  0  0  0
  9 11  1  0  0  0  0
 11 16  1  0  0  0  0
 11 12  1  0  0  0  0
 11 23  1  0  0  0  0
 12 13  1  0  0  0  0
 12 24  1  0  0  0  0
 12 25  1  0  0  0  0
 13 14  1  0  0  0  0
 13 26  1  0  0  0  0
 13 27  1  0  0  0  0
 14 15  1  0  0  0  0
 14 16  1  0  0  0  0
 14 28  1  0  0  0  0
 15 29  1  0  0  0  0
 15 30  1  0  0  0  0
 15 31  1  0  0  0  0
 17 32  1  0  0  0  0
M  END
> <s_m_source_file>
AV-unprocessed.smi

> <i_m_source_file_index>
2489

> <i_lp_mmshare_version>
43012

> <i_f3d_flags>
0

> <s_epik_input>
W0NIM11PYzFbY0hdW2NIXW5jKFtjSF0xKVtOSF1DKD1PKVtDQEBIXTJbQ0gyXVtDSDJdW0NASF0oTzIpW0NIM10=

> <s_epik_cmdline>
J2VwaWtfcHl0aG9uJywgJy1waCcsICc3LjAnLCAnLXRuJywgJzgnLCAnLW1hJywgJzIwMCcsICctbWV0YWxfYmluZGluZycsICctaW1hZScsICc8aW5maWxlLm1hZT4nLCAnLW9tYWUnLCAnPG91dGZpbGUubWFlPic=

> <r_epik_Ionization_Penalty>
0.410206

> <r_epik_Ionization_Penalty_Charging>
0.410206

> <r_epik_Ionization_Penalty_Neutral>
6.57528e-13

> <r_epik_State_Penalty>
1.30987

> <r_epik_Charging_Adjusted_Penalty>
1.72007

> <i_epik_Tot_Q>
0

> <i_epik_Tot_abs_Q>
0

> <r_epik_Metal_State_Penalty>
1.32171

> <b_epik_Metal_Only>
0

> <s_lp_Force_Field>
OPLS_2005

> <r_lp_Energy>
35.4329

> <b_lp_Chiralities_Consistent>
1

> <s_lp_Variant>
AV-unprocessed.smi:2489-7

> <Gold.Version>
5.8.1

> <Gold.Id.Protein>
6NUR|6NUR_protein|mol2

> <Gold.PLP.Fitness>
40.7098

> <Gold.PLP.PLP>
-37.5609

> <Gold.PLP.part.hbond>
-1.9695

> <Gold.PLP.part.metal>
0.0000

> <Gold.PLP.part.buried>
-6.4931

> <Gold.PLP.part.nonpolar>
-30.9197

> <Gold.PLP.part.repulsive>
0.8309

> <Gold.PLP.ligand.clash>
0.0000

> <Gold.PLP.ligand.torsion>
1.3455

> <Gold.PLP.Chemscore.Hbond>
1.9440

> <Gold.PLP.Chemscore.CHOScore>
0.0000

> <Gold.PLP.Chemscore.Metal>
0.0000

> <Gold.Chemscore.Hbonds>
donor molecule, donor type, donor heavy atom, donor atom, acceptor molecule, acceptor atom, score
      L1  H     6    33       P1  8028  0.98
      P1  H  7989  7998       L1    16  1.00

> <Gold.PLP.Chemscore.Internal.Correction>
0.0079

> <Gold.Rescore>
     Score         DG    S(hbond)    S(metal)    S(lipo)     H(rot)  DE(clash)    DE(int)     intcor
     16.48     -18.63       1.63        0.00      92.82       1.23       0.03       2.12       ----

> <Gold.Chemscore.Fitness>
16.4846

> <Gold.Chemscore.DG>
-18.6327

> <Gold.Chemscore.ZeroCoef>
-5.4800

> <Gold.Chemscore.Hbond>
1.6264

> <Gold.Chemscore.Metal>
0.0000

> <Gold.Chemscore.Lipo>
92.8204

> <Gold.Chemscore.Internal_Hbond>
0.0000

> <Gold.Chemscore.DEClash>
0.0265

> <Gold.Chemscore.DEInternal>
2.1216

> <Gold.Chemscore.Rot>
1.2264

> <Gold.Chemscore.Internal.Correction>
   9.000000E+99

> <Gold.Chemscore.Hbonds>
donor molecule, donor type, donor heavy atom, donor atom, acceptor molecule, acceptor atom, score
      L1  H     6    33       P1  8028  0.90
      P1  H  7989  7998       L1    16  0.51

> <Gold.Chemscore.Hbond.Weighted>
-5.4323

> <Gold.Chemscore.Metal.Weighted>
-0.0000

> <Gold.Chemscore.Lipo.Weighted>
-10.8600

> <Gold.Chemscore.Internal_Hbond.Weighted>
0.0000

> <Gold.Chemscore.DEClash.Weighted>
0.0265

> <Gold.Chemscore.DEInternal.Weighted>
2.1216

> <Gold.Chemscore.Rot.Weighted>
3.1396

> <Gold.Chemscore.Internal.Correction.Weighted>
   9.000000E+99

> <Gold.Protein.RotatedTorsions>
[ 6907 6896 6895 6894 ] final   74.13 input  -60.11 | X-H torsion
[ 7974 7965 7964 7962 ] final  -43.77 input  175.53 | X-H torsion
[ 8008 7997 7996 7995 ] final -110.21 input   59.86 | X-H torsion
[ 10167 10162 10161 10158 ] final  -20.09 input  -65.29 | X-H torsion
[ 10718 10713 10712 10709 ] final  134.91 input   66.30 | X-H torsion
[ 10763 10752 10751 10750 ] final  -53.69 input  -60.55 | X-H torsion
[ 11005 11000 10999 10996 ] final -105.56 input  -57.11 | X-H torsion

> <Gold.Protein.ActiveResidues>
 VAL166  LYS551  ARG553  GLY616  TRP617  ASP618  TYR619  PRO620  LYS621  CYS622 
 ASP623  PHE694  ASN695  SER759  ASP760  ASP761  ALA762  ILE779  LEU786  VAL792 
 PHE793  MET794  SER795  GLU796  ALA797  LYS798  CYS799  TRP800  GLU811  SER814 

> <Gold.Protein.RotatedAtoms>
  152.4960  134.4317  159.9514 H   0  0  0  0  0  0  0  0  0  0  0  0  # atno 6907 bound_to 6896
  151.4296  133.3668  159.2775 H   0  0  0  0  0  0  0  0  0  0  0  0  # atno 6908 bound_to 6896
  150.9164  134.8605  159.7519 H   0  0  0  0  0  0  0  0  0  0  0  0  # atno 6909 bound_to 6896
  145.9986  140.7100  142.9281 H   0  0  0  0  0  0  0  0  0  0  0  0  # atno 7974 bound_to 7965
  154.9711  140.0397  157.2234 H   0  0  0  0  0  0  0  0  0  0  0  0  # atno 8008 bound_to 7997
  154.7800  140.2817  155.6048 H   0  0  0  0  0  0  0  0  0  0  0  0  # atno 8009 bound_to 7997
  156.2935  140.2593  156.2624 H   0  0  0  0  0  0  0  0  0  0  0  0  # atno 8010 bound_to 7997
  140.7273  143.4755  151.0188 H   0  0  0  0  0  0  0  0  0  0  0  0  # atno 10167 bound_to 10162
  157.4624  131.1074  150.9903 H   0  0  0  0  0  0  0  0  0  0  0  0  # atno 10718 bound_to 10713
  154.1628  135.6472  153.4990 H   0  0  0  0  0  0  0  0  0  0  0  0  # atno 10763 bound_to 10752
  153.0105  135.5365  154.6693 H   0  0  0  0  0  0  0  0  0  0  0  0  # atno 10764 bound_to 10752
  154.6011  135.2944  155.0506 H   0  0  0  0  0  0  0  0  0  0  0  0  # atno 10765 bound_to 10752
  141.1048  133.8818  157.1749 H   0  0  0  0  0  0  0  0  0  0  0  0  # atno 11005 bound_to 11000
  144.6912  140.3194  143.7235 LP  0  0  0  0  0  0  0  0  0  0  0  0  # atno 17320 bound_to 7965
  145.7522  139.1797  143.2315 LP  0  0  0  0  0  0  0  0  0  0  0  0  # atno 17321 bound_to 7965
  139.8450  143.7513  152.3179 LP  0  0  0  0  0  0  0  0  0  0  0  0  # atno 17342 bound_to 10162
  139.7675  144.7487  151.0273 LP  0  0  0  0  0  0  0  0  0  0  0  0  # atno 17343 bound_to 10162
  157.0696  130.5858  149.5400 LP  0  0  0  0  0  0  0  0  0  0  0  0  # atno 17370 bound_to 10713
  156.0035  130.5118  150.7747 LP  0  0  0  0  0  0  0  0  0  0  0  0  # atno 17371 bound_to 10713
  139.9913  135.0063  156.9981 LP  0  0  0  0  0  0  0  0  0  0  0  0  # atno 17394 bound_to 11000
  140.4931  134.1173  155.7236 LP  0  0  0  0  0  0  0  0  0  0  0  0  # atno 17395 bound_to 11000

$$$$
