AV-unprocessed.smi:1674|AV-procd|sdf|6713|dock8
  -GOLD-   22720 7453D 1   1.00000     0.00000
 Structure written by MMmdl.
 47 48  0  0  0  0  0  0  0  0  1 V2000
  146.1363  136.4724  155.6039 C   0  0  0  0  0  0  0  0  0  0  0  0
  147.6280  136.2754  155.6317 C   0  0  0  0  0  0  0  0  0  0  0  0
  148.3470  137.2245  155.1298 N   0  0  0  0  0  0  0  0  0  0  0  0
  149.7248  137.1430  155.0920 N   0  0  0  0  0  0  0  0  0  0  0  0
  150.3569  138.2978  154.4349 C   0  0  0  0  0  0  0  0  0  0  0  0
  149.7394  139.6697  154.8195 C   0  0  2  0  0  0  0  0  0  0  0  0
  149.6253  140.4682  153.6576 O   0  0  0  0  0  0  0  0  0  0  0  0
  150.4240  140.3877  155.9790 C   0  0  0  0  0  0  0  0  0  0  0  0
  150.6466  141.7788  155.9027 C   0  0  0  0  0  0  0  0  0  0  0  0
  151.2502  142.4634  156.9747 C   0  0  0  0  0  0  0  0  0  0  0  0
  151.6404  141.7621  158.1342 C   0  0  0  0  0  0  0  0  0  0  0  0
  152.2905  142.4976  159.2937 C   0  0  0  0  0  0  0  0  0  0  0  0
  151.6570  143.8740  159.5840 C   0  0  0  0  0  0  0  0  0  0  0  0
  152.1426  144.9226  158.5720 C   0  0  0  0  0  0  0  0  0  0  0  0
  151.9126  144.3470  161.0253 C   0  0  0  0  0  0  0  0  0  0  0  0
  151.4199  140.3717  158.2139 C   0  0  0  0  0  0  0  0  0  0  0  0
  150.8168  139.6874  157.1418 C   0  0  0  0  0  0  0  0  0  0  0  0
  150.4532  136.0992  155.5856 C   0  0  0  0  0  0  0  0  0  0  0  0
  151.6838  136.0653  155.5407 O   0  0  0  0  0  0  0  0  0  0  0  0
  149.6322  135.0271  156.1527 C   0  0  0  0  0  0  0  0  0  0  0  0
  150.3547  133.9060  156.6609 C   0  0  0  0  0  0  0  0  0  0  0  0
  150.9328  132.9847  157.0576 N   0  0  0  0  0  0  0  0  0  0  0  0
  148.2778  135.0920  156.1850 C   0  0  0  0  0  0  0  0  0  0  0  0
  147.3816  134.0041  156.7606 C   0  0  0  0  0  0  0  0  0  0  0  0
  145.7412  136.5700  156.6150 H   0  0  0  0  0  0  0  0  0  0  0  0
  145.6408  135.6270  155.1263 H   0  0  0  0  0  0  0  0  0  0  0  0
  145.8551  137.3704  155.0513 H   0  0  0  0  0  0  0  0  0  0  0  0
  151.4340  138.2933  154.6136 H   0  0  0  0  0  0  0  0  0  0  0  0
  150.2731  138.1834  153.3531 H   0  0  0  0  0  0  0  0  0  0  0  0
  148.7074  139.4872  155.1223 H   0  0  0  0  0  0  0  0  0  0  0  0
  148.7605  140.8491  153.6410 H   0  0  0  0  0  0  0  0  0  0  0  0
  150.3431  142.3285  155.0237 H   0  0  0  0  0  0  0  0  0  0  0  0
  151.4120  143.5290  156.9034 H   0  0  0  0  0  0  0  0  0  0  0  0
  152.2524  141.8733  160.1877 H   0  0  0  0  0  0  0  0  0  0  0  0
  153.3487  142.6212  159.0593 H   0  0  0  0  0  0  0  0  0  0  0  0
  150.5777  143.7815  159.4540 H   0  0  0  0  0  0  0  0  0  0  0  0
  153.2213  145.0681  158.6387 H   0  0  0  0  0  0  0  0  0  0  0  0
  151.6659  145.8878  158.7454 H   0  0  0  0  0  0  0  0  0  0  0  0
  151.9094  144.6212  157.5503 H   0  0  0  0  0  0  0  0  0  0  0  0
  152.9803  144.4288  161.2316 H   0  0  0  0  0  0  0  0  0  0  0  0
  151.4838  143.6600  161.7551 H   0  0  0  0  0  0  0  0  0  0  0  0
  151.4640  145.3250  161.2017 H   0  0  0  0  0  0  0  0  0  0  0  0
  151.7115  139.8266  159.0996 H   0  0  0  0  0  0  0  0  0  0  0  0
  150.6441  138.6243  157.2237 H   0  0  0  0  0  0  0  0  0  0  0  0
  147.9529  133.2132  157.2456 H   0  0  0  0  0  0  0  0  0  0  0  0
  146.7868  133.5452  155.9703 H   0  0  0  0  0  0  0  0  0  0  0  0
  146.7027  134.4175  157.5072 H   0  0  0  0  0  0  0  0  0  0  0  0
  1  2  1  0  0  0  0
  1 25  1  0  0  0  0
  1 26  1  0  0  0  0
  1 27  1  0  0  0  0
  2 23  1  0  0  0  0
  2  3  2  0  0  0  0
  3  4  1  0  0  0  0
  4  5  1  0  0  0  0
  4 18  1  0  0  0  0
  5  6  1  0  0  0  0
  5 28  1  0  0  0  0
  5 29  1  0  0  0  0
  6  7  1  0  0  0  0
  6  8  1  0  0  0  0
  6 30  1  0  0  0  0
  7 31  1  0  0  0  0
  8 17  1  0  0  0  0
  8  9  2  0  0  0  0
  9 10  1  0  0  0  0
  9 32  1  0  0  0  0
 10 11  2  0  0  0  0
 10 33  1  0  0  0  0
 11 12  1  0  0  0  0
 11 16  1  0  0  0  0
 12 13  1  0  0  0  0
 12 34  1  0  0  0  0
 12 35  1  0  0  0  0
 13 14  1  0  0  0  0
 13 15  1  0  0  0  0
 13 36  1  0  0  0  0
 14 37  1  0  0  0  0
 14 38  1  0  0  0  0
 14 39  1  0  0  0  0
 15 40  1  0  0  0  0
 15 41  1  0  0  0  0
 15 42  1  0  0  0  0
 16 17  2  0  0  0  0
 16 43  1  0  0  0  0
 17 44  1  0  0  0  0
 18 19  2  0  0  0  0
 18 20  1  0  0  0  0
 20 21  1  0  0  0  0
 20 23  2  0  0  0  0
 21 22  3  0  0  0  0
 23 24  1  0  0  0  0
 24 45  1  0  0  0  0
 24 46  1  0  0  0  0
 24 47  1  0  0  0  0
M  END
> <s_m_source_file>
AV-unprocessed.smi

> <i_m_source_file_index>
1674

> <i_lp_mmshare_version>
43012

> <i_f3d_flags>
0

> <s_epik_input>
TiNDYyhjMVtDSDNdKWMoPU8pbihuYzFbQ0gzXSlbQ0gyXVtDQEhdKFtPSF0pYzJbY0hdW2NIXWMoW2NIXVtjSF0yKVtDSDJdW0NIXShbQ0gzXSlbQ0gzXQ==

> <s_epik_cmdline>
J2VwaWtfcHl0aG9uJywgJy1waCcsICc3LjAnLCAnLXRuJywgJzgnLCAnLW1hJywgJzIwMCcsICctbWV0YWxfYmluZGluZycsICctaW1hZScsICc8aW5maWxlLm1hZT4nLCAnLW9tYWUnLCAnPG91dGZpbGUubWFlPic=

> <r_lp_tautomer_probability>
1

> <r_epik_Ionization_Penalty>
4.60566e-08

> <r_epik_Ionization_Penalty_Charging>
1.40848e-10

> <r_epik_Ionization_Penalty_Neutral>
4.59158e-08

> <r_epik_State_Penalty>
-0

> <r_epik_Charging_Adjusted_Penalty>
1.40848e-10

> <i_epik_Tot_Q>
0

> <i_epik_Tot_abs_Q>
0

> <r_epik_Metal_State_Penalty>
-0

> <b_epik_Metal_Only>
0

> <s_lp_Force_Field>
OPLS_2005

> <r_lp_Energy>
29.2193

> <b_lp_Chiralities_Consistent>
1

> <s_lp_Variant>
AV-unprocessed.smi:1674-1

> <Gold.Version>
5.8.1

> <Gold.Id.Protein>
6NUR|6NUR_protein|mol2

> <Gold.PLP.Fitness>
45.8983

> <Gold.PLP.PLP>
-41.2581

> <Gold.PLP.part.hbond>
-4.0000

> <Gold.PLP.part.metal>
0.0000

> <Gold.PLP.part.buried>
-7.4370

> <Gold.PLP.part.nonpolar>
-31.2774

> <Gold.PLP.part.repulsive>
0.1454

> <Gold.PLP.ligand.clash>
0.0000

> <Gold.PLP.ligand.torsion>
1.5759

> <Gold.PLP.Chemscore.Hbond>
2.5593

> <Gold.PLP.Chemscore.CHOScore>
0.0000

> <Gold.PLP.Chemscore.Metal>
0.0000

> <Gold.Chemscore.Hbonds>
donor molecule, donor type, donor heavy atom, donor atom, acceptor molecule, acceptor atom, score
      P1  H  6896  6908       L1    22  0.55
      P1  H  7989  7998       L1     7  0.45
      P1  H 10752 10763       L1    19  1.00

> <Gold.PLP.Chemscore.Internal.Correction>
0.1140

> <Gold.Rescore>
     Score         DG    S(hbond)    S(metal)    S(lipo)     H(rot)  DE(clash)    DE(int)     intcor
     17.60     -20.20       2.29        0.00     107.01       2.13       0.07       2.52       ----

> <Gold.Chemscore.Fitness>
17.6039

> <Gold.Chemscore.DG>
-20.1994

> <Gold.Chemscore.ZeroCoef>
-5.4800

> <Gold.Chemscore.Hbond>
2.2910

> <Gold.Chemscore.Metal>
0.0000

> <Gold.Chemscore.Lipo>
107.0087

> <Gold.Chemscore.Internal_Hbond>
0.0000

> <Gold.Chemscore.DEClash>
0.0747

> <Gold.Chemscore.DEInternal>
2.5209

> <Gold.Chemscore.Rot>
2.1299

> <Gold.Chemscore.Internal.Correction>
   9.000000E+99

> <Gold.Chemscore.Hbonds>
donor molecule, donor type, donor heavy atom, donor atom, acceptor molecule, acceptor atom, score
      P1  H  6896  6908       L1    22  0.21
      P1  H  7989  7998       L1     7  0.07
      P1  H 10752 10763       L1    19  0.99

> <Gold.Chemscore.Hbond.Weighted>
-7.6521

> <Gold.Chemscore.Metal.Weighted>
-0.0000

> <Gold.Chemscore.Lipo.Weighted>
-12.5200

> <Gold.Chemscore.Internal_Hbond.Weighted>
0.0000

> <Gold.Chemscore.DEClash.Weighted>
0.0747

> <Gold.Chemscore.DEInternal.Weighted>
2.5209

> <Gold.Chemscore.Rot.Weighted>
5.4526

> <Gold.Chemscore.Internal.Correction.Weighted>
   9.000000E+99

> <Gold.Protein.RotatedTorsions>
[ 6907 6896 6895 6894 ] final   90.41 input  -60.11 | X-H torsion
[ 7974 7965 7964 7962 ] final -133.64 input  175.53 | X-H torsion
[ 8008 7997 7996 7995 ] final  137.90 input   59.86 | X-H torsion
[ 10167 10162 10161 10158 ] final  100.32 input  -65.29 | X-H torsion
[ 10718 10713 10712 10709 ] final   72.66 input   66.30 | X-H torsion
[ 10763 10752 10751 10750 ] final   81.82 input  -60.55 | X-H torsion
[ 11005 11000 10999 10996 ] final -153.24 input  -57.11 | X-H torsion

> <Gold.Protein.ActiveResidues>
 VAL166  LYS551  ARG553  GLY616  TRP617  ASP618  TYR619  PRO620  LYS621  CYS622 
 ASP623  PHE694  ASN695  SER759  ASP760  ASP761  ALA762  ILE779  LEU786  VAL792 
 PHE793  MET794  SER795  GLU796  ALA797  LYS798  CYS799  TRP800  GLU811  SER814 

> <Gold.Protein.RotatedAtoms>
  152.5444  134.1816  159.8637 H   0  0  0  0  0  0  0  0  0  0  0  0  # atno 6907 bound_to 6896
  151.1818  133.4713  159.2601 H   0  0  0  0  0  0  0  0  0  0  0  0  # atno 6908 bound_to 6896
  151.1170  135.0070  159.8576 H   0  0  0  0  0  0  0  0  0  0  0  0  # atno 6909 bound_to 6896
  144.9175  140.6972  143.4986 H   0  0  0  0  0  0  0  0  0  0  0  0  # atno 7974 bound_to 7965
  156.3000  140.2407  156.3986 H   0  0  0  0  0  0  0  0  0  0  0  0  # atno 8008 bound_to 7997
  154.8548  140.0422  157.1647 H   0  0  0  0  0  0  0  0  0  0  0  0  # atno 8009 bound_to 7997
  154.8960  140.2970  155.5348 H   0  0  0  0  0  0  0  0  0  0  0  0  # atno 8010 bound_to 7997
  139.7538  144.6976  151.0393 H   0  0  0  0  0  0  0  0  0  0  0  0  # atno 10167 bound_to 10162
  157.6512  130.9590  150.0960 H   0  0  0  0  0  0  0  0  0  0  0  0  # atno 10718 bound_to 10713
  153.1149  135.4751  154.9099 H   0  0  0  0  0  0  0  0  0  0  0  0  # atno 10763 bound_to 10752
  154.7518  135.3108  154.8545 H   0  0  0  0  0  0  0  0  0  0  0  0  # atno 10764 bound_to 10752
  153.9124  135.6863  153.4804 H   0  0  0  0  0  0  0  0  0  0  0  0  # atno 10765 bound_to 10752
  140.7103  134.3840  157.5198 H   0  0  0  0  0  0  0  0  0  0  0  0  # atno 11005 bound_to 11000
  145.3352  139.1748  143.4515 LP  0  0  0  0  0  0  0  0  0  0  0  0  # atno 17320 bound_to 7965
  146.3189  140.3386  142.8646 LP  0  0  0  0  0  0  0  0  0  0  0  0  # atno 17321 bound_to 7965
  140.7800  143.4777  151.0060 LP  0  0  0  0  0  0  0  0  0  0  0  0  # atno 17342 bound_to 10162
  139.8464  143.7495  152.3179 LP  0  0  0  0  0  0  0  0  0  0  0  0  # atno 17343 bound_to 10162
  156.1896  130.3654  149.8927 LP  0  0  0  0  0  0  0  0  0  0  0  0  # atno 17370 bound_to 10713
  156.6859  130.8876  151.3582 LP  0  0  0  0  0  0  0  0  0  0  0  0  # atno 17371 bound_to 10713
  139.8873  134.8885  156.2534 LP  0  0  0  0  0  0  0  0  0  0  0  0  # atno 17394 bound_to 11000
  141.0090  133.7107  156.1081 LP  0  0  0  0  0  0  0  0  0  0  0  0  # atno 17395 bound_to 11000

$$$$
