AV-unprocessed.smi:1050|AV-procd|sdf|4612|dock3
  -GOLD-   22720 3113D 1   1.00000     0.00000
 Structure written by MMmdl.
 48 49  0  0  0  0  0  0  0  0  1 V2000
  151.9705  144.5354  159.7609 C   0  0  0  0  0  0  0  0  0  0  0  0
  152.5554  143.5904  160.6507 O   0  0  0  0  0  0  0  0  0  0  0  0
  152.6432  142.2754  160.2421 C   0  0  0  0  0  0  0  0  0  0  0  0
  153.4755  141.3980  160.9600 C   0  0  0  0  0  0  0  0  0  0  0  0
  153.5652  140.0575  160.5444 C   0  0  0  0  0  0  0  0  0  0  0  0
  152.8099  139.6259  159.4270 C   0  0  0  0  0  0  0  0  0  0  0  0
  152.8706  138.2973  158.9147 N   0  0  0  0  0  0  0  0  0  0  0  0
  153.8696  137.3996  158.9950 C   0  0  0  0  0  0  0  0  0  0  0  0
  154.9510  137.6028  159.5464 O   0  0  0  0  0  0  0  0  0  0  0  0
  153.5866  136.0340  158.3459 C   0  0  2  0  0  0  0  0  0  0  0  0
  154.8452  135.1534  158.3089 C   0  0  0  0  0  0  0  0  0  0  0  0
  153.1381  136.2031  157.0036 O   0  0  0  0  0  0  0  0  0  0  0  0
  151.7348  136.3750  156.8486 C   0  0  0  0  0  0  0  0  0  0  0  0
  152.0078  140.5868  158.7561 C   0  0  0  0  0  0  0  0  0  0  0  0
  151.2382  140.2187  157.6353 N   0  0  0  0  0  0  0  0  0  0  0  0
  151.8524  140.4207  156.3216 C   0  0  0  0  0  0  0  0  0  0  0  0
  150.9902  139.7779  155.2200 C   0  0  0  0  0  0  0  0  0  0  0  0
  149.6298  140.3247  155.3104 N   0  0  0  0  0  0  0  0  0  0  0  0
  149.0517  141.1495  154.4052 C   0  0  0  0  0  0  0  0  0  0  0  0
  147.6513  141.7002  154.6829 C   0  0  0  0  0  0  0  0  0  0  0  0
  149.6062  141.4796  153.3571 O   0  0  0  0  0  0  0  0  0  0  0  0
  149.0052  139.9864  156.5962 C   0  0  0  0  0  0  0  0  0  0  0  0
  149.8323  140.6115  157.7368 C   0  0  0  0  0  0  0  0  0  0  0  0
  151.9297  141.8764  159.1626 N   0  0  0  0  0  0  0  0  0  0  0  0
  151.9723  145.5200  160.2279 H   0  0  0  0  0  0  0  0  0  0  0  0
  150.9349  144.2796  159.5321 H   0  0  0  0  0  0  0  0  0  0  0  0
  152.5350  144.6095  158.8300 H   0  0  0  0  0  0  0  0  0  0  0  0
  154.0414  141.7480  161.8108 H   0  0  0  0  0  0  0  0  0  0  0  0
  154.2254  139.3952  161.0818 H   0  0  0  0  0  0  0  0  0  0  0  0
  152.0143  137.9616  158.4975 H   0  0  0  0  0  0  0  0  0  0  0  0
  152.8219  135.5057  158.9190 H   0  0  0  0  0  0  0  0  0  0  0  0
  155.2486  134.9971  159.3101 H   0  0  0  0  0  0  0  0  0  0  0  0
  155.6304  135.5976  157.6956 H   0  0  0  0  0  0  0  0  0  0  0  0
  154.6178  134.1731  157.8896 H   0  0  0  0  0  0  0  0  0  0  0  0
  151.4920  136.4161  155.7869 H   0  0  0  0  0  0  0  0  0  0  0  0
  151.3809  137.3013  157.3021 H   0  0  0  0  0  0  0  0  0  0  0  0
  151.1854  135.5394  157.2839 H   0  0  0  0  0  0  0  0  0  0  0  0
  151.9624  141.4883  156.1251 H   0  0  0  0  0  0  0  0  0  0  0  0
  152.8524  139.9855  156.3142 H   0  0  0  0  0  0  0  0  0  0  0  0
  151.4611  139.9260  154.2494 H   0  0  0  0  0  0  0  0  0  0  0  0
  150.9491  138.6968  155.3627 H   0  0  0  0  0  0  0  0  0  0  0  0
  146.9328  140.8889  154.8044 H   0  0  0  0  0  0  0  0  0  0  0  0
  147.3115  142.3230  153.8547 H   0  0  0  0  0  0  0  0  0  0  0  0
  147.6498  142.3146  155.5836 H   0  0  0  0  0  0  0  0  0  0  0  0
  147.9694  140.3205  156.6666 H   0  0  0  0  0  0  0  0  0  0  0  0
  148.9765  138.9013  156.7057 H   0  0  0  0  0  0  0  0  0  0  0  0
  149.4176  140.3097  158.6986 H   0  0  0  0  0  0  0  0  0  0  0  0
  149.7649  141.6995  157.6923 H   0  0  0  0  0  0  0  0  0  0  0  0
  1  2  1  0  0  0  0
  1 25  1  0  0  0  0
  1 26  1  0  0  0  0
  1 27  1  0  0  0  0
  2  3  1  0  0  0  0
  3 24  1  0  0  0  0
  3  4  2  0  0  0  0
  4  5  1  0  0  0  0
  4 28  1  0  0  0  0
  5  6  2  0  0  0  0
  5 29  1  0  0  0  0
  6  7  1  0  0  0  0
  6 14  1  0  0  0  0
  7  8  1  0  0  0  0
  7 30  1  0  0  0  0
  8  9  2  0  0  0  0
  8 10  1  0  0  0  0
 10 11  1  0  0  0  0
 10 12  1  0  0  0  0
 10 31  1  0  0  0  0
 11 32  1  0  0  0  0
 11 33  1  0  0  0  0
 11 34  1  0  0  0  0
 12 13  1  0  0  0  0
 13 35  1  0  0  0  0
 13 36  1  0  0  0  0
 13 37  1  0  0  0  0
 14 15  1  0  0  0  0
 14 24  2  0  0  0  0
 15 23  1  0  0  0  0
 15 16  1  0  0  0  0
 16 17  1  0  0  0  0
 16 38  1  0  0  0  0
 16 39  1  0  0  0  0
 17 18  1  0  0  0  0
 17 40  1  0  0  0  0
 17 41  1  0  0  0  0
 18 19  1  0  0  0  0
 18 22  1  0  0  0  0
 19 20  1  0  0  0  0
 19 21  2  0  0  0  0
 20 42  1  0  0  0  0
 20 43  1  0  0  0  0
 20 44  1  0  0  0  0
 22 23  1  0  0  0  0
 22 45  1  0  0  0  0
 22 46  1  0  0  0  0
 23 47  1  0  0  0  0
 23 48  1  0  0  0  0
M  END
> <s_m_source_file>
AV-unprocessed.smi

> <i_m_source_file_index>
1050

> <i_lp_mmshare_version>
43012

> <i_f3d_flags>
0

> <s_epik_input>
W0NIM11PYzFbY0hdW2NIXWMoW05IXUMoPU8pW0NASF0oW0NIM10pT1tDSDNdKWMobjEpTjJbQ0gyXVtDSDJdTihDKD1PKVtDSDNdKVtDSDJdW0NIMl0y

> <s_epik_cmdline>
J2VwaWtfcHl0aG9uJywgJy1waCcsICc3LjAnLCAnLXRuJywgJzgnLCAnLW1hJywgJzIwMCcsICctbWV0YWxfYmluZGluZycsICctaW1hZScsICc8aW5maWxlLm1hZT4nLCAnLW9tYWUnLCAnPG91dGZpbGUubWFlPic=

> <r_lp_tautomer_probability>
1

> <r_epik_Ionization_Penalty>
0.000150604

> <r_epik_Ionization_Penalty_Charging>
0

> <r_epik_Ionization_Penalty_Neutral>
0.000150604

> <r_epik_State_Penalty>
-0

> <r_epik_Charging_Adjusted_Penalty>
0

> <i_epik_Tot_Q>
0

> <i_epik_Tot_abs_Q>
0

> <r_epik_Metal_State_Penalty>
-0

> <b_epik_Metal_Only>
0

> <s_lp_Force_Field>
OPLS_2005

> <r_lp_Energy>
41.1233

> <b_lp_Chiralities_Consistent>
1

> <s_lp_Variant>
AV-unprocessed.smi:1050-1

> <Gold.Version>
5.8.1

> <Gold.Id.Protein>
6NUR|6NUR_protein|mol2

> <Gold.PLP.Fitness>
39.8545

> <Gold.PLP.PLP>
-36.2996

> <Gold.PLP.part.hbond>
-3.0000

> <Gold.PLP.part.metal>
0.0000

> <Gold.PLP.part.buried>
-6.8135

> <Gold.PLP.part.nonpolar>
-29.6936

> <Gold.PLP.part.repulsive>
2.7715

> <Gold.PLP.ligand.clash>
0.0000

> <Gold.PLP.ligand.torsion>
1.2624

> <Gold.PLP.Chemscore.Hbond>
1.9120

> <Gold.PLP.Chemscore.CHOScore>
0.0000

> <Gold.PLP.Chemscore.Metal>
0.0000

> <Gold.Chemscore.Hbonds>
donor molecule, donor type, donor heavy atom, donor atom, acceptor molecule, acceptor atom, score
      P1  H  7989  7998       L1    21  0.01
      P1  H  8011  8017       L1    21  0.62
      P1  H 10752 10764       L1    12  1.00

> <Gold.PLP.Chemscore.Internal.Correction>
0.3437

> <Gold.Rescore>
     Score         DG    S(hbond)    S(metal)    S(lipo)     H(rot)  DE(clash)    DE(int)     intcor
     12.15     -16.33       2.16        0.00      68.54       1.71       1.62       2.56       ----

> <Gold.Chemscore.Fitness>
12.1533

> <Gold.Chemscore.DG>
-16.3330

> <Gold.Chemscore.ZeroCoef>
-5.4800

> <Gold.Chemscore.Hbond>
2.1594

> <Gold.Chemscore.Metal>
0.0000

> <Gold.Chemscore.Lipo>
68.5448

> <Gold.Chemscore.Internal_Hbond>
0.0000

> <Gold.Chemscore.DEClash>
1.6188

> <Gold.Chemscore.DEInternal>
2.5609

> <Gold.Chemscore.Rot>
1.7106

> <Gold.Chemscore.Internal.Correction>
   9.000000E+99

> <Gold.Chemscore.Hbonds>
donor molecule, donor type, donor heavy atom, donor atom, acceptor molecule, acceptor atom, score
      P1  H  7989  7998       L1    21  0.04
      P1  H  8011  8017       L1    21  0.60
      P1  H 10752 10764       L1    12  0.63

> <Gold.Chemscore.Hbond.Weighted>
-7.2122

> <Gold.Chemscore.Metal.Weighted>
-0.0000

> <Gold.Chemscore.Lipo.Weighted>
-8.0197

> <Gold.Chemscore.Internal_Hbond.Weighted>
0.0000

> <Gold.Chemscore.DEClash.Weighted>
1.6188

> <Gold.Chemscore.DEInternal.Weighted>
2.5609

> <Gold.Chemscore.Rot.Weighted>
4.3790

> <Gold.Chemscore.Internal.Correction.Weighted>
   9.000000E+99

> <Gold.Protein.RotatedTorsions>
[ 6907 6896 6895 6894 ] final   25.34 input  -60.11 | X-H torsion
[ 7974 7965 7964 7962 ] final -101.24 input  175.53 | X-H torsion
[ 8008 7997 7996 7995 ] final   89.89 input   59.86 | X-H torsion
[ 10167 10162 10161 10158 ] final  109.70 input  -65.29 | X-H torsion
[ 10718 10713 10712 10709 ] final -143.38 input   66.30 | X-H torsion
[ 10763 10752 10751 10750 ] final   16.15 input  -60.55 | X-H torsion
[ 11005 11000 10999 10996 ] final  -38.24 input  -57.11 | X-H torsion

> <Gold.Protein.ActiveResidues>
 VAL166  LYS551  ARG553  GLY616  TRP617  ASP618  TYR619  PRO620  LYS621  CYS622 
 ASP623  PHE694  ASN695  SER759  ASP760  ASP761  ALA762  ILE779  LEU786  VAL792 
 PHE793  MET794  SER795  GLU796  ALA797  LYS798  CYS799  TRP800  GLU811  SER814 

> <Gold.Protein.RotatedAtoms>
  151.9711  135.0076  160.0552 H   0  0  0  0  0  0  0  0  0  0  0  0  # atno 6907 bound_to 6896
  152.1782  133.4685  159.4953 H   0  0  0  0  0  0  0  0  0  0  0  0  # atno 6908 bound_to 6896
  150.6913  134.1784  159.4282 H   0  0  0  0  0  0  0  0  0  0  0  0  # atno 6909 bound_to 6896
  145.2842  140.9335  143.2914 H   0  0  0  0  0  0  0  0  0  0  0  0  # atno 7974 bound_to 7965
  156.0054  140.3355  155.6887 H   0  0  0  0  0  0  0  0  0  0  0  0  # atno 8008 bound_to 7997
  155.6232  140.0677  157.2689 H   0  0  0  0  0  0  0  0  0  0  0  0  # atno 8009 bound_to 7997
  154.4263  140.1773  156.1382 H   0  0  0  0  0  0  0  0  0  0  0  0  # atno 8010 bound_to 7997
  139.6745  144.7123  151.1626 H   0  0  0  0  0  0  0  0  0  0  0  0  # atno 10167 bound_to 10162
  156.3572  130.7719  151.1881 H   0  0  0  0  0  0  0  0  0  0  0  0  # atno 10718 bound_to 10713
  153.1458  135.6769  153.8958 H   0  0  0  0  0  0  0  0  0  0  0  0  # atno 10763 bound_to 10752
  153.8400  135.3106  155.3426 H   0  0  0  0  0  0  0  0  0  0  0  0  # atno 10764 bound_to 10752
  154.7823  135.4881  153.9957 H   0  0  0  0  0  0  0  0  0  0  0  0  # atno 10765 bound_to 10752
  141.0013  133.6954  156.2027 H   0  0  0  0  0  0  0  0  0  0  0  0  # atno 11005 bound_to 11000
  144.9227  139.4392  143.6533 LP  0  0  0  0  0  0  0  0  0  0  0  0  # atno 17320 bound_to 7965
  146.3206  139.8096  142.8948 LP  0  0  0  0  0  0  0  0  0  0  0  0  # atno 17321 bound_to 7965
  140.7630  143.5792  150.8913 LP  0  0  0  0  0  0  0  0  0  0  0  0  # atno 17342 bound_to 10162
  139.9460  143.6327  152.3041 LP  0  0  0  0  0  0  0  0  0  0  0  0  # atno 17343 bound_to 10162
  157.7469  131.0410  150.4627 LP  0  0  0  0  0  0  0  0  0  0  0  0  # atno 17370 bound_to 10713
  156.4831  130.4078  149.6450 LP  0  0  0  0  0  0  0  0  0  0  0  0  # atno 17371 bound_to 10713
  140.6885  134.4691  157.5589 LP  0  0  0  0  0  0  0  0  0  0  0  0  # atno 17394 bound_to 11000
  139.9040  134.8491  156.1780 LP  0  0  0  0  0  0  0  0  0  0  0  0  # atno 17395 bound_to 11000

$$$$
