AV-unprocessed.smi:3301|AV-procd|sdf|12655|dock6
  -GOLD-   2272018593D 1   1.00000     0.00000
 Structure written by MMmdl.
 36 37  0  0  0  0  0  0  0  0  1 V2000
  151.1136  144.3274  158.0469 C   0  0  0  0  0  0  0  0  0  0  0  0
  150.4717  144.2209  159.4405 C   0  0  1  0  0  0  0  0  0  0  0  0
  151.4628  144.4781  160.5928 C   0  0  0  0  0  0  0  0  0  0  0  0
  152.1645  143.2789  161.0097 N   0  0  0  0  0  0  0  0  0  0  0  0
  152.6329  142.9854  162.2834 C   0  0  0  0  0  0  0  0  0  0  0  0
  153.2353  141.7501  162.2056 C   0  0  0  0  0  0  0  0  0  0  0  0
  153.1524  141.2692  160.9008 N   0  0  0  0  0  0  0  0  0  0  0  0
  152.5082  142.2293  160.2501 C   0  0  0  0  0  0  0  0  0  0  0  0
  149.3666  145.1711  159.5408 N   0  0  0  0  0  0  0  0  0  0  0  0
  148.7573  145.5579  160.6722 C   0  0  0  0  0  0  0  0  0  0  0  0
  149.0520  145.1223  161.7862 O   0  0  0  0  0  0  0  0  0  0  0  0
  147.6279  146.5828  160.5030 C   0  0  0  0  0  0  0  0  0  0  0  0
  146.3660  146.1582  161.1109 N   0  0  0  0  0  0  0  0  0  0  0  0
  146.3533  145.4740  162.3935 C   0  0  0  0  0  0  0  0  0  0  0  0
  144.8966  145.0342  162.5981 C   0  0  0  0  0  0  0  0  0  0  0  0
  144.0785  145.7934  161.5479 C   0  0  0  0  0  0  0  0  0  0  0  0
  145.1378  146.3578  160.6168 C   0  0  0  0  0  0  0  0  0  0  0  0
  144.8648  146.9209  159.5577 O   0  0  0  0  0  0  0  0  0  0  0  0
  151.8939  143.5788  157.9084 H   0  0  0  0  0  0  0  0  0  0  0  0
  151.5615  145.3092  157.8900 H   0  0  0  0  0  0  0  0  0  0  0  0
  150.3729  144.1696  157.2622 H   0  0  0  0  0  0  0  0  0  0  0  0
  150.0959  143.2019  159.5477 H   0  0  0  0  0  0  0  0  0  0  0  0
  152.1995  145.2282  160.3010 H   0  0  0  0  0  0  0  0  0  0  0  0
  150.9360  144.8790  161.4598 H   0  0  0  0  0  0  0  0  0  0  0  0
  152.5017  143.6610  163.1159 H   0  0  0  0  0  0  0  0  0  0  0  0
  153.7195  141.1757  162.9817 H   0  0  0  0  0  0  0  0  0  0  0  0
  152.2781  142.1658  159.1965 H   0  0  0  0  0  0  0  0  0  0  0  0
  149.0456  145.5801  158.6752 H   0  0  0  0  0  0  0  0  0  0  0  0
  147.9323  147.5371  160.9364 H   0  0  0  0  0  0  0  0  0  0  0  0
  147.4789  146.7611  159.4374 H   0  0  0  0  0  0  0  0  0  0  0  0
  147.0350  144.6226  162.3987 H   0  0  0  0  0  0  0  0  0  0  0  0
  146.6665  146.1686  163.1742 H   0  0  0  0  0  0  0  0  0  0  0  0
  144.8033  143.9598  162.4345 H   0  0  0  0  0  0  0  0  0  0  0  0
  144.5518  145.2421  163.6114 H   0  0  0  0  0  0  0  0  0  0  0  0
  143.3845  145.1424  161.0152 H   0  0  0  0  0  0  0  0  0  0  0  0
  143.5172  146.6133  161.9968 H   0  0  0  0  0  0  0  0  0  0  0  0
  1  2  1  0  0  0  0
  1 19  1  0  0  0  0
  1 20  1  0  0  0  0
  1 21  1  0  0  0  0
  2  3  1  0  0  0  0
  2  9  1  0  0  0  0
  2 22  1  0  0  0  0
  3  4  1  0  0  0  0
  3 23  1  0  0  0  0
  3 24  1  0  0  0  0
  4  8  1  0  0  0  0
  4  5  1  0  0  0  0
  5  6  2  0  0  0  0
  5 25  1  0  0  0  0
  6  7  1  0  0  0  0
  6 26  1  0  0  0  0
  7  8  2  0  0  0  0
  8 27  1  0  0  0  0
  9 10  1  0  0  0  0
  9 28  1  0  0  0  0
 10 11  2  0  0  0  0
 10 12  1  0  0  0  0
 12 13  1  0  0  0  0
 12 29  1  0  0  0  0
 12 30  1  0  0  0  0
 13 17  1  0  0  0  0
 13 14  1  0  0  0  0
 14 15  1  0  0  0  0
 14 31  1  0  0  0  0
 14 32  1  0  0  0  0
 15 16  1  0  0  0  0
 15 33  1  0  0  0  0
 15 34  1  0  0  0  0
 16 17  1  0  0  0  0
 16 35  1  0  0  0  0
 16 36  1  0  0  0  0
 17 18  2  0  0  0  0
M  END
> <s_m_source_file>
AV-unprocessed.smi

> <i_m_source_file_index>
3301

> <i_lp_mmshare_version>
43012

> <i_f3d_flags>
0

> <s_epik_input>
W2NIXTFuW2NIXVtjSF1uMVtDSDJdW0NAQEhdKFtDSDNdKVtOSF1DKD1PKVtDSDJdTjJbQ0gyXVtDSDJdW0NIMl1DMj1P

> <s_epik_cmdline>
J2VwaWtfcHl0aG9uJywgJy1waCcsICc3LjAnLCAnLXRuJywgJzgnLCAnLW1hJywgJzIwMCcsICctbWV0YWxfYmluZGluZycsICctaW1hZScsICc8aW5maWxlLm1hZT4nLCAnLW9tYWUnLCAnPG91dGZpbGUubWFlPic=

> <r_lp_tautomer_probability>
1

> <r_epik_Ionization_Penalty>
0.623868

> <r_epik_Ionization_Penalty_Charging>
0.623868

> <r_epik_Ionization_Penalty_Neutral>
4.45089e-08

> <r_epik_State_Penalty>
0.640129

> <r_epik_Charging_Adjusted_Penalty>
1.264

> <i_epik_Tot_Q>
0

> <i_epik_Tot_abs_Q>
0

> <r_epik_Metal_State_Penalty>
0.307431

> <b_epik_Metal_Only>
0

> <s_lp_Force_Field>
OPLS_2005

> <r_lp_Energy>
14.8621

> <b_lp_Chiralities_Consistent>
1

> <s_lp_Variant>
AV-unprocessed.smi:3301-4

> <Gold.Version>
5.8.1

> <Gold.Id.Protein>
6NUR|6NUR_protein|mol2

> <Gold.PLP.Fitness>
48.4258

> <Gold.PLP.PLP>
-46.2486

> <Gold.PLP.part.hbond>
-2.0000

> <Gold.PLP.part.metal>
0.0000

> <Gold.PLP.part.buried>
-8.6360

> <Gold.PLP.part.nonpolar>
-35.5717

> <Gold.PLP.part.repulsive>
0.6267

> <Gold.PLP.ligand.clash>
0.0000

> <Gold.PLP.ligand.torsion>
1.2856

> <Gold.PLP.Chemscore.Hbond>
1.5676

> <Gold.PLP.Chemscore.CHOScore>
0.0000

> <Gold.PLP.Chemscore.Metal>
0.0000

> <Gold.Chemscore.Hbonds>
donor molecule, donor type, donor heavy atom, donor atom, acceptor molecule, acceptor atom, score
      L1  H     9    28       P1  8029  1.00

> <Gold.PLP.Chemscore.Internal.Correction>
0.0456

> <Gold.Rescore>
     Score         DG    S(hbond)    S(metal)    S(lipo)     H(rot)  DE(clash)    DE(int)     intcor
     11.00     -14.64       1.75        0.00      77.84       2.26       0.14       3.50       ----

> <Gold.Chemscore.Fitness>
11.0032

> <Gold.Chemscore.DG>
-14.6410

> <Gold.Chemscore.ZeroCoef>
-5.4800

> <Gold.Chemscore.Hbond>
1.7518

> <Gold.Chemscore.Metal>
0.0000

> <Gold.Chemscore.Lipo>
77.8411

> <Gold.Chemscore.Internal_Hbond>
0.0000

> <Gold.Chemscore.DEClash>
0.1381

> <Gold.Chemscore.DEInternal>
3.4998

> <Gold.Chemscore.Rot>
2.2647

> <Gold.Chemscore.Internal.Correction>
   9.000000E+99

> <Gold.Chemscore.Hbonds>
donor molecule, donor type, donor heavy atom, donor atom, acceptor molecule, acceptor atom, score
      L1  H     9    28       P1  8029  0.99

> <Gold.Chemscore.Hbond.Weighted>
-5.8511

> <Gold.Chemscore.Metal.Weighted>
-0.0000

> <Gold.Chemscore.Lipo.Weighted>
-9.1074

> <Gold.Chemscore.Internal_Hbond.Weighted>
0.0000

> <Gold.Chemscore.DEClash.Weighted>
0.1381

> <Gold.Chemscore.DEInternal.Weighted>
3.4998

> <Gold.Chemscore.Rot.Weighted>
5.7975

> <Gold.Chemscore.Internal.Correction.Weighted>
   9.000000E+99

> <Gold.Protein.RotatedTorsions>
[ 6907 6896 6895 6894 ] final   88.52 input  -60.11 | X-H torsion
[ 7974 7965 7964 7962 ] final  117.66 input  175.53 | X-H torsion
[ 8008 7997 7996 7995 ] final  -36.99 input   59.86 | X-H torsion
[ 10167 10162 10161 10158 ] final   48.99 input  -65.29 | X-H torsion
[ 10718 10713 10712 10709 ] final  -78.29 input   66.30 | X-H torsion
[ 10763 10752 10751 10750 ] final  -19.51 input  -60.55 | X-H torsion
[ 11005 11000 10999 10996 ] final   48.03 input  -57.11 | X-H torsion

> <Gold.Protein.ActiveResidues>
 VAL166  LYS551  ARG553  GLY616  TRP617  ASP618  TYR619  PRO620  LYS621  CYS622 
 ASP623  PHE694  ASN695  SER759  ASP760  ASP761  ALA762  ILE779  LEU786  VAL792 
 PHE793  MET794  SER795  GLU796  ALA797  LYS798  CYS799  TRP800  GLU811  SER814 

> <Gold.Protein.RotatedAtoms>
  152.5426  134.2109  159.8749 H   0  0  0  0  0  0  0  0  0  0  0  0  # atno 6907 bound_to 6896
  151.2092  133.4559  159.2605 H   0  0  0  0  0  0  0  0  0  0  0  0  # atno 6908 bound_to 6896
  151.0914  134.9931  159.8460 H   0  0  0  0  0  0  0  0  0  0  0  0  # atno 6909 bound_to 6896
  145.1646  139.3135  143.4499 H   0  0  0  0  0  0  0  0  0  0  0  0  # atno 7974 bound_to 7965
  154.4062  140.1616  156.2464 H   0  0  0  0  0  0  0  0  0  0  0  0  # atno 8008 bound_to 7997
  155.9157  140.3424  155.6110 H   0  0  0  0  0  0  0  0  0  0  0  0  # atno 8009 bound_to 7997
  155.7283  140.0777  157.2291 H   0  0  0  0  0  0  0  0  0  0  0  0  # atno 8010 bound_to 7997
  140.2876  144.3084  150.6248 H   0  0  0  0  0  0  0  0  0  0  0  0  # atno 10167 bound_to 10162
  156.0121  130.4514  150.3474 H   0  0  0  0  0  0  0  0  0  0  0  0  # atno 10718 bound_to 10713
  153.6059  135.6998  153.5366 H   0  0  0  0  0  0  0  0  0  0  0  0  # atno 10763 bound_to 10752
  153.3057  135.4116  155.1292 H   0  0  0  0  0  0  0  0  0  0  0  0  # atno 10764 bound_to 10752
  154.8573  135.3660  154.5596 H   0  0  0  0  0  0  0  0  0  0  0  0  # atno 10765 bound_to 10752
  140.1226  134.4809  155.8585 H   0  0  0  0  0  0  0  0  0  0  0  0  # atno 11005 bound_to 11000
  146.3477  140.1769  142.8589 LP  0  0  0  0  0  0  0  0  0  0  0  0  # atno 17320 bound_to 7965
  145.0295  140.8859  143.5118 LP  0  0  0  0  0  0  0  0  0  0  0  0  # atno 17321 bound_to 7965
  140.5760  143.2176  151.7515 LP  0  0  0  0  0  0  0  0  0  0  0  0  # atno 17342 bound_to 10162
  139.4946  144.4149  152.0040 LP  0  0  0  0  0  0  0  0  0  0  0  0  # atno 17343 bound_to 10162
  157.1567  131.0334  151.2860 LP  0  0  0  0  0  0  0  0  0  0  0  0  # atno 17370 bound_to 10713
  157.4346  130.7510  149.7018 LP  0  0  0  0  0  0  0  0  0  0  0  0  # atno 17371 bound_to 10713
  141.2155  133.6766  156.6918 LP  0  0  0  0  0  0  0  0  0  0  0  0  # atno 17394 bound_to 11000
  140.2945  134.8214  157.4045 LP  0  0  0  0  0  0  0  0  0  0  0  0  # atno 17395 bound_to 11000

$$$$
