AV-unprocessed.smi:1867|AV-procd|sdf|7583|dock4
  -GOLD-   22720 9293D 1   1.00000     0.00000
 Structure written by MMmdl.
 52 55  0  0  0  0  0  0  0  0  4 V2000
  148.1841  137.8534  157.7275 O   0  0  0  0  0  0  0  0  0  0  0  0
  148.1361  137.9626  156.5035 C   0  0  0  0  0  0  0  0  0  0  0  0
  148.6941  139.0526  155.9202 N   0  0  0  0  0  0  0  0  0  0  0  0
  149.4395  140.1020  156.5210 C   0  0  0  0  0  0  0  0  0  0  0  0
  150.2001  139.8016  157.6698 C   0  0  0  0  0  0  0  0  0  0  0  0
  150.9364  140.8211  158.3074 C   0  0  0  0  0  0  0  0  0  0  0  0
  150.8921  142.1406  157.7982 C   0  0  0  0  0  0  0  0  0  0  0  0
  151.6058  143.2065  158.3779 N   0  0  0  0  0  0  0  0  0  0  0  0
  151.4696  144.5699  157.8910 C   0  0  0  0  0  0  0  0  0  0  0  0
  152.2772  145.4122  158.8772 C   0  0  0  0  0  0  0  0  0  0  0  0
  152.1048  144.6605  160.1974 C   0  0  0  0  0  0  0  0  0  0  0  0
  151.9935  143.1887  159.7812 C   0  0  0  0  0  0  0  0  0  0  0  0
  150.1365  142.3857  156.7013 N   0  3  0  0  0  0  0  0  0  0  0  0
  149.4188  141.4391  156.0591 C   0  0  0  0  0  0  0  0  0  0  0  0
  147.5102  137.0220  155.7331 N   0  5  0  0  0  0  0  0  0  0  0  0
  148.0440  136.2356  154.6122 C   0  0  1  0  0  0  0  0  0  0  0  0
  149.1304  135.2452  155.0753 C   0  0  0  0  0  0  0  0  0  0  0  0
  148.9228  133.9757  154.2269 C   0  0  0  0  0  0  0  0  0  0  0  0
  147.7748  134.2701  153.3479 N   0  3  1  0  0  0  0  0  0  0  0  0
  146.9611  133.1224  152.8889 C   0  0  0  0  0  0  0  0  0  0  0  0
  145.8861  133.6224  151.9025 C   0  0  0  0  0  0  0  0  0  0  0  0
  145.0496  134.7734  152.4990 C   0  0  0  0  0  0  0  0  0  0  0  0
  145.9540  135.9007  153.0354 C   0  0  0  0  0  0  0  0  0  0  0  0
  146.9764  135.3043  154.0252 C   0  0  2  0  0  0  0  0  0  0  0  0
  148.5169  139.1546  154.9318 H   0  0  0  0  0  0  0  0  0  0  0  0
  150.2288  138.7936  158.0576 H   0  0  0  0  0  0  0  0  0  0  0  0
  151.5297  140.5764  159.1758 H   0  0  0  0  0  0  0  0  0  0  0  0
  151.8425  144.6744  156.8714 H   0  0  0  0  0  0  0  0  0  0  0  0
  150.4179  144.8596  157.9078 H   0  0  0  0  0  0  0  0  0  0  0  0
  153.3292  145.4122  158.5885 H   0  0  0  0  0  0  0  0  0  0  0  0
  151.9402  146.4479  158.9267 H   0  0  0  0  0  0  0  0  0  0  0  0
  152.9197  144.8410  160.8992 H   0  0  0  0  0  0  0  0  0  0  0  0
  151.1766  144.9761  160.6759 H   0  0  0  0  0  0  0  0  0  0  0  0
  151.2694  142.6618  160.4037 H   0  0  0  0  0  0  0  0  0  0  0  0
  152.9568  142.6864  159.8741 H   0  0  0  0  0  0  0  0  0  0  0  0
  148.8497  141.7922  155.2118 H   0  0  0  0  0  0  0  0  0  0  0  0
  148.4473  136.8560  153.8095 H   0  0  0  0  0  0  0  0  0  0  0  0
  150.1283  135.6647  154.9443 H   0  0  0  0  0  0  0  0  0  0  0  0
  149.0201  134.9942  156.1318 H   0  0  0  0  0  0  0  0  0  0  0  0
  149.8024  133.7236  153.6336 H   0  0  0  0  0  0  0  0  0  0  0  0
  148.6984  133.1254  154.8734 H   0  0  0  0  0  0  0  0  0  0  0  0
  147.6046  132.3877  152.4041 H   0  0  0  0  0  0  0  0  0  0  0  0
  146.4964  132.6312  153.7452 H   0  0  0  0  0  0  0  0  0  0  0  0
  146.3701  133.9687  150.9882 H   0  0  0  0  0  0  0  0  0  0  0  0
  145.2340  132.7983  151.6114 H   0  0  0  0  0  0  0  0  0  0  0  0
  144.3638  135.1673  151.7486 H   0  0  0  0  0  0  0  0  0  0  0  0
  144.4314  134.3883  153.3110 H   0  0  0  0  0  0  0  0  0  0  0  0
  146.4576  136.3893  152.1987 H   0  0  0  0  0  0  0  0  0  0  0  0
  145.3412  136.6624  153.5213 H   0  0  0  0  0  0  0  0  0  0  0  0
  146.4363  134.8267  154.8468 H   0  0  0  0  0  0  0  0  0  0  0  0
  148.1581  134.7146  152.5262 H   0  0  0  0  0  0  0  0  0  0  0  0
  150.1034  143.3388  156.3396 H   0  0  0  0  0  0  0  0  0  0  0  0
  1  2  2  0  0  0  0
  2  3  1  0  0  0  0
  2 15  1  0  0  0  0
  3  4  1  0  0  0  0
  3 25  1  0  0  0  0
  4 14  1  0  0  0  0
  4  5  2  0  0  0  0
  5  6  1  0  0  0  0
  5 26  1  0  0  0  0
  6  7  2  0  0  0  0
  6 27  1  0  0  0  0
  7  8  1  0  0  0  0
  7 13  1  0  0  0  0
  8 12  1  0  0  0  0
  8  9  1  0  0  0  0
  9 10  1  0  0  0  0
  9 28  1  0  0  0  0
  9 29  1  0  0  0  0
 10 11  1  0  0  0  0
 10 30  1  0  0  0  0
 10 31  1  0  0  0  0
 11 12  1  0  0  0  0
 11 32  1  0  0  0  0
 11 33  1  0  0  0  0
 12 34  1  0  0  0  0
 12 35  1  0  0  0  0
 13 14  2  0  0  0  0
 13 52  1  0  0  0  0
 14 36  1  0  0  0  0
 15 16  1  0  0  0  0
 16 24  1  0  0  0  0
 16 17  1  0  0  0  0
 16 37  1  0  0  0  0
 17 18  1  0  0  0  0
 17 38  1  0  0  0  0
 17 39  1  0  0  0  0
 18 19  1  0  0  0  0
 18 40  1  0  0  0  0
 18 41  1  0  0  0  0
 19 24  1  0  0  0  0
 19 20  1  0  0  0  0
 19 51  1  0  0  0  0
 20 21  1  0  0  0  0
 20 42  1  0  0  0  0
 20 43  1  0  0  0  0
 21 22  1  0  0  0  0
 21 44  1  0  0  0  0
 21 45  1  0  0  0  0
 22 23  1  0  0  0  0
 22 46  1  0  0  0  0
 22 47  1  0  0  0  0
 23 24  1  0  0  0  0
 23 48  1  0  0  0  0
 23 49  1  0  0  0  0
 24 50  1  0  0  0  0
M  CHG  1  13   1
M  CHG  1  15  -1
M  CHG  1  19   1
M  END
> <s_m_source_file>
AV-unprocessed.smi

> <i_m_source_file_index>
1867

> <i_lp_mmshare_version>
43012

> <i_f3d_flags>
0

> <s_epik_input>
W0NIMl0xW0NIMl1bQ0gyXVtDSDJdW0NASF0oTjEyKVtDQEBIXShbQ0gyXVtDSDJdMilbTkhdQyg9TylbTkhdYzNbY0hdW2NIXWMobltjSF0zKU40W0NIMl1bQ0gyXVtDSDJdW0NIMl00

> <s_epik_cmdline>
J2VwaWtfcHl0aG9uJywgJy1waCcsICc3LjAnLCAnLXRuJywgJzgnLCAnLW1hJywgJzIwMCcsICctbWV0YWxfYmluZGluZycsICctaW1hZScsICc8aW5maWxlLm1hZT4nLCAnLW9tYWUnLCAnPG91dGZpbGUubWFlPic=

> <r_lp_tautomer_probability>
0.999994

> <r_epik_Ionization_Penalty>
8.56137

> <r_epik_Ionization_Penalty_Charging>
8.56136

> <r_epik_Ionization_Penalty_Neutral>
3.91889e-06

> <r_epik_State_Penalty>
8.16255

> <r_epik_Charging_Adjusted_Penalty>
16.7239

> <i_epik_Tot_Q>
1

> <i_epik_Tot_abs_Q>
3

> <r_epik_Metal_State_Penalty>
4.14279

> <b_epik_Metal_Only>
1

> <s_lp_Force_Field>
OPLS_2005

> <r_lp_Energy>
66.3104

> <b_lp_Chiralities_Consistent>
1

> <s_lp_Variant>
AV-unprocessed.smi:1867-24

> <Gold.Version>
5.8.1

> <Gold.Id.Protein>
6NUR|6NUR_protein|mol2

> <Gold.PLP.Fitness>
46.6458

> <Gold.PLP.PLP>
-36.4875

> <Gold.PLP.part.hbond>
-2.0000

> <Gold.PLP.part.metal>
0.0000

> <Gold.PLP.part.buried>
-3.1361

> <Gold.PLP.part.nonpolar>
-31.4673

> <Gold.PLP.part.repulsive>
0.0590

> <Gold.PLP.ligand.clash>
0.0000

> <Gold.PLP.ligand.torsion>
0.8835

> <Gold.PLP.Chemscore.Hbond>
3.9025

> <Gold.PLP.Chemscore.CHOScore>
0.0000

> <Gold.PLP.Chemscore.Metal>
0.0000

> <Gold.Chemscore.Hbonds>
donor molecule, donor type, donor heavy atom, donor atom, acceptor molecule, acceptor atom, score
      L1  H    13    52       P1  8028  1.76
      L1  H    19    51       P1  7948  1.89

> <Gold.PLP.Chemscore.Internal.Correction>
0.2177

> <Gold.Rescore>
     Score         DG    S(hbond)    S(metal)    S(lipo)     H(rot)  DE(clash)    DE(int)     intcor
     17.37     -20.09       1.78        0.00      95.94       1.00       0.29       2.43       ----

> <Gold.Chemscore.Fitness>
17.3706

> <Gold.Chemscore.DG>
-20.0904

> <Gold.Chemscore.ZeroCoef>
-5.4800

> <Gold.Chemscore.Hbond>
1.7800

> <Gold.Chemscore.Metal>
0.0000

> <Gold.Chemscore.Lipo>
95.9428

> <Gold.Chemscore.Internal_Hbond>
0.0000

> <Gold.Chemscore.DEClash>
0.2922

> <Gold.Chemscore.DEInternal>
2.4276

> <Gold.Chemscore.Rot>
1.0000

> <Gold.Chemscore.Internal.Correction>
   9.000000E+99

> <Gold.Chemscore.Hbonds>
donor molecule, donor type, donor heavy atom, donor atom, acceptor molecule, acceptor atom, score
      L1  H    13    52       P1  8028  0.85
      L1  H    19    51       P1  7948  0.45

> <Gold.Chemscore.Hbond.Weighted>
-5.9451

> <Gold.Chemscore.Metal.Weighted>
-0.0000

> <Gold.Chemscore.Lipo.Weighted>
-11.2253

> <Gold.Chemscore.Internal_Hbond.Weighted>
0.0000

> <Gold.Chemscore.DEClash.Weighted>
0.2922

> <Gold.Chemscore.DEInternal.Weighted>
2.4276

> <Gold.Chemscore.Rot.Weighted>
2.5600

> <Gold.Chemscore.Internal.Correction.Weighted>
   9.000000E+99

> <Gold.Protein.RotatedTorsions>
[ 6907 6896 6895 6894 ] final   17.12 input  -60.11 | X-H torsion
[ 7974 7965 7964 7962 ] final -135.17 input  175.53 | X-H torsion
[ 8008 7997 7996 7995 ] final  -99.83 input   59.86 | X-H torsion
[ 10167 10162 10161 10158 ] final  162.45 input  -65.29 | X-H torsion
[ 10718 10713 10712 10709 ] final  123.02 input   66.30 | X-H torsion
[ 10763 10752 10751 10750 ] final  -54.05 input  -60.55 | X-H torsion
[ 11005 11000 10999 10996 ] final   90.55 input  -57.11 | X-H torsion

> <Gold.Protein.ActiveResidues>
 VAL166  LYS551  ARG553  GLY616  TRP617  ASP618  TYR619  PRO620  LYS621  CYS622 
 ASP623  PHE694  ASN695  SER759  ASP760  ASP761  ALA762  ILE779  LEU786  VAL792 
 PHE793  MET794  SER795  GLU796  ALA797  LYS798  CYS799  TRP800  GLU811  SER814 

> <Gold.Protein.RotatedAtoms>
  151.8447  135.0578  160.0451 H   0  0  0  0  0  0  0  0  0  0  0  0  # atno 6907 bound_to 6896
  152.2782  133.5441  159.5490 H   0  0  0  0  0  0  0  0  0  0  0  0  # atno 6908 bound_to 6896
  150.7179  134.0517  159.3843 H   0  0  0  0  0  0  0  0  0  0  0  0  # atno 6909 bound_to 6896
  144.9038  140.6806  143.5068 H   0  0  0  0  0  0  0  0  0  0  0  0  # atno 7974 bound_to 7965
  154.8202  140.0445  157.1405 H   0  0  0  0  0  0  0  0  0  0  0  0  # atno 8008 bound_to 7997
  154.9269  140.3034  155.5168 H   0  0  0  0  0  0  0  0  0  0  0  0  # atno 8009 bound_to 7997
  156.2979  140.2330  156.4324 H   0  0  0  0  0  0  0  0  0  0  0  0  # atno 8010 bound_to 7997
  139.4861  144.4436  151.8920 H   0  0  0  0  0  0  0  0  0  0  0  0  # atno 10167 bound_to 10162
  157.5697  131.1084  150.8389 H   0  0  0  0  0  0  0  0  0  0  0  0  # atno 10718 bound_to 10713
  154.1686  135.6463  153.5003 H   0  0  0  0  0  0  0  0  0  0  0  0  # atno 10763 bound_to 10752
  153.0090  135.5378  154.6636 H   0  0  0  0  0  0  0  0  0  0  0  0  # atno 10764 bound_to 10752
  154.5969  135.2940  155.0548 H   0  0  0  0  0  0  0  0  0  0  0  0  # atno 10765 bound_to 10752
  139.8854  134.8621  156.3301 H   0  0  0  0  0  0  0  0  0  0  0  0  # atno 11005 bound_to 11000
  145.3571  139.1691  143.4403 LP  0  0  0  0  0  0  0  0  0  0  0  0  # atno 17320 bound_to 7965
  146.3122  140.3629  142.8666 LP  0  0  0  0  0  0  0  0  0  0  0  0  # atno 17321 bound_to 7965
  140.3889  144.2640  150.5901 LP  0  0  0  0  0  0  0  0  0  0  0  0  # atno 17342 bound_to 10162
  140.5164  143.2277  151.8456 LP  0  0  0  0  0  0  0  0  0  0  0  0  # atno 17343 bound_to 10162
  156.8864  130.5197  149.5288 LP  0  0  0  0  0  0  0  0  0  0  0  0  # atno 17370 bound_to 10713
  156.0743  130.5769  150.9444 LP  0  0  0  0  0  0  0  0  0  0  0  0  # atno 17371 bound_to 10713
  140.9728  133.7316  156.0560 LP  0  0  0  0  0  0  0  0  0  0  0  0  # atno 17394 bound_to 11000
  140.7848  134.3684  157.5479 LP  0  0  0  0  0  0  0  0  0  0  0  0  # atno 17395 bound_to 11000

$$$$
