AV-unprocessed.smi:2624|AV-procd|sdf|10234|dock2
  -GOLD-   2272014243D 1   1.00000     0.00000
 Structure written by MMmdl.
 38 39  0  0  0  0  0  0  0  0  2 V2000
  155.0248  132.8076  163.9527 C   0  0  0  0  0  0  0  0  0  0  0  0
  154.9395  133.9944  164.7219 O   0  0  0  0  0  0  0  0  0  0  0  0
  155.0980  135.1632  163.9359 C   0  0  0  0  0  0  0  0  0  0  0  0
  154.6271  136.3764  164.7516 C   0  0  0  0  0  0  0  0  0  0  0  0
  155.0170  137.6388  164.1094 N   0  0  0  0  0  0  0  0  0  0  0  0
  154.5618  137.8491  162.7937 C   0  0  0  0  0  0  0  0  0  0  0  0
  154.8516  138.9683  162.1038 C   0  0  0  0  0  0  0  0  0  0  0  0
  154.3564  139.1451  160.7170 C   0  0  0  0  0  0  0  0  0  0  0  0
  154.5804  138.2984  159.8503 O   0  0  0  0  0  0  0  0  0  0  0  0
  153.5543  140.3685  160.4116 C   0  0  0  0  0  0  0  0  0  0  0  0
  153.3496  141.3247  161.4344 C   0  0  0  0  0  0  0  0  0  0  0  0
  152.5907  142.4877  161.1976 C   0  0  0  0  0  0  0  0  0  0  0  0
  152.3848  143.4923  162.3123 C   0  0  0  0  0  0  0  0  0  0  0  0
  152.0279  142.7063  159.9257 C   0  0  0  0  0  0  0  0  0  0  0  0
  152.2266  141.7660  158.8983 C   0  0  0  0  0  0  0  0  0  0  0  0
  152.9844  140.6002  159.1303 C   0  0  0  0  0  0  0  0  0  0  0  0
  153.1617  139.7337  158.0863 O   0  5  0  0  0  0  0  0  0  0  0  0
  155.6754  139.9668  162.7575 C   0  0  0  0  0  0  0  0  0  0  0  0
  156.1237  139.7664  164.0127 C   0  0  0  0  0  0  0  0  0  0  0  0
  156.9424  140.7301  164.6704 C   0  0  0  0  0  0  0  0  0  0  0  0
  157.5980  141.5280  165.1936 N   0  0  0  0  0  0  0  0  0  0  0  0
  155.8015  138.5463  164.7660 C   0  0  0  0  0  0  0  0  0  0  0  0
  156.2093  138.3446  165.9113 O   0  0  0  0  0  0  0  0  0  0  0  0
  154.9007  131.9410  164.6018 H   0  0  0  0  0  0  0  0  0  0  0  0
  155.9956  132.7244  163.4624 H   0  0  0  0  0  0  0  0  0  0  0  0
  154.2438  132.7731  163.1922 H   0  0  0  0  0  0  0  0  0  0  0  0
  156.1451  135.2800  163.6518 H   0  0  0  0  0  0  0  0  0  0  0  0
  154.5139  135.0774  163.0180 H   0  0  0  0  0  0  0  0  0  0  0  0
  153.5436  136.3354  164.8718 H   0  0  0  0  0  0  0  0  0  0  0  0
  155.0251  136.3202  165.7662 H   0  0  0  0  0  0  0  0  0  0  0  0
  153.9658  137.0424  162.3898 H   0  0  0  0  0  0  0  0  0  0  0  0
  153.7692  141.1655  162.4175 H   0  0  0  0  0  0  0  0  0  0  0  0
  151.7558  144.3223  161.9890 H   0  0  0  0  0  0  0  0  0  0  0  0
  153.3437  143.8968  162.6366 H   0  0  0  0  0  0  0  0  0  0  0  0
  151.9056  143.0149  163.1674 H   0  0  0  0  0  0  0  0  0  0  0  0
  151.4441  143.5937  159.7307 H   0  0  0  0  0  0  0  0  0  0  0  0
  151.7961  141.9451  157.9237 H   0  0  0  0  0  0  0  0  0  0  0  0
  155.9501  140.8747  162.2394 H   0  0  0  0  0  0  0  0  0  0  0  0
  1  2  1  0  0  0  0
  1 24  1  0  0  0  0
  1 25  1  0  0  0  0
  1 26  1  0  0  0  0
  2  3  1  0  0  0  0
  3  4  1  0  0  0  0
  3 27  1  0  0  0  0
  3 28  1  0  0  0  0
  4  5  1  0  0  0  0
  4 29  1  0  0  0  0
  4 30  1  0  0  0  0
  5 22  1  0  0  0  0
  5  6  1  0  0  0  0
  6  7  2  0  0  0  0
  6 31  1  0  0  0  0
  7  8  1  0  0  0  0
  7 18  1  0  0  0  0
  8  9  2  0  0  0  0
  8 10  1  0  0  0  0
 10 16  1  0  0  0  0
 10 11  2  0  0  0  0
 11 12  1  0  0  0  0
 11 32  1  0  0  0  0
 12 13  1  0  0  0  0
 12 14  2  0  0  0  0
 13 33  1  0  0  0  0
 13 34  1  0  0  0  0
 13 35  1  0  0  0  0
 14 15  1  0  0  0  0
 14 36  1  0  0  0  0
 15 16  2  0  0  0  0
 15 37  1  0  0  0  0
 16 17  1  0  0  0  0
 18 19  2  0  0  0  0
 18 38  1  0  0  0  0
 19 20  1  0  0  0  0
 19 22  1  0  0  0  0
 20 21  3  0  0  0  0
 22 23  2  0  0  0  0
M  CHG  1  17  -1
M  END
> <s_m_source_file>
AV-unprocessed.smi

> <i_m_source_file_index>
2624

> <i_lp_mmshare_version>
43012

> <i_f3d_flags>
0

> <s_epik_input>
W0NIM11PW0NIMl1bQ0gyXW4xW2NIXWMoW2NIXWMoQyNOKWMxPU8pQyg9TyljMltjSF1jKFtDSDNdKVtjSF1bY0hdYzJbT0hd

> <s_epik_cmdline>
J2VwaWtfcHl0aG9uJywgJy1waCcsICc3LjAnLCAnLXRuJywgJzgnLCAnLW1hJywgJzIwMCcsICctbWV0YWxfYmluZGluZycsICctaW1hZScsICc8aW5maWxlLm1hZT4nLCAnLW9tYWUnLCAnPG91dGZpbGUubWFlPic=

> <r_epik_Ionization_Penalty>
0.985482

> <r_epik_Ionization_Penalty_Charging>
0.985482

> <r_epik_Ionization_Penalty_Neutral>
1.08437e-11

> <r_epik_State_Penalty>
1.03272

> <r_epik_Charging_Adjusted_Penalty>
2.0182

> <i_epik_Tot_Q>
-1

> <i_epik_Tot_abs_Q>
1

> <r_epik_Metal_State_Penalty>
1.03272

> <b_epik_Metal_Only>
0

> <s_lp_Force_Field>
OPLS_2005

> <r_lp_Energy>
23.2451

> <b_lp_Chiralities_Consistent>
1

> <s_lp_Variant>
AV-unprocessed.smi:2624-2

> <Gold.Version>
5.8.1

> <Gold.Id.Protein>
6NUR|6NUR_protein|mol2

> <Gold.PLP.Fitness>
50.2813

> <Gold.PLP.PLP>
-44.7842

> <Gold.PLP.part.hbond>
-1.0000

> <Gold.PLP.part.metal>
0.0000

> <Gold.PLP.part.buried>
-3.6023

> <Gold.PLP.part.nonpolar>
-39.2901

> <Gold.PLP.part.repulsive>
0.1737

> <Gold.PLP.ligand.clash>
0.0000

> <Gold.PLP.ligand.torsion>
1.1079

> <Gold.PLP.Chemscore.Hbond>
2.0000

> <Gold.PLP.Chemscore.CHOScore>
0.0000

> <Gold.PLP.Chemscore.Metal>
0.0000

> <Gold.Chemscore.Hbonds>
donor molecule, donor type, donor heavy atom, donor atom, acceptor molecule, acceptor atom, score
      P1  H  7997  8010       L1    17  2.00

> <Gold.PLP.Chemscore.Internal.Correction>
1.7130

> <Gold.Rescore>
     Score         DG    S(hbond)    S(metal)    S(lipo)     H(rot)  DE(clash)    DE(int)     intcor
     15.24     -18.96       0.96        0.00     118.53       1.41       0.08       3.64       ----

> <Gold.Chemscore.Fitness>
15.2415

> <Gold.Chemscore.DG>
-18.9609

> <Gold.Chemscore.ZeroCoef>
-5.4800

> <Gold.Chemscore.Hbond>
0.9627

> <Gold.Chemscore.Metal>
0.0000

> <Gold.Chemscore.Lipo>
118.5268

> <Gold.Chemscore.Internal_Hbond>
0.0000

> <Gold.Chemscore.DEClash>
0.0800

> <Gold.Chemscore.DEInternal>
3.6394

> <Gold.Chemscore.Rot>
1.4071

> <Gold.Chemscore.Internal.Correction>
   9.000000E+99

> <Gold.Chemscore.Hbonds>
donor molecule, donor type, donor heavy atom, donor atom, acceptor molecule, acceptor atom, score
      P1  H  7997  8010       L1    17  0.83

> <Gold.Chemscore.Hbond.Weighted>
-3.2155

> <Gold.Chemscore.Metal.Weighted>
-0.0000

> <Gold.Chemscore.Lipo.Weighted>
-13.8676

> <Gold.Chemscore.Internal_Hbond.Weighted>
0.0000

> <Gold.Chemscore.DEClash.Weighted>
0.0800

> <Gold.Chemscore.DEInternal.Weighted>
3.6394

> <Gold.Chemscore.Rot.Weighted>
3.6022

> <Gold.Chemscore.Internal.Correction.Weighted>
   9.000000E+99

> <Gold.Protein.RotatedTorsions>
[ 6907 6896 6895 6894 ] final   81.24 input  -60.11 | X-H torsion
[ 7974 7965 7964 7962 ] final -178.23 input  175.53 | X-H torsion
[ 8008 7997 7996 7995 ] final   23.21 input   59.86 | X-H torsion
[ 10167 10162 10161 10158 ] final  -77.84 input  -65.29 | X-H torsion
[ 10718 10713 10712 10709 ] final  -80.16 input   66.30 | X-H torsion
[ 10763 10752 10751 10750 ] final  147.07 input  -60.55 | X-H torsion
[ 11005 11000 10999 10996 ] final  -55.69 input  -57.11 | X-H torsion

> <Gold.Protein.ActiveResidues>
 VAL166  LYS551  ARG553  GLY616  TRP617  ASP618  TYR619  PRO620  LYS621  CYS622 
 ASP623  PHE694  ASN695  SER759  ASP760  ASP761  ALA762  ILE779  LEU786  VAL792 
 PHE793  MET794  SER795  GLU796  ALA797  LYS798  CYS799  TRP800  GLU811  SER814 

> <Gold.Protein.RotatedAtoms>
  152.5262  134.3235  159.9156 H   0  0  0  0  0  0  0  0  0  0  0  0  # atno 6907 bound_to 6896
  151.3184  133.4044  159.2660 H   0  0  0  0  0  0  0  0  0  0  0  0  # atno 6908 bound_to 6896
  150.9980  134.9316  159.7995 H   0  0  0  0  0  0  0  0  0  0  0  0  # atno 6909 bound_to 6896
  144.7130  140.0899  143.6422 H   0  0  0  0  0  0  0  0  0  0  0  0  # atno 7974 bound_to 7965
  154.9775  140.3098  155.4961 H   0  0  0  0  0  0  0  0  0  0  0  0  # atno 8008 bound_to 7997
  156.2958  140.2272  156.4811 H   0  0  0  0  0  0  0  0  0  0  0  0  # atno 8009 bound_to 7997
  154.7820  140.0445  157.1122 H   0  0  0  0  0  0  0  0  0  0  0  0  # atno 8010 bound_to 7997
  140.4735  143.2420  151.8169 H   0  0  0  0  0  0  0  0  0  0  0  0  # atno 10167 bound_to 10162
  156.0076  130.4566  150.3759 H   0  0  0  0  0  0  0  0  0  0  0  0  # atno 10718 bound_to 10713
  154.0323  135.2896  155.3366 H   0  0  0  0  0  0  0  0  0  0  0  0  # atno 10763 bound_to 10752
  154.6980  135.5200  153.8489 H   0  0  0  0  0  0  0  0  0  0  0  0  # atno 10764 bound_to 10752
  153.0634  135.6622  154.0535 H   0  0  0  0  0  0  0  0  0  0  0  0  # atno 10765 bound_to 10752
  141.1086  133.6612  156.4508 H   0  0  0  0  0  0  0  0  0  0  0  0  # atno 11005 bound_to 11000
  145.9629  139.2813  143.1145 LP  0  0  0  0  0  0  0  0  0  0  0  0  # atno 17320 bound_to 7965
  145.9201  140.9121  143.0409 LP  0  0  0  0  0  0  0  0  0  0  0  0  # atno 17321 bound_to 7965
  139.4822  144.4862  151.9243 LP  0  0  0  0  0  0  0  0  0  0  0  0  # atno 17342 bound_to 10162
  140.3948  144.2570  150.5897 LP  0  0  0  0  0  0  0  0  0  0  0  0  # atno 17343 bound_to 10162
  157.1841  131.0399  151.2734 LP  0  0  0  0  0  0  0  0  0  0  0  0  # atno 17370 bound_to 10713
  157.4120  130.7390  149.6846 LP  0  0  0  0  0  0  0  0  0  0  0  0  # atno 17371 bound_to 10713
  140.4837  134.6641  157.5182 LP  0  0  0  0  0  0  0  0  0  0  0  0  # atno 17394 bound_to 11000
  139.9968  134.6899  155.9597 LP  0  0  0  0  0  0  0  0  0  0  0  0  # atno 17395 bound_to 11000

$$$$
