AV-unprocessed.smi:837|AV-procd|sdf|3894|dock7
  -GOLD-   22720 1353D 1   1.00000     0.00000
 Structure written by MMmdl.
 49 51  0  0  0  0  0  0  0  0  1 V2000
  146.1152  133.0509  153.7552 C   0  0  0  0  0  0  0  0  0  0  0  0
  145.3731  132.5937  152.4812 C   0  0  2  0  0  0  0  0  0  0  0  0
  146.3742  132.3037  151.3418 C   0  0  0  0  0  0  0  0  0  0  0  0
  145.6689  131.7578  150.0904 C   0  0  0  0  0  0  0  0  0  0  0  0
  144.5684  132.7111  149.6041 C   0  0  0  0  0  0  0  0  0  0  0  0
  143.5573  133.0121  150.7248 C   0  0  0  0  0  0  0  0  0  0  0  0
  144.2241  133.5451  152.0180 C   0  0  1  0  0  0  0  0  0  0  0  0
  143.2204  133.6993  153.0569 N   0  0  0  0  0  0  0  0  0  0  0  0
  143.0686  134.9659  153.4624 C   0  0  0  0  0  0  0  0  0  0  0  0
  142.2906  135.3416  154.3380 O   0  0  0  0  0  0  0  0  0  0  0  0
  143.9142  135.7383  152.7583 N   0  0  0  0  0  0  0  0  0  0  0  0
  144.0765  137.1845  152.9579 C   0  0  0  0  0  0  0  0  0  0  0  0
  145.5432  137.6200  153.0942 C   0  0  0  0  0  0  0  0  0  0  0  0
  146.4409  136.7921  153.2606 O   0  0  0  0  0  0  0  0  0  0  0  0
  145.7684  138.9406  153.0291 N   0  0  0  0  0  0  0  0  0  0  0  0
  147.0776  139.5724  153.1417 C   0  0  0  0  0  0  0  0  0  0  0  0
  147.1364  140.5381  154.3363 C   0  0  0  0  0  0  0  0  0  0  0  0
  148.5352  140.6515  154.9093 C   0  0  0  0  0  0  0  0  0  0  0  0
  148.7841  141.4279  156.0597 C   0  0  0  0  0  0  0  0  0  0  0  0
  150.0993  141.4995  156.5577 C   0  0  0  0  0  0  0  0  0  0  0  0
  151.1118  140.7887  155.8828 C   0  0  0  0  0  0  0  0  0  0  0  0
  150.8849  140.0418  154.7807 N   0  0  0  0  0  0  0  0  0  0  0  0
  149.6210  139.9790  154.3091 C   0  0  0  0  0  0  0  0  0  0  0  0
  144.6353  135.0136  151.8921 C   0  0  0  0  0  0  0  0  0  0  0  0
  145.5005  135.4356  151.1243 O   0  0  0  0  0  0  0  0  0  0  0  0
  146.6615  133.9808  153.5949 H   0  0  0  0  0  0  0  0  0  0  0  0
  146.8395  132.3002  154.0719 H   0  0  0  0  0  0  0  0  0  0  0  0
  145.4297  133.2068  154.5882 H   0  0  0  0  0  0  0  0  0  0  0  0
  144.9051  131.6407  152.7341 H   0  0  0  0  0  0  0  0  0  0  0  0
  146.9315  133.2050  151.0861 H   0  0  0  0  0  0  0  0  0  0  0  0
  147.1155  131.5780  151.6781 H   0  0  0  0  0  0  0  0  0  0  0  0
  146.3970  131.5954  149.2952 H   0  0  0  0  0  0  0  0  0  0  0  0
  145.2338  130.7829  150.3138 H   0  0  0  0  0  0  0  0  0  0  0  0
  145.0167  133.6357  149.2405 H   0  0  0  0  0  0  0  0  0  0  0  0
  144.0511  132.2708  148.7512 H   0  0  0  0  0  0  0  0  0  0  0  0
  142.8141  133.7217  150.3572 H   0  0  0  0  0  0  0  0  0  0  0  0
  143.0067  132.0989  150.9552 H   0  0  0  0  0  0  0  0  0  0  0  0
  142.7046  132.9182  153.4355 H   0  0  0  0  0  0  0  0  0  0  0  0
  143.6216  137.7260  152.1266 H   0  0  0  0  0  0  0  0  0  0  0  0
  143.5350  137.5028  153.8503 H   0  0  0  0  0  0  0  0  0  0  0  0
  144.9762  139.5520  152.8921 H   0  0  0  0  0  0  0  0  0  0  0  0
  147.8549  138.8108  153.2259 H   0  0  0  0  0  0  0  0  0  0  0  0
  147.2726  140.1136  152.2153 H   0  0  0  0  0  0  0  0  0  0  0  0
  146.7954  141.5292  154.0343 H   0  0  0  0  0  0  0  0  0  0  0  0
  146.4592  140.2075  155.1252 H   0  0  0  0  0  0  0  0  0  0  0  0
  147.9829  141.9581  156.5536 H   0  0  0  0  0  0  0  0  0  0  0  0
  150.3266  142.0846  157.4365 H   0  0  0  0  0  0  0  0  0  0  0  0
  152.1312  140.8206  156.2380 H   0  0  0  0  0  0  0  0  0  0  0  0
  149.4719  139.3719  153.4283 H   0  0  0  0  0  0  0  0  0  0  0  0
  1  2  1  0  0  0  0
  1 26  1  0  0  0  0
  1 27  1  0  0  0  0
  1 28  1  0  0  0  0
  2  7  1  0  0  0  0
  2  3  1  0  0  0  0
  2 29  1  0  0  0  0
  3  4  1  0  0  0  0
  3 30  1  0  0  0  0
  3 31  1  0  0  0  0
  4  5  1  0  0  0  0
  4 32  1  0  0  0  0
  4 33  1  0  0  0  0
  5  6  1  0  0  0  0
  5 34  1  0  0  0  0
  5 35  1  0  0  0  0
  6  7  1  0  0  0  0
  6 36  1  0  0  0  0
  6 37  1  0  0  0  0
  7 24  1  0  0  0  0
  7  8  1  0  0  0  0
  8  9  1  0  0  0  0
  8 38  1  0  0  0  0
  9 10  2  0  0  0  0
  9 11  1  0  0  0  0
 11 12  1  0  0  0  0
 11 24  1  0  0  0  0
 12 13  1  0  0  0  0
 12 39  1  0  0  0  0
 12 40  1  0  0  0  0
 13 14  2  0  0  0  0
 13 15  1  0  0  0  0
 15 16  1  0  0  0  0
 15 41  1  0  0  0  0
 16 17  1  0  0  0  0
 16 42  1  0  0  0  0
 16 43  1  0  0  0  0
 17 18  1  0  0  0  0
 17 44  1  0  0  0  0
 17 45  1  0  0  0  0
 18 23  1  0  0  0  0
 18 19  2  0  0  0  0
 19 20  1  0  0  0  0
 19 46  1  0  0  0  0
 20 21  2  0  0  0  0
 20 47  1  0  0  0  0
 21 22  1  0  0  0  0
 21 48  1  0  0  0  0
 22 23  2  0  0  0  0
 23 49  1  0  0  0  0
 24 25  2  0  0  0  0
M  END
> <s_m_source_file>
AV-unprocessed.smi

> <i_m_source_file_index>
837

> <i_lp_mmshare_version>
43012

> <i_f3d_flags>
0

> <s_epik_input>
W0NIMl0xW0NIMl1bQ0gyXVtDSDJdW0NAQEhdKFtDSDNdKVtDQEBdMTJbTkhdQyg9TylOKEMyPU8pW0NIMl1DKD1PKVtOSF1bQ0gyXVtDSDJdYzNbY0hdW2NIXVtjSF1uW2NIXTM=

> <s_epik_cmdline>
J2VwaWtfcHl0aG9uJywgJy1waCcsICc3LjAnLCAnLXRuJywgJzgnLCAnLW1hJywgJzIwMCcsICctbWV0YWxfYmluZGluZycsICctaW1hZScsICc8aW5maWxlLm1hZT4nLCAnLW9tYWUnLCAnPG91dGZpbGUubWFlPic=

> <r_lp_tautomer_probability>
1

> <r_epik_Ionization_Penalty>
0.0127837

> <r_epik_Ionization_Penalty_Charging>
0

> <r_epik_Ionization_Penalty_Neutral>
0.0127837

> <r_epik_State_Penalty>
0.00987657

> <r_epik_Charging_Adjusted_Penalty>
0.00987657

> <i_epik_Tot_Q>
0

> <i_epik_Tot_abs_Q>
0

> <r_epik_Metal_State_Penalty>
0.0309865

> <b_epik_Metal_Only>
0

> <s_lp_Force_Field>
OPLS_2005

> <r_lp_Energy>
17.4759

> <b_lp_Chiralities_Consistent>
1

> <s_lp_Variant>
AV-unprocessed.smi:837-3

> <Gold.Version>
5.8.1

> <Gold.Id.Protein>
6NUR|6NUR_protein|mol2

> <Gold.PLP.Fitness>
51.3135

> <Gold.PLP.PLP>
-40.5001

> <Gold.PLP.part.hbond>
-3.0459

> <Gold.PLP.part.metal>
0.0000

> <Gold.PLP.part.buried>
-3.6915

> <Gold.PLP.part.nonpolar>
-34.3995

> <Gold.PLP.part.repulsive>
1.5250

> <Gold.PLP.ligand.clash>
0.0000

> <Gold.PLP.ligand.torsion>
0.4583

> <Gold.PLP.Chemscore.Hbond>
2.8960

> <Gold.PLP.Chemscore.CHOScore>
1.0000

> <Gold.PLP.Chemscore.Metal>
0.0000

> <Gold.Chemscore.Hbonds>
donor molecule, donor type, donor heavy atom, donor atom, acceptor molecule, acceptor atom, score
      L1  H     8    38       P1 10957  0.88
      L1  H    15    41       P1 10175  1.00
      P1  H  7989  7998       L1    22  1.00
      L1  C    23    49       P1  7957  0.97

> <Gold.PLP.Chemscore.Internal.Correction>
0.0420

> <Gold.Rescore>
     Score         DG    S(hbond)    S(metal)    S(lipo)     H(rot)  DE(clash)    DE(int)     intcor
     18.47     -18.99       2.18        0.00      93.72       1.86       0.24       0.28       ----

> <Gold.Chemscore.Fitness>
18.4714

> <Gold.Chemscore.DG>
-18.9918

> <Gold.Chemscore.ZeroCoef>
-5.4800

> <Gold.Chemscore.Hbond>
2.1844

> <Gold.Chemscore.Metal>
0.0000

> <Gold.Chemscore.Lipo>
93.7223

> <Gold.Chemscore.Internal_Hbond>
0.0000

> <Gold.Chemscore.DEClash>
0.2370

> <Gold.Chemscore.DEInternal>
0.2834

> <Gold.Chemscore.Rot>
1.8553

> <Gold.Chemscore.Internal.Correction>
   9.000000E+99

> <Gold.Chemscore.Hbonds>
donor molecule, donor type, donor heavy atom, donor atom, acceptor molecule, acceptor atom, score
      L1  H     8    38       P1 10957  0.68
      L1  H    15    41       P1 10175  1.00
      P1  H  7989  7998       L1    22  0.14

> <Gold.Chemscore.Hbond.Weighted>
-7.2960

> <Gold.Chemscore.Metal.Weighted>
-0.0000

> <Gold.Chemscore.Lipo.Weighted>
-10.9655

> <Gold.Chemscore.Internal_Hbond.Weighted>
0.0000

> <Gold.Chemscore.DEClash.Weighted>
0.2370

> <Gold.Chemscore.DEInternal.Weighted>
0.2834

> <Gold.Chemscore.Rot.Weighted>
4.7497

> <Gold.Chemscore.Internal.Correction.Weighted>
   9.000000E+99

> <Gold.Protein.RotatedTorsions>
[ 6907 6896 6895 6894 ] final   78.35 input  -60.11 | X-H torsion
[ 7974 7965 7964 7962 ] final  -40.33 input  175.53 | X-H torsion
[ 8008 7997 7996 7995 ] final  -36.31 input   59.86 | X-H torsion
[ 10167 10162 10161 10158 ] final -170.54 input  -65.29 | X-H torsion
[ 10718 10713 10712 10709 ] final -178.88 input   66.30 | X-H torsion
[ 10763 10752 10751 10750 ] final   77.15 input  -60.55 | X-H torsion
[ 11005 11000 10999 10996 ] final   94.28 input  -57.11 | X-H torsion

> <Gold.Protein.ActiveResidues>
 VAL166  LYS551  ARG553  GLY616  TRP617  ASP618  TYR619  PRO620  LYS621  CYS622 
 ASP623  PHE694  ASN695  SER759  ASP760  ASP761  ALA762  ILE779  LEU786  VAL792 
 PHE793  MET794  SER795  GLU796  ALA797  LYS798  CYS799  TRP800  GLU811  SER814 

> <Gold.Protein.RotatedAtoms>
  152.5156  134.3677  159.9306 H   0  0  0  0  0  0  0  0  0  0  0  0  # atno 6907 bound_to 6896
  151.3631  133.3876  159.2699 H   0  0  0  0  0  0  0  0  0  0  0  0  # atno 6908 bound_to 6896
  150.9636  134.9040  159.7804 H   0  0  0  0  0  0  0  0  0  0  0  0  # atno 6909 bound_to 6896
  146.0314  140.6726  142.9130 H   0  0  0  0  0  0  0  0  0  0  0  0  # atno 7974 bound_to 7965
  154.4076  140.1634  156.2353 H   0  0  0  0  0  0  0  0  0  0  0  0  # atno 8008 bound_to 7997
  155.9247  140.3419  155.6178 H   0  0  0  0  0  0  0  0  0  0  0  0  # atno 8009 bound_to 7997
  155.7179  140.0765  157.2334 H   0  0  0  0  0  0  0  0  0  0  0  0  # atno 8010 bound_to 7997
  139.5856  144.1326  152.1571 H   0  0  0  0  0  0  0  0  0  0  0  0  # atno 10167 bound_to 10162
  156.8509  130.9718  151.3092 H   0  0  0  0  0  0  0  0  0  0  0  0  # atno 10718 bound_to 10713
  153.0777  135.4925  154.8439 H   0  0  0  0  0  0  0  0  0  0  0  0  # atno 10763 bound_to 10752
  154.7110  135.3020  154.9200 H   0  0  0  0  0  0  0  0  0  0  0  0  # atno 10764 bound_to 10752
  153.9893  135.6780  153.4806 H   0  0  0  0  0  0  0  0  0  0  0  0  # atno 10765 bound_to 10752
  139.8800  134.8836  156.3840 H   0  0  0  0  0  0  0  0  0  0  0  0  # atno 11005 bound_to 11000
  144.7032  140.3743  143.7139 LP  0  0  0  0  0  0  0  0  0  0  0  0  # atno 17320 bound_to 7965
  145.7034  139.1666  143.2580 LP  0  0  0  0  0  0  0  0  0  0  0  0  # atno 17321 bound_to 7965
  140.0889  144.5637  150.7068 LP  0  0  0  0  0  0  0  0  0  0  0  0  # atno 17342 bound_to 10162
  140.7128  143.2519  151.4528 LP  0  0  0  0  0  0  0  0  0  0  0  0  # atno 17343 bound_to 10162
  157.6304  130.8725  149.9264 LP  0  0  0  0  0  0  0  0  0  0  0  0  # atno 17370 bound_to 10713
  156.0829  130.3671  150.0545 LP  0  0  0  0  0  0  0  0  0  0  0  0  # atno 17371 bound_to 10713
  140.9379  133.7535  156.0108 LP  0  0  0  0  0  0  0  0  0  0  0  0  # atno 17394 bound_to 11000
  140.8254  134.3240  157.5367 LP  0  0  0  0  0  0  0  0  0  0  0  0  # atno 17395 bound_to 11000

$$$$
