AV-unprocessed.smi:1753|AV-procd|sdf|7063|dock4
  -GOLD-   22720 8283D 1   1.00000     0.00000
 Structure written by MMmdl.
 37 38  0  0  0  0  0  0  0  0  1 V2000
  153.6763  141.4210  160.5803 C   0  0  0  0  0  0  0  0  0  0  0  0
  152.8873  142.1238  159.5153 C   0  0  0  0  0  0  0  0  0  0  0  0
  151.9238  141.5669  158.6253 C   0  0  0  0  0  0  0  0  0  0  0  0
  151.5322  142.6504  157.8870 C   0  0  0  0  0  0  0  0  0  0  0  0
  150.6236  142.7100  156.8772 N   0  0  0  0  0  0  0  0  0  0  0  0
  150.1124  141.7060  156.1431 C   0  0  0  0  0  0  0  0  0  0  0  0
  150.3832  140.5127  156.2777 O   0  0  0  0  0  0  0  0  0  0  0  0
  149.2481  142.1697  155.2287 N   0  0  0  0  0  0  0  0  0  0  0  0
  148.5121  141.3555  154.2657 C   0  0  0  0  0  0  0  0  0  0  0  0
  147.0052  141.3094  154.5835 C   0  0  1  0  0  0  0  0  0  0  0  0
  146.6910  140.4109  155.7953 C   0  0  0  0  0  0  0  0  0  0  0  0
  145.2277  140.6226  156.1957 C   0  0  0  0  0  0  0  0  0  0  0  0
  144.8767  142.3871  155.8566 S   0  0  0  0  0  0  0  0  0  0  0  0
  143.6865  142.4819  154.9981 O   0  0  0  0  0  0  0  0  0  0  0  0
  144.9726  143.1553  157.1070 O   0  0  0  0  0  0  0  0  0  0  0  0
  146.3822  142.6901  154.8552 C   0  0  0  0  0  0  0  0  0  0  0  0
  152.2269  143.7591  158.3225 N   0  0  0  0  0  0  0  0  0  0  0  0
  152.1754  145.1356  157.8686 C   0  0  0  0  0  0  0  0  0  0  0  0
  153.0614  143.4274  159.3309 N   0  0  0  0  0  0  0  0  0  0  0  0
  153.5609  140.3394  160.5065 H   0  0  0  0  0  0  0  0  0  0  0  0
  153.3466  141.7227  161.5746 H   0  0  0  0  0  0  0  0  0  0  0  0
  154.7398  141.6467  160.4976 H   0  0  0  0  0  0  0  0  0  0  0  0
  151.5917  140.5420  158.5579 H   0  0  0  0  0  0  0  0  0  0  0  0
  150.2943  143.6368  156.6513 H   0  0  0  0  0  0  0  0  0  0  0  0
  149.0869  143.1658  155.1930 H   0  0  0  0  0  0  0  0  0  0  0  0
  148.6632  141.7970  153.2802 H   0  0  0  0  0  0  0  0  0  0  0  0
  148.9230  140.3458  154.2106 H   0  0  0  0  0  0  0  0  0  0  0  0
  146.4860  140.8800  153.7251 H   0  0  0  0  0  0  0  0  0  0  0  0
  146.8971  139.3609  155.5852 H   0  0  0  0  0  0  0  0  0  0  0  0
  147.3299  140.6998  156.6312 H   0  0  0  0  0  0  0  0  0  0  0  0
  144.5651  140.0208  155.5734 H   0  0  0  0  0  0  0  0  0  0  0  0
  145.0314  140.3910  157.2426 H   0  0  0  0  0  0  0  0  0  0  0  0
  147.0533  143.3137  155.4469 H   0  0  0  0  0  0  0  0  0  0  0  0
  146.1243  143.2288  153.9434 H   0  0  0  0  0  0  0  0  0  0  0  0
  151.5151  145.2339  157.0070 H   0  0  0  0  0  0  0  0  0  0  0  0
  153.1746  145.4668  157.5838 H   0  0  0  0  0  0  0  0  0  0  0  0
  151.8041  145.7726  158.6718 H   0  0  0  0  0  0  0  0  0  0  0  0
  1  2  1  0  0  0  0
  1 20  1  0  0  0  0
  1 21  1  0  0  0  0
  1 22  1  0  0  0  0
  2 19  2  0  0  0  0
  2  3  1  0  0  0  0
  3  4  2  0  0  0  0
  3 23  1  0  0  0  0
  4  5  1  0  0  0  0
  4 17  1  0  0  0  0
  5  6  1  0  0  0  0
  5 24  1  0  0  0  0
  6  7  2  0  0  0  0
  6  8  1  0  0  0  0
  8  9  1  0  0  0  0
  8 25  1  0  0  0  0
  9 10  1  0  0  0  0
  9 26  1  0  0  0  0
  9 27  1  0  0  0  0
 10 16  1  0  0  0  0
 10 11  1  0  0  0  0
 10 28  1  0  0  0  0
 11 12  1  0  0  0  0
 11 29  1  0  0  0  0
 11 30  1  0  0  0  0
 12 13  1  0  0  0  0
 12 31  1  0  0  0  0
 12 32  1  0  0  0  0
 13 14  2  0  0  0  0
 13 15  2  0  0  0  0
 13 16  1  0  0  0  0
 16 33  1  0  0  0  0
 16 34  1  0  0  0  0
 17 18  1  0  0  0  0
 17 19  1  0  0  0  0
 18 35  1  0  0  0  0
 18 36  1  0  0  0  0
 18 37  1  0  0  0  0
M  END
> <s_m_source_file>
AV-unprocessed.smi

> <i_m_source_file_index>
1753

> <i_lp_mmshare_version>
43012

> <i_f3d_flags>
0

> <s_epik_input>
W0NIM11jMVtjSF1jKG4objEpW0NIM10pW05IXUMoPU8pW05IXVtDSDJdW0NAQEhdKFtDSDJdMilbQ0gyXVtDSDJdUzIoPU8pPU8=

> <s_epik_cmdline>
J2VwaWtfcHl0aG9uJywgJy1waCcsICc3LjAnLCAnLXRuJywgJzgnLCAnLW1hJywgJzIwMCcsICctbWV0YWxfYmluZGluZycsICctaW1hZScsICc8aW5maWxlLm1hZT4nLCAnLW9tYWUnLCAnPG91dGZpbGUubWFlPic=

> <r_lp_tautomer_probability>
1

> <r_epik_Ionization_Penalty>
9.06651e-05

> <r_epik_Ionization_Penalty_Charging>
0

> <r_epik_Ionization_Penalty_Neutral>
9.06651e-05

> <r_epik_State_Penalty>
-0

> <r_epik_Charging_Adjusted_Penalty>
0

> <i_epik_Tot_Q>
0

> <i_epik_Tot_abs_Q>
0

> <r_epik_Metal_State_Penalty>
-0

> <b_epik_Metal_Only>
0

> <s_lp_Force_Field>
OPLS_2005

> <r_lp_Energy>
6.63642

> <b_lp_Chiralities_Consistent>
1

> <s_lp_Variant>
AV-unprocessed.smi:1753-2

> <Gold.Version>
5.8.1

> <Gold.Id.Protein>
6NUR|6NUR_protein|mol2

> <Gold.PLP.Fitness>
39.6545

> <Gold.PLP.PLP>
-34.2553

> <Gold.PLP.part.hbond>
-2.0000

> <Gold.PLP.part.metal>
0.0000

> <Gold.PLP.part.buried>
-6.9612

> <Gold.PLP.part.nonpolar>
-27.0111

> <Gold.PLP.part.repulsive>
1.0936

> <Gold.PLP.ligand.clash>
0.0000

> <Gold.PLP.ligand.torsion>
0.1941

> <Gold.PLP.Chemscore.Hbond>
1.9280

> <Gold.PLP.Chemscore.CHOScore>
0.0000

> <Gold.PLP.Chemscore.Metal>
0.0000

> <Gold.Chemscore.Hbonds>
donor molecule, donor type, donor heavy atom, donor atom, acceptor molecule, acceptor atom, score
      L1  H     5    24       P1  8028  0.93
      L1  H     8    25       P1  8028  1.00

> <Gold.PLP.Chemscore.Internal.Correction>
0.0035

> <Gold.Rescore>
     Score         DG    S(hbond)    S(metal)    S(lipo)     H(rot)  DE(clash)    DE(int)     intcor
     13.94     -15.35       1.91        0.00      58.38       1.31       0.20       1.20       ----

> <Gold.Chemscore.Fitness>
13.9393

> <Gold.Chemscore.DG>
-15.3471

> <Gold.Chemscore.ZeroCoef>
-5.4800

> <Gold.Chemscore.Hbond>
1.9118

> <Gold.Chemscore.Metal>
0.0000

> <Gold.Chemscore.Lipo>
58.3787

> <Gold.Chemscore.Internal_Hbond>
0.0000

> <Gold.Chemscore.DEClash>
0.2038

> <Gold.Chemscore.DEInternal>
1.2040

> <Gold.Chemscore.Rot>
1.3080

> <Gold.Chemscore.Internal.Correction>
   9.000000E+99

> <Gold.Chemscore.Hbonds>
donor molecule, donor type, donor heavy atom, donor atom, acceptor molecule, acceptor atom, score
      L1  H     5    24       P1  8028  0.85
      L1  H     8    25       P1  8028  0.99

> <Gold.Chemscore.Hbond.Weighted>
-6.3853

> <Gold.Chemscore.Metal.Weighted>
-0.0000

> <Gold.Chemscore.Lipo.Weighted>
-6.8303

> <Gold.Chemscore.Internal_Hbond.Weighted>
0.0000

> <Gold.Chemscore.DEClash.Weighted>
0.2038

> <Gold.Chemscore.DEInternal.Weighted>
1.2040

> <Gold.Chemscore.Rot.Weighted>
3.3485

> <Gold.Chemscore.Internal.Correction.Weighted>
   9.000000E+99

> <Gold.Protein.RotatedTorsions>
[ 6907 6896 6895 6894 ] final -166.95 input  -60.11 | X-H torsion
[ 7974 7965 7964 7962 ] final   61.83 input  175.53 | X-H torsion
[ 8008 7997 7996 7995 ] final  -14.71 input   59.86 | X-H torsion
[ 10167 10162 10161 10158 ] final  138.34 input  -65.29 | X-H torsion
[ 10718 10713 10712 10709 ] final    5.87 input   66.30 | X-H torsion
[ 10763 10752 10751 10750 ] final -163.17 input  -60.55 | X-H torsion
[ 11005 11000 10999 10996 ] final -139.01 input  -57.11 | X-H torsion

> <Gold.Protein.ActiveResidues>
 VAL166  LYS551  ARG553  GLY616  TRP617  ASP618  TYR619  PRO620  LYS621  CYS622 
 ASP623  PHE694  ASN695  SER759  ASP760  ASP761  ALA762  ILE779  LEU786  VAL792 
 PHE793  MET794  SER795  GLU796  ALA797  LYS798  CYS799  TRP800  GLU811  SER814 

> <Gold.Protein.RotatedAtoms>
  151.4518  133.3615  159.2796 H   0  0  0  0  0  0  0  0  0  0  0  0  # atno 6907 bound_to 6896
  150.9086  134.8503  159.7420 H   0  0  0  0  0  0  0  0  0  0  0  0  # atno 6908 bound_to 6896
  152.4920  134.4445  159.9606 H   0  0  0  0  0  0  0  0  0  0  0  0  # atno 6909 bound_to 6896
  145.8803  139.3438  143.0710 H   0  0  0  0  0  0  0  0  0  0  0  0  # atno 7974 bound_to 7965
  154.5188  140.2216  155.9014 H   0  0  0  0  0  0  0  0  0  0  0  0  # atno 8008 bound_to 7997
  156.1639  140.3136  155.8819 H   0  0  0  0  0  0  0  0  0  0  0  0  # atno 8009 bound_to 7997
  155.3696  140.0466  157.3036 H   0  0  0  0  0  0  0  0  0  0  0  0  # atno 8010 bound_to 7997
  139.5114  144.6358  151.5699 H   0  0  0  0  0  0  0  0  0  0  0  0  # atno 10167 bound_to 10162
  156.9138  130.5766  149.5647 H   0  0  0  0  0  0  0  0  0  0  0  0  # atno 10718 bound_to 10713
  154.7147  135.3013  154.9143 H   0  0  0  0  0  0  0  0  0  0  0  0  # atno 10763 bound_to 10752
  154.0033  135.6704  153.4764 H   0  0  0  0  0  0  0  0  0  0  0  0  # atno 10764 bound_to 10752
  153.0783  135.5022  154.8366 H   0  0  0  0  0  0  0  0  0  0  0  0  # atno 10765 bound_to 10752
  140.8561  134.2226  157.4733 H   0  0  0  0  0  0  0  0  0  0  0  0  # atno 11005 bound_to 11000
  145.9032  140.9229  143.0492 LP  0  0  0  0  0  0  0  0  0  0  0  0  # atno 17320 bound_to 7965
  144.6727  140.1060  143.7458 LP  0  0  0  0  0  0  0  0  0  0  0  0  # atno 17321 bound_to 7965
  140.6107  143.9441  150.6451 LP  0  0  0  0  0  0  0  0  0  0  0  0  # atno 17342 bound_to 10162
  140.2683  143.3474  152.1261 LP  0  0  0  0  0  0  0  0  0  0  0  0  # atno 17343 bound_to 10162
  156.0523  130.5590  150.9016 LP  0  0  0  0  0  0  0  0  0  0  0  0  # atno 17370 bound_to 10713
  157.5951  131.0943  150.9055 LP  0  0  0  0  0  0  0  0  0  0  0  0  # atno 17371 bound_to 10713
  139.8705  134.9707  156.4710 LP  0  0  0  0  0  0  0  0  0  0  0  0  # atno 17394 bound_to 11000
  140.8735  133.7970  155.9390 LP  0  0  0  0  0  0  0  0  0  0  0  0  # atno 17395 bound_to 11000

$$$$
