AV-unprocessed.smi:1483|AV-procd|sdf|5991|dock2
  -GOLD-   22720 6 83D 1   1.00000     0.00000
 Structure written by MMmdl.
 50 51  0  0  0  0  0  0  0  0  3 V2000
  144.3472  132.2014  149.2645 C   0  0  0  0  0  0  0  0  0  0  0  0
  144.2514  133.3737  150.2178 C   0  0  0  0  0  0  0  0  0  0  0  0
  143.4944  133.3175  151.4077 C   0  0  0  0  0  0  0  0  0  0  0  0
  143.4514  134.4471  152.2507 C   0  0  0  0  0  0  0  0  0  0  0  0
  144.1639  135.6114  151.8876 C   0  0  0  0  0  0  0  0  0  0  0  0
  144.1348  136.8444  152.7732 C   0  0  0  0  0  0  0  0  0  0  0  0
  145.5582  137.2963  153.1007 C   0  0  0  0  0  0  0  0  0  0  0  0
  146.4027  136.4675  153.4383 O   0  0  0  0  0  0  0  0  0  0  0  0
  145.8114  138.6102  152.9917 N   0  0  0  0  0  0  0  0  0  0  0  0
  147.1026  139.2421  153.2461 C   0  0  2  0  0  0  0  0  0  0  0  0
  147.7836  138.6169  154.4760 C   0  0  0  0  0  0  0  0  0  0  0  0
  149.0950  139.3448  154.8161 C   0  0  0  0  0  0  0  0  0  0  0  0
  148.8674  140.7980  155.0282 N   0  3  1  0  0  0  0  0  0  0  0  0
  150.0955  141.4964  155.4889 C   0  0  0  0  0  0  0  0  0  0  0  0
  150.8985  140.6897  156.5328 C   0  0  0  0  0  0  0  0  0  0  0  0
  151.6058  141.6343  157.5157 C   0  0  0  0  0  0  0  0  0  0  0  0
  151.9154  139.7456  155.8695 C   0  0  0  0  0  0  0  0  0  0  0  0
  148.2429  141.4303  153.8351 C   0  0  0  0  0  0  0  0  0  0  0  0
  146.9113  140.7490  153.4772 C   0  0  0  0  0  0  0  0  0  0  0  0
  144.9058  135.6084  150.6860 C   0  0  0  0  0  0  0  0  0  0  0  0
  144.9218  134.5055  149.9056 N   0  3  0  0  0  0  0  0  0  0  0  0
  143.6742  131.3970  149.5631 H   0  0  0  0  0  0  0  0  0  0  0  0
  145.3636  131.8075  149.2495 H   0  0  0  0  0  0  0  0  0  0  0  0
  144.0808  132.5085  148.2528 H   0  0  0  0  0  0  0  0  0  0  0  0
  142.9531  132.4213  151.6737 H   0  0  0  0  0  0  0  0  0  0  0  0
  142.8754  134.4180  153.1642 H   0  0  0  0  0  0  0  0  0  0  0  0
  143.5883  137.6497  152.2803 H   0  0  0  0  0  0  0  0  0  0  0  0
  143.5992  136.6214  153.6971 H   0  0  0  0  0  0  0  0  0  0  0  0
  145.0544  139.2166  152.7108 H   0  0  0  0  0  0  0  0  0  0  0  0
  147.7480  139.1103  152.3751 H   0  0  0  0  0  0  0  0  0  0  0  0
  147.1126  138.6613  155.3355 H   0  0  0  0  0  0  0  0  0  0  0  0
  147.9874  137.5603  154.2977 H   0  0  0  0  0  0  0  0  0  0  0  0
  149.5223  138.9030  155.7170 H   0  0  0  0  0  0  0  0  0  0  0  0
  149.8235  139.2024  154.0160 H   0  0  0  0  0  0  0  0  0  0  0  0
  150.7475  141.6885  154.6355 H   0  0  0  0  0  0  0  0  0  0  0  0
  149.8222  142.4758  155.8850 H   0  0  0  0  0  0  0  0  0  0  0  0
  150.2140  140.0825  157.1239 H   0  0  0  0  0  0  0  0  0  0  0  0
  152.3226  142.2774  157.0039 H   0  0  0  0  0  0  0  0  0  0  0  0
  152.1476  141.0746  158.2789 H   0  0  0  0  0  0  0  0  0  0  0  0
  150.8895  142.2768  158.0289 H   0  0  0  0  0  0  0  0  0  0  0  0
  152.6322  140.2979  155.2608 H   0  0  0  0  0  0  0  0  0  0  0  0
  151.4237  139.0159  155.2260 H   0  0  0  0  0  0  0  0  0  0  0  0
  152.4784  139.1880  156.6187 H   0  0  0  0  0  0  0  0  0  0  0  0
  148.0557  142.4875  154.0171 H   0  0  0  0  0  0  0  0  0  0  0  0
  148.9307  141.3747  152.9899 H   0  0  0  0  0  0  0  0  0  0  0  0
  146.4893  141.2136  152.5850 H   0  0  0  0  0  0  0  0  0  0  0  0
  146.1932  140.9152  154.2819 H   0  0  0  0  0  0  0  0  0  0  0  0
  145.4801  136.4498  150.3256 H   0  0  0  0  0  0  0  0  0  0  0  0
  148.2016  140.8694  155.7844 H   0  0  0  0  0  0  0  0  0  0  0  0
  145.4639  134.5283  149.0415 H   0  0  0  0  0  0  0  0  0  0  0  0
  1  2  1  0  0  0  0
  1 22  1  0  0  0  0
  1 23  1  0  0  0  0
  1 24  1  0  0  0  0
  2 21  1  0  0  0  0
  2  3  2  0  0  0  0
  3  4  1  0  0  0  0
  3 25  1  0  0  0  0
  4  5  2  0  0  0  0
  4 26  1  0  0  0  0
  5  6  1  0  0  0  0
  5 20  1  0  0  0  0
  6  7  1  0  0  0  0
  6 27  1  0  0  0  0
  6 28  1  0  0  0  0
  7  8  2  0  0  0  0
  7  9  1  0  0  0  0
  9 10  1  0  0  0  0
  9 29  1  0  0  0  0
 10 19  1  0  0  0  0
 10 11  1  0  0  0  0
 10 30  1  0  0  0  0
 11 12  1  0  0  0  0
 11 31  1  0  0  0  0
 11 32  1  0  0  0  0
 12 13  1  0  0  0  0
 12 33  1  0  0  0  0
 12 34  1  0  0  0  0
 13 14  1  0  0  0  0
 13 18  1  0  0  0  0
 13 49  1  0  0  0  0
 14 15  1  0  0  0  0
 14 35  1  0  0  0  0
 14 36  1  0  0  0  0
 15 16  1  0  0  0  0
 15 17  1  0  0  0  0
 15 37  1  0  0  0  0
 16 38  1  0  0  0  0
 16 39  1  0  0  0  0
 16 40  1  0  0  0  0
 17 41  1  0  0  0  0
 17 42  1  0  0  0  0
 17 43  1  0  0  0  0
 18 19  1  0  0  0  0
 18 44  1  0  0  0  0
 18 45  1  0  0  0  0
 19 46  1  0  0  0  0
 19 47  1  0  0  0  0
 20 21  2  0  0  0  0
 20 48  1  0  0  0  0
 21 50  1  0  0  0  0
M  CHG  1  13   1
M  CHG  1  21   1
M  END
> <s_m_source_file>
AV-unprocessed.smi

> <i_m_source_file_index>
1483

> <i_lp_mmshare_version>
43012

> <i_f3d_flags>
0

> <s_epik_input>
W0NIM11jMVtjSF1bY0hdYyhbY0hdbjEpW0NIMl1DKD1PKVtOSF1bQ0hdMltDSDJdW0NIMl1OKFtDSDJdW0NIMl0yKVtDSDJdW0NIXShbQ0gzXSlbQ0gzXQ==

> <s_epik_cmdline>
J2VwaWtfcHl0aG9uJywgJy1waCcsICc3LjAnLCAnLXRuJywgJzgnLCAnLW1hJywgJzIwMCcsICctbWV0YWxfYmluZGluZycsICctaW1hZScsICc8aW5maWxlLm1hZT4nLCAnLW9tYWUnLCAnPG91dGZpbGUubWFlPic=

> <r_epik_Ionization_Penalty>
2.20554

> <r_epik_Ionization_Penalty_Charging>
2.20554

> <r_epik_Ionization_Penalty_Neutral>
2.83835e-07

> <r_epik_State_Penalty>
2.34446

> <r_epik_Charging_Adjusted_Penalty>
4.55

> <i_epik_Tot_Q>
2

> <i_epik_Tot_abs_Q>
2

> <r_epik_Metal_State_Penalty>
2.35906

> <b_epik_Metal_Only>
0

> <s_lp_Force_Field>
OPLS_2005

> <r_lp_Energy>
27.324

> <b_lp_Chiralities_Consistent>
1

> <s_lp_Variant>
AV-unprocessed.smi:1483-3

> <Gold.Version>
5.8.1

> <Gold.Id.Protein>
6NUR|6NUR_protein|mol2

> <Gold.PLP.Fitness>
43.4871

> <Gold.PLP.PLP>
-39.4234

> <Gold.PLP.part.hbond>
-2.0000

> <Gold.PLP.part.metal>
0.0000

> <Gold.PLP.part.buried>
-5.0838

> <Gold.PLP.part.nonpolar>
-33.9270

> <Gold.PLP.part.repulsive>
0.9995

> <Gold.PLP.ligand.clash>
0.0000

> <Gold.PLP.ligand.torsion>
0.9923

> <Gold.PLP.Chemscore.Hbond>
2.0000

> <Gold.PLP.Chemscore.CHOScore>
0.0000

> <Gold.PLP.Chemscore.Metal>
0.0000

> <Gold.Chemscore.Hbonds>
donor molecule, donor type, donor heavy atom, donor atom, acceptor molecule, acceptor atom, score
      L1  H     9    29       P1 10175  1.00
      L1  H    21    50       P1  7921  1.00

> <Gold.PLP.Chemscore.Internal.Correction>
0.0483

> <Gold.Rescore>
     Score         DG    S(hbond)    S(metal)    S(lipo)     H(rot)  DE(clash)    DE(int)     intcor
     17.76     -20.45       2.00        0.00     104.92       1.55       0.24       2.45       ----

> <Gold.Chemscore.Fitness>
17.7599

> <Gold.Chemscore.DG>
-20.4505

> <Gold.Chemscore.ZeroCoef>
-5.4800

> <Gold.Chemscore.Hbond>
1.9965

> <Gold.Chemscore.Metal>
0.0000

> <Gold.Chemscore.Lipo>
104.9178

> <Gold.Chemscore.Internal_Hbond>
0.0000

> <Gold.Chemscore.DEClash>
0.2362

> <Gold.Chemscore.DEInternal>
2.4544

> <Gold.Chemscore.Rot>
1.5520

> <Gold.Chemscore.Internal.Correction>
   9.000000E+99

> <Gold.Chemscore.Hbonds>
donor molecule, donor type, donor heavy atom, donor atom, acceptor molecule, acceptor atom, score
      L1  H     9    29       P1 10175  1.00
      L1  H    21    50       P1  7921  0.97

> <Gold.Chemscore.Hbond.Weighted>
-6.6682

> <Gold.Chemscore.Metal.Weighted>
-0.0000

> <Gold.Chemscore.Lipo.Weighted>
-12.2754

> <Gold.Chemscore.Internal_Hbond.Weighted>
0.0000

> <Gold.Chemscore.DEClash.Weighted>
0.2362

> <Gold.Chemscore.DEInternal.Weighted>
2.4544

> <Gold.Chemscore.Rot.Weighted>
3.9730

> <Gold.Chemscore.Internal.Correction.Weighted>
   9.000000E+99

> <Gold.Protein.RotatedTorsions>
[ 6907 6896 6895 6894 ] final -179.46 input  -60.11 | X-H torsion
[ 7974 7965 7964 7962 ] final  -52.58 input  175.53 | X-H torsion
[ 8008 7997 7996 7995 ] final   49.22 input   59.86 | X-H torsion
[ 10167 10162 10161 10158 ] final  154.16 input  -65.29 | X-H torsion
[ 10718 10713 10712 10709 ] final  -93.72 input   66.30 | X-H torsion
[ 10763 10752 10751 10750 ] final  106.46 input  -60.55 | X-H torsion
[ 11005 11000 10999 10996 ] final  114.60 input  -57.11 | X-H torsion

> <Gold.Protein.ActiveResidues>
 VAL166  LYS551  ARG553  GLY616  TRP617  ASP618  TYR619  PRO620  LYS621  CYS622 
 ASP623  PHE694  ASN695  SER759  ASP760  ASP761  ALA762  ILE779  LEU786  VAL792 
 PHE793  MET794  SER795  GLU796  ALA797  LYS798  CYS799  TRP800  GLU811  SER814 

> <Gold.Protein.RotatedAtoms>
  151.6537  133.3320  159.3157 H   0  0  0  0  0  0  0  0  0  0  0  0  # atno 6907 bound_to 6896
  150.7947  134.7002  159.6555 H   0  0  0  0  0  0  0  0  0  0  0  0  # atno 6908 bound_to 6896
  152.4033  134.6254  160.0113 H   0  0  0  0  0  0  0  0  0  0  0  0  # atno 6909 bound_to 6896
  145.9064  140.7952  142.9717 H   0  0  0  0  0  0  0  0  0  0  0  0  # atno 7974 bound_to 7965
  155.3986  140.3437  155.4255 H   0  0  0  0  0  0  0  0  0  0  0  0  # atno 8008 bound_to 7997
  156.1516  140.1573  156.8792 H   0  0  0  0  0  0  0  0  0  0  0  0  # atno 8009 bound_to 7997
  154.5058  140.0803  156.7872 H   0  0  0  0  0  0  0  0  0  0  0  0  # atno 8010 bound_to 7997
  139.4824  144.5211  151.7875 H   0  0  0  0  0  0  0  0  0  0  0  0  # atno 10167 bound_to 10162
  156.0017  130.5038  150.5818 H   0  0  0  0  0  0  0  0  0  0  0  0  # atno 10718 bound_to 10713
  153.3933  135.3876  155.1938 H   0  0  0  0  0  0  0  0  0  0  0  0  # atno 10763 bound_to 10752
  154.8721  135.3753  154.4710 H   0  0  0  0  0  0  0  0  0  0  0  0  # atno 10764 bound_to 10752
  153.5199  135.7087  153.5798 H   0  0  0  0  0  0  0  0  0  0  0  0  # atno 10765 bound_to 10752
  139.8985  134.9570  156.6917 H   0  0  0  0  0  0  0  0  0  0  0  0  # atno 11005 bound_to 11000
  144.6739  140.1757  143.7410 LP  0  0  0  0  0  0  0  0  0  0  0  0  # atno 17320 bound_to 7965
  145.8727  139.2280  143.1652 LP  0  0  0  0  0  0  0  0  0  0  0  0  # atno 17321 bound_to 7965
  140.4725  144.1566  150.5920 LP  0  0  0  0  0  0  0  0  0  0  0  0  # atno 17342 bound_to 10162
  140.4367  143.2544  151.9526 LP  0  0  0  0  0  0  0  0  0  0  0  0  # atno 17343 bound_to 10162
  157.3697  131.0763  151.1568 LP  0  0  0  0  0  0  0  0  0  0  0  0  # atno 17370 bound_to 10713
  157.2325  130.6532  149.5855 LP  0  0  0  0  0  0  0  0  0  0  0  0  # atno 17371 bound_to 10713
  140.7220  133.9133  155.8153 LP  0  0  0  0  0  0  0  0  0  0  0  0  # atno 17394 bound_to 11000
  141.0220  134.0875  157.4110 LP  0  0  0  0  0  0  0  0  0  0  0  0  # atno 17395 bound_to 11000

$$$$
