AV-unprocessed.smi:145|AV-procd|sdf|1197|dock7
  -GOLD-   2262018353D 1   1.00000     0.00000
 Structure written by MMmdl.
 40 42  0  0  0  0  0  0  0  0  1 V2000
  153.0868  138.8880  157.2635 O   0  0  0  0  0  0  0  0  0  0  0  0
  152.3007  139.3387  156.4293 C   0  0  0  0  0  0  0  0  0  0  0  0
  152.0195  138.5730  155.1265 C   0  0  0  0  0  0  0  0  0  0  0  0
  150.6020  138.1818  154.9596 N   0  0  0  0  0  0  0  0  0  0  0  0
  149.6706  139.1644  154.5408 C   0  0  0  0  0  0  0  0  0  0  0  0
  150.0182  140.3283  154.3360 O   0  0  0  0  0  0  0  0  0  0  0  0
  148.3003  138.6977  154.3631 C   0  0  0  0  0  0  0  0  0  0  0  0
  147.3517  139.5566  153.9528 F   0  0  0  0  0  0  0  0  0  0  0  0
  147.9688  137.4119  154.6001 C   0  0  0  0  0  0  0  0  0  0  0  0
  148.8815  136.4686  155.0290 N   0  0  0  0  0  0  0  0  0  0  0  0
  148.4304  135.0391  155.2209 C   0  0  2  0  0  0  0  0  0  0  0  0
  149.2654  134.0162  154.4275 C   0  0  0  0  0  0  0  0  0  0  0  0
  148.2247  133.3279  153.5596 C   0  0  0  0  0  0  0  0  0  0  0  0
  146.9224  133.6120  154.3003 C   0  0  0  0  0  0  0  0  0  0  0  0
  147.1076  134.9292  154.7942 O   0  0  0  0  0  0  0  0  0  0  0  0
  150.2388  136.8327  155.1882 C   0  0  0  0  0  0  0  0  0  0  0  0
  151.0868  135.9986  155.5095 O   0  0  0  0  0  0  0  0  0  0  0  0
  151.6531  140.5119  156.5496 N   0  0  0  0  0  0  0  0  0  0  0  0
  151.6943  141.4428  157.6229 C   0  0  0  0  0  0  0  0  0  0  0  0
  151.1924  142.7641  157.5318 C   0  0  0  0  0  0  0  0  0  0  0  0
  151.2870  143.6358  158.6343 C   0  0  0  0  0  0  0  0  0  0  0  0
  151.8895  143.2016  159.8298 C   0  0  0  0  0  0  0  0  0  0  0  0
  152.4052  141.8953  159.9211 C   0  0  0  0  0  0  0  0  0  0  0  0
  153.3120  141.2496  161.6910 I   0  0  0  0  0  0  0  0  0  0  0  0
  152.3121  141.0225  158.8195 C   0  0  0  0  0  0  0  0  0  0  0  0
  152.3537  139.1834  154.2859 H   0  0  0  0  0  0  0  0  0  0  0  0
  152.6729  137.6997  155.0926 H   0  0  0  0  0  0  0  0  0  0  0  0
  146.9410  137.1164  154.4472 H   0  0  0  0  0  0  0  0  0  0  0  0
  148.4771  134.8499  156.2943 H   0  0  0  0  0  0  0  0  0  0  0  0
  150.0623  134.4833  153.8481 H   0  0  0  0  0  0  0  0  0  0  0  0
  149.7159  133.3156  155.1313 H   0  0  0  0  0  0  0  0  0  0  0  0
  148.1973  133.7864  152.5709 H   0  0  0  0  0  0  0  0  0  0  0  0
  148.4155  132.2623  153.4310 H   0  0  0  0  0  0  0  0  0  0  0  0
  146.0462  133.5438  153.6555 H   0  0  0  0  0  0  0  0  0  0  0  0
  146.7915  132.9232  155.1366 H   0  0  0  0  0  0  0  0  0  0  0  0
  151.1152  140.8017  155.7460 H   0  0  0  0  0  0  0  0  0  0  0  0
  150.7442  143.1356  156.6233 H   0  0  0  0  0  0  0  0  0  0  0  0
  150.9010  144.6417  158.5595 H   0  0  0  0  0  0  0  0  0  0  0  0
  151.9611  143.8729  160.6729 H   0  0  0  0  0  0  0  0  0  0  0  0
  152.7133  140.0226  158.8995 H   0  0  0  0  0  0  0  0  0  0  0  0
  1  2  2  0  0  0  0
  2  3  1  0  0  0  0
  2 18  1  0  0  0  0
  3  4  1  0  0  0  0
  3 26  1  0  0  0  0
  3 27  1  0  0  0  0
  4 16  1  0  0  0  0
  4  5  1  0  0  0  0
  5  6  2  0  0  0  0
  5  7  1  0  0  0  0
  7  8  1  0  0  0  0
  7  9  2  0  0  0  0
  9 10  1  0  0  0  0
  9 28  1  0  0  0  0
 10 11  1  0  0  0  0
 10 16  1  0  0  0  0
 11 15  1  0  0  0  0
 11 12  1  0  0  0  0
 11 29  1  0  0  0  0
 12 13  1  0  0  0  0
 12 30  1  0  0  0  0
 12 31  1  0  0  0  0
 13 14  1  0  0  0  0
 13 32  1  0  0  0  0
 13 33  1  0  0  0  0
 14 15  1  0  0  0  0
 14 34  1  0  0  0  0
 14 35  1  0  0  0  0
 16 17  2  0  0  0  0
 18 19  1  0  0  0  0
 18 36  1  0  0  0  0
 19 25  1  0  0  0  0
 19 20  2  0  0  0  0
 20 21  1  0  0  0  0
 20 37  1  0  0  0  0
 21 22  2  0  0  0  0
 21 38  1  0  0  0  0
 22 23  1  0  0  0  0
 22 39  1  0  0  0  0
 23 24  1  0  0  0  0
 23 25  2  0  0  0  0
 25 40  1  0  0  0  0
M  END
> <s_m_source_file>
AV-unprocessed.smi

> <i_m_source_file_index>
145

> <i_lp_mmshare_version>
43012

> <i_f3d_flags>
0

> <s_epik_input>
SWMoW2NIXTEpW2NIXVtjSF1bY0hdYzFbTkhdQyg9TylbQ0gyXW4yYyg9TyljKEYpW2NIXW4oYzI9TylbQ0BASF0zW0NIMl1bQ0gyXVtDSDJdTzM=

> <s_epik_cmdline>
J2VwaWtfcHl0aG9uJywgJy1waCcsICc3LjAnLCAnLXRuJywgJzgnLCAnLW1hJywgJzIwMCcsICctbWV0YWxfYmluZGluZycsICctaW1hZScsICc8aW5maWxlLm1hZT4nLCAnLW9tYWUnLCAnPG91dGZpbGUubWFlPic=

> <r_lp_tautomer_probability>
1

> <r_epik_Ionization_Penalty>
9.72367e-07

> <r_epik_Ionization_Penalty_Charging>
3.88729e-08

> <r_epik_Ionization_Penalty_Neutral>
9.33494e-07

> <r_epik_State_Penalty>
-0

> <r_epik_Charging_Adjusted_Penalty>
3.88729e-08

> <i_epik_Tot_Q>
0

> <i_epik_Tot_abs_Q>
0

> <r_epik_Metal_State_Penalty>
-0

> <b_epik_Metal_Only>
0

> <s_epik_Chemistry_Notes>
This compound contains an acetal/aminal-like group ( X-CH(R)-Y where X, Y are N, S, or O) that may be acid/base labile, releasing an aldehyde.

> <s_lp_Force_Field>
OPLS_2005

> <r_lp_Energy>
28.2642

> <b_lp_Chiralities_Consistent>
1

> <s_lp_Variant>
AV-unprocessed.smi:145-1

> <Gold.Version>
5.8.1

> <Gold.Id.Protein>
6NUR|6NUR_protein|mol2

> <Gold.PLP.Fitness>
49.5080

> <Gold.PLP.PLP>
-42.0612

> <Gold.PLP.part.hbond>
-2.7124

> <Gold.PLP.part.metal>
0.0000

> <Gold.PLP.part.buried>
-3.2310

> <Gold.PLP.part.nonpolar>
-36.7296

> <Gold.PLP.part.repulsive>
0.5948

> <Gold.PLP.ligand.clash>
0.0000

> <Gold.PLP.ligand.torsion>
0.3703

> <Gold.PLP.Chemscore.Hbond>
2.7205

> <Gold.PLP.Chemscore.CHOScore>
0.0000

> <Gold.PLP.Chemscore.Metal>
0.0000

> <Gold.Chemscore.Hbonds>
donor molecule, donor type, donor heavy atom, donor atom, acceptor molecule, acceptor atom, score
      P1  H  7989  7998       L1     6  0.91
      P1  H  7997  8010       L1     1  0.19
      P1  H 10752 10763       L1    17  0.70

> <Gold.PLP.Chemscore.Internal.Correction>
0.0258

> <Gold.Rescore>
     Score         DG    S(hbond)    S(metal)    S(lipo)     H(rot)  DE(clash)    DE(int)     intcor
     15.81     -19.00       1.97        0.00      95.55       1.66       0.29       2.90       ----

> <Gold.Chemscore.Fitness>
15.8087

> <Gold.Chemscore.DG>
-18.9992

> <Gold.Chemscore.ZeroCoef>
-5.4800

> <Gold.Chemscore.Hbond>
1.9745

> <Gold.Chemscore.Metal>
0.0000

> <Gold.Chemscore.Lipo>
95.5505

> <Gold.Chemscore.Internal_Hbond>
0.0000

> <Gold.Chemscore.DEClash>
0.2949

> <Gold.Chemscore.DEInternal>
2.8956

> <Gold.Chemscore.Rot>
1.6621

> <Gold.Chemscore.Internal.Correction>
   9.000000E+99

> <Gold.Chemscore.Hbonds>
donor molecule, donor type, donor heavy atom, donor atom, acceptor molecule, acceptor atom, score
      P1  H  7989  7998       L1     6  0.88
      P1  H 10752 10763       L1    17  0.66

> <Gold.Chemscore.Hbond.Weighted>
-6.5948

> <Gold.Chemscore.Metal.Weighted>
-0.0000

> <Gold.Chemscore.Lipo.Weighted>
-11.1794

> <Gold.Chemscore.Internal_Hbond.Weighted>
0.0000

> <Gold.Chemscore.DEClash.Weighted>
0.2949

> <Gold.Chemscore.DEInternal.Weighted>
2.8956

> <Gold.Chemscore.Rot.Weighted>
4.2550

> <Gold.Chemscore.Internal.Correction.Weighted>
   9.000000E+99

> <Gold.Protein.RotatedTorsions>
[ 6907 6896 6895 6894 ] final  153.15 input  -60.11 | X-H torsion
[ 7974 7965 7964 7962 ] final  102.46 input  175.53 | X-H torsion
[ 8008 7997 7996 7995 ] final   74.21 input   59.86 | X-H torsion
[ 10167 10162 10161 10158 ] final   -5.90 input  -65.29 | X-H torsion
[ 10718 10713 10712 10709 ] final  108.36 input   66.30 | X-H torsion
[ 10763 10752 10751 10750 ] final   50.03 input  -60.55 | X-H torsion
[ 11005 11000 10999 10996 ] final  -17.22 input  -57.11 | X-H torsion

> <Gold.Protein.ActiveResidues>
 VAL166  LYS551  ARG553  GLY616  TRP617  ASP618  TYR619  PRO620  LYS621  CYS622 
 ASP623  PHE694  ASN695  SER759  ASP760  ASP761  ALA762  ILE779  LEU786  VAL792 
 PHE793  MET794  SER795  GLU796  ALA797  LYS798  CYS799  TRP800  GLU811  SER814 

> <Gold.Protein.RotatedAtoms>
  152.0767  133.4133  159.4482 H   0  0  0  0  0  0  0  0  0  0  0  0  # atno 6907 bound_to 6896
  150.6862  134.3029  159.4723 H   0  0  0  0  0  0  0  0  0  0  0  0  # atno 6908 bound_to 6896
  152.0867  134.9434  160.0623 H   0  0  0  0  0  0  0  0  0  0  0  0  # atno 6909 bound_to 6896
  145.3588  139.2422  143.3518 H   0  0  0  0  0  0  0  0  0  0  0  0  # atno 7974 bound_to 7965
  155.7949  140.3478  155.5370 H   0  0  0  0  0  0  0  0  0  0  0  0  # atno 8008 bound_to 7997
  155.8596  140.0969  157.1642 H   0  0  0  0  0  0  0  0  0  0  0  0  # atno 8009 bound_to 7997
  154.4011  140.1361  156.3932 H   0  0  0  0  0  0  0  0  0  0  0  0  # atno 8010 bound_to 7997
  140.6979  143.6256  150.8571 H   0  0  0  0  0  0  0  0  0  0  0  0  # atno 10167 bound_to 10162
  157.6589  131.0892  150.6293 H   0  0  0  0  0  0  0  0  0  0  0  0  # atno 10718 bound_to 10713
  152.9785  135.5892  154.4186 H   0  0  0  0  0  0  0  0  0  0  0  0  # atno 10763 bound_to 10752
  154.3813  135.2767  155.2211 H   0  0  0  0  0  0  0  0  0  0  0  0  # atno 10764 bound_to 10752
  154.4124  135.6078  153.6015 H   0  0  0  0  0  0  0  0  0  0  0  0  # atno 10765 bound_to 10752
  140.8146  133.8114  155.9597 H   0  0  0  0  0  0  0  0  0  0  0  0  # atno 11005 bound_to 11000
  146.2936  140.4218  142.8730 LP  0  0  0  0  0  0  0  0  0  0  0  0  # atno 17320 bound_to 7965
  144.8662  140.7209  143.6076 LP  0  0  0  0  0  0  0  0  0  0  0  0  # atno 17321 bound_to 7965
  139.9975  143.5779  152.2887 LP  0  0  0  0  0  0  0  0  0  0  0  0  # atno 17342 bound_to 10162
  139.6457  144.7658  151.2248 LP  0  0  0  0  0  0  0  0  0  0  0  0  # atno 17343 bound_to 10162
  156.6598  130.4509  149.5691 LP  0  0  0  0  0  0  0  0  0  0  0  0  # atno 17370 bound_to 10713
  156.2076  130.6658  151.1235 LP  0  0  0  0  0  0  0  0  0  0  0  0  # atno 17371 bound_to 10713
  140.9162  134.2198  157.4955 LP  0  0  0  0  0  0  0  0  0  0  0  0  # atno 17394 bound_to 11000
  139.8712  134.9772  156.4951 LP  0  0  0  0  0  0  0  0  0  0  0  0  # atno 17395 bound_to 11000

$$$$
