AV-unprocessed.smi:1978|AV-procd|sdf|7993|dock10
  -GOLD-   2272010173D 1   1.00000     0.00000
 Structure written by MMmdl.
 45 46  0  0  0  0  0  0  0  0  2 V2000
  153.5591  137.6299  156.9043 C   0  0  0  0  0  0  0  0  0  0  0  0
  152.5553  138.2847  156.0183 C   0  0  0  0  0  0  0  0  0  0  0  0
  151.5250  137.8005  155.2623 C   0  0  0  0  0  0  0  0  0  0  0  0
  150.9839  138.9728  154.6706 C   0  0  0  0  0  0  0  0  0  0  0  0
  149.8770  138.8988  153.7868 N   0  0  0  0  0  0  0  0  0  0  0  0
  148.6331  138.4759  154.0690 C   0  0  0  0  0  0  0  0  0  0  0  0
  148.2598  138.0433  155.1599 O   0  0  0  0  0  0  0  0  0  0  0  0
  147.8247  138.5826  153.0043 N   0  0  0  0  0  0  0  0  0  0  0  0
  146.4125  138.2085  152.9922 C   0  0  0  0  0  0  0  0  0  0  0  0
  146.1268  136.8569  153.7103 C   0  0  1  0  0  0  0  0  0  0  0  0
  144.7706  136.9569  154.4563 C   0  0  0  0  0  0  0  0  0  0  0  0
  146.1819  135.6981  152.7517 N   0  3  1  0  0  0  0  0  0  0  0  0
  145.9623  134.3670  153.3970 C   0  0  0  0  0  0  0  0  0  0  0  0
  146.2745  133.2094  152.4343 C   0  0  0  0  0  0  0  0  0  0  0  0
  145.4504  133.3121  151.1498 C   0  0  0  0  0  0  0  0  0  0  0  0
  145.6599  134.6916  150.5156 C   0  0  0  0  0  0  0  0  0  0  0  0
  145.3590  135.8391  151.5028 C   0  0  1  0  0  0  0  0  0  0  0  0
  143.8435  135.9826  151.7749 C   0  0  0  0  0  0  0  0  0  0  0  0
  151.6250  140.0732  155.0337 N   0  0  0  0  0  0  0  0  0  0  0  0
  152.6354  139.6378  155.8993 O   0  0  0  0  0  0  0  0  0  0  0  0
  153.3541  136.5640  157.0045 H   0  0  0  0  0  0  0  0  0  0  0  0
  153.5429  138.0721  157.9005 H   0  0  0  0  0  0  0  0  0  0  0  0
  154.5644  137.7443  156.4990 H   0  0  0  0  0  0  0  0  0  0  0  0
  151.2132  136.7726  155.1517 H   0  0  0  0  0  0  0  0  0  0  0  0
  150.0489  139.2141  152.8435 H   0  0  0  0  0  0  0  0  0  0  0  0
  148.2099  138.9462  152.1447 H   0  0  0  0  0  0  0  0  0  0  0  0
  145.8486  139.0087  153.4725 H   0  0  0  0  0  0  0  0  0  0  0  0
  146.1054  138.2053  151.9487 H   0  0  0  0  0  0  0  0  0  0  0  0
  146.9034  136.6930  154.4584 H   0  0  0  0  0  0  0  0  0  0  0  0
  144.7278  137.8258  155.1123 H   0  0  0  0  0  0  0  0  0  0  0  0
  144.5828  136.1040  155.1065 H   0  0  0  0  0  0  0  0  0  0  0  0
  143.9389  137.0373  153.7556 H   0  0  0  0  0  0  0  0  0  0  0  0
  146.6035  134.2258  154.2621 H   0  0  0  0  0  0  0  0  0  0  0  0
  144.9393  134.2925  153.7665 H   0  0  0  0  0  0  0  0  0  0  0  0
  147.3370  133.2180  152.1878 H   0  0  0  0  0  0  0  0  0  0  0  0
  146.0795  132.2547  152.9239 H   0  0  0  0  0  0  0  0  0  0  0  0
  145.7441  132.5285  150.4508 H   0  0  0  0  0  0  0  0  0  0  0  0
  144.3947  133.1506  151.3694 H   0  0  0  0  0  0  0  0  0  0  0  0
  146.6936  134.7733  150.1760 H   0  0  0  0  0  0  0  0  0  0  0  0
  145.0417  134.7883  149.6224 H   0  0  0  0  0  0  0  0  0  0  0  0
  145.6817  136.7362  150.9769 H   0  0  0  0  0  0  0  0  0  0  0  0
  143.2996  136.1252  150.8407 H   0  0  0  0  0  0  0  0  0  0  0  0
  143.6166  136.8404  152.4062 H   0  0  0  0  0  0  0  0  0  0  0  0
  143.4214  135.1034  152.2594 H   0  0  0  0  0  0  0  0  0  0  0  0
  147.1375  135.6807  152.4253 H   0  0  0  0  0  0  0  0  0  0  0  0
  1  2  1  0  0  0  0
  1 21  1  0  0  0  0
  1 22  1  0  0  0  0
  1 23  1  0  0  0  0
  2 20  1  0  0  0  0
  2  3  2  0  0  0  0
  3  4  1  0  0  0  0
  3 24  1  0  0  0  0
  4  5  1  0  0  0  0
  4 19  2  0  0  0  0
  5  6  1  0  0  0  0
  5 25  1  0  0  0  0
  6  7  2  0  0  0  0
  6  8  1  0  0  0  0
  8  9  1  0  0  0  0
  8 26  1  0  0  0  0
  9 10  1  0  0  0  0
  9 27  1  0  0  0  0
  9 28  1  0  0  0  0
 10 11  1  0  0  0  0
 10 12  1  0  0  0  0
 10 29  1  0  0  0  0
 11 30  1  0  0  0  0
 11 31  1  0  0  0  0
 11 32  1  0  0  0  0
 12 17  1  0  0  0  0
 12 13  1  0  0  0  0
 12 45  1  0  0  0  0
 13 14  1  0  0  0  0
 13 33  1  0  0  0  0
 13 34  1  0  0  0  0
 14 15  1  0  0  0  0
 14 35  1  0  0  0  0
 14 36  1  0  0  0  0
 15 16  1  0  0  0  0
 15 37  1  0  0  0  0
 15 38  1  0  0  0  0
 16 17  1  0  0  0  0
 16 39  1  0  0  0  0
 16 40  1  0  0  0  0
 17 18  1  0  0  0  0
 17 41  1  0  0  0  0
 18 42  1  0  0  0  0
 18 43  1  0  0  0  0
 18 44  1  0  0  0  0
 19 20  1  0  0  0  0
M  CHG  1  12   1
M  END
> <s_m_source_file>
AV-unprocessed.smi

> <i_m_source_file_index>
1978

> <i_lp_mmshare_version>
43012

> <i_f3d_flags>
0

> <s_epik_input>
W0NIM11jMVtjSF1jKG5vMSlbTkhdQyg9TylbTkhdW0NIMl1bQ0BIXShbQ0gzXSlOMltDSDJdW0NIMl1bQ0gyXVtDSDJdW0NASF0yW0NIM10=

> <s_epik_cmdline>
J2VwaWtfcHl0aG9uJywgJy1waCcsICc3LjAnLCAnLXRuJywgJzgnLCAnLW1hJywgJzIwMCcsICctbWV0YWxfYmluZGluZycsICctaW1hZScsICc8aW5maWxlLm1hZT4nLCAnLW9tYWUnLCAnPG91dGZpbGUubWFlPic=

> <r_epik_Ionization_Penalty>
0.00265971

> <r_epik_Ionization_Penalty_Charging>
0.00262393

> <r_epik_Ionization_Penalty_Neutral>
3.57846e-05

> <r_epik_State_Penalty>
0.00182566

> <r_epik_Charging_Adjusted_Penalty>
0.00444959

> <i_epik_Tot_Q>
1

> <i_epik_Tot_abs_Q>
1

> <r_epik_Metal_State_Penalty>
0.0216344

> <b_epik_Metal_Only>
0

> <s_lp_Force_Field>
OPLS_2005

> <r_lp_Energy>
22.9601

> <b_lp_Chiralities_Consistent>
1

> <s_lp_Variant>
AV-unprocessed.smi:1978-2

> <Gold.Version>
5.8.1

> <Gold.Id.Protein>
6NUR|6NUR_protein|mol2

> <Gold.PLP.Fitness>
44.6608

> <Gold.PLP.PLP>
-29.0211

> <Gold.PLP.part.hbond>
-6.0000

> <Gold.PLP.part.metal>
0.0000

> <Gold.PLP.part.buried>
-3.4804

> <Gold.PLP.part.nonpolar>
-20.4836

> <Gold.PLP.part.repulsive>
0.2778

> <Gold.PLP.ligand.clash>
0.0074

> <Gold.PLP.ligand.torsion>
1.2170

> <Gold.PLP.Chemscore.Hbond>
6.0000

> <Gold.PLP.Chemscore.CHOScore>
0.0000

> <Gold.PLP.Chemscore.Metal>
0.0000

> <Gold.Chemscore.Hbonds>
donor molecule, donor type, donor heavy atom, donor atom, acceptor molecule, acceptor atom, score
      L1  H     5    25       P1  7957  1.00
      L1  H     8    26       P1  7957  1.00
      L1  H    12    45       P1  7948  2.00
      P1  H  7989  7998       L1    19  0.95
      P1  H  7997  8010       L1    20  1.00

> <Gold.PLP.Chemscore.Internal.Correction>
0.0811

> <Gold.Rescore>
     Score         DG    S(hbond)    S(metal)    S(lipo)     H(rot)  DE(clash)    DE(int)     intcor
     17.35     -21.37       4.02        0.00      54.83       1.55       0.38       3.63       ----

> <Gold.Chemscore.Fitness>
17.3511

> <Gold.Chemscore.DG>
-21.3671

> <Gold.Chemscore.ZeroCoef>
-5.4800

> <Gold.Chemscore.Hbond>
4.0221

> <Gold.Chemscore.Metal>
0.0000

> <Gold.Chemscore.Lipo>
54.8258

> <Gold.Chemscore.Internal_Hbond>
0.0000

> <Gold.Chemscore.DEClash>
0.3846

> <Gold.Chemscore.DEInternal>
3.6313

> <Gold.Chemscore.Rot>
1.5474

> <Gold.Chemscore.Internal.Correction>
   9.000000E+99

> <Gold.Chemscore.Hbonds>
donor molecule, donor type, donor heavy atom, donor atom, acceptor molecule, acceptor atom, score
      L1  H     5    25       P1  7957  0.87
      L1  H     8    26       P1  7957  0.91
      L1  H    12    45       P1  7948  0.99
      P1  H  7989  7998       L1    19  0.21
      P1  H  7997  8010       L1    20  0.65

> <Gold.Chemscore.Hbond.Weighted>
-13.4337

> <Gold.Chemscore.Metal.Weighted>
-0.0000

> <Gold.Chemscore.Lipo.Weighted>
-6.4146

> <Gold.Chemscore.Internal_Hbond.Weighted>
0.0000

> <Gold.Chemscore.DEClash.Weighted>
0.3846

> <Gold.Chemscore.DEInternal.Weighted>
3.6313

> <Gold.Chemscore.Rot.Weighted>
3.9612

> <Gold.Chemscore.Internal.Correction.Weighted>
   9.000000E+99

> <Gold.Protein.RotatedTorsions>
[ 6907 6896 6895 6894 ] final   -5.04 input  -60.11 | X-H torsion
[ 7974 7965 7964 7962 ] final  159.97 input  175.53 | X-H torsion
[ 8008 7997 7996 7995 ] final   84.01 input   59.86 | X-H torsion
[ 10167 10162 10161 10158 ] final   92.65 input  -65.29 | X-H torsion
[ 10718 10713 10712 10709 ] final  174.85 input   66.30 | X-H torsion
[ 10763 10752 10751 10750 ] final   76.82 input  -60.55 | X-H torsion
[ 11005 11000 10999 10996 ] final  128.51 input  -57.11 | X-H torsion

> <Gold.Protein.ActiveResidues>
 VAL166  LYS551  ARG553  GLY616  TRP617  ASP618  TYR619  PRO620  LYS621  CYS622 
 ASP623  PHE694  ASN695  SER759  ASP760  ASP761  ALA762  ILE779  LEU786  VAL792 
 PHE793  MET794  SER795  GLU796  ALA797  LYS798  CYS799  TRP800  GLU811  SER814 

> <Gold.Protein.RotatedAtoms>
  151.4880  135.1056  159.9795 H   0  0  0  0  0  0  0  0  0  0  0  0  # atno 6907 bound_to 6896
  152.4752  133.8119  159.7018 H   0  0  0  0  0  0  0  0  0  0  0  0  # atno 6908 bound_to 6896
  150.8786  133.7342  159.2965 H   0  0  0  0  0  0  0  0  0  0  0  0  # atno 6909 bound_to 6896
  144.7762  139.7691  143.6278 H   0  0  0  0  0  0  0  0  0  0  0  0  # atno 7974 bound_to 7965
  155.9315  140.3414  155.6253 H   0  0  0  0  0  0  0  0  0  0  0  0  # atno 8008 bound_to 7997
  155.7152  140.0776  157.2373 H   0  0  0  0  0  0  0  0  0  0  0  0  # atno 8009 bound_to 7997
  154.4086  140.1615  156.2328 H   0  0  0  0  0  0  0  0  0  0  0  0  # atno 8010 bound_to 7997
  139.8256  144.6711  150.9464 H   0  0  0  0  0  0  0  0  0  0  0  0  # atno 10167 bound_to 10162
  156.9435  131.0009  151.2963 H   0  0  0  0  0  0  0  0  0  0  0  0  # atno 10718 bound_to 10713
  153.0753  135.4937  154.8391 H   0  0  0  0  0  0  0  0  0  0  0  0  # atno 10763 bound_to 10752
  154.7079  135.3014  154.9245 H   0  0  0  0  0  0  0  0  0  0  0  0  # atno 10764 bound_to 10752
  153.9948  135.6773  153.4809 H   0  0  0  0  0  0  0  0  0  0  0  0  # atno 10765 bound_to 10752
  139.9564  134.9612  156.9012 H   0  0  0  0  0  0  0  0  0  0  0  0  # atno 11005 bound_to 11000
  146.1942  139.5199  142.9785 LP  0  0  0  0  0  0  0  0  0  0  0  0  # atno 17320 bound_to 7965
  145.6180  141.0327  143.1930 LP  0  0  0  0  0  0  0  0  0  0  0  0  # atno 17321 bound_to 7965
  140.7810  143.4050  151.1087 LP  0  0  0  0  0  0  0  0  0  0  0  0  # atno 17342 bound_to 10162
  139.7707  143.8499  152.3120 LP  0  0  0  0  0  0  0  0  0  0  0  0  # atno 17343 bound_to 10162
  157.5769  130.8349  149.8468 LP  0  0  0  0  0  0  0  0  0  0  0  0  # atno 17370 bound_to 10713
  156.0394  130.3743  150.1475 LP  0  0  0  0  0  0  0  0  0  0  0  0  # atno 17371 bound_to 10713
  140.5599  134.0545  155.7395 LP  0  0  0  0  0  0  0  0  0  0  0  0  # atno 17394 bound_to 11000
  141.1236  133.9420  157.2679 LP  0  0  0  0  0  0  0  0  0  0  0  0  # atno 17395 bound_to 11000

$$$$
