AV-unprocessed.smi:1703|AV-procd|sdf|6865|dock10
  -GOLD-   22720 8 63D 1   1.00000     0.00000
 Structure written by MMmdl.
 49 51  0  0  0  0  0  0  0  0  2 V2000
  144.0683  144.7611  153.6871 C   0  0  0  0  0  0  0  0  0  0  0  0
  145.1038  144.1633  154.6456 C   0  0  2  0  0  0  0  0  0  0  0  0
  145.8921  143.0061  154.0033 C   0  0  0  0  0  0  0  0  0  0  0  0
  146.8299  142.4132  154.9878 N   0  3  2  0  0  0  0  0  0  0  0  0
  147.6807  141.3309  154.4295 C   0  0  0  0  0  0  0  0  0  0  0  0
  149.1114  141.3509  155.0028 C   0  0  1  0  0  0  0  0  0  0  0  0
  149.7842  142.4909  154.5027 O   0  0  0  0  0  0  0  0  0  0  0  0
  149.1099  141.3861  156.5444 C   0  0  0  0  0  0  0  0  0  0  0  0
  150.4486  141.2878  157.1117 N   0  0  0  0  0  0  0  0  0  0  0  0
  151.4337  140.4116  156.7896 C   0  0  0  0  0  0  0  0  0  0  0  0
  151.2544  139.3535  155.7446 C   0  0  0  0  0  0  0  0  0  0  0  0
  152.1249  139.5200  154.6461 O   0  0  0  0  0  0  0  0  0  0  0  0
  152.5748  140.5469  157.4656 N   0  0  0  0  0  0  0  0  0  0  0  0
  152.3051  141.6066  158.3090 C   0  0  0  0  0  0  0  0  0  0  0  0
  153.1165  142.2375  159.2789 C   0  0  0  0  0  0  0  0  0  0  0  0
  152.6178  143.3209  160.0314 C   0  0  0  0  0  0  0  0  0  0  0  0
  151.3030  143.7870  159.8267 C   0  0  0  0  0  0  0  0  0  0  0  0
  150.4773  143.1720  158.8663 C   0  0  0  0  0  0  0  0  0  0  0  0
  150.9807  142.0923  158.1155 C   0  0  0  0  0  0  0  0  0  0  0  0
  146.0987  141.9936  156.2066 C   0  0  0  0  0  0  0  0  0  0  0  0
  145.3014  143.1756  156.7906 C   0  0  2  0  0  0  0  0  0  0  0  0
  144.4672  142.7654  158.0091 C   0  0  0  0  0  0  0  0  0  0  0  0
  144.4171  143.6771  155.7941 O   0  0  0  0  0  0  0  0  0  0  0  0
  144.5449  145.1540  152.7886 H   0  0  0  0  0  0  0  0  0  0  0  0
  143.5267  145.5806  154.1606 H   0  0  0  0  0  0  0  0  0  0  0  0
  143.3370  144.0134  153.3785 H   0  0  0  0  0  0  0  0  0  0  0  0
  145.7935  144.9539  154.9475 H   0  0  0  0  0  0  0  0  0  0  0  0
  145.2064  142.2370  153.6438 H   0  0  0  0  0  0  0  0  0  0  0  0
  146.4361  143.3787  153.1358 H   0  0  0  0  0  0  0  0  0  0  0  0
  147.2327  140.3610  154.6519 H   0  0  0  0  0  0  0  0  0  0  0  0
  147.7015  141.4129  153.3415 H   0  0  0  0  0  0  0  0  0  0  0  0
  149.6597  140.4687  154.6752 H   0  0  0  0  0  0  0  0  0  0  0  0
  149.5765  143.2313  155.0524 H   0  0  0  0  0  0  0  0  0  0  0  0
  148.6498  142.3083  156.9021 H   0  0  0  0  0  0  0  0  0  0  0  0
  148.4985  140.5754  156.9406 H   0  0  0  0  0  0  0  0  0  0  0  0
  151.4086  138.3683  156.1837 H   0  0  0  0  0  0  0  0  0  0  0  0
  150.2268  139.3774  155.3806 H   0  0  0  0  0  0  0  0  0  0  0  0
  152.7881  138.8479  154.6838 H   0  0  0  0  0  0  0  0  0  0  0  0
  154.1244  141.8872  159.4438 H   0  0  0  0  0  0  0  0  0  0  0  0
  153.2472  143.7962  160.7692 H   0  0  0  0  0  0  0  0  0  0  0  0
  150.9291  144.6172  160.4077 H   0  0  0  0  0  0  0  0  0  0  0  0
  149.4707  143.5286  158.7080 H   0  0  0  0  0  0  0  0  0  0  0  0
  145.4293  141.1669  155.9626 H   0  0  0  0  0  0  0  0  0  0  0  0
  146.8058  141.6262  156.9517 H   0  0  0  0  0  0  0  0  0  0  0  0
  145.9876  143.9688  157.0929 H   0  0  0  0  0  0  0  0  0  0  0  0
  145.1013  142.3756  158.8057 H   0  0  0  0  0  0  0  0  0  0  0  0
  143.7416  141.9937  157.7503 H   0  0  0  0  0  0  0  0  0  0  0  0
  143.9178  143.6176  158.4099 H   0  0  0  0  0  0  0  0  0  0  0  0
  147.4611  143.1478  155.2757 H   0  0  0  0  0  0  0  0  0  0  0  0
  1  2  1  0  0  0  0
  1 24  1  0  0  0  0
  1 25  1  0  0  0  0
  1 26  1  0  0  0  0
  2 23  1  0  0  0  0
  2  3  1  0  0  0  0
  2 27  1  0  0  0  0
  3  4  1  0  0  0  0
  3 28  1  0  0  0  0
  3 29  1  0  0  0  0
  4  5  1  0  0  0  0
  4 20  1  0  0  0  0
  4 49  1  0  0  0  0
  5  6  1  0  0  0  0
  5 30  1  0  0  0  0
  5 31  1  0  0  0  0
  6  7  1  0  0  0  0
  6  8  1  0  0  0  0
  6 32  1  0  0  0  0
  7 33  1  0  0  0  0
  8  9  1  0  0  0  0
  8 34  1  0  0  0  0
  8 35  1  0  0  0  0
  9 19  1  0  0  0  0
  9 10  1  0  0  0  0
 10 11  1  0  0  0  0
 10 13  2  0  0  0  0
 11 12  1  0  0  0  0
 11 36  1  0  0  0  0
 11 37  1  0  0  0  0
 12 38  1  0  0  0  0
 13 14  1  0  0  0  0
 14 19  2  0  0  0  0
 14 15  1  0  0  0  0
 15 16  2  0  0  0  0
 15 39  1  0  0  0  0
 16 17  1  0  0  0  0
 16 40  1  0  0  0  0
 17 18  2  0  0  0  0
 17 41  1  0  0  0  0
 18 19  1  0  0  0  0
 18 42  1  0  0  0  0
 20 21  1  0  0  0  0
 20 43  1  0  0  0  0
 20 44  1  0  0  0  0
 21 22  1  0  0  0  0
 21 23  1  0  0  0  0
 21 45  1  0  0  0  0
 22 46  1  0  0  0  0
 22 47  1  0  0  0  0
 22 48  1  0  0  0  0
M  CHG  1   4   1
M  END
> <s_m_source_file>
AV-unprocessed.smi

> <i_m_source_file_index>
1703

> <i_lp_mmshare_version>
43012

> <i_f3d_flags>
0

> <s_epik_input>
W0NIM11bQ0BASF0xW0NIMl1OKFtDSDJdW0NASF0oTzEpW0NIM10pW0NIMl1bQ0BIXShbT0hdKVtDSDJdbihjKG4yKVtDSDJdW09IXSljKGMyMylbY0hdW2NIXVtjSF1bY0hdMw==

> <s_epik_cmdline>
J2VwaWtfcHl0aG9uJywgJy1waCcsICc3LjAnLCAnLXRuJywgJzgnLCAnLW1hJywgJzIwMCcsICctbWV0YWxfYmluZGluZycsICctaW1hZScsICc8aW5maWxlLm1hZT4nLCAnLW9tYWUnLCAnPG91dGZpbGUubWFlPic=

> <r_epik_Ionization_Penalty>
0.655661

> <r_epik_Ionization_Penalty_Charging>
0.608065

> <r_epik_Ionization_Penalty_Neutral>
0.0475963

> <r_epik_State_Penalty>
0.695267

> <r_epik_Charging_Adjusted_Penalty>
1.30333

> <i_epik_Tot_Q>
1

> <i_epik_Tot_abs_Q>
1

> <r_epik_Metal_State_Penalty>
0.653591

> <b_epik_Metal_Only>
0

> <s_lp_Force_Field>
OPLS_2005

> <r_lp_Energy>
21.6457

> <b_lp_Chiralities_Consistent>
1

> <s_lp_Variant>
AV-unprocessed.smi:1703-13

> <Gold.Version>
5.8.1

> <Gold.Id.Protein>
6NUR|6NUR_protein|mol2

> <Gold.PLP.Fitness>
51.1632

> <Gold.PLP.PLP>
-38.1388

> <Gold.PLP.part.hbond>
-5.8250

> <Gold.PLP.part.metal>
0.0000

> <Gold.PLP.part.buried>
1.6473

> <Gold.PLP.part.nonpolar>
-32.5970

> <Gold.PLP.part.repulsive>
0.2363

> <Gold.PLP.ligand.clash>
0.0000

> <Gold.PLP.ligand.torsion>
0.6569

> <Gold.PLP.Chemscore.Hbond>
4.7596

> <Gold.PLP.Chemscore.CHOScore>
0.0000

> <Gold.PLP.Chemscore.Metal>
0.0000

> <Gold.Chemscore.Hbonds>
donor molecule, donor type, donor heavy atom, donor atom, acceptor molecule, acceptor atom, score
      L1  H     4    49       P1  8028  1.48
      L1  H     7    33       P1  8028  1.00
      P1  H  7989  7998       L1    12  0.83
      P1  H  7997  8009       L1    13  0.83
      P1  H  8011  8017       L1     7  0.03

> <Gold.PLP.Chemscore.Internal.Correction>
0.0593

> <Gold.Rescore>
     Score         DG    S(hbond)    S(metal)    S(lipo)     H(rot)  DE(clash)    DE(int)     intcor
     14.90     -21.18       2.98        0.00     114.01       2.96       4.61       1.68       ----

> <Gold.Chemscore.Fitness>
14.8962

> <Gold.Chemscore.DG>
-21.1840

> <Gold.Chemscore.ZeroCoef>
-5.4800

> <Gold.Chemscore.Hbond>
2.9775

> <Gold.Chemscore.Metal>
0.0000

> <Gold.Chemscore.Lipo>
114.0111

> <Gold.Chemscore.Internal_Hbond>
0.0000

> <Gold.Chemscore.DEClash>
4.6092

> <Gold.Chemscore.DEInternal>
1.6785

> <Gold.Chemscore.Rot>
2.9611

> <Gold.Chemscore.Internal.Correction>
   9.000000E+99

> <Gold.Chemscore.Hbonds>
donor molecule, donor type, donor heavy atom, donor atom, acceptor molecule, acceptor atom, score
      L1  H     4    49       P1  8028  0.17
      L1  H     7    33       P1  8028  1.00
      P1  H  7989  7998       L1    12  0.75
      P1  H  7997  8009       L1    13  0.78
      P1  H  8011  8017       L1     7  0.05

> <Gold.Chemscore.Hbond.Weighted>
-9.9450

> <Gold.Chemscore.Metal.Weighted>
-0.0000

> <Gold.Chemscore.Lipo.Weighted>
-13.3393

> <Gold.Chemscore.Internal_Hbond.Weighted>
0.0000

> <Gold.Chemscore.DEClash.Weighted>
4.6092

> <Gold.Chemscore.DEInternal.Weighted>
1.6785

> <Gold.Chemscore.Rot.Weighted>
7.5803

> <Gold.Chemscore.Internal.Correction.Weighted>
   9.000000E+99

> <Gold.Protein.RotatedTorsions>
[ 6907 6896 6895 6894 ] final -125.29 input  -60.11 | X-H torsion
[ 7974 7965 7964 7962 ] final   84.08 input  175.53 | X-H torsion
[ 8008 7997 7996 7995 ] final  174.33 input   59.86 | X-H torsion
[ 10167 10162 10161 10158 ] final  109.71 input  -65.29 | X-H torsion
[ 10718 10713 10712 10709 ] final  -63.88 input   66.30 | X-H torsion
[ 10763 10752 10751 10750 ] final  136.49 input  -60.55 | X-H torsion
[ 11005 11000 10999 10996 ] final   63.76 input  -57.11 | X-H torsion

> <Gold.Protein.ActiveResidues>
 VAL166  LYS551  ARG553  GLY616  TRP617  ASP618  TYR619  PRO620  LYS621  CYS622 
 ASP623  PHE694  ASN695  SER759  ASP760  ASP761  ALA762  ILE779  LEU786  VAL792 
 PHE793  MET794  SER795  GLU796  ALA797  LYS798  CYS799  TRP800  GLU811  SER814 

> <Gold.Protein.RotatedAtoms>
  150.8852  133.7317  159.2920 H   0  0  0  0  0  0  0  0  0  0  0  0  # atno 6907 bound_to 6896
  151.4885  135.1055  159.9807 H   0  0  0  0  0  0  0  0  0  0  0  0  # atno 6908 bound_to 6896
  152.4785  133.8151  159.7079 H   0  0  0  0  0  0  0  0  0  0  0  0  # atno 6909 bound_to 6896
  145.6034  139.2356  143.2233 H   0  0  0  0  0  0  0  0  0  0  0  0  # atno 7974 bound_to 7965
  156.0985  140.1437  156.9499 H   0  0  0  0  0  0  0  0  0  0  0  0  # atno 8008 bound_to 7997
  154.4687  140.0917  156.7133 H   0  0  0  0  0  0  0  0  0  0  0  0  # atno 8009 bound_to 7997
  155.4800  140.3444  155.4340 H   0  0  0  0  0  0  0  0  0  0  0  0  # atno 8010 bound_to 7997
  139.6745  144.7123  151.1627 H   0  0  0  0  0  0  0  0  0  0  0  0  # atno 10167 bound_to 10162
  156.0763  130.4226  150.1341 H   0  0  0  0  0  0  0  0  0  0  0  0  # atno 10718 bound_to 10713
  153.8574  135.3071  155.3436 H   0  0  0  0  0  0  0  0  0  0  0  0  # atno 10763 bound_to 10752
  154.7864  135.4807  153.9958 H   0  0  0  0  0  0  0  0  0  0  0  0  # atno 10764 bound_to 10752
  153.1482  135.6838  153.9016 H   0  0  0  0  0  0  0  0  0  0  0  0  # atno 10765 bound_to 10752
  140.0003  134.6452  155.9941 H   0  0  0  0  0  0  0  0  0  0  0  0  # atno 11005 bound_to 11000
  146.1559  140.6858  142.9300 LP  0  0  0  0  0  0  0  0  0  0  0  0  # atno 17320 bound_to 7965
  144.7300  140.4643  143.6945 LP  0  0  0  0  0  0  0  0  0  0  0  0  # atno 17321 bound_to 7965
  140.7630  143.5793  150.8912 LP  0  0  0  0  0  0  0  0  0  0  0  0  # atno 17342 bound_to 10162
  139.9461  143.6326  152.3041 LP  0  0  0  0  0  0  0  0  0  0  0  0  # atno 17343 bound_to 10162
  156.9381  130.9735  151.3521 LP  0  0  0  0  0  0  0  0  0  0  0  0  # atno 17370 bound_to 10713
  157.5860  130.8410  149.8590 LP  0  0  0  0  0  0  0  0  0  0  0  0  # atno 17371 bound_to 10713
  141.1637  133.6537  156.4405 LP  0  0  0  0  0  0  0  0  0  0  0  0  # atno 17394 bound_to 11000
  140.4740  134.6727  157.5142 LP  0  0  0  0  0  0  0  0  0  0  0  0  # atno 17395 bound_to 11000

$$$$
