AV-unprocessed.smi:375|AV-procd|sdf|2454|dock10
  -GOLD-   2262022393D 1   1.00000     0.00000
 Structure written by MMmdl.
 36 38  0  0  0  0  0  0  0  0  1 V2000
  154.0785  140.7572  160.5015 C   0  0  0  0  0  0  0  0  0  0  0  0
  153.0129  141.0460  159.5495 N   0  0  0  0  0  0  0  0  0  0  0  0
  152.2989  140.1512  158.8266 C   0  0  0  0  0  0  0  0  0  0  0  0
  152.4335  138.9279  158.8517 O   0  0  0  0  0  0  0  0  0  0  0  0
  151.4113  140.8381  158.0692 N   0  0  0  0  0  0  0  0  0  0  0  0
  150.4509  140.2724  157.1238 C   0  0  0  0  0  0  0  0  0  0  0  0
  150.6534  140.8257  155.6994 C   0  0  1  0  0  0  0  0  0  0  0  0
  151.7935  140.2093  155.1326 O   0  0  0  0  0  0  0  0  0  0  0  0
  149.4103  140.5952  154.8492 C   0  0  0  0  0  0  0  0  0  0  0  0
  148.5874  141.6820  154.4759 C   0  0  0  0  0  0  0  0  0  0  0  0
  147.4447  141.4709  153.6805 C   0  0  0  0  0  0  0  0  0  0  0  0
  147.1182  140.1719  153.2481 C   0  0  0  0  0  0  0  0  0  0  0  0
  147.9375  139.0855  153.6085 C   0  0  0  0  0  0  0  0  0  0  0  0
  149.0813  139.2941  154.4040 C   0  0  0  0  0  0  0  0  0  0  0  0
  149.8624  138.2367  154.7322 F   0  0  0  0  0  0  0  0  0  0  0  0
  151.5678  142.2109  158.3090 C   0  0  0  0  0  0  0  0  0  0  0  0
  150.9035  143.3270  157.7714 C   0  0  0  0  0  0  0  0  0  0  0  0
  151.3079  144.6025  158.2308 C   0  0  0  0  0  0  0  0  0  0  0  0
  152.3417  144.7345  159.1944 C   0  0  0  0  0  0  0  0  0  0  0  0
  152.9949  143.5939  159.7175 C   0  0  0  0  0  0  0  0  0  0  0  0
  152.5742  142.3401  159.2425 C   0  0  0  0  0  0  0  0  0  0  0  0
  154.3134  139.6929  160.5446 H   0  0  0  0  0  0  0  0  0  0  0  0
  153.7868  141.0801  161.5010 H   0  0  0  0  0  0  0  0  0  0  0  0
  154.9882  141.2893  160.2218 H   0  0  0  0  0  0  0  0  0  0  0  0
  150.4783  139.1812  157.1307 H   0  0  0  0  0  0  0  0  0  0  0  0
  149.4565  140.5436  157.4807 H   0  0  0  0  0  0  0  0  0  0  0  0
  150.8549  141.8967  155.7419 H   0  0  0  0  0  0  0  0  0  0  0  0
  152.0369  139.4739  155.6741 H   0  0  0  0  0  0  0  0  0  0  0  0
  148.8316  142.6846  154.7954 H   0  0  0  0  0  0  0  0  0  0  0  0
  146.8197  142.3063  153.4007 H   0  0  0  0  0  0  0  0  0  0  0  0
  146.2424  140.0094  152.6374 H   0  0  0  0  0  0  0  0  0  0  0  0
  147.6899  138.0895  153.2721 H   0  0  0  0  0  0  0  0  0  0  0  0
  150.1183  143.2202  157.0378 H   0  0  0  0  0  0  0  0  0  0  0  0
  150.8237  145.4867  157.8431 H   0  0  0  0  0  0  0  0  0  0  0  0
  152.6346  145.7180  159.5317 H   0  0  0  0  0  0  0  0  0  0  0  0
  153.7836  143.6853  160.4496 H   0  0  0  0  0  0  0  0  0  0  0  0
  1  2  1  0  0  0  0
  1 22  1  0  0  0  0
  1 23  1  0  0  0  0
  1 24  1  0  0  0  0
  2 21  1  0  0  0  0
  2  3  1  0  0  0  0
  3  4  2  0  0  0  0
  3  5  1  0  0  0  0
  5  6  1  0  0  0  0
  5 16  1  0  0  0  0
  6  7  1  0  0  0  0
  6 25  1  0  0  0  0
  6 26  1  0  0  0  0
  7  8  1  0  0  0  0
  7  9  1  0  0  0  0
  7 27  1  0  0  0  0
  8 28  1  0  0  0  0
  9 14  1  0  0  0  0
  9 10  2  0  0  0  0
 10 11  1  0  0  0  0
 10 29  1  0  0  0  0
 11 12  2  0  0  0  0
 11 30  1  0  0  0  0
 12 13  1  0  0  0  0
 12 31  1  0  0  0  0
 13 14  2  0  0  0  0
 13 32  1  0  0  0  0
 14 15  1  0  0  0  0
 16 21  2  0  0  0  0
 16 17  1  0  0  0  0
 17 18  2  0  0  0  0
 17 33  1  0  0  0  0
 18 19  1  0  0  0  0
 18 34  1  0  0  0  0
 19 20  2  0  0  0  0
 19 35  1  0  0  0  0
 20 21  1  0  0  0  0
 20 36  1  0  0  0  0
M  END
> <s_m_source_file>
AV-unprocessed.smi

> <i_m_source_file_index>
375

> <i_lp_mmshare_version>
43012

> <i_f3d_flags>
0

> <s_epik_input>
W2NIXTFbY0hdW2NIXVtjSF1jKGMxMiluKFtDSDNdKWMoPU8pbjJbQ0gyXVtDQEhdKFtPSF0pYzNbY0hdW2NIXVtjSF1bY0hdYzNG

> <s_epik_cmdline>
J2VwaWtfcHl0aG9uJywgJy1waCcsICc3LjAnLCAnLXRuJywgJzgnLCAnLW1hJywgJzIwMCcsICctbWV0YWxfYmluZGluZycsICctaW1hZScsICc8aW5maWxlLm1hZT4nLCAnLW9tYWUnLCAnPG91dGZpbGUubWFlPic=

> <r_lp_tautomer_probability>
1

> <r_epik_Ionization_Penalty>
1.34619e-06

> <r_epik_Ionization_Penalty_Charging>
2.57375e-09

> <r_epik_Ionization_Penalty_Neutral>
1.34362e-06

> <r_epik_State_Penalty>
-0

> <r_epik_Charging_Adjusted_Penalty>
2.57375e-09

> <i_epik_Tot_Q>
0

> <i_epik_Tot_abs_Q>
0

> <r_epik_Metal_State_Penalty>
-0

> <b_epik_Metal_Only>
0

> <s_lp_Force_Field>
OPLS_2005

> <r_lp_Energy>
44.2188

> <b_lp_Chiralities_Consistent>
1

> <s_lp_Variant>
AV-unprocessed.smi:375-2

> <Gold.Version>
5.8.1

> <Gold.Id.Protein>
6NUR|6NUR_protein|mol2

> <Gold.PLP.Fitness>
52.4093

> <Gold.PLP.PLP>
-50.6177

> <Gold.PLP.part.hbond>
-1.0000

> <Gold.PLP.part.metal>
0.0000

> <Gold.PLP.part.buried>
-3.7108

> <Gold.PLP.part.nonpolar>
-45.6746

> <Gold.PLP.part.repulsive>
0.0000

> <Gold.PLP.ligand.clash>
0.0000

> <Gold.PLP.ligand.torsion>
0.3622

> <Gold.PLP.Chemscore.Hbond>
0.8360

> <Gold.PLP.Chemscore.CHOScore>
0.0000

> <Gold.PLP.Chemscore.Metal>
0.0000

> <Gold.Chemscore.Hbonds>
donor molecule, donor type, donor heavy atom, donor atom, acceptor molecule, acceptor atom, score
      P1  H  7989  7998       L1     8  0.78

> <Gold.PLP.Chemscore.Internal.Correction>
0.0080

> <Gold.Rescore>
     Score         DG    S(hbond)    S(metal)    S(lipo)     H(rot)  DE(clash)    DE(int)     intcor
     16.15     -17.70       0.83        0.00     121.15       1.85       0.02       1.53       ----

> <Gold.Chemscore.Fitness>
16.1481

> <Gold.Chemscore.DG>
-17.6984

> <Gold.Chemscore.ZeroCoef>
-5.4800

> <Gold.Chemscore.Hbond>
0.8295

> <Gold.Chemscore.Metal>
0.0000

> <Gold.Chemscore.Lipo>
121.1528

> <Gold.Chemscore.Internal_Hbond>
0.0000

> <Gold.Chemscore.DEClash>
0.0212

> <Gold.Chemscore.DEInternal>
1.5291

> <Gold.Chemscore.Rot>
1.8465

> <Gold.Chemscore.Internal.Correction>
   9.000000E+99

> <Gold.Chemscore.Hbonds>
donor molecule, donor type, donor heavy atom, donor atom, acceptor molecule, acceptor atom, score
      P1  H  7989  7998       L1     8  0.15

> <Gold.Chemscore.Hbond.Weighted>
-2.7706

> <Gold.Chemscore.Metal.Weighted>
-0.0000

> <Gold.Chemscore.Lipo.Weighted>
-14.1749

> <Gold.Chemscore.Internal_Hbond.Weighted>
0.0000

> <Gold.Chemscore.DEClash.Weighted>
0.0212

> <Gold.Chemscore.DEInternal.Weighted>
1.5291

> <Gold.Chemscore.Rot.Weighted>
4.7270

> <Gold.Chemscore.Internal.Correction.Weighted>
   9.000000E+99

> <Gold.Protein.RotatedTorsions>
[ 6907 6896 6895 6894 ] final  140.30 input  -60.11 | X-H torsion
[ 7974 7965 7964 7962 ] final   37.52 input  175.53 | X-H torsion
[ 8008 7997 7996 7995 ] final  163.61 input   59.86 | X-H torsion
[ 10167 10162 10161 10158 ] final  -35.24 input  -65.29 | X-H torsion
[ 10718 10713 10712 10709 ] final  103.37 input   66.30 | X-H torsion
[ 10763 10752 10751 10750 ] final  -50.13 input  -60.55 | X-H torsion
[ 11005 11000 10999 10996 ] final -164.62 input  -57.11 | X-H torsion

> <Gold.Protein.ActiveResidues>
 VAL166  LYS551  ARG553  GLY616  TRP617  ASP618  TYR619  PRO620  LYS621  CYS622 
 ASP623  PHE694  ASN695  SER759  ASP760  ASP761  ALA762  ILE779  LEU786  VAL792 
 PHE793  MET794  SER795  GLU796  ALA797  LYS798  CYS799  TRP800  GLU811  SER814 

> <Gold.Protein.RotatedAtoms>
  152.2447  133.5164  159.5290 H   0  0  0  0  0  0  0  0  0  0  0  0  # atno 6907 bound_to 6896
  150.7075  134.1041  159.3985 H   0  0  0  0  0  0  0  0  0  0  0  0  # atno 6908 bound_to 6896
  151.8962  135.0397  160.0553 H   0  0  0  0  0  0  0  0  0  0  0  0  # atno 6909 bound_to 6896
  146.1131  139.5883  142.9339 H   0  0  0  0  0  0  0  0  0  0  0  0  # atno 7974 bound_to 7965
  156.1944  140.1719  156.8028 H   0  0  0  0  0  0  0  0  0  0  0  0  # atno 8008 bound_to 7997
  154.5511  140.0717  156.8700 H   0  0  0  0  0  0  0  0  0  0  0  0  # atno 8009 bound_to 7997
  155.3027  140.3362  155.4249 H   0  0  0  0  0  0  0  0  0  0  0  0  # atno 8010 bound_to 7997
  140.7169  143.3491  151.2193 H   0  0  0  0  0  0  0  0  0  0  0  0  # atno 10167 bound_to 10162
  157.6774  131.0777  150.5544 H   0  0  0  0  0  0  0  0  0  0  0  0  # atno 10718 bound_to 10713
  154.1054  135.6557  153.4875 H   0  0  0  0  0  0  0  0  0  0  0  0  # atno 10763 bound_to 10752
  153.0274  135.5235  154.7245 H   0  0  0  0  0  0  0  0  0  0  0  0  # atno 10764 bound_to 10752
  154.6409  135.2988  155.0074 H   0  0  0  0  0  0  0  0  0  0  0  0  # atno 10765 bound_to 10752
  140.5849  134.5104  157.5184 H   0  0  0  0  0  0  0  0  0  0  0  0  # atno 11005 bound_to 11000
  145.5623  141.0403  143.2219 LP  0  0  0  0  0  0  0  0  0  0  0  0  # atno 17320 bound_to 7965
  144.7529  139.7148  143.7266 LP  0  0  0  0  0  0  0  0  0  0  0  0  # atno 17321 bound_to 7965
  139.7018  143.9521  152.2909 LP  0  0  0  0  0  0  0  0  0  0  0  0  # atno 17342 bound_to 10162
  139.9216  144.6796  150.8455 LP  0  0  0  0  0  0  0  0  0  0  0  0  # atno 17343 bound_to 10162
  156.5848  130.4314  149.5961 LP  0  0  0  0  0  0  0  0  0  0  0  0  # atno 17370 bound_to 10713
  156.2631  130.6974  151.1749 LP  0  0  0  0  0  0  0  0  0  0  0  0  # atno 17371 bound_to 10713
  139.9300  134.7982  156.0958 LP  0  0  0  0  0  0  0  0  0  0  0  0  # atno 17394 bound_to 11000
  141.0972  133.6691  156.2672 LP  0  0  0  0  0  0  0  0  0  0  0  0  # atno 17395 bound_to 11000

$$$$
