AV-unprocessed.smi:160|AV-procd|sdf|1347|dock4
  -GOLD-   2262019 43D 1   1.00000     0.00000
 Structure written by MMmdl.
 29 30  0  0  0  0  0  0  0  0  1 V2000
  151.9210  140.7623  157.7788 N   0  0  0  0  0  0  0  0  0  0  0  0
  152.2662  139.6368  157.1460 C   0  0  0  0  0  0  0  0  0  0  0  0
  153.1984  138.9278  157.5222 O   0  0  0  0  0  0  0  0  0  0  0  0
  151.4453  139.2801  155.9380 C   0  0  0  0  0  0  0  0  0  0  0  0
  151.4600  138.0259  155.3930 N   0  0  0  0  0  0  0  0  0  0  0  0
  150.6032  138.2226  154.3994 C   0  0  0  0  0  0  0  0  0  0  0  0
  150.1331  139.4733  154.3199 N   0  0  0  0  0  0  0  0  0  0  0  0
  149.1170  140.0798  153.4038 C   0  0  2  0  0  0  0  0  0  0  0  0
  148.9256  141.4114  153.7854 O   0  0  0  0  0  0  0  0  0  0  0  0
  147.6946  141.5741  154.4870 C   0  0  2  0  0  0  0  0  0  0  0  0
  147.9037  141.3526  156.0032 C   0  0  0  0  0  0  0  0  0  0  0  0
  148.9333  142.1958  156.4734 O   0  0  0  0  0  0  0  0  0  0  0  0
  146.8069  140.5344  153.7882 C   0  0  2  0  0  0  0  0  0  0  0  0
  145.6962  140.1389  154.5688 O   0  0  0  0  0  0  0  0  0  0  0  0
  147.7540  139.3701  153.5249 C   0  0  1  0  0  0  0  0  0  0  0  0
  147.3910  138.7219  152.3228 O   0  0  0  0  0  0  0  0  0  0  0  0
  150.6558  140.1799  155.3524 N   0  0  0  0  0  0  0  0  0  0  0  0
  149.5742  140.0236  152.4149 H   0  0  0  0  0  0  0  0  0  0  0  0
  147.2974  142.5760  154.3193 H   0  0  0  0  0  0  0  0  0  0  0  0
  146.4528  140.9554  152.8454 H   0  0  0  0  0  0  0  0  0  0  0  0
  147.7575  138.6703  154.3625 H   0  0  0  0  0  0  0  0  0  0  0  0
  152.4332  141.0579  158.5967 H   0  0  0  0  0  0  0  0  0  0  0  0
  151.1474  141.3105  157.4313 H   0  0  0  0  0  0  0  0  0  0  0  0
  150.3143  137.4393  153.7138 H   0  0  0  0  0  0  0  0  0  0  0  0
  147.0050  141.6253  156.5562 H   0  0  0  0  0  0  0  0  0  0  0  0
  148.1192  140.3146  156.2515 H   0  0  0  0  0  0  0  0  0  0  0  0
  148.6817  143.0931  156.3160 H   0  0  0  0  0  0  0  0  0  0  0  0
  144.9352  140.1108  154.0089 H   0  0  0  0  0  0  0  0  0  0  0  0
  148.0201  138.0374  152.1513 H   0  0  0  0  0  0  0  0  0  0  0  0
  1  2  1  0  0  0  0
  1 22  1  0  0  0  0
  1 23  1  0  0  0  0
  2  3  2  0  0  0  0
  2  4  1  0  0  0  0
  4 17  2  0  0  0  0
  4  5  1  0  0  0  0
  5  6  2  0  0  0  0
  6  7  1  0  0  0  0
  6 24  1  0  0  0  0
  7  8  1  0  0  0  0
  7 17  1  0  0  0  0
  8 18  1  0  0  0  0
  8 15  1  0  0  0  0
  8  9  1  0  0  0  0
  9 10  1  0  0  0  0
 10 19  1  0  0  0  0
 10 11  1  0  0  0  0
 10 13  1  0  0  0  0
 11 12  1  0  0  0  0
 11 25  1  0  0  0  0
 11 26  1  0  0  0  0
 12 27  1  0  0  0  0
 13 20  1  0  0  0  0
 13 14  1  0  0  0  0
 13 15  1  0  0  0  0
 14 28  1  0  0  0  0
 15 21  1  0  0  0  0
 15 16  1  0  0  0  0
 16 29  1  0  0  0  0
M  END
> <s_m_source_file>
AV-unprocessed.smi

> <i_m_source_file_index>
160

> <i_lp_mmshare_version>
43012

> <i_f3d_flags>
0

> <s_epik_input>
W05IMl1DKD1PKWMxbltjSF1uKG4xKVtDQEBIXTJPW0NASF0oW0NIMl1bT0hdKVtDQEBIXShbT0hdKVtDQEhdMltPSF0=

> <s_epik_cmdline>
J2VwaWtfcHl0aG9uJywgJy1waCcsICc3LjAnLCAnLXRuJywgJzgnLCAnLW1hJywgJzIwMCcsICctbWV0YWxfYmluZGluZycsICctaW1hZScsICc8aW5maWxlLm1hZT4nLCAnLW9tYWUnLCAnPG91dGZpbGUubWFlPic=

> <r_lp_tautomer_probability>
1

> <r_epik_Ionization_Penalty>
1.06932e-05

> <r_epik_Ionization_Penalty_Charging>
0

> <r_epik_Ionization_Penalty_Neutral>
1.06932e-05

> <r_epik_State_Penalty>
-0

> <r_epik_Charging_Adjusted_Penalty>
0

> <i_epik_Tot_Q>
0

> <i_epik_Tot_abs_Q>
0

> <r_epik_Metal_State_Penalty>
0.0142097

> <b_epik_Metal_Only>
0

> <s_epik_Chemistry_Notes>
This compound contains an acetal/aminal-like group ( X-CH(R)-Y where X, Y are N, S, or O) that may be acid/base labile, releasing an aldehyde.

> <s_lp_Force_Field>
OPLS_2005

> <r_lp_Energy>
36.3531

> <b_lp_Chiralities_Consistent>
1

> <s_lp_Variant>
AV-unprocessed.smi:160-5

> <Gold.Version>
5.8.1

> <Gold.Id.Protein>
6NUR|6NUR_protein|mol2

> <Gold.PLP.Fitness>
40.1265

> <Gold.PLP.PLP>
-22.8732

> <Gold.PLP.part.hbond>
-6.7974

> <Gold.PLP.part.metal>
0.0000

> <Gold.PLP.part.buried>
2.1711

> <Gold.PLP.part.nonpolar>
-19.2308

> <Gold.PLP.part.repulsive>
0.9198

> <Gold.PLP.ligand.clash>
0.0000

> <Gold.PLP.ligand.torsion>
0.1839

> <Gold.PLP.Chemscore.Hbond>
4.7840

> <Gold.PLP.Chemscore.CHOScore>
1.0709

> <Gold.PLP.Chemscore.Metal>
0.0000

> <Gold.Chemscore.Hbonds>
donor molecule, donor type, donor heavy atom, donor atom, acceptor molecule, acceptor atom, score
      L1  H    12    27       P1  8028  1.00
      L1  H    14    28       P1 10175  1.00
      L1  H    16    29       P1  7948  1.00
      P1  H  7997  8008       L1     3  1.00
      P1  H  8011  8017       L1     9  0.78
      L1  C     6    24       P1  7948  0.91
      L1  C     6    24       P1  7949  0.14

> <Gold.PLP.Chemscore.Internal.Correction>
0.0565

> <Gold.Rescore>
     Score         DG    S(hbond)    S(metal)    S(lipo)     H(rot)  DE(clash)    DE(int)     intcor
      8.66     -13.57       4.73        0.00      22.96       4.06       3.19       1.73       ----

> <Gold.Chemscore.Fitness>
8.6565

> <Gold.Chemscore.DG>
-13.5718

> <Gold.Chemscore.ZeroCoef>
-5.4800

> <Gold.Chemscore.Hbond>
4.7302

> <Gold.Chemscore.Metal>
0.0000

> <Gold.Chemscore.Lipo>
22.9604

> <Gold.Chemscore.Internal_Hbond>
0.0000

> <Gold.Chemscore.DEClash>
3.1896

> <Gold.Chemscore.DEInternal>
1.7257

> <Gold.Chemscore.Rot>
4.0600

> <Gold.Chemscore.Internal.Correction>
   9.000000E+99

> <Gold.Chemscore.Hbonds>
donor molecule, donor type, donor heavy atom, donor atom, acceptor molecule, acceptor atom, score
      L1  H    12    27       P1  8028  0.94
      L1  H    14    28       P1 10175  0.95
      L1  H    16    29       P1  7948  0.93
      P1  H  7997  8008       L1     3  0.29
      P1  H  8011  8017       L1     9  0.30

> <Gold.Chemscore.Hbond.Weighted>
-15.7990

> <Gold.Chemscore.Metal.Weighted>
-0.0000

> <Gold.Chemscore.Lipo.Weighted>
-2.6864

> <Gold.Chemscore.Internal_Hbond.Weighted>
0.0000

> <Gold.Chemscore.DEClash.Weighted>
3.1896

> <Gold.Chemscore.DEInternal.Weighted>
1.7257

> <Gold.Chemscore.Rot.Weighted>
10.3936

> <Gold.Chemscore.Internal.Correction.Weighted>
   9.000000E+99

> <Gold.Protein.RotatedTorsions>
[ 6907 6896 6895 6894 ] final -144.66 input  -60.11 | X-H torsion
[ 7974 7965 7964 7962 ] final  -96.46 input  175.53 | X-H torsion
[ 8008 7997 7996 7995 ] final  -93.04 input   59.86 | X-H torsion
[ 10167 10162 10161 10158 ] final  111.73 input  -65.29 | X-H torsion
[ 10718 10713 10712 10709 ] final  -10.56 input   66.30 | X-H torsion
[ 10763 10752 10751 10750 ] final -139.60 input  -60.55 | X-H torsion
[ 11005 11000 10999 10996 ] final -179.47 input  -57.11 | X-H torsion

> <Gold.Protein.ActiveResidues>
 VAL166  LYS551  ARG553  GLY616  TRP617  ASP618  TYR619  PRO620  LYS621  CYS622 
 ASP623  PHE694  ASN695  SER759  ASP760  ASP761  ALA762  ILE779  LEU786  VAL792 
 PHE793  MET794  SER795  GLU796  ALA797  LYS798  CYS799  TRP800  GLU811  SER814 

> <Gold.Protein.RotatedAtoms>
  151.1171  133.5130  159.2603 H   0  0  0  0  0  0  0  0  0  0  0  0  # atno 6907 bound_to 6896
  151.1902  135.0399  159.8839 H   0  0  0  0  0  0  0  0  0  0  0  0  # atno 6908 bound_to 6896
  152.5453  134.1013  159.8372 H   0  0  0  0  0  0  0  0  0  0  0  0  # atno 6909 bound_to 6896
  145.3465  140.9469  143.2578 H   0  0  0  0  0  0  0  0  0  0  0  0  # atno 7974 bound_to 7965
  154.7307  140.0503  157.0723 H   0  0  0  0  0  0  0  0  0  0  0  0  # atno 8008 bound_to 7997
  155.0306  140.3157  155.4741 H   0  0  0  0  0  0  0  0  0  0  0  0  # atno 8009 bound_to 7997
  156.2840  140.2150  156.5427 H   0  0  0  0  0  0  0  0  0  0  0  0  # atno 8010 bound_to 7997
  139.6589  144.7129  151.1903 H   0  0  0  0  0  0  0  0  0  0  0  0  # atno 10167 bound_to 10162
  156.6717  130.5011  149.5998 H   0  0  0  0  0  0  0  0  0  0  0  0  # atno 10718 bound_to 10713
  154.8604  135.3578  154.5572 H   0  0  0  0  0  0  0  0  0  0  0  0  # atno 10763 bound_to 10752
  153.6188  135.7006  153.5323 H   0  0  0  0  0  0  0  0  0  0  0  0  # atno 10764 bound_to 10752
  153.3146  135.4168  155.1325 H   0  0  0  0  0  0  0  0  0  0  0  0  # atno 10765 bound_to 10752
  140.4182  134.6630  157.4650 H   0  0  0  0  0  0  0  0  0  0  0  0  # atno 11005 bound_to 11000
  144.8750  139.4984  143.6750 LP  0  0  0  0  0  0  0  0  0  0  0  0  # atno 17320 bound_to 7965
  146.2986  139.7354  142.9108 LP  0  0  0  0  0  0  0  0  0  0  0  0  # atno 17321 bound_to 7965
  140.7571  143.6027  150.8684 LP  0  0  0  0  0  0  0  0  0  0  0  0  # atno 17342 bound_to 10162
  139.9682  143.6086  152.2982 LP  0  0  0  0  0  0  0  0  0  0  0  0  # atno 17343 bound_to 10162
  156.1933  130.6574  151.1086 LP  0  0  0  0  0  0  0  0  0  0  0  0  # atno 17370 bound_to 10713
  157.7075  131.0750  150.6618 LP  0  0  0  0  0  0  0  0  0  0  0  0  # atno 17371 bound_to 10713
  140.0219  134.6535  155.9228 LP  0  0  0  0  0  0  0  0  0  0  0  0  # atno 17394 bound_to 11000
  141.1794  133.6544  156.4960 LP  0  0  0  0  0  0  0  0  0  0  0  0  # atno 17395 bound_to 11000

$$$$
