AV-unprocessed.smi:478|AV-procd|sdf|2671|dock6
  -GOLD-   2262023 83D 1   1.00000     0.00000
 Structure written by MMmdl.
 41 42  0  0  0  0  0  0  0  0  1 V2000
  150.5278  137.8941  157.5977 C   0  0  0  0  0  0  0  0  0  0  0  0
  151.5014  137.2237  156.7297 N   0  0  0  0  0  0  0  0  0  0  0  0
  151.3893  135.7613  156.7708 C   0  0  0  0  0  0  0  0  0  0  0  0
  151.7806  137.9474  155.1811 S   0  0  0  0  0  0  0  0  0  0  0  0
  153.0187  138.7361  155.2809 O   0  0  0  0  0  0  0  0  0  0  0  0
  151.6718  136.8851  154.1687 O   0  0  0  0  0  0  0  0  0  0  0  0
  150.4101  139.1019  154.9029 C   0  0  0  0  0  0  0  0  0  0  0  0
  150.4922  140.4679  155.3678 C   0  0  0  0  0  0  0  0  0  0  0  0
  149.5361  141.3568  155.0326 C   0  0  0  0  0  0  0  0  0  0  0  0
  148.3934  140.9790  154.1924 C   0  0  0  0  0  0  0  0  0  0  0  0
  147.5082  141.7809  153.8938 O   0  0  0  0  0  0  0  0  0  0  0  0
  148.3766  139.6815  153.7562 N   0  0  0  0  0  0  0  0  0  0  0  0
  147.2924  139.1923  152.8894 C   0  0  0  0  0  0  0  0  0  0  0  0
  146.4564  138.0961  153.5648 C   0  0  0  0  0  0  0  0  0  0  0  0
  145.8082  138.3731  154.5768 O   0  0  0  0  0  0  0  0  0  0  0  0
  146.5065  136.8831  152.9664 N   0  0  0  0  0  0  0  0  0  0  0  0
  145.9135  135.7074  153.2839 C   0  0  0  0  0  0  0  0  0  0  0  0
  144.9729  135.6776  154.0760 O   0  0  0  0  0  0  0  0  0  0  0  0
  146.3995  134.5977  152.6971 N   0  0  0  0  0  0  0  0  0  0  0  0
  145.7156  133.3518  152.5704 C   0  0  0  0  0  0  0  0  0  0  0  0
  145.6076  132.7539  151.1843 C   0  0  0  0  0  0  0  0  0  0  0  0
  144.3907  133.3458  151.8392 C   0  0  0  0  0  0  0  0  0  0  0  0
  149.3915  138.7646  154.0947 C   0  0  0  0  0  0  0  0  0  0  0  0
  150.5374  137.4604  158.5982 H   0  0  0  0  0  0  0  0  0  0  0  0
  149.5237  137.7989  157.1831 H   0  0  0  0  0  0  0  0  0  0  0  0
  150.7659  138.9537  157.6901 H   0  0  0  0  0  0  0  0  0  0  0  0
  151.3785  135.4044  157.8011 H   0  0  0  0  0  0  0  0  0  0  0  0
  152.2359  135.2973  156.2661 H   0  0  0  0  0  0  0  0  0  0  0  0
  150.4715  135.4374  156.2786 H   0  0  0  0  0  0  0  0  0  0  0  0
  151.3191  140.7795  155.9888 H   0  0  0  0  0  0  0  0  0  0  0  0
  149.6109  142.3733  155.3900 H   0  0  0  0  0  0  0  0  0  0  0  0
  146.6219  140.0074  152.6132 H   0  0  0  0  0  0  0  0  0  0  0  0
  147.7021  138.8298  151.9443 H   0  0  0  0  0  0  0  0  0  0  0  0
  147.0840  136.8461  152.1392 H   0  0  0  0  0  0  0  0  0  0  0  0
  147.3345  134.6416  152.3163 H   0  0  0  0  0  0  0  0  0  0  0  0
  145.8140  132.6407  153.3894 H   0  0  0  0  0  0  0  0  0  0  0  0
  146.0477  133.3050  150.3553 H   0  0  0  0  0  0  0  0  0  0  0  0
  145.6567  131.6701  151.1005 H   0  0  0  0  0  0  0  0  0  0  0  0
  143.6262  132.6573  152.1937 H   0  0  0  0  0  0  0  0  0  0  0  0
  144.0202  134.2918  151.4487 H   0  0  0  0  0  0  0  0  0  0  0  0
  149.2945  137.7879  153.6431 H   0  0  0  0  0  0  0  0  0  0  0  0
  1  2  1  0  0  0  0
  1 24  1  0  0  0  0
  1 25  1  0  0  0  0
  1 26  1  0  0  0  0
  2  3  1  0  0  0  0
  2  4  1  0  0  0  0
  3 27  1  0  0  0  0
  3 28  1  0  0  0  0
  3 29  1  0  0  0  0
  4  5  2  0  0  0  0
  4  6  2  0  0  0  0
  4  7  1  0  0  0  0
  7 23  2  0  0  0  0
  7  8  1  0  0  0  0
  8  9  2  0  0  0  0
  8 30  1  0  0  0  0
  9 10  1  0  0  0  0
  9 31  1  0  0  0  0
 10 11  2  0  0  0  0
 10 12  1  0  0  0  0
 12 13  1  0  0  0  0
 12 23  1  0  0  0  0
 13 14  1  0  0  0  0
 13 32  1  0  0  0  0
 13 33  1  0  0  0  0
 14 15  2  0  0  0  0
 14 16  1  0  0  0  0
 16 17  1  0  0  0  0
 16 34  1  0  0  0  0
 17 18  2  0  0  0  0
 17 19  1  0  0  0  0
 19 20  1  0  0  0  0
 19 35  1  0  0  0  0
 20 22  1  0  0  0  0
 20 21  1  0  0  0  0
 20 36  1  0  0  0  0
 21 22  1  0  0  0  0
 21 37  1  0  0  0  0
 21 38  1  0  0  0  0
 22 39  1  0  0  0  0
 22 40  1  0  0  0  0
 23 41  1  0  0  0  0
M  END
> <s_m_source_file>
AV-unprocessed.smi

> <i_m_source_file_index>
478

> <i_lp_mmshare_version>
43012

> <i_f3d_flags>
0

> <s_epik_input>
W0NIM11OKFtDSDNdKVMoPU8pKD1PKWMxW2NIXVtjSF1jKD1PKW4oW2NIXTEpW0NIMl1DKD1PKVtOSF1DKD1PKVtOSF1bQ0hdMltDSDJdW0NIMl0y

> <s_epik_cmdline>
J2VwaWtfcHl0aG9uJywgJy1waCcsICc3LjAnLCAnLXRuJywgJzgnLCAnLW1hJywgJzIwMCcsICctbWV0YWxfYmluZGluZycsICctaW1hZScsICc8aW5maWxlLm1hZT4nLCAnLW9tYWUnLCAnPG91dGZpbGUubWFlPic=

> <r_lp_tautomer_probability>
1

> <r_epik_Ionization_Penalty>
3.37124e-05

> <r_epik_Ionization_Penalty_Charging>
7.23904e-09

> <r_epik_Ionization_Penalty_Neutral>
3.37051e-05

> <r_epik_State_Penalty>
-0

> <r_epik_Charging_Adjusted_Penalty>
7.23904e-09

> <i_epik_Tot_Q>
0

> <i_epik_Tot_abs_Q>
0

> <r_epik_Metal_State_Penalty>
-0

> <b_epik_Metal_Only>
0

> <s_lp_Force_Field>
OPLS_2005

> <r_lp_Energy>
28.3578

> <b_lp_Chiralities_Consistent>
1

> <s_lp_Variant>
AV-unprocessed.smi:478-1

> <Gold.Version>
5.8.1

> <Gold.Id.Protein>
6NUR|6NUR_protein|mol2

> <Gold.PLP.Fitness>
44.4489

> <Gold.PLP.PLP>
-31.7017

> <Gold.PLP.part.hbond>
-4.0000

> <Gold.PLP.part.metal>
0.0000

> <Gold.PLP.part.buried>
-1.4192

> <Gold.PLP.part.nonpolar>
-27.5254

> <Gold.PLP.part.repulsive>
1.0028

> <Gold.PLP.ligand.clash>
0.0000

> <Gold.PLP.ligand.torsion>
1.5421

> <Gold.PLP.Chemscore.Hbond>
3.4000

> <Gold.PLP.Chemscore.CHOScore>
1.0000

> <Gold.PLP.Chemscore.Metal>
0.0000

> <Gold.Chemscore.Hbonds>
donor molecule, donor type, donor heavy atom, donor atom, acceptor molecule, acceptor atom, score
      L1  H    16    34       P1  7948  0.66
      L1  H    19    35       P1  7948  0.31
      P1  H  7997  8009       L1     5  0.58
      P1  H 10752 10765       L1     6  1.00
      L1  C    23    41       P1  7948  1.00

> <Gold.PLP.Chemscore.Internal.Correction>
2.6315

> <Gold.Rescore>
     Score         DG    S(hbond)    S(metal)    S(lipo)     H(rot)  DE(clash)    DE(int)     intcor
     15.16     -18.12       3.41        0.00      53.27       1.95       0.07       2.89       ----

> <Gold.Chemscore.Fitness>
15.1634

> <Gold.Chemscore.DG>
-18.1177

> <Gold.Chemscore.ZeroCoef>
-5.4800

> <Gold.Chemscore.Hbond>
3.4092

> <Gold.Chemscore.Metal>
0.0000

> <Gold.Chemscore.Lipo>
53.2699

> <Gold.Chemscore.Internal_Hbond>
0.0000

> <Gold.Chemscore.DEClash>
0.0689

> <Gold.Chemscore.DEInternal>
2.8855

> <Gold.Chemscore.Rot>
1.9459

> <Gold.Chemscore.Internal.Correction>
   9.000000E+99

> <Gold.Chemscore.Hbonds>
donor molecule, donor type, donor heavy atom, donor atom, acceptor molecule, acceptor atom, score
      L1  H    16    34       P1  7948  0.65
      L1  H    19    35       P1  7948  0.28
      P1  H  7997  8009       L1     5  0.56
      P1  H 10752 10765       L1     6  0.94

> <Gold.Chemscore.Hbond.Weighted>
-11.3866

> <Gold.Chemscore.Metal.Weighted>
-0.0000

> <Gold.Chemscore.Lipo.Weighted>
-6.2326

> <Gold.Chemscore.Internal_Hbond.Weighted>
0.0000

> <Gold.Chemscore.DEClash.Weighted>
0.0689

> <Gold.Chemscore.DEInternal.Weighted>
2.8855

> <Gold.Chemscore.Rot.Weighted>
4.9815

> <Gold.Chemscore.Internal.Correction.Weighted>
   9.000000E+99

> <Gold.Protein.RotatedTorsions>
[ 6907 6896 6895 6894 ] final -151.82 input  -60.11 | X-H torsion
[ 7974 7965 7964 7962 ] final  -85.85 input  175.53 | X-H torsion
[ 8008 7997 7996 7995 ] final -164.03 input   59.86 | X-H torsion
[ 10167 10162 10161 10158 ] final  107.69 input  -65.29 | X-H torsion
[ 10718 10713 10712 10709 ] final  -65.69 input   66.30 | X-H torsion
[ 10763 10752 10751 10750 ] final  147.49 input  -60.55 | X-H torsion
[ 11005 11000 10999 10996 ] final -121.62 input  -57.11 | X-H torsion

> <Gold.Protein.ActiveResidues>
 VAL166  LYS551  ARG553  GLY616  TRP617  ASP618  TYR619  PRO620  LYS621  CYS622 
 ASP623  PHE694  ASN695  SER759  ASP760  ASP761  ALA762  ILE779  LEU786  VAL792 
 PHE793  MET794  SER795  GLU796  ALA797  LYS798  CYS799  TRP800  GLU811  SER814 

> <Gold.Protein.RotatedAtoms>
  151.2187  133.4515  159.2599 H   0  0  0  0  0  0  0  0  0  0  0  0  # atno 6907 bound_to 6896
  151.0906  134.9914  159.8411 H   0  0  0  0  0  0  0  0  0  0  0  0  # atno 6908 bound_to 6896
  152.5434  134.2120  159.8807 H   0  0  0  0  0  0  0  0  0  0  0  0  # atno 6909 bound_to 6896
  145.4877  140.9554  143.1829 H   0  0  0  0  0  0  0  0  0  0  0  0  # atno 7974 bound_to 7965
  155.8298  140.0932  157.1799 H   0  0  0  0  0  0  0  0  0  0  0  0  # atno 8008 bound_to 7997
  154.3979  140.1421  156.3661 H   0  0  0  0  0  0  0  0  0  0  0  0  # atno 8009 bound_to 7997
  155.8178  140.3447  155.5498 H   0  0  0  0  0  0  0  0  0  0  0  0  # atno 8010 bound_to 7997
  139.6907  144.7108  151.1354 H   0  0  0  0  0  0  0  0  0  0  0  0  # atno 10167 bound_to 10162
  156.0655  130.4251  150.1601 H   0  0  0  0  0  0  0  0  0  0  0  0  # atno 10718 bound_to 10713
  154.0391  135.2891  155.3357 H   0  0  0  0  0  0  0  0  0  0  0  0  # atno 10763 bound_to 10752
  154.6940  135.5215  153.8435 H   0  0  0  0  0  0  0  0  0  0  0  0  # atno 10764 bound_to 10752
  153.0607  135.6612  154.0597 H   0  0  0  0  0  0  0  0  0  0  0  0  # atno 10765 bound_to 10752
  141.0056  134.0339  157.3481 H   0  0  0  0  0  0  0  0  0  0  0  0  # atno 11005 bound_to 11000
  144.7852  139.6443  143.7137 LP  0  0  0  0  0  0  0  0  0  0  0  0  # atno 17320 bound_to 7965
  146.2303  139.5800  142.9560 LP  0  0  0  0  0  0  0  0  0  0  0  0  # atno 17321 bound_to 7965
  140.7681  143.5564  150.9147 LP  0  0  0  0  0  0  0  0  0  0  0  0  # atno 17342 bound_to 10162
  139.9241  143.6571  152.3090 LP  0  0  0  0  0  0  0  0  0  0  0  0  # atno 17343 bound_to 10162
  156.9661  130.9820  151.3469 LP  0  0  0  0  0  0  0  0  0  0  0  0  # atno 17370 bound_to 10713
  157.5693  130.8299  149.8370 LP  0  0  0  0  0  0  0  0  0  0  0  0  # atno 17371 bound_to 10713
  139.9062  135.0180  156.7494 LP  0  0  0  0  0  0  0  0  0  0  0  0  # atno 17394 bound_to 11000
  140.6818  133.9468  155.7914 LP  0  0  0  0  0  0  0  0  0  0  0  0  # atno 17395 bound_to 11000

$$$$
