AV-unprocessed.smi:2302|AV-procd|sdf|9238|dock4
  -GOLD-   2272012453D 1   1.00000     0.00000
 Structure written by MMmdl.
 40 41  0  0  0  0  0  0  0  0  2 V2000
  153.4245  141.6380  160.8297 C   0  0  0  0  0  0  0  0  0  0  0  0
  152.5736  142.7268  160.2105 C   0  0  0  0  0  0  0  0  0  0  0  0
  152.4665  143.9945  160.8150 C   0  0  0  0  0  0  0  0  0  0  0  0
  151.6576  144.9607  160.1905 C   0  0  0  0  0  0  0  0  0  0  0  0
  150.9930  144.6216  158.9960 C   0  0  0  0  0  0  0  0  0  0  0  0
  151.1523  143.3257  158.4557 C   0  0  0  0  0  0  0  0  0  0  0  0
  150.4396  143.0823  157.2512 N   0  0  0  0  0  0  0  0  0  0  0  0
  150.4040  141.9533  156.5215 C   0  0  0  0  0  0  0  0  0  0  0  0
  151.0079  140.9135  156.7868 O   0  0  0  0  0  0  0  0  0  0  0  0
  149.6161  142.0936  155.4454 N   0  0  0  0  0  0  0  0  0  0  0  0
  149.3515  141.0509  154.4588 C   0  0  0  0  0  0  0  0  0  0  0  0
  148.0840  140.2456  154.7970 C   0  0  2  0  0  0  0  0  0  0  0  0
  147.0435  140.3212  153.6578 C   0  0  0  0  0  0  0  0  0  0  0  0
  145.7822  139.6304  154.0192 N   0  3  1  0  0  0  0  0  0  0  0  0
  145.8532  138.1557  153.9012 C   0  0  0  0  0  0  0  0  0  0  0  0
  145.2689  140.0996  155.3279 C   0  0  0  0  0  0  0  0  0  0  0  0
  146.3616  140.0420  156.4109 C   0  0  0  0  0  0  0  0  0  0  0  0
  147.4956  140.7821  155.9784 O   0  0  0  0  0  0  0  0  0  0  0  0
  151.9352  142.4012  159.0658 N   0  0  0  0  0  0  0  0  0  0  0  0
  154.0974  142.0455  161.5846 H   0  0  0  0  0  0  0  0  0  0  0  0
  154.0296  141.1440  160.0687 H   0  0  0  0  0  0  0  0  0  0  0  0
  152.7903  140.8891  161.3044 H   0  0  0  0  0  0  0  0  0  0  0  0
  152.9887  144.2225  161.7325 H   0  0  0  0  0  0  0  0  0  0  0  0
  151.5476  145.9454  160.6200 H   0  0  0  0  0  0  0  0  0  0  0  0
  150.3676  145.3526  158.5043 H   0  0  0  0  0  0  0  0  0  0  0  0
  149.8896  143.8564  156.9099 H   0  0  0  0  0  0  0  0  0  0  0  0
  149.1568  142.9816  155.3047 H   0  0  0  0  0  0  0  0  0  0  0  0
  149.2843  141.4738  153.4548 H   0  0  0  0  0  0  0  0  0  0  0  0
  150.2153  140.3858  154.4519 H   0  0  0  0  0  0  0  0  0  0  0  0
  148.3690  139.2069  154.9725 H   0  0  0  0  0  0  0  0  0  0  0  0
  146.8090  141.3661  153.4500 H   0  0  0  0  0  0  0  0  0  0  0  0
  147.4472  139.9063  152.7334 H   0  0  0  0  0  0  0  0  0  0  0  0
  146.5577  137.7231  154.6116 H   0  0  0  0  0  0  0  0  0  0  0  0
  146.1640  137.8673  152.8965 H   0  0  0  0  0  0  0  0  0  0  0  0
  144.8739  137.7119  154.0824 H   0  0  0  0  0  0  0  0  0  0  0  0
  144.9321  141.1305  155.2128 H   0  0  0  0  0  0  0  0  0  0  0  0
  144.3944  139.5196  155.6255 H   0  0  0  0  0  0  0  0  0  0  0  0
  145.9910  140.4785  157.3384 H   0  0  0  0  0  0  0  0  0  0  0  0
  146.6450  139.0136  156.6383 H   0  0  0  0  0  0  0  0  0  0  0  0
  145.0988  139.9142  153.3312 H   0  0  0  0  0  0  0  0  0  0  0  0
  1  2  1  0  0  0  0
  1 20  1  0  0  0  0
  1 21  1  0  0  0  0
  1 22  1  0  0  0  0
  2 19  1  0  0  0  0
  2  3  2  0  0  0  0
  3  4  1  0  0  0  0
  3 23  1  0  0  0  0
  4  5  2  0  0  0  0
  4 24  1  0  0  0  0
  5  6  1  0  0  0  0
  5 25  1  0  0  0  0
  6  7  1  0  0  0  0
  6 19  2  0  0  0  0
  7  8  1  0  0  0  0
  7 26  1  0  0  0  0
  8  9  2  0  0  0  0
  8 10  1  0  0  0  0
 10 11  1  0  0  0  0
 10 27  1  0  0  0  0
 11 12  1  0  0  0  0
 11 28  1  0  0  0  0
 11 29  1  0  0  0  0
 12 18  1  0  0  0  0
 12 13  1  0  0  0  0
 12 30  1  0  0  0  0
 13 14  1  0  0  0  0
 13 31  1  0  0  0  0
 13 32  1  0  0  0  0
 14 15  1  0  0  0  0
 14 16  1  0  0  0  0
 14 40  1  0  0  0  0
 15 33  1  0  0  0  0
 15 34  1  0  0  0  0
 15 35  1  0  0  0  0
 16 17  1  0  0  0  0
 16 36  1  0  0  0  0
 16 37  1  0  0  0  0
 17 18  1  0  0  0  0
 17 38  1  0  0  0  0
 17 39  1  0  0  0  0
M  CHG  1  14   1
M  END
> <s_m_source_file>
AV-unprocessed.smi

> <i_m_source_file_index>
2302

> <i_lp_mmshare_version>
43012

> <i_f3d_flags>
0

> <s_epik_input>
W0NIM11jMVtjSF1bY0hdW2NIXWMobjEpW05IXUMoPU8pW05IXVtDSDJdW0NAQEhdMltDSDJdTihbQ0gzXSlbQ0gyXVtDSDJdTzI=

> <s_epik_cmdline>
J2VwaWtfcHl0aG9uJywgJy1waCcsICc3LjAnLCAnLXRuJywgJzgnLCAnLW1hJywgJzIwMCcsICctbWV0YWxfYmluZGluZycsICctaW1hZScsICc8aW5maWxlLm1hZT4nLCAnLW9tYWUnLCAnPG91dGZpbGUubWFlPic=

> <r_epik_Ionization_Penalty>
0.204647

> <r_epik_Ionization_Penalty_Charging>
0.204578

> <r_epik_Ionization_Penalty_Neutral>
6.91954e-05

> <r_epik_State_Penalty>
0.194513

> <r_epik_Charging_Adjusted_Penalty>
0.399091

> <i_epik_Tot_Q>
1

> <i_epik_Tot_abs_Q>
1

> <r_epik_Metal_State_Penalty>
0.194515

> <b_epik_Metal_Only>
0

> <s_lp_Force_Field>
OPLS_2005

> <r_lp_Energy>
17.8944

> <b_lp_Chiralities_Consistent>
1

> <s_lp_Variant>
AV-unprocessed.smi:2302-3

> <Gold.Version>
5.8.1

> <Gold.Id.Protein>
6NUR|6NUR_protein|mol2

> <Gold.PLP.Fitness>
45.2941

> <Gold.PLP.PLP>
-35.1553

> <Gold.PLP.part.hbond>
-3.0000

> <Gold.PLP.part.metal>
0.0000

> <Gold.PLP.part.buried>
-5.4403

> <Gold.PLP.part.nonpolar>
-27.0924

> <Gold.PLP.part.repulsive>
0.2541

> <Gold.PLP.ligand.clash>
0.0000

> <Gold.PLP.ligand.torsion>
0.9321

> <Gold.PLP.Chemscore.Hbond>
4.0000

> <Gold.PLP.Chemscore.CHOScore>
0.0000

> <Gold.PLP.Chemscore.Metal>
0.0000

> <Gold.Chemscore.Hbonds>
donor molecule, donor type, donor heavy atom, donor atom, acceptor molecule, acceptor atom, score
      L1  H     7    26       P1  8028  1.00
      L1  H    10    27       P1  8028  1.00
      L1  H    14    40       P1 10175  2.00

> <Gold.PLP.Chemscore.Internal.Correction>
0.0030

> <Gold.Rescore>
     Score         DG    S(hbond)    S(metal)    S(lipo)     H(rot)  DE(clash)    DE(int)     intcor
     19.42     -21.82       2.96        0.00      82.98       1.27       0.18       2.22       ----

> <Gold.Chemscore.Fitness>
19.4209

> <Gold.Chemscore.DG>
-21.8226

> <Gold.Chemscore.ZeroCoef>
-5.4800

> <Gold.Chemscore.Hbond>
2.9625

> <Gold.Chemscore.Metal>
0.0000

> <Gold.Chemscore.Lipo>
82.9768

> <Gold.Chemscore.Internal_Hbond>
0.0000

> <Gold.Chemscore.DEClash>
0.1768

> <Gold.Chemscore.DEInternal>
2.2249

> <Gold.Chemscore.Rot>
1.2736

> <Gold.Chemscore.Internal.Correction>
   9.000000E+99

> <Gold.Chemscore.Hbonds>
donor molecule, donor type, donor heavy atom, donor atom, acceptor molecule, acceptor atom, score
      L1  H     7    26       P1  8028  0.95
      L1  H    10    27       P1  8028  0.98
      L1  H    14    40       P1 10175  1.00

> <Gold.Chemscore.Hbond.Weighted>
-9.8946

> <Gold.Chemscore.Metal.Weighted>
-0.0000

> <Gold.Chemscore.Lipo.Weighted>
-9.7083

> <Gold.Chemscore.Internal_Hbond.Weighted>
0.0000

> <Gold.Chemscore.DEClash.Weighted>
0.1768

> <Gold.Chemscore.DEInternal.Weighted>
2.2249

> <Gold.Chemscore.Rot.Weighted>
3.2603

> <Gold.Chemscore.Internal.Correction.Weighted>
   9.000000E+99

> <Gold.Protein.RotatedTorsions>
[ 6907 6896 6895 6894 ] final  -28.34 input  -60.11 | X-H torsion
[ 7974 7965 7964 7962 ] final  135.99 input  175.53 | X-H torsion
[ 8008 7997 7996 7995 ] final   -6.20 input   59.86 | X-H torsion
[ 10167 10162 10161 10158 ] final -157.67 input  -65.29 | X-H torsion
[ 10718 10713 10712 10709 ] final   -9.85 input   66.30 | X-H torsion
[ 10763 10752 10751 10750 ] final  102.71 input  -60.55 | X-H torsion
[ 11005 11000 10999 10996 ] final   21.96 input  -57.11 | X-H torsion

> <Gold.Protein.ActiveResidues>
 VAL166  LYS551  ARG553  GLY616  TRP617  ASP618  TYR619  PRO620  LYS621  CYS622 
 ASP623  PHE694  ASN695  SER759  ASP760  ASP761  ALA762  ILE779  LEU786  VAL792 
 PHE793  MET794  SER795  GLU796  ALA797  LYS798  CYS799  TRP800  GLU811  SER814 

> <Gold.Protein.RotatedAtoms>
  151.1343  135.0146  159.8596 H   0  0  0  0  0  0  0  0  0  0  0  0  # atno 6907 bound_to 6896
  152.5451  134.1573  159.8553 H   0  0  0  0  0  0  0  0  0  0  0  0  # atno 6908 bound_to 6896
  151.1643  133.4779  159.2627 H   0  0  0  0  0  0  0  0  0  0  0  0  # atno 6909 bound_to 6896
  144.9608  139.4712  143.5480 H   0  0  0  0  0  0  0  0  0  0  0  0  # atno 7974 bound_to 7965
  154.5962  140.2439  155.7854 H   0  0  0  0  0  0  0  0  0  0  0  0  # atno 8008 bound_to 7997
  156.2280  140.2976  156.0070 H   0  0  0  0  0  0  0  0  0  0  0  0  # atno 8009 bound_to 7997
  155.2289  140.0403  157.2950 H   0  0  0  0  0  0  0  0  0  0  0  0  # atno 8010 bound_to 7997
  139.6752  143.9675  152.2306 H   0  0  0  0  0  0  0  0  0  0  0  0  # atno 10167 bound_to 10162
  156.6821  130.5040  149.5968 H   0  0  0  0  0  0  0  0  0  0  0  0  # atno 10718 bound_to 10713
  153.3431  135.4001  155.1587 H   0  0  0  0  0  0  0  0  0  0  0  0  # atno 10763 bound_to 10752
  154.8647  135.3638  154.5320 H   0  0  0  0  0  0  0  0  0  0  0  0  # atno 10764 bound_to 10752
  153.5766  135.7077  153.5541 H   0  0  0  0  0  0  0  0  0  0  0  0  # atno 10765 bound_to 10752
  140.3859  134.1871  155.7663 H   0  0  0  0  0  0  0  0  0  0  0  0  # atno 11005 bound_to 11000
  146.3352  139.8757  142.8832 LP  0  0  0  0  0  0  0  0  0  0  0  0  # atno 17320 bound_to 7965
  145.2702  141.0106  143.3776 LP  0  0  0  0  0  0  0  0  0  0  0  0  # atno 17321 bound_to 7965
  139.9450  144.6657  150.8228 LP  0  0  0  0  0  0  0  0  0  0  0  0  # atno 17342 bound_to 10162
  140.7633  143.3219  151.2603 LP  0  0  0  0  0  0  0  0  0  0  0  0  # atno 17343 bound_to 10162
  156.1860  130.6529  151.1007 LP  0  0  0  0  0  0  0  0  0  0  0  0  # atno 17370 bound_to 10713
  157.7040  131.0764  150.6728 LP  0  0  0  0  0  0  0  0  0  0  0  0  # atno 17371 bound_to 10713
  141.1908  133.8210  157.0905 LP  0  0  0  0  0  0  0  0  0  0  0  0  # atno 17394 bound_to 11000
  140.0443  134.9838  157.1020 LP  0  0  0  0  0  0  0  0  0  0  0  0  # atno 17395 bound_to 11000

$$$$
