AV-unprocessed.smi:218|AV-procd|sdf|1670|dock7
  -GOLD-   2262020 83D 1   1.00000     0.00000
 Structure written by MMmdl.
 54 57  0  0  0  0  0  0  0  0  1 V2000
  153.4944  143.1038  159.3256 C   0  0  0  0  0  0  0  0  0  0  0  0
  153.1801  141.8137  160.0926 C   0  0  0  0  0  0  0  0  0  0  0  0
  154.2852  141.4891  161.1125 C   0  0  0  0  0  0  0  0  0  0  0  0
  153.0761  140.7703  159.1218 O   0  0  0  0  0  0  0  0  0  0  0  0
  151.9929  140.7231  158.2655 C   0  0  0  0  0  0  0  0  0  0  0  0
  151.1474  139.5964  158.3206 C   0  0  0  0  0  0  0  0  0  0  0  0
  150.0416  139.5294  157.4481 C   0  0  0  0  0  0  0  0  0  0  0  0
  149.1119  138.3335  157.4702 C   0  0  0  0  0  0  0  0  0  0  0  0
  147.7992  138.6407  158.0215 N   0  0  0  0  0  0  0  0  0  0  0  0
  146.6849  138.1960  157.4030 C   0  0  0  0  0  0  0  0  0  0  0  0
  145.4644  138.3150  157.9886 N   0  0  0  0  0  0  0  0  0  0  0  0
  144.3740  137.8720  157.3554 C   0  0  0  0  0  0  0  0  0  0  0  0
  144.2837  137.2874  156.1589 N   0  0  0  0  0  0  0  0  0  0  0  0
  145.5080  137.1647  155.5680 C   0  0  0  0  0  0  0  0  0  0  0  0
  146.7470  137.5910  156.1212 C   0  0  0  0  0  0  0  0  0  0  0  0
  147.7804  137.3020  155.2393 N   0  0  0  0  0  0  0  0  0  0  0  0
  147.1819  136.7344  154.2262 C   0  0  0  0  0  0  0  0  0  0  0  0
  145.8155  136.6063  154.3439 N   0  0  0  0  0  0  0  0  0  0  0  0
  144.8600  136.0103  153.3566 C   0  0  2  0  0  0  0  0  0  0  0  0
  145.3276  134.7379  153.0405 O   0  0  0  0  0  0  0  0  0  0  0  0
  145.0996  134.4781  151.6634 C   0  0  2  0  0  0  0  0  0  0  0  0
  146.0715  133.3943  151.1730 C   0  0  0  0  0  0  0  0  0  0  0  0
  145.7296  132.9929  149.8633 O   0  0  0  0  0  0  0  0  0  0  0  0
  145.3304  135.8457  151.0134 C   0  0  1  0  0  0  0  0  0  0  0  0
  144.6260  135.9387  149.7912 O   0  0  0  0  0  0  0  0  0  0  0  0
  144.7569  136.8149  152.0402 C   0  0  2  0  0  0  0  0  0  0  0  0
  145.4683  138.0400  152.0366 O   0  0  0  0  0  0  0  0  0  0  0  0
  149.8249  140.5940  156.5505 C   0  0  0  0  0  0  0  0  0  0  0  0
  150.7238  141.6781  156.5689 C   0  0  0  0  0  0  0  0  0  0  0  0
  151.7841  141.7477  157.4015 N   0  0  0  0  0  0  0  0  0  0  0  0
  143.9100  135.9476  153.8889 H   0  0  0  0  0  0  0  0  0  0  0  0
  144.0596  134.1727  151.5267 H   0  0  0  0  0  0  0  0  0  0  0  0
  146.3965  136.0196  150.8589 H   0  0  0  0  0  0  0  0  0  0  0  0
  143.6989  137.0048  151.8523 H   0  0  0  0  0  0  0  0  0  0  0  0
  153.5778  143.9540  160.0032 H   0  0  0  0  0  0  0  0  0  0  0  0
  152.7076  143.3304  158.6056 H   0  0  0  0  0  0  0  0  0  0  0  0
  154.4329  143.0199  158.7767 H   0  0  0  0  0  0  0  0  0  0  0  0
  152.2308  141.9686  160.6076 H   0  0  0  0  0  0  0  0  0  0  0  0
  154.4040  142.3011  161.8302 H   0  0  0  0  0  0  0  0  0  0  0  0
  155.2449  141.3396  160.6171 H   0  0  0  0  0  0  0  0  0  0  0  0
  154.0618  140.5850  161.6782 H   0  0  0  0  0  0  0  0  0  0  0  0
  151.3489  138.7968  159.0184 H   0  0  0  0  0  0  0  0  0  0  0  0
  148.9941  137.9450  156.4578 H   0  0  0  0  0  0  0  0  0  0  0  0
  149.5828  137.5492  158.0642 H   0  0  0  0  0  0  0  0  0  0  0  0
  147.7875  139.2007  158.8620 H   0  0  0  0  0  0  0  0  0  0  0  0
  143.4408  138.0042  157.8829 H   0  0  0  0  0  0  0  0  0  0  0  0
  147.7261  136.3882  153.3597 H   0  0  0  0  0  0  0  0  0  0  0  0
  147.0873  133.7888  151.1379 H   0  0  0  0  0  0  0  0  0  0  0  0
  146.0803  132.5362  151.8458 H   0  0  0  0  0  0  0  0  0  0  0  0
  145.6550  133.7643  149.3224 H   0  0  0  0  0  0  0  0  0  0  0  0
  144.2572  136.8065  149.7260 H   0  0  0  0  0  0  0  0  0  0  0  0
  144.8408  138.7471  152.0185 H   0  0  0  0  0  0  0  0  0  0  0  0
  148.9915  140.5845  155.8636 H   0  0  0  0  0  0  0  0  0  0  0  0
  150.5879  142.5115  155.8959 H   0  0  0  0  0  0  0  0  0  0  0  0
  1  2  1  0  0  0  0
  1 35  1  0  0  0  0
  1 36  1  0  0  0  0
  1 37  1  0  0  0  0
  2  3  1  0  0  0  0
  2  4  1  0  0  0  0
  2 38  1  0  0  0  0
  3 39  1  0  0  0  0
  3 40  1  0  0  0  0
  3 41  1  0  0  0  0
  4  5  1  0  0  0  0
  5 30  1  0  0  0  0
  5  6  2  0  0  0  0
  6  7  1  0  0  0  0
  6 42  1  0  0  0  0
  7  8  1  0  0  0  0
  7 28  2  0  0  0  0
  8  9  1  0  0  0  0
  8 43  1  0  0  0  0
  8 44  1  0  0  0  0
  9 10  1  0  0  0  0
  9 45  1  0  0  0  0
 10 15  1  0  0  0  0
 10 11  2  0  0  0  0
 11 12  1  0  0  0  0
 12 13  2  0  0  0  0
 12 46  1  0  0  0  0
 13 14  1  0  0  0  0
 14 18  1  0  0  0  0
 14 15  2  0  0  0  0
 15 16  1  0  0  0  0
 16 17  2  0  0  0  0
 17 18  1  0  0  0  0
 17 47  1  0  0  0  0
 18 19  1  0  0  0  0
 19 31  1  0  0  0  0
 19 26  1  0  0  0  0
 19 20  1  0  0  0  0
 20 21  1  0  0  0  0
 21 32  1  0  0  0  0
 21 22  1  0  0  0  0
 21 24  1  0  0  0  0
 22 23  1  0  0  0  0
 22 48  1  0  0  0  0
 22 49  1  0  0  0  0
 23 50  1  0  0  0  0
 24 33  1  0  0  0  0
 24 25  1  0  0  0  0
 24 26  1  0  0  0  0
 25 51  1  0  0  0  0
 26 34  1  0  0  0  0
 26 27  1  0  0  0  0
 27 52  1  0  0  0  0
 28 29  1  0  0  0  0
 28 53  1  0  0  0  0
 29 30  2  0  0  0  0
 29 54  1  0  0  0  0
M  END
> <s_m_source_file>
AV-unprocessed.smi

> <i_m_source_file_index>
218

> <i_lp_mmshare_version>
43012

> <i_f3d_flags>
0

> <s_epik_input>
W0NIM11bQ0hdKFtDSDNdKU9jMVtjSF1jKFtjSF1bY0hdbjEpW0NIMl1bTkhdYyhuW2NIXW4yKWMoYzIzKW5bY0hdbjNbQ0BASF00T1tDQEhdKFtDSDJdW09IXSlbQ0BASF0oW09IXSlbQ0BIXTRbT0hd

> <s_epik_cmdline>
J2VwaWtfcHl0aG9uJywgJy1waCcsICc3LjAnLCAnLXRuJywgJzgnLCAnLW1hJywgJzIwMCcsICctbWV0YWxfYmluZGluZycsICctaW1hZScsICc8aW5maWxlLm1hZT4nLCAnLW9tYWUnLCAnPG91dGZpbGUubWFlPic=

> <r_lp_tautomer_probability>
1

> <r_epik_Ionization_Penalty>
0.00457014

> <r_epik_Ionization_Penalty_Charging>
0

> <r_epik_Ionization_Penalty_Neutral>
0.00457014

> <r_epik_State_Penalty>
-0

> <r_epik_Charging_Adjusted_Penalty>
0

> <i_epik_Tot_Q>
0

> <i_epik_Tot_abs_Q>
0

> <r_epik_Metal_State_Penalty>
-0

> <b_epik_Metal_Only>
0

> <s_epik_Chemistry_Notes>
This compound contains an acetal/aminal-like group ( X-CH(R)-Y where X, Y are N, S, or O) that may be acid/base labile, releasing an aldehyde.

> <s_lp_Force_Field>
OPLS_2005

> <r_lp_Energy>
38.9245

> <b_lp_Chiralities_Consistent>
1

> <s_lp_Variant>
AV-unprocessed.smi:218-9

> <Gold.Version>
5.8.1

> <Gold.Id.Protein>
6NUR|6NUR_protein|mol2

> <Gold.PLP.Fitness>
49.3620

> <Gold.PLP.PLP>
-35.0062

> <Gold.PLP.part.hbond>
-5.0000

> <Gold.PLP.part.metal>
0.0000

> <Gold.PLP.part.buried>
-4.3957

> <Gold.PLP.part.nonpolar>
-26.2655

> <Gold.PLP.part.repulsive>
0.4273

> <Gold.PLP.ligand.clash>
0.0000

> <Gold.PLP.ligand.torsion>
0.4468

> <Gold.PLP.Chemscore.Hbond>
3.0000

> <Gold.PLP.Chemscore.CHOScore>
2.0000

> <Gold.PLP.Chemscore.Metal>
0.0000

> <Gold.Chemscore.Hbonds>
donor molecule, donor type, donor heavy atom, donor atom, acceptor molecule, acceptor atom, score
      L1  H    23    50       P1  7921  0.97
      L1  H    25    51       P1 10171  1.00
      L1  H    27    52       P1 10175  0.81
      L1  C    17    47       P1  7948  0.78
      L1  C    29    54       P1  8028  0.34

> <Gold.PLP.Chemscore.Internal.Correction>
0.2495

> <Gold.Rescore>
     Score         DG    S(hbond)    S(metal)    S(lipo)     H(rot)  DE(clash)    DE(int)     intcor
      6.70     -10.59       2.76        0.00      72.03       4.90       0.54       3.35       ----

> <Gold.Chemscore.Fitness>
6.6994

> <Gold.Chemscore.DG>
-10.5863

> <Gold.Chemscore.ZeroCoef>
-5.4800

> <Gold.Chemscore.Hbond>
2.7636

> <Gold.Chemscore.Metal>
0.0000

> <Gold.Chemscore.Lipo>
72.0299

> <Gold.Chemscore.Internal_Hbond>
0.0000

> <Gold.Chemscore.DEClash>
0.5405

> <Gold.Chemscore.DEInternal>
3.3464

> <Gold.Chemscore.Rot>
4.9029

> <Gold.Chemscore.Internal.Correction>
   9.000000E+99

> <Gold.Chemscore.Hbonds>
donor molecule, donor type, donor heavy atom, donor atom, acceptor molecule, acceptor atom, score
      L1  H    23    50       P1  7921  0.35
      L1  H    25    51       P1 10171  1.00
      L1  H    27    52       P1 10175  0.80

> <Gold.Chemscore.Hbond.Weighted>
-9.2303

> <Gold.Chemscore.Metal.Weighted>
-0.0000

> <Gold.Chemscore.Lipo.Weighted>
-8.4275

> <Gold.Chemscore.Internal_Hbond.Weighted>
0.0000

> <Gold.Chemscore.DEClash.Weighted>
0.5405

> <Gold.Chemscore.DEInternal.Weighted>
3.3464

> <Gold.Chemscore.Rot.Weighted>
12.5515

> <Gold.Chemscore.Internal.Correction.Weighted>
   9.000000E+99

> <Gold.Protein.RotatedTorsions>
[ 6907 6896 6895 6894 ] final  -92.99 input  -60.11 | X-H torsion
[ 7974 7965 7964 7962 ] final   16.71 input  175.53 | X-H torsion
[ 8008 7997 7996 7995 ] final  169.59 input   59.86 | X-H torsion
[ 10167 10162 10161 10158 ] final  105.51 input  -65.29 | X-H torsion
[ 10718 10713 10712 10709 ] final  -66.34 input   66.30 | X-H torsion
[ 10763 10752 10751 10750 ] final   31.20 input  -60.55 | X-H torsion
[ 11005 11000 10999 10996 ] final   27.68 input  -57.11 | X-H torsion

> <Gold.Protein.ActiveResidues>
 VAL166  LYS551  ARG553  GLY616  TRP617  ASP618  TYR619  PRO620  LYS621  CYS622 
 ASP623  PHE694  ASN695  SER759  ASP760  ASP761  ALA762  ILE779  LEU786  VAL792 
 PHE793  MET794  SER795  GLU796  ALA797  LYS798  CYS799  TRP800  GLU811  SER814 

> <Gold.Protein.RotatedAtoms>
  150.6915  134.2036  159.4331 H   0  0  0  0  0  0  0  0  0  0  0  0  # atno 6907 bound_to 6896
  152.0001  134.9930  160.0574 H   0  0  0  0  0  0  0  0  0  0  0  0  # atno 6908 bound_to 6896
  152.1587  133.4533  159.4886 H   0  0  0  0  0  0  0  0  0  0  0  0  # atno 6909 bound_to 6896
  146.2241  139.8708  142.8588 H   0  0  0  0  0  0  0  0  0  0  0  0  # atno 7974 bound_to 7965
  156.1443  140.1560  156.8871 H   0  0  0  0  0  0  0  0  0  0  0  0  # atno 8008 bound_to 7997
  154.5014  140.0824  156.7844 H   0  0  0  0  0  0  0  0  0  0  0  0  # atno 8009 bound_to 7997
  155.4019  140.3415  155.4260 H   0  0  0  0  0  0  0  0  0  0  0  0  # atno 8010 bound_to 7997
  139.7087  144.7081  151.1063 H   0  0  0  0  0  0  0  0  0  0  0  0  # atno 10167 bound_to 10162
  156.0618  130.4260  150.1695 H   0  0  0  0  0  0  0  0  0  0  0  0  # atno 10718 bound_to 10713
  153.0329  135.6445  154.1162 H   0  0  0  0  0  0  0  0  0  0  0  0  # atno 10763 bound_to 10752
  154.0882  135.2868  155.3278 H   0  0  0  0  0  0  0  0  0  0  0  0  # atno 10764 bound_to 10752
  154.6483  135.5435  153.7935 H   0  0  0  0  0  0  0  0  0  0  0  0  # atno 10765 bound_to 10752
  140.3237  134.2515  155.7713 H   0  0  0  0  0  0  0  0  0  0  0  0  # atno 11005 bound_to 11000
  145.2610  141.0077  143.3826 LP  0  0  0  0  0  0  0  0  0  0  0  0  # atno 17320 bound_to 7965
  144.9298  139.4312  143.6500 LP  0  0  0  0  0  0  0  0  0  0  0  0  # atno 17321 bound_to 7965
  140.7728  143.5323  150.9409 LP  0  0  0  0  0  0  0  0  0  0  0  0  # atno 17342 bound_to 10162
  139.9007  143.6839  152.3131 LP  0  0  0  0  0  0  0  0  0  0  0  0  # atno 17343 bound_to 10162
  156.9762  130.9850  151.3448 LP  0  0  0  0  0  0  0  0  0  0  0  0  # atno 17370 bound_to 10713
  157.5631  130.8259  149.8292 LP  0  0  0  0  0  0  0  0  0  0  0  0  # atno 17371 bound_to 10713
  141.2080  133.7789  157.0083 LP  0  0  0  0  0  0  0  0  0  0  0  0  # atno 17394 bound_to 11000
  140.0920  134.9587  157.1791 LP  0  0  0  0  0  0  0  0  0  0  0  0  # atno 17395 bound_to 11000

$$$$
