AV-unprocessed.smi:148|AV-procd|sdf|1205|dock5
  -GOLD-   2262018373D 1   1.00000     0.00000
 Structure written by MMmdl.
 63 67  0  0  0  0  0  0  0  0  1 V2000
  154.6936  133.0694  160.8579 O   0  0  0  0  0  0  0  0  0  0  0  0
  155.6761  134.0560  161.0948 C   0  0  0  0  0  0  0  0  0  0  0  0
  155.0450  135.4683  161.0923 C   0  0  1  0  0  0  0  0  0  0  0  0
  154.4311  135.7819  159.7041 C   0  0  0  0  0  0  0  0  0  0  0  0
  153.9841  137.1566  159.5644 N   0  0  0  0  0  0  0  0  0  0  0  0
  154.7777  138.2799  159.4906 C   0  0  0  0  0  0  0  0  0  0  0  0
  154.1341  139.4078  159.3602 N   0  0  0  0  0  0  0  0  0  0  0  0
  152.7969  139.0327  159.3541 C   0  0  0  0  0  0  0  0  0  0  0  0
  151.5734  139.7452  159.2505 C   0  0  0  0  0  0  0  0  0  0  0  0
  151.5411  141.0915  159.1045 N   0  0  0  0  0  0  0  0  0  0  0  0
  152.5184  141.6864  160.0187 C   0  0  0  0  0  0  0  0  0  0  0  0
  152.3969  143.2141  160.0690 C   0  0  0  0  0  0  0  0  0  0  0  0
  152.5059  143.7994  158.6587 C   0  0  0  0  0  0  0  0  0  0  0  0
  151.4324  143.1727  157.7617 C   0  0  0  0  0  0  0  0  0  0  0  0
  151.5375  141.6246  157.7272 C   0  0  2  0  0  0  0  0  0  0  0  0
  150.4551  140.9650  156.8094 C   0  0  2  0  0  0  0  0  0  0  0  0
  150.5213  141.3886  155.3320 C   0  0  0  0  0  0  0  0  0  0  0  0
  149.1130  141.1665  154.7559 C   0  0  0  0  0  0  0  0  0  0  0  0
  148.2286  140.7260  155.9281 C   0  0  0  0  0  0  0  0  0  0  0  0
  148.9783  141.1819  157.1804 C   0  0  1  0  0  0  0  0  0  0  0  0
  148.5788  140.4348  158.3103 O   0  0  0  0  0  0  0  0  0  0  0  0
  150.4178  139.0277  159.2640 N   0  0  0  0  0  0  0  0  0  0  0  0
  150.4585  137.6985  159.3976 C   0  0  0  0  0  0  0  0  0  0  0  0
  151.5241  136.9036  159.5192 N   0  0  0  0  0  0  0  0  0  0  0  0
  152.6835  137.6214  159.4869 C   0  0  0  0  0  0  0  0  0  0  0  0
  154.0424  135.7016  162.2577 C   0  0  2  0  0  0  0  0  0  0  0  0
  153.5253  137.1328  162.4151 C   0  0  0  0  0  0  0  0  0  0  0  0
  153.6839  137.4263  163.9075 C   0  0  0  0  0  0  0  0  0  0  0  0
  153.7551  136.1444  164.5111 O   0  0  0  0  0  0  0  0  0  0  0  0
  154.5507  135.3397  163.6581 C   0  0  0  0  0  0  0  0  0  0  0  0
  155.1148  132.2238  160.8381 H   0  0  0  0  0  0  0  0  0  0  0  0
  156.1623  133.8423  162.0467 H   0  0  0  0  0  0  0  0  0  0  0  0
  156.4357  133.9521  160.3216 H   0  0  0  0  0  0  0  0  0  0  0  0
  155.8562  136.1796  161.2549 H   0  0  0  0  0  0  0  0  0  0  0  0
  155.1561  135.5884  158.9127 H   0  0  0  0  0  0  0  0  0  0  0  0
  153.5831  135.1232  159.5118 H   0  0  0  0  0  0  0  0  0  0  0  0
  155.8565  138.2364  159.5279 H   0  0  0  0  0  0  0  0  0  0  0  0
  152.3857  141.2845  161.0246 H   0  0  0  0  0  0  0  0  0  0  0  0
  153.5242  141.4097  159.6981 H   0  0  0  0  0  0  0  0  0  0  0  0
  151.4404  143.4925  160.5137 H   0  0  0  0  0  0  0  0  0  0  0  0
  153.1736  143.6299  160.7111 H   0  0  0  0  0  0  0  0  0  0  0  0
  152.3850  144.8825  158.6914 H   0  0  0  0  0  0  0  0  0  0  0  0
  153.4968  143.6044  158.2470 H   0  0  0  0  0  0  0  0  0  0  0  0
  150.4592  143.4783  158.1445 H   0  0  0  0  0  0  0  0  0  0  0  0
  151.5183  143.5959  156.7624 H   0  0  0  0  0  0  0  0  0  0  0  0
  152.5117  141.3806  157.3006 H   0  0  0  0  0  0  0  0  0  0  0  0
  150.6140  139.8868  156.7841 H   0  0  0  0  0  0  0  0  0  0  0  0
  150.7855  142.4394  155.2236 H   0  0  0  0  0  0  0  0  0  0  0  0
  151.2749  140.8155  154.7907 H   0  0  0  0  0  0  0  0  0  0  0  0
  148.7378  142.0955  154.3248 H   0  0  0  0  0  0  0  0  0  0  0  0
  149.1145  140.4170  153.9634 H   0  0  0  0  0  0  0  0  0  0  0  0
  147.2200  141.1362  155.8702 H   0  0  0  0  0  0  0  0  0  0  0  0
  148.1421  139.6380  155.9197 H   0  0  0  0  0  0  0  0  0  0  0  0
  148.7595  142.2354  157.3496 H   0  0  0  0  0  0  0  0  0  0  0  0
  147.7003  140.6910  158.5456 H   0  0  0  0  0  0  0  0  0  0  0  0
  149.5004  137.1996  159.4049 H   0  0  0  0  0  0  0  0  0  0  0  0
  153.1523  135.0974  162.0796 H   0  0  0  0  0  0  0  0  0  0  0  0
  154.0517  137.8671  161.8065 H   0  0  0  0  0  0  0  0  0  0  0  0
  152.4735  137.1782  162.1293 H   0  0  0  0  0  0  0  0  0  0  0  0
  154.6138  137.9650  164.0966 H   0  0  0  0  0  0  0  0  0  0  0  0
  152.8599  138.0153  164.3109 H   0  0  0  0  0  0  0  0  0  0  0  0
  154.4344  134.2797  163.8851 H   0  0  0  0  0  0  0  0  0  0  0  0
  155.5980  135.6055  163.8019 H   0  0  0  0  0  0  0  0  0  0  0  0
  1  2  1  0  0  0  0
  1 31  1  0  0  0  0
  2  3  1  0  0  0  0
  2 32  1  0  0  0  0
  2 33  1  0  0  0  0
  3  4  1  0  0  0  0
  3 26  1  0  0  0  0
  3 34  1  0  0  0  0
  4  5  1  0  0  0  0
  4 35  1  0  0  0  0
  4 36  1  0  0  0  0
  5 25  1  0  0  0  0
  5  6  1  0  0  0  0
  6  7  2  0  0  0  0
  6 37  1  0  0  0  0
  7  8  1  0  0  0  0
  8 25  2  0  0  0  0
  8  9  1  0  0  0  0
  9 10  1  0  0  0  0
  9 22  2  0  0  0  0
 10 15  1  0  0  0  0
 10 11  1  0  0  0  0
 11 12  1  0  0  0  0
 11 38  1  0  0  0  0
 11 39  1  0  0  0  0
 12 13  1  0  0  0  0
 12 40  1  0  0  0  0
 12 41  1  0  0  0  0
 13 14  1  0  0  0  0
 13 42  1  0  0  0  0
 13 43  1  0  0  0  0
 14 15  1  0  0  0  0
 14 44  1  0  0  0  0
 14 45  1  0  0  0  0
 15 16  1  0  0  0  0
 15 46  1  0  0  0  0
 16 20  1  0  0  0  0
 16 17  1  0  0  0  0
 16 47  1  0  0  0  0
 17 18  1  0  0  0  0
 17 48  1  0  0  0  0
 17 49  1  0  0  0  0
 18 19  1  0  0  0  0
 18 50  1  0  0  0  0
 18 51  1  0  0  0  0
 19 20  1  0  0  0  0
 19 52  1  0  0  0  0
 19 53  1  0  0  0  0
 20 21  1  0  0  0  0
 20 54  1  0  0  0  0
 21 55  1  0  0  0  0
 22 23  1  0  0  0  0
 23 24  2  0  0  0  0
 23 56  1  0  0  0  0
 24 25  1  0  0  0  0
 26 30  1  0  0  0  0
 26 27  1  0  0  0  0
 26 57  1  0  0  0  0
 27 28  1  0  0  0  0
 27 58  1  0  0  0  0
 27 59  1  0  0  0  0
 28 29  1  0  0  0  0
 28 60  1  0  0  0  0
 28 61  1  0  0  0  0
 29 30  1  0  0  0  0
 30 62  1  0  0  0  0
 30 63  1  0  0  0  0
M  END
> <s_m_source_file>
AV-unprocessed.smi

> <i_m_source_file_index>
148

> <i_lp_mmshare_version>
43012

> <i_f3d_flags>
0

> <s_epik_input>
W0NIMl0xT1tDSDJdW0NIMl1bQ0BIXTFbQ0BIXShbQ0gyXVtPSF0pW0NIMl1uKFtjSF1uMiljKGMyMyluW2NIXW5jM040W0NIMl1bQ0gyXVtDSDJdW0NIMl1bQ0BIXTRbQ0BASF01W0NIMl1bQ0gyXVtDSDJdW0NASF01W09IXQ==

> <s_epik_cmdline>
J2VwaWtfcHl0aG9uJywgJy1waCcsICc3LjAnLCAnLXRuJywgJzgnLCAnLW1hJywgJzIwMCcsICctbWV0YWxfYmluZGluZycsICctaW1hZScsICc8aW5maWxlLm1hZT4nLCAnLW9tYWUnLCAnPG91dGZpbGUubWFlPic=

> <r_lp_tautomer_probability>
1

> <r_epik_Ionization_Penalty>
0.00556303

> <r_epik_Ionization_Penalty_Charging>
0

> <r_epik_Ionization_Penalty_Neutral>
0.00556303

> <r_epik_State_Penalty>
0.00401767

> <r_epik_Charging_Adjusted_Penalty>
0.00401767

> <i_epik_Tot_Q>
0

> <i_epik_Tot_abs_Q>
0

> <r_epik_Metal_State_Penalty>
-0

> <b_epik_Metal_Only>
0

> <s_lp_Force_Field>
OPLS_2005

> <r_lp_Energy>
67.6364

> <b_lp_Chiralities_Consistent>
1

> <s_lp_Variant>
AV-unprocessed.smi:148-4

> <Gold.Version>
5.8.1

> <Gold.Id.Protein>
6NUR|6NUR_protein|mol2

> <Gold.PLP.Fitness>
49.2813

> <Gold.PLP.PLP>
-44.3876

> <Gold.PLP.part.hbond>
-3.7029

> <Gold.PLP.part.metal>
0.0000

> <Gold.PLP.part.buried>
-5.0092

> <Gold.PLP.part.nonpolar>
-35.7324

> <Gold.PLP.part.repulsive>
0.0682

> <Gold.PLP.ligand.clash>
0.0052

> <Gold.PLP.ligand.torsion>
0.7838

> <Gold.PLP.Chemscore.Hbond>
2.0000

> <Gold.PLP.Chemscore.CHOScore>
0.0000

> <Gold.PLP.Chemscore.Metal>
0.0000

> <Gold.Chemscore.Hbonds>
donor molecule, donor type, donor heavy atom, donor atom, acceptor molecule, acceptor atom, score
      P1  H  6896  6908       L1    24  1.00
      P1  H  7997  8008       L1     7  0.15

> <Gold.PLP.Chemscore.Internal.Correction>
0.4665

> <Gold.Rescore>
     Score         DG    S(hbond)    S(metal)    S(lipo)     H(rot)  DE(clash)    DE(int)     intcor
      9.67     -14.82       1.37        0.00     113.49       3.32       0.47       4.69       ----

> <Gold.Chemscore.Fitness>
9.6706

> <Gold.Chemscore.DG>
-14.8240

> <Gold.Chemscore.ZeroCoef>
-5.4800

> <Gold.Chemscore.Hbond>
1.3671

> <Gold.Chemscore.Metal>
0.0000

> <Gold.Chemscore.Lipo>
113.4872

> <Gold.Chemscore.Internal_Hbond>
0.0000

> <Gold.Chemscore.DEClash>
0.4657

> <Gold.Chemscore.DEInternal>
4.6877

> <Gold.Chemscore.Rot>
3.3203

> <Gold.Chemscore.Internal.Correction>
   9.000000E+99

> <Gold.Chemscore.Hbonds>
donor molecule, donor type, donor heavy atom, donor atom, acceptor molecule, acceptor atom, score
      P1  H  6896  6908       L1    24  0.99
      P1  H  7997  8008       L1     7  0.03

> <Gold.Chemscore.Hbond.Weighted>
-4.5660

> <Gold.Chemscore.Metal.Weighted>
-0.0000

> <Gold.Chemscore.Lipo.Weighted>
-13.2780

> <Gold.Chemscore.Internal_Hbond.Weighted>
0.0000

> <Gold.Chemscore.DEClash.Weighted>
0.4657

> <Gold.Chemscore.DEInternal.Weighted>
4.6877

> <Gold.Chemscore.Rot.Weighted>
8.5000

> <Gold.Chemscore.Internal.Correction.Weighted>
   9.000000E+99

> <Gold.Protein.RotatedTorsions>
[ 6907 6896 6895 6894 ] final -124.60 input  -60.11 | X-H torsion
[ 7974 7965 7964 7962 ] final  -45.90 input  175.53 | X-H torsion
[ 8008 7997 7996 7995 ] final  -94.13 input   59.86 | X-H torsion
[ 10167 10162 10161 10158 ] final  -94.30 input  -65.29 | X-H torsion
[ 10718 10713 10712 10709 ] final   59.09 input   66.30 | X-H torsion
[ 10763 10752 10751 10750 ] final -101.73 input  -60.55 | X-H torsion
[ 11005 11000 10999 10996 ] final -118.01 input  -57.11 | X-H torsion

> <Gold.Protein.ActiveResidues>
 VAL166  LYS551  ARG553  GLY616  TRP617  ASP618  TYR619  PRO620  LYS621  CYS622 
 ASP623  PHE694  ASN695  SER759  ASP760  ASP761  ALA762  ILE779  LEU786  VAL792 
 PHE793  MET794  SER795  GLU796  ALA797  LYS798  CYS799  TRP800  GLU811  SER814 

> <Gold.Protein.RotatedAtoms>
  150.8784  133.7406  159.2939 H   0  0  0  0  0  0  0  0  0  0  0  0  # atno 6907 bound_to 6896
  151.4995  135.1059  159.9835 H   0  0  0  0  0  0  0  0  0  0  0  0  # atno 6908 bound_to 6896
  152.4743  133.8057  159.7032 H   0  0  0  0  0  0  0  0  0  0  0  0  # atno 6909 bound_to 6896
  145.9773  140.7320  142.9381 H   0  0  0  0  0  0  0  0  0  0  0  0  # atno 7974 bound_to 7965
  154.7445  140.0492  157.0840 H   0  0  0  0  0  0  0  0  0  0  0  0  # atno 8008 bound_to 7997
  155.0136  140.3139  155.4801 H   0  0  0  0  0  0  0  0  0  0  0  0  # atno 8009 bound_to 7997
  156.2872  140.2180  156.5251 H   0  0  0  0  0  0  0  0  0  0  0  0  # atno 8010 bound_to 7997
  140.3158  143.3078  152.0099 H   0  0  0  0  0  0  0  0  0  0  0  0  # atno 10167 bound_to 10162
  157.5648  130.8863  149.9169 H   0  0  0  0  0  0  0  0  0  0  0  0  # atno 10718 bound_to 10713
  154.7680  135.4887  153.9592 H   0  0  0  0  0  0  0  0  0  0  0  0  # atno 10763 bound_to 10752
  153.1332  135.6757  153.9153 H   0  0  0  0  0  0  0  0  0  0  0  0  # atno 10764 bound_to 10752
  153.8850  135.3127  155.3425 H   0  0  0  0  0  0  0  0  0  0  0  0  # atno 10765 bound_to 10752
  141.0315  133.9973  157.3135 H   0  0  0  0  0  0  0  0  0  0  0  0  # atno 11005 bound_to 11000
  144.6852  140.2849  143.7286 LP  0  0  0  0  0  0  0  0  0  0  0  0  # atno 17320 bound_to 7965
  145.7820  139.1895  143.2152 LP  0  0  0  0  0  0  0  0  0  0  0  0  # atno 17321 bound_to 7965
  139.4884  144.6349  151.6995 LP  0  0  0  0  0  0  0  0  0  0  0  0  # atno 17342 bound_to 10162
  140.5528  144.0398  150.6134 LP  0  0  0  0  0  0  0  0  0  0  0  0  # atno 17343 bound_to 10162
  156.0697  130.3687  150.0802 LP  0  0  0  0  0  0  0  0  0  0  0  0  # atno 17370 bound_to 10713
  156.8962  130.9605  151.3582 LP  0  0  0  0  0  0  0  0  0  0  0  0  # atno 17371 bound_to 10713
  139.9211  135.0200  156.8068 LP  0  0  0  0  0  0  0  0  0  0  0  0  # atno 17394 bound_to 11000
  140.6397  133.9829  155.7701 LP  0  0  0  0  0  0  0  0  0  0  0  0  # atno 17395 bound_to 11000

$$$$
