AV-unprocessed.smi:2100|AV-procd|sdf|8575|dock8
  -GOLD-   2272011303D 1   1.00000     0.00000
 Structure written by MMmdl.
 41 42  0  0  0  0  0  0  0  0  1 V2000
  148.7146  141.3056  154.5448 C   0  0  0  0  0  0  0  0  0  0  0  0
  149.4756  140.0655  155.0263 C   0  0  1  0  0  0  0  0  0  0  0  0
  148.6093  138.7962  154.9557 C   0  0  0  0  0  0  0  0  0  0  0  0
  149.3980  137.6034  155.2940 N   0  0  0  0  0  0  0  0  0  0  0  0
  148.5185  136.1464  155.6164 S   0  0  0  0  0  0  0  0  0  0  0  0
  149.4772  135.0732  155.9220 O   0  0  0  0  0  0  0  0  0  0  0  0
  147.4154  136.4701  156.5335 O   0  0  0  0  0  0  0  0  0  0  0  0
  147.8619  135.8519  154.0493 N   0  0  0  0  0  0  0  0  0  0  0  0
  146.8293  134.8290  153.8740 C   0  0  0  0  0  0  0  0  0  0  0  0
  145.7889  135.2636  152.8283 C   0  0  0  0  0  0  0  0  0  0  0  0
  145.4503  134.1768  151.8202 C   0  0  0  0  0  0  0  0  0  0  0  0
  146.4761  133.4455  151.1839 C   0  0  0  0  0  0  0  0  0  0  0  0
  146.1155  132.4459  150.2595 C   0  0  0  0  0  0  0  0  0  0  0  0
  144.7495  132.2209  150.0027 C   0  0  0  0  0  0  0  0  0  0  0  0
  143.8009  133.0044  150.6890 C   0  0  0  0  0  0  0  0  0  0  0  0
  144.1362  133.9611  151.5811 N   0  0  0  0  0  0  0  0  0  0  0  0
  150.6399  137.4918  154.5094 C   0  0  0  0  0  0  0  0  0  0  0  0
  151.4514  138.8007  154.5433 C   0  0  2  0  0  0  0  0  0  0  0  0
  152.2020  139.0155  155.8687 C   0  0  0  0  0  0  0  0  0  0  0  0
  150.6270  139.9126  154.2046 O   0  0  0  0  0  0  0  0  0  0  0  0
  147.8244  141.4793  155.1499 H   0  0  0  0  0  0  0  0  0  0  0  0
  148.3987  141.1970  153.5069 H   0  0  0  0  0  0  0  0  0  0  0  0
  149.3400  142.1961  154.6111 H   0  0  0  0  0  0  0  0  0  0  0  0
  149.7799  140.2409  156.0581 H   0  0  0  0  0  0  0  0  0  0  0  0
  147.7680  138.8880  155.6429 H   0  0  0  0  0  0  0  0  0  0  0  0
  148.1930  138.6697  153.9553 H   0  0  0  0  0  0  0  0  0  0  0  0
  148.5708  135.8504  153.3157 H   0  0  0  0  0  0  0  0  0  0  0  0
  147.2888  133.8858  153.5768 H   0  0  0  0  0  0  0  0  0  0  0  0
  146.3451  134.6597  154.8360 H   0  0  0  0  0  0  0  0  0  0  0  0
  144.8727  135.5620  153.3390 H   0  0  0  0  0  0  0  0  0  0  0  0
  146.1373  136.1509  152.2976 H   0  0  0  0  0  0  0  0  0  0  0  0
  147.5162  133.6441  151.3968 H   0  0  0  0  0  0  0  0  0  0  0  0
  146.8732  131.8663  149.7533 H   0  0  0  0  0  0  0  0  0  0  0  0
  144.4362  131.4655  149.2974 H   0  0  0  0  0  0  0  0  0  0  0  0
  142.7446  132.8590  150.5172 H   0  0  0  0  0  0  0  0  0  0  0  0
  151.2484  136.6652  154.8748 H   0  0  0  0  0  0  0  0  0  0  0  0
  150.3747  137.2517  153.4790 H   0  0  0  0  0  0  0  0  0  0  0  0
  152.2090  138.7402  153.7614 H   0  0  0  0  0  0  0  0  0  0  0  0
  152.9452  138.2334  156.0158 H   0  0  0  0  0  0  0  0  0  0  0  0
  151.5361  138.9934  156.7309 H   0  0  0  0  0  0  0  0  0  0  0  0
  152.7260  139.9711  155.8704 H   0  0  0  0  0  0  0  0  0  0  0  0
  1  2  1  0  0  0  0
  1 21  1  0  0  0  0
  1 22  1  0  0  0  0
  1 23  1  0  0  0  0
  2 20  1  0  0  0  0
  2  3  1  0  0  0  0
  2 24  1  0  0  0  0
  3  4  1  0  0  0  0
  3 25  1  0  0  0  0
  3 26  1  0  0  0  0
  4  5  1  0  0  0  0
  4 17  1  0  0  0  0
  5  6  2  0  0  0  0
  5  7  2  0  0  0  0
  5  8  1  0  0  0  0
  8  9  1  0  0  0  0
  8 27  1  0  0  0  0
  9 10  1  0  0  0  0
  9 28  1  0  0  0  0
  9 29  1  0  0  0  0
 10 11  1  0  0  0  0
 10 30  1  0  0  0  0
 10 31  1  0  0  0  0
 11 16  1  0  0  0  0
 11 12  2  0  0  0  0
 12 13  1  0  0  0  0
 12 32  1  0  0  0  0
 13 14  2  0  0  0  0
 13 33  1  0  0  0  0
 14 15  1  0  0  0  0
 14 34  1  0  0  0  0
 15 16  2  0  0  0  0
 15 35  1  0  0  0  0
 17 18  1  0  0  0  0
 17 36  1  0  0  0  0
 17 37  1  0  0  0  0
 18 19  1  0  0  0  0
 18 20  1  0  0  0  0
 18 38  1  0  0  0  0
 19 39  1  0  0  0  0
 19 40  1  0  0  0  0
 19 41  1  0  0  0  0
M  END
> <s_m_source_file>
AV-unprocessed.smi

> <i_m_source_file_index>
2100

> <i_lp_mmshare_version>
43012

> <i_f3d_flags>
0

> <s_epik_input>
W0NIM11bQ0BASF0xW0NIMl1OKFtDSDJdW0NASF0oTzEpW0NIM10pUyg9TykoPU8pW05IXVtDSDJdW0NIMl1jMltjSF1bY0hdW2NIXVtjSF1uMg==

> <s_epik_cmdline>
J2VwaWtfcHl0aG9uJywgJy1waCcsICc3LjAnLCAnLXRuJywgJzgnLCAnLW1hJywgJzIwMCcsICctbWV0YWxfYmluZGluZycsICctaW1hZScsICc8aW5maWxlLm1hZT4nLCAnLW9tYWUnLCAnPG91dGZpbGUubWFlPic=

> <r_epik_Ionization_Penalty>
0.085378

> <r_epik_Ionization_Penalty_Charging>
0

> <r_epik_Ionization_Penalty_Neutral>
0.085378

> <r_epik_State_Penalty>
0.0441186

> <r_epik_Charging_Adjusted_Penalty>
0.0441186

> <i_epik_Tot_Q>
0

> <i_epik_Tot_abs_Q>
0

> <r_epik_Metal_State_Penalty>
0.24397

> <b_epik_Metal_Only>
0

> <s_lp_Force_Field>
OPLS_2005

> <r_lp_Energy>
8.75792

> <b_lp_Chiralities_Consistent>
1

> <s_lp_Variant>
AV-unprocessed.smi:2100-3

> <Gold.Version>
5.8.1

> <Gold.Id.Protein>
6NUR|6NUR_protein|mol2

> <Gold.PLP.Fitness>
38.6230

> <Gold.PLP.PLP>
-31.3780

> <Gold.PLP.part.hbond>
-1.7769

> <Gold.PLP.part.metal>
0.0000

> <Gold.PLP.part.buried>
-4.8924

> <Gold.PLP.part.nonpolar>
-26.1777

> <Gold.PLP.part.repulsive>
0.4239

> <Gold.PLP.ligand.clash>
0.0000

> <Gold.PLP.ligand.torsion>
1.2320

> <Gold.PLP.Chemscore.Hbond>
1.9920

> <Gold.PLP.Chemscore.CHOScore>
1.0000

> <Gold.PLP.Chemscore.Metal>
0.0000

> <Gold.Chemscore.Hbonds>
donor molecule, donor type, donor heavy atom, donor atom, acceptor molecule, acceptor atom, score
      L1  H     8    27       P1  7948  0.98
      P1  H  7989  7998       L1    20  1.00
      L1  C    15    35       P1 10186  1.00

> <Gold.PLP.Chemscore.Internal.Correction>
0.7330

> <Gold.Rescore>
     Score         DG    S(hbond)    S(metal)    S(lipo)     H(rot)  DE(clash)    DE(int)     intcor
     16.30     -17.37       1.89        0.00      85.12       1.71       0.00       1.07       ----

> <Gold.Chemscore.Fitness>
16.3000

> <Gold.Chemscore.DG>
-17.3712

> <Gold.Chemscore.ZeroCoef>
-5.4800

> <Gold.Chemscore.Hbond>
1.8860

> <Gold.Chemscore.Metal>
0.0000

> <Gold.Chemscore.Lipo>
85.1212

> <Gold.Chemscore.Internal_Hbond>
0.0000

> <Gold.Chemscore.DEClash>
0.0030

> <Gold.Chemscore.DEInternal>
1.0682

> <Gold.Chemscore.Rot>
1.7060

> <Gold.Chemscore.Internal.Correction>
   9.000000E+99

> <Gold.Chemscore.Hbonds>
donor molecule, donor type, donor heavy atom, donor atom, acceptor molecule, acceptor atom, score
      L1  H     8    27       P1  7948  0.87
      P1  H  7989  7998       L1    20  0.38

> <Gold.Chemscore.Hbond.Weighted>
-6.2994

> <Gold.Chemscore.Metal.Weighted>
-0.0000

> <Gold.Chemscore.Lipo.Weighted>
-9.9592

> <Gold.Chemscore.Internal_Hbond.Weighted>
0.0000

> <Gold.Chemscore.DEClash.Weighted>
0.0030

> <Gold.Chemscore.DEInternal.Weighted>
1.0682

> <Gold.Chemscore.Rot.Weighted>
4.3674

> <Gold.Chemscore.Internal.Correction.Weighted>
   9.000000E+99

> <Gold.Protein.RotatedTorsions>
[ 6907 6896 6895 6894 ] final  -51.71 input  -60.11 | X-H torsion
[ 7974 7965 7964 7962 ] final   70.88 input  175.53 | X-H torsion
[ 8008 7997 7996 7995 ] final    6.83 input   59.86 | X-H torsion
[ 10167 10162 10161 10158 ] final  -20.67 input  -65.29 | X-H torsion
[ 10718 10713 10712 10709 ] final  -46.77 input   66.30 | X-H torsion
[ 10763 10752 10751 10750 ] final   81.71 input  -60.55 | X-H torsion
[ 11005 11000 10999 10996 ] final  -39.04 input  -57.11 | X-H torsion

> <Gold.Protein.ActiveResidues>
 VAL166  LYS551  ARG553  GLY616  TRP617  ASP618  TYR619  PRO620  LYS621  CYS622 
 ASP623  PHE694  ASN695  SER759  ASP760  ASP761  ALA762  ILE779  LEU786  VAL792 
 PHE793  MET794  SER795  GLU796  ALA797  LYS798  CYS799  TRP800  GLU811  SER814 

> <Gold.Protein.RotatedAtoms>
  150.8585  134.7931  159.7064 H   0  0  0  0  0  0  0  0  0  0  0  0  # atno 6907 bound_to 6896
  152.4629  134.5138  159.9772 H   0  0  0  0  0  0  0  0  0  0  0  0  # atno 6908 bound_to 6896
  151.5246  133.3422  159.2943 H   0  0  0  0  0  0  0  0  0  0  0  0  # atno 6909 bound_to 6896
  145.7727  139.2850  143.1312 H   0  0  0  0  0  0  0  0  0  0  0  0  # atno 7974 bound_to 7965
  154.7461  140.2758  155.6332 H   0  0  0  0  0  0  0  0  0  0  0  0  # atno 8008 bound_to 7997
  156.2885  140.2687  156.2128 H   0  0  0  0  0  0  0  0  0  0  0  0  # atno 8009 bound_to 7997
  155.0196  140.0371  157.2422 H   0  0  0  0  0  0  0  0  0  0  0  0  # atno 8010 bound_to 7997
  140.7277  143.4701  151.0259 H   0  0  0  0  0  0  0  0  0  0  0  0  # atno 10167 bound_to 10162
  156.2150  130.4163  149.9066 H   0  0  0  0  0  0  0  0  0  0  0  0  # atno 10718 bound_to 10713
  153.1140  135.4755  154.9083 H   0  0  0  0  0  0  0  0  0  0  0  0  # atno 10763 bound_to 10752
  154.7509  135.3106  154.8561 H   0  0  0  0  0  0  0  0  0  0  0  0  # atno 10764 bound_to 10752
  153.9142  135.6862  153.4803 H   0  0  0  0  0  0  0  0  0  0  0  0  # atno 10765 bound_to 10752
  141.0072  133.6925  156.2133 H   0  0  0  0  0  0  0  0  0  0  0  0  # atno 11005 bound_to 11000
  146.0154  140.8397  142.9950 LP  0  0  0  0  0  0  0  0  0  0  0  0  # atno 17320 bound_to 7965
  144.6810  140.2551  143.7326 LP  0  0  0  0  0  0  0  0  0  0  0  0  # atno 17321 bound_to 7965
  139.8392  143.7587  152.3180 LP  0  0  0  0  0  0  0  0  0  0  0  0  # atno 17342 bound_to 10162
  139.7729  144.7470  151.0198 LP  0  0  0  0  0  0  0  0  0  0  0  0  # atno 17343 bound_to 10162
  156.6732  130.8828  151.3565 LP  0  0  0  0  0  0  0  0  0  0  0  0  # atno 17370 bound_to 10713
  157.7058  130.9383  150.0927 LP  0  0  0  0  0  0  0  0  0  0  0  0  # atno 17371 bound_to 10713
  140.6793  134.4785  157.5589 LP  0  0  0  0  0  0  0  0  0  0  0  0  # atno 17394 bound_to 11000
  139.9070  134.8427  156.1669 LP  0  0  0  0  0  0  0  0  0  0  0  0  # atno 17395 bound_to 11000

$$$$
