AV-unprocessed.smi:3080|AV-procd|sdf|11739|dock4
  -GOLD-   2272017133D 1   1.00000     0.00000
 Structure written by MMmdl.
 26 27  0  0  0  0  0  0  0  0  1 V2000
  151.3063  137.7052  154.6590 C   0  0  0  0  0  0  0  0  0  0  0  0
  151.7773  138.0979  155.9267 C   0  0  0  0  0  0  0  0  0  0  0  0
  151.4728  139.3915  156.3926 C   0  0  0  0  0  0  0  0  0  0  0  0
  150.7054  140.2405  155.5665 C   0  0  0  0  0  0  0  0  0  0  0  0
  150.3496  141.6449  156.0165 C   0  0  0  0  0  0  0  0  0  0  0  0
  151.2147  142.1129  157.1950 C   0  0  0  0  0  0  0  0  0  0  0  0
  150.8184  143.4537  157.5925 N   0  0  0  0  0  0  0  0  0  0  0  0
  151.9979  144.2114  157.9619 C   0  0  0  0  0  0  0  0  0  0  0  0
  152.7733  143.7542  159.1764 C   0  0  0  0  0  0  0  0  0  0  0  0
  151.9305  145.0037  159.2468 C   0  0  0  0  0  0  0  0  0  0  0  0
  150.2529  139.8714  154.3467 N   0  0  0  0  0  0  0  0  0  0  0  0
  150.5501  138.6284  153.9096 C   0  0  0  0  0  0  0  0  0  0  0  0
  151.5197  136.7207  154.2699 H   0  0  0  0  0  0  0  0  0  0  0  0
  152.3614  137.4193  156.5307 H   0  0  0  0  0  0  0  0  0  0  0  0
  151.8214  139.7221  157.3600 H   0  0  0  0  0  0  0  0  0  0  0  0
  150.4655  142.3253  155.1714 H   0  0  0  0  0  0  0  0  0  0  0  0
  149.2943  141.6747  156.2917 H   0  0  0  0  0  0  0  0  0  0  0  0
  151.0991  141.4307  158.0383 H   0  0  0  0  0  0  0  0  0  0  0  0
  152.2685  142.1112  156.9125 H   0  0  0  0  0  0  0  0  0  0  0  0
  150.3475  143.9031  156.8201 H   0  0  0  0  0  0  0  0  0  0  0  0
  152.5892  144.6686  157.1704 H   0  0  0  0  0  0  0  0  0  0  0  0
  152.4144  142.8763  159.7102 H   0  0  0  0  0  0  0  0  0  0  0  0
  153.8542  143.8780  159.1569 H   0  0  0  0  0  0  0  0  0  0  0  0
  152.4503  145.9591  159.2746 H   0  0  0  0  0  0  0  0  0  0  0  0
  151.0130  144.9560  159.8305 H   0  0  0  0  0  0  0  0  0  0  0  0
  150.1733  138.3614  152.9334 H   0  0  0  0  0  0  0  0  0  0  0  0
  1 12  1  0  0  0  0
  1  2  2  0  0  0  0
  1 13  1  0  0  0  0
  2  3  1  0  0  0  0
  2 14  1  0  0  0  0
  3  4  2  0  0  0  0
  3 15  1  0  0  0  0
  4  5  1  0  0  0  0
  4 11  1  0  0  0  0
  5  6  1  0  0  0  0
  5 16  1  0  0  0  0
  5 17  1  0  0  0  0
  6  7  1  0  0  0  0
  6 18  1  0  0  0  0
  6 19  1  0  0  0  0
  7  8  1  0  0  0  0
  7 20  1  0  0  0  0
  8 10  1  0  0  0  0
  8  9  1  0  0  0  0
  8 21  1  0  0  0  0
  9 10  1  0  0  0  0
  9 22  1  0  0  0  0
  9 23  1  0  0  0  0
 10 24  1  0  0  0  0
 10 25  1  0  0  0  0
 11 12  2  0  0  0  0
 12 26  1  0  0  0  0
M  END
> <s_m_source_file>
AV-unprocessed.smi

> <i_m_source_file_index>
3080

> <i_lp_mmshare_version>
43012

> <i_f3d_flags>
0

> <s_epik_input>
bjFbY0hdW2NIXVtjSF1bY0hdYzFbQ0gyXVtDSDJdW05IXVtDSF0yW0NIMl1bQ0gyXTI=

> <s_epik_cmdline>
J2VwaWtfcHl0aG9uJywgJy1waCcsICc3LjAnLCAnLXRuJywgJzgnLCAnLW1hJywgJzIwMCcsICctbWV0YWxfYmluZGluZycsICctaW1hZScsICc8aW5maWxlLm1hZT4nLCAnLW9tYWUnLCAnPG91dGZpbGUubWFlPic=

> <r_epik_Ionization_Penalty>
2.01082

> <r_epik_Ionization_Penalty_Charging>
0

> <r_epik_Ionization_Penalty_Neutral>
2.01082

> <r_epik_State_Penalty>
2.54051

> <r_epik_Charging_Adjusted_Penalty>
2.54051

> <i_epik_Tot_Q>
0

> <i_epik_Tot_abs_Q>
0

> <r_epik_Metal_State_Penalty>
2.42451

> <b_epik_Metal_Only>
0

> <s_lp_Force_Field>
OPLS_2005

> <r_lp_Energy>
10.6122

> <b_lp_Chiralities_Consistent>
1

> <s_lp_Variant>
AV-unprocessed.smi:3080-2

> <Gold.Version>
5.8.1

> <Gold.Id.Protein>
6NUR|6NUR_protein|mol2

> <Gold.PLP.Fitness>
40.7983

> <Gold.PLP.PLP>
-32.0996

> <Gold.PLP.part.hbond>
-2.0000

> <Gold.PLP.part.metal>
0.0000

> <Gold.PLP.part.buried>
-4.2154

> <Gold.PLP.part.nonpolar>
-26.9020

> <Gold.PLP.part.repulsive>
0.1230

> <Gold.PLP.ligand.clash>
0.0000

> <Gold.PLP.ligand.torsion>
0.8083

> <Gold.PLP.Chemscore.Hbond>
1.5500

> <Gold.PLP.Chemscore.CHOScore>
1.6908

> <Gold.PLP.Chemscore.Metal>
0.0000

> <Gold.Chemscore.Hbonds>
donor molecule, donor type, donor heavy atom, donor atom, acceptor molecule, acceptor atom, score
      L1  H     7    20       P1  8028  1.00
      P1  H  7989  7998       L1    11  0.60
      L1  C    12    26       P1  7948  0.76
      L1  C    12    26       P1  7957  0.89

> <Gold.PLP.Chemscore.Internal.Correction>
0.5930

> <Gold.Rescore>
     Score         DG    S(hbond)    S(metal)    S(lipo)     H(rot)  DE(clash)    DE(int)     intcor
     15.51     -16.14       1.00        0.00      91.80       1.33       0.00       0.62       ----

> <Gold.Chemscore.Fitness>
15.5141

> <Gold.Chemscore.DG>
-16.1382

> <Gold.Chemscore.ZeroCoef>
-5.4800

> <Gold.Chemscore.Hbond>
0.9961

> <Gold.Chemscore.Metal>
0.0000

> <Gold.Chemscore.Lipo>
91.8027

> <Gold.Chemscore.Internal_Hbond>
0.0000

> <Gold.Chemscore.DEClash>
0.0048

> <Gold.Chemscore.DEInternal>
0.6193

> <Gold.Chemscore.Rot>
1.3319

> <Gold.Chemscore.Internal.Correction>
   9.000000E+99

> <Gold.Chemscore.Hbonds>
donor molecule, donor type, donor heavy atom, donor atom, acceptor molecule, acceptor atom, score
      L1  H     7    20       P1  8028  0.94
      P1  H  7989  7998       L1    11  0.01

> <Gold.Chemscore.Hbond.Weighted>
-3.3268

> <Gold.Chemscore.Metal.Weighted>
-0.0000

> <Gold.Chemscore.Lipo.Weighted>
-10.7409

> <Gold.Chemscore.Internal_Hbond.Weighted>
0.0000

> <Gold.Chemscore.DEClash.Weighted>
0.0048

> <Gold.Chemscore.DEInternal.Weighted>
0.6193

> <Gold.Chemscore.Rot.Weighted>
3.4095

> <Gold.Chemscore.Internal.Correction.Weighted>
   9.000000E+99

> <Gold.Protein.RotatedTorsions>
[ 6907 6896 6895 6894 ] final  -80.98 input  -60.11 | X-H torsion
[ 7974 7965 7964 7962 ] final    6.71 input  175.53 | X-H torsion
[ 8008 7997 7996 7995 ] final   -3.87 input   59.86 | X-H torsion
[ 10167 10162 10161 10158 ] final   35.58 input  -65.29 | X-H torsion
[ 10718 10713 10712 10709 ] final  152.47 input   66.30 | X-H torsion
[ 10763 10752 10751 10750 ] final  -38.55 input  -60.55 | X-H torsion
[ 11005 11000 10999 10996 ] final -164.60 input  -57.11 | X-H torsion

> <Gold.Protein.ActiveResidues>
 VAL166  LYS551  ARG553  GLY616  TRP617  ASP618  TYR619  PRO620  LYS621  CYS622 
 ASP623  PHE694  ASN695  SER759  ASP760  ASP761  ALA762  ILE779  LEU786  VAL792 
 PHE793  MET794  SER795  GLU796  ALA797  LYS798  CYS799  TRP800  GLU811  SER814 

> <Gold.Protein.RotatedAtoms>
  150.6920  134.3887  159.5066 H   0  0  0  0  0  0  0  0  0  0  0  0  # atno 6907 bound_to 6896
  152.1679  134.8856  160.0546 H   0  0  0  0  0  0  0  0  0  0  0  0  # atno 6908 bound_to 6896
  151.9893  133.3750  159.4175 H   0  0  0  0  0  0  0  0  0  0  0  0  # atno 6909 bound_to 6896
  146.2432  140.0192  142.8399 H   0  0  0  0  0  0  0  0  0  0  0  0  # atno 7974 bound_to 7965
  154.6203  140.2498  155.7557 H   0  0  0  0  0  0  0  0  0  0  0  0  # atno 8008 bound_to 7997
  156.2423  140.2928  156.0428 H   0  0  0  0  0  0  0  0  0  0  0  0  # atno 8009 bound_to 7997
  155.1907  140.0391  157.2890 H   0  0  0  0  0  0  0  0  0  0  0  0  # atno 8010 bound_to 7997
  140.4208  144.1462  150.6148 H   0  0  0  0  0  0  0  0  0  0  0  0  # atno 10167 bound_to 10162
  157.2574  131.0791  151.1689 H   0  0  0  0  0  0  0  0  0  0  0  0  # atno 10718 bound_to 10713
  153.9148  135.6788  153.4749 H   0  0  0  0  0  0  0  0  0  0  0  0  # atno 10763 bound_to 10752
  153.1060  135.4805  154.8948 H   0  0  0  0  0  0  0  0  0  0  0  0  # atno 10764 bound_to 10752
  154.7509  135.3184  154.8516 H   0  0  0  0  0  0  0  0  0  0  0  0  # atno 10765 bound_to 10752
  140.5851  134.5102  157.5184 H   0  0  0  0  0  0  0  0  0  0  0  0  # atno 11005 bound_to 11000
  145.1256  140.9488  143.4574 LP  0  0  0  0  0  0  0  0  0  0  0  0  # atno 17320 bound_to 7965
  145.0438  139.3238  143.5963 LP  0  0  0  0  0  0  0  0  0  0  0  0  # atno 17321 bound_to 7965
  140.4536  143.2477  151.9315 LP  0  0  0  0  0  0  0  0  0  0  0  0  # atno 17342 bound_to 10162
  139.4782  144.5538  151.8345 LP  0  0  0  0  0  0  0  0  0  0  0  0  # atno 17343 bound_to 10162
  157.3213  130.6938  149.6271 LP  0  0  0  0  0  0  0  0  0  0  0  0  # atno 17370 bound_to 10713
  155.9664  130.4334  150.5007 LP  0  0  0  0  0  0  0  0  0  0  0  0  # atno 17371 bound_to 10713
  139.9299  134.7983  156.0959 LP  0  0  0  0  0  0  0  0  0  0  0  0  # atno 17394 bound_to 11000
  141.0971  133.6691  156.2670 LP  0  0  0  0  0  0  0  0  0  0  0  0  # atno 17395 bound_to 11000

$$$$
