AV-unprocessed.smi:1802|AV-procd|sdf|7271|dock9
  -GOLD-   22720 8533D 1   1.00000     0.00000
 Structure written by MMmdl.
 41 42  0  0  0  0  0  0  0  0  2 V2000
  153.2943  142.0947  160.7055 C   0  0  0  0  0  0  0  0  0  0  0  0
  152.8495  142.4682  159.2844 C   0  0  2  0  0  0  0  0  0  0  0  0
  152.5399  143.9702  159.1702 C   0  0  0  0  0  0  0  0  0  0  0  0
  152.0784  144.3094  157.7480 C   0  0  0  0  0  0  0  0  0  0  0  0
  150.8827  143.4364  157.3372 C   0  0  0  0  0  0  0  0  0  0  0  0
  151.2082  141.9910  157.4520 N   0  3  2  0  0  0  0  0  0  0  0  0
  150.1133  141.1323  156.9328 C   0  0  0  0  0  0  0  0  0  0  0  0
  150.1089  141.0366  155.3971 C   0  0  0  0  0  0  0  0  0  0  0  0
  148.7167  141.3123  154.8047 C   0  0  0  0  0  0  0  0  0  0  0  0
  148.4173  140.4264  153.6853 N   0  0  0  0  0  0  0  0  0  0  0  0
  147.4351  139.5136  153.6720 C   0  0  0  0  0  0  0  0  0  0  0  0
  146.6910  139.3077  154.6314 O   0  0  0  0  0  0  0  0  0  0  0  0
  147.3802  138.8716  152.4916 N   0  0  0  0  0  0  0  0  0  0  0  0
  146.4677  137.8640  152.0806 C   0  0  0  0  0  0  0  0  0  0  0  0
  146.4556  137.3278  150.8500 N   0  0  0  0  0  0  0  0  0  0  0  0
  145.4664  136.3627  150.7136 N   0  0  0  0  0  0  0  0  0  0  0  0
  144.7717  136.2098  151.8444 C   0  0  0  0  0  0  0  0  0  0  0  0
  145.2581  137.2299  153.1873 S   0  0  0  0  0  0  0  0  0  0  0  0
  151.6317  141.6351  158.8339 C   0  0  0  0  0  0  0  0  0  0  0  0
  152.5089  142.2979  161.4342 H   0  0  0  0  0  0  0  0  0  0  0  0
  154.1776  142.6614  161.0015 H   0  0  0  0  0  0  0  0  0  0  0  0
  153.5458  141.0359  160.7737 H   0  0  0  0  0  0  0  0  0  0  0  0
  153.6788  142.2424  158.6121 H   0  0  0  0  0  0  0  0  0  0  0  0
  151.7625  144.2466  159.8841 H   0  0  0  0  0  0  0  0  0  0  0  0
  153.4213  144.5601  159.4248 H   0  0  0  0  0  0  0  0  0  0  0  0
  151.8085  145.3641  157.6858 H   0  0  0  0  0  0  0  0  0  0  0  0
  152.9015  144.1586  157.0481 H   0  0  0  0  0  0  0  0  0  0  0  0
  150.0160  143.6660  157.9594 H   0  0  0  0  0  0  0  0  0  0  0  0
  150.6065  143.6735  156.3090 H   0  0  0  0  0  0  0  0  0  0  0  0
  150.1738  140.1403  157.3834 H   0  0  0  0  0  0  0  0  0  0  0  0
  149.1554  141.5523  157.2431 H   0  0  0  0  0  0  0  0  0  0  0  0
  150.8249  141.7491  154.9851 H   0  0  0  0  0  0  0  0  0  0  0  0
  150.4401  140.0477  155.0814 H   0  0  0  0  0  0  0  0  0  0  0  0
  147.9477  141.2120  155.5728 H   0  0  0  0  0  0  0  0  0  0  0  0
  148.6621  142.3399  154.4447 H   0  0  0  0  0  0  0  0  0  0  0  0
  148.9830  140.5316  152.8554 H   0  0  0  0  0  0  0  0  0  0  0  0
  148.0619  139.1451  151.7993 H   0  0  0  0  0  0  0  0  0  0  0  0
  143.9670  135.4910  151.8879 H   0  0  0  0  0  0  0  0  0  0  0  0
  151.8923  140.5786  158.8852 H   0  0  0  0  0  0  0  0  0  0  0  0
  150.7963  141.7859  159.5195 H   0  0  0  0  0  0  0  0  0  0  0  0
  152.0044  141.8345  156.8505 H   0  0  0  0  0  0  0  0  0  0  0  0
  1  2  1  0  0  0  0
  1 20  1  0  0  0  0
  1 21  1  0  0  0  0
  1 22  1  0  0  0  0
  2 19  1  0  0  0  0
  2  3  1  0  0  0  0
  2 23  1  0  0  0  0
  3  4  1  0  0  0  0
  3 24  1  0  0  0  0
  3 25  1  0  0  0  0
  4  5  1  0  0  0  0
  4 26  1  0  0  0  0
  4 27  1  0  0  0  0
  5  6  1  0  0  0  0
  5 28  1  0  0  0  0
  5 29  1  0  0  0  0
  6  7  1  0  0  0  0
  6 19  1  0  0  0  0
  6 41  1  0  0  0  0
  7  8  1  0  0  0  0
  7 30  1  0  0  0  0
  7 31  1  0  0  0  0
  8  9  1  0  0  0  0
  8 32  1  0  0  0  0
  8 33  1  0  0  0  0
  9 10  1  0  0  0  0
  9 34  1  0  0  0  0
  9 35  1  0  0  0  0
 10 11  1  0  0  0  0
 10 36  1  0  0  0  0
 11 12  2  0  0  0  0
 11 13  1  0  0  0  0
 13 14  1  0  0  0  0
 13 37  1  0  0  0  0
 14 18  1  0  0  0  0
 14 15  2  0  0  0  0
 15 16  1  0  0  0  0
 16 17  2  0  0  0  0
 17 18  1  0  0  0  0
 17 38  1  0  0  0  0
 19 39  1  0  0  0  0
 19 40  1  0  0  0  0
M  CHG  1   6   1
M  END
> <s_m_source_file>
AV-unprocessed.smi

> <i_m_source_file_index>
1802

> <i_lp_mmshare_version>
43012

> <i_f3d_flags>
0

> <s_epik_input>
W0NIM11bQ0BASF0xW0NIMl1bQ0gyXVtDSDJdTihbQ0gyXTEpW0NIMl1bQ0gyXVtDSDJdW05IXUMoPU8pW05IXWMybm5bY0hdczI=

> <s_epik_cmdline>
J2VwaWtfcHl0aG9uJywgJy1waCcsICc3LjAnLCAnLXRuJywgJzgnLCAnLW1hJywgJzIwMCcsICctbWV0YWxfYmluZGluZycsICctaW1hZScsICc8aW5maWxlLm1hZT4nLCAnLW9tYWUnLCAnPG91dGZpbGUubWFlPic=

> <r_lp_tautomer_probability>
1

> <r_epik_Ionization_Penalty>
0.00272894

> <r_epik_Ionization_Penalty_Charging>
0.000288442

> <r_epik_Ionization_Penalty_Neutral>
0.0024405

> <r_epik_State_Penalty>
-0

> <r_epik_Charging_Adjusted_Penalty>
0.000288442

> <i_epik_Tot_Q>
1

> <i_epik_Tot_abs_Q>
1

> <r_epik_Metal_State_Penalty>
0.350525

> <b_epik_Metal_Only>
0

> <s_lp_Force_Field>
OPLS_2005

> <r_lp_Energy>
15.5864

> <b_lp_Chiralities_Consistent>
1

> <s_lp_Variant>
AV-unprocessed.smi:1802-1

> <Gold.Version>
5.8.1

> <Gold.Id.Protein>
6NUR|6NUR_protein|mol2

> <Gold.PLP.Fitness>
42.6791

> <Gold.PLP.PLP>
-35.3492

> <Gold.PLP.part.hbond>
-3.7068

> <Gold.PLP.part.metal>
0.0000

> <Gold.PLP.part.buried>
-1.0752

> <Gold.PLP.part.nonpolar>
-35.4007

> <Gold.PLP.part.repulsive>
4.8065

> <Gold.PLP.ligand.clash>
0.0000

> <Gold.PLP.ligand.torsion>
0.8731

> <Gold.PLP.Chemscore.Hbond>
3.0000

> <Gold.PLP.Chemscore.CHOScore>
0.0000

> <Gold.PLP.Chemscore.Metal>
0.0000

> <Gold.Chemscore.Hbonds>
donor molecule, donor type, donor heavy atom, donor atom, acceptor molecule, acceptor atom, score
      L1  H    10    36       P1  7957  1.00
      L1  H    13    37       P1  7957  1.00
      P1  H  7954  7966       L1    15  1.00

> <Gold.PLP.Chemscore.Internal.Correction>
0.0761

> <Gold.Rescore>
     Score         DG    S(hbond)    S(metal)    S(lipo)     H(rot)  DE(clash)    DE(int)     intcor
     15.62     -20.73       2.77        0.00      94.50       1.98       2.75       2.36       ----

> <Gold.Chemscore.Fitness>
15.6199

> <Gold.Chemscore.DG>
-20.7309

> <Gold.Chemscore.ZeroCoef>
-5.4800

> <Gold.Chemscore.Hbond>
2.7728

> <Gold.Chemscore.Metal>
0.0000

> <Gold.Chemscore.Lipo>
94.5019

> <Gold.Chemscore.Internal_Hbond>
0.0000

> <Gold.Chemscore.DEClash>
2.7479

> <Gold.Chemscore.DEInternal>
2.3630

> <Gold.Chemscore.Rot>
1.9793

> <Gold.Chemscore.Internal.Correction>
   9.000000E+99

> <Gold.Chemscore.Hbonds>
donor molecule, donor type, donor heavy atom, donor atom, acceptor molecule, acceptor atom, score
      L1  H    10    36       P1  7957  0.98
      L1  H    13    37       P1  7957  0.97
      P1  H  7954  7966       L1    15  0.64

> <Gold.Chemscore.Hbond.Weighted>
-9.2611

> <Gold.Chemscore.Metal.Weighted>
-0.0000

> <Gold.Chemscore.Lipo.Weighted>
-11.0567

> <Gold.Chemscore.Internal_Hbond.Weighted>
0.0000

> <Gold.Chemscore.DEClash.Weighted>
2.7479

> <Gold.Chemscore.DEInternal.Weighted>
2.3630

> <Gold.Chemscore.Rot.Weighted>
5.0670

> <Gold.Chemscore.Internal.Correction.Weighted>
   9.000000E+99

> <Gold.Protein.RotatedTorsions>
[ 6907 6896 6895 6894 ] final  -58.65 input  -60.11 | X-H torsion
[ 7974 7965 7964 7962 ] final   11.56 input  175.53 | X-H torsion
[ 8008 7997 7996 7995 ] final  109.54 input   59.86 | X-H torsion
[ 10167 10162 10161 10158 ] final  -63.45 input  -65.29 | X-H torsion
[ 10718 10713 10712 10709 ] final -121.53 input   66.30 | X-H torsion
[ 10763 10752 10751 10750 ] final   58.33 input  -60.55 | X-H torsion
[ 11005 11000 10999 10996 ] final   55.01 input  -57.11 | X-H torsion

> <Gold.Protein.ActiveResidues>
 VAL166  LYS551  ARG553  GLY616  TRP617  ASP618  TYR619  PRO620  LYS621  CYS622 
 ASP623  PHE694  ASN695  SER759  ASP760  ASP761  ALA762  ILE779  LEU786  VAL792 
 PHE793  MET794  SER795  GLU796  ALA797  LYS798  CYS799  TRP800  GLU811  SER814 

> <Gold.Protein.RotatedAtoms>
  150.7990  134.7071  159.6582 H   0  0  0  0  0  0  0  0  0  0  0  0  # atno 6907 bound_to 6896
  152.4106  134.6128  160.0040 H   0  0  0  0  0  0  0  0  0  0  0  0  # atno 6908 bound_to 6896
  151.6372  133.3291  159.3158 H   0  0  0  0  0  0  0  0  0  0  0  0  # atno 6909 bound_to 6896
  146.2368  139.9467  142.8476 H   0  0  0  0  0  0  0  0  0  0  0  0  # atno 7974 bound_to 7965
  156.1987  140.3055  155.9481 H   0  0  0  0  0  0  0  0  0  0  0  0  # atno 8008 bound_to 7997
  155.3005  140.0446  157.3046 H   0  0  0  0  0  0  0  0  0  0  0  0  # atno 8009 bound_to 7997
  154.5542  140.2301  155.8445 H   0  0  0  0  0  0  0  0  0  0  0  0  # atno 8010 bound_to 7997
  140.5870  143.2335  151.6222 H   0  0  0  0  0  0  0  0  0  0  0  0  # atno 10167 bound_to 10162
  156.1345  130.6420  150.9674 H   0  0  0  0  0  0  0  0  0  0  0  0  # atno 10718 bound_to 10713
  152.9868  135.5610  154.5534 H   0  0  0  0  0  0  0  0  0  0  0  0  # atno 10763 bound_to 10752
  154.4967  135.2795  155.1456 H   0  0  0  0  0  0  0  0  0  0  0  0  # atno 10764 bound_to 10752
  154.2903  135.6327  153.5435 H   0  0  0  0  0  0  0  0  0  0  0  0  # atno 10765 bound_to 10752
  140.0641  134.5561  155.9119 H   0  0  0  0  0  0  0  0  0  0  0  0  # atno 11005 bound_to 11000
  145.1900  140.9807  143.4216 LP  0  0  0  0  0  0  0  0  0  0  0  0  # atno 17320 bound_to 7965
  144.9865  139.3731  143.6236 LP  0  0  0  0  0  0  0  0  0  0  0  0  # atno 17321 bound_to 7965
  139.5204  144.3225  152.0898 LP  0  0  0  0  0  0  0  0  0  0  0  0  # atno 17342 bound_to 10162
  140.2384  144.4295  150.6270 LP  0  0  0  0  0  0  0  0  0  0  0  0  # atno 17343 bound_to 10162
  157.6519  131.0895  150.8032 LP  0  0  0  0  0  0  0  0  0  0  0  0  # atno 17370 bound_to 10713
  156.8113  130.4953  149.5355 LP  0  0  0  0  0  0  0  0  0  0  0  0  # atno 17371 bound_to 10713
  141.1985  133.6602  156.5797 LP  0  0  0  0  0  0  0  0  0  0  0  0  # atno 17394 bound_to 11000
  140.3726  134.7593  157.4608 LP  0  0  0  0  0  0  0  0  0  0  0  0  # atno 17395 bound_to 11000

$$$$
