AV-unprocessed.smi:109|AV-procd|sdf|1043|dock9
  -GOLD-   2262018 83D 1   1.00000     0.00000
 Structure written by MMmdl.
 58 61  0  0  0  0  0  0  0  0  1 V2000
  153.0079  136.7625  160.0973 O   0  0  0  0  0  0  0  0  0  0  0  0
  152.1988  137.6562  159.3634 C   0  0  0  0  0  0  0  0  0  0  0  0
  152.8210  139.0628  159.3859 C   0  0  0  0  0  0  0  0  0  0  0  0
  152.0046  140.1324  158.6186 C   0  0  2  0  0  0  0  0  0  0  0  0
  152.0690  139.8564  157.1818 N   0  0  0  0  0  0  0  0  0  0  0  0
  151.0269  139.3211  156.5074 C   0  0  0  0  0  0  0  0  0  0  0  0
  150.7654  137.9885  156.5417 N   0  0  0  0  0  0  0  0  0  0  0  0
  149.7351  137.4905  155.8516 C   0  0  0  0  0  0  0  0  0  0  0  0
  148.8557  138.1366  155.0823 N   0  0  0  0  0  0  0  0  0  0  0  0
  149.1102  139.4772  155.0504 C   0  0  0  0  0  0  0  0  0  0  0  0
  150.1708  140.1399  155.7274 C   0  0  0  0  0  0  0  0  0  0  0  0
  150.1228  141.5003  155.4569 N   0  0  0  0  0  0  0  0  0  0  0  0
  149.0932  141.6278  154.6640 C   0  0  0  0  0  0  0  0  0  0  0  0
  148.4160  140.4587  154.3753 N   0  0  0  0  0  0  0  0  0  0  0  0
  147.2267  140.2224  153.4872 C   0  0  2  0  0  0  0  0  0  0  0  0
  146.1031  140.0997  154.2983 O   0  0  0  0  0  0  0  0  0  0  0  0
  145.9596  138.7438  154.6949 C   0  0  1  0  0  0  0  0  0  0  0  0
  144.5094  138.4900  155.1329 C   0  0  0  0  0  0  0  0  0  0  0  0
  143.6486  138.5093  154.0146 O   0  0  0  0  0  0  0  0  0  0  0  0
  146.4079  137.9521  153.4537 C   0  0  2  0  0  0  0  0  0  0  0  0
  147.0986  136.7824  153.8461 O   0  0  0  0  0  0  0  0  0  0  0  0
  147.3466  138.9047  152.7034 C   0  0  1  0  0  0  0  0  0  0  0  0
  146.9242  139.0720  151.3652 O   0  0  0  0  0  0  0  0  0  0  0  0
  152.4877  141.5873  158.8886 C   0  0  0  0  0  0  0  0  0  0  0  0
  152.3483  142.0066  160.3740 C   0  0  0  0  0  0  0  0  0  0  0  0
  152.7985  143.4561  160.6220 C   0  0  0  0  0  0  0  0  0  0  0  0
  152.0404  144.4428  159.7258 C   0  0  0  0  0  0  0  0  0  0  0  0
  152.1915  144.0556  158.2503 C   0  0  0  0  0  0  0  0  0  0  0  0
  151.7275  142.6114  158.0057 C   0  0  0  0  0  0  0  0  0  0  0  0
  147.1735  141.1084  152.8535 H   0  0  0  0  0  0  0  0  0  0  0  0
  146.6341  138.5722  155.5353 H   0  0  0  0  0  0  0  0  0  0  0  0
  145.5500  137.6810  152.8362 H   0  0  0  0  0  0  0  0  0  0  0  0
  148.3828  138.5643  152.6841 H   0  0  0  0  0  0  0  0  0  0  0  0
  153.7954  136.5960  159.6024 H   0  0  0  0  0  0  0  0  0  0  0  0
  152.1053  137.2803  158.3446 H   0  0  0  0  0  0  0  0  0  0  0  0
  151.2006  137.6709  159.8015 H   0  0  0  0  0  0  0  0  0  0  0  0
  152.9142  139.3464  160.4326 H   0  0  0  0  0  0  0  0  0  0  0  0
  153.8359  139.0223  158.9880 H   0  0  0  0  0  0  0  0  0  0  0  0
  150.9741  140.0802  158.9697 H   0  0  0  0  0  0  0  0  0  0  0  0
  152.8805  140.2279  156.7089 H   0  0  0  0  0  0  0  0  0  0  0  0
  149.5951  136.4222  155.9274 H   0  0  0  0  0  0  0  0  0  0  0  0
  148.8074  142.5909  154.2693 H   0  0  0  0  0  0  0  0  0  0  0  0
  144.4287  137.5112  155.6063 H   0  0  0  0  0  0  0  0  0  0  0  0
  144.1828  139.2300  155.8641 H   0  0  0  0  0  0  0  0  0  0  0  0
  143.8978  139.2291  153.4553 H   0  0  0  0  0  0  0  0  0  0  0  0
  147.7560  136.5869  153.1967 H   0  0  0  0  0  0  0  0  0  0  0  0
  147.6459  139.4207  150.8642 H   0  0  0  0  0  0  0  0  0  0  0  0
  153.5457  141.6432  158.6266 H   0  0  0  0  0  0  0  0  0  0  0  0
  151.3121  141.8871  160.6936 H   0  0  0  0  0  0  0  0  0  0  0  0
  152.9476  141.3664  161.0188 H   0  0  0  0  0  0  0  0  0  0  0  0
  152.6467  143.7168  161.6698 H   0  0  0  0  0  0  0  0  0  0  0  0
  153.8696  143.5419  160.4347 H   0  0  0  0  0  0  0  0  0  0  0  0
  150.9843  144.4517  159.9980 H   0  0  0  0  0  0  0  0  0  0  0  0
  152.4121  145.4552  159.8869 H   0  0  0  0  0  0  0  0  0  0  0  0
  151.6169  144.7407  157.6263 H   0  0  0  0  0  0  0  0  0  0  0  0
  153.2339  144.1613  157.9472 H   0  0  0  0  0  0  0  0  0  0  0  0
  151.8625  142.3886  156.9473 H   0  0  0  0  0  0  0  0  0  0  0  0
  150.6563  142.5370  158.1985 H   0  0  0  0  0  0  0  0  0  0  0  0
  1  2  1  0  0  0  0
  1 34  1  0  0  0  0
  2  3  1  0  0  0  0
  2 35  1  0  0  0  0
  2 36  1  0  0  0  0
  3  4  1  0  0  0  0
  3 37  1  0  0  0  0
  3 38  1  0  0  0  0
  4  5  1  0  0  0  0
  4 24  1  0  0  0  0
  4 39  1  0  0  0  0
  5  6  1  0  0  0  0
  5 40  1  0  0  0  0
  6 11  1  0  0  0  0
  6  7  2  0  0  0  0
  7  8  1  0  0  0  0
  8  9  2  0  0  0  0
  8 41  1  0  0  0  0
  9 10  1  0  0  0  0
 10 14  1  0  0  0  0
 10 11  2  0  0  0  0
 11 12  1  0  0  0  0
 12 13  2  0  0  0  0
 13 14  1  0  0  0  0
 13 42  1  0  0  0  0
 14 15  1  0  0  0  0
 15 30  1  0  0  0  0
 15 22  1  0  0  0  0
 15 16  1  0  0  0  0
 16 17  1  0  0  0  0
 17 31  1  0  0  0  0
 17 18  1  0  0  0  0
 17 20  1  0  0  0  0
 18 19  1  0  0  0  0
 18 43  1  0  0  0  0
 18 44  1  0  0  0  0
 19 45  1  0  0  0  0
 20 32  1  0  0  0  0
 20 21  1  0  0  0  0
 20 22  1  0  0  0  0
 21 46  1  0  0  0  0
 22 33  1  0  0  0  0
 22 23  1  0  0  0  0
 23 47  1  0  0  0  0
 24 29  1  0  0  0  0
 24 25  1  0  0  0  0
 24 48  1  0  0  0  0
 25 26  1  0  0  0  0
 25 49  1  0  0  0  0
 25 50  1  0  0  0  0
 26 27  1  0  0  0  0
 26 51  1  0  0  0  0
 26 52  1  0  0  0  0
 27 28  1  0  0  0  0
 27 53  1  0  0  0  0
 27 54  1  0  0  0  0
 28 29  1  0  0  0  0
 28 55  1  0  0  0  0
 28 56  1  0  0  0  0
 29 57  1  0  0  0  0
 29 58  1  0  0  0  0
M  END
> <s_m_source_file>
AV-unprocessed.smi

> <i_m_source_file_index>
109

> <i_lp_mmshare_version>
43012

> <i_f3d_flags>
0

> <s_epik_input>
W0NIMl0xW0NIMl1bQ0gyXVtDSDJdW0NIMl1bQ0hdMVtDQEhdKFtDSDJdW0NIMl1bT0hdKVtOSF1jKG5bY0hdbjIpYyhjMjMpbltjSF1uM1tDQEBIXTRPW0NASF0oW0NIMl1bT0hdKVtDQEBIXShbT0hdKVtDQEhdNFtPSF0=

> <s_epik_cmdline>
J2VwaWtfcHl0aG9uJywgJy1waCcsICc3LjAnLCAnLXRuJywgJzgnLCAnLW1hJywgJzIwMCcsICctbWV0YWxfYmluZGluZycsICctaW1hZScsICc8aW5maWxlLm1hZT4nLCAnLW9tYWUnLCAnPG91dGZpbGUubWFlPic=

> <r_lp_tautomer_probability>
1

> <r_epik_Ionization_Penalty>
0.000793976

> <r_epik_Ionization_Penalty_Charging>
0

> <r_epik_Ionization_Penalty_Neutral>
0.000793976

> <r_epik_State_Penalty>
-0

> <r_epik_Charging_Adjusted_Penalty>
0

> <i_epik_Tot_Q>
0

> <i_epik_Tot_abs_Q>
0

> <r_epik_Metal_State_Penalty>
-0

> <b_epik_Metal_Only>
0

> <s_epik_Chemistry_Notes>
This compound contains an acetal/aminal-like group ( X-CH(R)-Y where X, Y are N, S, or O) that may be acid/base labile, releasing an aldehyde.

> <s_lp_Force_Field>
OPLS_2005

> <r_lp_Energy>
47.5794

> <b_lp_Chiralities_Consistent>
1

> <s_lp_Variant>
AV-unprocessed.smi:109-13

> <Gold.Version>
5.8.1

> <Gold.Id.Protein>
6NUR|6NUR_protein|mol2

> <Gold.PLP.Fitness>
55.8785

> <Gold.PLP.PLP>
-44.7810

> <Gold.PLP.part.hbond>
-4.6932

> <Gold.PLP.part.metal>
0.0000

> <Gold.PLP.part.buried>
-3.4565

> <Gold.PLP.part.nonpolar>
-36.5615

> <Gold.PLP.part.repulsive>
0.4434

> <Gold.PLP.ligand.clash>
0.0000

> <Gold.PLP.ligand.torsion>
1.6304

> <Gold.PLP.Chemscore.Hbond>
3.8160

> <Gold.PLP.Chemscore.CHOScore>
0.9039

> <Gold.PLP.Chemscore.Metal>
0.0000

> <Gold.Chemscore.Hbonds>
donor molecule, donor type, donor heavy atom, donor atom, acceptor molecule, acceptor atom, score
      L1  H    19    45       P1 10175  1.00
      L1  H    21    46       P1  7948  1.00
      L1  H    23    47       P1  7957  0.82
      P1  H  6896  6909       L1     1  1.00
      L1  C    13    42       P1  8028  0.88

> <Gold.PLP.Chemscore.Internal.Correction>
0.1988

> <Gold.Rescore>
     Score         DG    S(hbond)    S(metal)    S(lipo)     H(rot)  DE(clash)    DE(int)     intcor
      7.18     -12.77       2.83        0.00     101.18       5.47       0.45       5.13       ----

> <Gold.Chemscore.Fitness>
7.1835

> <Gold.Chemscore.DG>
-12.7674

> <Gold.Chemscore.ZeroCoef>
-5.4800

> <Gold.Chemscore.Hbond>
2.8273

> <Gold.Chemscore.Metal>
0.0000

> <Gold.Chemscore.Lipo>
101.1782

> <Gold.Chemscore.Internal_Hbond>
0.0000

> <Gold.Chemscore.DEClash>
0.4538

> <Gold.Chemscore.DEInternal>
5.1302

> <Gold.Chemscore.Rot>
5.4662

> <Gold.Chemscore.Internal.Correction>
   9.000000E+99

> <Gold.Chemscore.Hbonds>
donor molecule, donor type, donor heavy atom, donor atom, acceptor molecule, acceptor atom, score
      L1  H    19    45       P1 10175  0.95
      L1  H    21    46       P1  7948  1.00
      L1  H    23    47       P1  7957  0.42
      P1  H  6896  6909       L1     1  0.24

> <Gold.Chemscore.Hbond.Weighted>
-9.4431

> <Gold.Chemscore.Metal.Weighted>
-0.0000

> <Gold.Chemscore.Lipo.Weighted>
-11.8378

> <Gold.Chemscore.Internal_Hbond.Weighted>
0.0000

> <Gold.Chemscore.DEClash.Weighted>
0.4538

> <Gold.Chemscore.DEInternal.Weighted>
5.1302

> <Gold.Chemscore.Rot.Weighted>
13.9935

> <Gold.Chemscore.Internal.Correction.Weighted>
   9.000000E+99

> <Gold.Protein.RotatedTorsions>
[ 6907 6896 6895 6894 ] final  151.97 input  -60.11 | X-H torsion
[ 7974 7965 7964 7962 ] final  -34.96 input  175.53 | X-H torsion
[ 8008 7997 7996 7995 ] final  131.14 input   59.86 | X-H torsion
[ 10167 10162 10161 10158 ] final   23.36 input  -65.29 | X-H torsion
[ 10718 10713 10712 10709 ] final -149.79 input   66.30 | X-H torsion
[ 10763 10752 10751 10750 ] final   83.58 input  -60.55 | X-H torsion
[ 11005 11000 10999 10996 ] final  124.26 input  -57.11 | X-H torsion

> <Gold.Protein.ActiveResidues>
 VAL166  LYS551  ARG553  GLY616  TRP617  ASP618  TYR619  PRO620  LYS621  CYS622 
 ASP623  PHE694  ASN695  SER759  ASP760  ASP761  ALA762  ILE779  LEU786  VAL792 
 PHE793  MET794  SER795  GLU796  ALA797  LYS798  CYS799  TRP800  GLU811  SER814 

> <Gold.Protein.RotatedAtoms>
  152.0932  133.4211  159.4553 H   0  0  0  0  0  0  0  0  0  0  0  0  # atno 6907 bound_to 6896
  150.6863  134.2847  159.4651 H   0  0  0  0  0  0  0  0  0  0  0  0  # atno 6908 bound_to 6896
  152.0700  134.9539  160.0625 H   0  0  0  0  0  0  0  0  0  0  0  0  # atno 6909 bound_to 6896
  146.0786  140.6101  142.8919 H   0  0  0  0  0  0  0  0  0  0  0  0  # atno 7974 bound_to 7965
  156.2965  140.2578  156.2877 H   0  0  0  0  0  0  0  0  0  0  0  0  # atno 8008 bound_to 7997
  154.9540  140.0394  157.2176 H   0  0  0  0  0  0  0  0  0  0  0  0  # atno 8009 bound_to 7997
  154.8009  140.2828  155.5927 H   0  0  0  0  0  0  0  0  0  0  0  0  # atno 8010 bound_to 7997
  140.5275  143.9899  150.6448 H   0  0  0  0  0  0  0  0  0  0  0  0  # atno 10167 bound_to 10162
  156.4377  130.8107  151.2335 H   0  0  0  0  0  0  0  0  0  0  0  0  # atno 10718 bound_to 10713
  153.1304  135.4686  154.9340 H   0  0  0  0  0  0  0  0  0  0  0  0  # atno 10763 bound_to 10752
  154.7659  135.3144  154.8289 H   0  0  0  0  0  0  0  0  0  0  0  0  # atno 10764 bound_to 10752
  153.8833  135.6892  153.4819 H   0  0  0  0  0  0  0  0  0  0  0  0  # atno 10765 bound_to 10752
  139.9350  134.9640  156.8382 H   0  0  0  0  0  0  0  0  0  0  0  0  # atno 11005 bound_to 11000
  144.7278  140.4579  143.6960 LP  0  0  0  0  0  0  0  0  0  0  0  0  # atno 17320 bound_to 7965
  145.6259  139.1530  143.2996 LP  0  0  0  0  0  0  0  0  0  0  0  0  # atno 17321 bound_to 7965
  140.3264  143.3105  152.0732 LP  0  0  0  0  0  0  0  0  0  0  0  0  # atno 17342 bound_to 10162
  139.4943  144.6539  151.6616 LP  0  0  0  0  0  0  0  0  0  0  0  0  # atno 17343 bound_to 10162
  157.7507  131.0178  150.3600 LP  0  0  0  0  0  0  0  0  0  0  0  0  # atno 17370 bound_to 10713
  156.3951  130.3905  149.7001 LP  0  0  0  0  0  0  0  0  0  0  0  0  # atno 17371 bound_to 10713
  140.6099  134.0092  155.7572 LP  0  0  0  0  0  0  0  0  0  0  0  0  # atno 17394 bound_to 11000
  141.0959  133.9844  157.3160 LP  0  0  0  0  0  0  0  0  0  0  0  0  # atno 17395 bound_to 11000

$$$$
