AV-unprocessed.smi:1304|AV-procd|sdf|5432|dock3
  -GOLD-   22720 4593D 1   1.00000     0.00000
 Structure written by MMmdl.
 48 49  0  0  0  0  0  0  0  0  2 V2000
  147.3157  139.4593  153.7892 C   0  0  0  0  0  0  0  0  0  0  0  0
  146.5680  138.1307  154.0017 C   0  0  0  0  0  0  0  0  0  0  0  0
  147.1318  137.2096  155.1277 C   0  0  2  0  0  0  0  0  0  0  0  0
  146.2462  135.9358  155.1641 C   0  0  0  0  0  0  0  0  0  0  0  0
  147.0310  137.9310  156.5094 C   0  0  0  0  0  0  0  0  0  0  0  0
  147.8912  137.3460  157.5369 N   0  0  0  0  0  0  0  0  0  0  0  0
  147.6412  137.3368  158.8552 C   0  0  0  0  0  0  0  0  0  0  0  0
  146.6574  137.8765  159.3619 O   0  0  0  0  0  0  0  0  0  0  0  0
  148.6618  136.6016  159.7332 C   0  0  0  0  0  0  0  0  0  0  0  0
  148.0195  135.6843  160.6890 N   0  0  0  0  0  0  0  0  0  0  0  0
  147.7456  134.3757  160.2436 C   0  0  0  0  0  0  0  0  0  0  0  0
  147.1681  133.4615  161.0392 C   0  0  0  0  0  0  0  0  0  0  0  0
  146.8249  133.8485  162.3870 C   0  0  0  0  0  0  0  0  0  0  0  0
  147.0835  135.0972  162.8239 C   0  0  0  0  0  0  0  0  0  0  0  0
  147.7152  136.0997  161.9582 C   0  0  0  0  0  0  0  0  0  0  0  0
  147.9586  137.2419  162.3498 O   0  0  0  0  0  0  0  0  0  0  0  0
  148.5639  136.8473  154.8205 N   0  3  0  0  0  0  0  0  0  0  0  0
  149.5692  137.9251  155.0446 C   0  0  0  0  0  0  0  0  0  0  0  0
  150.9413  137.5046  154.4941 C   0  0  0  0  0  0  0  0  0  0  0  0
  151.3556  136.2995  155.1221 O   0  0  0  0  0  0  0  0  0  0  0  0
  150.4558  135.2323  154.8577 C   0  0  0  0  0  0  0  0  0  0  0  0
  149.0620  135.5734  155.4121 C   0  0  0  0  0  0  0  0  0  0  0  0
  146.8636  140.0216  152.9718 H   0  0  0  0  0  0  0  0  0  0  0  0
  148.3620  139.2999  153.5297 H   0  0  0  0  0  0  0  0  0  0  0  0
  147.2800  140.0932  154.6749 H   0  0  0  0  0  0  0  0  0  0  0  0
  145.5132  138.3428  154.1742 H   0  0  0  0  0  0  0  0  0  0  0  0
  146.5851  137.5984  153.0508 H   0  0  0  0  0  0  0  0  0  0  0  0
  145.1837  136.1829  155.1569 H   0  0  0  0  0  0  0  0  0  0  0  0
  146.4147  135.3457  156.0650 H   0  0  0  0  0  0  0  0  0  0  0  0
  146.4295  135.2880  154.3066 H   0  0  0  0  0  0  0  0  0  0  0  0
  147.3308  138.9741  156.4152 H   0  0  0  0  0  0  0  0  0  0  0  0
  146.0024  137.9504  156.8699 H   0  0  0  0  0  0  0  0  0  0  0  0
  148.7297  136.8835  157.2157 H   0  0  0  0  0  0  0  0  0  0  0  0
  149.3667  136.0497  159.1079 H   0  0  0  0  0  0  0  0  0  0  0  0
  149.2628  137.3489  160.2527 H   0  0  0  0  0  0  0  0  0  0  0  0
  148.0386  134.1632  159.2257 H   0  0  0  0  0  0  0  0  0  0  0  0
  146.9687  132.4620  160.6815 H   0  0  0  0  0  0  0  0  0  0  0  0
  146.3593  133.1330  163.0486 H   0  0  0  0  0  0  0  0  0  0  0  0
  146.8200  135.3684  163.8359 H   0  0  0  0  0  0  0  0  0  0  0  0
  149.2781  138.8526  154.5554 H   0  0  0  0  0  0  0  0  0  0  0  0
  149.6667  138.1393  156.1090 H   0  0  0  0  0  0  0  0  0  0  0  0
  150.9059  137.3752  153.4113 H   0  0  0  0  0  0  0  0  0  0  0  0
  151.6804  138.2792  154.6989 H   0  0  0  0  0  0  0  0  0  0  0  0
  150.4099  135.0359  153.7851 H   0  0  0  0  0  0  0  0  0  0  0  0
  150.8362  134.3264  155.3302 H   0  0  0  0  0  0  0  0  0  0  0  0
  149.1106  135.6546  156.4982 H   0  0  0  0  0  0  0  0  0  0  0  0
  148.4052  134.7367  155.1806 H   0  0  0  0  0  0  0  0  0  0  0  0
  148.5692  136.6865  153.8233 H   0  0  0  0  0  0  0  0  0  0  0  0
  1  2  1  0  0  0  0
  1 23  1  0  0  0  0
  1 24  1  0  0  0  0
  1 25  1  0  0  0  0
  2  3  1  0  0  0  0
  2 26  1  0  0  0  0
  2 27  1  0  0  0  0
  3  4  1  0  0  0  0
  3  5  1  0  0  0  0
  3 17  1  0  0  0  0
  4 28  1  0  0  0  0
  4 29  1  0  0  0  0
  4 30  1  0  0  0  0
  5  6  1  0  0  0  0
  5 31  1  0  0  0  0
  5 32  1  0  0  0  0
  6  7  1  0  0  0  0
  6 33  1  0  0  0  0
  7  8  2  0  0  0  0
  7  9  1  0  0  0  0
  9 10  1  0  0  0  0
  9 34  1  0  0  0  0
  9 35  1  0  0  0  0
 10 15  1  0  0  0  0
 10 11  1  0  0  0  0
 11 12  2  0  0  0  0
 11 36  1  0  0  0  0
 12 13  1  0  0  0  0
 12 37  1  0  0  0  0
 13 14  2  0  0  0  0
 13 38  1  0  0  0  0
 14 15  1  0  0  0  0
 14 39  1  0  0  0  0
 15 16  2  0  0  0  0
 17 22  1  0  0  0  0
 17 18  1  0  0  0  0
 17 48  1  0  0  0  0
 18 19  1  0  0  0  0
 18 40  1  0  0  0  0
 18 41  1  0  0  0  0
 19 20  1  0  0  0  0
 19 42  1  0  0  0  0
 19 43  1  0  0  0  0
 20 21  1  0  0  0  0
 21 22  1  0  0  0  0
 21 44  1  0  0  0  0
 21 45  1  0  0  0  0
 22 46  1  0  0  0  0
 22 47  1  0  0  0  0
M  CHG  1  17   1
M  END
> <s_m_source_file>
AV-unprocessed.smi

> <i_m_source_file_index>
1304

> <i_lp_mmshare_version>
43012

> <i_f3d_flags>
0

> <s_epik_input>
W0NIMl0xW0NIMl1PW0NIMl1bQ0gyXU4xW0NAQF0oW0NIM10pKFtDSDJdW0NIM10pW0NIMl1bTkhdQyg9TylbQ0gyXW4yW2NIXVtjSF1bY0hdW2NIXWMyPU8=

> <s_epik_cmdline>
J2VwaWtfcHl0aG9uJywgJy1waCcsICc3LjAnLCAnLXRuJywgJzgnLCAnLW1hJywgJzIwMCcsICctbWV0YWxfYmluZGluZycsICctaW1hZScsICc8aW5maWxlLm1hZT4nLCAnLW9tYWUnLCAnPG91dGZpbGUubWFlPic=

> <r_lp_tautomer_probability>
1

> <r_epik_Ionization_Penalty>
0.519658

> <r_epik_Ionization_Penalty_Charging>
0.519658

> <r_epik_Ionization_Penalty_Neutral>
8.70177e-08

> <r_epik_State_Penalty>
0.527569

> <r_epik_Charging_Adjusted_Penalty>
1.04723

> <i_epik_Tot_Q>
1

> <i_epik_Tot_abs_Q>
1

> <r_epik_Metal_State_Penalty>
0.527613

> <b_epik_Metal_Only>
0

> <s_lp_Force_Field>
OPLS_2005

> <r_lp_Energy>
37.518

> <b_lp_Chiralities_Consistent>
1

> <s_lp_Variant>
AV-unprocessed.smi:1304-4

> <Gold.Version>
5.8.1

> <Gold.Id.Protein>
6NUR|6NUR_protein|mol2

> <Gold.PLP.Fitness>
45.7155

> <Gold.PLP.PLP>
-34.1455

> <Gold.PLP.part.hbond>
-4.7446

> <Gold.PLP.part.metal>
0.0000

> <Gold.PLP.part.buried>
-4.8029

> <Gold.PLP.part.nonpolar>
-26.0395

> <Gold.PLP.part.repulsive>
0.1542

> <Gold.PLP.ligand.clash>
0.0000

> <Gold.PLP.ligand.torsion>
1.4825

> <Gold.PLP.Chemscore.Hbond>
4.7533

> <Gold.PLP.Chemscore.CHOScore>
0.0000

> <Gold.PLP.Chemscore.Metal>
0.0000

> <Gold.Chemscore.Hbonds>
donor molecule, donor type, donor heavy atom, donor atom, acceptor molecule, acceptor atom, score
      L1  H    17    48       P1  7948  1.95
      P1  H  6931  6943       L1    16  0.95
      P1  H  6934  6947       L1     8  0.75
      P1  H 10752 10764       L1    20  1.00

> <Gold.PLP.Chemscore.Internal.Correction>
0.2751

> <Gold.Rescore>
     Score         DG    S(hbond)    S(metal)    S(lipo)     H(rot)  DE(clash)    DE(int)     intcor
     17.20     -19.11       3.51        0.00      60.78       2.03       0.00       1.91       ----

> <Gold.Chemscore.Fitness>
17.2006

> <Gold.Chemscore.DG>
-19.1077

> <Gold.Chemscore.ZeroCoef>
-5.4800

> <Gold.Chemscore.Hbond>
3.5067

> <Gold.Chemscore.Metal>
0.0000

> <Gold.Chemscore.Lipo>
60.7826

> <Gold.Chemscore.Internal_Hbond>
0.0000

> <Gold.Chemscore.DEClash>
0.0015

> <Gold.Chemscore.DEInternal>
1.9057

> <Gold.Chemscore.Rot>
2.0298

> <Gold.Chemscore.Internal.Correction>
   9.000000E+99

> <Gold.Chemscore.Hbonds>
donor molecule, donor type, donor heavy atom, donor atom, acceptor molecule, acceptor atom, score
      L1  H    17    48       P1  7948  0.91
      P1  H  6931  6943       L1    16  0.85
      P1  H  6934  6947       L1     8  0.61
      P1  H 10752 10764       L1    20  0.27

> <Gold.Chemscore.Hbond.Weighted>
-11.7124

> <Gold.Chemscore.Metal.Weighted>
-0.0000

> <Gold.Chemscore.Lipo.Weighted>
-7.1116

> <Gold.Chemscore.Internal_Hbond.Weighted>
0.0000

> <Gold.Chemscore.DEClash.Weighted>
0.0015

> <Gold.Chemscore.DEInternal.Weighted>
1.9057

> <Gold.Chemscore.Rot.Weighted>
5.1962

> <Gold.Chemscore.Internal.Correction.Weighted>
   9.000000E+99

> <Gold.Protein.RotatedTorsions>
[ 6907 6896 6895 6894 ] final  -95.03 input  -60.11 | X-H torsion
[ 7974 7965 7964 7962 ] final   75.41 input  175.53 | X-H torsion
[ 8008 7997 7996 7995 ] final -138.11 input   59.86 | X-H torsion
[ 10167 10162 10161 10158 ] final   47.93 input  -65.29 | X-H torsion
[ 10718 10713 10712 10709 ] final   -4.11 input   66.30 | X-H torsion
[ 10763 10752 10751 10750 ] final  -66.41 input  -60.55 | X-H torsion
[ 11005 11000 10999 10996 ] final  -73.12 input  -57.11 | X-H torsion

> <Gold.Protein.ActiveResidues>
 VAL166  LYS551  ARG553  GLY616  TRP617  ASP618  TYR619  PRO620  LYS621  CYS622 
 ASP623  PHE694  ASN695  SER759  ASP760  ASP761  ALA762  ILE779  LEU786  VAL792 
 PHE793  MET794  SER795  GLU796  ALA797  LYS798  CYS799  TRP800  GLU811  SER814 

> <Gold.Protein.RotatedAtoms>
  150.6954  134.1721  159.4215 H   0  0  0  0  0  0  0  0  0  0  0  0  # atno 6907 bound_to 6896
  151.9698  135.0080  160.0561 H   0  0  0  0  0  0  0  0  0  0  0  0  # atno 6908 bound_to 6896
  152.1852  133.4699  159.5015 H   0  0  0  0  0  0  0  0  0  0  0  0  # atno 6909 bound_to 6896
  145.7159  139.2631  143.1624 H   0  0  0  0  0  0  0  0  0  0  0  0  # atno 7974 bound_to 7965
  155.4229  140.0520  157.3024 H   0  0  0  0  0  0  0  0  0  0  0  0  # atno 8008 bound_to 7997
  154.4894  140.2114  155.9540 H   0  0  0  0  0  0  0  0  0  0  0  0  # atno 8009 bound_to 7997
  156.1321  140.3170  155.8370 H   0  0  0  0  0  0  0  0  0  0  0  0  # atno 8010 bound_to 7997
  140.2985  144.2962  150.6224 H   0  0  0  0  0  0  0  0  0  0  0  0  # atno 10167 bound_to 10162
  156.7661  130.5285  149.5776 H   0  0  0  0  0  0  0  0  0  0  0  0  # atno 10718 bound_to 10713
  154.3593  135.6119  153.5682 H   0  0  0  0  0  0  0  0  0  0  0  0  # atno 10763 bound_to 10752
  152.9794  135.5811  154.4651 H   0  0  0  0  0  0  0  0  0  0  0  0  # atno 10764 bound_to 10752
  154.4386  135.2849  155.1840 H   0  0  0  0  0  0  0  0  0  0  0  0  # atno 10765 bound_to 10752
  141.1618  133.6868  156.7163 H   0  0  0  0  0  0  0  0  0  0  0  0  # atno 11005 bound_to 11000
  146.0670  140.7910  142.9707 LP  0  0  0  0  0  0  0  0  0  0  0  0  # atno 17320 bound_to 7965
  144.6929  140.3284  143.7220 LP  0  0  0  0  0  0  0  0  0  0  0  0  # atno 17321 bound_to 7965
  140.5671  143.2185  151.7664 LP  0  0  0  0  0  0  0  0  0  0  0  0  # atno 17342 bound_to 10162
  139.4920  144.4268  151.9916 LP  0  0  0  0  0  0  0  0  0  0  0  0  # atno 17343 bound_to 10162
  156.1307  130.6176  151.0330 LP  0  0  0  0  0  0  0  0  0  0  0  0  # atno 17370 bound_to 10713
  157.6712  131.0861  150.7607 LP  0  0  0  0  0  0  0  0  0  0  0  0  # atno 17371 bound_to 10713
  140.2849  134.8287  157.3966 LP  0  0  0  0  0  0  0  0  0  0  0  0  # atno 17394 bound_to 11000
  140.1399  134.4985  155.8039 LP  0  0  0  0  0  0  0  0  0  0  0  0  # atno 17395 bound_to 11000

$$$$
