AV-unprocessed.smi:3282|AV-procd|sdf|12564|dock3
  -GOLD-   2272018483D 1   1.00000     0.00000
 Structure written by MMmdl.
 34 35  0  0  0  0  0  0  0  0  1 V2000
  153.9102  141.8907  160.7469 C   0  0  0  0  0  0  0  0  0  0  0  0
  152.8569  143.0053  160.8531 C   0  0  0  0  0  0  0  0  0  0  0  0
  152.3362  143.4978  159.4923 C   0  0  0  0  0  0  0  0  0  0  0  0
  152.4786  144.6790  159.1719 O   0  0  0  0  0  0  0  0  0  0  0  0
  151.7321  142.6049  158.6807 N   0  0  0  0  0  0  0  0  0  0  0  0
  151.5322  141.2018  159.0330 C   0  0  0  0  0  0  0  0  0  0  0  0
  150.6107  140.6251  157.9584 C   0  0  0  0  0  0  0  0  0  0  0  0
  150.8179  141.5290  156.7462 C   0  0  1  0  0  0  0  0  0  0  0  0
  149.6174  141.6044  155.9196 N   0  0  0  0  0  0  0  0  0  0  0  0
  149.4589  141.0046  154.7303 C   0  0  0  0  0  0  0  0  0  0  0  0
  150.3461  140.3069  154.2285 O   0  0  0  0  0  0  0  0  0  0  0  0
  148.1934  141.2525  154.2256 N   0  0  0  0  0  0  0  0  0  0  0  0
  147.5868  140.2948  153.5960 C   0  0  0  0  0  0  0  0  0  0  0  0
  146.3379  140.3289  152.9967 N   0  0  0  0  0  0  0  0  0  0  0  0
  146.0890  139.0946  152.4631 C   0  0  0  0  0  0  0  0  0  0  0  0
  147.1364  138.3149  152.7159 C   0  0  0  0  0  0  0  0  0  0  0  0
  148.0724  139.0204  153.4101 O   0  0  0  0  0  0  0  0  0  0  0  0
  151.1945  142.8885  157.3515 C   0  0  0  0  0  0  0  0  0  0  0  0
  154.2336  141.5723  161.7380 H   0  0  0  0  0  0  0  0  0  0  0  0
  154.7953  142.2277  160.2058 H   0  0  0  0  0  0  0  0  0  0  0  0
  153.5126  141.0141  160.2339 H   0  0  0  0  0  0  0  0  0  0  0  0
  152.0161  142.6413  161.4444 H   0  0  0  0  0  0  0  0  0  0  0  0
  153.2843  143.8507  161.3930 H   0  0  0  0  0  0  0  0  0  0  0  0
  152.4975  140.6936  159.0209 H   0  0  0  0  0  0  0  0  0  0  0  0
  151.1008  141.0857  160.0286 H   0  0  0  0  0  0  0  0  0  0  0  0
  150.8208  139.5769  157.7432 H   0  0  0  0  0  0  0  0  0  0  0  0
  149.5779  140.6906  158.3047 H   0  0  0  0  0  0  0  0  0  0  0  0
  151.6579  141.1451  156.1642 H   0  0  0  0  0  0  0  0  0  0  0  0
  148.8477  142.1497  156.2802 H   0  0  0  0  0  0  0  0  0  0  0  0
  145.6910  141.1025  152.9424 H   0  0  0  0  0  0  0  0  0  0  0  0
  145.1615  138.9004  151.9452 H   0  0  0  0  0  0  0  0  0  0  0  0
  147.3578  137.2840  152.4813 H   0  0  0  0  0  0  0  0  0  0  0  0
  150.3165  143.5275  157.4604 H   0  0  0  0  0  0  0  0  0  0  0  0
  151.9146  143.4076  156.7176 H   0  0  0  0  0  0  0  0  0  0  0  0
  1  2  1  0  0  0  0
  1 19  1  0  0  0  0
  1 20  1  0  0  0  0
  1 21  1  0  0  0  0
  2  3  1  0  0  0  0
  2 22  1  0  0  0  0
  2 23  1  0  0  0  0
  3  4  2  0  0  0  0
  3  5  1  0  0  0  0
  5 18  1  0  0  0  0
  5  6  1  0  0  0  0
  6  7  1  0  0  0  0
  6 24  1  0  0  0  0
  6 25  1  0  0  0  0
  7  8  1  0  0  0  0
  7 26  1  0  0  0  0
  7 27  1  0  0  0  0
  8  9  1  0  0  0  0
  8 18  1  0  0  0  0
  8 28  1  0  0  0  0
  9 29  1  0  0  0  0
  9 10  1  0  0  0  0
 10 12  1  0  0  0  0
 10 11  2  0  0  0  0
 12 13  2  0  0  0  0
 13 17  1  0  0  0  0
 13 14  1  0  0  0  0
 14 30  1  0  0  0  0
 14 15  1  0  0  0  0
 15 31  1  0  0  0  0
 15 16  2  0  0  0  0
 16 32  1  0  0  0  0
 16 17  1  0  0  0  0
 18 33  1  0  0  0  0
 18 34  1  0  0  0  0
M  END
> <s_m_source_file>
AV-unprocessed.smi

> <i_m_source_file_index>
3282

> <i_lp_mmshare_version>
43012

> <i_f3d_flags>
0

> <s_epik_input>
W0NIM11bQ0gyXUMoPU8pTjFbQ0gyXVtDSDJdW0NASF0oW0NIMl0xKVtOSF1DKD1PKVtOSF1jMm5bY0hdW2NIXW8y

> <s_epik_cmdline>
J2VwaWtfcHl0aG9uJywgJy1waCcsICc3LjAnLCAnLXRuJywgJzgnLCAnLW1hJywgJzIwMCcsICctbWV0YWxfYmluZGluZycsICctaW1hZScsICc8aW5maWxlLm1hZT4nLCAnLW9tYWUnLCAnPG91dGZpbGUubWFlPic=

> <r_lp_tautomer_probability>
0.107061

> <r_epik_Ionization_Penalty>
0.434703

> <r_epik_Ionization_Penalty_Charging>
0.434345

> <r_epik_Ionization_Penalty_Neutral>
0.000358141

> <r_epik_State_Penalty>
2.49584

> <r_epik_Charging_Adjusted_Penalty>
2.93019

> <i_epik_Tot_Q>
0

> <i_epik_Tot_abs_Q>
0

> <r_epik_Metal_State_Penalty>
4.06361

> <b_epik_Metal_Only>
0

> <s_lp_Force_Field>
OPLS_2005

> <r_lp_Energy>
49.1525

> <b_lp_Chiralities_Consistent>
1

> <s_lp_Variant>
AV-unprocessed.smi:3282-5

> <Gold.Version>
5.8.1

> <Gold.Id.Protein>
6NUR|6NUR_protein|mol2

> <Gold.PLP.Fitness>
40.9821

> <Gold.PLP.PLP>
-30.3921

> <Gold.PLP.part.hbond>
-2.3753

> <Gold.PLP.part.metal>
0.0000

> <Gold.PLP.part.buried>
-0.8404

> <Gold.PLP.part.nonpolar>
-29.4223

> <Gold.PLP.part.repulsive>
1.6118

> <Gold.PLP.ligand.clash>
0.0000

> <Gold.PLP.ligand.torsion>
0.4684

> <Gold.PLP.Chemscore.Hbond>
1.2340

> <Gold.PLP.Chemscore.CHOScore>
2.6057

> <Gold.PLP.Chemscore.Metal>
0.0000

> <Gold.Chemscore.Hbonds>
donor molecule, donor type, donor heavy atom, donor atom, acceptor molecule, acceptor atom, score
      L1  H    14    30       P1 10175  0.18
      P1  H  7989  7998       L1    11  1.00
      L1  C    15    31       P1 10171  1.00
      L1  C    15    31       P1 10175  0.61
      L1  C    16    32       P1  7948  0.92

> <Gold.PLP.Chemscore.Internal.Correction>
0.0076

> <Gold.Rescore>
     Score         DG    S(hbond)    S(metal)    S(lipo)     H(rot)  DE(clash)    DE(int)     intcor
     10.66     -14.03       1.51        0.00      59.03       1.32       1.39       1.98       ----

> <Gold.Chemscore.Fitness>
10.6638

> <Gold.Chemscore.DG>
-14.0344

> <Gold.Chemscore.ZeroCoef>
-5.4800

> <Gold.Chemscore.Hbond>
1.5051

> <Gold.Chemscore.Metal>
0.0000

> <Gold.Chemscore.Lipo>
59.0283

> <Gold.Chemscore.Internal_Hbond>
0.0000

> <Gold.Chemscore.DEClash>
1.3894

> <Gold.Chemscore.DEInternal>
1.9812

> <Gold.Chemscore.Rot>
1.3199

> <Gold.Chemscore.Internal.Correction>
   9.000000E+99

> <Gold.Chemscore.Hbonds>
donor molecule, donor type, donor heavy atom, donor atom, acceptor molecule, acceptor atom, score
      L1  H    14    30       P1 10175  0.04
      P1  H  7989  7998       L1    11  0.91

> <Gold.Chemscore.Hbond.Weighted>
-5.0270

> <Gold.Chemscore.Metal.Weighted>
-0.0000

> <Gold.Chemscore.Lipo.Weighted>
-6.9063

> <Gold.Chemscore.Internal_Hbond.Weighted>
0.0000

> <Gold.Chemscore.DEClash.Weighted>
1.3894

> <Gold.Chemscore.DEInternal.Weighted>
1.9812

> <Gold.Chemscore.Rot.Weighted>
3.3789

> <Gold.Chemscore.Internal.Correction.Weighted>
   9.000000E+99

> <Gold.Protein.RotatedTorsions>
[ 6907 6896 6895 6894 ] final  166.63 input  -60.11 | X-H torsion
[ 7974 7965 7964 7962 ] final  -62.60 input  175.53 | X-H torsion
[ 8008 7997 7996 7995 ] final   31.93 input   59.86 | X-H torsion
[ 10167 10162 10161 10158 ] final  -77.13 input  -65.29 | X-H torsion
[ 10718 10713 10712 10709 ] final  -27.96 input   66.30 | X-H torsion
[ 10763 10752 10751 10750 ] final  -87.34 input  -60.55 | X-H torsion
[ 11005 11000 10999 10996 ] final -138.00 input  -57.11 | X-H torsion

> <Gold.Protein.ActiveResidues>
 VAL166  LYS551  ARG553  GLY616  TRP617  ASP618  TYR619  PRO620  LYS621  CYS622 
 ASP623  PHE694  ASN695  SER759  ASP760  ASP761  ALA762  ILE779  LEU786  VAL792 
 PHE793  MET794  SER795  GLU796  ALA797  LYS798  CYS799  TRP800  GLU811  SER814 

> <Gold.Protein.RotatedAtoms>
  151.8759  133.3485  159.3749 H   0  0  0  0  0  0  0  0  0  0  0  0  # atno 6907 bound_to 6896
  150.7140  134.5067  159.5597 H   0  0  0  0  0  0  0  0  0  0  0  0  # atno 6908 bound_to 6896
  152.2609  134.8035  160.0482 H   0  0  0  0  0  0  0  0  0  0  0  0  # atno 6909 bound_to 6896
  145.7893  140.8718  143.0289 H   0  0  0  0  0  0  0  0  0  0  0  0  # atno 7974 bound_to 7965
  155.1143  140.3242  155.4513 H   0  0  0  0  0  0  0  0  0  0  0  0  # atno 8008 bound_to 7997
  156.2681  140.2038  156.6215 H   0  0  0  0  0  0  0  0  0  0  0  0  # atno 8009 bound_to 7997
  154.6732  140.0534  157.0174 H   0  0  0  0  0  0  0  0  0  0  0  0  # atno 8010 bound_to 7997
  140.4796  143.2405  151.8078 H   0  0  0  0  0  0  0  0  0  0  0  0  # atno 10167 bound_to 10162
  156.4314  130.4446  149.7115 H   0  0  0  0  0  0  0  0  0  0  0  0  # atno 10718 bound_to 10713
  154.6326  135.5416  153.7697 H   0  0  0  0  0  0  0  0  0  0  0  0  # atno 10763 bound_to 10752
  153.0292  135.6439  154.1279 H   0  0  0  0  0  0  0  0  0  0  0  0  # atno 10764 bound_to 10752
  154.1208  135.2920  155.3189 H   0  0  0  0  0  0  0  0  0  0  0  0  # atno 10765 bound_to 10752
  140.8658  134.2113  157.4681 H   0  0  0  0  0  0  0  0  0  0  0  0  # atno 11005 bound_to 11000
  144.6784  140.0100  143.7484 LP  0  0  0  0  0  0  0  0  0  0  0  0  # atno 17320 bound_to 7965
  145.9993  139.3078  143.0937 LP  0  0  0  0  0  0  0  0  0  0  0  0  # atno 17321 bound_to 7965
  139.4831  144.4789  151.9332 LP  0  0  0  0  0  0  0  0  0  0  0  0  # atno 17342 bound_to 10162
  140.3874  144.2659  150.5902 LP  0  0  0  0  0  0  0  0  0  0  0  0  # atno 17343 bound_to 10162
  156.4016  130.7677  151.2686 LP  0  0  0  0  0  0  0  0  0  0  0  0  # atno 17370 bound_to 10713
  157.7508  131.0238  150.3849 LP  0  0  0  0  0  0  0  0  0  0  0  0  # atno 17371 bound_to 10713
  139.8709  134.9751  156.4870 LP  0  0  0  0  0  0  0  0  0  0  0  0  # atno 17394 bound_to 11000
  140.8631  133.8045  155.9285 LP  0  0  0  0  0  0  0  0  0  0  0  0  # atno 17395 bound_to 11000

$$$$
