AV-unprocessed.smi:2397|AV-procd|sdf|9493|dock8
  -GOLD-   2272013123D 1   1.00000     0.00000
 Structure written by MMmdl.
 36 37  0  0  0  0  0  0  0  0  1 V2000
  153.0102  143.1016  161.5838 C   0  0  0  0  0  0  0  0  0  0  0  0
  152.6804  141.9987  160.5658 C   0  0  0  0  0  0  0  0  0  0  0  0
  153.8427  141.0189  160.3435 C   0  0  0  0  0  0  0  0  0  0  0  0
  152.1595  142.5712  159.2542 C   0  0  0  0  0  0  0  0  0  0  0  0
  152.2690  143.8925  159.0865 N   0  0  0  0  0  0  0  0  0  0  0  0
  151.8095  144.3995  157.9235 C   0  0  0  0  0  0  0  0  0  0  0  0
  151.2381  143.5812  156.9291 C   0  0  0  0  0  0  0  0  0  0  0  0
  151.1622  142.1959  157.2126 C   0  0  0  0  0  0  0  0  0  0  0  0
  150.6243  141.2543  156.3118 N   0  0  0  0  0  0  0  0  0  0  0  0
  149.3584  141.7156  155.7455 C   0  0  0  0  0  0  0  0  0  0  0  0
  148.9040  140.7925  154.6060 C   0  0  0  0  0  0  0  0  0  0  0  0
  148.8297  139.4579  155.0880 O   0  0  0  0  0  0  0  0  0  0  0  0
  150.1037  138.9838  155.5070 C   0  0  0  0  0  0  0  0  0  0  0  0
  150.6391  139.8317  156.6850 C   0  0  1  0  0  0  0  0  0  0  0  0
  152.0211  139.2798  157.0814 C   0  0  0  0  0  0  0  0  0  0  0  0
  152.1703  138.8701  158.3435 N   0  0  0  0  0  0  0  0  0  0  0  0
  152.9346  139.2119  156.2606 O   0  0  0  0  0  0  0  0  0  0  0  0
  151.6364  141.7049  158.3803 N   0  0  0  0  0  0  0  0  0  0  0  0
  152.1413  143.7325  161.7724 H   0  0  0  0  0  0  0  0  0  0  0  0
  153.8174  143.7430  161.2287 H   0  0  0  0  0  0  0  0  0  0  0  0
  153.3221  142.6749  162.5372 H   0  0  0  0  0  0  0  0  0  0  0  0
  151.8704  141.4133  161.0051 H   0  0  0  0  0  0  0  0  0  0  0  0
  153.5505  140.2116  159.6715 H   0  0  0  0  0  0  0  0  0  0  0  0
  154.1602  140.5676  161.2837 H   0  0  0  0  0  0  0  0  0  0  0  0
  154.7077  141.5190  159.9073 H   0  0  0  0  0  0  0  0  0  0  0  0
  151.9009  145.4662  157.7828 H   0  0  0  0  0  0  0  0  0  0  0  0
  150.8844  144.0083  156.0031 H   0  0  0  0  0  0  0  0  0  0  0  0
  148.6007  141.7375  156.5302 H   0  0  0  0  0  0  0  0  0  0  0  0
  149.4495  142.7334  155.3636 H   0  0  0  0  0  0  0  0  0  0  0  0
  147.9207  141.0954  154.2460 H   0  0  0  0  0  0  0  0  0  0  0  0
  149.5871  140.8522  153.7570 H   0  0  0  0  0  0  0  0  0  0  0  0
  149.9962  137.9404  155.8064 H   0  0  0  0  0  0  0  0  0  0  0  0
  150.7947  138.9980  154.6614 H   0  0  0  0  0  0  0  0  0  0  0  0
  149.9549  139.6993  157.5249 H   0  0  0  0  0  0  0  0  0  0  0  0
  153.0572  138.5002  158.6531 H   0  0  0  0  0  0  0  0  0  0  0  0
  151.3926  138.9325  158.9844 H   0  0  0  0  0  0  0  0  0  0  0  0
  1  2  1  0  0  0  0
  1 19  1  0  0  0  0
  1 20  1  0  0  0  0
  1 21  1  0  0  0  0
  2  3  1  0  0  0  0
  2  4  1  0  0  0  0
  2 22  1  0  0  0  0
  3 23  1  0  0  0  0
  3 24  1  0  0  0  0
  3 25  1  0  0  0  0
  4 18  1  0  0  0  0
  4  5  2  0  0  0  0
  5  6  1  0  0  0  0
  6  7  2  0  0  0  0
  6 26  1  0  0  0  0
  7  8  1  0  0  0  0
  7 27  1  0  0  0  0
  8  9  1  0  0  0  0
  8 18  2  0  0  0  0
  9 14  1  0  0  0  0
  9 10  1  0  0  0  0
 10 11  1  0  0  0  0
 10 28  1  0  0  0  0
 10 29  1  0  0  0  0
 11 12  1  0  0  0  0
 11 30  1  0  0  0  0
 11 31  1  0  0  0  0
 12 13  1  0  0  0  0
 13 14  1  0  0  0  0
 13 32  1  0  0  0  0
 13 33  1  0  0  0  0
 14 15  1  0  0  0  0
 14 34  1  0  0  0  0
 15 16  1  0  0  0  0
 15 17  2  0  0  0  0
 16 35  1  0  0  0  0
 16 36  1  0  0  0  0
M  END
> <s_m_source_file>
AV-unprocessed.smi

> <i_m_source_file_index>
2397

> <i_lp_mmshare_version>
43012

> <i_f3d_flags>
0

> <s_epik_input>
W0NIM11bQ0hdKFtDSDNdKWMxbltjSF1bY0hdYyhuMSlOMltDSDJdW0NIMl1PW0NIMl1bQ0BIXTJDKD1PKVtOSDJd

> <s_epik_cmdline>
J2VwaWtfcHl0aG9uJywgJy1waCcsICc3LjAnLCAnLXRuJywgJzgnLCAnLW1hJywgJzIwMCcsICctbWV0YWxfYmluZGluZycsICctaW1hZScsICc8aW5maWxlLm1hZT4nLCAnLW9tYWUnLCAnPG91dGZpbGUubWFlPic=

> <r_lp_tautomer_probability>
1

> <r_epik_Ionization_Penalty>
0.0323151

> <r_epik_Ionization_Penalty_Charging>
0

> <r_epik_Ionization_Penalty_Neutral>
0.0323151

> <r_epik_State_Penalty>
0.0267324

> <r_epik_Charging_Adjusted_Penalty>
0.0267324

> <i_epik_Tot_Q>
0

> <i_epik_Tot_abs_Q>
0

> <r_epik_Metal_State_Penalty>
0.0253461

> <b_epik_Metal_Only>
0

> <s_lp_Force_Field>
OPLS_2005

> <r_lp_Energy>
6.33426

> <b_lp_Chiralities_Consistent>
1

> <s_lp_Variant>
AV-unprocessed.smi:2397-1

> <Gold.Version>
5.8.1

> <Gold.Id.Protein>
6NUR|6NUR_protein|mol2

> <Gold.PLP.Fitness>
36.2429

> <Gold.PLP.PLP>
-33.7559

> <Gold.PLP.part.hbond>
-0.6815

> <Gold.PLP.part.metal>
0.0000

> <Gold.PLP.part.buried>
-3.4140

> <Gold.PLP.part.nonpolar>
-30.0514

> <Gold.PLP.part.repulsive>
0.2305

> <Gold.PLP.ligand.clash>
0.0000

> <Gold.PLP.ligand.torsion>
0.3250

> <Gold.PLP.Chemscore.Hbond>
0.9357

> <Gold.PLP.Chemscore.CHOScore>
0.0000

> <Gold.PLP.Chemscore.Metal>
0.0000

> <Gold.Chemscore.Hbonds>
donor molecule, donor type, donor heavy atom, donor atom, acceptor molecule, acceptor atom, score
      P1  H  7997  8009       L1    17  0.94

> <Gold.PLP.Chemscore.Internal.Correction>
0.3297

> <Gold.Rescore>
     Score         DG    S(hbond)    S(metal)    S(lipo)     H(rot)  DE(clash)    DE(int)     intcor
     10.85     -13.68       0.99        0.00      79.92       1.74       0.09       2.74       ----

> <Gold.Chemscore.Fitness>
10.8487

> <Gold.Chemscore.DG>
-13.6834

> <Gold.Chemscore.ZeroCoef>
-5.4800

> <Gold.Chemscore.Hbond>
0.9921

> <Gold.Chemscore.Metal>
0.0000

> <Gold.Chemscore.Lipo>
79.9222

> <Gold.Chemscore.Internal_Hbond>
0.0000

> <Gold.Chemscore.DEClash>
0.0948

> <Gold.Chemscore.DEInternal>
2.7400

> <Gold.Chemscore.Rot>
1.7426

> <Gold.Chemscore.Internal.Correction>
   9.000000E+99

> <Gold.Chemscore.Hbonds>
donor molecule, donor type, donor heavy atom, donor atom, acceptor molecule, acceptor atom, score
      P1  H  7997  8009       L1    17  0.82

> <Gold.Chemscore.Hbond.Weighted>
-3.3135

> <Gold.Chemscore.Metal.Weighted>
-0.0000

> <Gold.Chemscore.Lipo.Weighted>
-9.3509

> <Gold.Chemscore.Internal_Hbond.Weighted>
0.0000

> <Gold.Chemscore.DEClash.Weighted>
0.0948

> <Gold.Chemscore.DEInternal.Weighted>
2.7400

> <Gold.Chemscore.Rot.Weighted>
4.4610

> <Gold.Chemscore.Internal.Correction.Weighted>
   9.000000E+99

> <Gold.Protein.RotatedTorsions>
[ 6907 6896 6895 6894 ] final  -40.33 input  -60.11 | X-H torsion
[ 7974 7965 7964 7962 ] final  109.64 input  175.53 | X-H torsion
[ 8008 7997 7996 7995 ] final  173.24 input   59.86 | X-H torsion
[ 10167 10162 10161 10158 ] final  110.92 input  -65.29 | X-H torsion
[ 10718 10713 10712 10709 ] final -165.90 input   66.30 | X-H torsion
[ 10763 10752 10751 10750 ] final  109.52 input  -60.55 | X-H torsion
[ 11005 11000 10999 10996 ] final  151.06 input  -57.11 | X-H torsion

> <Gold.Protein.ActiveResidues>
 VAL166  LYS551  ARG553  GLY616  TRP617  ASP618  TYR619  PRO620  LYS621  CYS622 
 ASP623  PHE694  ASN695  SER759  ASP760  ASP761  ALA762  ILE779  LEU786  VAL792 
 PHE793  MET794  SER795  GLU796  ALA797  LYS798  CYS799  TRP800  GLU811  SER814 

> <Gold.Protein.RotatedAtoms>
  150.9797  134.9155  159.7836 H   0  0  0  0  0  0  0  0  0  0  0  0  # atno 6907 bound_to 6896
  152.5218  134.3427  159.9233 H   0  0  0  0  0  0  0  0  0  0  0  0  # atno 6908 bound_to 6896
  151.3435  133.3912  159.2708 H   0  0  0  0  0  0  0  0  0  0  0  0  # atno 6909 bound_to 6896
  145.2651  139.2687  143.3996 H   0  0  0  0  0  0  0  0  0  0  0  0  # atno 7974 bound_to 7965
  156.1095  140.1465  156.9358 H   0  0  0  0  0  0  0  0  0  0  0  0  # atno 8008 bound_to 7997
  154.4757  140.0895  156.7299 H   0  0  0  0  0  0  0  0  0  0  0  0  # atno 8009 bound_to 7997
  155.4621  140.3438  155.4316 H   0  0  0  0  0  0  0  0  0  0  0  0  # atno 8010 bound_to 7997
  139.6651  144.7127  151.1792 H   0  0  0  0  0  0  0  0  0  0  0  0  # atno 10167 bound_to 10162
  156.6601  130.9042  151.3028 H   0  0  0  0  0  0  0  0  0  0  0  0  # atno 10718 bound_to 10713
  153.4359  135.3777  155.2199 H   0  0  0  0  0  0  0  0  0  0  0  0  # atno 10763 bound_to 10752
  154.8752  135.3851  154.4211 H   0  0  0  0  0  0  0  0  0  0  0  0  # atno 10764 bound_to 10752
  153.4750  135.7087  153.6034 H   0  0  0  0  0  0  0  0  0  0  0  0  # atno 10765 bound_to 10752
  140.1186  134.8878  157.2040 H   0  0  0  0  0  0  0  0  0  0  0  0  # atno 11005 bound_to 11000
  146.3263  140.3079  142.8625 LP  0  0  0  0  0  0  0  0  0  0  0  0  # atno 17320 bound_to 7965
  144.9384  140.8051  143.5646 LP  0  0  0  0  0  0  0  0  0  0  0  0  # atno 17321 bound_to 7965
  140.7596  143.5933  150.8774 LP  0  0  0  0  0  0  0  0  0  0  0  0  # atno 17342 bound_to 10162
  139.9593  143.6182  152.3007 LP  0  0  0  0  0  0  0  0  0  0  0  0  # atno 17343 bound_to 10162
  157.7112  130.9443  150.1097 LP  0  0  0  0  0  0  0  0  0  0  0  0  # atno 17370 bound_to 10713
  156.2017  130.3660  149.8780 LP  0  0  0  0  0  0  0  0  0  0  0  0  # atno 17371 bound_to 10713
  140.2995  134.3148  155.7293 LP  0  0  0  0  0  0  0  0  0  0  0  0  # atno 17394 bound_to 11000
  141.2147  133.7583  156.9620 LP  0  0  0  0  0  0  0  0  0  0  0  0  # atno 17395 bound_to 11000

$$$$
