AV-unprocessed.smi:2441|AV-procd|sdf|9622|dock6
  -GOLD-   2272013253D 1   1.00000     0.00000
 Structure written by MMmdl.
 40 41  0  0  0  0  0  0  0  0  1 V2000
  150.3149  139.5172  154.8773 C   0  0  0  0  0  0  0  0  0  0  0  0
  149.2575  140.5295  154.4024 C   0  0  1  0  0  0  0  0  0  0  0  0
  148.2455  139.8479  153.4587 C   0  0  0  0  0  0  0  0  0  0  0  0
  147.1725  140.8278  152.9612 C   0  0  0  0  0  0  0  0  0  0  0  0
  146.4437  141.4900  154.1378 C   0  0  0  0  0  0  0  0  0  0  0  0
  147.4386  142.1909  155.0736 C   0  0  0  0  0  0  0  0  0  0  0  0
  148.5257  141.2227  155.5800 C   0  0  2  0  0  0  0  0  0  0  0  0
  149.4703  141.9702  156.4096 N   0  0  0  0  0  0  0  0  0  0  0  0
  150.1987  141.4729  157.4197 C   0  0  0  0  0  0  0  0  0  0  0  0
  150.1622  140.2929  157.7673 O   0  0  0  0  0  0  0  0  0  0  0  0
  150.9422  142.4388  157.9903 N   0  0  0  0  0  0  0  0  0  0  0  0
  151.8609  142.3481  159.0507 C   0  0  0  0  0  0  0  0  0  0  0  0
  151.9000  143.1962  160.1090 C   0  0  0  0  0  0  0  0  0  0  0  0
  152.8703  143.0227  161.1625 C   0  0  0  0  0  0  0  0  0  0  0  0
  153.7253  141.9946  161.0760 C   0  0  0  0  0  0  0  0  0  0  0  0
  153.6970  141.0962  159.9976 N   0  0  0  0  0  0  0  0  0  0  0  0
  154.6935  140.0223  160.0381 C   0  0  0  0  0  0  0  0  0  0  0  0
  152.8043  141.2150  158.9679 C   0  0  0  0  0  0  0  0  0  0  0  0
  152.7956  140.4177  158.0272 O   0  0  0  0  0  0  0  0  0  0  0  0
  149.8653  138.7382  155.4934 H   0  0  0  0  0  0  0  0  0  0  0  0
  151.0972  139.9964  155.4660 H   0  0  0  0  0  0  0  0  0  0  0  0
  150.8003  139.0317  154.0304 H   0  0  0  0  0  0  0  0  0  0  0  0
  149.7761  141.2981  153.8270 H   0  0  0  0  0  0  0  0  0  0  0  0
  148.7661  139.4171  152.6028 H   0  0  0  0  0  0  0  0  0  0  0  0
  147.7643  139.0163  153.9753 H   0  0  0  0  0  0  0  0  0  0  0  0
  147.6358  141.5940  152.3383 H   0  0  0  0  0  0  0  0  0  0  0  0
  146.4563  140.3045  152.3275 H   0  0  0  0  0  0  0  0  0  0  0  0
  145.7131  142.2087  153.7660 H   0  0  0  0  0  0  0  0  0  0  0  0
  145.8837  140.7378  154.6948 H   0  0  0  0  0  0  0  0  0  0  0  0
  147.9031  143.0243  154.5443 H   0  0  0  0  0  0  0  0  0  0  0  0
  146.9018  142.6238  155.9188 H   0  0  0  0  0  0  0  0  0  0  0  0
  148.0318  140.4504  156.1731 H   0  0  0  0  0  0  0  0  0  0  0  0
  149.5695  142.9526  156.2001 H   0  0  0  0  0  0  0  0  0  0  0  0
  150.8044  143.3748  157.6374 H   0  0  0  0  0  0  0  0  0  0  0  0
  151.2037  144.0126  160.2113 H   0  0  0  0  0  0  0  0  0  0  0  0
  152.9063  143.7048  161.9993 H   0  0  0  0  0  0  0  0  0  0  0  0
  154.4833  141.7918  161.8193 H   0  0  0  0  0  0  0  0  0  0  0  0
  154.5914  139.2838  159.2424 H   0  0  0  0  0  0  0  0  0  0  0  0
  154.6250  139.4835  160.9839 H   0  0  0  0  0  0  0  0  0  0  0  0
  155.6965  140.4445  159.9657 H   0  0  0  0  0  0  0  0  0  0  0  0
  1  2  1  0  0  0  0
  1 20  1  0  0  0  0
  1 21  1  0  0  0  0
  1 22  1  0  0  0  0
  2  7  1  0  0  0  0
  2  3  1  0  0  0  0
  2 23  1  0  0  0  0
  3  4  1  0  0  0  0
  3 24  1  0  0  0  0
  3 25  1  0  0  0  0
  4  5  1  0  0  0  0
  4 26  1  0  0  0  0
  4 27  1  0  0  0  0
  5  6  1  0  0  0  0
  5 28  1  0  0  0  0
  5 29  1  0  0  0  0
  6  7  1  0  0  0  0
  6 30  1  0  0  0  0
  6 31  1  0  0  0  0
  7  8  1  0  0  0  0
  7 32  1  0  0  0  0
  8  9  1  0  0  0  0
  8 33  1  0  0  0  0
  9 10  2  0  0  0  0
  9 11  1  0  0  0  0
 11 12  1  0  0  0  0
 11 34  1  0  0  0  0
 12 18  1  0  0  0  0
 12 13  2  0  0  0  0
 13 14  1  0  0  0  0
 13 35  1  0  0  0  0
 14 15  2  0  0  0  0
 14 36  1  0  0  0  0
 15 16  1  0  0  0  0
 15 37  1  0  0  0  0
 16 17  1  0  0  0  0
 16 18  1  0  0  0  0
 17 38  1  0  0  0  0
 17 39  1  0  0  0  0
 17 40  1  0  0  0  0
 18 19  2  0  0  0  0
M  END
> <s_m_source_file>
AV-unprocessed.smi

> <i_m_source_file_index>
2441

> <i_lp_mmshare_version>
43012

> <i_f3d_flags>
0

> <s_epik_input>
W0NIM11bQ0BASF0xW0NIMl1bQ0gyXVtDSDJdW0NIMl1bQ0BIXTFbTkhdQyg9TylbTkhdYzJbY0hdW2NIXVtjSF1uKFtDSDNdKWMyPU8=

> <s_epik_cmdline>
J2VwaWtfcHl0aG9uJywgJy1waCcsICc3LjAnLCAnLXRuJywgJzgnLCAnLW1hJywgJzIwMCcsICctbWV0YWxfYmluZGluZycsICctaW1hZScsICc8aW5maWxlLm1hZT4nLCAnLW9tYWUnLCAnPG91dGZpbGUubWFlPic=

> <r_lp_tautomer_probability>
1

> <r_epik_Ionization_Penalty>
2.64999e-05

> <r_epik_Ionization_Penalty_Charging>
5.09663e-06

> <r_epik_Ionization_Penalty_Neutral>
2.14032e-05

> <r_epik_State_Penalty>
-0

> <r_epik_Charging_Adjusted_Penalty>
5.09663e-06

> <i_epik_Tot_Q>
0

> <i_epik_Tot_abs_Q>
0

> <r_epik_Metal_State_Penalty>
-0

> <b_epik_Metal_Only>
0

> <s_lp_Force_Field>
OPLS_2005

> <r_lp_Energy>
23.8871

> <b_lp_Chiralities_Consistent>
1

> <s_lp_Variant>
AV-unprocessed.smi:2441-4

> <Gold.Version>
5.8.1

> <Gold.Id.Protein>
6NUR|6NUR_protein|mol2

> <Gold.PLP.Fitness>
40.1216

> <Gold.PLP.PLP>
-36.1359

> <Gold.PLP.part.hbond>
-2.0000

> <Gold.PLP.part.metal>
0.0000

> <Gold.PLP.part.buried>
2.2617

> <Gold.PLP.part.nonpolar>
-35.2252

> <Gold.PLP.part.repulsive>
0.0875

> <Gold.PLP.ligand.clash>
0.0000

> <Gold.PLP.ligand.torsion>
0.7518

> <Gold.PLP.Chemscore.Hbond>
1.8284

> <Gold.PLP.Chemscore.CHOScore>
0.0000

> <Gold.PLP.Chemscore.Metal>
0.0000

> <Gold.Chemscore.Hbonds>
donor molecule, donor type, donor heavy atom, donor atom, acceptor molecule, acceptor atom, score
      L1  H     8    33       P1  8028  1.00
      P1  H  7997  8009       L1    19  0.82

> <Gold.PLP.Chemscore.Internal.Correction>
0.0041

> <Gold.Rescore>
     Score         DG    S(hbond)    S(metal)    S(lipo)     H(rot)  DE(clash)    DE(int)     intcor
     14.05     -19.71       1.76        0.00      93.11       1.00       1.26       4.40       ----

> <Gold.Chemscore.Fitness>
14.0477

> <Gold.Chemscore.DG>
-19.7064

> <Gold.Chemscore.ZeroCoef>
-5.4800

> <Gold.Chemscore.Hbond>
1.7644

> <Gold.Chemscore.Metal>
0.0000

> <Gold.Chemscore.Lipo>
93.1055

> <Gold.Chemscore.Internal_Hbond>
0.0000

> <Gold.Chemscore.DEClash>
1.2600

> <Gold.Chemscore.DEInternal>
4.3987

> <Gold.Chemscore.Rot>
1.0000

> <Gold.Chemscore.Internal.Correction>
   9.000000E+99

> <Gold.Chemscore.Hbonds>
donor molecule, donor type, donor heavy atom, donor atom, acceptor molecule, acceptor atom, score
      L1  H     8    33       P1  8028  0.96
      P1  H  7997  8009       L1    19  0.75

> <Gold.Chemscore.Hbond.Weighted>
-5.8931

> <Gold.Chemscore.Metal.Weighted>
-0.0000

> <Gold.Chemscore.Lipo.Weighted>
-10.8933

> <Gold.Chemscore.Internal_Hbond.Weighted>
0.0000

> <Gold.Chemscore.DEClash.Weighted>
1.2600

> <Gold.Chemscore.DEInternal.Weighted>
4.3987

> <Gold.Chemscore.Rot.Weighted>
2.5600

> <Gold.Chemscore.Internal.Correction.Weighted>
   9.000000E+99

> <Gold.Protein.RotatedTorsions>
[ 6907 6896 6895 6894 ] final  171.59 input  -60.11 | X-H torsion
[ 7974 7965 7964 7962 ] final  118.47 input  175.53 | X-H torsion
[ 8008 7997 7996 7995 ] final  165.43 input   59.86 | X-H torsion
[ 10167 10162 10161 10158 ] final  178.63 input  -65.29 | X-H torsion
[ 10718 10713 10712 10709 ] final  -76.34 input   66.30 | X-H torsion
[ 10763 10752 10751 10750 ] final   39.72 input  -60.55 | X-H torsion
[ 11005 11000 10999 10996 ] final   42.98 input  -57.11 | X-H torsion

> <Gold.Protein.ActiveResidues>
 VAL166  LYS551  ARG553  GLY616  TRP617  ASP618  TYR619  PRO620  LYS621  CYS622 
 ASP623  PHE694  ASN695  SER759  ASP760  ASP761  ALA762  ILE779  LEU786  VAL792 
 PHE793  MET794  SER795  GLU796  ALA797  LYS798  CYS799  TRP800  GLU811  SER814 

> <Gold.Protein.RotatedAtoms>
  151.7978  133.3366  159.3517 H   0  0  0  0  0  0  0  0  0  0  0  0  # atno 6907 bound_to 6896
  150.7369  134.5782  159.5934 H   0  0  0  0  0  0  0  0  0  0  0  0  # atno 6908 bound_to 6896
  152.3164  134.7435  160.0375 H   0  0  0  0  0  0  0  0  0  0  0  0  # atno 6909 bound_to 6896
  145.1548  139.3189  143.4548 H   0  0  0  0  0  0  0  0  0  0  0  0  # atno 7974 bound_to 7965
  156.1801  140.1670  156.8290 H   0  0  0  0  0  0  0  0  0  0  0  0  # atno 8008 bound_to 7997
  154.5350  140.0748  156.8445 H   0  0  0  0  0  0  0  0  0  0  0  0  # atno 8009 bound_to 7997
  155.3329  140.3380  155.4241 H   0  0  0  0  0  0  0  0  0  0  0  0  # atno 8010 bound_to 7997
  139.5302  144.2657  152.0670 H   0  0  0  0  0  0  0  0  0  0  0  0  # atno 10167 bound_to 10162
  156.0178  130.4463  150.3178 H   0  0  0  0  0  0  0  0  0  0  0  0  # atno 10718 bound_to 10713
  152.9958  135.6212  154.2510 H   0  0  0  0  0  0  0  0  0  0  0  0  # atno 10763 bound_to 10752
  154.2249  135.2794  155.2913 H   0  0  0  0  0  0  0  0  0  0  0  0  # atno 10764 bound_to 10752
  154.5498  135.5736  153.6970 H   0  0  0  0  0  0  0  0  0  0  0  0  # atno 10765 bound_to 10752
  140.1688  134.4248  155.8270 H   0  0  0  0  0  0  0  0  0  0  0  0  # atno 11005 bound_to 11000
  146.3490  140.1636  142.8590 LP  0  0  0  0  0  0  0  0  0  0  0  0  # atno 17320 bound_to 7965
  145.0392  140.8932  143.5062 LP  0  0  0  0  0  0  0  0  0  0  0  0  # atno 17321 bound_to 7965
  140.2119  144.4554  150.6382 LP  0  0  0  0  0  0  0  0  0  0  0  0  # atno 17342 bound_to 10162
  140.6475  143.2217  151.6153 LP  0  0  0  0  0  0  0  0  0  0  0  0  # atno 17343 bound_to 10162
  157.1279  131.0264  151.2982 LP  0  0  0  0  0  0  0  0  0  0  0  0  # atno 17370 bound_to 10713
  157.4575  130.7634  149.7206 LP  0  0  0  0  0  0  0  0  0  0  0  0  # atno 17371 bound_to 10713
  141.2216  133.6946  156.7726 LP  0  0  0  0  0  0  0  0  0  0  0  0  # atno 17394 bound_to 11000
  140.2402  134.8619  157.3565 LP  0  0  0  0  0  0  0  0  0  0  0  0  # atno 17395 bound_to 11000

$$$$
