AV-unprocessed.smi:1199|AV-procd|sdf|5018|dock8
  -GOLD-   22720 4 33D 1   1.00000     0.00000
 Structure written by MMmdl.
 41 42  0  0  0  0  0  0  0  0  1 V2000
  145.9851  134.4576  155.1082 C   0  0  0  0  0  0  0  0  0  0  0  0
  146.3367  135.1849  153.8038 C   0  0  2  0  0  0  0  0  0  0  0  0
  146.6320  134.1866  152.6616 C   0  0  0  0  0  0  0  0  0  0  0  0
  145.5136  133.3228  152.2782 N   0  0  0  0  0  0  0  0  0  0  0  0
  145.8562  132.3837  151.2136 C   0  0  0  0  0  0  0  0  0  0  0  0
  144.6668  131.4754  150.8588 C   0  0  0  0  0  0  0  0  0  0  0  0
  143.5505  132.2767  150.4845 O   0  0  0  0  0  0  0  0  0  0  0  0
  143.1607  133.1893  151.5061 C   0  0  0  0  0  0  0  0  0  0  0  0
  144.3485  134.0977  151.8699 C   0  0  0  0  0  0  0  0  0  0  0  0
  147.5024  136.0391  154.0248 N   0  0  0  0  0  0  0  0  0  0  0  0
  147.6053  136.9937  154.9627 C   0  0  0  0  0  0  0  0  0  0  0  0
  146.7702  137.1725  155.8499 O   0  0  0  0  0  0  0  0  0  0  0  0
  148.8407  137.8977  154.8783 C   0  0  0  0  0  0  0  0  0  0  0  0
  148.4713  139.3052  154.6718 N   0  0  0  0  0  0  0  0  0  0  0  0
  147.1075  139.5491  154.7240 N   0  0  0  0  0  0  0  0  0  0  0  0
  146.6582  140.7412  154.5209 C   0  0  0  0  0  0  0  0  0  0  0  0
  145.3004  140.9376  154.5768 O   0  0  0  0  0  0  0  0  0  0  0  0
  147.5540  141.8418  154.2407 C   0  0  0  0  0  0  0  0  0  0  0  0
  148.8820  141.5965  154.2010 C   0  0  0  0  0  0  0  0  0  0  0  0
  149.4261  140.2574  154.4319 C   0  0  0  0  0  0  0  0  0  0  0  0
  150.6312  140.0071  154.4101 O   0  0  0  0  0  0  0  0  0  0  0  0
  144.9630  140.5839  153.7681 H   0  0  0  0  0  0  0  0  0  0  0  0
  145.1116  133.8187  154.9761 H   0  0  0  0  0  0  0  0  0  0  0  0
  145.7565  135.1675  155.9038 H   0  0  0  0  0  0  0  0  0  0  0  0
  146.8083  133.8284  155.4490 H   0  0  0  0  0  0  0  0  0  0  0  0
  145.4691  135.7885  153.5349 H   0  0  0  0  0  0  0  0  0  0  0  0
  146.9373  134.7666  151.7895 H   0  0  0  0  0  0  0  0  0  0  0  0
  147.4945  133.5731  152.9254 H   0  0  0  0  0  0  0  0  0  0  0  0
  146.1738  132.9307  150.3247 H   0  0  0  0  0  0  0  0  0  0  0  0
  146.6966  131.7585  151.5104 H   0  0  0  0  0  0  0  0  0  0  0  0
  144.9266  130.8151  150.0315 H   0  0  0  0  0  0  0  0  0  0  0  0
  144.4013  130.8401  151.7056 H   0  0  0  0  0  0  0  0  0  0  0  0
  142.3209  133.7862  151.1502 H   0  0  0  0  0  0  0  0  0  0  0  0
  142.8139  132.6376  152.3813 H   0  0  0  0  0  0  0  0  0  0  0  0
  144.0509  134.7715  152.6742 H   0  0  0  0  0  0  0  0  0  0  0  0
  144.6023  134.7247  151.0138 H   0  0  0  0  0  0  0  0  0  0  0  0
  148.2479  135.9665  153.3479 H   0  0  0  0  0  0  0  0  0  0  0  0
  149.4108  137.7811  155.8015 H   0  0  0  0  0  0  0  0  0  0  0  0
  149.5036  137.5649  154.0770 H   0  0  0  0  0  0  0  0  0  0  0  0
  147.1606  142.8330  154.0688 H   0  0  0  0  0  0  0  0  0  0  0  0
  149.5624  142.4090  153.9917 H   0  0  0  0  0  0  0  0  0  0  0  0
  1  2  1  0  0  0  0
  1 23  1  0  0  0  0
  1 24  1  0  0  0  0
  1 25  1  0  0  0  0
  2  3  1  0  0  0  0
  2 10  1  0  0  0  0
  2 26  1  0  0  0  0
  3  4  1  0  0  0  0
  3 27  1  0  0  0  0
  3 28  1  0  0  0  0
  4  9  1  0  0  0  0
  4  5  1  0  0  0  0
  5  6  1  0  0  0  0
  5 29  1  0  0  0  0
  5 30  1  0  0  0  0
  6  7  1  0  0  0  0
  6 31  1  0  0  0  0
  6 32  1  0  0  0  0
  7  8  1  0  0  0  0
  8  9  1  0  0  0  0
  8 33  1  0  0  0  0
  8 34  1  0  0  0  0
  9 35  1  0  0  0  0
  9 36  1  0  0  0  0
 10 11  1  0  0  0  0
 10 37  1  0  0  0  0
 11 12  2  0  0  0  0
 11 13  1  0  0  0  0
 13 38  1  0  0  0  0
 13 39  1  0  0  0  0
 13 14  1  0  0  0  0
 14 15  1  0  0  0  0
 14 20  1  0  0  0  0
 15 16  2  0  0  0  0
 16 17  1  0  0  0  0
 16 18  1  0  0  0  0
 17 22  1  0  0  0  0
 18 40  1  0  0  0  0
 18 19  2  0  0  0  0
 19 41  1  0  0  0  0
 19 20  1  0  0  0  0
 20 21  2  0  0  0  0
M  END
> <s_m_source_file>
AV-unprocessed.smi

> <i_m_source_file_index>
1199

> <i_lp_mmshare_version>
43012

> <i_f3d_flags>
0

> <s_epik_input>
W0NIMl0xW0NIMl1PW0NIMl1bQ0gyXU4xW0NIMl1bQ0BASF0oW0NIM10pW05IXUMoPU8pW0NIMl1uMltuSF1jKD1PKVtjSF1bY0hdYzI9Tw==

> <s_epik_cmdline>
J2VwaWtfcHl0aG9uJywgJy1waCcsICc3LjAnLCAnLXRuJywgJzgnLCAnLW1hJywgJzIwMCcsICctbWV0YWxfYmluZGluZycsICctaW1hZScsICc8aW5maWxlLm1hZT4nLCAnLW9tYWUnLCAnPG91dGZpbGUubWFlPic=

> <r_epik_Ionization_Penalty>
2.36432

> <r_epik_Ionization_Penalty_Charging>
3.67277e-08

> <r_epik_Ionization_Penalty_Neutral>
2.36432

> <r_epik_State_Penalty>
1.96081

> <r_epik_Charging_Adjusted_Penalty>
1.96081

> <i_epik_Tot_Q>
0

> <i_epik_Tot_abs_Q>
0

> <r_epik_Metal_State_Penalty>
1.96081

> <b_epik_Metal_Only>
0

> <s_lp_Force_Field>
OPLS_2005

> <r_lp_Energy>
35.6953

> <b_lp_Chiralities_Consistent>
1

> <s_lp_Variant>
AV-unprocessed.smi:1199-5

> <Gold.Version>
5.8.1

> <Gold.Id.Protein>
6NUR|6NUR_protein|mol2

> <Gold.PLP.Fitness>
37.0439

> <Gold.PLP.PLP>
-28.1238

> <Gold.PLP.part.hbond>
-3.0000

> <Gold.PLP.part.metal>
0.0000

> <Gold.PLP.part.buried>
-1.7841

> <Gold.PLP.part.nonpolar>
-23.4689

> <Gold.PLP.part.repulsive>
0.5110

> <Gold.PLP.ligand.clash>
0.0000

> <Gold.PLP.ligand.torsion>
0.0576

> <Gold.PLP.Chemscore.Hbond>
3.0000

> <Gold.PLP.Chemscore.CHOScore>
0.0000

> <Gold.PLP.Chemscore.Metal>
0.0000

> <Gold.Chemscore.Hbonds>
donor molecule, donor type, donor heavy atom, donor atom, acceptor molecule, acceptor atom, score
      L1  H    10    37       P1  7948  1.00
      L1  H    17    22       P1 10175  1.00
      P1  H  7989  7998       L1    21  1.00

> <Gold.PLP.Chemscore.Internal.Correction>
0.0352

> <Gold.Rescore>
     Score         DG    S(hbond)    S(metal)    S(lipo)     H(rot)  DE(clash)    DE(int)     intcor
     11.16     -14.09       2.97        0.00      53.32       2.94       0.04       2.89       ----

> <Gold.Chemscore.Fitness>
11.1646

> <Gold.Chemscore.DG>
-14.0885

> <Gold.Chemscore.ZeroCoef>
-5.4800

> <Gold.Chemscore.Hbond>
2.9658

> <Gold.Chemscore.Metal>
0.0000

> <Gold.Chemscore.Lipo>
53.3222

> <Gold.Chemscore.Internal_Hbond>
0.0000

> <Gold.Chemscore.DEClash>
0.0383

> <Gold.Chemscore.DEInternal>
2.8855

> <Gold.Chemscore.Rot>
2.9437

> <Gold.Chemscore.Internal.Correction>
   9.000000E+99

> <Gold.Chemscore.Hbonds>
donor molecule, donor type, donor heavy atom, donor atom, acceptor molecule, acceptor atom, score
      L1  H    10    37       P1  7948  0.98
      L1  H    17    22       P1 10175  0.95
      P1  H  7989  7998       L1    21  0.96

> <Gold.Chemscore.Hbond.Weighted>
-9.9057

> <Gold.Chemscore.Metal.Weighted>
-0.0000

> <Gold.Chemscore.Lipo.Weighted>
-6.2387

> <Gold.Chemscore.Internal_Hbond.Weighted>
0.0000

> <Gold.Chemscore.DEClash.Weighted>
0.0383

> <Gold.Chemscore.DEInternal.Weighted>
2.8855

> <Gold.Chemscore.Rot.Weighted>
7.5359

> <Gold.Chemscore.Internal.Correction.Weighted>
   9.000000E+99

> <Gold.Protein.RotatedTorsions>
[ 6907 6896 6895 6894 ] final  135.91 input  -60.11 | X-H torsion
[ 7974 7965 7964 7962 ] final -117.57 input  175.53 | X-H torsion
[ 8008 7997 7996 7995 ] final  -93.51 input   59.86 | X-H torsion
[ 10167 10162 10161 10158 ] final  -67.84 input  -65.29 | X-H torsion
[ 10718 10713 10712 10709 ] final  117.87 input   66.30 | X-H torsion
[ 10763 10752 10751 10750 ] final  114.64 input  -60.55 | X-H torsion
[ 11005 11000 10999 10996 ] final  117.95 input  -57.11 | X-H torsion

> <Gold.Protein.ActiveResidues>
 VAL166  LYS551  ARG553  GLY616  TRP617  ASP618  TYR619  PRO620  LYS621  CYS622 
 ASP623  PHE694  ASN695  SER759  ASP760  ASP761  ALA762  ILE779  LEU786  VAL792 
 PHE793  MET794  SER795  GLU796  ALA797  LYS798  CYS799  TRP800  GLU811  SER814 

> <Gold.Protein.RotatedAtoms>
  152.2953  133.5601  159.5582 H   0  0  0  0  0  0  0  0  0  0  0  0  # atno 6907 bound_to 6896
  150.7253  134.0370  159.3762 H   0  0  0  0  0  0  0  0  0  0  0  0  # atno 6908 bound_to 6896
  151.8274  135.0633  160.0483 H   0  0  0  0  0  0  0  0  0  0  0  0  # atno 6909 bound_to 6896
  145.0837  140.8443  143.4024 H   0  0  0  0  0  0  0  0  0  0  0  0  # atno 7974 bound_to 7965
  154.7365  140.0498  157.0773 H   0  0  0  0  0  0  0  0  0  0  0  0  # atno 8008 bound_to 7997
  155.0233  140.3149  155.4766 H   0  0  0  0  0  0  0  0  0  0  0  0  # atno 8009 bound_to 7997
  156.2854  140.2163  156.5352 H   0  0  0  0  0  0  0  0  0  0  0  0  # atno 8010 bound_to 7997
  140.5553  143.2312  151.6834 H   0  0  0  0  0  0  0  0  0  0  0  0  # atno 10167 bound_to 10162
  157.6068  131.1042  150.7677 H   0  0  0  0  0  0  0  0  0  0  0  0  # atno 10718 bound_to 10713
  153.5102  135.3619  155.2583 H   0  0  0  0  0  0  0  0  0  0  0  0  # atno 10763 bound_to 10752
  154.8742  135.4021  154.3377 H   0  0  0  0  0  0  0  0  0  0  0  0  # atno 10764 bound_to 10752
  153.4029  135.7075  153.6480 H   0  0  0  0  0  0  0  0  0  0  0  0  # atno 10765 bound_to 10752
  139.9092  134.9615  156.7429 H   0  0  0  0  0  0  0  0  0  0  0  0  # atno 11005 bound_to 11000
  145.1148  139.2733  143.5619 LP  0  0  0  0  0  0  0  0  0  0  0  0  # atno 17320 bound_to 7965
  146.3531  140.0755  142.8620 LP  0  0  0  0  0  0  0  0  0  0  0  0  # atno 17321 bound_to 7965
  139.5045  144.3752  152.0431 LP  0  0  0  0  0  0  0  0  0  0  0  0  # atno 17342 bound_to 10162
  140.2873  144.3793  150.6100 LP  0  0  0  0  0  0  0  0  0  0  0  0  # atno 17343 bound_to 10162
  156.8063  130.4937  149.5362 LP  0  0  0  0  0  0  0  0  0  0  0  0  # atno 17370 bound_to 10713
  156.1157  130.6073  151.0116 LP  0  0  0  0  0  0  0  0  0  0  0  0  # atno 17371 bound_to 10713
  140.6835  133.9454  155.7924 LP  0  0  0  0  0  0  0  0  0  0  0  0  # atno 17394 bound_to 11000
  141.0493  134.0508  157.3804 LP  0  0  0  0  0  0  0  0  0  0  0  0  # atno 17395 bound_to 11000

$$$$
