AV-unprocessed.smi:1680|AV-procd|sdf|6740|dock8
  -GOLD-   22720 7493D 1   1.00000     0.00000
 Structure written by MMmdl.
 38 39  0  0  0  0  0  0  0  0  3 V2000
  150.7241  140.8283  156.3096 C   0  0  0  0  0  0  0  0  0  0  0  0
  151.5441  139.6943  155.6907 C   0  0  0  0  0  0  0  0  0  0  0  0
  152.7110  139.5573  156.0577 O   0  0  0  0  0  0  0  0  0  0  0  0
  150.9687  138.8861  154.7680 N   0  0  0  0  0  0  0  0  0  0  0  0
  149.5652  139.0122  154.3653 C   0  0  0  0  0  0  0  0  0  0  0  0
  148.7913  137.7692  154.8404 C   0  0  0  0  0  0  0  0  0  0  0  0
  149.4105  136.5141  154.3363 N   0  3  0  0  0  0  0  0  0  0  0  0
  148.6650  135.3088  154.7761 C   0  0  0  0  0  0  0  0  0  0  0  0
  149.0963  134.8269  156.1739 C   0  0  0  0  0  0  0  0  0  0  0  0
  148.2377  135.3825  157.2130 N   0  0  0  0  0  0  0  0  0  0  0  0
  148.1963  134.9792  158.4909 C   0  0  0  0  0  0  0  0  0  0  0  0
  148.9340  134.0667  158.8705 O   0  0  0  0  0  0  0  0  0  0  0  0
  147.2997  135.6530  159.2451 N   0  5  0  0  0  0  0  0  0  0  0  0
  147.4119  135.6511  160.5838 C   0  0  0  0  0  0  0  0  0  0  0  0
  147.1593  136.7409  161.3262 N   0  0  0  0  0  0  0  0  0  0  0  0
  147.3291  136.5259  162.6871 N   0  0  0  0  0  0  0  0  0  0  0  0
  147.7004  135.2707  162.9381 C   0  0  0  0  0  0  0  0  0  0  0  0
  147.8724  134.2365  161.5356 S   0  0  0  0  0  0  0  0  0  0  0  0
  150.8720  136.4427  154.6157 C   0  0  0  0  0  0  0  0  0  0  0  0
  151.5988  137.7170  154.1469 C   0  0  0  0  0  0  0  0  0  0  0  0
  150.3868  141.5262  155.5426 H   0  0  0  0  0  0  0  0  0  0  0  0
  151.3239  141.3888  157.0278 H   0  0  0  0  0  0  0  0  0  0  0  0
  149.8560  140.4339  156.8388 H   0  0  0  0  0  0  0  0  0  0  0  0
  149.0900  139.9129  154.7562 H   0  0  0  0  0  0  0  0  0  0  0  0
  149.5103  139.0954  153.2789 H   0  0  0  0  0  0  0  0  0  0  0  0
  148.7640  137.7452  155.9312 H   0  0  0  0  0  0  0  0  0  0  0  0
  147.7579  137.8320  154.4978 H   0  0  0  0  0  0  0  0  0  0  0  0
  147.5921  135.5050  154.7478 H   0  0  0  0  0  0  0  0  0  0  0  0
  148.8485  134.5045  154.0621 H   0  0  0  0  0  0  0  0  0  0  0  0
  149.0888  133.7368  156.2250 H   0  0  0  0  0  0  0  0  0  0  0  0
  150.1147  135.1420  156.3975 H   0  0  0  0  0  0  0  0  0  0  0  0
  147.6214  136.1363  156.9455 H   0  0  0  0  0  0  0  0  0  0  0  0
  147.8711  134.9512  163.9552 H   0  0  0  0  0  0  0  0  0  0  0  0
  151.0298  136.3026  155.6865 H   0  0  0  0  0  0  0  0  0  0  0  0
  151.3110  135.5804  154.1155 H   0  0  0  0  0  0  0  0  0  0  0  0
  151.5230  137.8096  153.0624 H   0  0  0  0  0  0  0  0  0  0  0  0
  152.6638  137.6286  154.3566 H   0  0  0  0  0  0  0  0  0  0  0  0
  149.3136  136.5513  153.3315 H   0  0  0  0  0  0  0  0  0  0  0  0
  1  2  1  0  0  0  0
  1 21  1  0  0  0  0
  1 22  1  0  0  0  0
  1 23  1  0  0  0  0
  2  3  2  0  0  0  0
  2  4  1  0  0  0  0
  4 20  1  0  0  0  0
  4  5  1  0  0  0  0
  5  6  1  0  0  0  0
  5 24  1  0  0  0  0
  5 25  1  0  0  0  0
  6  7  1  0  0  0  0
  6 26  1  0  0  0  0
  6 27  1  0  0  0  0
  7  8  1  0  0  0  0
  7 19  1  0  0  0  0
  7 38  1  0  0  0  0
  8  9  1  0  0  0  0
  8 28  1  0  0  0  0
  8 29  1  0  0  0  0
  9 10  1  0  0  0  0
  9 30  1  0  0  0  0
  9 31  1  0  0  0  0
 10 11  1  0  0  0  0
 10 32  1  0  0  0  0
 11 12  2  0  0  0  0
 11 13  1  0  0  0  0
 13 14  1  0  0  0  0
 14 18  1  0  0  0  0
 14 15  2  0  0  0  0
 15 16  1  0  0  0  0
 16 17  2  0  0  0  0
 17 18  1  0  0  0  0
 17 33  1  0  0  0  0
 19 20  1  0  0  0  0
 19 34  1  0  0  0  0
 19 35  1  0  0  0  0
 20 36  1  0  0  0  0
 20 37  1  0  0  0  0
M  CHG  1   7   1
M  CHG  1  13  -1
M  END
> <s_m_source_file>
AV-unprocessed.smi

> <i_m_source_file_index>
1680

> <i_lp_mmshare_version>
43012

> <i_f3d_flags>
0

> <s_epik_input>
W0NIM11DKD1PKU4xW0NIMl1bQ0gyXU4oW0NIMl1bQ0gyXTEpW0NIMl1bQ0gyXVtOSF1DKD1PKVtOSF1jMm5uW2NIXXMy

> <s_epik_cmdline>
J2VwaWtfcHl0aG9uJywgJy1waCcsICc3LjAnLCAnLXRuJywgJzgnLCAnLW1hJywgJzIwMCcsICctbWV0YWxfYmluZGluZycsICctaW1hZScsICc8aW5maWxlLm1hZT4nLCAnLW9tYWUnLCAnPG91dGZpbGUubWFlPic=

> <r_lp_tautomer_probability>
1

> <r_epik_Ionization_Penalty>
3.68953

> <r_epik_Ionization_Penalty_Charging>
3.65812

> <r_epik_Ionization_Penalty_Neutral>
0.0314116

> <r_epik_State_Penalty>
3.68215

> <r_epik_Charging_Adjusted_Penalty>
7.34027

> <i_epik_Tot_Q>
0

> <i_epik_Tot_abs_Q>
2

> <r_epik_Metal_State_Penalty>
1.11495

> <b_epik_Metal_Only>
1

> <s_lp_Force_Field>
OPLS_2005

> <r_lp_Energy>
32.4697

> <b_lp_Chiralities_Consistent>
1

> <s_lp_Variant>
AV-unprocessed.smi:1680-4

> <Gold.Version>
5.8.1

> <Gold.Id.Protein>
6NUR|6NUR_protein|mol2

> <Gold.PLP.Fitness>
47.9639

> <Gold.PLP.PLP>
-34.7003

> <Gold.PLP.part.hbond>
-6.7537

> <Gold.PLP.part.metal>
0.0000

> <Gold.PLP.part.buried>
-1.7229

> <Gold.PLP.part.nonpolar>
-26.7835

> <Gold.PLP.part.repulsive>
0.0378

> <Gold.PLP.ligand.clash>
0.0000

> <Gold.PLP.ligand.torsion>
0.8939

> <Gold.PLP.Chemscore.Hbond>
5.0000

> <Gold.PLP.Chemscore.CHOScore>
0.0000

> <Gold.PLP.Chemscore.Metal>
0.0000

> <Gold.Chemscore.Hbonds>
donor molecule, donor type, donor heavy atom, donor atom, acceptor molecule, acceptor atom, score
      L1  H     7    38       P1  7948  1.95
      P1  H  6896  6909       L1    12  1.00
      P1  H  6934  6947       L1    15  0.29
      P1  H  7997  8009       L1     3  1.00

> <Gold.PLP.Chemscore.Internal.Correction>
0.0514

> <Gold.Rescore>
     Score         DG    S(hbond)    S(metal)    S(lipo)     H(rot)  DE(clash)    DE(int)     intcor
     18.56     -20.69       3.91        0.00      57.79       1.80       0.05       2.08       ----

> <Gold.Chemscore.Fitness>
18.5557

> <Gold.Chemscore.DG>
-20.6909

> <Gold.Chemscore.ZeroCoef>
-5.4800

> <Gold.Chemscore.Hbond>
3.9095

> <Gold.Chemscore.Metal>
0.0000

> <Gold.Chemscore.Lipo>
57.7930

> <Gold.Chemscore.Internal_Hbond>
0.0000

> <Gold.Chemscore.DEClash>
0.0530

> <Gold.Chemscore.DEInternal>
2.0821

> <Gold.Chemscore.Rot>
1.8003

> <Gold.Chemscore.Internal.Correction>
   9.000000E+99

> <Gold.Chemscore.Hbonds>
donor molecule, donor type, donor heavy atom, donor atom, acceptor molecule, acceptor atom, score
      L1  H     7    38       P1  7948  0.84
      P1  H  6896  6909       L1    12  1.00
      P1  H  6934  6947       L1    15  0.19
      P1  H  7997  8009       L1     3  1.00

> <Gold.Chemscore.Hbond.Weighted>
-13.0579

> <Gold.Chemscore.Metal.Weighted>
-0.0000

> <Gold.Chemscore.Lipo.Weighted>
-6.7618

> <Gold.Chemscore.Internal_Hbond.Weighted>
0.0000

> <Gold.Chemscore.DEClash.Weighted>
0.0530

> <Gold.Chemscore.DEInternal.Weighted>
2.0821

> <Gold.Chemscore.Rot.Weighted>
4.6088

> <Gold.Chemscore.Internal.Correction.Weighted>
   9.000000E+99

> <Gold.Protein.RotatedTorsions>
[ 6907 6896 6895 6894 ] final   26.85 input  -60.11 | X-H torsion
[ 7974 7965 7964 7962 ] final  -71.32 input  175.53 | X-H torsion
[ 8008 7997 7996 7995 ] final -160.28 input   59.86 | X-H torsion
[ 10167 10162 10161 10158 ] final   81.63 input  -65.29 | X-H torsion
[ 10718 10713 10712 10709 ] final   53.30 input   66.30 | X-H torsion
[ 10763 10752 10751 10750 ] final   94.16 input  -60.55 | X-H torsion
[ 11005 11000 10999 10996 ] final  179.51 input  -57.11 | X-H torsion

> <Gold.Protein.ActiveResidues>
 VAL166  LYS551  ARG553  GLY616  TRP617  ASP618  TYR619  PRO620  LYS621  CYS622 
 ASP623  PHE694  ASN695  SER759  ASP760  ASP761  ALA762  ILE779  LEU786  VAL792 
 PHE793  MET794  SER795  GLU796  ALA797  LYS798  CYS799  TRP800  GLU811  SER814 

> <Gold.Protein.RotatedAtoms>
  151.9936  134.9966  160.0562 H   0  0  0  0  0  0  0  0  0  0  0  0  # atno 6907 bound_to 6896
  152.1585  133.4562  159.4857 H   0  0  0  0  0  0  0  0  0  0  0  0  # atno 6908 bound_to 6896
  150.6884  134.2019  159.4368 H   0  0  0  0  0  0  0  0  0  0  0  0  # atno 6909 bound_to 6896
  145.6796  140.9192  143.0839 H   0  0  0  0  0  0  0  0  0  0  0  0  # atno 7974 bound_to 7965
  155.7751  140.0857  157.2088 H   0  0  0  0  0  0  0  0  0  0  0  0  # atno 8008 bound_to 7997
  154.3993  140.1518  156.3044 H   0  0  0  0  0  0  0  0  0  0  0  0  # atno 8009 bound_to 7997
  155.8709  140.3425  155.5823 H   0  0  0  0  0  0  0  0  0  0  0  0  # atno 8010 bound_to 7997
  139.9373  144.6113  150.8286 H   0  0  0  0  0  0  0  0  0  0  0  0  # atno 10167 bound_to 10162
  157.5154  130.8529  149.8489 H   0  0  0  0  0  0  0  0  0  0  0  0  # atno 10718 bound_to 10713
  153.2385  135.4299  155.0672 H   0  0  0  0  0  0  0  0  0  0  0  0  # atno 10763 bound_to 10752
  154.8330  135.3397  154.6683 H   0  0  0  0  0  0  0  0  0  0  0  0  # atno 10764 bound_to 10752
  153.7108  135.7023  153.5094 H   0  0  0  0  0  0  0  0  0  0  0  0  # atno 10765 bound_to 10752
  140.4070  134.6726  157.4593 H   0  0  0  0  0  0  0  0  0  0  0  0  # atno 11005 bound_to 11000
  144.7030  139.8679  143.7438 LP  0  0  0  0  0  0  0  0  0  0  0  0  # atno 17320 bound_to 7965
  146.0975  139.3969  143.0367 LP  0  0  0  0  0  0  0  0  0  0  0  0  # atno 17321 bound_to 7965
  140.7621  143.3190  151.2666 LP  0  0  0  0  0  0  0  0  0  0  0  0  # atno 17342 bound_to 10162
  139.6733  143.9981  152.2766 LP  0  0  0  0  0  0  0  0  0  0  0  0  # atno 17343 bound_to 10162
  156.0317  130.3763  150.1670 LP  0  0  0  0  0  0  0  0  0  0  0  0  # atno 17370 bound_to 10713
  156.9859  130.9878  151.3426 LP  0  0  0  0  0  0  0  0  0  0  0  0  # atno 17371 bound_to 10713
  140.0295  134.6427  155.9126 LP  0  0  0  0  0  0  0  0  0  0  0  0  # atno 17394 bound_to 11000
  141.1836  133.6551  156.5121 LP  0  0  0  0  0  0  0  0  0  0  0  0  # atno 17395 bound_to 11000

$$$$
