AV-unprocessed.smi:1978|AV-procd|sdf|8003|dock3
  -GOLD-   2272010193D 1   1.00000     0.00000
 Structure written by MMmdl.
 44 45  0  0  0  0  0  0  0  0  3 V2000
  151.9343  140.1183  158.6893 C   0  0  0  0  0  0  0  0  0  0  0  0
  151.4382  140.1663  157.2846 C   0  0  0  0  0  0  0  0  0  0  0  0
  150.2050  140.3972  156.7441 C   0  0  0  0  0  0  0  0  0  0  0  0
  150.4382  140.2919  155.3455 C   0  0  0  0  0  0  0  0  0  0  0  0
  149.5244  140.4542  154.3761 N   0  5  0  0  0  0  0  0  0  0  0  0
  148.3564  139.7737  154.4194 C   0  0  0  0  0  0  0  0  0  0  0  0
  147.7703  139.3890  155.4338 O   0  0  0  0  0  0  0  0  0  0  0  0
  147.8392  139.5223  153.2089 N   0  0  0  0  0  0  0  0  0  0  0  0
  146.6139  138.7779  152.9343 C   0  0  0  0  0  0  0  0  0  0  0  0
  146.5765  137.4536  153.7303 C   0  0  1  0  0  0  0  0  0  0  0  0
  145.5277  137.4742  154.8642 C   0  0  0  0  0  0  0  0  0  0  0  0
  146.4277  136.2673  152.8246 N   0  3  2  0  0  0  0  0  0  0  0  0
  145.2836  136.3750  151.8704 C   0  0  0  0  0  0  0  0  0  0  0  0
  145.3389  135.2781  150.7975 C   0  0  0  0  0  0  0  0  0  0  0  0
  145.3440  133.8923  151.4452 C   0  0  0  0  0  0  0  0  0  0  0  0
  146.5006  133.7970  152.4450 C   0  0  0  0  0  0  0  0  0  0  0  0
  146.4473  134.9251  153.4991 C   0  0  1  0  0  0  0  0  0  0  0  0
  147.6183  134.7398  154.4860 C   0  0  0  0  0  0  0  0  0  0  0  0
  151.7040  140.0347  155.0621 N   0  0  0  0  0  0  0  0  0  0  0  0
  152.3512  139.9472  156.3005 O   0  0  0  0  0  0  0  0  0  0  0  0
  151.8835  141.1055  159.1489 H   0  0  0  0  0  0  0  0  0  0  0  0
  152.9698  139.7794  158.7303 H   0  0  0  0  0  0  0  0  0  0  0  0
  151.3321  139.4346  159.2876 H   0  0  0  0  0  0  0  0  0  0  0  0
  149.2823  140.6044  157.2648 H   0  0  0  0  0  0  0  0  0  0  0  0
  148.3548  139.8643  152.4111 H   0  0  0  0  0  0  0  0  0  0  0  0
  145.7528  139.3982  153.1794 H   0  0  0  0  0  0  0  0  0  0  0  0
  146.5679  138.5776  151.8632 H   0  0  0  0  0  0  0  0  0  0  0  0
  147.5564  137.4035  154.1992 H   0  0  0  0  0  0  0  0  0  0  0  0
  145.7408  138.2655  155.5833 H   0  0  0  0  0  0  0  0  0  0  0  0
  145.5160  136.5390  155.4232 H   0  0  0  0  0  0  0  0  0  0  0  0
  144.5221  137.6518  154.4828 H   0  0  0  0  0  0  0  0  0  0  0  0
  144.3398  136.3051  152.4125 H   0  0  0  0  0  0  0  0  0  0  0  0
  145.2799  137.3364  151.3616 H   0  0  0  0  0  0  0  0  0  0  0  0
  144.4852  135.3705  150.1253 H   0  0  0  0  0  0  0  0  0  0  0  0
  146.2323  135.4054  150.1844 H   0  0  0  0  0  0  0  0  0  0  0  0
  144.3960  133.7164  151.9554 H   0  0  0  0  0  0  0  0  0  0  0  0
  145.4386  133.1186  150.6827 H   0  0  0  0  0  0  0  0  0  0  0  0
  146.4695  132.8228  152.9349 H   0  0  0  0  0  0  0  0  0  0  0  0
  147.4489  133.8396  151.9073 H   0  0  0  0  0  0  0  0  0  0  0  0
  145.5190  134.8119  154.0606 H   0  0  0  0  0  0  0  0  0  0  0  0
  147.6822  133.7051  154.8240 H   0  0  0  0  0  0  0  0  0  0  0  0
  147.4965  135.3427  155.3856 H   0  0  0  0  0  0  0  0  0  0  0  0
  148.5735  134.9936  154.0252 H   0  0  0  0  0  0  0  0  0  0  0  0
  147.2596  136.2823  152.2519 H   0  0  0  0  0  0  0  0  0  0  0  0
  1  2  1  0  0  0  0
  1 21  1  0  0  0  0
  1 22  1  0  0  0  0
  1 23  1  0  0  0  0
  2 20  1  0  0  0  0
  2  3  2  0  0  0  0
  3  4  1  0  0  0  0
  3 24  1  0  0  0  0
  4  5  1  0  0  0  0
  4 19  2  0  0  0  0
  5  6  1  0  0  0  0
  6  7  2  0  0  0  0
  6  8  1  0  0  0  0
  8  9  1  0  0  0  0
  8 25  1  0  0  0  0
  9 10  1  0  0  0  0
  9 26  1  0  0  0  0
  9 27  1  0  0  0  0
 10 11  1  0  0  0  0
 10 12  1  0  0  0  0
 10 28  1  0  0  0  0
 11 29  1  0  0  0  0
 11 30  1  0  0  0  0
 11 31  1  0  0  0  0
 12 17  1  0  0  0  0
 12 13  1  0  0  0  0
 12 44  1  0  0  0  0
 13 14  1  0  0  0  0
 13 32  1  0  0  0  0
 13 33  1  0  0  0  0
 14 15  1  0  0  0  0
 14 34  1  0  0  0  0
 14 35  1  0  0  0  0
 15 16  1  0  0  0  0
 15 36  1  0  0  0  0
 15 37  1  0  0  0  0
 16 17  1  0  0  0  0
 16 38  1  0  0  0  0
 16 39  1  0  0  0  0
 17 18  1  0  0  0  0
 17 40  1  0  0  0  0
 18 41  1  0  0  0  0
 18 42  1  0  0  0  0
 18 43  1  0  0  0  0
 19 20  1  0  0  0  0
M  CHG  1   5  -1
M  CHG  1  12   1
M  END
> <s_m_source_file>
AV-unprocessed.smi

> <i_m_source_file_index>
1978

> <i_lp_mmshare_version>
43012

> <i_f3d_flags>
0

> <s_epik_input>
W0NIM11jMVtjSF1jKG5vMSlbTkhdQyg9TylbTkhdW0NIMl1bQ0BIXShbQ0gzXSlOMltDSDJdW0NIMl1bQ0gyXVtDSDJdW0NASF0yW0NIM10=

> <s_epik_cmdline>
J2VwaWtfcHl0aG9uJywgJy1waCcsICc3LjAnLCAnLXRuJywgJzgnLCAnLW1hJywgJzIwMCcsICctbWV0YWxfYmluZGluZycsICctaW1hZScsICc8aW5maWxlLm1hZT4nLCAnLW9tYWUnLCAnPG91dGZpbGUubWFlPic=

> <r_epik_Ionization_Penalty>
6.22372

> <r_epik_Ionization_Penalty_Charging>
6.22362

> <r_epik_Ionization_Penalty_Neutral>
9.65074e-05

> <r_epik_State_Penalty>
6.22363

> <r_epik_Charging_Adjusted_Penalty>
12.4472

> <i_epik_Tot_Q>
0

> <i_epik_Tot_abs_Q>
2

> <r_epik_Metal_State_Penalty>
2.16675

> <b_epik_Metal_Only>
1

> <s_lp_Force_Field>
OPLS_2005

> <r_lp_Energy>
13.2836

> <b_lp_Chiralities_Consistent>
1

> <s_lp_Variant>
AV-unprocessed.smi:1978-12

> <Gold.Version>
5.8.1

> <Gold.Id.Protein>
6NUR|6NUR_protein|mol2

> <Gold.PLP.Fitness>
38.9814

> <Gold.PLP.PLP>
-27.9357

> <Gold.PLP.part.hbond>
-4.8350

> <Gold.PLP.part.metal>
0.0000

> <Gold.PLP.part.buried>
-3.8765

> <Gold.PLP.part.nonpolar>
-19.5150

> <Gold.PLP.part.repulsive>
0.2578

> <Gold.PLP.ligand.clash>
0.0000

> <Gold.PLP.ligand.torsion>
1.5010

> <Gold.PLP.Chemscore.Hbond>
4.6344

> <Gold.PLP.Chemscore.CHOScore>
0.0000

> <Gold.PLP.Chemscore.Metal>
0.0000

> <Gold.Chemscore.Hbonds>
donor molecule, donor type, donor heavy atom, donor atom, acceptor molecule, acceptor atom, score
      L1  H     8    25       P1  7957  1.00
      L1  H    12    44       P1  7948  2.00
      P1  H  7989  7998       L1    19  0.69
      P1  H  7997  8010       L1    20  1.00

> <Gold.PLP.Chemscore.Internal.Correction>
0.1446

> <Gold.Rescore>
     Score         DG    S(hbond)    S(metal)    S(lipo)     H(rot)  DE(clash)    DE(int)     intcor
     14.10     -19.31       3.53        0.00      50.58       1.52       0.02       5.20       ----

> <Gold.Chemscore.Fitness>
14.0966

> <Gold.Chemscore.DG>
-19.3086

> <Gold.Chemscore.ZeroCoef>
-5.4800

> <Gold.Chemscore.Hbond>
3.5329

> <Gold.Chemscore.Metal>
0.0000

> <Gold.Chemscore.Lipo>
50.5751

> <Gold.Chemscore.Internal_Hbond>
0.0000

> <Gold.Chemscore.DEClash>
0.0166

> <Gold.Chemscore.DEInternal>
5.1953

> <Gold.Chemscore.Rot>
1.5190

> <Gold.Chemscore.Internal.Correction>
   9.000000E+99

> <Gold.Chemscore.Hbonds>
donor molecule, donor type, donor heavy atom, donor atom, acceptor molecule, acceptor atom, score
      L1  H     8    25       P1  7957  1.00
      L1  H    12    44       P1  7948  1.00
      P1  H  7989  7998       L1    19  0.07
      P1  H  7997  8010       L1    20  0.93

> <Gold.Chemscore.Hbond.Weighted>
-11.7999

> <Gold.Chemscore.Metal.Weighted>
-0.0000

> <Gold.Chemscore.Lipo.Weighted>
-5.9173

> <Gold.Chemscore.Internal_Hbond.Weighted>
0.0000

> <Gold.Chemscore.DEClash.Weighted>
0.0166

> <Gold.Chemscore.DEInternal.Weighted>
5.1953

> <Gold.Chemscore.Rot.Weighted>
3.8886

> <Gold.Chemscore.Internal.Correction.Weighted>
   9.000000E+99

> <Gold.Protein.RotatedTorsions>
[ 6907 6896 6895 6894 ] final -148.63 input  -60.11 | X-H torsion
[ 7974 7965 7964 7962 ] final -112.53 input  175.53 | X-H torsion
[ 8008 7997 7996 7995 ] final   78.50 input   59.86 | X-H torsion
[ 10167 10162 10161 10158 ] final  -39.72 input  -65.29 | X-H torsion
[ 10718 10713 10712 10709 ] final  -84.35 input   66.30 | X-H torsion
[ 10763 10752 10751 10750 ] final  -88.13 input  -60.55 | X-H torsion
[ 11005 11000 10999 10996 ] final  152.28 input  -57.11 | X-H torsion

> <Gold.Protein.ActiveResidues>
 VAL166  LYS551  ARG553  GLY616  TRP617  ASP618  TYR619  PRO620  LYS621  CYS622 
 ASP623  PHE694  ASN695  SER759  ASP760  ASP761  ALA762  ILE779  LEU786  VAL792 
 PHE793  MET794  SER795  GLU796  ALA797  LYS798  CYS799  TRP800  GLU811  SER814 

> <Gold.Protein.RotatedAtoms>
  151.1726  133.4775  159.2593 H   0  0  0  0  0  0  0  0  0  0  0  0  # atno 6907 bound_to 6896
  151.1341  135.0145  159.8606 H   0  0  0  0  0  0  0  0  0  0  0  0  # atno 6908 bound_to 6896
  152.5461  134.1626  159.8617 H   0  0  0  0  0  0  0  0  0  0  0  0  # atno 6909 bound_to 6896
  145.1429  140.8787  143.3691 H   0  0  0  0  0  0  0  0  0  0  0  0  # atno 7974 bound_to 7965
  155.8566  140.3455  155.5729 H   0  0  0  0  0  0  0  0  0  0  0  0  # atno 8008 bound_to 7997
  155.7979  140.0881  157.1993 H   0  0  0  0  0  0  0  0  0  0  0  0  # atno 8009 bound_to 7997
  154.4010  140.1471  156.3227 H   0  0  0  0  0  0  0  0  0  0  0  0  # atno 8010 bound_to 7997
  140.7056  143.3197  151.2823 H   0  0  0  0  0  0  0  0  0  0  0  0  # atno 10167 bound_to 10162
  156.0007  130.4695  150.4396 H   0  0  0  0  0  0  0  0  0  0  0  0  # atno 10718 bound_to 10713
  154.6412  135.5388  153.7791 H   0  0  0  0  0  0  0  0  0  0  0  0  # atno 10763 bound_to 10752
  153.0335  135.6459  154.1157 H   0  0  0  0  0  0  0  0  0  0  0  0  # atno 10764 bound_to 10752
  154.1081  135.2928  155.3216 H   0  0  0  0  0  0  0  0  0  0  0  0  # atno 10765 bound_to 10752
  140.1293  134.8812  157.2182 H   0  0  0  0  0  0  0  0  0  0  0  0  # atno 11005 bound_to 11000
  145.0513  139.3179  143.5927 LP  0  0  0  0  0  0  0  0  0  0  0  0  # atno 17320 bound_to 7965
  146.3503  139.9922  142.8684 LP  0  0  0  0  0  0  0  0  0  0  0  0  # atno 17321 bound_to 7965
  139.6647  144.0127  152.2715 LP  0  0  0  0  0  0  0  0  0  0  0  0  # atno 17342 bound_to 10162
  139.9706  144.6496  150.7993 LP  0  0  0  0  0  0  0  0  0  0  0  0  # atno 17343 bound_to 10162
  157.2439  131.0531  151.2420 LP  0  0  0  0  0  0  0  0  0  0  0  0  # atno 17370 bound_to 10713
  157.3594  130.7123  149.6492 LP  0  0  0  0  0  0  0  0  0  0  0  0  # atno 17371 bound_to 10713
  140.2862  134.3292  155.7328 LP  0  0  0  0  0  0  0  0  0  0  0  0  # atno 17394 bound_to 11000
  141.2167  133.7508  156.9437 LP  0  0  0  0  0  0  0  0  0  0  0  0  # atno 17395 bound_to 11000

$$$$
