AV-unprocessed.smi:1046|AV-procd|sdf|4548|dock7
  -GOLD-   22720 2573D 1   1.00000     0.00000
 Structure written by MMmdl.
 53 55  0  0  0  0  0  0  0  0  2 V2000
  153.2979  142.3941  161.6682 C   0  0  0  0  0  0  0  0  0  0  0  0
  152.6380  142.1593  160.3209 C   0  0  0  0  0  0  0  0  0  0  0  0
  153.0080  141.0252  159.5635 C   0  0  0  0  0  0  0  0  0  0  0  0
  152.4198  140.7716  158.3053 C   0  0  0  0  0  0  0  0  0  0  0  0
  152.6306  139.7403  157.4063 N   0  0  0  0  0  0  0  0  0  0  0  0
  151.7904  140.0619  156.4275 C   0  0  0  0  0  0  0  0  0  0  0  0
  151.0593  141.1821  156.5851 N   0  0  0  0  0  0  0  0  0  0  0  0
  150.0883  141.7271  155.6534 C   0  0  0  0  0  0  0  0  0  0  0  0
  149.4062  140.6334  154.8094 C   0  0  2  0  0  0  0  0  0  0  0  0
  150.3022  140.1812  153.8115 O   0  0  0  0  0  0  0  0  0  0  0  0
  148.1234  141.1514  154.1298 C   0  0  0  0  0  0  0  0  0  0  0  0
  147.2713  141.9521  155.0459 N   0  3  0  0  0  0  0  0  0  0  0  0
  146.9904  141.2443  156.3216 C   0  0  0  0  0  0  0  0  0  0  0  0
  146.1689  142.1443  157.2675 C   0  0  0  0  0  0  0  0  0  0  0  0
  144.9119  142.6063  156.6791 N   0  0  0  0  0  0  0  0  0  0  0  0
  143.9130  141.5388  156.5638 C   0  0  0  0  0  0  0  0  0  0  0  0
  142.5148  142.0050  156.1275 C   0  0  0  0  0  0  0  0  0  0  0  0
  142.1385  141.3197  154.9534 O   0  0  0  0  0  0  0  0  0  0  0  0
  145.2131  143.2965  155.4225 C   0  0  0  0  0  0  0  0  0  0  0  0
  146.0073  142.4303  154.4236 C   0  0  0  0  0  0  0  0  0  0  0  0
  151.4421  141.6900  157.8221 C   0  0  0  0  0  0  0  0  0  0  0  0
  151.0647  142.8212  158.5670 C   0  0  0  0  0  0  0  0  0  0  0  0
  151.6630  143.0600  159.8220 C   0  0  0  0  0  0  0  0  0  0  0  0
  151.2503  144.2848  160.6186 C   0  0  0  0  0  0  0  0  0  0  0  0
  154.0452  141.6300  161.8841 H   0  0  0  0  0  0  0  0  0  0  0  0
  152.5554  142.3713  162.4659 H   0  0  0  0  0  0  0  0  0  0  0  0
  153.7968  143.3632  161.6866 H   0  0  0  0  0  0  0  0  0  0  0  0
  153.7501  140.3385  159.9433 H   0  0  0  0  0  0  0  0  0  0  0  0
  151.7028  139.4495  155.5420 H   0  0  0  0  0  0  0  0  0  0  0  0
  149.3422  142.2784  156.2273 H   0  0  0  0  0  0  0  0  0  0  0  0
  150.5865  142.4556  155.0123 H   0  0  0  0  0  0  0  0  0  0  0  0
  149.1756  139.7925  155.4625 H   0  0  0  0  0  0  0  0  0  0  0  0
  149.8127  139.9945  153.0246 H   0  0  0  0  0  0  0  0  0  0  0  0
  148.3701  141.7543  153.2543 H   0  0  0  0  0  0  0  0  0  0  0  0
  147.5590  140.2947  153.7575 H   0  0  0  0  0  0  0  0  0  0  0  0
  146.4677  140.3081  156.1209 H   0  0  0  0  0  0  0  0  0  0  0  0
  147.9309  140.9806  156.8067 H   0  0  0  0  0  0  0  0  0  0  0  0
  145.9699  141.6165  158.2008 H   0  0  0  0  0  0  0  0  0  0  0  0
  146.7722  143.0108  157.5414 H   0  0  0  0  0  0  0  0  0  0  0  0
  144.2601  140.7595  155.8860 H   0  0  0  0  0  0  0  0  0  0  0  0
  143.8088  141.0578  157.5373 H   0  0  0  0  0  0  0  0  0  0  0  0
  141.7800  141.8043  156.9077 H   0  0  0  0  0  0  0  0  0  0  0  0
  142.4942  143.0745  155.9203 H   0  0  0  0  0  0  0  0  0  0  0  0
  142.5396  141.7486  154.2128 H   0  0  0  0  0  0  0  0  0  0  0  0
  144.2980  143.6590  154.9562 H   0  0  0  0  0  0  0  0  0  0  0  0
  145.7951  144.1919  155.6451 H   0  0  0  0  0  0  0  0  0  0  0  0
  146.2243  143.0287  153.5400 H   0  0  0  0  0  0  0  0  0  0  0  0
  145.4112  141.5819  154.0854 H   0  0  0  0  0  0  0  0  0  0  0  0
  150.3218  143.5001  158.1761 H   0  0  0  0  0  0  0  0  0  0  0  0
  150.4808  144.8568  160.0993 H   0  0  0  0  0  0  0  0  0  0  0  0
  152.1057  144.9417  160.7778 H   0  0  0  0  0  0  0  0  0  0  0  0
  150.8509  143.9929  161.5902 H   0  0  0  0  0  0  0  0  0  0  0  0
  147.8073  142.7723  155.2923 H   0  0  0  0  0  0  0  0  0  0  0  0
  1  2  1  0  0  0  0
  1 25  1  0  0  0  0
  1 26  1  0  0  0  0
  1 27  1  0  0  0  0
  2 23  1  0  0  0  0
  2  3  2  0  0  0  0
  3  4  1  0  0  0  0
  3 28  1  0  0  0  0
  4 21  2  0  0  0  0
  4  5  1  0  0  0  0
  5  6  2  0  0  0  0
  6  7  1  0  0  0  0
  6 29  1  0  0  0  0
  7  8  1  0  0  0  0
  7 21  1  0  0  0  0
  8  9  1  0  0  0  0
  8 30  1  0  0  0  0
  8 31  1  0  0  0  0
  9 10  1  0  0  0  0
  9 11  1  0  0  0  0
  9 32  1  0  0  0  0
 10 33  1  0  0  0  0
 11 12  1  0  0  0  0
 11 34  1  0  0  0  0
 11 35  1  0  0  0  0
 12 20  1  0  0  0  0
 12 13  1  0  0  0  0
 12 53  1  0  0  0  0
 13 14  1  0  0  0  0
 13 36  1  0  0  0  0
 13 37  1  0  0  0  0
 14 15  1  0  0  0  0
 14 38  1  0  0  0  0
 14 39  1  0  0  0  0
 15 16  1  0  0  0  0
 15 19  1  0  0  0  0
 16 17  1  0  0  0  0
 16 40  1  0  0  0  0
 16 41  1  0  0  0  0
 17 18  1  0  0  0  0
 17 42  1  0  0  0  0
 17 43  1  0  0  0  0
 18 44  1  0  0  0  0
 19 20  1  0  0  0  0
 19 45  1  0  0  0  0
 19 46  1  0  0  0  0
 20 47  1  0  0  0  0
 20 48  1  0  0  0  0
 21 22  1  0  0  0  0
 22 23  2  0  0  0  0
 22 49  1  0  0  0  0
 23 24  1  0  0  0  0
 24 50  1  0  0  0  0
 24 51  1  0  0  0  0
 24 52  1  0  0  0  0
M  CHG  1  12   1
M  END
> <s_m_source_file>
AV-unprocessed.smi

> <i_m_source_file_index>
1046

> <i_lp_mmshare_version>
43012

> <i_f3d_flags>
0

> <s_epik_input>
W0NIM11jKFtjSF0xKWMoW0NIM10pW2NIXWMoYzEyKW4oW2NIXW4yKVtDSDJdW0NASF0oW09IXSlbQ0gyXU4zW0NIMl1bQ0gyXU4oW0NIMl1bQ0gyXTMpW0NIMl1bQ0gyXVtPSF0=

> <s_epik_cmdline>
J2VwaWtfcHl0aG9uJywgJy1waCcsICc3LjAnLCAnLXRuJywgJzgnLCAnLW1hJywgJzIwMCcsICctbWV0YWxfYmluZGluZycsICctaW1hZScsICc8aW5maWxlLm1hZT4nLCAnLW9tYWUnLCAnPG91dGZpbGUubWFlPic=

> <r_epik_Ionization_Penalty>
0.131947

> <r_epik_Ionization_Penalty_Charging>
0.00213896

> <r_epik_Ionization_Penalty_Neutral>
0.129808

> <r_epik_State_Penalty>
0.319681

> <r_epik_Charging_Adjusted_Penalty>
0.32182

> <i_epik_Tot_Q>
1

> <i_epik_Tot_abs_Q>
1

> <r_epik_Metal_State_Penalty>
0.225417

> <b_epik_Metal_Only>
0

> <s_lp_Force_Field>
OPLS_2005

> <r_lp_Energy>
31.2013

> <b_lp_Chiralities_Consistent>
1

> <s_lp_Variant>
AV-unprocessed.smi:1046-1

> <Gold.Version>
5.8.1

> <Gold.Id.Protein>
6NUR|6NUR_protein|mol2

> <Gold.PLP.Fitness>
63.5201

> <Gold.PLP.PLP>
-47.8215

> <Gold.PLP.part.hbond>
-5.5943

> <Gold.PLP.part.metal>
0.0000

> <Gold.PLP.part.buried>
-5.7037

> <Gold.PLP.part.nonpolar>
-36.5664

> <Gold.PLP.part.repulsive>
0.1783

> <Gold.PLP.ligand.clash>
0.0000

> <Gold.PLP.ligand.torsion>
1.0133

> <Gold.PLP.Chemscore.Hbond>
5.8323

> <Gold.PLP.Chemscore.CHOScore>
0.0000

> <Gold.PLP.Chemscore.Metal>
0.0000

> <Gold.Chemscore.Hbonds>
donor molecule, donor type, donor heavy atom, donor atom, acceptor molecule, acceptor atom, score
      L1  H    10    33       P1  7957  1.00
      L1  H    12    53       P1  8028  1.01
      L1  H    18    44       P1 10174  0.36
      P1  H  7989  7998       L1    10  0.83
      P1  H  7997  8008       L1     5  1.00

> <Gold.PLP.Chemscore.Internal.Correction>
0.2283

> <Gold.Rescore>
     Score         DG    S(hbond)    S(metal)    S(lipo)     H(rot)  DE(clash)    DE(int)     intcor
     19.54     -21.57       3.26        0.00     114.58       3.21       0.03       2.01       ----

> <Gold.Chemscore.Fitness>
19.5386

> <Gold.Chemscore.DG>
-21.5717

> <Gold.Chemscore.ZeroCoef>
-5.4800

> <Gold.Chemscore.Hbond>
3.2612

> <Gold.Chemscore.Metal>
0.0000

> <Gold.Chemscore.Lipo>
114.5814

> <Gold.Chemscore.Internal_Hbond>
0.0000

> <Gold.Chemscore.DEClash>
0.0255

> <Gold.Chemscore.DEInternal>
2.0076

> <Gold.Chemscore.Rot>
3.2058

> <Gold.Chemscore.Internal.Correction>
   9.000000E+99

> <Gold.Chemscore.Hbonds>
donor molecule, donor type, donor heavy atom, donor atom, acceptor molecule, acceptor atom, score
      L1  H    10    33       P1  7957  0.95
      L1  H    12    53       P1  8028  0.39
      L1  H    18    44       P1 10174  0.03
      P1  H  7989  7998       L1    10  0.57
      P1  H  7997  8008       L1     5  0.24

> <Gold.Chemscore.Hbond.Weighted>
-10.8924

> <Gold.Chemscore.Metal.Weighted>
-0.0000

> <Gold.Chemscore.Lipo.Weighted>
-13.4060

> <Gold.Chemscore.Internal_Hbond.Weighted>
0.0000

> <Gold.Chemscore.DEClash.Weighted>
0.0255

> <Gold.Chemscore.DEInternal.Weighted>
2.0076

> <Gold.Chemscore.Rot.Weighted>
8.2067

> <Gold.Chemscore.Internal.Correction.Weighted>
   9.000000E+99

> <Gold.Protein.RotatedTorsions>
[ 6907 6896 6895 6894 ] final  153.81 input  -60.11 | X-H torsion
[ 7974 7965 7964 7962 ] final  -84.19 input  175.53 | X-H torsion
[ 8008 7997 7996 7995 ] final  -72.39 input   59.86 | X-H torsion
[ 10167 10162 10161 10158 ] final -115.21 input  -65.29 | X-H torsion
[ 10718 10713 10712 10709 ] final -104.76 input   66.30 | X-H torsion
[ 10763 10752 10751 10750 ] final  156.25 input  -60.55 | X-H torsion
[ 11005 11000 10999 10996 ] final   57.57 input  -57.11 | X-H torsion

> <Gold.Protein.ActiveResidues>
 VAL166  LYS551  ARG553  GLY616  TRP617  ASP618  TYR619  PRO620  LYS621  CYS622 
 ASP623  PHE694  ASN695  SER759  ASP760  ASP761  ALA762  ILE779  LEU786  VAL792 
 PHE793  MET794  SER795  GLU796  ALA797  LYS798  CYS799  TRP800  GLU811  SER814 

> <Gold.Protein.RotatedAtoms>
  152.0674  133.4090  159.4444 H   0  0  0  0  0  0  0  0  0  0  0  0  # atno 6907 bound_to 6896
  150.6864  134.3131  159.4764 H   0  0  0  0  0  0  0  0  0  0  0  0  # atno 6908 bound_to 6896
  152.0958  134.9375  160.0621 H   0  0  0  0  0  0  0  0  0  0  0  0  # atno 6909 bound_to 6896
  145.5099  140.9541  143.1713 H   0  0  0  0  0  0  0  0  0  0  0  0  # atno 7974 bound_to 7965
  154.5162  140.0798  156.8086 H   0  0  0  0  0  0  0  0  0  0  0  0  # atno 8008 bound_to 7997
  155.3675  140.3421  155.4224 H   0  0  0  0  0  0  0  0  0  0  0  0  # atno 8009 bound_to 7997
  156.1630  140.1595  156.8566 H   0  0  0  0  0  0  0  0  0  0  0  0  # atno 8010 bound_to 7997
  140.0925  143.4686  152.1861 H   0  0  0  0  0  0  0  0  0  0  0  0  # atno 10167 bound_to 10162
  156.0318  130.5531  150.7443 H   0  0  0  0  0  0  0  0  0  0  0  0  # atno 10718 bound_to 10713
  154.1814  135.2799  155.3051 H   0  0  0  0  0  0  0  0  0  0  0  0  # atno 10763 bound_to 10752
  154.6000  135.5533  153.7367 H   0  0  0  0  0  0  0  0  0  0  0  0  # atno 10764 bound_to 10752
  153.0137  135.6389  154.1953 H   0  0  0  0  0  0  0  0  0  0  0  0  # atno 10765 bound_to 10752
  140.0442  134.5829  155.9343 H   0  0  0  0  0  0  0  0  0  0  0  0  # atno 11005 bound_to 11000
  144.7733  139.6686  143.7185 LP  0  0  0  0  0  0  0  0  0  0  0  0  # atno 17320 bound_to 7965
  146.2173  139.5572  142.9642 LP  0  0  0  0  0  0  0  0  0  0  0  0  # atno 17321 bound_to 7965
  139.5716  144.7466  151.3874 LP  0  0  0  0  0  0  0  0  0  0  0  0  # atno 17342 bound_to 10162
  140.7021  143.7606  150.7420 LP  0  0  0  0  0  0  0  0  0  0  0  0  # atno 17343 bound_to 10162
  157.5004  131.0918  151.0321 LP  0  0  0  0  0  0  0  0  0  0  0  0  # atno 17370 bound_to 10713
  157.0704  130.5862  149.5401 LP  0  0  0  0  0  0  0  0  0  0  0  0  # atno 17371 bound_to 10713
  141.1899  133.6566  156.5386 LP  0  0  0  0  0  0  0  0  0  0  0  0  # atno 17394 bound_to 11000
  140.4020  134.7348  157.4785 LP  0  0  0  0  0  0  0  0  0  0  0  0  # atno 17395 bound_to 11000

$$$$
