AV-unprocessed.smi:3337|AV-procd|sdf|12863|dock3
  -GOLD-   2272019263D 1   1.00000     0.00000
 Structure written by MMmdl.
 46 47  0  0  0  0  0  0  0  0  2 V2000
  152.0198  145.3477  159.9054 C   0  0  0  0  0  0  0  0  0  0  0  0
  151.9147  143.8160  159.9102 C   0  0  2  0  0  0  0  0  0  0  0  0
  153.0816  143.1740  160.6791 C   0  0  0  0  0  0  0  0  0  0  0  0
  152.9677  141.6407  160.6542 C   0  0  2  0  0  0  0  0  0  0  0  0
  154.1357  140.9778  161.3979 C   0  0  0  0  0  0  0  0  0  0  0  0
  152.8685  141.1376  159.2010 C   0  0  0  0  0  0  0  0  0  0  0  0
  151.7308  141.7695  158.4841 N   0  3  2  0  0  0  0  0  0  0  0  0
  151.5346  141.1959  157.1288 C   0  0  0  0  0  0  0  0  0  0  0  0
  150.7929  142.1616  156.1843 C   0  0  0  0  0  0  0  0  0  0  0  0
  149.4583  141.6735  155.8580 N   0  0  0  0  0  0  0  0  0  0  0  0
  149.1857  140.7638  154.9088 C   0  0  0  0  0  0  0  0  0  0  0  0
  150.0597  140.2294  154.2249 O   0  0  0  0  0  0  0  0  0  0  0  0
  147.7041  140.4102  154.7053 C   0  0  2  0  0  0  0  0  0  0  0  0
  147.4771  139.4846  153.4930 C   0  0  0  0  0  0  0  0  0  0  0  0
  146.9016  141.6245  154.6266 N   0  0  0  0  0  0  0  0  0  0  0  0
  146.8443  142.5545  153.6707 C   0  0  0  0  0  0  0  0  0  0  0  0
  145.9628  143.5160  153.9063 N   0  0  0  0  0  0  0  0  0  0  0  0
  145.4690  143.0841  155.1045 C   0  0  0  0  0  0  0  0  0  0  0  0
  145.9884  141.9505  155.5753 N   0  0  0  0  0  0  0  0  0  0  0  0
  151.8477  143.2521  158.4779 C   0  0  0  0  0  0  0  0  0  0  0  0
  152.9297  145.6819  159.4057 H   0  0  0  0  0  0  0  0  0  0  0  0
  152.0336  145.7440  160.9212 H   0  0  0  0  0  0  0  0  0  0  0  0
  151.1719  145.7982  159.3889 H   0  0  0  0  0  0  0  0  0  0  0  0
  150.9870  143.5529  160.4208 H   0  0  0  0  0  0  0  0  0  0  0  0
  154.0305  143.4821  160.2369 H   0  0  0  0  0  0  0  0  0  0  0  0
  153.0888  143.5306  161.7100 H   0  0  0  0  0  0  0  0  0  0  0  0
  152.0488  141.3616  161.1721 H   0  0  0  0  0  0  0  0  0  0  0  0
  155.0907  141.2093  160.9248 H   0  0  0  0  0  0  0  0  0  0  0  0
  154.0263  139.8930  161.4134 H   0  0  0  0  0  0  0  0  0  0  0  0
  154.1860  141.3174  162.4328 H   0  0  0  0  0  0  0  0  0  0  0  0
  153.7956  141.3420  158.6627 H   0  0  0  0  0  0  0  0  0  0  0  0
  152.7376  140.0546  159.2069 H   0  0  0  0  0  0  0  0  0  0  0  0
  152.5003  140.9003  156.7157 H   0  0  0  0  0  0  0  0  0  0  0  0
  150.9424  140.2826  157.2041 H   0  0  0  0  0  0  0  0  0  0  0  0
  150.6894  143.1375  156.6594 H   0  0  0  0  0  0  0  0  0  0  0  0
  151.3465  142.3253  155.2594 H   0  0  0  0  0  0  0  0  0  0  0  0
  148.6857  142.0666  156.3764 H   0  0  0  0  0  0  0  0  0  0  0  0
  147.3732  139.8648  155.5911 H   0  0  0  0  0  0  0  0  0  0  0  0
  148.0465  138.5600  153.5925 H   0  0  0  0  0  0  0  0  0  0  0  0
  147.7731  139.9552  152.5546 H   0  0  0  0  0  0  0  0  0  0  0  0
  146.4249  139.2119  153.4065 H   0  0  0  0  0  0  0  0  0  0  0  0
  147.4577  142.5261  152.7822 H   0  0  0  0  0  0  0  0  0  0  0  0
  144.6992  143.6177  155.6424 H   0  0  0  0  0  0  0  0  0  0  0  0
  150.9942  143.6933  157.9641 H   0  0  0  0  0  0  0  0  0  0  0  0
  152.7367  143.5437  157.9160 H   0  0  0  0  0  0  0  0  0  0  0  0
  150.9030  141.5401  159.0152 H   0  0  0  0  0  0  0  0  0  0  0  0
  1  2  1  0  0  0  0
  1 21  1  0  0  0  0
  1 22  1  0  0  0  0
  1 23  1  0  0  0  0
  2 20  1  0  0  0  0
  2  3  1  0  0  0  0
  2 24  1  0  0  0  0
  3  4  1  0  0  0  0
  3 25  1  0  0  0  0
  3 26  1  0  0  0  0
  4  5  1  0  0  0  0
  4  6  1  0  0  0  0
  4 27  1  0  0  0  0
  5 28  1  0  0  0  0
  5 29  1  0  0  0  0
  5 30  1  0  0  0  0
  6  7  1  0  0  0  0
  6 31  1  0  0  0  0
  6 32  1  0  0  0  0
  7  8  1  0  0  0  0
  7 20  1  0  0  0  0
  7 46  1  0  0  0  0
  8  9  1  0  0  0  0
  8 33  1  0  0  0  0
  8 34  1  0  0  0  0
  9 10  1  0  0  0  0
  9 35  1  0  0  0  0
  9 36  1  0  0  0  0
 10 11  1  0  0  0  0
 10 37  1  0  0  0  0
 11 12  2  0  0  0  0
 11 13  1  0  0  0  0
 13 14  1  0  0  0  0
 13 15  1  0  0  0  0
 13 38  1  0  0  0  0
 14 39  1  0  0  0  0
 14 40  1  0  0  0  0
 14 41  1  0  0  0  0
 15 19  1  0  0  0  0
 15 16  1  0  0  0  0
 16 17  2  0  0  0  0
 16 42  1  0  0  0  0
 17 18  1  0  0  0  0
 18 19  2  0  0  0  0
 18 43  1  0  0  0  0
 20 44  1  0  0  0  0
 20 45  1  0  0  0  0
M  CHG  1   7   1
M  END
> <s_m_source_file>
AV-unprocessed.smi

> <i_m_source_file_index>
3337

> <i_lp_mmshare_version>
43012

> <i_f3d_flags>
0

> <s_epik_input>
W0NIM11bQ0BASF0xW0NIMl1bQ0BASF0oW0NIM10pW0NIMl1OKFtDSDJdMSlbQ0gyXVtDSDJdW05IXUMoPU8pW0NASF0oW0NIM10pbjJbY0hdbltjSF1uMg==

> <s_epik_cmdline>
J2VwaWtfcHl0aG9uJywgJy1waCcsICc3LjAnLCAnLXRuJywgJzgnLCAnLW1hJywgJzIwMCcsICctbWV0YWxfYmluZGluZycsICctaW1hZScsICc8aW5maWxlLm1hZT4nLCAnLW9tYWUnLCAnPG91dGZpbGUubWFlPic=

> <r_lp_tautomer_probability>
1

> <r_epik_Ionization_Penalty>
0.00175613

> <r_epik_Ionization_Penalty_Charging>
0.00174812

> <r_epik_Ionization_Penalty_Neutral>
8.01354e-06

> <r_epik_State_Penalty>
0.00118332

> <r_epik_Charging_Adjusted_Penalty>
0.00293143

> <i_epik_Tot_Q>
1

> <i_epik_Tot_abs_Q>
1

> <r_epik_Metal_State_Penalty>
-0

> <b_epik_Metal_Only>
0

> <s_lp_Force_Field>
OPLS_2005

> <r_lp_Energy>
22.1479

> <b_lp_Chiralities_Consistent>
1

> <s_lp_Variant>
AV-unprocessed.smi:3337-3

> <Gold.Version>
5.8.1

> <Gold.Id.Protein>
6NUR|6NUR_protein|mol2

> <Gold.PLP.Fitness>
42.6576

> <Gold.PLP.PLP>
-42.2140

> <Gold.PLP.part.hbond>
-2.0000

> <Gold.PLP.part.metal>
0.0000

> <Gold.PLP.part.buried>
-6.5507

> <Gold.PLP.part.nonpolar>
-33.8628

> <Gold.PLP.part.repulsive>
1.0161

> <Gold.PLP.ligand.clash>
0.0008

> <Gold.PLP.ligand.torsion>
1.0822

> <Gold.PLP.Chemscore.Hbond>
0.8320

> <Gold.PLP.Chemscore.CHOScore>
0.0000

> <Gold.PLP.Chemscore.Metal>
0.0000

> <Gold.Chemscore.Hbonds>
donor molecule, donor type, donor heavy atom, donor atom, acceptor molecule, acceptor atom, score
      P1  H  7989  7998       L1    12  0.93

> <Gold.PLP.Chemscore.Internal.Correction>
0.1128

> <Gold.Rescore>
     Score         DG    S(hbond)    S(metal)    S(lipo)     H(rot)  DE(clash)    DE(int)     intcor
     12.75     -14.05       0.99        0.00     100.00       2.51       0.14       1.16       ----

> <Gold.Chemscore.Fitness>
12.7465

> <Gold.Chemscore.DG>
-14.0486

> <Gold.Chemscore.ZeroCoef>
-5.4800

> <Gold.Chemscore.Hbond>
0.9886

> <Gold.Chemscore.Metal>
0.0000

> <Gold.Chemscore.Lipo>
99.9982

> <Gold.Chemscore.Internal_Hbond>
0.0000

> <Gold.Chemscore.DEClash>
0.1432

> <Gold.Chemscore.DEInternal>
1.1589

> <Gold.Chemscore.Rot>
2.5129

> <Gold.Chemscore.Internal.Correction>
   9.000000E+99

> <Gold.Chemscore.Hbonds>
donor molecule, donor type, donor heavy atom, donor atom, acceptor molecule, acceptor atom, score
      P1  H  7989  7998       L1    12  0.91

> <Gold.Chemscore.Hbond.Weighted>
-3.3019

> <Gold.Chemscore.Metal.Weighted>
-0.0000

> <Gold.Chemscore.Lipo.Weighted>
-11.6998

> <Gold.Chemscore.Internal_Hbond.Weighted>
0.0000

> <Gold.Chemscore.DEClash.Weighted>
0.1432

> <Gold.Chemscore.DEInternal.Weighted>
1.1589

> <Gold.Chemscore.Rot.Weighted>
6.4331

> <Gold.Chemscore.Internal.Correction.Weighted>
   9.000000E+99

> <Gold.Protein.RotatedTorsions>
[ 6907 6896 6895 6894 ] final  -40.50 input  -60.11 | X-H torsion
[ 7974 7965 7964 7962 ] final  -15.82 input  175.53 | X-H torsion
[ 8008 7997 7996 7995 ] final  -19.87 input   59.86 | X-H torsion
[ 10167 10162 10161 10158 ] final -177.60 input  -65.29 | X-H torsion
[ 10718 10713 10712 10709 ] final  121.85 input   66.30 | X-H torsion
[ 10763 10752 10751 10750 ] final   52.37 input  -60.55 | X-H torsion
[ 11005 11000 10999 10996 ] final  164.91 input  -57.11 | X-H torsion

> <Gold.Protein.ActiveResidues>
 VAL166  LYS551  ARG553  GLY616  TRP617  ASP618  TYR619  PRO620  LYS621  CYS622 
 ASP623  PHE694  ASN695  SER759  ASP760  ASP761  ALA762  ILE779  LEU786  VAL792 
 PHE793  MET794  SER795  GLU796  ALA797  LYS798  CYS799  TRP800  GLU811  SER814 

> <Gold.Protein.RotatedAtoms>
  150.9777  134.9138  159.7825 H   0  0  0  0  0  0  0  0  0  0  0  0  # atno 6907 bound_to 6896
  152.5211  134.3453  159.9242 H   0  0  0  0  0  0  0  0  0  0  0  0  # atno 6908 bound_to 6896
  151.3461  133.3902  159.2710 H   0  0  0  0  0  0  0  0  0  0  0  0  # atno 6909 bound_to 6896
  146.2015  140.3548  142.8422 H   0  0  0  0  0  0  0  0  0  0  0  0  # atno 7974 bound_to 7965
  154.4808  140.2077  155.9769 H   0  0  0  0  0  0  0  0  0  0  0  0  # atno 8008 bound_to 7997
  156.1161  140.3221  155.8111 H   0  0  0  0  0  0  0  0  0  0  0  0  # atno 8009 bound_to 7997
  155.4550  140.0520  157.2988 H   0  0  0  0  0  0  0  0  0  0  0  0  # atno 8010 bound_to 7997
  139.5472  144.2203  152.1011 H   0  0  0  0  0  0  0  0  0  0  0  0  # atno 10167 bound_to 10162
  157.5787  131.1077  150.8230 H   0  0  0  0  0  0  0  0  0  0  0  0  # atno 10718 bound_to 10713
  152.9788  135.5815  154.4567 H   0  0  0  0  0  0  0  0  0  0  0  0  # atno 10763 bound_to 10752
  154.4149  135.2770  155.2015 H   0  0  0  0  0  0  0  0  0  0  0  0  # atno 10764 bound_to 10752
  154.3789  135.6151  153.5834 H   0  0  0  0  0  0  0  0  0  0  0  0  # atno 10765 bound_to 10752
  140.2507  134.7979  157.3499 H   0  0  0  0  0  0  0  0  0  0  0  0  # atno 11005 bound_to 11000
  144.8694  140.7252  143.6056 LP  0  0  0  0  0  0  0  0  0  0  0  0  # atno 17320 bound_to 7965
  145.3467  139.1717  143.4456 LP  0  0  0  0  0  0  0  0  0  0  0  0  # atno 17321 bound_to 7965
  140.1692  144.4952  150.6589 LP  0  0  0  0  0  0  0  0  0  0  0  0  # atno 17342 bound_to 10162
  140.6724  143.2291  151.5591 LP  0  0  0  0  0  0  0  0  0  0  0  0  # atno 17343 bound_to 10162
  156.8682  130.5137  149.5298 LP  0  0  0  0  0  0  0  0  0  0  0  0  # atno 17370 bound_to 10713
  156.0832  130.5837  150.9600 LP  0  0  0  0  0  0  0  0  0  0  0  0  # atno 17371 bound_to 10713
  140.1560  134.4788  155.7927 LP  0  0  0  0  0  0  0  0  0  0  0  0  # atno 17394 bound_to 11000
  141.2201  133.6882  156.7462 LP  0  0  0  0  0  0  0  0  0  0  0  0  # atno 17395 bound_to 11000

$$$$
