AV-unprocessed.smi:1558|AV-procd|sdf|6272|dock6
  -GOLD-   22720 6463D 1   1.00000     0.00000
 Structure written by MMmdl.
 36 37  0  0  0  0  0  0  0  0  1 V2000
  143.0540  132.9096  150.9132 N   0  0  0  0  0  0  0  0  0  0  0  0
  143.6840  132.1552  150.0088 C   0  0  0  0  0  0  0  0  0  0  0  0
  143.5415  132.3225  148.7994 O   0  0  0  0  0  0  0  0  0  0  0  0
  144.6063  131.0549  150.5365 C   0  0  0  0  0  0  0  0  0  0  0  0
  145.5037  131.5676  151.5567 N   0  0  0  0  0  0  0  0  0  0  0  0
  146.2461  132.7323  151.5327 C   0  0  0  0  0  0  0  0  0  0  0  0
  146.9224  132.7653  152.7191 C   0  0  0  0  0  0  0  0  0  0  0  0
  147.8268  133.7395  153.2118 N   0  0  0  0  0  0  0  0  0  0  0  0
  148.5670  133.6723  154.3303 C   0  0  0  0  0  0  0  0  0  0  0  0
  148.5786  132.7232  155.1143 O   0  0  0  0  0  0  0  0  0  0  0  0
  149.3075  134.7780  154.4907 N   0  0  0  0  0  0  0  0  0  0  0  0
  150.2307  135.0252  155.5936 C   0  0  0  0  0  0  0  0  0  0  0  0
  150.5754  136.5183  155.7264 C   0  0  2  0  0  0  0  0  0  0  0  0
  149.5106  137.4817  155.2022 C   0  0  0  0  0  0  0  0  0  0  0  0
  150.3325  138.7214  154.9350 C   0  0  0  0  0  0  0  0  0  0  0  0
  151.6346  138.1291  154.4015 C   0  0  0  0  0  0  0  0  0  0  0  0
  151.7406  136.8239  154.9666 O   0  0  0  0  0  0  0  0  0  0  0  0
  146.5443  131.5869  153.4131 C   0  0  0  0  0  0  0  0  0  0  0  0
  145.6871  130.8681  152.7045 N   0  0  0  0  0  0  0  0  0  0  0  0
  142.4358  133.6466  150.6060 H   0  0  0  0  0  0  0  0  0  0  0  0
  143.1958  132.7423  151.8987 H   0  0  0  0  0  0  0  0  0  0  0  0
  144.0100  130.2403  150.9511 H   0  0  0  0  0  0  0  0  0  0  0  0
  145.2010  130.6341  149.7245 H   0  0  0  0  0  0  0  0  0  0  0  0
  146.2202  133.4102  150.6927 H   0  0  0  0  0  0  0  0  0  0  0  0
  147.9193  134.5758  152.6539 H   0  0  0  0  0  0  0  0  0  0  0  0
  149.2307  135.5049  153.7944 H   0  0  0  0  0  0  0  0  0  0  0  0
  149.7489  134.6832  156.5098 H   0  0  0  0  0  0  0  0  0  0  0  0
  151.1392  134.4299  155.4880 H   0  0  0  0  0  0  0  0  0  0  0  0
  150.7946  136.7584  156.7683 H   0  0  0  0  0  0  0  0  0  0  0  0
  149.0802  137.1112  154.2707 H   0  0  0  0  0  0  0  0  0  0  0  0
  148.7001  137.6502  155.9119 H   0  0  0  0  0  0  0  0  0  0  0  0
  149.8579  139.4101  154.2354 H   0  0  0  0  0  0  0  0  0  0  0  0
  150.5168  139.2542  155.8688 H   0  0  0  0  0  0  0  0  0  0  0  0
  151.5952  138.0327  153.3160 H   0  0  0  0  0  0  0  0  0  0  0  0
  152.4997  138.7421  154.6553 H   0  0  0  0  0  0  0  0  0  0  0  0
  146.8559  131.2361  154.3857 H   0  0  0  0  0  0  0  0  0  0  0  0
  1  2  1  0  0  0  0
  1 20  1  0  0  0  0
  1 21  1  0  0  0  0
  2  3  2  0  0  0  0
  2  4  1  0  0  0  0
  4  5  1  0  0  0  0
  4 22  1  0  0  0  0
  4 23  1  0  0  0  0
  5 19  1  0  0  0  0
  5  6  1  0  0  0  0
  6  7  2  0  0  0  0
  6 24  1  0  0  0  0
  7  8  1  0  0  0  0
  7 18  1  0  0  0  0
  8  9  1  0  0  0  0
  8 25  1  0  0  0  0
  9 10  2  0  0  0  0
  9 11  1  0  0  0  0
 11 12  1  0  0  0  0
 11 26  1  0  0  0  0
 12 13  1  0  0  0  0
 12 27  1  0  0  0  0
 12 28  1  0  0  0  0
 13 17  1  0  0  0  0
 13 14  1  0  0  0  0
 13 29  1  0  0  0  0
 14 15  1  0  0  0  0
 14 30  1  0  0  0  0
 14 31  1  0  0  0  0
 15 16  1  0  0  0  0
 15 32  1  0  0  0  0
 15 33  1  0  0  0  0
 16 17  1  0  0  0  0
 16 34  1  0  0  0  0
 16 35  1  0  0  0  0
 18 19  2  0  0  0  0
 18 36  1  0  0  0  0
M  END
> <s_m_source_file>
AV-unprocessed.smi

> <i_m_source_file_index>
1558

> <i_lp_mmshare_version>
43012

> <i_f3d_flags>
0

> <s_epik_input>
W05IMl1DKD1PKVtDSDJdbjFbY0hdYyhbY0hdbjEpW05IXUMoPU8pW05IXVtDSDJdW0NAQEhdMltDSDJdW0NIMl1bQ0gyXU8y

> <s_epik_cmdline>
J2VwaWtfcHl0aG9uJywgJy1waCcsICc3LjAnLCAnLXRuJywgJzgnLCAnLW1hJywgJzIwMCcsICctbWV0YWxfYmluZGluZycsICctaW1hZScsICc8aW5maWxlLm1hZT4nLCAnLW9tYWUnLCAnPG91dGZpbGUubWFlPic=

> <r_lp_tautomer_probability>
1

> <r_epik_Ionization_Penalty>
4.01684e-05

> <r_epik_Ionization_Penalty_Charging>
0

> <r_epik_Ionization_Penalty_Neutral>
4.01684e-05

> <r_epik_State_Penalty>
-0

> <r_epik_Charging_Adjusted_Penalty>
0

> <i_epik_Tot_Q>
0

> <i_epik_Tot_abs_Q>
0

> <r_epik_Metal_State_Penalty>
-0

> <b_epik_Metal_Only>
0

> <s_lp_Force_Field>
OPLS_2005

> <r_lp_Energy>
20.4808

> <b_lp_Chiralities_Consistent>
1

> <s_lp_Variant>
AV-unprocessed.smi:1558-1

> <Gold.Version>
5.8.1

> <Gold.Id.Protein>
6NUR|6NUR_protein|mol2

> <Gold.PLP.Fitness>
43.5808

> <Gold.PLP.PLP>
-32.7610

> <Gold.PLP.part.hbond>
-4.6687

> <Gold.PLP.part.metal>
0.0000

> <Gold.PLP.part.buried>
-8.0601

> <Gold.PLP.part.nonpolar>
-21.1601

> <Gold.PLP.part.repulsive>
0.6708

> <Gold.PLP.ligand.clash>
0.0000

> <Gold.PLP.ligand.torsion>
0.8498

> <Gold.PLP.Chemscore.Hbond>
4.1669

> <Gold.PLP.Chemscore.CHOScore>
0.0000

> <Gold.PLP.Chemscore.Metal>
0.0000

> <Gold.Chemscore.Hbonds>
donor molecule, donor type, donor heavy atom, donor atom, acceptor molecule, acceptor atom, score
      L1  H     1    20       P1 10186  1.00
      L1  H     8    25       P1  7948  0.91
      L1  H    11    26       P1  7948  0.94
      P1  H 10752 10764       L1    17  1.00
      P1  H 10785 10796       L1     3  0.12

> <Gold.PLP.Chemscore.Internal.Correction>
0.0186

> <Gold.Rescore>
     Score         DG    S(hbond)    S(metal)    S(lipo)     H(rot)  DE(clash)    DE(int)     intcor
     15.21     -17.25       3.36        0.00      55.67       2.33       0.06       1.98       ----

> <Gold.Chemscore.Fitness>
15.2070

> <Gold.Chemscore.DG>
-17.2477

> <Gold.Chemscore.ZeroCoef>
-5.4800

> <Gold.Chemscore.Hbond>
3.3591

> <Gold.Chemscore.Metal>
0.0000

> <Gold.Chemscore.Lipo>
55.6739

> <Gold.Chemscore.Internal_Hbond>
0.0000

> <Gold.Chemscore.DEClash>
0.0624

> <Gold.Chemscore.DEInternal>
1.9783

> <Gold.Chemscore.Rot>
2.3303

> <Gold.Chemscore.Internal.Correction>
   9.000000E+99

> <Gold.Chemscore.Hbonds>
donor molecule, donor type, donor heavy atom, donor atom, acceptor molecule, acceptor atom, score
      L1  H     1    20       P1 10186  0.92
      L1  H     8    25       P1  7948  0.55
      L1  H    11    26       P1  7948  0.48
      P1  H 10752 10764       L1    17  0.98

> <Gold.Chemscore.Hbond.Weighted>
-11.2194

> <Gold.Chemscore.Metal.Weighted>
-0.0000

> <Gold.Chemscore.Lipo.Weighted>
-6.5138

> <Gold.Chemscore.Internal_Hbond.Weighted>
0.0000

> <Gold.Chemscore.DEClash.Weighted>
0.0624

> <Gold.Chemscore.DEInternal.Weighted>
1.9783

> <Gold.Chemscore.Rot.Weighted>
5.9656

> <Gold.Chemscore.Internal.Correction.Weighted>
   9.000000E+99

> <Gold.Protein.RotatedTorsions>
[ 6907 6896 6895 6894 ] final  -50.99 input  -60.11 | X-H torsion
[ 7974 7965 7964 7962 ] final -134.96 input  175.53 | X-H torsion
[ 8008 7997 7996 7995 ] final  157.35 input   59.86 | X-H torsion
[ 10167 10162 10161 10158 ] final -100.83 input  -65.29 | X-H torsion
[ 10718 10713 10712 10709 ] final -161.93 input   66.30 | X-H torsion
[ 10763 10752 10751 10750 ] final  -70.44 input  -60.55 | X-H torsion
[ 11005 11000 10999 10996 ] final -112.98 input  -57.11 | X-H torsion

> <Gold.Protein.ActiveResidues>
 VAL166  LYS551  ARG553  GLY616  TRP617  ASP618  TYR619  PRO620  LYS621  CYS622 
 ASP623  PHE694  ASN695  SER759  ASP760  ASP761  ALA762  ILE779  LEU786  VAL792 
 PHE793  MET794  SER795  GLU796  ALA797  LYS798  CYS799  TRP800  GLU811  SER814 

> <Gold.Protein.RotatedAtoms>
  150.8654  134.8016  159.7114 H   0  0  0  0  0  0  0  0  0  0  0  0  # atno 6907 bound_to 6896
  152.4677  134.5032  159.9741 H   0  0  0  0  0  0  0  0  0  0  0  0  # atno 6908 bound_to 6896
  151.5129  133.3443  159.2923 H   0  0  0  0  0  0  0  0  0  0  0  0  # atno 6909 bound_to 6896
  144.9056  140.6829  143.5057 H   0  0  0  0  0  0  0  0  0  0  0  0  # atno 7974 bound_to 7965
  156.2369  140.1888  156.7094 H   0  0  0  0  0  0  0  0  0  0  0  0  # atno 8008 bound_to 7997
  154.6123  140.0620  156.9537 H   0  0  0  0  0  0  0  0  0  0  0  0  # atno 8009 bound_to 7997
  155.1995  140.3291  155.4348 H   0  0  0  0  0  0  0  0  0  0  0  0  # atno 8010 bound_to 7997
  140.2478  143.3494  152.0743 H   0  0  0  0  0  0  0  0  0  0  0  0  # atno 10167 bound_to 10162
  156.6032  130.8819  151.2919 H   0  0  0  0  0  0  0  0  0  0  0  0  # atno 10718 bound_to 10713
  154.4176  135.5994  153.5990 H   0  0  0  0  0  0  0  0  0  0  0  0  # atno 10763 bound_to 10752
  152.9792  135.5944  154.3994 H   0  0  0  0  0  0  0  0  0  0  0  0  # atno 10764 bound_to 10752
  154.3815  135.2841  155.2187 H   0  0  0  0  0  0  0  0  0  0  0  0  # atno 10765 bound_to 10752
  141.0642  133.9486  157.2610 H   0  0  0  0  0  0  0  0  0  0  0  0  # atno 11005 bound_to 11000
  145.3541  139.1698  143.4418 LP  0  0  0  0  0  0  0  0  0  0  0  0  # atno 17320 bound_to 7965
  146.3132  140.3596  142.8663 LP  0  0  0  0  0  0  0  0  0  0  0  0  # atno 17321 bound_to 7965
  139.5056  144.6798  151.6037 LP  0  0  0  0  0  0  0  0  0  0  0  0  # atno 17342 bound_to 10162
  140.6064  143.9516  150.6422 LP  0  0  0  0  0  0  0  0  0  0  0  0  # atno 17343 bound_to 10162
  157.7274  130.9642  150.1697 LP  0  0  0  0  0  0  0  0  0  0  0  0  # atno 17370 bound_to 10713
  156.2451  130.3695  149.8294 LP  0  0  0  0  0  0  0  0  0  0  0  0  # atno 17371 bound_to 10713
  139.9461  135.0184  156.8855 LP  0  0  0  0  0  0  0  0  0  0  0  0  # atno 17394 bound_to 11000
  140.5807  134.0355  155.7463 LP  0  0  0  0  0  0  0  0  0  0  0  0  # atno 17395 bound_to 11000

$$$$
