AV-unprocessed.smi:54|AV-procd|sdf|548|dock8
  -GOLD-   2262016443D 1   1.00000     0.00000
 Structure written by MMmdl.
 43 45  0  0  0  0  0  0  0  0  2 V2000
  153.2194  142.2588  161.5728 C   0  0  0  0  0  0  0  0  0  0  0  0
  152.8714  142.5949  160.1131 C   0  0  0  0  0  0  0  0  0  0  0  0
  151.5956  143.4488  160.0258 C   0  0  0  0  0  0  0  0  0  0  0  0
  152.7272  141.3130  159.2805 C   0  0  0  0  0  0  0  0  0  0  0  0
  153.1040  140.2403  159.7589 O   0  0  0  0  0  0  0  0  0  0  0  0
  152.1830  141.4782  158.0539 N   0  0  0  0  0  0  0  0  0  0  0  0
  151.9260  140.5218  157.0647 C   0  0  0  0  0  0  0  0  0  0  0  0
  150.8636  140.6261  156.2975 N   0  0  0  0  0  0  0  0  0  0  0  0
  150.7686  139.5927  155.3860 C   0  0  0  0  0  0  0  0  0  0  0  0
  151.6271  138.5415  155.2183 C   0  0  0  0  0  0  0  0  0  0  0  0
  151.2025  137.6962  154.2009 N   0  0  0  0  0  0  0  0  0  0  0  0
  150.0826  138.2922  153.7944 C   0  0  0  0  0  0  0  0  0  0  0  0
  149.7509  139.4214  154.4549 N   0  0  0  0  0  0  0  0  0  0  0  0
  148.5651  140.3143  154.2360 C   0  0  1  0  0  0  0  0  0  0  0  0
  147.9906  139.9645  153.0104 O   0  0  0  0  0  0  0  0  0  0  0  0
  146.6638  139.4636  153.1849 C   0  0  1  0  0  0  0  0  0  0  0  0
  146.3623  138.3322  152.1859 C   0  0  0  0  0  0  0  0  0  0  0  0
  146.6235  138.7660  150.8686 O   0  0  0  0  0  0  0  0  0  0  0  0
  146.5646  139.0833  154.6702 C   0  0  1  0  0  0  0  0  0  0  0  0
  146.9923  137.7516  154.9032 O   0  0  0  0  0  0  0  0  0  0  0  0
  147.4827  140.1132  155.3112 C   0  0  1  0  0  0  0  0  0  0  0  0
  147.9477  139.7316  156.5939 O   0  0  0  0  0  0  0  0  0  0  0  0
  152.8068  138.4928  156.1138 C   0  0  0  0  0  0  0  0  0  0  0  0
  153.6082  137.5675  155.9984 O   0  0  0  0  0  0  0  0  0  0  0  0
  152.9014  139.5136  157.0185 N   0  5  0  0  0  0  0  0  0  0  0  0
  148.9822  141.3217  154.2118 H   0  0  0  0  0  0  0  0  0  0  0  0
  145.9787  140.2967  153.0170 H   0  0  0  0  0  0  0  0  0  0  0  0
  145.5421  139.1751  155.0380 H   0  0  0  0  0  0  0  0  0  0  0  0
  146.9424  141.0562  155.4038 H   0  0  0  0  0  0  0  0  0  0  0  0
  154.1164  141.6414  161.6340 H   0  0  0  0  0  0  0  0  0  0  0  0
  152.4090  141.7200  162.0657 H   0  0  0  0  0  0  0  0  0  0  0  0
  153.4085  143.1664  162.1467 H   0  0  0  0  0  0  0  0  0  0  0  0
  153.6941  143.1825  159.7014 H   0  0  0  0  0  0  0  0  0  0  0  0
  151.3455  143.6836  158.9902 H   0  0  0  0  0  0  0  0  0  0  0  0
  151.7243  144.3945  160.5527 H   0  0  0  0  0  0  0  0  0  0  0  0
  150.7390  142.9386  160.4686 H   0  0  0  0  0  0  0  0  0  0  0  0
  151.9386  142.4292  157.8203 H   0  0  0  0  0  0  0  0  0  0  0  0
  149.4849  137.8892  152.9909 H   0  0  0  0  0  0  0  0  0  0  0  0
  146.9421  137.4367  152.4094 H   0  0  0  0  0  0  0  0  0  0  0  0
  145.3078  138.0587  152.2343 H   0  0  0  0  0  0  0  0  0  0  0  0
  145.7993  138.9467  150.4434 H   0  0  0  0  0  0  0  0  0  0  0  0
  147.4644  137.7308  155.7218 H   0  0  0  0  0  0  0  0  0  0  0  0
  148.8078  139.3511  156.4993 H   0  0  0  0  0  0  0  0  0  0  0  0
  1  2  1  0  0  0  0
  1 30  1  0  0  0  0
  1 31  1  0  0  0  0
  1 32  1  0  0  0  0
  2  3  1  0  0  0  0
  2  4  1  0  0  0  0
  2 33  1  0  0  0  0
  3 34  1  0  0  0  0
  3 35  1  0  0  0  0
  3 36  1  0  0  0  0
  4  5  2  0  0  0  0
  4  6  1  0  0  0  0
  6 37  1  0  0  0  0
  6  7  1  0  0  0  0
  7 25  1  0  0  0  0
  7  8  2  0  0  0  0
  8  9  1  0  0  0  0
  9 13  1  0  0  0  0
  9 10  2  0  0  0  0
 10 11  1  0  0  0  0
 10 23  1  0  0  0  0
 11 12  2  0  0  0  0
 12 13  1  0  0  0  0
 12 38  1  0  0  0  0
 13 14  1  0  0  0  0
 14 26  1  0  0  0  0
 14 21  1  0  0  0  0
 14 15  1  0  0  0  0
 15 16  1  0  0  0  0
 16 27  1  0  0  0  0
 16 17  1  0  0  0  0
 16 19  1  0  0  0  0
 17 18  1  0  0  0  0
 17 39  1  0  0  0  0
 17 40  1  0  0  0  0
 18 41  1  0  0  0  0
 19 28  1  0  0  0  0
 19 20  1  0  0  0  0
 19 21  1  0  0  0  0
 20 42  1  0  0  0  0
 21 29  1  0  0  0  0
 21 22  1  0  0  0  0
 22 43  1  0  0  0  0
 23 24  2  0  0  0  0
 23 25  1  0  0  0  0
M  CHG  1  25  -1
M  END
> <s_m_source_file>
AV-unprocessed.smi

> <i_m_source_file_index>
54

> <i_lp_mmshare_version>
43012

> <i_f3d_flags>
0

> <s_epik_input>
W0NIM11bQ0hdKFtDSDNdKUMoPU8pW05IXWMobjEpW25IXWMoPU8pYyhjMTIpbltjSF1uMltDQEBIXTNPW0NASF0oW0NIMl1bT0hdKVtDQEBIXShbT0hdKVtDQEhdM1tPSF0=

> <s_epik_cmdline>
J2VwaWtfcHl0aG9uJywgJy1waCcsICc3LjAnLCAnLXRuJywgJzgnLCAnLW1hJywgJzIwMCcsICctbWV0YWxfYmluZGluZycsICctaW1hZScsICc8aW5maWxlLm1hZT4nLCAnLW9tYWUnLCAnPG91dGZpbGUubWFlPic=

> <r_lp_tautomer_probability>
0.85571

> <r_epik_Ionization_Penalty>
1.75936

> <r_epik_Ionization_Penalty_Charging>
4.55893e-11

> <r_epik_Ionization_Penalty_Neutral>
1.75936

> <r_epik_State_Penalty>
1.72072

> <r_epik_Charging_Adjusted_Penalty>
1.72072

> <i_epik_Tot_Q>
-1

> <i_epik_Tot_abs_Q>
1

> <r_epik_Metal_State_Penalty>
0.400338

> <b_epik_Metal_Only>
1

> <s_epik_Chemistry_Notes>
This compound contains an acetal/aminal-like group ( X-CH(R)-Y where X, Y are N, S, or O) that may be acid/base labile, releasing an aldehyde.

> <s_lp_Force_Field>
OPLS_2005

> <r_lp_Energy>
61.5499

> <b_lp_Chiralities_Consistent>
1

> <s_lp_Variant>
AV-unprocessed.smi:54-20

> <Gold.Version>
5.8.1

> <Gold.Id.Protein>
6NUR|6NUR_protein|mol2

> <Gold.PLP.Fitness>
49.2360

> <Gold.PLP.PLP>
-35.3075

> <Gold.PLP.part.hbond>
-4.4199

> <Gold.PLP.part.metal>
0.0000

> <Gold.PLP.part.buried>
-3.7632

> <Gold.PLP.part.nonpolar>
-33.0299

> <Gold.PLP.part.repulsive>
4.7623

> <Gold.PLP.ligand.clash>
0.0000

> <Gold.PLP.ligand.torsion>
0.9915

> <Gold.PLP.Chemscore.Hbond>
4.0769

> <Gold.PLP.Chemscore.CHOScore>
1.0644

> <Gold.PLP.Chemscore.Metal>
0.0000

> <Gold.Chemscore.Hbonds>
donor molecule, donor type, donor heavy atom, donor atom, acceptor molecule, acceptor atom, score
      L1  H    18    41       P1 10171  0.99
      P1  H  7954  7966       L1    18  0.86
      P1  H  7997  8010       L1    25  1.80
      P1  H 10752 10763       L1    24  0.14
      L1  C    12    38       P1  7948  1.00
      L1  C    12    38       P1  7957  0.13

> <Gold.PLP.Chemscore.Internal.Correction>
0.4875

> <Gold.Rescore>
     Score         DG    S(hbond)    S(metal)    S(lipo)     H(rot)  DE(clash)    DE(int)     intcor
      6.71      -9.96       2.37        0.00      58.69       4.02       2.18       1.07       ----

> <Gold.Chemscore.Fitness>
6.7104

> <Gold.Chemscore.DG>
-9.9569

> <Gold.Chemscore.ZeroCoef>
-5.4800

> <Gold.Chemscore.Hbond>
2.3652

> <Gold.Chemscore.Metal>
0.0000

> <Gold.Chemscore.Lipo>
58.6877

> <Gold.Chemscore.Internal_Hbond>
0.0000

> <Gold.Chemscore.DEClash>
2.1789

> <Gold.Chemscore.DEInternal>
1.0676

> <Gold.Chemscore.Rot>
4.0192

> <Gold.Chemscore.Internal.Correction>
   9.000000E+99

> <Gold.Chemscore.Hbonds>
donor molecule, donor type, donor heavy atom, donor atom, acceptor molecule, acceptor atom, score
      L1  H    18    41       P1 10171  0.92
      P1  H  7954  7966       L1    18  0.75
      P1  H  7997  8010       L1    25  0.15
      P1  H 10752 10763       L1    24  0.15

> <Gold.Chemscore.Hbond.Weighted>
-7.8998

> <Gold.Chemscore.Metal.Weighted>
-0.0000

> <Gold.Chemscore.Lipo.Weighted>
-6.8665

> <Gold.Chemscore.Internal_Hbond.Weighted>
0.0000

> <Gold.Chemscore.DEClash.Weighted>
2.1789

> <Gold.Chemscore.DEInternal.Weighted>
1.0676

> <Gold.Chemscore.Rot.Weighted>
10.2893

> <Gold.Chemscore.Internal.Correction.Weighted>
   9.000000E+99

> <Gold.Protein.RotatedTorsions>
[ 6907 6896 6895 6894 ] final  -43.90 input  -60.11 | X-H torsion
[ 7974 7965 7964 7962 ] final -159.94 input  175.53 | X-H torsion
[ 8008 7997 7996 7995 ] final   64.88 input   59.86 | X-H torsion
[ 10167 10162 10161 10158 ] final  -34.52 input  -65.29 | X-H torsion
[ 10718 10713 10712 10709 ] final  -13.83 input   66.30 | X-H torsion
[ 10763 10752 10751 10750 ] final  116.86 input  -60.55 | X-H torsion
[ 11005 11000 10999 10996 ] final   21.73 input  -57.11 | X-H torsion

> <Gold.Protein.ActiveResidues>
 VAL166  LYS551  ARG553  GLY616  TRP617  ASP618  TYR619  PRO620  LYS621  CYS622 
 ASP623  PHE694  ASN695  SER759  ASP760  ASP761  ALA762  ILE779  LEU786  VAL792 
 PHE793  MET794  SER795  GLU796  ALA797  LYS798  CYS799  TRP800  GLU811  SER814 

> <Gold.Protein.RotatedAtoms>
  150.9388  134.8798  159.7598 H   0  0  0  0  0  0  0  0  0  0  0  0  # atno 6907 bound_to 6896
  152.5071  134.3972  159.9414 H   0  0  0  0  0  0  0  0  0  0  0  0  # atno 6908 bound_to 6896
  151.3995  133.3722  159.2765 H   0  0  0  0  0  0  0  0  0  0  0  0  # atno 6909 bound_to 6896
  144.7446  140.3613  143.6095 H   0  0  0  0  0  0  0  0  0  0  0  0  # atno 7974 bound_to 7965
  155.6530  140.3497  155.4755 H   0  0  0  0  0  0  0  0  0  0  0  0  # atno 8008 bound_to 7997
  155.9832  140.1178  157.0730 H   0  0  0  0  0  0  0  0  0  0  0  0  # atno 8009 bound_to 7997
  154.4197  140.1134  156.5450 H   0  0  0  0  0  0  0  0  0  0  0  0  # atno 8010 bound_to 7997
  140.7184  143.3542  151.2094 H   0  0  0  0  0  0  0  0  0  0  0  0  # atno 10167 bound_to 10162
  156.6247  130.4885  149.6151 H   0  0  0  0  0  0  0  0  0  0  0  0  # atno 10718 bound_to 10713
  153.5437  135.3553  155.2729 H   0  0  0  0  0  0  0  0  0  0  0  0  # atno 10763 bound_to 10752
  154.8714  135.4097  154.3015 H   0  0  0  0  0  0  0  0  0  0  0  0  # atno 10764 bound_to 10752
  153.3727  135.7065  153.6693 H   0  0  0  0  0  0  0  0  0  0  0  0  # atno 10765 bound_to 10752
  140.3883  134.1846  155.7663 H   0  0  0  0  0  0  0  0  0  0  0  0  # atno 11005 bound_to 11000
  145.7175  139.1701  143.2504 LP  0  0  0  0  0  0  0  0  0  0  0  0  # atno 17320 bound_to 7965
  146.1302  140.7196  142.9416 LP  0  0  0  0  0  0  0  0  0  0  0  0  # atno 17321 bound_to 7965
  139.7080  143.9424  152.2935 LP  0  0  0  0  0  0  0  0  0  0  0  0  # atno 17342 bound_to 10162
  139.9139  144.6840  150.8532 LP  0  0  0  0  0  0  0  0  0  0  0  0  # atno 17343 bound_to 10162
  156.2283  130.6779  151.1438 LP  0  0  0  0  0  0  0  0  0  0  0  0  # atno 17370 bound_to 10713
  157.7217  131.0677  150.6105 LP  0  0  0  0  0  0  0  0  0  0  0  0  # atno 17371 bound_to 10713
  141.1900  133.8227  157.0937 LP  0  0  0  0  0  0  0  0  0  0  0  0  # atno 17394 bound_to 11000
  140.0426  134.9847  157.0989 LP  0  0  0  0  0  0  0  0  0  0  0  0  # atno 17395 bound_to 11000

$$$$
