AV-unprocessed.smi:672|AV-procd|sdf|3296|dock5
  -GOLD-   22720 0253D 1   1.00000     0.00000
 Structure written by MMmdl.
 35 36  0  0  0  0  0  0  0  0  2 V2000
  145.7762  134.5269  162.5771 C   0  0  0  0  0  0  0  0  0  0  0  0
  145.9741  136.0155  162.2714 C   0  0  0  0  0  0  0  0  0  0  0  0
  147.0337  136.2541  161.2483 C   0  0  0  0  0  0  0  0  0  0  0  0
  147.3070  137.4655  160.7567 N   0  0  0  0  0  0  0  0  0  0  0  0
  148.3100  137.4272  159.7992 N   0  0  0  0  0  0  0  0  0  0  0  0
  148.7629  136.1878  159.5622 C   0  0  0  0  0  0  0  0  0  0  0  0
  149.7322  135.9323  158.6684 N   0  5  0  0  0  0  0  0  0  0  0  0
  150.1521  136.9085  157.8319 C   0  0  0  0  0  0  0  0  0  0  0  0
  150.2177  136.8396  156.6023 O   0  0  0  0  0  0  0  0  0  0  0  0
  150.5278  138.0323  158.4593 N   0  0  0  0  0  0  0  0  0  0  0  0
  151.0346  139.2444  157.8187 C   0  0  1  0  0  0  0  0  0  0  0  0
  150.0369  140.4075  157.9851 C   0  0  0  0  0  0  0  0  0  0  0  0
  150.8409  141.5839  158.5445 C   0  0  0  0  0  0  0  0  0  0  0  0
  151.9798  140.9301  159.3227 C   0  0  2  0  0  0  0  0  0  0  0  0
  153.3711  142.0616  159.6083 S   0  0  0  0  0  0  0  0  0  0  0  0
  152.5938  143.2440  160.7413 C   0  0  0  0  0  0  0  0  0  0  0  0
  152.3515  139.7187  158.4648 C   0  0  0  0  0  0  0  0  0  0  0  0
  147.9784  134.9521  160.5453 S   0  0  0  0  0  0  0  0  0  0  0  0
  144.9999  134.3842  163.3288 H   0  0  0  0  0  0  0  0  0  0  0  0
  146.6950  134.0793  162.9571 H   0  0  0  0  0  0  0  0  0  0  0  0
  145.4809  133.9771  161.6829 H   0  0  0  0  0  0  0  0  0  0  0  0
  145.0386  136.4511  161.9190 H   0  0  0  0  0  0  0  0  0  0  0  0
  146.2429  136.5489  163.1835 H   0  0  0  0  0  0  0  0  0  0  0  0
  150.4568  138.0445  159.4661 H   0  0  0  0  0  0  0  0  0  0  0  0
  151.1959  139.0492  156.7567 H   0  0  0  0  0  0  0  0  0  0  0  0
  149.5466  140.6640  157.0455 H   0  0  0  0  0  0  0  0  0  0  0  0
  149.2504  140.1437  158.6941 H   0  0  0  0  0  0  0  0  0  0  0  0
  151.2435  142.1735  157.7195 H   0  0  0  0  0  0  0  0  0  0  0  0
  150.2358  142.2473  159.1633 H   0  0  0  0  0  0  0  0  0  0  0  0
  151.5979  140.5874  160.2856 H   0  0  0  0  0  0  0  0  0  0  0  0
  153.2971  144.0370  160.9952 H   0  0  0  0  0  0  0  0  0  0  0  0
  152.2872  142.7495  161.6629 H   0  0  0  0  0  0  0  0  0  0  0  0
  151.7160  143.6953  160.2786 H   0  0  0  0  0  0  0  0  0  0  0  0
  152.8543  138.9435  159.0445 H   0  0  0  0  0  0  0  0  0  0  0  0
  153.0409  140.0248  157.6767 H   0  0  0  0  0  0  0  0  0  0  0  0
  1  2  1  0  0  0  0
  1 19  1  0  0  0  0
  1 20  1  0  0  0  0
  1 21  1  0  0  0  0
  2  3  1  0  0  0  0
  2 22  1  0  0  0  0
  2 23  1  0  0  0  0
  3 18  1  0  0  0  0
  3  4  2  0  0  0  0
  4  5  1  0  0  0  0
  5  6  2  0  0  0  0
  6  7  1  0  0  0  0
  6 18  1  0  0  0  0
  7  8  1  0  0  0  0
  8  9  2  0  0  0  0
  8 10  1  0  0  0  0
 10 11  1  0  0  0  0
 10 24  1  0  0  0  0
 11 17  1  0  0  0  0
 11 12  1  0  0  0  0
 11 25  1  0  0  0  0
 12 13  1  0  0  0  0
 12 26  1  0  0  0  0
 12 27  1  0  0  0  0
 13 14  1  0  0  0  0
 13 28  1  0  0  0  0
 13 29  1  0  0  0  0
 14 15  1  0  0  0  0
 14 17  1  0  0  0  0
 14 30  1  0  0  0  0
 15 16  1  0  0  0  0
 16 31  1  0  0  0  0
 16 32  1  0  0  0  0
 16 33  1  0  0  0  0
 17 34  1  0  0  0  0
 17 35  1  0  0  0  0
M  CHG  1   7  -1
M  END
> <s_m_source_file>
AV-unprocessed.smi

> <i_m_source_file_index>
672

> <i_lp_mmshare_version>
43012

> <i_f3d_flags>
0

> <s_epik_input>
W0NIM11bQ0gyXWMxbm5jKHMxKVtOSF1DKD1PKVtOSF1bQ0BASF0yW0NIMl1bQ0gyXVtDQEhdKFtDSDJdMilTW0NIM10=

> <s_epik_cmdline>
J2VwaWtfcHl0aG9uJywgJy1waCcsICc3LjAnLCAnLXRuJywgJzgnLCAnLW1hJywgJzIwMCcsICctbWV0YWxfYmluZGluZycsICctaW1hZScsICc8aW5maWxlLm1hZT4nLCAnLW9tYWUnLCAnPG91dGZpbGUubWFlPic=

> <r_lp_tautomer_probability>
1

> <r_epik_Ionization_Penalty>
4.49964

> <r_epik_Ionization_Penalty_Charging>
4.32991

> <r_epik_Ionization_Penalty_Neutral>
0.169727

> <r_epik_State_Penalty>
4.32952

> <r_epik_Charging_Adjusted_Penalty>
8.65943

> <i_epik_Tot_Q>
-1

> <i_epik_Tot_abs_Q>
1

> <r_epik_Metal_State_Penalty>
0.740482

> <b_epik_Metal_Only>
1

> <s_lp_Force_Field>
OPLS_2005

> <r_lp_Energy>
9.75318

> <b_lp_Chiralities_Consistent>
1

> <s_lp_Variant>
AV-unprocessed.smi:672-8

> <Gold.Version>
5.8.1

> <Gold.Id.Protein>
6NUR|6NUR_protein|mol2

> <Gold.PLP.Fitness>
39.5010

> <Gold.PLP.PLP>
-31.6353

> <Gold.PLP.part.hbond>
-4.8822

> <Gold.PLP.part.metal>
0.0000

> <Gold.PLP.part.buried>
-3.6993

> <Gold.PLP.part.nonpolar>
-22.9616

> <Gold.PLP.part.repulsive>
0.1306

> <Gold.PLP.ligand.clash>
0.0000

> <Gold.PLP.ligand.torsion>
0.6077

> <Gold.PLP.Chemscore.Hbond>
3.0000

> <Gold.PLP.Chemscore.CHOScore>
0.0000

> <Gold.PLP.Chemscore.Metal>
0.0000

> <Gold.Chemscore.Hbonds>
donor molecule, donor type, donor heavy atom, donor atom, acceptor molecule, acceptor atom, score
      P1  H  6896  6909       L1     7  2.00
      P1  H  6934  6947       L1     4  0.95

> <Gold.PLP.Chemscore.Internal.Correction>
0.0812

> <Gold.Rescore>
     Score         DG    S(hbond)    S(metal)    S(lipo)     H(rot)  DE(clash)    DE(int)     intcor
     15.24     -15.86       1.60        0.00      72.45       1.34       0.00       0.62       ----

> <Gold.Chemscore.Fitness>
15.2354

> <Gold.Chemscore.DG>
-15.8601

> <Gold.Chemscore.ZeroCoef>
-5.4800

> <Gold.Chemscore.Hbond>
1.5977

> <Gold.Chemscore.Metal>
0.0000

> <Gold.Chemscore.Lipo>
72.4499

> <Gold.Chemscore.Internal_Hbond>
0.0000

> <Gold.Chemscore.DEClash>
0.0000

> <Gold.Chemscore.DEInternal>
0.6246

> <Gold.Chemscore.Rot>
1.3410

> <Gold.Chemscore.Internal.Correction>
   9.000000E+99

> <Gold.Chemscore.Hbonds>
donor molecule, donor type, donor heavy atom, donor atom, acceptor molecule, acceptor atom, score
      P1  H  6896  6909       L1     7  0.29
      P1  H  6934  6947       L1     4  0.21

> <Gold.Chemscore.Hbond.Weighted>
-5.3364

> <Gold.Chemscore.Metal.Weighted>
-0.0000

> <Gold.Chemscore.Lipo.Weighted>
-8.4766

> <Gold.Chemscore.Internal_Hbond.Weighted>
0.0000

> <Gold.Chemscore.DEClash.Weighted>
0.0000

> <Gold.Chemscore.DEInternal.Weighted>
0.6246

> <Gold.Chemscore.Rot.Weighted>
3.4329

> <Gold.Chemscore.Internal.Correction.Weighted>
   9.000000E+99

> <Gold.Protein.RotatedTorsions>
[ 6907 6896 6895 6894 ] final   46.83 input  -60.11 | X-H torsion
[ 7974 7965 7964 7962 ] final -167.19 input  175.53 | X-H torsion
[ 8008 7997 7996 7995 ] final   41.43 input   59.86 | X-H torsion
[ 10167 10162 10161 10158 ] final -123.63 input  -65.29 | X-H torsion
[ 10718 10713 10712 10709 ] final  -54.02 input   66.30 | X-H torsion
[ 10763 10752 10751 10750 ] final  145.95 input  -60.55 | X-H torsion
[ 11005 11000 10999 10996 ] final   27.81 input  -57.11 | X-H torsion

> <Gold.Protein.ActiveResidues>
 VAL166  LYS551  ARG553  GLY616  TRP617  ASP618  TYR619  PRO620  LYS621  CYS622 
 ASP623  PHE694  ASN695  SER759  ASP760  ASP761  ALA762  ILE779  LEU786  VAL792 
 PHE793  MET794  SER795  GLU796  ALA797  LYS798  CYS799  TRP800  GLU811  SER814 

> <Gold.Protein.RotatedAtoms>
  152.2609  134.8034  160.0430 H   0  0  0  0  0  0  0  0  0  0  0  0  # atno 6907 bound_to 6896
  151.8681  133.3465  159.3734 H   0  0  0  0  0  0  0  0  0  0  0  0  # atno 6908 bound_to 6896
  150.7116  134.5067  159.5632 H   0  0  0  0  0  0  0  0  0  0  0  0  # atno 6909 bound_to 6896
  144.7228  140.2556  143.6272 H   0  0  0  0  0  0  0  0  0  0  0  0  # atno 7974 bound_to 7965
  155.2694  140.3365  155.4266 H   0  0  0  0  0  0  0  0  0  0  0  0  # atno 8008 bound_to 7997
  156.2139  140.1781  156.7674 H   0  0  0  0  0  0  0  0  0  0  0  0  # atno 8009 bound_to 7997
  154.5726  140.0667  156.8971 H   0  0  0  0  0  0  0  0  0  0  0  0  # atno 8010 bound_to 7997
  140.0014  143.5536  152.2302 H   0  0  0  0  0  0  0  0  0  0  0  0  # atno 10167 bound_to 10162
  156.1486  130.4152  149.9983 H   0  0  0  0  0  0  0  0  0  0  0  0  # atno 10718 bound_to 10713
  154.0138  135.2912  155.3389 H   0  0  0  0  0  0  0  0  0  0  0  0  # atno 10763 bound_to 10752
  154.7087  135.5158  153.8637 H   0  0  0  0  0  0  0  0  0  0  0  0  # atno 10764 bound_to 10752
  153.0711  135.6648  154.0367 H   0  0  0  0  0  0  0  0  0  0  0  0  # atno 10765 bound_to 10752
  140.3223  134.2530  155.7715 H   0  0  0  0  0  0  0  0  0  0  0  0  # atno 11005 bound_to 11000
  145.8186  139.2034  143.1951 LP  0  0  0  0  0  0  0  0  0  0  0  0  # atno 17320 bound_to 7965
  146.0534  140.8046  142.9770 LP  0  0  0  0  0  0  0  0  0  0  0  0  # atno 17321 bound_to 7965
  139.6269  144.7638  151.2619 LP  0  0  0  0  0  0  0  0  0  0  0  0  # atno 17342 bound_to 10162
  140.7417  143.6548  150.8216 LP  0  0  0  0  0  0  0  0  0  0  0  0  # atno 17343 bound_to 10162
  156.7847  130.9234  151.3646 LP  0  0  0  0  0  0  0  0  0  0  0  0  # atno 17370 bound_to 10713
  157.6638  130.8989  149.9886 LP  0  0  0  0  0  0  0  0  0  0  0  0  # atno 17371 bound_to 10713
  141.2084  133.7780  157.0063 LP  0  0  0  0  0  0  0  0  0  0  0  0  # atno 17394 bound_to 11000
  140.0932  134.9580  157.1808 LP  0  0  0  0  0  0  0  0  0  0  0  0  # atno 17395 bound_to 11000

$$$$
