AV-unprocessed.smi:1795|AV-procd|sdf|7250|dock10
  -GOLD-   22720 8503D 1   1.00000     0.00000
 Structure written by MMmdl.
 48 49  0  0  0  0  0  0  0  0  2 V2000
  153.6330  139.2264  154.7211 C   0  0  0  0  0  0  0  0  0  0  0  0
  152.6058  138.9685  155.8381 C   0  0  1  0  0  0  0  0  0  0  0  0
  151.5142  140.0505  155.9347 C   0  0  0  0  0  0  0  0  0  0  0  0
  150.5482  139.9593  154.8067 N   0  3  2  0  0  0  0  0  0  0  0  0
  149.5599  141.0876  154.8088 C   0  0  1  0  0  0  0  0  0  0  0  0
  148.5046  140.8510  153.7048 C   0  0  0  0  0  0  0  0  0  0  0  0
  148.8797  141.3281  156.1857 C   0  0  0  0  0  0  0  0  0  0  0  0
  149.6442  142.2279  157.0456 N   0  0  0  0  0  0  0  0  0  0  0  0
  150.3005  141.8710  158.1605 C   0  0  0  0  0  0  0  0  0  0  0  0
  150.3471  140.7128  158.5764 O   0  0  0  0  0  0  0  0  0  0  0  0
  151.0173  142.9992  158.9141 C   0  0  0  0  0  0  0  0  0  0  0  0
  151.6674  142.5344  160.1504 N   0  0  0  0  0  0  0  0  0  0  0  0
  151.2920  143.1659  161.3530 C   0  0  0  0  0  0  0  0  0  0  0  0
  151.8249  142.8163  162.5344 C   0  0  0  0  0  0  0  0  0  0  0  0
  152.8084  141.7597  162.5541 C   0  0  0  0  0  0  0  0  0  0  0  0
  153.1777  141.1518  161.4091 C   0  0  0  0  0  0  0  0  0  0  0  0
  152.6011  141.5335  160.1148 C   0  0  0  0  0  0  0  0  0  0  0  0
  152.9369  140.9882  159.0626 O   0  0  0  0  0  0  0  0  0  0  0  0
  149.9800  138.5854  154.7562 C   0  0  0  0  0  0  0  0  0  0  0  0
  151.0982  137.5309  154.6536 C   0  0  2  0  0  0  0  0  0  0  0  0
  150.5448  136.1021  154.6963 C   0  0  0  0  0  0  0  0  0  0  0  0
  152.0045  137.6797  155.7408 O   0  0  0  0  0  0  0  0  0  0  0  0
  154.1776  140.1528  154.9045 H   0  0  0  0  0  0  0  0  0  0  0  0
  153.1668  139.3153  153.7402 H   0  0  0  0  0  0  0  0  0  0  0  0
  154.3647  138.4196  154.6725 H   0  0  0  0  0  0  0  0  0  0  0  0
  153.1577  138.9704  156.7785 H   0  0  0  0  0  0  0  0  0  0  0  0
  150.9716  139.9307  156.8740 H   0  0  0  0  0  0  0  0  0  0  0  0
  151.9880  141.0299  155.9778 H   0  0  0  0  0  0  0  0  0  0  0  0
  150.1045  142.0019  154.5669 H   0  0  0  0  0  0  0  0  0  0  0  0
  147.8378  141.7055  153.5929 H   0  0  0  0  0  0  0  0  0  0  0  0
  147.8890  139.9801  153.9322 H   0  0  0  0  0  0  0  0  0  0  0  0
  148.9491  140.6897  152.7245 H   0  0  0  0  0  0  0  0  0  0  0  0
  147.8606  141.6947  156.0494 H   0  0  0  0  0  0  0  0  0  0  0  0
  148.8030  140.3940  156.7422 H   0  0  0  0  0  0  0  0  0  0  0  0
  149.6666  143.2017  156.7786 H   0  0  0  0  0  0  0  0  0  0  0  0
  151.7459  143.4476  158.2377 H   0  0  0  0  0  0  0  0  0  0  0  0
  150.3119  143.7995  159.1460 H   0  0  0  0  0  0  0  0  0  0  0  0
  150.5554  143.9497  161.2524 H   0  0  0  0  0  0  0  0  0  0  0  0
  151.5282  143.3143  163.4458 H   0  0  0  0  0  0  0  0  0  0  0  0
  153.2509  141.4559  163.4913 H   0  0  0  0  0  0  0  0  0  0  0  0
  153.9152  140.3634  161.4432 H   0  0  0  0  0  0  0  0  0  0  0  0
  149.3677  138.4098  155.6424 H   0  0  0  0  0  0  0  0  0  0  0  0
  149.3397  138.4606  153.8838 H   0  0  0  0  0  0  0  0  0  0  0  0
  151.6316  137.6552  153.7110 H   0  0  0  0  0  0  0  0  0  0  0  0
  149.8542  135.9227  153.8720 H   0  0  0  0  0  0  0  0  0  0  0  0
  150.0107  135.9123  155.6278 H   0  0  0  0  0  0  0  0  0  0  0  0
  151.3492  135.3702  154.6190 H   0  0  0  0  0  0  0  0  0  0  0  0
  151.0810  140.0622  153.9546 H   0  0  0  0  0  0  0  0  0  0  0  0
  1  2  1  0  0  0  0
  1 23  1  0  0  0  0
  1 24  1  0  0  0  0
  1 25  1  0  0  0  0
  2 22  1  0  0  0  0
  2  3  1  0  0  0  0
  2 26  1  0  0  0  0
  3  4  1  0  0  0  0
  3 27  1  0  0  0  0
  3 28  1  0  0  0  0
  4  5  1  0  0  0  0
  4 19  1  0  0  0  0
  4 48  1  0  0  0  0
  5  6  1  0  0  0  0
  5  7  1  0  0  0  0
  5 29  1  0  0  0  0
  6 30  1  0  0  0  0
  6 31  1  0  0  0  0
  6 32  1  0  0  0  0
  7  8  1  0  0  0  0
  7 33  1  0  0  0  0
  7 34  1  0  0  0  0
  8  9  1  0  0  0  0
  8 35  1  0  0  0  0
  9 10  2  0  0  0  0
  9 11  1  0  0  0  0
 11 12  1  0  0  0  0
 11 36  1  0  0  0  0
 11 37  1  0  0  0  0
 12 17  1  0  0  0  0
 12 13  1  0  0  0  0
 13 14  2  0  0  0  0
 13 38  1  0  0  0  0
 14 15  1  0  0  0  0
 14 39  1  0  0  0  0
 15 16  2  0  0  0  0
 15 40  1  0  0  0  0
 16 17  1  0  0  0  0
 16 41  1  0  0  0  0
 17 18  2  0  0  0  0
 19 20  1  0  0  0  0
 19 42  1  0  0  0  0
 19 43  1  0  0  0  0
 20 21  1  0  0  0  0
 20 22  1  0  0  0  0
 20 44  1  0  0  0  0
 21 45  1  0  0  0  0
 21 46  1  0  0  0  0
 21 47  1  0  0  0  0
M  CHG  1   4   1
M  END
> <s_m_source_file>
AV-unprocessed.smi

> <i_m_source_file_index>
1795

> <i_lp_mmshare_version>
43012

> <i_f3d_flags>
0

> <s_epik_input>
W0NIM11bQ0BASF0xW0NIMl1OKFtDSDJdW0NASF0oTzEpW0NIM10pW0NASF0oW0NIM10pW0NIMl1bTkhdQyg9TylbQ0gyXW4yW2NIXVtjSF1bY0hdW2NIXWMyPU8=

> <s_epik_cmdline>
J2VwaWtfcHl0aG9uJywgJy1waCcsICc3LjAnLCAnLXRuJywgJzgnLCAnLW1hJywgJzIwMCcsICctbWV0YWxfYmluZGluZycsICctaW1hZScsICc8aW5maWxlLm1hZT4nLCAnLW9tYWUnLCAnPG91dGZpbGUubWFlPic=

> <r_lp_tautomer_probability>
1

> <r_epik_Ionization_Penalty>
0.656654

> <r_epik_Ionization_Penalty_Charging>
0.656654

> <r_epik_Ionization_Penalty_Neutral>
8.90321e-08

> <r_epik_State_Penalty>
0.675641

> <r_epik_Charging_Adjusted_Penalty>
1.33229

> <i_epik_Tot_Q>
1

> <i_epik_Tot_abs_Q>
1

> <r_epik_Metal_State_Penalty>
0.675691

> <b_epik_Metal_Only>
0

> <s_lp_Force_Field>
OPLS_2005

> <r_lp_Energy>
30.8259

> <b_lp_Chiralities_Consistent>
1

> <s_lp_Variant>
AV-unprocessed.smi:1795-14

> <Gold.Version>
5.8.1

> <Gold.Id.Protein>
6NUR|6NUR_protein|mol2

> <Gold.PLP.Fitness>
50.5300

> <Gold.PLP.PLP>
-48.0665

> <Gold.PLP.part.hbond>
-2.0000

> <Gold.PLP.part.metal>
0.0000

> <Gold.PLP.part.buried>
-1.3843

> <Gold.PLP.part.nonpolar>
-43.1417

> <Gold.PLP.part.repulsive>
0.6808

> <Gold.PLP.ligand.clash>
0.0000

> <Gold.PLP.ligand.torsion>
0.5811

> <Gold.PLP.Chemscore.Hbond>
1.1810

> <Gold.PLP.Chemscore.CHOScore>
0.0000

> <Gold.PLP.Chemscore.Metal>
0.0000

> <Gold.Chemscore.Hbonds>
donor molecule, donor type, donor heavy atom, donor atom, acceptor molecule, acceptor atom, score
      L1  H     8    35       P1  8028  0.95

> <Gold.PLP.Chemscore.Internal.Correction>
0.0825

> <Gold.Rescore>
     Score         DG    S(hbond)    S(metal)    S(lipo)     H(rot)  DE(clash)    DE(int)     intcor
     14.51     -16.69       1.33        0.00      99.14       1.89       1.52       0.66       ----

> <Gold.Chemscore.Fitness>
14.5126

> <Gold.Chemscore.DG>
-16.6880

> <Gold.Chemscore.ZeroCoef>
-5.4800

> <Gold.Chemscore.Hbond>
1.3291

> <Gold.Chemscore.Metal>
0.0000

> <Gold.Chemscore.Lipo>
99.1417

> <Gold.Chemscore.Internal_Hbond>
0.0000

> <Gold.Chemscore.DEClash>
1.5181

> <Gold.Chemscore.DEInternal>
0.6573

> <Gold.Chemscore.Rot>
1.8870

> <Gold.Chemscore.Internal.Correction>
   9.000000E+99

> <Gold.Chemscore.Hbonds>
donor molecule, donor type, donor heavy atom, donor atom, acceptor molecule, acceptor atom, score
      L1  H     8    35       P1  8028  0.86

> <Gold.Chemscore.Hbond.Weighted>
-4.4392

> <Gold.Chemscore.Metal.Weighted>
-0.0000

> <Gold.Chemscore.Lipo.Weighted>
-11.5996

> <Gold.Chemscore.Internal_Hbond.Weighted>
0.0000

> <Gold.Chemscore.DEClash.Weighted>
1.5181

> <Gold.Chemscore.DEInternal.Weighted>
0.6573

> <Gold.Chemscore.Rot.Weighted>
4.8308

> <Gold.Chemscore.Internal.Correction.Weighted>
   9.000000E+99

> <Gold.Protein.RotatedTorsions>
[ 6907 6896 6895 6894 ] final   47.97 input  -60.11 | X-H torsion
[ 7974 7965 7964 7962 ] final  174.29 input  175.53 | X-H torsion
[ 8008 7997 7996 7995 ] final   31.25 input   59.86 | X-H torsion
[ 10167 10162 10161 10158 ] final -136.69 input  -65.29 | X-H torsion
[ 10718 10713 10712 10709 ] final  -49.76 input   66.30 | X-H torsion
[ 10763 10752 10751 10750 ] final  101.63 input  -60.55 | X-H torsion
[ 11005 11000 10999 10996 ] final   -1.17 input  -57.11 | X-H torsion

> <Gold.Protein.ActiveResidues>
 VAL166  LYS551  ARG553  GLY616  TRP617  ASP618  TYR619  PRO620  LYS621  CYS622 
 ASP623  PHE694  ASN695  SER759  ASP760  ASP761  ALA762  ILE779  LEU786  VAL792 
 PHE793  MET794  SER795  GLU796  ALA797  LYS798  CYS799  TRP800  GLU811  SER814 

> <Gold.Protein.RotatedAtoms>
  152.2742  134.7900  160.0408 H   0  0  0  0  0  0  0  0  0  0  0  0  # atno 6907 bound_to 6896
  151.8502  133.3433  159.3679 H   0  0  0  0  0  0  0  0  0  0  0  0  # atno 6908 bound_to 6896
  150.7164  134.5235  159.5709 H   0  0  0  0  0  0  0  0  0  0  0  0  # atno 6909 bound_to 6896
  144.7225  139.9774  143.6438 H   0  0  0  0  0  0  0  0  0  0  0  0  # atno 7974 bound_to 7965
  155.1034  140.3232  155.4541 H   0  0  0  0  0  0  0  0  0  0  0  0  # atno 8008 bound_to 7997
  156.2711  140.2057  156.6107 H   0  0  0  0  0  0  0  0  0  0  0  0  # atno 8009 bound_to 7997
  154.6811  140.0526  157.0254 H   0  0  0  0  0  0  0  0  0  0  0  0  # atno 8010 bound_to 7997
  139.8653  143.7026  152.2646 H   0  0  0  0  0  0  0  0  0  0  0  0  # atno 10167 bound_to 10162
  156.1864  130.4151  149.9434 H   0  0  0  0  0  0  0  0  0  0  0  0  # atno 10718 bound_to 10713
  153.3292  135.4038  155.1481 H   0  0  0  0  0  0  0  0  0  0  0  0  # atno 10763 bound_to 10752
  154.8619  135.3606  154.5494 H   0  0  0  0  0  0  0  0  0  0  0  0  # atno 10764 bound_to 10752
  153.5931  135.7073  153.5474 H   0  0  0  0  0  0  0  0  0  0  0  0  # atno 10765 bound_to 10752
  140.6444  133.9460  155.8344 H   0  0  0  0  0  0  0  0  0  0  0  0  # atno 11005 bound_to 11000
  146.0514  139.3515  143.0637 LP  0  0  0  0  0  0  0  0  0  0  0  0  # atno 17320 bound_to 7965
  145.8209  140.9679  143.0899 LP  0  0  0  0  0  0  0  0  0  0  0  0  # atno 17321 bound_to 7965
  139.7335  144.7577  151.0764 LP  0  0  0  0  0  0  0  0  0  0  0  0  # atno 17342 bound_to 10162
  140.7769  143.5059  150.9713 LP  0  0  0  0  0  0  0  0  0  0  0  0  # atno 17343 bound_to 10162
  156.7188  130.8999  151.3616 LP  0  0  0  0  0  0  0  0  0  0  0  0  # atno 17370 bound_to 10713
  157.6901  130.9225  150.0491 LP  0  0  0  0  0  0  0  0  0  0  0  0  # atno 17371 bound_to 10713
  141.0583  134.0384  157.3693 LP  0  0  0  0  0  0  0  0  0  0  0  0  # atno 17394 bound_to 11000
  139.9068  135.0181  156.7522 LP  0  0  0  0  0  0  0  0  0  0  0  0  # atno 17395 bound_to 11000

$$$$
