AV-unprocessed.smi:2171|AV-procd|sdf|8830|dock1
  -GOLD-   2272012 23D 1   1.00000     0.00000
 Structure written by MMmdl.
 39 41  0  0  0  0  0  0  0  0  2 V2000
  153.5211  140.0459  158.6047 O   0  0  0  0  0  0  0  0  0  0  0  0
  152.7635  141.0106  158.7018 C   0  0  0  0  0  0  0  0  0  0  0  0
  153.1558  142.2056  159.5754 C   0  0  0  0  0  0  0  0  0  0  0  0
  152.1888  143.2867  159.4834 N   0  0  0  0  0  0  0  0  0  0  0  0
  152.3713  144.5598  158.9838 C   0  0  0  0  0  0  0  0  0  0  0  0
  151.1835  145.2210  159.1112 C   0  0  0  0  0  0  0  0  0  0  0  0
  150.3213  144.2566  159.7041 C   0  0  0  0  0  0  0  0  0  0  0  0
  150.9252  143.1003  159.9251 N   0  0  0  0  0  0  0  0  0  0  0  0
  151.5724  141.0757  158.0845 N   0  0  0  0  0  0  0  0  0  0  0  0
  151.0351  140.0674  157.1732 C   0  0  2  0  0  0  0  0  0  0  0  0
  151.9204  139.8541  155.9302 C   0  0  0  0  0  0  0  0  0  0  0  0
  150.9314  139.7101  154.7690 C   0  0  0  0  0  0  0  0  0  0  0  0
  149.8252  140.5878  155.1684 N   0  3  1  0  0  0  0  0  0  0  0  0
  148.5615  140.5210  154.4072 C   0  0  0  0  0  0  0  0  0  0  0  0
  147.6368  141.6565  154.8964 C   0  0  0  0  0  0  0  0  0  0  0  0
  147.4596  141.6477  156.4320 C   0  0  0  0  0  0  0  0  0  0  0  0
  148.8159  141.5844  157.1679 C   0  0  0  0  0  0  0  0  0  0  0  0
  149.6301  140.3999  156.6165 C   0  0  2  0  0  0  0  0  0  0  0  0
  153.2332  141.8857  160.6152 H   0  0  0  0  0  0  0  0  0  0  0  0
  154.1369  142.5820  159.2811 H   0  0  0  0  0  0  0  0  0  0  0  0
  153.3206  144.8861  158.5850 H   0  0  0  0  0  0  0  0  0  0  0  0
  150.9628  146.2381  158.8228 H   0  0  0  0  0  0  0  0  0  0  0  0
  149.2820  144.3619  159.9784 H   0  0  0  0  0  0  0  0  0  0  0  0
  151.0154  141.9059  158.2270 H   0  0  0  0  0  0  0  0  0  0  0  0
  150.9748  139.1143  157.7028 H   0  0  0  0  0  0  0  0  0  0  0  0
  152.5503  140.7288  155.7590 H   0  0  0  0  0  0  0  0  0  0  0  0
  152.5786  138.9899  156.0258 H   0  0  0  0  0  0  0  0  0  0  0  0
  151.3610  140.0028  153.8105 H   0  0  0  0  0  0  0  0  0  0  0  0
  150.5771  138.6808  154.6914 H   0  0  0  0  0  0  0  0  0  0  0  0
  148.7660  140.6348  153.3421 H   0  0  0  0  0  0  0  0  0  0  0  0
  148.0902  139.5467  154.5448 H   0  0  0  0  0  0  0  0  0  0  0  0
  148.0595  142.6156  154.5936 H   0  0  0  0  0  0  0  0  0  0  0  0
  146.6648  141.5830  154.4077 H   0  0  0  0  0  0  0  0  0  0  0  0
  146.9021  142.5291  156.7498 H   0  0  0  0  0  0  0  0  0  0  0  0
  146.8561  140.7848  156.7169 H   0  0  0  0  0  0  0  0  0  0  0  0
  149.3609  142.5193  157.0300 H   0  0  0  0  0  0  0  0  0  0  0  0
  148.6468  141.4681  158.2389 H   0  0  0  0  0  0  0  0  0  0  0  0
  149.0307  139.4964  156.7499 H   0  0  0  0  0  0  0  0  0  0  0  0
  150.1761  141.5280  155.0555 H   0  0  0  0  0  0  0  0  0  0  0  0
  1  2  2  0  0  0  0
  2  3  1  0  0  0  0
  2  9  1  0  0  0  0
  3  4  1  0  0  0  0
  3 19  1  0  0  0  0
  3 20  1  0  0  0  0
  4  8  1  0  0  0  0
  4  5  1  0  0  0  0
  5  6  2  0  0  0  0
  5 21  1  0  0  0  0
  6  7  1  0  0  0  0
  6 22  1  0  0  0  0
  7  8  2  0  0  0  0
  7 23  1  0  0  0  0
  9 10  1  0  0  0  0
  9 24  1  0  0  0  0
 10 18  1  0  0  0  0
 10 11  1  0  0  0  0
 10 25  1  0  0  0  0
 11 12  1  0  0  0  0
 11 26  1  0  0  0  0
 11 27  1  0  0  0  0
 12 13  1  0  0  0  0
 12 28  1  0  0  0  0
 12 29  1  0  0  0  0
 13 18  1  0  0  0  0
 13 14  1  0  0  0  0
 13 39  1  0  0  0  0
 14 15  1  0  0  0  0
 14 30  1  0  0  0  0
 14 31  1  0  0  0  0
 15 16  1  0  0  0  0
 15 32  1  0  0  0  0
 15 33  1  0  0  0  0
 16 17  1  0  0  0  0
 16 34  1  0  0  0  0
 16 35  1  0  0  0  0
 17 18  1  0  0  0  0
 17 36  1  0  0  0  0
 17 37  1  0  0  0  0
 18 38  1  0  0  0  0
M  CHG  1  13   1
M  END
> <s_m_source_file>
AV-unprocessed.smi

> <i_m_source_file_index>
2171

> <i_lp_mmshare_version>
43012

> <i_f3d_flags>
0

> <s_epik_input>
bjFbY0hdW2NIXVtjSF1uMVtDSDJdQyg9TylbTkhdW0NASF0oW0NIMl1bQ0gyXTIpW0NAQEhdKE4yMylbQ0gyXVtDSDJdW0NIMl1bQ0gyXTM=

> <s_epik_cmdline>
J2VwaWtfcHl0aG9uJywgJy1waCcsICc3LjAnLCAnLXRuJywgJzgnLCAnLW1hJywgJzIwMCcsICctbWV0YWxfYmluZGluZycsICctaW1hZScsICc8aW5maWxlLm1hZT4nLCAnLW9tYWUnLCAnPG91dGZpbGUubWFlPic=

> <r_lp_tautomer_probability>
1

> <r_epik_Ionization_Penalty>
0.00204179

> <r_epik_Ionization_Penalty_Charging>
0.00203239

> <r_epik_Ionization_Penalty_Neutral>
9.40205e-06

> <r_epik_State_Penalty>
0.00138983

> <r_epik_Charging_Adjusted_Penalty>
0.00342221

> <i_epik_Tot_Q>
1

> <i_epik_Tot_abs_Q>
1

> <r_epik_Metal_State_Penalty>
-0

> <b_epik_Metal_Only>
0

> <s_lp_Force_Field>
OPLS_2005

> <r_lp_Energy>
41.8247

> <b_lp_Chiralities_Consistent>
1

> <s_lp_Variant>
AV-unprocessed.smi:2171-5

> <Gold.Version>
5.8.1

> <Gold.Id.Protein>
6NUR|6NUR_protein|mol2

> <Gold.PLP.Fitness>
40.5719

> <Gold.PLP.PLP>
-37.6565

> <Gold.PLP.part.hbond>
-1.6361

> <Gold.PLP.part.metal>
0.0000

> <Gold.PLP.part.buried>
-3.1784

> <Gold.PLP.part.nonpolar>
-32.3984

> <Gold.PLP.part.repulsive>
0.2478

> <Gold.PLP.ligand.clash>
0.0000

> <Gold.PLP.ligand.torsion>
0.0438

> <Gold.PLP.Chemscore.Hbond>
1.0000

> <Gold.PLP.Chemscore.CHOScore>
0.0000

> <Gold.PLP.Chemscore.Metal>
0.0000

> <Gold.Chemscore.Hbonds>
donor molecule, donor type, donor heavy atom, donor atom, acceptor molecule, acceptor atom, score
      P1  H  7997  8009       L1     1  0.99

> <Gold.PLP.Chemscore.Internal.Correction>
0.0030

> <Gold.Rescore>
     Score         DG    S(hbond)    S(metal)    S(lipo)     H(rot)  DE(clash)    DE(int)     intcor
     14.73     -14.78       0.89        0.00      85.61       1.44       0.03       0.03       ----

> <Gold.Chemscore.Fitness>
14.7253

> <Gold.Chemscore.DG>
-14.7842

> <Gold.Chemscore.ZeroCoef>
-5.4800

> <Gold.Chemscore.Hbond>
0.8911

> <Gold.Chemscore.Metal>
0.0000

> <Gold.Chemscore.Lipo>
85.6141

> <Gold.Chemscore.Internal_Hbond>
0.0000

> <Gold.Chemscore.DEClash>
0.0253

> <Gold.Chemscore.DEInternal>
0.0336

> <Gold.Chemscore.Rot>
1.4410

> <Gold.Chemscore.Internal.Correction>
   9.000000E+99

> <Gold.Chemscore.Hbonds>
donor molecule, donor type, donor heavy atom, donor atom, acceptor molecule, acceptor atom, score
      P1  H  7997  8009       L1     1  0.91

> <Gold.Chemscore.Hbond.Weighted>
-2.9763

> <Gold.Chemscore.Metal.Weighted>
-0.0000

> <Gold.Chemscore.Lipo.Weighted>
-10.0168

> <Gold.Chemscore.Internal_Hbond.Weighted>
0.0000

> <Gold.Chemscore.DEClash.Weighted>
0.0253

> <Gold.Chemscore.DEInternal.Weighted>
0.0336

> <Gold.Chemscore.Rot.Weighted>
3.6889

> <Gold.Chemscore.Internal.Correction.Weighted>
   9.000000E+99

> <Gold.Protein.RotatedTorsions>
[ 6907 6896 6895 6894 ] final -132.92 input  -60.11 | X-H torsion
[ 7974 7965 7964 7962 ] final    1.43 input  175.53 | X-H torsion
[ 8008 7997 7996 7995 ] final  137.71 input   59.86 | X-H torsion
[ 10167 10162 10161 10158 ] final    8.95 input  -65.29 | X-H torsion
[ 10718 10713 10712 10709 ] final  164.87 input   66.30 | X-H torsion
[ 10763 10752 10751 10750 ] final  177.81 input  -60.55 | X-H torsion
[ 11005 11000 10999 10996 ] final  -73.66 input  -57.11 | X-H torsion

> <Gold.Protein.ActiveResidues>
 VAL166  LYS551  ARG553  GLY616  TRP617  ASP618  TYR619  PRO620  LYS621  CYS622 
 ASP623  PHE694  ASN695  SER759  ASP760  ASP761  ALA762  ILE779  LEU786  VAL792 
 PHE793  MET794  SER795  GLU796  ALA797  LYS798  CYS799  TRP800  GLU811  SER814 

> <Gold.Protein.RotatedAtoms>
  150.9680  133.6374  159.2742 H   0  0  0  0  0  0  0  0  0  0  0  0  # atno 6907 bound_to 6896
  151.3673  135.0914  159.9463 H   0  0  0  0  0  0  0  0  0  0  0  0  # atno 6908 bound_to 6896
  152.5172  133.9242  159.7603 H   0  0  0  0  0  0  0  0  0  0  0  0  # atno 6909 bound_to 6896
  146.2440  140.0988  142.8348 H   0  0  0  0  0  0  0  0  0  0  0  0  # atno 7974 bound_to 7965
  156.3001  140.2412  156.3954 H   0  0  0  0  0  0  0  0  0  0  0  0  # atno 8008 bound_to 7997
  154.8575  140.0421  157.1664 H   0  0  0  0  0  0  0  0  0  0  0  0  # atno 8009 bound_to 7997
  154.8932  140.2966  155.5363 H   0  0  0  0  0  0  0  0  0  0  0  0  # atno 8010 bound_to 7997
  140.6284  143.8049  150.7263 H   0  0  0  0  0  0  0  0  0  0  0  0  # atno 10167 bound_to 10162
  157.0882  131.0410  151.2548 H   0  0  0  0  0  0  0  0  0  0  0  0  # atno 10718 bound_to 10713
  154.4994  135.2783  155.1433 H   0  0  0  0  0  0  0  0  0  0  0  0  # atno 10763 bound_to 10752
  154.3072  135.6236  153.5453 H   0  0  0  0  0  0  0  0  0  0  0  0  # atno 10764 bound_to 10752
  152.9900  135.5711  154.5434 H   0  0  0  0  0  0  0  0  0  0  0  0  # atno 10765 bound_to 10752
  141.1625  133.6885  156.7245 H   0  0  0  0  0  0  0  0  0  0  0  0  # atno 11005 bound_to 11000
  145.0586  140.9071  143.4952 LP  0  0  0  0  0  0  0  0  0  0  0  0  # atno 17320 bound_to 7965
  145.1100  139.2764  143.5642 LP  0  0  0  0  0  0  0  0  0  0  0  0  # atno 17321 bound_to 7965
  140.1655  143.4239  152.2037 LP  0  0  0  0  0  0  0  0  0  0  0  0  # atno 17342 bound_to 10162
  139.5501  144.7331  151.4461 LP  0  0  0  0  0  0  0  0  0  0  0  0  # atno 17343 bound_to 10162
  157.4743  130.7727  149.7353 LP  0  0  0  0  0  0  0  0  0  0  0  0  # atno 17370 bound_to 10713
  155.9905  130.3944  150.3026 LP  0  0  0  0  0  0  0  0  0  0  0  0  # atno 17371 bound_to 10713
  140.2791  134.8331  157.3917 LP  0  0  0  0  0  0  0  0  0  0  0  0  # atno 17394 bound_to 11000
  140.1450  134.4923  155.8003 LP  0  0  0  0  0  0  0  0  0  0  0  0  # atno 17395 bound_to 11000

$$$$
