AV-unprocessed.smi:3000|AV-procd|sdf|11430|dock1
  -GOLD-   2272016353D 1   1.00000     0.00000
 Structure written by MMmdl.
 44 45  0  0  0  0  0  0  0  0  1 V2000
  143.7007  132.5166  149.8951 C   0  0  0  0  0  0  0  0  0  0  0  0
  144.2187  133.4570  150.8655 N   0  0  0  0  0  0  0  0  0  0  0  0
  145.3890  134.1874  150.8100 C   0  0  0  0  0  0  0  0  0  0  0  0
  145.4189  134.9234  151.9608 C   0  0  0  0  0  0  0  0  0  0  0  0
  146.3986  135.8419  152.4161 N   0  0  0  0  0  0  0  0  0  0  0  0
  146.2082  136.9127  153.2039 C   0  0  0  0  0  0  0  0  0  0  0  0
  145.1236  137.2519  153.6747 O   0  0  0  0  0  0  0  0  0  0  0  0
  147.3624  137.5701  153.4081 N   0  0  0  0  0  0  0  0  0  0  0  0
  147.6082  138.7789  154.2107 C   0  0  2  0  0  0  0  0  0  0  0  0
  146.9821  138.4539  155.5869 C   0  0  0  0  0  0  0  0  0  0  0  0
  146.7868  139.9617  153.6135 C   0  0  0  0  0  0  0  0  0  0  0  0
  146.9220  140.1126  152.2145 O   0  0  0  0  0  0  0  0  0  0  0  0
  149.1438  139.0882  154.3568 C   0  0  0  0  0  0  0  0  0  0  0  0
  150.0249  137.8424  154.6336 C   0  0  0  0  0  0  0  0  0  0  0  0
  151.5212  138.1963  154.6335 C   0  0  0  0  0  0  0  0  0  0  0  0
  151.8337  139.3026  155.6516 C   0  0  0  0  0  0  0  0  0  0  0  0
  150.9642  140.5435  155.4023 C   0  0  0  0  0  0  0  0  0  0  0  0
  149.4694  140.1847  155.4027 C   0  0  0  0  0  0  0  0  0  0  0  0
  144.2337  134.5875  152.6657 C   0  0  0  0  0  0  0  0  0  0  0  0
  143.5125  133.7009  151.9964 N   0  0  0  0  0  0  0  0  0  0  0  0
  144.4492  132.3229  149.1260 H   0  0  0  0  0  0  0  0  0  0  0  0
  142.8069  132.9283  149.4256 H   0  0  0  0  0  0  0  0  0  0  0  0
  143.4472  131.5767  150.3868 H   0  0  0  0  0  0  0  0  0  0  0  0
  146.0727  134.1144  149.9771 H   0  0  0  0  0  0  0  0  0  0  0  0
  147.3427  135.6681  152.1040 H   0  0  0  0  0  0  0  0  0  0  0  0
  148.1795  137.1846  152.9581 H   0  0  0  0  0  0  0  0  0  0  0  0
  147.0587  139.2889  156.2826 H   0  0  0  0  0  0  0  0  0  0  0  0
  147.4469  137.5882  156.0584 H   0  0  0  0  0  0  0  0  0  0  0  0
  145.9194  138.2270  155.4899 H   0  0  0  0  0  0  0  0  0  0  0  0
  145.7287  139.8704  153.8629 H   0  0  0  0  0  0  0  0  0  0  0  0
  147.1168  140.9042  154.0517 H   0  0  0  0  0  0  0  0  0  0  0  0
  147.7815  139.8136  151.9606 H   0  0  0  0  0  0  0  0  0  0  0  0
  149.4866  139.4806  153.3996 H   0  0  0  0  0  0  0  0  0  0  0  0
  149.7678  137.4024  155.5970 H   0  0  0  0  0  0  0  0  0  0  0  0
  149.8531  137.0686  153.8859 H   0  0  0  0  0  0  0  0  0  0  0  0
  152.1124  137.3082  154.8585 H   0  0  0  0  0  0  0  0  0  0  0  0
  151.8196  138.5205  153.6357 H   0  0  0  0  0  0  0  0  0  0  0  0
  151.6566  138.9301  156.6614 H   0  0  0  0  0  0  0  0  0  0  0  0
  152.8895  139.5698  155.5999 H   0  0  0  0  0  0  0  0  0  0  0  0
  151.1656  141.2955  156.1657 H   0  0  0  0  0  0  0  0  0  0  0  0
  151.2326  140.9946  154.4460 H   0  0  0  0  0  0  0  0  0  0  0  0
  148.8919  141.0881  155.2097 H   0  0  0  0  0  0  0  0  0  0  0  0
  149.1935  139.8501  156.4024 H   0  0  0  0  0  0  0  0  0  0  0  0
  143.8792  134.9496  153.6196 H   0  0  0  0  0  0  0  0  0  0  0  0
  1  2  1  0  0  0  0
  1 21  1  0  0  0  0
  1 22  1  0  0  0  0
  1 23  1  0  0  0  0
  2 20  1  0  0  0  0
  2  3  1  0  0  0  0
  3  4  2  0  0  0  0
  3 24  1  0  0  0  0
  4  5  1  0  0  0  0
  4 19  1  0  0  0  0
  5  6  1  0  0  0  0
  5 25  1  0  0  0  0
  6  7  2  0  0  0  0
  6  8  1  0  0  0  0
  8  9  1  0  0  0  0
  8 26  1  0  0  0  0
  9 10  1  0  0  0  0
  9 11  1  0  0  0  0
  9 13  1  0  0  0  0
 10 27  1  0  0  0  0
 10 28  1  0  0  0  0
 10 29  1  0  0  0  0
 11 12  1  0  0  0  0
 11 30  1  0  0  0  0
 11 31  1  0  0  0  0
 12 32  1  0  0  0  0
 13 18  1  0  0  0  0
 13 14  1  0  0  0  0
 13 33  1  0  0  0  0
 14 15  1  0  0  0  0
 14 34  1  0  0  0  0
 14 35  1  0  0  0  0
 15 16  1  0  0  0  0
 15 36  1  0  0  0  0
 15 37  1  0  0  0  0
 16 17  1  0  0  0  0
 16 38  1  0  0  0  0
 16 39  1  0  0  0  0
 17 18  1  0  0  0  0
 17 40  1  0  0  0  0
 17 41  1  0  0  0  0
 18 42  1  0  0  0  0
 18 43  1  0  0  0  0
 19 20  2  0  0  0  0
 19 44  1  0  0  0  0
M  END
> <s_m_source_file>
AV-unprocessed.smi

> <i_m_source_file_index>
3000

> <i_lp_mmshare_version>
43012

> <i_f3d_flags>
0

> <s_epik_input>
W0NIM11uMVtjSF1jKFtjSF1uMSlbTkhdQyg9TylbTkhdW0NAQF0oW0NIM10pKFtDSDJdW09IXSlbQ0hdMltDSDJdW0NIMl1bQ0gyXVtDSDJdW0NIMl0y

> <s_epik_cmdline>
J2VwaWtfcHl0aG9uJywgJy1waCcsICc3LjAnLCAnLXRuJywgJzgnLCAnLW1hJywgJzIwMCcsICctbWV0YWxfYmluZGluZycsICctaW1hZScsICc8aW5maWxlLm1hZT4nLCAnLW9tYWUnLCAnPG91dGZpbGUubWFlPic=

> <r_lp_tautomer_probability>
1

> <r_epik_Ionization_Penalty>
0.000189471

> <r_epik_Ionization_Penalty_Charging>
0

> <r_epik_Ionization_Penalty_Neutral>
0.000189471

> <r_epik_State_Penalty>
-0

> <r_epik_Charging_Adjusted_Penalty>
0

> <i_epik_Tot_Q>
0

> <i_epik_Tot_abs_Q>
0

> <r_epik_Metal_State_Penalty>
-0

> <b_epik_Metal_Only>
0

> <s_lp_Force_Field>
OPLS_2005

> <r_lp_Energy>
23.0127

> <b_lp_Chiralities_Consistent>
1

> <s_lp_Variant>
AV-unprocessed.smi:3000-2

> <Gold.Version>
5.8.1

> <Gold.Id.Protein>
6NUR|6NUR_protein|mol2

> <Gold.PLP.Fitness>
42.4511

> <Gold.PLP.PLP>
-31.7096

> <Gold.PLP.part.hbond>
-3.2038

> <Gold.PLP.part.metal>
0.0000

> <Gold.PLP.part.buried>
-4.0740

> <Gold.PLP.part.nonpolar>
-25.9647

> <Gold.PLP.part.repulsive>
0.3479

> <Gold.PLP.ligand.clash>
0.0000

> <Gold.PLP.ligand.torsion>
0.6552

> <Gold.PLP.Chemscore.Hbond>
3.0000

> <Gold.PLP.Chemscore.CHOScore>
0.9683

> <Gold.PLP.Chemscore.Metal>
0.0000

> <Gold.Chemscore.Hbonds>
donor molecule, donor type, donor heavy atom, donor atom, acceptor molecule, acceptor atom, score
      L1  H     5    25       P1  7948  1.00
      L1  H     8    26       P1  7948  1.00
      L1  H    12    32       P1  7957  1.00
      L1  C     3    24       P1  7921  0.97

> <Gold.PLP.Chemscore.Internal.Correction>
0.1469

> <Gold.Rescore>
     Score         DG    S(hbond)    S(metal)    S(lipo)     H(rot)  DE(clash)    DE(int)     intcor
     15.52     -18.61       2.92        0.00      73.01       2.02       0.19       2.90       ----

> <Gold.Chemscore.Fitness>
15.5237

> <Gold.Chemscore.DG>
-18.6139

> <Gold.Chemscore.ZeroCoef>
-5.4800

> <Gold.Chemscore.Hbond>
2.9202

> <Gold.Chemscore.Metal>
0.0000

> <Gold.Chemscore.Lipo>
73.0141

> <Gold.Chemscore.Internal_Hbond>
0.0000

> <Gold.Chemscore.DEClash>
0.1907

> <Gold.Chemscore.DEInternal>
2.8995

> <Gold.Chemscore.Rot>
2.0165

> <Gold.Chemscore.Internal.Correction>
   9.000000E+99

> <Gold.Chemscore.Hbonds>
donor molecule, donor type, donor heavy atom, donor atom, acceptor molecule, acceptor atom, score
      L1  H     5    25       P1  7948  0.95
      L1  H     8    26       P1  7948  0.97
      L1  H    12    32       P1  7957  0.95

> <Gold.Chemscore.Hbond.Weighted>
-9.7534

> <Gold.Chemscore.Metal.Weighted>
-0.0000

> <Gold.Chemscore.Lipo.Weighted>
-8.5427

> <Gold.Chemscore.Internal_Hbond.Weighted>
0.0000

> <Gold.Chemscore.DEClash.Weighted>
0.1907

> <Gold.Chemscore.DEInternal.Weighted>
2.8995

> <Gold.Chemscore.Rot.Weighted>
5.1622

> <Gold.Chemscore.Internal.Correction.Weighted>
   9.000000E+99

> <Gold.Protein.RotatedTorsions>
[ 6907 6896 6895 6894 ] final  124.75 input  -60.11 | X-H torsion
[ 7974 7965 7964 7962 ] final  162.16 input  175.53 | X-H torsion
[ 8008 7997 7996 7995 ] final   14.88 input   59.86 | X-H torsion
[ 10167 10162 10161 10158 ] final   -3.33 input  -65.29 | X-H torsion
[ 10718 10713 10712 10709 ] final  147.59 input   66.30 | X-H torsion
[ 10763 10752 10751 10750 ] final   29.84 input  -60.55 | X-H torsion
[ 11005 11000 10999 10996 ] final  119.00 input  -57.11 | X-H torsion

> <Gold.Protein.ActiveResidues>
 VAL166  LYS551  ARG553  GLY616  TRP617  ASP618  TYR619  PRO620  LYS621  CYS622 
 ASP623  PHE694  ASN695  SER759  ASP760  ASP761  ALA762  ILE779  LEU786  VAL792 
 PHE793  MET794  SER795  GLU796  ALA797  LYS798  CYS799  TRP800  GLU811  SER814 

> <Gold.Protein.RotatedAtoms>
  152.4051  133.6877  159.6349 H   0  0  0  0  0  0  0  0  0  0  0  0  # atno 6907 bound_to 6896
  150.7937  133.8723  159.3271 H   0  0  0  0  0  0  0  0  0  0  0  0  # atno 6908 bound_to 6896
  151.6479  135.1007  160.0206 H   0  0  0  0  0  0  0  0  0  0  0  0  # atno 6909 bound_to 6896
  144.7650  139.8001  143.6318 H   0  0  0  0  0  0  0  0  0  0  0  0  # atno 7974 bound_to 7965
  154.8548  140.2935  155.5576 H   0  0  0  0  0  0  0  0  0  0  0  0  # atno 8008 bound_to 7997
  156.3018  140.2489  156.3445 H   0  0  0  0  0  0  0  0  0  0  0  0  # atno 8009 bound_to 7997
  154.8982  140.0392  157.1867 H   0  0  0  0  0  0  0  0  0  0  0  0  # atno 8010 bound_to 7997
  140.6886  143.6552  150.8315 H   0  0  0  0  0  0  0  0  0  0  0  0  # atno 10167 bound_to 10162
  157.3191  131.0901  151.1255 H   0  0  0  0  0  0  0  0  0  0  0  0  # atno 10718 bound_to 10713
  153.0407  135.6479  154.0952 H   0  0  0  0  0  0  0  0  0  0  0  0  # atno 10763 bound_to 10752
  154.0659  135.2884  155.3318 H   0  0  0  0  0  0  0  0  0  0  0  0  # atno 10764 bound_to 10752
  154.6627  135.5385  153.8102 H   0  0  0  0  0  0  0  0  0  0  0  0  # atno 10765 bound_to 10752
  139.9130  134.9625  156.7588 H   0  0  0  0  0  0  0  0  0  0  0  0  # atno 11005 bound_to 11000
  146.1749  139.4915  142.9904 LP  0  0  0  0  0  0  0  0  0  0  0  0  # atno 17320 bound_to 7965
  145.6499  141.0265  143.1766 LP  0  0  0  0  0  0  0  0  0  0  0  0  # atno 17321 bound_to 7965
  140.0262  143.5491  152.2779 LP  0  0  0  0  0  0  0  0  0  0  0  0  # atno 17342 bound_to 10162
  139.6267  144.7638  151.2623 LP  0  0  0  0  0  0  0  0  0  0  0  0  # atno 17343 bound_to 10162
  157.2546  130.6630  149.5947 LP  0  0  0  0  0  0  0  0  0  0  0  0  # atno 17370 bound_to 10713
  155.9684  130.4527  150.5786 LP  0  0  0  0  0  0  0  0  0  0  0  0  # atno 17371 bound_to 10713
  140.6714  133.9556  155.7859 LP  0  0  0  0  0  0  0  0  0  0  0  0  # atno 17394 bound_to 11000
  141.0575  134.0395  157.3703 LP  0  0  0  0  0  0  0  0  0  0  0  0  # atno 17395 bound_to 11000

$$$$
