AV-unprocessed.smi:906|AV-procd|sdf|4105|dock1
  -GOLD-   22720 2 03D 1   1.00000     0.00000
 Structure written by MMmdl.
 48 49  0  0  0  0  0  0  0  0  2 V2000
  151.0840  145.2832  160.1380 C   0  0  0  0  0  0  0  0  0  0  0  0
  151.9292  144.0496  160.3752 C   0  0  0  0  0  0  0  0  0  0  0  0
  152.0904  143.0763  159.3666 C   0  0  0  0  0  0  0  0  0  0  0  0
  152.8877  141.9496  159.6439 C   0  0  0  0  0  0  0  0  0  0  0  0
  153.4871  141.8367  160.9156 C   0  0  0  0  0  0  0  0  0  0  0  0
  154.3348  140.6301  161.2788 C   0  0  0  0  0  0  0  0  0  0  0  0
  155.2357  140.8592  162.5072 C   0  0  0  0  0  0  0  0  0  0  0  0
  155.6824  139.6021  163.1026 N   0  0  0  0  0  0  0  0  0  0  0  0
  156.2891  138.5942  162.4513 C   0  0  0  0  0  0  0  0  0  0  0  0
  156.5169  138.6319  161.2416 O   0  0  0  0  0  0  0  0  0  0  0  0
  156.7055  137.5802  163.2495 N   0  0  0  0  0  0  0  0  0  0  0  0
  156.4109  137.4362  164.6824 C   0  0  0  0  0  0  0  0  0  0  0  0
  155.3484  136.3366  164.8700 C   0  0  0  0  0  0  0  0  0  0  0  0
  155.7748  135.0543  164.2435 N   0  3  0  0  0  0  0  0  0  0  0  0
  154.8297  133.9268  164.5055 C   0  0  1  0  0  0  0  0  0  0  0  0
  154.8116  132.8659  163.3857 C   0  0  0  0  0  0  0  0  0  0  0  0
  155.0425  133.3092  165.9052 C   0  0  0  0  0  0  0  0  0  0  0  0
  154.2739  132.2285  166.0425 F   0  0  0  0  0  0  0  0  0  0  0  0
  156.3149  132.9353  166.0372 F   0  0  0  0  0  0  0  0  0  0  0  0
  154.7537  134.1714  166.8789 F   0  0  0  0  0  0  0  0  0  0  0  0
  156.2101  135.2206  162.8270 C   0  0  0  0  0  0  0  0  0  0  0  0
  157.2591  136.3391  162.7008 C   0  0  0  0  0  0  0  0  0  0  0  0
  153.2628  142.8668  161.8531 C   0  0  0  0  0  0  0  0  0  0  0  0
  152.5019  143.9517  161.5950 N   0  0  0  0  0  0  0  0  0  0  0  0
  150.6774  145.2961  159.1263 H   0  0  0  0  0  0  0  0  0  0  0  0
  151.6813  146.1850  160.2756 H   0  0  0  0  0  0  0  0  0  0  0  0
  150.2506  145.3118  160.8406 H   0  0  0  0  0  0  0  0  0  0  0  0
  151.6145  143.1878  158.4035 H   0  0  0  0  0  0  0  0  0  0  0  0
  153.0263  141.1823  158.8964 H   0  0  0  0  0  0  0  0  0  0  0  0
  153.6815  139.7750  161.4570 H   0  0  0  0  0  0  0  0  0  0  0  0
  154.9501  140.3653  160.4182 H   0  0  0  0  0  0  0  0  0  0  0  0
  156.1187  141.4251  162.2100 H   0  0  0  0  0  0  0  0  0  0  0  0
  154.7165  141.4748  163.2437 H   0  0  0  0  0  0  0  0  0  0  0  0
  155.5555  139.5069  164.0995 H   0  0  0  0  0  0  0  0  0  0  0  0
  157.3278  137.1605  165.2058 H   0  0  0  0  0  0  0  0  0  0  0  0
  156.0697  138.3555  165.1582 H   0  0  0  0  0  0  0  0  0  0  0  0
  155.1724  136.1877  165.9361 H   0  0  0  0  0  0  0  0  0  0  0  0
  154.4028  136.6615  164.4338 H   0  0  0  0  0  0  0  0  0  0  0  0
  153.8309  134.3654  164.5367 H   0  0  0  0  0  0  0  0  0  0  0  0
  154.0136  132.1424  163.5537 H   0  0  0  0  0  0  0  0  0  0  0  0
  155.7457  132.3062  163.3382 H   0  0  0  0  0  0  0  0  0  0  0  0
  154.6385  133.3148  162.4076 H   0  0  0  0  0  0  0  0  0  0  0  0
  156.6334  134.2935  162.4448 H   0  0  0  0  0  0  0  0  0  0  0  0
  155.3546  135.4669  162.1972 H   0  0  0  0  0  0  0  0  0  0  0  0
  157.5745  136.4438  161.6615 H   0  0  0  0  0  0  0  0  0  0  0  0
  158.1604  136.0727  163.2547 H   0  0  0  0  0  0  0  0  0  0  0  0
  153.6978  142.8145  162.8402 H   0  0  0  0  0  0  0  0  0  0  0  0
  156.6139  134.8012  164.7460 H   0  0  0  0  0  0  0  0  0  0  0  0
  1  2  1  0  0  0  0
  1 25  1  0  0  0  0
  1 26  1  0  0  0  0
  1 27  1  0  0  0  0
  2 24  1  0  0  0  0
  2  3  2  0  0  0  0
  3  4  1  0  0  0  0
  3 28  1  0  0  0  0
  4  5  2  0  0  0  0
  4 29  1  0  0  0  0
  5  6  1  0  0  0  0
  5 23  1  0  0  0  0
  6  7  1  0  0  0  0
  6 30  1  0  0  0  0
  6 31  1  0  0  0  0
  7  8  1  0  0  0  0
  7 32  1  0  0  0  0
  7 33  1  0  0  0  0
  8  9  1  0  0  0  0
  8 34  1  0  0  0  0
  9 10  2  0  0  0  0
  9 11  1  0  0  0  0
 11 22  1  0  0  0  0
 11 12  1  0  0  0  0
 12 13  1  0  0  0  0
 12 35  1  0  0  0  0
 12 36  1  0  0  0  0
 13 14  1  0  0  0  0
 13 37  1  0  0  0  0
 13 38  1  0  0  0  0
 14 15  1  0  0  0  0
 14 21  1  0  0  0  0
 14 48  1  0  0  0  0
 15 16  1  0  0  0  0
 15 17  1  0  0  0  0
 15 39  1  0  0  0  0
 16 40  1  0  0  0  0
 16 41  1  0  0  0  0
 16 42  1  0  0  0  0
 17 18  1  0  0  0  0
 17 19  1  0  0  0  0
 17 20  1  0  0  0  0
 21 22  1  0  0  0  0
 21 43  1  0  0  0  0
 21 44  1  0  0  0  0
 22 45  1  0  0  0  0
 22 46  1  0  0  0  0
 23 24  2  0  0  0  0
 23 47  1  0  0  0  0
M  CHG  1  14   1
M  END
> <s_m_source_file>
AV-unprocessed.smi

> <i_m_source_file_index>
906

> <i_lp_mmshare_version>
43012

> <i_f3d_flags>
0

> <s_epik_input>
W0NIM11jMVtjSF1bY0hdYyhbY0hdbjEpW0NIMl1bQ0gyXVtOSF1DKD1PKU4yW0NIMl1bQ0gyXU4oW0NASF0oW0NIM10pQyhGKShGKUYpW0NIMl1bQ0gyXTI=

> <s_epik_cmdline>
J2VwaWtfcHl0aG9uJywgJy1waCcsICc3LjAnLCAnLXRuJywgJzgnLCAnLW1hJywgJzIwMCcsICctbWV0YWxfYmluZGluZycsICctaW1hZScsICc8aW5maWxlLm1hZT4nLCAnLW9tYWUnLCAnPG91dGZpbGUubWFlPic=

> <r_epik_Ionization_Penalty>
2.02136

> <r_epik_Ionization_Penalty_Charging>
1.96814

> <r_epik_Ionization_Penalty_Neutral>
0.0532286

> <r_epik_State_Penalty>
2.14285

> <r_epik_Charging_Adjusted_Penalty>
4.11098

> <i_epik_Tot_Q>
1

> <i_epik_Tot_abs_Q>
1

> <r_epik_Metal_State_Penalty>
2.1406

> <b_epik_Metal_Only>
0

> <s_lp_Force_Field>
OPLS_2005

> <r_lp_Energy>
51.1917

> <b_lp_Chiralities_Consistent>
1

> <s_lp_Variant>
AV-unprocessed.smi:906-6

> <Gold.Version>
5.8.1

> <Gold.Id.Protein>
6NUR|6NUR_protein|mol2

> <Gold.PLP.Fitness>
45.6106

> <Gold.PLP.PLP>
-47.4070

> <Gold.PLP.part.hbond>
0.0000

> <Gold.PLP.part.metal>
0.0000

> <Gold.PLP.part.buried>
-4.7587

> <Gold.PLP.part.nonpolar>
-43.1434

> <Gold.PLP.part.repulsive>
0.1444

> <Gold.PLP.ligand.clash>
0.0000

> <Gold.PLP.ligand.torsion>
1.3415

> <Gold.PLP.Chemscore.Hbond>
0.0000

> <Gold.PLP.Chemscore.CHOScore>
0.0000

> <Gold.PLP.Chemscore.Metal>
0.0000

> <Gold.PLP.Chemscore.Internal.Correction>
0.8866

> <Gold.Rescore>
     Score         DG    S(hbond)    S(metal)    S(lipo)     H(rot)  DE(clash)    DE(int)     intcor
     13.57     -16.16       0.00        0.00     126.69       1.62       0.05       2.54       ----

> <Gold.Chemscore.Fitness>
13.5722

> <Gold.Chemscore.DG>
-16.1630

> <Gold.Chemscore.ZeroCoef>
-5.4800

> <Gold.Chemscore.Hbond>
0.0000

> <Gold.Chemscore.Metal>
0.0000

> <Gold.Chemscore.Lipo>
126.6906

> <Gold.Chemscore.Internal_Hbond>
0.0000

> <Gold.Chemscore.DEClash>
0.0505

> <Gold.Chemscore.DEInternal>
2.5403

> <Gold.Chemscore.Rot>
1.6171

> <Gold.Chemscore.Internal.Correction>
   9.000000E+99

> <Gold.Chemscore.Hbond.Weighted>
-0.0000

> <Gold.Chemscore.Metal.Weighted>
-0.0000

> <Gold.Chemscore.Lipo.Weighted>
-14.8228

> <Gold.Chemscore.Internal_Hbond.Weighted>
0.0000

> <Gold.Chemscore.DEClash.Weighted>
0.0505

> <Gold.Chemscore.DEInternal.Weighted>
2.5403

> <Gold.Chemscore.Rot.Weighted>
4.1398

> <Gold.Chemscore.Internal.Correction.Weighted>
   9.000000E+99

> <Gold.Protein.RotatedTorsions>
[ 6907 6896 6895 6894 ] final   97.21 input  -60.11 | X-H torsion
[ 7974 7965 7964 7962 ] final -149.89 input  175.53 | X-H torsion
[ 8008 7997 7996 7995 ] final  126.60 input   59.86 | X-H torsion
[ 10167 10162 10161 10158 ] final  -14.76 input  -65.29 | X-H torsion
[ 10718 10713 10712 10709 ] final    5.28 input   66.30 | X-H torsion
[ 10763 10752 10751 10750 ] final  143.89 input  -60.55 | X-H torsion
[ 11005 11000 10999 10996 ] final -128.51 input  -57.11 | X-H torsion

> <Gold.Protein.ActiveResidues>
 VAL166  LYS551  ARG553  GLY616  TRP617  ASP618  TYR619  PRO620  LYS621  CYS622 
 ASP623  PHE694  ASN695  SER759  ASP760  ASP761  ALA762  ILE779  LEU786  VAL792 
 PHE793  MET794  SER795  GLU796  ALA797  LYS798  CYS799  TRP800  GLU811  SER814 

> <Gold.Protein.RotatedAtoms>
  152.5426  134.0767  159.8217 H   0  0  0  0  0  0  0  0  0  0  0  0  # atno 6907 bound_to 6896
  151.0875  133.5334  159.2624 H   0  0  0  0  0  0  0  0  0  0  0  0  # atno 6908 bound_to 6896
  151.2138  135.0500  159.8976 H   0  0  0  0  0  0  0  0  0  0  0  0  # atno 6909 bound_to 6896
  144.7940  140.5004  143.5753 H   0  0  0  0  0  0  0  0  0  0  0  0  # atno 7974 bound_to 7965
  156.2868  140.2689  156.2137 H   0  0  0  0  0  0  0  0  0  0  0  0  # atno 8008 bound_to 7997
  155.0238  140.0386  157.2465 H   0  0  0  0  0  0  0  0  0  0  0  0  # atno 8009 bound_to 7997
  154.7413  140.2725  155.6376 H   0  0  0  0  0  0  0  0  0  0  0  0  # atno 8010 bound_to 7997
  140.7207  143.5288  150.9545 H   0  0  0  0  0  0  0  0  0  0  0  0  # atno 10167 bound_to 10162
  156.9051  130.5735  149.5647 H   0  0  0  0  0  0  0  0  0  0  0  0  # atno 10718 bound_to 10713
  153.9798  135.2942  155.3421 H   0  0  0  0  0  0  0  0  0  0  0  0  # atno 10763 bound_to 10752
  154.7275  135.5082  153.8913 H   0  0  0  0  0  0  0  0  0  0  0  0  # atno 10764 bound_to 10752
  153.0860  135.6693  154.0063 H   0  0  0  0  0  0  0  0  0  0  0  0  # atno 10765 bound_to 10752
  140.9510  134.1065  157.4062 H   0  0  0  0  0  0  0  0  0  0  0  0  # atno 11005 bound_to 11000
  145.5721  139.1484  143.3282 LP  0  0  0  0  0  0  0  0  0  0  0  0  # atno 17320 bound_to 7965
  146.2202  140.5854  142.9020 LP  0  0  0  0  0  0  0  0  0  0  0  0  # atno 17321 bound_to 7965
  139.9007  143.6839  152.3131 LP  0  0  0  0  0  0  0  0  0  0  0  0  # atno 17342 bound_to 10162
  139.7187  144.7607  151.0990 LP  0  0  0  0  0  0  0  0  0  0  0  0  # atno 17343 bound_to 10162
  156.0563  130.5624  150.9099 LP  0  0  0  0  0  0  0  0  0  0  0  0  # atno 17370 bound_to 10713
  157.6002  131.0941  150.8972 LP  0  0  0  0  0  0  0  0  0  0  0  0  # atno 17371 bound_to 10713
  139.8847  135.0066  156.6390 LP  0  0  0  0  0  0  0  0  0  0  0  0  # atno 17394 bound_to 11000
  140.7602  133.8824  155.8412 LP  0  0  0  0  0  0  0  0  0  0  0  0  # atno 17395 bound_to 11000

$$$$
