AV-unprocessed.smi:1055|AV-procd|sdf|4626|dock7
  -GOLD-   22720 3133D 1   1.00000     0.00000
 Structure written by MMmdl.
 51 52  0  0  0  0  0  0  0  0  2 V2000
  146.5558  134.0065  152.0831 C   0  0  0  0  0  0  0  0  0  0  0  0
  145.3851  134.3526  151.5223 C   0  0  0  0  0  0  0  0  0  0  0  0
  144.3714  133.3165  151.0745 C   0  0  0  0  0  0  0  0  0  0  0  0
  144.9983  135.8051  151.2919 C   0  0  0  0  0  0  0  0  0  0  0  0
  146.0218  136.7416  151.8201 N   0  3  2  0  0  0  0  0  0  0  0  0
  146.0124  136.7999  153.3043 C   0  0  0  0  0  0  0  0  0  0  0  0
  147.1648  137.6676  153.8366 C   0  0  0  0  0  0  0  0  0  0  0  0
  147.1123  139.0857  153.2395 C   0  0  1  0  0  0  0  0  0  0  0  0
  148.2542  139.8838  153.6768 N   0  0  0  0  0  0  0  0  0  0  0  0
  148.6895  139.9780  154.9416 C   0  0  0  0  0  0  0  0  0  0  0  0
  148.1710  139.3775  155.8823 O   0  0  0  0  0  0  0  0  0  0  0  0
  149.7349  140.8177  155.0353 N   0  0  0  0  0  0  0  0  0  0  0  0
  150.4737  141.1792  156.1941 C   0  0  0  0  0  0  0  0  0  0  0  0
  150.7256  140.1846  157.1579 C   0  0  0  0  0  0  0  0  0  0  0  0
  151.4400  140.5182  158.3241 C   0  0  0  0  0  0  0  0  0  0  0  0
  151.8820  141.8522  158.5072 C   0  0  0  0  0  0  0  0  0  0  0  0
  152.6055  142.2388  159.6587 N   0  0  0  0  0  0  0  0  0  0  0  0
  153.2945  141.2377  160.4634 C   0  0  0  0  0  0  0  0  0  0  0  0
  152.6384  143.6422  160.0584 C   0  0  0  0  0  0  0  0  0  0  0  0
  151.6236  142.8104  157.5840 N   0  0  0  0  0  0  0  0  0  0  0  0
  150.9402  142.4864  156.4663 C   0  0  0  0  0  0  0  0  0  0  0  0
  147.0946  138.9931  151.7056 C   0  0  0  0  0  0  0  0  0  0  0  0
  145.9433  138.0986  151.2160 C   0  0  0  0  0  0  0  0  0  0  0  0
  146.8188  132.9702  152.2383 H   0  0  0  0  0  0  0  0  0  0  0  0
  147.2707  134.7535  152.3964 H   0  0  0  0  0  0  0  0  0  0  0  0
  144.1696  133.4215  150.0082 H   0  0  0  0  0  0  0  0  0  0  0  0
  143.4328  133.4371  151.6158 H   0  0  0  0  0  0  0  0  0  0  0  0
  144.7344  132.3035  151.2515 H   0  0  0  0  0  0  0  0  0  0  0  0
  144.8362  135.9977  150.2298 H   0  0  0  0  0  0  0  0  0  0  0  0
  144.0430  135.9756  151.7904 H   0  0  0  0  0  0  0  0  0  0  0  0
  145.0550  137.1941  153.6482 H   0  0  0  0  0  0  0  0  0  0  0  0
  146.1053  135.7928  153.7121 H   0  0  0  0  0  0  0  0  0  0  0  0
  147.1131  137.7130  154.9252 H   0  0  0  0  0  0  0  0  0  0  0  0
  148.1177  137.1959  153.5922 H   0  0  0  0  0  0  0  0  0  0  0  0
  146.1919  139.5759  153.5636 H   0  0  0  0  0  0  0  0  0  0  0  0
  148.7384  140.4157  152.9683 H   0  0  0  0  0  0  0  0  0  0  0  0
  149.9948  141.3019  154.1886 H   0  0  0  0  0  0  0  0  0  0  0  0
  150.3809  139.1721  157.0067 H   0  0  0  0  0  0  0  0  0  0  0  0
  151.6335  139.7454  159.0524 H   0  0  0  0  0  0  0  0  0  0  0  0
  152.5870  140.5038  160.8506 H   0  0  0  0  0  0  0  0  0  0  0  0
  153.8008  141.6923  161.3153 H   0  0  0  0  0  0  0  0  0  0  0  0
  154.0473  140.7201  159.8682 H   0  0  0  0  0  0  0  0  0  0  0  0
  151.6312  144.0048  160.2667 H   0  0  0  0  0  0  0  0  0  0  0  0
  153.0709  144.2559  159.2674 H   0  0  0  0  0  0  0  0  0  0  0  0
  153.2379  143.7872  160.9573 H   0  0  0  0  0  0  0  0  0  0  0  0
  150.7541  143.3115  155.7967 H   0  0  0  0  0  0  0  0  0  0  0  0
  146.9959  139.9888  151.2715 H   0  0  0  0  0  0  0  0  0  0  0  0
  148.0430  138.5915  151.3455 H   0  0  0  0  0  0  0  0  0  0  0  0
  145.9878  138.0314  150.1288 H   0  0  0  0  0  0  0  0  0  0  0  0
  144.9832  138.5536  151.4647 H   0  0  0  0  0  0  0  0  0  0  0  0
  146.9182  136.3567  151.5583 H   0  0  0  0  0  0  0  0  0  0  0  0
  1  2  2  0  0  0  0
  1 24  1  0  0  0  0
  1 25  1  0  0  0  0
  2  3  1  0  0  0  0
  2  4  1  0  0  0  0
  3 26  1  0  0  0  0
  3 27  1  0  0  0  0
  3 28  1  0  0  0  0
  4  5  1  0  0  0  0
  4 29  1  0  0  0  0
  4 30  1  0  0  0  0
  5 23  1  0  0  0  0
  5  6  1  0  0  0  0
  5 51  1  0  0  0  0
  6  7  1  0  0  0  0
  6 31  1  0  0  0  0
  6 32  1  0  0  0  0
  7  8  1  0  0  0  0
  7 33  1  0  0  0  0
  7 34  1  0  0  0  0
  8  9  1  0  0  0  0
  8 22  1  0  0  0  0
  8 35  1  0  0  0  0
  9 10  1  0  0  0  0
  9 36  1  0  0  0  0
 10 11  2  0  0  0  0
 10 12  1  0  0  0  0
 12 13  1  0  0  0  0
 12 37  1  0  0  0  0
 13 21  1  0  0  0  0
 13 14  2  0  0  0  0
 14 15  1  0  0  0  0
 14 38  1  0  0  0  0
 15 16  2  0  0  0  0
 15 39  1  0  0  0  0
 16 17  1  0  0  0  0
 16 20  1  0  0  0  0
 17 18  1  0  0  0  0
 17 19  1  0  0  0  0
 18 40  1  0  0  0  0
 18 41  1  0  0  0  0
 18 42  1  0  0  0  0
 19 43  1  0  0  0  0
 19 44  1  0  0  0  0
 19 45  1  0  0  0  0
 20 21  2  0  0  0  0
 21 46  1  0  0  0  0
 22 23  1  0  0  0  0
 22 47  1  0  0  0  0
 22 48  1  0  0  0  0
 23 49  1  0  0  0  0
 23 50  1  0  0  0  0
M  CHG  1   5   1
M  END
> <s_m_source_file>
AV-unprocessed.smi

> <i_m_source_file_index>
1055

> <i_lp_mmshare_version>
43012

> <i_f3d_flags>
0

> <s_epik_input>
W0NIMl09QyhbQ0gzXSlbQ0gyXU4xW0NIMl1bQ0gyXVtDSF0oW0NIMl1bQ0gyXTEpW05IXUMoPU8pW05IXWMyW2NIXVtjSF1jKE4oW0NIM10pW0NIM10pbltjSF0y

> <s_epik_cmdline>
J2VwaWtfcHl0aG9uJywgJy1waCcsICc3LjAnLCAnLXRuJywgJzgnLCAnLW1hJywgJzIwMCcsICctbWV0YWxfYmluZGluZycsICctaW1hZScsICc8aW5maWxlLm1hZT4nLCAnLW9tYWUnLCAnPG91dGZpbGUubWFlPic=

> <r_lp_tautomer_probability>
1

> <r_epik_Ionization_Penalty>
0.534133

> <r_epik_Ionization_Penalty_Charging>
0.0193505

> <r_epik_Ionization_Penalty_Neutral>
0.514782

> <r_epik_State_Penalty>
0.557749

> <r_epik_Charging_Adjusted_Penalty>
0.5771

> <i_epik_Tot_Q>
1

> <i_epik_Tot_abs_Q>
1

> <r_epik_Metal_State_Penalty>
0.306227

> <b_epik_Metal_Only>
0

> <s_lp_Force_Field>
OPLS_2005

> <r_lp_Energy>
20.3338

> <b_lp_Chiralities_Consistent>
1

> <s_lp_Variant>
AV-unprocessed.smi:1055-3

> <Gold.Version>
5.8.1

> <Gold.Id.Protein>
6NUR|6NUR_protein|mol2

> <Gold.PLP.Fitness>
47.2223

> <Gold.PLP.PLP>
-37.5343

> <Gold.PLP.part.hbond>
-2.0000

> <Gold.PLP.part.metal>
0.0000

> <Gold.PLP.part.buried>
4.7641

> <Gold.PLP.part.nonpolar>
-40.6035

> <Gold.PLP.part.repulsive>
0.3479

> <Gold.PLP.ligand.clash>
0.0000

> <Gold.PLP.ligand.torsion>
0.7635

> <Gold.PLP.Chemscore.Hbond>
2.7296

> <Gold.PLP.Chemscore.CHOScore>
1.0000

> <Gold.PLP.Chemscore.Metal>
0.0000

> <Gold.Chemscore.Hbonds>
donor molecule, donor type, donor heavy atom, donor atom, acceptor molecule, acceptor atom, score
      L1  H     5    51       P1  7948  2.00
      L1  H     9    36       P1  7957  0.72
      L1  C    21    46       P1  8028  1.00

> <Gold.PLP.Chemscore.Internal.Correction>
0.0263

> <Gold.Rescore>
     Score         DG    S(hbond)    S(metal)    S(lipo)     H(rot)  DE(clash)    DE(int)     intcor
     13.06     -18.91       1.49        0.00     101.33       1.33       2.47       3.38       ----

> <Gold.Chemscore.Fitness>
13.0602

> <Gold.Chemscore.DG>
-18.9098

> <Gold.Chemscore.ZeroCoef>
-5.4800

> <Gold.Chemscore.Hbond>
1.4880

> <Gold.Chemscore.Metal>
0.0000

> <Gold.Chemscore.Lipo>
101.3327

> <Gold.Chemscore.Internal_Hbond>
0.0000

> <Gold.Chemscore.DEClash>
2.4675

> <Gold.Chemscore.DEInternal>
3.3821

> <Gold.Chemscore.Rot>
1.3266

> <Gold.Chemscore.Internal.Correction>
   9.000000E+99

> <Gold.Chemscore.Hbonds>
donor molecule, donor type, donor heavy atom, donor atom, acceptor molecule, acceptor atom, score
      L1  H     5    51       P1  7948  0.89
      L1  H     9    36       P1  7957  0.68

> <Gold.Chemscore.Hbond.Weighted>
-4.9700

> <Gold.Chemscore.Metal.Weighted>
-0.0000

> <Gold.Chemscore.Lipo.Weighted>
-11.8559

> <Gold.Chemscore.Internal_Hbond.Weighted>
0.0000

> <Gold.Chemscore.DEClash.Weighted>
2.4675

> <Gold.Chemscore.DEInternal.Weighted>
3.3821

> <Gold.Chemscore.Rot.Weighted>
3.3962

> <Gold.Chemscore.Internal.Correction.Weighted>
   9.000000E+99

> <Gold.Protein.RotatedTorsions>
[ 6907 6896 6895 6894 ] final -130.58 input  -60.11 | X-H torsion
[ 7974 7965 7964 7962 ] final  -63.07 input  175.53 | X-H torsion
[ 8008 7997 7996 7995 ] final   60.09 input   59.86 | X-H torsion
[ 10167 10162 10161 10158 ] final  -86.15 input  -65.29 | X-H torsion
[ 10718 10713 10712 10709 ] final  139.96 input   66.30 | X-H torsion
[ 10763 10752 10751 10750 ] final -138.18 input  -60.55 | X-H torsion
[ 11005 11000 10999 10996 ] final  -51.30 input  -57.11 | X-H torsion

> <Gold.Protein.ActiveResidues>
 VAL166  LYS551  ARG553  GLY616  TRP617  ASP618  TYR619  PRO620  LYS621  CYS622 
 ASP623  PHE694  ASN695  SER759  ASP760  ASP761  ALA762  ILE779  LEU786  VAL792 
 PHE793  MET794  SER795  GLU796  ALA797  LYS798  CYS799  TRP800  GLU811  SER814 

> <Gold.Protein.RotatedAtoms>
  150.9413  133.6653  159.2789 H   0  0  0  0  0  0  0  0  0  0  0  0  # atno 6907 bound_to 6896
  151.4041  135.0974  159.9574 H   0  0  0  0  0  0  0  0  0  0  0  0  # atno 6908 bound_to 6896
  152.5070  133.8901  159.7444 H   0  0  0  0  0  0  0  0  0  0  0  0  # atno 6909 bound_to 6896
  145.7836  140.8749  143.0318 H   0  0  0  0  0  0  0  0  0  0  0  0  # atno 7974 bound_to 7965
  155.5767  140.3491  155.4529 H   0  0  0  0  0  0  0  0  0  0  0  0  # atno 8008 bound_to 7997
  156.0404  140.1294  157.0187 H   0  0  0  0  0  0  0  0  0  0  0  0  # atno 8009 bound_to 7997
  154.4389  140.1025  156.6214 H   0  0  0  0  0  0  0  0  0  0  0  0  # atno 8010 bound_to 7997
  140.3969  143.2680  151.9193 H   0  0  0  0  0  0  0  0  0  0  0  0  # atno 10167 bound_to 10162
  157.4086  131.1025  151.0478 H   0  0  0  0  0  0  0  0  0  0  0  0  # atno 10718 bound_to 10713
  154.8643  135.3620  154.5344 H   0  0  0  0  0  0  0  0  0  0  0  0  # atno 10763 bound_to 10752
  153.5968  135.7014  153.5405 H   0  0  0  0  0  0  0  0  0  0  0  0  # atno 10764 bound_to 10752
  153.3325  135.4120  155.1468 H   0  0  0  0  0  0  0  0  0  0  0  0  # atno 10765 bound_to 10752
  141.0863  133.6642  156.3856 H   0  0  0  0  0  0  0  0  0  0  0  0  # atno 11005 bound_to 11000
  144.6792  140.0023  143.7484 LP  0  0  0  0  0  0  0  0  0  0  0  0  # atno 17320 bound_to 7965
  146.0049  139.3122  143.0905 LP  0  0  0  0  0  0  0  0  0  0  0  0  # atno 17321 bound_to 7965
  139.4786  144.5672  151.8145 LP  0  0  0  0  0  0  0  0  0  0  0  0  # atno 17342 bound_to 10162
  140.4781  144.1489  150.5928 LP  0  0  0  0  0  0  0  0  0  0  0  0  # atno 17343 bound_to 10162
  157.1451  130.6159  149.5566 LP  0  0  0  0  0  0  0  0  0  0  0  0  # atno 17370 bound_to 10713
  155.9844  130.4868  150.6980 LP  0  0  0  0  0  0  0  0  0  0  0  0  # atno 17371 bound_to 10713
  140.5355  134.6171  157.5363 LP  0  0  0  0  0  0  0  0  0  0  0  0  # atno 17394 bound_to 11000
  139.9682  134.7337  156.0095 LP  0  0  0  0  0  0  0  0  0  0  0  0  # atno 17395 bound_to 11000

$$$$
