AV-unprocessed.smi:2526|AV-procd|sdf|9934|dock7
  -GOLD-   2272013573D 1   1.00000     0.00000
 Structure written by MMmdl.
 29 30  0  0  0  0  0  0  0  0  2 V2000
  141.7690  138.1254  154.2673 C   0  0  0  0  0  0  0  0  0  0  0  0
  142.3307  136.9601  153.6185 N   0  0  0  0  0  0  0  0  0  0  0  0
  143.2564  136.9064  152.5994 C   0  0  0  0  0  0  0  0  0  0  0  0
  143.4853  135.5870  152.3183 C   0  0  0  0  0  0  0  0  0  0  0  0
  144.4011  134.9735  151.2861 C   0  0  2  0  0  0  0  0  0  0  0  0
  143.6813  133.9843  150.4795 N   0  0  0  0  0  0  0  0  0  0  0  0
  144.1807  132.8482  149.9605 C   0  0  0  0  0  0  0  0  0  0  0  0
  143.5017  132.1205  149.2410 O   0  0  0  0  0  0  0  0  0  0  0  0
  145.6197  132.4353  150.3070 C   0  0  0  0  0  0  0  0  0  0  0  0
  146.4630  133.5726  150.9072 C   0  0  0  0  0  0  0  0  0  0  0  0
  145.6586  134.3617  151.9467 C   0  0  1  0  0  0  0  0  0  0  0  0
  146.4914  135.3915  152.5946 N   0  3  0  0  0  0  0  0  0  0  0  0
  142.6384  134.9069  153.2408 C   0  0  0  0  0  0  0  0  0  0  0  0
  141.9484  135.7288  154.0129 N   0  0  0  0  0  0  0  0  0  0  0  0
  141.9350  139.0108  153.6529 H   0  0  0  0  0  0  0  0  0  0  0  0
  142.2462  138.2703  155.2371 H   0  0  0  0  0  0  0  0  0  0  0  0
  140.6962  137.9925  154.4122 H   0  0  0  0  0  0  0  0  0  0  0  0
  143.6708  137.8029  152.1614 H   0  0  0  0  0  0  0  0  0  0  0  0
  144.7255  135.7426  150.5833 H   0  0  0  0  0  0  0  0  0  0  0  0
  142.7234  134.2089  150.2503 H   0  0  0  0  0  0  0  0  0  0  0  0
  145.5595  131.6141  151.0219 H   0  0  0  0  0  0  0  0  0  0  0  0
  146.1084  132.0368  149.4171 H   0  0  0  0  0  0  0  0  0  0  0  0
  147.3615  133.1544  151.3626 H   0  0  0  0  0  0  0  0  0  0  0  0
  146.8013  134.2385  150.1116 H   0  0  0  0  0  0  0  0  0  0  0  0
  145.3464  133.6703  152.7315 H   0  0  0  0  0  0  0  0  0  0  0  0
  147.4243  135.3650  152.2083 H   0  0  0  0  0  0  0  0  0  0  0  0
  146.5334  135.2149  153.5883 H   0  0  0  0  0  0  0  0  0  0  0  0
  142.5032  133.8430  153.3686 H   0  0  0  0  0  0  0  0  0  0  0  0
  146.0848  136.3018  152.4324 H   0  0  0  0  0  0  0  0  0  0  0  0
  1  2  1  0  0  0  0
  1 15  1  0  0  0  0
  1 16  1  0  0  0  0
  1 17  1  0  0  0  0
  2 14  1  0  0  0  0
  2  3  1  0  0  0  0
  3  4  2  0  0  0  0
  3 18  1  0  0  0  0
  4  5  1  0  0  0  0
  4 13  1  0  0  0  0
  5 11  1  0  0  0  0
  5  6  1  0  0  0  0
  5 19  1  0  0  0  0
  6  7  1  0  0  0  0
  6 20  1  0  0  0  0
  7  8  2  0  0  0  0
  7  9  1  0  0  0  0
  9 10  1  0  0  0  0
  9 21  1  0  0  0  0
  9 22  1  0  0  0  0
 10 11  1  0  0  0  0
 10 23  1  0  0  0  0
 10 24  1  0  0  0  0
 11 12  1  0  0  0  0
 11 25  1  0  0  0  0
 12 26  1  0  0  0  0
 12 27  1  0  0  0  0
 12 29  1  0  0  0  0
 13 14  2  0  0  0  0
 13 28  1  0  0  0  0
M  CHG  1  12   1
M  END
> <s_m_source_file>
AV-unprocessed.smi

> <i_m_source_file_index>
2526

> <i_lp_mmshare_version>
43012

> <i_f3d_flags>
0

> <s_epik_input>
W0NIM11uMVtjSF1jKFtjSF1uMSlbQ0BASF0yW05IXUMoPU8pW0NIMl1bQ0gyXVtDQEhdMltOSDJd

> <s_epik_cmdline>
J2VwaWtfcHl0aG9uJywgJy1waCcsICc3LjAnLCAnLXRuJywgJzgnLCAnLW1hJywgJzIwMCcsICctbWV0YWxfYmluZGluZycsICctaW1hZScsICc8aW5maWxlLm1hZT4nLCAnLW9tYWUnLCAnPG91dGZpbGUubWFlPic=

> <r_lp_tautomer_probability>
1

> <r_epik_Ionization_Penalty>
0.00878543

> <r_epik_Ionization_Penalty_Charging>
0.00874185

> <r_epik_Ionization_Penalty_Neutral>
4.35793e-05

> <r_epik_State_Penalty>
0.00660351

> <r_epik_Charging_Adjusted_Penalty>
0.0153454

> <i_epik_Tot_Q>
1

> <i_epik_Tot_abs_Q>
1

> <r_epik_Metal_State_Penalty>
0.00660727

> <b_epik_Metal_Only>
0

> <s_lp_Force_Field>
OPLS_2005

> <r_lp_Energy>
10.7235

> <b_lp_Chiralities_Consistent>
1

> <s_lp_Variant>
AV-unprocessed.smi:2526-1

> <Gold.Version>
5.8.1

> <Gold.Id.Protein>
6NUR|6NUR_protein|mol2

> <Gold.PLP.Fitness>
46.5337

> <Gold.PLP.PLP>
-26.9413

> <Gold.PLP.part.hbond>
-3.0000

> <Gold.PLP.part.metal>
0.0000

> <Gold.PLP.part.buried>
-6.7811

> <Gold.PLP.part.nonpolar>
-18.1376

> <Gold.PLP.part.repulsive>
0.3750

> <Gold.PLP.ligand.clash>
0.0000

> <Gold.PLP.ligand.torsion>
0.2499

> <Gold.PLP.Chemscore.Hbond>
3.9516

> <Gold.PLP.Chemscore.CHOScore>
2.7386

> <Gold.PLP.Chemscore.Metal>
0.0000

> <Gold.Chemscore.Hbonds>
donor molecule, donor type, donor heavy atom, donor atom, acceptor molecule, acceptor atom, score
      L1  H     6    20       P1 10186  1.00
      L1  H    12    26       P1  7948  1.98
      P1  H 10785 10796       L1     8  0.89
      L1  C     3    18       P1 10171  1.00
      L1  C     3    18       P1 10175  0.72
      L1  C    13    28       P1 10957  1.00

> <Gold.PLP.Chemscore.Internal.Correction>
0.0215

> <Gold.Rescore>
     Score         DG    S(hbond)    S(metal)    S(lipo)     H(rot)  DE(clash)    DE(int)     intcor
     17.58     -17.70       2.89        0.00      43.80       1.00       0.07       0.05       ----

> <Gold.Chemscore.Fitness>
17.5801

> <Gold.Chemscore.DG>
-17.6988

> <Gold.Chemscore.ZeroCoef>
-5.4800

> <Gold.Chemscore.Hbond>
2.8906

> <Gold.Chemscore.Metal>
0.0000

> <Gold.Chemscore.Lipo>
43.7966

> <Gold.Chemscore.Internal_Hbond>
0.0000

> <Gold.Chemscore.DEClash>
0.0691

> <Gold.Chemscore.DEInternal>
0.0496

> <Gold.Chemscore.Rot>
1.0000

> <Gold.Chemscore.Internal.Correction>
   9.000000E+99

> <Gold.Chemscore.Hbonds>
donor molecule, donor type, donor heavy atom, donor atom, acceptor molecule, acceptor atom, score
      L1  H     6    20       P1 10186  0.91
      L1  H    12    26       P1  7948  0.94
      P1  H 10785 10796       L1     8  0.82

> <Gold.Chemscore.Hbond.Weighted>
-9.6546

> <Gold.Chemscore.Metal.Weighted>
-0.0000

> <Gold.Chemscore.Lipo.Weighted>
-5.1242

> <Gold.Chemscore.Internal_Hbond.Weighted>
0.0000

> <Gold.Chemscore.DEClash.Weighted>
0.0691

> <Gold.Chemscore.DEInternal.Weighted>
0.0496

> <Gold.Chemscore.Rot.Weighted>
2.5600

> <Gold.Chemscore.Internal.Correction.Weighted>
   9.000000E+99

> <Gold.Protein.RotatedTorsions>
[ 6907 6896 6895 6894 ] final  140.80 input  -60.11 | X-H torsion
[ 7974 7965 7964 7962 ] final  -15.07 input  175.53 | X-H torsion
[ 8008 7997 7996 7995 ] final -178.72 input   59.86 | X-H torsion
[ 10167 10162 10161 10158 ] final   25.55 input  -65.29 | X-H torsion
[ 10718 10713 10712 10709 ] final -120.66 input   66.30 | X-H torsion
[ 10763 10752 10751 10750 ] final  142.21 input  -60.55 | X-H torsion
[ 11005 11000 10999 10996 ] final  113.37 input  -57.11 | X-H torsion

> <Gold.Protein.ActiveResidues>
 VAL166  LYS551  ARG553  GLY616  TRP617  ASP618  TYR619  PRO620  LYS621  CYS622 
 ASP623  PHE694  ASN695  SER759  ASP760  ASP761  ALA762  ILE779  LEU786  VAL792 
 PHE793  MET794  SER795  GLU796  ALA797  LYS798  CYS799  TRP800  GLU811  SER814 

> <Gold.Protein.RotatedAtoms>
  152.2387  133.5117  159.5257 H   0  0  0  0  0  0  0  0  0  0  0  0  # atno 6907 bound_to 6896
  150.7058  134.1118  159.4012 H   0  0  0  0  0  0  0  0  0  0  0  0  # atno 6908 bound_to 6896
  151.9039  135.0367  160.0559 H   0  0  0  0  0  0  0  0  0  0  0  0  # atno 6909 bound_to 6896
  146.2047  140.3440  142.8411 H   0  0  0  0  0  0  0  0  0  0  0  0  # atno 7974 bound_to 7965
  156.0221  140.1263  157.0346 H   0  0  0  0  0  0  0  0  0  0  0  0  # atno 8008 bound_to 7997
  154.4316  140.1066  156.6049 H   0  0  0  0  0  0  0  0  0  0  0  0  # atno 8009 bound_to 7997
  155.5929  140.3469  155.4574 H   0  0  0  0  0  0  0  0  0  0  0  0  # atno 8010 bound_to 7997
  140.5096  144.0181  150.6367 H   0  0  0  0  0  0  0  0  0  0  0  0  # atno 10167 bound_to 10162
  156.1275  130.6370  150.9567 H   0  0  0  0  0  0  0  0  0  0  0  0  # atno 10718 bound_to 10713
  153.9520  135.2969  155.3438 H   0  0  0  0  0  0  0  0  0  0  0  0  # atno 10763 bound_to 10752
  154.7421  135.5020  153.9144 H   0  0  0  0  0  0  0  0  0  0  0  0  # atno 10764 bound_to 10752
  153.0989  135.6729  153.9818 H   0  0  0  0  0  0  0  0  0  0  0  0  # atno 10765 bound_to 10752
  139.8951  134.9548  156.6728 H   0  0  0  0  0  0  0  0  0  0  0  0  # atno 11005 bound_to 11000
  144.8765  140.7344  143.6013 LP  0  0  0  0  0  0  0  0  0  0  0  0  # atno 17320 bound_to 7965
  145.3360  139.1746  143.4511 LP  0  0  0  0  0  0  0  0  0  0  0  0  # atno 17321 bound_to 7965
  140.3500  143.2968  152.0497 LP  0  0  0  0  0  0  0  0  0  0  0  0  # atno 17342 bound_to 10162
  139.4892  144.6380  151.6935 LP  0  0  0  0  0  0  0  0  0  0  0  0  # atno 17343 bound_to 10162
  157.6456  131.0904  150.8161 LP  0  0  0  0  0  0  0  0  0  0  0  0  # atno 17370 bound_to 10713
  156.8249  130.4996  149.5338 LP  0  0  0  0  0  0  0  0  0  0  0  0  # atno 17371 bound_to 10713
  140.7360  133.9019  155.8244 LP  0  0  0  0  0  0  0  0  0  0  0  0  # atno 17394 bound_to 11000
  141.0116  134.1013  157.4215 LP  0  0  0  0  0  0  0  0  0  0  0  0  # atno 17395 bound_to 11000

$$$$
