AV-unprocessed.smi:1856|AV-procd|sdf|7533|dock4
  -GOLD-   22720 9243D 1   1.00000     0.00000
 Structure written by MMmdl.
 44 45  0  0  0  0  0  0  0  0  1 V2000
  146.8331  135.7156  161.8397 C   0  0  0  0  0  0  0  0  0  0  0  0
  147.9167  135.6250  160.7532 C   0  0  0  0  0  0  0  0  0  0  0  0
  147.8799  136.7811  159.7345 C   0  0  0  0  0  0  0  0  0  0  0  0
  149.1350  136.8463  158.8607 C   0  0  0  0  0  0  0  0  0  0  0  0
  149.5910  135.8199  158.3569 O   0  0  0  0  0  0  0  0  0  0  0  0
  149.6668  138.0638  158.6696 N   0  0  0  0  0  0  0  0  0  0  0  0
  150.7726  138.3659  157.7648 C   0  0  2  0  0  0  0  0  0  0  0  0
  151.9711  137.4542  158.0652 C   0  0  0  0  0  0  0  0  0  0  0  0
  151.1080  139.8295  157.9217 C   0  0  0  0  0  0  0  0  0  0  0  0
  151.3842  140.3527  159.1201 N   0  0  0  0  0  0  0  0  0  0  0  0
  151.5963  141.6856  158.8357 C   0  0  0  0  0  0  0  0  0  0  0  0
  151.9321  142.7634  159.6857 C   0  0  0  0  0  0  0  0  0  0  0  0
  152.0981  144.0614  159.1601 C   0  0  0  0  0  0  0  0  0  0  0  0
  151.9310  144.2990  157.7806 C   0  0  0  0  0  0  0  0  0  0  0  0
  151.5958  143.2383  156.9172 C   0  0  0  0  0  0  0  0  0  0  0  0
  151.4308  141.9443  157.4469 C   0  0  0  0  0  0  0  0  0  0  0  0
  151.1030  140.7132  156.8868 N   0  0  0  0  0  0  0  0  0  0  0  0
  150.8164  140.4858  155.4752 C   0  0  0  0  0  0  0  0  0  0  0  0
  149.7614  141.4599  154.9186 C   0  0  2  0  0  0  0  0  0  0  0  0
  148.4238  141.3444  155.6597 C   0  0  0  0  0  0  0  0  0  0  0  0
  149.5353  141.2137  153.5455 O   0  0  0  0  0  0  0  0  0  0  0  0
  146.9440  134.9087  162.5640 H   0  0  0  0  0  0  0  0  0  0  0  0
  145.8303  135.6401  161.4174 H   0  0  0  0  0  0  0  0  0  0  0  0
  146.8975  136.6594  162.3817 H   0  0  0  0  0  0  0  0  0  0  0  0
  148.8951  135.6154  161.2343 H   0  0  0  0  0  0  0  0  0  0  0  0
  147.8313  134.6687  160.2352 H   0  0  0  0  0  0  0  0  0  0  0  0
  146.9909  136.6916  159.1082 H   0  0  0  0  0  0  0  0  0  0  0  0
  147.7881  137.7300  160.2639 H   0  0  0  0  0  0  0  0  0  0  0  0
  149.2250  138.8502  159.1229 H   0  0  0  0  0  0  0  0  0  0  0  0
  150.4620  138.1469  156.7451 H   0  0  0  0  0  0  0  0  0  0  0  0
  152.8056  137.6740  157.3989 H   0  0  0  0  0  0  0  0  0  0  0  0
  151.7076  136.4049  157.9289 H   0  0  0  0  0  0  0  0  0  0  0  0
  152.3233  137.5775  159.0899 H   0  0  0  0  0  0  0  0  0  0  0  0
  152.0614  142.5910  160.7438 H   0  0  0  0  0  0  0  0  0  0  0  0
  152.3541  144.8787  159.8185 H   0  0  0  0  0  0  0  0  0  0  0  0
  152.0590  145.2963  157.3857 H   0  0  0  0  0  0  0  0  0  0  0  0
  151.4664  143.4178  155.8603 H   0  0  0  0  0  0  0  0  0  0  0  0
  151.7357  140.5225  154.8931 H   0  0  0  0  0  0  0  0  0  0  0  0
  150.4549  139.4625  155.3691 H   0  0  0  0  0  0  0  0  0  0  0  0
  150.1306  142.4815  155.0157 H   0  0  0  0  0  0  0  0  0  0  0  0
  148.5462  141.5606  156.7212 H   0  0  0  0  0  0  0  0  0  0  0  0
  148.0061  140.3407  155.5708 H   0  0  0  0  0  0  0  0  0  0  0  0
  147.6907  142.0477  155.2631 H   0  0  0  0  0  0  0  0  0  0  0  0
  149.2371  140.3225  153.4459 H   0  0  0  0  0  0  0  0  0  0  0  0
  1  2  1  0  0  0  0
  1 22  1  0  0  0  0
  1 23  1  0  0  0  0
  1 24  1  0  0  0  0
  2  3  1  0  0  0  0
  2 25  1  0  0  0  0
  2 26  1  0  0  0  0
  3  4  1  0  0  0  0
  3 27  1  0  0  0  0
  3 28  1  0  0  0  0
  4  5  2  0  0  0  0
  4  6  1  0  0  0  0
  6  7  1  0  0  0  0
  6 29  1  0  0  0  0
  7  8  1  0  0  0  0
  7  9  1  0  0  0  0
  7 30  1  0  0  0  0
  8 31  1  0  0  0  0
  8 32  1  0  0  0  0
  8 33  1  0  0  0  0
  9 17  1  0  0  0  0
  9 10  2  0  0  0  0
 10 11  1  0  0  0  0
 11 16  2  0  0  0  0
 11 12  1  0  0  0  0
 12 13  2  0  0  0  0
 12 34  1  0  0  0  0
 13 14  1  0  0  0  0
 13 35  1  0  0  0  0
 14 15  2  0  0  0  0
 14 36  1  0  0  0  0
 15 16  1  0  0  0  0
 15 37  1  0  0  0  0
 16 17  1  0  0  0  0
 17 18  1  0  0  0  0
 18 19  1  0  0  0  0
 18 38  1  0  0  0  0
 18 39  1  0  0  0  0
 19 20  1  0  0  0  0
 19 21  1  0  0  0  0
 19 40  1  0  0  0  0
 20 41  1  0  0  0  0
 20 42  1  0  0  0  0
 20 43  1  0  0  0  0
 21 44  1  0  0  0  0
M  END
> <s_m_source_file>
AV-unprocessed.smi

> <i_m_source_file_index>
1856

> <i_lp_mmshare_version>
43012

> <i_f3d_flags>
0

> <s_epik_input>
W0NIM11bQ0gyXVtDSDJdQyg9TylbTkhdW0NASF0oW0NIM10pYyhuMSluKFtDSDJdW0NASF0oW0NIM10pW09IXSljKGMxMilbY0hdW2NIXVtjSF1bY0hdMg==

> <s_epik_cmdline>
J2VwaWtfcHl0aG9uJywgJy1waCcsICc3LjAnLCAnLXRuJywgJzgnLCAnLW1hJywgJzIwMCcsICctbWV0YWxfYmluZGluZycsICctaW1hZScsICc8aW5maWxlLm1hZT4nLCAnLW9tYWUnLCAnPG91dGZpbGUubWFlPic=

> <r_epik_Ionization_Penalty>
0.134222

> <r_epik_Ionization_Penalty_Charging>
0

> <r_epik_Ionization_Penalty_Neutral>
0.134222

> <r_epik_State_Penalty>
0.123585

> <r_epik_Charging_Adjusted_Penalty>
0.123585

> <i_epik_Tot_Q>
0

> <i_epik_Tot_abs_Q>
0

> <r_epik_Metal_State_Penalty>
0.100548

> <b_epik_Metal_Only>
0

> <s_lp_Force_Field>
OPLS_2005

> <r_lp_Energy>
0.748352

> <b_lp_Chiralities_Consistent>
1

> <s_lp_Variant>
AV-unprocessed.smi:1856-1

> <Gold.Version>
5.8.1

> <Gold.Id.Protein>
6NUR|6NUR_protein|mol2

> <Gold.PLP.Fitness>
49.3133

> <Gold.PLP.PLP>
-43.8050

> <Gold.PLP.part.hbond>
-4.0000

> <Gold.PLP.part.metal>
0.0000

> <Gold.PLP.part.buried>
-4.1408

> <Gold.PLP.part.nonpolar>
-34.0623

> <Gold.PLP.part.repulsive>
0.2223

> <Gold.PLP.ligand.clash>
0.0000

> <Gold.PLP.ligand.torsion>
0.3908

> <Gold.PLP.Chemscore.Hbond>
2.0546

> <Gold.PLP.Chemscore.CHOScore>
0.0000

> <Gold.PLP.Chemscore.Metal>
0.0000

> <Gold.Chemscore.Hbonds>
donor molecule, donor type, donor heavy atom, donor atom, acceptor molecule, acceptor atom, score
      P1  H  6896  6907       L1     5  0.94
      P1  H  7989  7998       L1    21  0.04
      P1  H  8011  8017       L1    21  0.98

> <Gold.PLP.Chemscore.Internal.Correction>
0.1260

> <Gold.Rescore>
     Score         DG    S(hbond)    S(metal)    S(lipo)     H(rot)  DE(clash)    DE(int)     intcor
     16.19     -17.82       1.85        0.00     106.09       2.45       0.29       1.34       ----

> <Gold.Chemscore.Fitness>
16.1917

> <Gold.Chemscore.DG>
-17.8157

> <Gold.Chemscore.ZeroCoef>
-5.4800

> <Gold.Chemscore.Hbond>
1.8517

> <Gold.Chemscore.Metal>
0.0000

> <Gold.Chemscore.Lipo>
106.0893

> <Gold.Chemscore.Internal_Hbond>
0.0000

> <Gold.Chemscore.DEClash>
0.2850

> <Gold.Chemscore.DEInternal>
1.3389

> <Gold.Chemscore.Rot>
2.4459

> <Gold.Chemscore.Internal.Correction>
   9.000000E+99

> <Gold.Chemscore.Hbonds>
donor molecule, donor type, donor heavy atom, donor atom, acceptor molecule, acceptor atom, score
      L1  H    21    44       P1  7957  0.01
      P1  H  6896  6907       L1     5  0.86
      P1  H  8011  8017       L1    21  0.92

> <Gold.Chemscore.Hbond.Weighted>
-6.1847

> <Gold.Chemscore.Metal.Weighted>
-0.0000

> <Gold.Chemscore.Lipo.Weighted>
-12.4124

> <Gold.Chemscore.Internal_Hbond.Weighted>
0.0000

> <Gold.Chemscore.DEClash.Weighted>
0.2850

> <Gold.Chemscore.DEInternal.Weighted>
1.3389

> <Gold.Chemscore.Rot.Weighted>
6.2614

> <Gold.Chemscore.Internal.Correction.Weighted>
   9.000000E+99

> <Gold.Protein.RotatedTorsions>
[ 6907 6896 6895 6894 ] final  -77.75 input  -60.11 | X-H torsion
[ 7974 7965 7964 7962 ] final  153.06 input  175.53 | X-H torsion
[ 8008 7997 7996 7995 ] final   58.20 input   59.86 | X-H torsion
[ 10167 10162 10161 10158 ] final  -46.33 input  -65.29 | X-H torsion
[ 10718 10713 10712 10709 ] final -128.10 input   66.30 | X-H torsion
[ 10763 10752 10751 10750 ] final   32.67 input  -60.55 | X-H torsion
[ 11005 11000 10999 10996 ] final   56.98 input  -57.11 | X-H torsion

> <Gold.Protein.ActiveResidues>
 VAL166  LYS551  ARG553  GLY616  TRP617  ASP618  TYR619  PRO620  LYS621  CYS622 
 ASP623  PHE694  ASN695  SER759  ASP760  ASP761  ALA762  ILE779  LEU786  VAL792 
 PHE793  MET794  SER795  GLU796  ALA797  LYS798  CYS799  TRP800  GLU811  SER814 

> <Gold.Protein.RotatedAtoms>
  150.6990  134.4376  159.5276 H   0  0  0  0  0  0  0  0  0  0  0  0  # atno 6907 bound_to 6896
  152.2092  134.8515  160.0508 H   0  0  0  0  0  0  0  0  0  0  0  0  # atno 6908 bound_to 6896
  151.9406  133.3602  159.4001 H   0  0  0  0  0  0  0  0  0  0  0  0  # atno 6909 bound_to 6896
  144.8180  139.6750  143.6113 H   0  0  0  0  0  0  0  0  0  0  0  0  # atno 7974 bound_to 7965
  155.5461  140.3485  155.4458 H   0  0  0  0  0  0  0  0  0  0  0  0  # atno 8008 bound_to 7997
  156.0616  140.1341  156.9960 H   0  0  0  0  0  0  0  0  0  0  0  0  # atno 8009 bound_to 7997
  154.4482  140.0984  156.6510 H   0  0  0  0  0  0  0  0  0  0  0  0  # atno 8010 bound_to 7997
  140.6821  143.2836  151.3768 H   0  0  0  0  0  0  0  0  0  0  0  0  # atno 10167 bound_to 10162
  156.1919  130.6801  151.0434 H   0  0  0  0  0  0  0  0  0  0  0  0  # atno 10718 bound_to 10713
  153.0251  135.6407  154.1391 H   0  0  0  0  0  0  0  0  0  0  0  0  # atno 10763 bound_to 10752
  154.1121  135.2852  155.3230 H   0  0  0  0  0  0  0  0  0  0  0  0  # atno 10764 bound_to 10752
  154.6324  135.5488  153.7758 H   0  0  0  0  0  0  0  0  0  0  0  0  # atno 10765 bound_to 10752
  140.0488  134.5767  155.9290 H   0  0  0  0  0  0  0  0  0  0  0  0  # atno 11005 bound_to 11000
  146.2484  139.6148  142.9443 LP  0  0  0  0  0  0  0  0  0  0  0  0  # atno 17320 bound_to 7965
  145.5169  141.0433  143.2457 LP  0  0  0  0  0  0  0  0  0  0  0  0  # atno 17321 bound_to 7965
  139.6152  144.1017  152.2338 LP  0  0  0  0  0  0  0  0  0  0  0  0  # atno 17342 bound_to 10162
  140.0444  144.5982  150.7385 LP  0  0  0  0  0  0  0  0  0  0  0  0  # atno 17343 bound_to 10162
  157.6934  131.0802  150.7041 LP  0  0  0  0  0  0  0  0  0  0  0  0  # atno 17370 bound_to 10713
  156.7097  130.4648  149.5550 LP  0  0  0  0  0  0  0  0  0  0  0  0  # atno 17371 bound_to 10713
  141.1920  133.6573  156.5481 LP  0  0  0  0  0  0  0  0  0  0  0  0  # atno 17394 bound_to 11000
  140.3951  134.7406  157.4745 LP  0  0  0  0  0  0  0  0  0  0  0  0  # atno 17395 bound_to 11000

$$$$
