AV-unprocessed.smi:1717|AV-procd|sdf|6921|dock1
  -GOLD-   22720 8123D 1   1.00000     0.00000
 Structure written by MMmdl.
 40 41  0  0  0  0  0  0  0  0  3 V2000
  153.1217  137.7227  157.1158 C   0  0  0  0  0  0  0  0  0  0  0  0
  152.9678  138.9279  156.3093 N   0  5  0  0  0  0  0  0  0  0  0  0
  151.7611  139.4253  155.9269 C   0  0  0  0  0  0  0  0  0  0  0  0
  151.4517  140.5340  155.4780 O   0  0  0  0  0  0  0  0  0  0  0  0
  150.6554  138.3746  156.0820 C   0  0  0  0  0  0  0  0  0  0  0  0
  149.3902  138.8727  155.4874 N   0  3  2  0  0  0  0  0  0  0  0  0
  148.2494  137.9570  155.7407 C   0  0  0  0  0  0  0  0  0  0  0  0
  146.9253  138.5712  155.2536 C   0  0  0  0  0  0  0  0  0  0  0  0
  146.9834  138.9694  153.7653 C   0  0  2  0  0  0  0  0  0  0  0  0
  146.9968  137.8005  152.8859 N   0  0  0  0  0  0  0  0  0  0  0  0
  145.9195  137.0815  152.5385 C   0  0  0  0  0  0  0  0  0  0  0  0
  144.7843  137.3148  152.9531 O   0  0  0  0  0  0  0  0  0  0  0  0
  146.2436  136.0935  151.6889 N   0  0  0  0  0  0  0  0  0  0  0  0
  145.3682  135.1417  151.1083 C   0  0  0  0  0  0  0  0  0  0  0  0
  145.6001  133.7670  150.8087 C   0  0  0  0  0  0  0  0  0  0  0  0
  144.5291  133.2078  150.2631 N   0  0  0  0  0  0  0  0  0  0  0  0
  143.6205  134.2076  150.2105 N   0  0  0  0  0  0  0  0  0  0  0  0
  144.0900  135.4011  150.7127 C   0  0  0  0  0  0  0  0  0  0  0  0
  148.2181  139.8511  153.5100 C   0  0  0  0  0  0  0  0  0  0  0  0
  149.5111  139.2078  154.0428 C   0  0  0  0  0  0  0  0  0  0  0  0
  142.6954  134.0608  149.8325 H   0  0  0  0  0  0  0  0  0  0  0  0
  154.1702  137.4902  157.3009 H   0  0  0  0  0  0  0  0  0  0  0  0
  152.6896  136.8429  156.6381 H   0  0  0  0  0  0  0  0  0  0  0  0
  152.6493  137.8153  158.0943 H   0  0  0  0  0  0  0  0  0  0  0  0
  150.9246  137.4059  155.6552 H   0  0  0  0  0  0  0  0  0  0  0  0
  150.5248  138.2121  157.1527 H   0  0  0  0  0  0  0  0  0  0  0  0
  148.4309  137.0005  155.2478 H   0  0  0  0  0  0  0  0  0  0  0  0
  148.1725  137.7522  156.8091 H   0  0  0  0  0  0  0  0  0  0  0  0
  146.1020  137.8798  155.4367 H   0  0  0  0  0  0  0  0  0  0  0  0
  146.7080  139.4587  155.8494 H   0  0  0  0  0  0  0  0  0  0  0  0
  146.0957  139.5572  153.5243 H   0  0  0  0  0  0  0  0  0  0  0  0
  147.8885  137.5356  152.4941 H   0  0  0  0  0  0  0  0  0  0  0  0
  147.2132  136.0221  151.4184 H   0  0  0  0  0  0  0  0  0  0  0  0
  146.4823  133.1631  150.9592 H   0  0  0  0  0  0  0  0  0  0  0  0
  143.4905  136.2990  150.7429 H   0  0  0  0  0  0  0  0  0  0  0  0
  148.3173  140.0668  152.4454 H   0  0  0  0  0  0  0  0  0  0  0  0
  148.0758  140.8149  154.0008 H   0  0  0  0  0  0  0  0  0  0  0  0
  150.3380  139.8998  153.8827 H   0  0  0  0  0  0  0  0  0  0  0  0
  149.7472  138.3051  153.4775 H   0  0  0  0  0  0  0  0  0  0  0  0
  149.1799  139.7328  155.9736 H   0  0  0  0  0  0  0  0  0  0  0  0
  1  2  1  0  0  0  0
  1 22  1  0  0  0  0
  1 23  1  0  0  0  0
  1 24  1  0  0  0  0
  2  3  1  0  0  0  0
  3  4  2  0  0  0  0
  3  5  1  0  0  0  0
  5  6  1  0  0  0  0
  5 25  1  0  0  0  0
  5 26  1  0  0  0  0
  6 20  1  0  0  0  0
  6  7  1  0  0  0  0
  6 40  1  0  0  0  0
  7  8  1  0  0  0  0
  7 27  1  0  0  0  0
  7 28  1  0  0  0  0
  8  9  1  0  0  0  0
  8 29  1  0  0  0  0
  8 30  1  0  0  0  0
  9 10  1  0  0  0  0
  9 19  1  0  0  0  0
  9 31  1  0  0  0  0
 10 11  1  0  0  0  0
 10 32  1  0  0  0  0
 11 12  2  0  0  0  0
 11 13  1  0  0  0  0
 13 14  1  0  0  0  0
 13 33  1  0  0  0  0
 14 18  2  0  0  0  0
 14 15  1  0  0  0  0
 15 16  2  0  0  0  0
 15 34  1  0  0  0  0
 16 17  1  0  0  0  0
 17 21  1  0  0  0  0
 17 18  1  0  0  0  0
 18 35  1  0  0  0  0
 19 20  1  0  0  0  0
 19 36  1  0  0  0  0
 19 37  1  0  0  0  0
 20 38  1  0  0  0  0
 20 39  1  0  0  0  0
M  CHG  1   2  -1
M  CHG  1   6   1
M  END
> <s_m_source_file>
AV-unprocessed.smi

> <i_m_source_file_index>
1717

> <i_lp_mmshare_version>
43012

> <i_f3d_flags>
0

> <s_epik_input>
W0NIM11bTkhdQyg9TylbQ0gyXU4xW0NIMl1bQ0gyXVtDSF0oW0NIMl1bQ0gyXTEpW05IXUMoPU8pW05IXWMyW2NIXW5bbkhdW2NIXTI=

> <s_epik_cmdline>
J2VwaWtfcHl0aG9uJywgJy1waCcsICc3LjAnLCAnLXRuJywgJzgnLCAnLW1hJywgJzIwMCcsICctbWV0YWxfYmluZGluZycsICctaW1hZScsICc8aW5maWxlLm1hZT4nLCAnLW9tYWUnLCAnPG91dGZpbGUubWFlPic=

> <r_lp_tautomer_probability>
0.5

> <r_epik_Ionization_Penalty>
6.1395

> <r_epik_Ionization_Penalty_Charging>
6.13946

> <r_epik_Ionization_Penalty_Neutral>
4.21226e-05

> <r_epik_State_Penalty>
6.9595

> <r_epik_Charging_Adjusted_Penalty>
13.099

> <i_epik_Tot_Q>
0

> <i_epik_Tot_abs_Q>
2

> <r_epik_Metal_State_Penalty>
2.89141

> <b_epik_Metal_Only>
1

> <s_lp_Force_Field>
OPLS_2005

> <r_lp_Energy>
13.1948

> <b_lp_Chiralities_Consistent>
1

> <s_lp_Variant>
AV-unprocessed.smi:1717-5

> <Gold.Version>
5.8.1

> <Gold.Id.Protein>
6NUR|6NUR_protein|mol2

> <Gold.PLP.Fitness>
42.2184

> <Gold.PLP.PLP>
-23.1643

> <Gold.PLP.part.hbond>
-5.0000

> <Gold.PLP.part.metal>
0.0000

> <Gold.PLP.part.buried>
-1.3317

> <Gold.PLP.part.nonpolar>
-17.8162

> <Gold.PLP.part.repulsive>
0.5138

> <Gold.PLP.ligand.clash>
0.0000

> <Gold.PLP.ligand.torsion>
0.6787

> <Gold.PLP.Chemscore.Hbond>
5.7760

> <Gold.PLP.Chemscore.CHOScore>
1.0000

> <Gold.PLP.Chemscore.Metal>
0.0000

> <Gold.Chemscore.Hbonds>
donor molecule, donor type, donor heavy atom, donor atom, acceptor molecule, acceptor atom, score
      L1  H    10    32       P1  7948  0.98
      L1  H    13    33       P1  7948  1.00
      L1  H    17    21       P1 10186  1.00
      P1  H  7989  7998       L1     4  0.82
      P1  H  7997  8010       L1     2  2.00
      L1  C    18    35       P1 10171  1.00

> <Gold.PLP.Chemscore.Internal.Correction>
0.0835

> <Gold.Rescore>
     Score         DG    S(hbond)    S(metal)    S(lipo)     H(rot)  DE(clash)    DE(int)     intcor
     18.33     -21.96       4.71        0.00      44.91       1.75       1.30       2.33       ----

> <Gold.Chemscore.Fitness>
18.3290

> <Gold.Chemscore.DG>
-21.9584

> <Gold.Chemscore.ZeroCoef>
-5.4800

> <Gold.Chemscore.Hbond>
4.7052

> <Gold.Chemscore.Metal>
0.0000

> <Gold.Chemscore.Lipo>
44.9122

> <Gold.Chemscore.Internal_Hbond>
0.0000

> <Gold.Chemscore.DEClash>
1.2994

> <Gold.Chemscore.DEInternal>
2.3301

> <Gold.Chemscore.Rot>
1.7546

> <Gold.Chemscore.Internal.Correction>
   9.000000E+99

> <Gold.Chemscore.Hbonds>
donor molecule, donor type, donor heavy atom, donor atom, acceptor molecule, acceptor atom, score
      L1  H    10    32       P1  7948  0.93
      L1  H    13    33       P1  7948  0.94
      L1  H    17    21       P1 10186  0.98
      P1  H  7989  7998       L1     4  0.75
      P1  H  7997  8010       L1     2  0.85

> <Gold.Chemscore.Hbond.Weighted>
-15.7154

> <Gold.Chemscore.Metal.Weighted>
-0.0000

> <Gold.Chemscore.Lipo.Weighted>
-5.2547

> <Gold.Chemscore.Internal_Hbond.Weighted>
0.0000

> <Gold.Chemscore.DEClash.Weighted>
1.2994

> <Gold.Chemscore.DEInternal.Weighted>
2.3301

> <Gold.Chemscore.Rot.Weighted>
4.4917

> <Gold.Chemscore.Internal.Correction.Weighted>
   9.000000E+99

> <Gold.Protein.RotatedTorsions>
[ 6907 6896 6895 6894 ] final -149.30 input  -60.11 | X-H torsion
[ 7974 7965 7964 7962 ] final  -81.26 input  175.53 | X-H torsion
[ 8008 7997 7996 7995 ] final   72.88 input   59.86 | X-H torsion
[ 10167 10162 10161 10158 ] final  -37.63 input  -65.29 | X-H torsion
[ 10718 10713 10712 10709 ] final  151.85 input   66.30 | X-H torsion
[ 10763 10752 10751 10750 ] final   12.45 input  -60.55 | X-H torsion
[ 11005 11000 10999 10996 ] final   78.01 input  -57.11 | X-H torsion

> <Gold.Protein.ActiveResidues>
 VAL166  LYS551  ARG553  GLY616  TRP617  ASP618  TYR619  PRO620  LYS621  CYS622 
 ASP623  PHE694  ASN695  SER759  ASP760  ASP761  ALA762  ILE779  LEU786  VAL792 
 PHE793  MET794  SER795  GLU796  ALA797  LYS798  CYS799  TRP800  GLU811  SER814 

> <Gold.Protein.RotatedAtoms>
  151.1822  133.4718  159.2593 H   0  0  0  0  0  0  0  0  0  0  0  0  # atno 6907 bound_to 6896
  151.1247  135.0098  159.8565 H   0  0  0  0  0  0  0  0  0  0  0  0  # atno 6908 bound_to 6896
  152.5457  134.1730  159.8657 H   0  0  0  0  0  0  0  0  0  0  0  0  # atno 6909 bound_to 6896
  145.5490  140.9499  143.1509 H   0  0  0  0  0  0  0  0  0  0  0  0  # atno 7974 bound_to 7965
  155.7754  140.3483  155.5269 H   0  0  0  0  0  0  0  0  0  0  0  0  # atno 8008 bound_to 7997
  155.8780  140.0997  157.1525 H   0  0  0  0  0  0  0  0  0  0  0  0  # atno 8009 bound_to 7997
  154.4022  140.1328  156.4149 H   0  0  0  0  0  0  0  0  0  0  0  0  # atno 8010 bound_to 7997
  140.7113  143.3329  151.2528 H   0  0  0  0  0  0  0  0  0  0  0  0  # atno 10167 bound_to 10162
  157.2654  131.0806  151.1637 H   0  0  0  0  0  0  0  0  0  0  0  0  # atno 10718 bound_to 10713
  153.1821  135.6829  153.8464 H   0  0  0  0  0  0  0  0  0  0  0  0  # atno 10763 bound_to 10752
  153.7792  135.3185  155.3364 H   0  0  0  0  0  0  0  0  0  0  0  0  # atno 10764 bound_to 10752
  154.8066  135.4744  154.0504 H   0  0  0  0  0  0  0  0  0  0  0  0  # atno 10765 bound_to 10752
  139.9230  134.7729  156.1595 H   0  0  0  0  0  0  0  0  0  0  0  0  # atno 11005 bound_to 11000
  144.7538  139.7125  143.7262 LP  0  0  0  0  0  0  0  0  0  0  0  0  # atno 17320 bound_to 7965
  146.1929  139.5180  142.9793 LP  0  0  0  0  0  0  0  0  0  0  0  0  # atno 17321 bound_to 7965
  139.6816  143.9844  152.2811 LP  0  0  0  0  0  0  0  0  0  0  0  0  # atno 17342 bound_to 10162
  139.9476  144.6641  150.8204 LP  0  0  0  0  0  0  0  0  0  0  0  0  # atno 17343 bound_to 10162
  157.3130  130.6899  149.6226 LP  0  0  0  0  0  0  0  0  0  0  0  0  # atno 17370 bound_to 10713
  155.9663  130.4358  150.5106 LP  0  0  0  0  0  0  0  0  0  0  0  0  # atno 17371 bound_to 10713
  141.0766  133.6772  156.2250 LP  0  0  0  0  0  0  0  0  0  0  0  0  # atno 17394 bound_to 11000
  140.6417  134.5158  157.5570 LP  0  0  0  0  0  0  0  0  0  0  0  0  # atno 17395 bound_to 11000

$$$$
