AV-unprocessed.smi:2202|AV-procd|sdf|8929|dock8
  -GOLD-   2272012143D 1   1.00000     0.00000
 Structure written by MMmdl.
 42 44  0  0  0  0  0  0  0  0  1 V2000
  150.4453  137.1590  160.0519 O   0  0  0  0  0  0  0  0  0  0  0  0
  149.9290  137.3650  158.9524 C   0  0  0  0  0  0  0  0  0  0  0  0
  149.1248  136.2695  158.2367 C   0  0  0  0  0  0  0  0  0  0  0  0
  148.0922  135.6555  159.0844 N   0  0  0  0  0  0  0  0  0  0  0  0
  147.1264  136.3432  159.7075 C   0  0  0  0  0  0  0  0  0  0  0  0
  146.9776  137.5653  159.6772 O   0  0  0  0  0  0  0  0  0  0  0  0
  146.1837  135.4142  160.4760 C   0  0  2  0  0  0  0  0  0  0  0  0
  146.0825  135.8126  161.9720 C   0  0  0  0  0  0  0  0  0  0  0  0
  147.2253  135.2650  162.8016 C   0  0  0  0  0  0  0  0  0  0  0  0
  147.7440  134.0551  162.5537 C   0  0  0  0  0  0  0  0  0  0  0  0
  147.2082  133.1871  161.4340 C   0  0  0  0  0  0  0  0  0  0  0  0
  146.7847  134.0095  160.1882 C   0  0  2  0  0  0  0  0  0  0  0  0
  147.9835  134.3376  159.2954 C   0  0  0  0  0  0  0  0  0  0  0  0
  148.7272  133.4705  158.8353 O   0  0  0  0  0  0  0  0  0  0  0  0
  150.0319  138.5345  158.3037 N   0  0  0  0  0  0  0  0  0  0  0  0
  150.7554  139.7001  158.7988 C   0  0  0  0  0  0  0  0  0  0  0  0
  151.2447  140.5932  157.6462 C   0  0  0  0  0  0  0  0  0  0  0  0
  151.7773  141.9251  158.1387 C   0  0  0  0  0  0  0  0  0  0  0  0
  151.2972  143.1384  157.6007 C   0  0  0  0  0  0  0  0  0  0  0  0
  151.8214  144.3468  158.0997 C   0  0  0  0  0  0  0  0  0  0  0  0
  152.7987  144.2956  159.1123 C   0  0  0  0  0  0  0  0  0  0  0  0
  153.2101  143.0327  159.5835 C   0  0  0  0  0  0  0  0  0  0  0  0
  152.7135  141.8686  159.1127 N   0  0  0  0  0  0  0  0  0  0  0  0
  148.6676  136.6956  157.3418 H   0  0  0  0  0  0  0  0  0  0  0  0
  149.8182  135.5072  157.8779 H   0  0  0  0  0  0  0  0  0  0  0  0
  145.1981  135.4995  160.0161 H   0  0  0  0  0  0  0  0  0  0  0  0
  146.0510  136.8968  162.0872 H   0  0  0  0  0  0  0  0  0  0  0  0
  145.1501  135.4377  162.3953 H   0  0  0  0  0  0  0  0  0  0  0  0
  147.5754  135.8569  163.6347 H   0  0  0  0  0  0  0  0  0  0  0  0
  148.5223  133.6474  163.1820 H   0  0  0  0  0  0  0  0  0  0  0  0
  147.9619  132.4427  161.1741 H   0  0  0  0  0  0  0  0  0  0  0  0
  146.3546  132.6292  161.8202 H   0  0  0  0  0  0  0  0  0  0  0  0
  146.0875  133.4202  159.5910 H   0  0  0  0  0  0  0  0  0  0  0  0
  149.5787  138.6236  157.4055 H   0  0  0  0  0  0  0  0  0  0  0  0
  150.0872  140.2660  159.4487 H   0  0  0  0  0  0  0  0  0  0  0  0
  151.5944  139.3805  159.4196 H   0  0  0  0  0  0  0  0  0  0  0  0
  152.0333  140.0895  157.0849 H   0  0  0  0  0  0  0  0  0  0  0  0
  150.4321  140.7692  156.9400 H   0  0  0  0  0  0  0  0  0  0  0  0
  150.5452  143.1450  156.8253 H   0  0  0  0  0  0  0  0  0  0  0  0
  151.4800  145.2957  157.7129 H   0  0  0  0  0  0  0  0  0  0  0  0
  153.2232  145.2018  159.5185 H   0  0  0  0  0  0  0  0  0  0  0  0
  153.9574  142.9552  160.3593 H   0  0  0  0  0  0  0  0  0  0  0  0
  1  2  2  0  0  0  0
  2  3  1  0  0  0  0
  2 15  1  0  0  0  0
  3  4  1  0  0  0  0
  3 24  1  0  0  0  0
  3 25  1  0  0  0  0
  4 13  1  0  0  0  0
  4  5  1  0  0  0  0
  5  6  2  0  0  0  0
  5  7  1  0  0  0  0
  7 12  1  0  0  0  0
  7  8  1  0  0  0  0
  7 26  1  0  0  0  0
  8  9  1  0  0  0  0
  8 27  1  0  0  0  0
  8 28  1  0  0  0  0
  9 10  2  0  0  0  0
  9 29  1  0  0  0  0
 10 11  1  0  0  0  0
 10 30  1  0  0  0  0
 11 12  1  0  0  0  0
 11 31  1  0  0  0  0
 11 32  1  0  0  0  0
 12 13  1  0  0  0  0
 12 33  1  0  0  0  0
 13 14  2  0  0  0  0
 15 16  1  0  0  0  0
 15 34  1  0  0  0  0
 16 17  1  0  0  0  0
 16 35  1  0  0  0  0
 16 36  1  0  0  0  0
 17 18  1  0  0  0  0
 17 37  1  0  0  0  0
 17 38  1  0  0  0  0
 18 23  1  0  0  0  0
 18 19  2  0  0  0  0
 19 20  1  0  0  0  0
 19 39  1  0  0  0  0
 20 21  2  0  0  0  0
 20 40  1  0  0  0  0
 21 22  1  0  0  0  0
 21 41  1  0  0  0  0
 22 23  2  0  0  0  0
 22 42  1  0  0  0  0
M  END
> <s_m_source_file>
AV-unprocessed.smi

> <i_m_source_file_index>
2202

> <i_lp_mmshare_version>
43012

> <i_f3d_flags>
0

> <s_epik_input>
W0NIMl0xW0NIXT1bQ0hdW0NIMl1bQ0BIXShbQ0BIXTEyKUMoPU8pTihDMj1PKVtDSDJdQyg9TylbTkhdW0NIMl1bQ0gyXWMzW2NIXVtjSF1bY0hdW2NIXW4z

> <s_epik_cmdline>
J2VwaWtfcHl0aG9uJywgJy1waCcsICc3LjAnLCAnLXRuJywgJzgnLCAnLW1hJywgJzIwMCcsICctbWV0YWxfYmluZGluZycsICctaW1hZScsICc8aW5maWxlLm1hZT4nLCAnLW9tYWUnLCAnPG91dGZpbGUubWFlPic=

> <r_lp_tautomer_probability>
1

> <r_epik_Ionization_Penalty>
0.0244696

> <r_epik_Ionization_Penalty_Charging>
0

> <r_epik_Ionization_Penalty_Neutral>
0.0244696

> <r_epik_State_Penalty>
0.0198648

> <r_epik_Charging_Adjusted_Penalty>
0.0198648

> <i_epik_Tot_Q>
0

> <i_epik_Tot_abs_Q>
0

> <r_epik_Metal_State_Penalty>
0.0190699

> <b_epik_Metal_Only>
0

> <s_lp_Force_Field>
OPLS_2005

> <r_lp_Energy>
13.8656

> <b_lp_Chiralities_Consistent>
1

> <s_lp_Variant>
AV-unprocessed.smi:2202-1

> <Gold.Version>
5.8.1

> <Gold.Id.Protein>
6NUR|6NUR_protein|mol2

> <Gold.PLP.Fitness>
47.7315

> <Gold.PLP.PLP>
-41.2281

> <Gold.PLP.part.hbond>
-3.5893

> <Gold.PLP.part.metal>
0.0000

> <Gold.PLP.part.buried>
-6.0579

> <Gold.PLP.part.nonpolar>
-32.6981

> <Gold.PLP.part.repulsive>
0.1204

> <Gold.PLP.ligand.clash>
0.0000

> <Gold.PLP.ligand.torsion>
0.3741

> <Gold.PLP.Chemscore.Hbond>
2.4006

> <Gold.PLP.Chemscore.CHOScore>
0.0000

> <Gold.PLP.Chemscore.Metal>
0.0000

> <Gold.Chemscore.Hbonds>
donor molecule, donor type, donor heavy atom, donor atom, acceptor molecule, acceptor atom, score
      P1  H  6896  6907       L1    14  0.65
      P1  H  6896  6908       L1     1  0.47
      P1  H  6934  6947       L1     6  0.94

> <Gold.PLP.Chemscore.Internal.Correction>
0.0496

> <Gold.Rescore>
     Score         DG    S(hbond)    S(metal)    S(lipo)     H(rot)  DE(clash)    DE(int)     intcor
     19.23     -20.48       2.18        0.00     106.63       1.85       0.12       1.13       ----

> <Gold.Chemscore.Fitness>
19.2331

> <Gold.Chemscore.DG>
-20.4836

> <Gold.Chemscore.ZeroCoef>
-5.4800

> <Gold.Chemscore.Hbond>
2.1778

> <Gold.Chemscore.Metal>
0.0000

> <Gold.Chemscore.Lipo>
106.6310

> <Gold.Chemscore.Internal_Hbond>
0.0000

> <Gold.Chemscore.DEClash>
0.1213

> <Gold.Chemscore.DEInternal>
1.1292

> <Gold.Chemscore.Rot>
1.8540

> <Gold.Chemscore.Internal.Correction>
   9.000000E+99

> <Gold.Chemscore.Hbonds>
donor molecule, donor type, donor heavy atom, donor atom, acceptor molecule, acceptor atom, score
      P1  H  6896  6907       L1    14  0.57
      P1  H  6896  6908       L1     1  0.31
      P1  H  6934  6947       L1     6  0.91

> <Gold.Chemscore.Hbond.Weighted>
-7.2740

> <Gold.Chemscore.Metal.Weighted>
-0.0000

> <Gold.Chemscore.Lipo.Weighted>
-12.4758

> <Gold.Chemscore.Internal_Hbond.Weighted>
0.0000

> <Gold.Chemscore.DEClash.Weighted>
0.1213

> <Gold.Chemscore.DEInternal.Weighted>
1.1292

> <Gold.Chemscore.Rot.Weighted>
4.7462

> <Gold.Chemscore.Internal.Correction.Weighted>
   9.000000E+99

> <Gold.Protein.RotatedTorsions>
[ 6907 6896 6895 6894 ] final -124.26 input  -60.11 | X-H torsion
[ 7974 7965 7964 7962 ] final  -72.75 input  175.53 | X-H torsion
[ 8008 7997 7996 7995 ] final  127.35 input   59.86 | X-H torsion
[ 10167 10162 10161 10158 ] final  -39.59 input  -65.29 | X-H torsion
[ 10718 10713 10712 10709 ] final  -45.58 input   66.30 | X-H torsion
[ 10763 10752 10751 10750 ] final   61.72 input  -60.55 | X-H torsion
[ 11005 11000 10999 10996 ] final  172.94 input  -57.11 | X-H torsion

> <Gold.Protein.ActiveResidues>
 VAL166  LYS551  ARG553  GLY616  TRP617  ASP618  TYR619  PRO620  LYS621  CYS622 
 ASP623  PHE694  ASN695  SER759  ASP760  ASP761  ALA762  ILE779  LEU786  VAL792 
 PHE793  MET794  SER795  GLU796  ALA797  LYS798  CYS799  TRP800  GLU811  SER814 

> <Gold.Protein.RotatedAtoms>
  150.8751  133.7451  159.2949 H   0  0  0  0  0  0  0  0  0  0  0  0  # atno 6907 bound_to 6896
  151.5050  135.1061  159.9848 H   0  0  0  0  0  0  0  0  0  0  0  0  # atno 6908 bound_to 6896
  152.4722  133.8010  159.7008 H   0  0  0  0  0  0  0  0  0  0  0  0  # atno 6909 bound_to 6896
  145.6610  140.9252  143.0933 H   0  0  0  0  0  0  0  0  0  0  0  0  # atno 7974 bound_to 7965
  156.2888  140.2671  156.2260 H   0  0  0  0  0  0  0  0  0  0  0  0  # atno 8008 bound_to 7997
  155.0120  140.0387  157.2421 H   0  0  0  0  0  0  0  0  0  0  0  0  # atno 8009 bound_to 7997
  154.7509  140.2743  155.6298 H   0  0  0  0  0  0  0  0  0  0  0  0  # atno 8010 bound_to 7997
  140.7059  143.3205  151.2804 H   0  0  0  0  0  0  0  0  0  0  0  0  # atno 10167 bound_to 10162
  156.2269  130.4170  149.8922 H   0  0  0  0  0  0  0  0  0  0  0  0  # atno 10718 bound_to 10713
  152.9959  135.5491  154.6078 H   0  0  0  0  0  0  0  0  0  0  0  0  # atno 10763 bound_to 10752
  154.5405  135.2819  155.1101 H   0  0  0  0  0  0  0  0  0  0  0  0  # atno 10764 bound_to 10752
  154.2381  135.6421  153.5250 H   0  0  0  0  0  0  0  0  0  0  0  0  # atno 10765 bound_to 10752
  140.3351  134.7324  157.4162 H   0  0  0  0  0  0  0  0  0  0  0  0  # atno 11005 bound_to 11000
  144.7089  139.8449  143.7421 LP  0  0  0  0  0  0  0  0  0  0  0  0  # atno 17320 bound_to 7965
  146.1125  139.4131  143.0279 LP  0  0  0  0  0  0  0  0  0  0  0  0  # atno 17321 bound_to 7965
  139.6657  144.0109  152.2721 LP  0  0  0  0  0  0  0  0  0  0  0  0  # atno 17342 bound_to 10162
  139.9691  144.6506  150.8006 LP  0  0  0  0  0  0  0  0  0  0  0  0  # atno 17343 bound_to 10162
  156.6549  130.8759  151.3537 LP  0  0  0  0  0  0  0  0  0  0  0  0  # atno 17370 bound_to 10713
  157.7115  130.9446  150.1105 LP  0  0  0  0  0  0  0  0  0  0  0  0  # atno 17371 bound_to 10713
  140.0828  134.5708  155.8523 LP  0  0  0  0  0  0  0  0  0  0  0  0  # atno 17394 bound_to 11000
  141.2053  133.6646  156.6174 LP  0  0  0  0  0  0  0  0  0  0  0  0  # atno 17395 bound_to 11000

$$$$
