AV-unprocessed.smi:3158|AV-procd|sdf|12042|dock6
  -GOLD-   2272017463D 1   1.00000     0.00000
 Structure written by MMmdl.
 40 40  0  0  0  0  0  0  0  0  2 V2000
  150.1418  141.1230  155.3348 C   0  0  0  0  0  0  0  0  0  0  0  0
  148.9985  140.2008  154.8866 C   0  0  0  0  0  0  0  0  0  0  0  0
  149.3877  139.2492  153.7401 C   0  0  1  0  0  0  0  0  0  0  0  0
  150.5535  138.3292  154.1319 C   0  0  0  0  0  0  0  0  0  0  0  0
  148.2357  138.4423  153.3437 N   0  0  0  0  0  0  0  0  0  0  0  0
  147.0302  138.9182  152.9961 C   0  0  0  0  0  0  0  0  0  0  0  0
  146.7601  140.1189  152.9505 O   0  0  0  0  0  0  0  0  0  0  0  0
  145.9635  137.8757  152.6363 C   0  0  2  0  0  0  0  0  0  0  0  0
  145.7276  136.9336  153.8263 C   0  0  0  0  0  0  0  0  0  0  0  0
  146.3624  137.0913  151.4470 N   0  3  0  0  0  0  0  0  0  0  0  0
  145.5066  135.9201  151.1551 C   0  0  0  0  0  0  0  0  0  0  0  0
  146.2969  134.6056  151.2740 C   0  0  0  0  0  0  0  0  0  0  0  0
  145.4817  133.4299  151.0143 N   0  0  0  0  0  0  0  0  0  0  0  0
  145.8899  132.1185  150.8869 C   0  0  0  0  0  0  0  0  0  0  0  0
  144.7729  131.3633  150.6706 C   0  0  0  0  0  0  0  0  0  0  0  0
  143.7127  132.3117  150.6962 C   0  0  0  0  0  0  0  0  0  0  0  0
  144.1393  133.5456  150.9108 N   0  0  0  0  0  0  0  0  0  0  0  0
  149.8315  141.7413  156.1772 H   0  0  0  0  0  0  0  0  0  0  0  0
  150.4568  141.7930  154.5343 H   0  0  0  0  0  0  0  0  0  0  0  0
  151.0114  140.5455  155.6499 H   0  0  0  0  0  0  0  0  0  0  0  0
  148.6715  139.6120  155.7445 H   0  0  0  0  0  0  0  0  0  0  0  0
  148.1405  140.8063  154.5915 H   0  0  0  0  0  0  0  0  0  0  0  0
  149.7142  139.8644  152.8995 H   0  0  0  0  0  0  0  0  0  0  0  0
  151.4332  138.9088  154.4123 H   0  0  0  0  0  0  0  0  0  0  0  0
  150.8395  137.6813  153.3026 H   0  0  0  0  0  0  0  0  0  0  0  0
  150.2909  137.6925  154.9776 H   0  0  0  0  0  0  0  0  0  0  0  0
  148.3670  137.4409  153.3451 H   0  0  0  0  0  0  0  0  0  0  0  0
  145.0225  138.3819  152.4128 H   0  0  0  0  0  0  0  0  0  0  0  0
  145.4121  137.4856  154.7126 H   0  0  0  0  0  0  0  0  0  0  0  0
  146.6307  136.3786  154.0848 H   0  0  0  0  0  0  0  0  0  0  0  0
  144.9466  136.2068  153.6008 H   0  0  0  0  0  0  0  0  0  0  0  0
  146.3495  137.7103  150.6484 H   0  0  0  0  0  0  0  0  0  0  0  0
  144.6703  135.9126  151.8547 H   0  0  0  0  0  0  0  0  0  0  0  0
  145.0752  136.0051  150.1568 H   0  0  0  0  0  0  0  0  0  0  0  0
  147.1389  134.6083  150.5805 H   0  0  0  0  0  0  0  0  0  0  0  0
  146.7157  134.5116  152.2764 H   0  0  0  0  0  0  0  0  0  0  0  0
  146.9295  131.8335  150.9579 H   0  0  0  0  0  0  0  0  0  0  0  0
  144.7199  130.2950  150.5219 H   0  0  0  0  0  0  0  0  0  0  0  0
  142.6536  132.1408  150.5700 H   0  0  0  0  0  0  0  0  0  0  0  0
  147.3058  136.7585  151.5838 H   0  0  0  0  0  0  0  0  0  0  0  0
  1  2  1  0  0  0  0
  1 18  1  0  0  0  0
  1 19  1  0  0  0  0
  1 20  1  0  0  0  0
  2  3  1  0  0  0  0
  2 21  1  0  0  0  0
  2 22  1  0  0  0  0
  3  4  1  0  0  0  0
  3  5  1  0  0  0  0
  3 23  1  0  0  0  0
  4 24  1  0  0  0  0
  4 25  1  0  0  0  0
  4 26  1  0  0  0  0
  5  6  1  0  0  0  0
  5 27  1  0  0  0  0
  6  7  2  0  0  0  0
  6  8  1  0  0  0  0
  8  9  1  0  0  0  0
  8 10  1  0  0  0  0
  8 28  1  0  0  0  0
  9 29  1  0  0  0  0
  9 30  1  0  0  0  0
  9 31  1  0  0  0  0
 10 11  1  0  0  0  0
 10 32  1  0  0  0  0
 10 40  1  0  0  0  0
 11 12  1  0  0  0  0
 11 33  1  0  0  0  0
 11 34  1  0  0  0  0
 12 13  1  0  0  0  0
 12 35  1  0  0  0  0
 12 36  1  0  0  0  0
 13 17  1  0  0  0  0
 13 14  1  0  0  0  0
 14 15  2  0  0  0  0
 14 37  1  0  0  0  0
 15 16  1  0  0  0  0
 15 38  1  0  0  0  0
 16 17  2  0  0  0  0
 16 39  1  0  0  0  0
M  CHG  1  10   1
M  END
> <s_m_source_file>
AV-unprocessed.smi

> <i_m_source_file_index>
3158

> <i_lp_mmshare_version>
43012

> <i_f3d_flags>
0

> <s_epik_input>
W0NIM11bQ0gyXVtDQEhdKFtDSDNdKVtOSF1DKD1PKVtDQEhdKFtDSDNdKVtOSF1bQ0gyXVtDSDJdbjFbY0hdW2NIXVtjSF1uMQ==

> <s_epik_cmdline>
J2VwaWtfcHl0aG9uJywgJy1waCcsICc3LjAnLCAnLXRuJywgJzgnLCAnLW1hJywgJzIwMCcsICctbWV0YWxfYmluZGluZycsICctaW1hZScsICc8aW5maWxlLm1hZT4nLCAnLW9tYWUnLCAnPG91dGZpbGUubWFlPic=

> <r_lp_tautomer_probability>
1

> <r_epik_Ionization_Penalty>
0.20724

> <r_epik_Ionization_Penalty_Charging>
0.207237

> <r_epik_Ionization_Penalty_Neutral>
3.33806e-06

> <r_epik_State_Penalty>
0.197234

> <r_epik_Charging_Adjusted_Penalty>
0.404471

> <i_epik_Tot_Q>
1

> <i_epik_Tot_abs_Q>
1

> <r_epik_Metal_State_Penalty>
0.197524

> <b_epik_Metal_Only>
0

> <s_lp_Force_Field>
OPLS_2005

> <r_lp_Energy>
6.13047

> <b_lp_Chiralities_Consistent>
1

> <s_lp_Variant>
AV-unprocessed.smi:3158-2

> <Gold.Version>
5.8.1

> <Gold.Id.Protein>
6NUR|6NUR_protein|mol2

> <Gold.PLP.Fitness>
45.5615

> <Gold.PLP.PLP>
-32.3897

> <Gold.PLP.part.hbond>
-3.3530

> <Gold.PLP.part.metal>
0.0000

> <Gold.PLP.part.buried>
-1.0691

> <Gold.PLP.part.nonpolar>
-29.3785

> <Gold.PLP.part.repulsive>
0.5737

> <Gold.PLP.ligand.clash>
0.0000

> <Gold.PLP.ligand.torsion>
0.5428

> <Gold.PLP.Chemscore.Hbond>
2.5440

> <Gold.PLP.Chemscore.CHOScore>
2.1774

> <Gold.PLP.Chemscore.Metal>
0.0000

> <Gold.Chemscore.Hbonds>
donor molecule, donor type, donor heavy atom, donor atom, acceptor molecule, acceptor atom, score
      L1  H     5    27       P1  7948  0.58
      L1  H    10    40       P1  7948  2.00
      L1  C    14    37       P1 10747  1.00
      L1  C    16    39       P1 10952  0.46

> <Gold.PLP.Chemscore.Internal.Correction>
0.0934

> <Gold.Rescore>
     Score         DG    S(hbond)    S(metal)    S(lipo)     H(rot)  DE(clash)    DE(int)     intcor
     13.24     -14.18       1.62        0.00      76.62       2.21       0.45       0.48       ----

> <Gold.Chemscore.Fitness>
13.2436

> <Gold.Chemscore.DG>
-14.1761

> <Gold.Chemscore.ZeroCoef>
-5.4800

> <Gold.Chemscore.Hbond>
1.6161

> <Gold.Chemscore.Metal>
0.0000

> <Gold.Chemscore.Lipo>
76.6165

> <Gold.Chemscore.Internal_Hbond>
0.0000

> <Gold.Chemscore.DEClash>
0.4546

> <Gold.Chemscore.DEInternal>
0.4779

> <Gold.Chemscore.Rot>
2.2132

> <Gold.Chemscore.Internal.Correction>
   9.000000E+99

> <Gold.Chemscore.Hbonds>
donor molecule, donor type, donor heavy atom, donor atom, acceptor molecule, acceptor atom, score
      L1  H     5    27       P1  7948  0.56
      L1  H    10    40       P1  7948  1.00

> <Gold.Chemscore.Hbond.Weighted>
-5.3978

> <Gold.Chemscore.Metal.Weighted>
-0.0000

> <Gold.Chemscore.Lipo.Weighted>
-8.9641

> <Gold.Chemscore.Internal_Hbond.Weighted>
0.0000

> <Gold.Chemscore.DEClash.Weighted>
0.4546

> <Gold.Chemscore.DEInternal.Weighted>
0.4779

> <Gold.Chemscore.Rot.Weighted>
5.6658

> <Gold.Chemscore.Internal.Correction.Weighted>
   9.000000E+99

> <Gold.Protein.RotatedTorsions>
[ 6907 6896 6895 6894 ] final  -14.10 input  -60.11 | X-H torsion
[ 7974 7965 7964 7962 ] final  154.32 input  175.53 | X-H torsion
[ 8008 7997 7996 7995 ] final  -89.63 input   59.86 | X-H torsion
[ 10167 10162 10161 10158 ] final  -72.42 input  -65.29 | X-H torsion
[ 10718 10713 10712 10709 ] final  166.21 input   66.30 | X-H torsion
[ 10763 10752 10751 10750 ] final  175.06 input  -60.55 | X-H torsion
[ 11005 11000 10999 10996 ] final   67.38 input  -57.11 | X-H torsion

> <Gold.Protein.ActiveResidues>
 VAL166  LYS551  ARG553  GLY616  TRP617  ASP618  TYR619  PRO620  LYS621  CYS622 
 ASP623  PHE694  ASN695  SER759  ASP760  ASP761  ALA762  ILE779  LEU786  VAL792 
 PHE793  MET794  SER795  GLU796  ALA797  LYS798  CYS799  TRP800  GLU811  SER814 

> <Gold.Protein.RotatedAtoms>
  151.3446  135.0871  159.9382 H   0  0  0  0  0  0  0  0  0  0  0  0  # atno 6907 bound_to 6896
  152.5203  133.9413  159.7638 H   0  0  0  0  0  0  0  0  0  0  0  0  # atno 6908 bound_to 6896
  150.9777  133.6224  159.2757 H   0  0  0  0  0  0  0  0  0  0  0  0  # atno 6909 bound_to 6896
  144.8096  139.6918  143.6147 H   0  0  0  0  0  0  0  0  0  0  0  0  # atno 7974 bound_to 7965
  154.6889  140.0539  157.0343 H   0  0  0  0  0  0  0  0  0  0  0  0  # atno 8008 bound_to 7997
  155.0845  140.3213  155.4573 H   0  0  0  0  0  0  0  0  0  0  0  0  # atno 8009 bound_to 7997
  156.2721  140.2059  156.5973 H   0  0  0  0  0  0  0  0  0  0  0  0  # atno 8010 bound_to 7997
  140.5194  143.2333  151.7457 H   0  0  0  0  0  0  0  0  0  0  0  0  # atno 10167 bound_to 10162
  157.0692  131.0361  151.2618 H   0  0  0  0  0  0  0  0  0  0  0  0  # atno 10718 bound_to 10713
  154.4625  135.2768  155.1702 H   0  0  0  0  0  0  0  0  0  0  0  0  # atno 10763 bound_to 10752
  154.3484  135.6155  153.5634 H   0  0  0  0  0  0  0  0  0  0  0  0  # atno 10764 bound_to 10752
  152.9856  135.5805  154.4990 H   0  0  0  0  0  0  0  0  0  0  0  0  # atno 10765 bound_to 10752
  139.9774  134.6799  156.0327 H   0  0  0  0  0  0  0  0  0  0  0  0  # atno 11005 bound_to 11000
  146.2393  139.5969  142.9502 LP  0  0  0  0  0  0  0  0  0  0  0  0  # atno 17320 bound_to 7965
  145.5355  141.0424  143.2360 LP  0  0  0  0  0  0  0  0  0  0  0  0  # atno 17321 bound_to 7965
  139.4919  144.4277  151.9907 LP  0  0  0  0  0  0  0  0  0  0  0  0  # atno 17342 bound_to 10162
  140.3373  144.3246  150.5974 LP  0  0  0  0  0  0  0  0  0  0  0  0  # atno 17343 bound_to 10162
  157.4892  130.7812  149.7491 LP  0  0  0  0  0  0  0  0  0  0  0  0  # atno 17370 bound_to 10713
  155.9955  130.3911  150.2814 LP  0  0  0  0  0  0  0  0  0  0  0  0  # atno 17371 bound_to 10713
  141.1450  133.6557  156.3841 LP  0  0  0  0  0  0  0  0  0  0  0  0  # atno 17394 bound_to 11000
  140.5165  134.6345  157.5303 LP  0  0  0  0  0  0  0  0  0  0  0  0  # atno 17395 bound_to 11000

$$$$
