AV-unprocessed.smi:368|AV-procd|sdf|2434|dock3
  -GOLD-   2262022373D 1   1.00000     0.00000
 Structure written by MMmdl.
 37 38  0  0  0  0  0  0  0  0  1 V2000
  154.8095  140.2750  157.9520 O   0  0  0  0  0  0  0  0  0  0  0  0
  153.6430  139.9001  158.0802 C   0  0  0  0  0  0  0  0  0  0  0  0
  153.1964  138.5195  157.5772 C   0  0  0  0  0  0  0  0  0  0  0  0
  152.1410  138.5796  156.5527 N   0  0  0  0  0  0  0  0  0  0  0  0
  150.9016  137.9957  156.8639 C   0  0  0  0  0  0  0  0  0  0  0  0
  149.8929  138.0094  155.9807 C   0  0  0  0  0  0  0  0  0  0  0  0
  150.1627  138.6611  154.6923 C   0  0  0  0  0  0  0  0  0  0  0  0
  151.2929  139.1899  154.4036 N   0  0  0  0  0  0  0  0  0  0  0  0
  152.3522  139.1692  155.3308 C   0  0  0  0  0  0  0  0  0  0  0  0
  153.4442  139.6675  155.0567 O   0  0  0  0  0  0  0  0  0  0  0  0
  152.6913  140.6426  158.6664 N   0  0  0  0  0  0  0  0  0  0  0  0
  152.8756  141.9825  159.2189 C   0  0  0  0  0  0  0  0  0  0  0  0
  152.7354  141.9089  160.7538 C   0  0  0  0  0  0  0  0  0  0  0  0
  153.2391  143.1731  161.4709 C   0  0  0  0  0  0  0  0  0  0  0  0
  152.2063  144.3020  161.6337 C   0  0  0  0  0  0  0  0  0  0  0  0
  151.2748  144.5588  160.4366 C   0  0  0  0  0  0  0  0  0  0  0  0
  151.9218  144.3990  159.0515 C   0  0  0  0  0  0  0  0  0  0  0  0
  151.8837  142.9490  158.5389 C   0  0  0  0  0  0  0  0  0  0  0  0
  154.0733  137.9996  157.1886 H   0  0  0  0  0  0  0  0  0  0  0  0
  152.8602  137.9195  158.4249 H   0  0  0  0  0  0  0  0  0  0  0  0
  150.8314  137.5423  157.8419 H   0  0  0  0  0  0  0  0  0  0  0  0
  148.9184  137.5777  156.1548 H   0  0  0  0  0  0  0  0  0  0  0  0
  149.3275  138.6658  153.9871 H   0  0  0  0  0  0  0  0  0  0  0  0
  151.7625  140.2516  158.7292 H   0  0  0  0  0  0  0  0  0  0  0  0
  153.8920  142.3110  158.9929 H   0  0  0  0  0  0  0  0  0  0  0  0
  151.7100  141.6784  161.0460 H   0  0  0  0  0  0  0  0  0  0  0  0
  153.3397  141.0723  161.1085 H   0  0  0  0  0  0  0  0  0  0  0  0
  153.5891  142.8975  162.4664 H   0  0  0  0  0  0  0  0  0  0  0  0
  154.1214  143.5553  160.9562 H   0  0  0  0  0  0  0  0  0  0  0  0
  151.5874  144.0978  162.5080 H   0  0  0  0  0  0  0  0  0  0  0  0
  152.7462  145.2204  161.8677 H   0  0  0  0  0  0  0  0  0  0  0  0
  150.4033  143.9068  160.5060 H   0  0  0  0  0  0  0  0  0  0  0  0
  150.8812  145.5716  160.5302 H   0  0  0  0  0  0  0  0  0  0  0  0
  151.3568  145.0098  158.3467 H   0  0  0  0  0  0  0  0  0  0  0  0
  152.9374  144.7961  159.0409 H   0  0  0  0  0  0  0  0  0  0  0  0
  152.0981  142.9656  157.4694 H   0  0  0  0  0  0  0  0  0  0  0  0
  150.8677  142.5604  158.6254 H   0  0  0  0  0  0  0  0  0  0  0  0
  1  2  2  0  0  0  0
  2  3  1  0  0  0  0
  2 11  1  0  0  0  0
  3  4  1  0  0  0  0
  3 19  1  0  0  0  0
  3 20  1  0  0  0  0
  4  9  1  0  0  0  0
  4  5  1  0  0  0  0
  5  6  2  0  0  0  0
  5 21  1  0  0  0  0
  6  7  1  0  0  0  0
  6 22  1  0  0  0  0
  7  8  2  0  0  0  0
  7 23  1  0  0  0  0
  8  9  1  0  0  0  0
  9 10  2  0  0  0  0
 11 12  1  0  0  0  0
 11 24  1  0  0  0  0
 12 18  1  0  0  0  0
 12 13  1  0  0  0  0
 12 25  1  0  0  0  0
 13 14  1  0  0  0  0
 13 26  1  0  0  0  0
 13 27  1  0  0  0  0
 14 15  1  0  0  0  0
 14 28  1  0  0  0  0
 14 29  1  0  0  0  0
 15 16  1  0  0  0  0
 15 30  1  0  0  0  0
 15 31  1  0  0  0  0
 16 17  1  0  0  0  0
 16 32  1  0  0  0  0
 16 33  1  0  0  0  0
 17 18  1  0  0  0  0
 17 34  1  0  0  0  0
 17 35  1  0  0  0  0
 18 36  1  0  0  0  0
 18 37  1  0  0  0  0
M  END
> <s_m_source_file>
AV-unprocessed.smi

> <i_m_source_file_index>
368

> <i_lp_mmshare_version>
43012

> <i_f3d_flags>
0

> <s_epik_input>
W0NIMl0xW0NIMl1bQ0gyXVtDSDJdW0NIMl1bQ0gyXVtDSF0xW05IXUMoPU8pW0NIMl1uMltjSF1bY0hdW2NIXW5jMj1P

> <s_epik_cmdline>
J2VwaWtfcHl0aG9uJywgJy1waCcsICc3LjAnLCAnLXRuJywgJzgnLCAnLW1hJywgJzIwMCcsICctbWV0YWxfYmluZGluZycsICctaW1hZScsICc8aW5maWxlLm1hZT4nLCAnLW9tYWUnLCAnPG91dGZpbGUubWFlPic=

> <r_lp_tautomer_probability>
1

> <r_epik_Ionization_Penalty>
7.18069e-06

> <r_epik_Ionization_Penalty_Charging>
1.77491e-08

> <r_epik_Ionization_Penalty_Neutral>
7.16294e-06

> <r_epik_State_Penalty>
-0

> <r_epik_Charging_Adjusted_Penalty>
1.77491e-08

> <i_epik_Tot_Q>
0

> <i_epik_Tot_abs_Q>
0

> <r_epik_Metal_State_Penalty>
-0

> <b_epik_Metal_Only>
0

> <s_lp_Force_Field>
OPLS_2005

> <r_lp_Energy>
17.0449

> <b_lp_Chiralities_Consistent>
1

> <s_lp_Variant>
AV-unprocessed.smi:368-1

> <Gold.Version>
5.8.1

> <Gold.Id.Protein>
6NUR|6NUR_protein|mol2

> <Gold.PLP.Fitness>
45.6268

> <Gold.PLP.PLP>
-34.1374

> <Gold.PLP.part.hbond>
-3.0000

> <Gold.PLP.part.metal>
0.0000

> <Gold.PLP.part.buried>
-1.0354

> <Gold.PLP.part.nonpolar>
-30.1059

> <Gold.PLP.part.repulsive>
0.2544

> <Gold.PLP.ligand.clash>
0.0000

> <Gold.PLP.ligand.torsion>
0.0464

> <Gold.PLP.Chemscore.Hbond>
2.8560

> <Gold.PLP.Chemscore.CHOScore>
1.0000

> <Gold.PLP.Chemscore.Metal>
0.0000

> <Gold.Chemscore.Hbonds>
donor molecule, donor type, donor heavy atom, donor atom, acceptor molecule, acceptor atom, score
      P1  H  7989  7998       L1     8  1.00
      P1  H  7997  8009       L1    10  0.70

> <Gold.PLP.Chemscore.Internal.Correction>
0.0142

> <Gold.Rescore>
     Score         DG    S(hbond)    S(metal)    S(lipo)     H(rot)  DE(clash)    DE(int)     intcor
     21.87     -22.09       2.70        0.00      97.71       1.50       0.13       0.08       ----

> <Gold.Chemscore.Fitness>
21.8746

> <Gold.Chemscore.DG>
-22.0927

> <Gold.Chemscore.ZeroCoef>
-5.4800

> <Gold.Chemscore.Hbond>
2.6990

> <Gold.Chemscore.Metal>
0.0000

> <Gold.Chemscore.Lipo>
97.7112

> <Gold.Chemscore.Internal_Hbond>
0.0000

> <Gold.Chemscore.DEClash>
0.1337

> <Gold.Chemscore.DEInternal>
0.0844

> <Gold.Chemscore.Rot>
1.4977

> <Gold.Chemscore.Internal.Correction>
   9.000000E+99

> <Gold.Chemscore.Hbonds>
donor molecule, donor type, donor heavy atom, donor atom, acceptor molecule, acceptor atom, score
      P1  H  7989  7998       L1     8  0.30
      P1  H  7997  8009       L1    10  0.71

> <Gold.Chemscore.Hbond.Weighted>
-9.0146

> <Gold.Chemscore.Metal.Weighted>
-0.0000

> <Gold.Chemscore.Lipo.Weighted>
-11.4322

> <Gold.Chemscore.Internal_Hbond.Weighted>
0.0000

> <Gold.Chemscore.DEClash.Weighted>
0.1337

> <Gold.Chemscore.DEInternal.Weighted>
0.0844

> <Gold.Chemscore.Rot.Weighted>
3.8341

> <Gold.Chemscore.Internal.Correction.Weighted>
   9.000000E+99

> <Gold.Protein.RotatedTorsions>
[ 6907 6896 6895 6894 ] final   36.15 input  -60.11 | X-H torsion
[ 7974 7965 7964 7962 ] final -150.38 input  175.53 | X-H torsion
[ 8008 7997 7996 7995 ] final -124.45 input   59.86 | X-H torsion
[ 10167 10162 10161 10158 ] final  158.36 input  -65.29 | X-H torsion
[ 10718 10713 10712 10709 ] final -133.45 input   66.30 | X-H torsion
[ 10763 10752 10751 10750 ] final -124.23 input  -60.55 | X-H torsion
[ 11005 11000 10999 10996 ] final  -86.95 input  -57.11 | X-H torsion

> <Gold.Protein.ActiveResidues>
 VAL166  LYS551  ARG553  GLY616  TRP617  ASP618  TYR619  PRO620  LYS621  CYS622 
 ASP623  PHE694  ASN695  SER759  ASP760  ASP761  ALA762  ILE779  LEU786  VAL792 
 PHE793  MET794  SER795  GLU796  ALA797  LYS798  CYS799  TRP800  GLU811  SER814 

> <Gold.Protein.RotatedAtoms>
  152.1258  134.9172  160.0560 H   0  0  0  0  0  0  0  0  0  0  0  0  # atno 6907 bound_to 6896
  152.0295  133.3926  159.4299 H   0  0  0  0  0  0  0  0  0  0  0  0  # atno 6908 bound_to 6896
  150.6852  134.3458  159.4931 H   0  0  0  0  0  0  0  0  0  0  0  0  # atno 6909 bound_to 6896
  144.7911  140.4939  143.5772 H   0  0  0  0  0  0  0  0  0  0  0  0  # atno 7974 bound_to 7965
  155.1972  140.0415  157.2911 H   0  0  0  0  0  0  0  0  0  0  0  0  # atno 8008 bound_to 7997
  154.6099  140.2474  155.7654 H   0  0  0  0  0  0  0  0  0  0  0  0  # atno 8009 bound_to 7997
  156.2373  140.2917  156.0356 H   0  0  0  0  0  0  0  0  0  0  0  0  # atno 8010 bound_to 7997
  139.4826  144.4831  151.8415 H   0  0  0  0  0  0  0  0  0  0  0  0  # atno 10167 bound_to 10162
  156.2451  130.7119  151.0996 H   0  0  0  0  0  0  0  0  0  0  0  0  # atno 10718 bound_to 10713
  154.8720  135.4071  154.3071 H   0  0  0  0  0  0  0  0  0  0  0  0  # atno 10763 bound_to 10752
  153.3921  135.7015  153.6492 H   0  0  0  0  0  0  0  0  0  0  0  0  # atno 10764 bound_to 10752
  153.5271  135.3675  155.2630 H   0  0  0  0  0  0  0  0  0  0  0  0  # atno 10765 bound_to 10752
  141.1623  133.7483  156.9236 H   0  0  0  0  0  0  0  0  0  0  0  0  # atno 11005 bound_to 11000
  145.5792  139.1488  143.3245 LP  0  0  0  0  0  0  0  0  0  0  0  0  # atno 17320 bound_to 7965
  146.2163  140.5923  142.9037 LP  0  0  0  0  0  0  0  0  0  0  0  0  # atno 17321 bound_to 7965
  140.4309  144.2117  150.5888 LP  0  0  0  0  0  0  0  0  0  0  0  0  # atno 17342 bound_to 10162
  140.4780  143.2389  151.8995 LP  0  0  0  0  0  0  0  0  0  0  0  0  # atno 17343 bound_to 10162
  157.7191  131.0692  150.6207 LP  0  0  0  0  0  0  0  0  0  0  0  0  # atno 17370 bound_to 10713
  156.6283  130.4425  149.5796 LP  0  0  0  0  0  0  0  0  0  0  0  0  # atno 17371 bound_to 10713
  140.1435  134.9278  157.2498 LP  0  0  0  0  0  0  0  0  0  0  0  0  # atno 17394 bound_to 11000
  140.2808  134.3352  155.7343 LP  0  0  0  0  0  0  0  0  0  0  0  0  # atno 17395 bound_to 11000

$$$$
