AV-unprocessed.smi:2902|AV-procd|sdf|11155|dock2
  -GOLD-   2272016 33D 1   1.00000     0.00000
 Structure written by MMmdl.
 47 48  0  0  0  0  0  0  0  0  1 V2000
  151.0994  141.3567  154.7972 C   0  0  0  0  0  0  0  0  0  0  0  0
  151.5190  141.9902  156.1325 C   0  0  0  0  0  0  0  0  0  0  0  0
  150.3460  142.5721  156.9467 C   0  0  2  0  0  0  0  0  0  0  0  0
  150.7618  142.6248  158.3081 O   0  0  0  0  0  0  0  0  0  0  0  0
  151.9100  143.4261  158.5793 C   0  0  0  0  0  0  0  0  0  0  0  0
  152.3443  143.1782  160.0240 C   0  0  0  0  0  0  0  0  0  0  0  0
  151.4297  144.0579  160.8861 C   0  0  0  0  0  0  0  0  0  0  0  0
  150.8437  145.1258  159.9490 C   0  0  0  0  0  0  0  0  0  0  0  0
  151.4934  144.8969  158.5805 C   0  0  0  0  0  0  0  0  0  0  0  0
  149.0693  141.7212  156.8297 C   0  0  0  0  0  0  0  0  0  0  0  0
  149.0758  140.5411  157.1802 O   0  0  0  0  0  0  0  0  0  0  0  0
  147.9853  142.3459  156.3452 N   0  0  0  0  0  0  0  0  0  0  0  0
  146.6606  141.7593  156.1433 C   0  0  2  0  0  0  0  0  0  0  0  0
  146.2015  142.0432  154.7033 C   0  0  0  0  0  0  0  0  0  0  0  0
  145.6549  142.2503  157.2186 C   0  0  1  0  0  0  0  0  0  0  0  0
  144.1839  142.0135  156.8265 C   0  0  0  0  0  0  0  0  0  0  0  0
  145.9462  141.7264  158.5494 N   0  0  0  0  0  0  0  0  0  0  0  0
  147.0967  141.6879  159.2251 C   0  0  0  0  0  0  0  0  0  0  0  0
  147.0047  141.1063  160.4129 N   0  0  0  0  0  0  0  0  0  0  0  0
  145.6781  140.7813  160.4055 C   0  0  0  0  0  0  0  0  0  0  0  0
  144.9991  141.1242  159.3112 N   0  0  0  0  0  0  0  0  0  0  0  0
  151.9725  141.0117  154.2430 H   0  0  0  0  0  0  0  0  0  0  0  0
  150.5713  142.0756  154.1705 H   0  0  0  0  0  0  0  0  0  0  0  0
  150.4457  140.4972  154.9467 H   0  0  0  0  0  0  0  0  0  0  0  0
  152.0628  141.2558  156.7284 H   0  0  0  0  0  0  0  0  0  0  0  0
  152.2312  142.7896  155.9262 H   0  0  0  0  0  0  0  0  0  0  0  0
  150.1552  143.5882  156.5949 H   0  0  0  0  0  0  0  0  0  0  0  0
  152.7303  143.2388  157.8844 H   0  0  0  0  0  0  0  0  0  0  0  0
  152.3007  142.1245  160.3017 H   0  0  0  0  0  0  0  0  0  0  0  0
  153.3774  143.5056  160.1477 H   0  0  0  0  0  0  0  0  0  0  0  0
  150.6242  143.4605  161.3156 H   0  0  0  0  0  0  0  0  0  0  0  0
  151.9816  144.5042  161.7141 H   0  0  0  0  0  0  0  0  0  0  0  0
  149.7637  144.9919  159.8723 H   0  0  0  0  0  0  0  0  0  0  0  0
  151.0212  146.1376  160.3145 H   0  0  0  0  0  0  0  0  0  0  0  0
  152.3822  145.5230  158.4943 H   0  0  0  0  0  0  0  0  0  0  0  0
  150.8325  145.1502  157.7508 H   0  0  0  0  0  0  0  0  0  0  0  0
  148.0818  143.3217  156.1027 H   0  0  0  0  0  0  0  0  0  0  0  0
  146.7250  140.6747  156.2440 H   0  0  0  0  0  0  0  0  0  0  0  0
  145.2132  141.6219  154.5171 H   0  0  0  0  0  0  0  0  0  0  0  0
  146.8882  141.5990  153.9819 H   0  0  0  0  0  0  0  0  0  0  0  0
  146.1539  143.1125  154.4954 H   0  0  0  0  0  0  0  0  0  0  0  0
  145.7793  143.3321  157.2881 H   0  0  0  0  0  0  0  0  0  0  0  0
  143.9601  142.4656  155.8599 H   0  0  0  0  0  0  0  0  0  0  0  0
  143.5084  142.4543  157.5602 H   0  0  0  0  0  0  0  0  0  0  0  0
  143.9447  140.9532  156.7565 H   0  0  0  0  0  0  0  0  0  0  0  0
  148.0218  142.0891  158.8380 H   0  0  0  0  0  0  0  0  0  0  0  0
  145.1989  140.2728  161.2293 H   0  0  0  0  0  0  0  0  0  0  0  0
  1  2  1  0  0  0  0
  1 22  1  0  0  0  0
  1 23  1  0  0  0  0
  1 24  1  0  0  0  0
  2  3  1  0  0  0  0
  2 25  1  0  0  0  0
  2 26  1  0  0  0  0
  3  4  1  0  0  0  0
  3 10  1  0  0  0  0
  3 27  1  0  0  0  0
  4  5  1  0  0  0  0
  5  9  1  0  0  0  0
  5  6  1  0  0  0  0
  5 28  1  0  0  0  0
  6  7  1  0  0  0  0
  6 29  1  0  0  0  0
  6 30  1  0  0  0  0
  7  8  1  0  0  0  0
  7 31  1  0  0  0  0
  7 32  1  0  0  0  0
  8  9  1  0  0  0  0
  8 33  1  0  0  0  0
  8 34  1  0  0  0  0
  9 35  1  0  0  0  0
  9 36  1  0  0  0  0
 10 11  2  0  0  0  0
 10 12  1  0  0  0  0
 12 13  1  0  0  0  0
 12 37  1  0  0  0  0
 13 14  1  0  0  0  0
 13 15  1  0  0  0  0
 13 38  1  0  0  0  0
 14 39  1  0  0  0  0
 14 40  1  0  0  0  0
 14 41  1  0  0  0  0
 15 16  1  0  0  0  0
 15 17  1  0  0  0  0
 15 42  1  0  0  0  0
 16 43  1  0  0  0  0
 16 44  1  0  0  0  0
 16 45  1  0  0  0  0
 17 21  1  0  0  0  0
 17 18  1  0  0  0  0
 18 19  2  0  0  0  0
 18 46  1  0  0  0  0
 19 20  1  0  0  0  0
 20 21  2  0  0  0  0
 20 47  1  0  0  0  0
M  END
> <s_m_source_file>
AV-unprocessed.smi

> <i_m_source_file_index>
2902

> <i_lp_mmshare_version>
43012

> <i_f3d_flags>
0

> <s_epik_input>
W0NIMl0xW0NIMl1bQ0gyXVtDSDJdW0NIXTFPW0NAQEhdKFtDSDJdW0NIM10pQyg9TylbTkhdW0NASF0oW0NIM10pW0NASF0oW0NIM10pbjJbY0hdbltjSF1uMg==

> <s_epik_cmdline>
J2VwaWtfcHl0aG9uJywgJy1waCcsICc3LjAnLCAnLXRuJywgJzgnLCAnLW1hJywgJzIwMCcsICctbWV0YWxfYmluZGluZycsICctaW1hZScsICc8aW5maWxlLm1hZT4nLCAnLW9tYWUnLCAnPG91dGZpbGUubWFlPic=

> <r_lp_tautomer_probability>
1

> <r_epik_Ionization_Penalty>
6.95617e-05

> <r_epik_Ionization_Penalty_Charging>
0

> <r_epik_Ionization_Penalty_Neutral>
6.95617e-05

> <r_epik_State_Penalty>
-0

> <r_epik_Charging_Adjusted_Penalty>
0

> <i_epik_Tot_Q>
0

> <i_epik_Tot_abs_Q>
0

> <r_epik_Metal_State_Penalty>
-0

> <b_epik_Metal_Only>
0

> <s_lp_Force_Field>
OPLS_2005

> <r_lp_Energy>
29.711

> <b_lp_Chiralities_Consistent>
1

> <s_lp_Variant>
AV-unprocessed.smi:2902-5

> <Gold.Version>
5.8.1

> <Gold.Id.Protein>
6NUR|6NUR_protein|mol2

> <Gold.PLP.Fitness>
48.6621

> <Gold.PLP.PLP>
-41.5846

> <Gold.PLP.part.hbond>
-3.0000

> <Gold.PLP.part.metal>
0.0000

> <Gold.PLP.part.buried>
-6.4571

> <Gold.PLP.part.nonpolar>
-33.2545

> <Gold.PLP.part.repulsive>
0.1470

> <Gold.PLP.ligand.clash>
0.0000

> <Gold.PLP.ligand.torsion>
0.7948

> <Gold.PLP.Chemscore.Hbond>
2.7099

> <Gold.PLP.Chemscore.CHOScore>
0.0000

> <Gold.PLP.Chemscore.Metal>
0.0000

> <Gold.Chemscore.Hbonds>
donor molecule, donor type, donor heavy atom, donor atom, acceptor molecule, acceptor atom, score
      L1  H    12    37       P1  8028  1.00

> <Gold.PLP.Chemscore.Internal.Correction>
0.5374

> <Gold.Rescore>
     Score         DG    S(hbond)    S(metal)    S(lipo)     H(rot)  DE(clash)    DE(int)     intcor
     14.48     -15.54       1.79        0.00      93.76       2.69       0.03       1.03       ----

> <Gold.Chemscore.Fitness>
14.4792

> <Gold.Chemscore.DG>
-15.5425

> <Gold.Chemscore.ZeroCoef>
-5.4800

> <Gold.Chemscore.Hbond>
1.7928

> <Gold.Chemscore.Metal>
0.0000

> <Gold.Chemscore.Lipo>
93.7602

> <Gold.Chemscore.Internal_Hbond>
0.0000

> <Gold.Chemscore.DEClash>
0.0297

> <Gold.Chemscore.DEInternal>
1.0335

> <Gold.Chemscore.Rot>
2.6935

> <Gold.Chemscore.Internal.Correction>
   9.000000E+99

> <Gold.Chemscore.Hbonds>
donor molecule, donor type, donor heavy atom, donor atom, acceptor molecule, acceptor atom, score
      L1  H    12    37       P1  8028  0.39

> <Gold.Chemscore.Hbond.Weighted>
-5.9879

> <Gold.Chemscore.Metal.Weighted>
-0.0000

> <Gold.Chemscore.Lipo.Weighted>
-10.9699

> <Gold.Chemscore.Internal_Hbond.Weighted>
0.0000

> <Gold.Chemscore.DEClash.Weighted>
0.0297

> <Gold.Chemscore.DEInternal.Weighted>
1.0335

> <Gold.Chemscore.Rot.Weighted>
6.8954

> <Gold.Chemscore.Internal.Correction.Weighted>
   9.000000E+99

> <Gold.Protein.RotatedTorsions>
[ 6907 6896 6895 6894 ] final  -96.32 input  -60.11 | X-H torsion
[ 7974 7965 7964 7962 ] final -127.13 input  175.53 | X-H torsion
[ 8008 7997 7996 7995 ] final -129.71 input   59.86 | X-H torsion
[ 10167 10162 10161 10158 ] final -144.38 input  -65.29 | X-H torsion
[ 10718 10713 10712 10709 ] final  175.23 input   66.30 | X-H torsion
[ 10763 10752 10751 10750 ] final   69.79 input  -60.55 | X-H torsion
[ 11005 11000 10999 10996 ] final  137.11 input  -57.11 | X-H torsion

> <Gold.Protein.ActiveResidues>
 VAL166  LYS551  ARG553  GLY616  TRP617  ASP618  TYR619  PRO620  LYS621  CYS622 
 ASP623  PHE694  ASN695  SER759  ASP760  ASP761  ALA762  ILE779  LEU786  VAL792 
 PHE793  MET794  SER795  GLU796  ALA797  LYS798  CYS799  TRP800  GLU811  SER814 

> <Gold.Protein.RotatedAtoms>
  150.6985  134.1522  159.4144 H   0  0  0  0  0  0  0  0  0  0  0  0  # atno 6907 bound_to 6896
  151.9504  135.0169  160.0551 H   0  0  0  0  0  0  0  0  0  0  0  0  # atno 6908 bound_to 6896
  152.2016  133.4810  159.5098 H   0  0  0  0  0  0  0  0  0  0  0  0  # atno 6909 bound_to 6896
  144.9802  140.7632  143.4617 H   0  0  0  0  0  0  0  0  0  0  0  0  # atno 7974 bound_to 7965
  155.2838  140.0445  157.3017 H   0  0  0  0  0  0  0  0  0  0  0  0  # atno 8008 bound_to 7997
  154.5581  140.2338  155.8346 H   0  0  0  0  0  0  0  0  0  0  0  0  # atno 8009 bound_to 7997
  156.2024  140.3022  155.9563 H   0  0  0  0  0  0  0  0  0  0  0  0  # atno 8010 bound_to 7997
  139.7904  143.7974  152.2649 H   0  0  0  0  0  0  0  0  0  0  0  0  # atno 10167 bound_to 10162
  156.9380  130.9992  151.2974 H   0  0  0  0  0  0  0  0  0  0  0  0  # atno 10718 bound_to 10713
  153.0306  135.5197  154.7342 H   0  0  0  0  0  0  0  0  0  0  0  0  # atno 10763 bound_to 10752
  154.6361  135.2906  155.0161 H   0  0  0  0  0  0  0  0  0  0  0  0  # atno 10764 bound_to 10752
  154.1096  135.6624  153.4935 H   0  0  0  0  0  0  0  0  0  0  0  0  # atno 10765 bound_to 10752
  140.0092  134.9446  157.0241 H   0  0  0  0  0  0  0  0  0  0  0  0  # atno 11005 bound_to 11000
  145.2432  139.2063  143.4981 LP  0  0  0  0  0  0  0  0  0  0  0  0  # atno 17320 bound_to 7965
  146.3406  140.2332  142.8594 LP  0  0  0  0  0  0  0  0  0  0  0  0  # atno 17321 bound_to 7965
  139.8064  144.7354  150.9756 LP  0  0  0  0  0  0  0  0  0  0  0  0  # atno 17342 bound_to 10162
  140.7820  143.4294  151.0717 LP  0  0  0  0  0  0  0  0  0  0  0  0  # atno 17343 bound_to 10162
  157.5804  130.8372  149.8514 LP  0  0  0  0  0  0  0  0  0  0  0  0  # atno 17370 bound_to 10713
  156.0417  130.3737  150.1418 LP  0  0  0  0  0  0  0  0  0  0  0  0  # atno 17371 bound_to 10713
  140.4586  134.1508  155.7189 LP  0  0  0  0  0  0  0  0  0  0  0  0  # atno 17394 bound_to 11000
  141.1699  133.8630  157.1603 LP  0  0  0  0  0  0  0  0  0  0  0  0  # atno 17395 bound_to 11000

$$$$
