AV-unprocessed.smi:1880|AV-procd|sdf|7635|dock7
  -GOLD-   22720 9363D 1   1.00000     0.00000
 Structure written by MMmdl.
 36 38  0  0  0  0  0  0  0  0  1 V2000
  151.7961  137.2757  159.4082 O   0  0  0  0  0  0  0  0  0  0  0  0
  152.8866  137.5956  158.5663 C   0  0  2  0  0  0  0  0  0  0  0  0
  153.9520  136.4992  158.7173 C   0  0  0  0  0  0  0  0  0  0  0  0
  153.9645  136.0620  160.0657 O   0  0  0  0  0  0  0  0  0  0  0  0
  154.8909  136.7737  160.8671 C   0  0  0  0  0  0  0  0  0  0  0  0
  154.5591  136.4490  162.2834 C   0  0  0  0  0  0  0  0  0  0  0  0
  154.0961  137.1906  163.3350 C   0  0  0  0  0  0  0  0  0  0  0  0
  153.9711  136.2947  164.4326 C   0  0  0  0  0  0  0  0  0  0  0  0
  154.3691  135.0731  163.9687 C   0  0  0  0  0  0  0  0  0  0  0  0
  154.7315  135.1500  162.6592 O   0  0  0  0  0  0  0  0  0  0  0  0
  153.4269  138.9862  158.9517 C   0  0  0  0  0  0  0  0  0  0  0  0
  152.6182  140.0629  158.4074 N   0  0  0  0  0  0  0  0  0  0  0  0
  151.9752  140.0711  157.2242 C   0  0  0  0  0  0  0  0  0  0  0  0
  151.2791  141.1617  156.9161 N   0  0  0  0  0  0  0  0  0  0  0  0
  151.4939  141.9540  158.0306 C   0  0  0  0  0  0  0  0  0  0  0  0
  151.0241  143.2510  158.3370 C   0  0  0  0  0  0  0  0  0  0  0  0
  151.3769  143.8701  159.5543 C   0  0  0  0  0  0  0  0  0  0  0  0
  150.9169  145.1129  159.8326 F   0  0  0  0  0  0  0  0  0  0  0  0
  152.2044  143.2028  160.4818 C   0  0  0  0  0  0  0  0  0  0  0  0
  152.5378  143.8044  161.6482 F   0  0  0  0  0  0  0  0  0  0  0  0
  152.6847  141.9098  160.1983 C   0  0  0  0  0  0  0  0  0  0  0  0
  152.3299  141.2960  158.9826 C   0  0  0  0  0  0  0  0  0  0  0  0
  151.7051  136.3350  159.4330 H   0  0  0  0  0  0  0  0  0  0  0  0
  152.5391  137.6251  157.5325 H   0  0  0  0  0  0  0  0  0  0  0  0
  153.6981  135.6472  158.0843 H   0  0  0  0  0  0  0  0  0  0  0  0
  154.9344  136.8560  158.4022 H   0  0  0  0  0  0  0  0  0  0  0  0
  155.9144  136.4735  160.6372 H   0  0  0  0  0  0  0  0  0  0  0  0
  154.8049  137.8474  160.6935 H   0  0  0  0  0  0  0  0  0  0  0  0
  153.8717  138.2468  163.3147 H   0  0  0  0  0  0  0  0  0  0  0  0
  153.6322  136.5158  165.4339 H   0  0  0  0  0  0  0  0  0  0  0  0
  154.4511  134.0920  164.4128 H   0  0  0  0  0  0  0  0  0  0  0  0
  153.4737  139.0946  160.0360 H   0  0  0  0  0  0  0  0  0  0  0  0
  154.4460  139.1091  158.5830 H   0  0  0  0  0  0  0  0  0  0  0  0
  152.0184  139.2265  156.5519 H   0  0  0  0  0  0  0  0  0  0  0  0
  150.3895  143.7713  157.6351 H   0  0  0  0  0  0  0  0  0  0  0  0
  153.3144  141.3945  160.9081 H   0  0  0  0  0  0  0  0  0  0  0  0
  1  2  1  0  0  0  0
  1 23  1  0  0  0  0
  2  3  1  0  0  0  0
  2 11  1  0  0  0  0
  2 24  1  0  0  0  0
  3  4  1  0  0  0  0
  3 25  1  0  0  0  0
  3 26  1  0  0  0  0
  4  5  1  0  0  0  0
  5  6  1  0  0  0  0
  5 27  1  0  0  0  0
  5 28  1  0  0  0  0
  6 10  1  0  0  0  0
  6  7  2  0  0  0  0
  7  8  1  0  0  0  0
  7 29  1  0  0  0  0
  8  9  2  0  0  0  0
  8 30  1  0  0  0  0
  9 10  1  0  0  0  0
  9 31  1  0  0  0  0
 11 12  1  0  0  0  0
 11 32  1  0  0  0  0
 11 33  1  0  0  0  0
 12 22  1  0  0  0  0
 12 13  1  0  0  0  0
 13 14  2  0  0  0  0
 13 34  1  0  0  0  0
 14 15  1  0  0  0  0
 15 22  2  0  0  0  0
 15 16  1  0  0  0  0
 16 17  2  0  0  0  0
 16 35  1  0  0  0  0
 17 18  1  0  0  0  0
 17 19  1  0  0  0  0
 19 20  1  0  0  0  0
 19 21  2  0  0  0  0
 21 22  1  0  0  0  0
 21 36  1  0  0  0  0
M  END
> <s_m_source_file>
AV-unprocessed.smi

> <i_m_source_file_index>
1880

> <i_lp_mmshare_version>
43012

> <i_f3d_flags>
0

> <s_epik_input>
W2NIXTFjKEYpYyhGKVtjSF1jKGMxMiluKFtjSF1uMilbQ0gyXVtDQEhdKFtPSF0pW0NIMl1PW0NIMl1jM1tjSF1bY0hdW2NIXW8z

> <s_epik_cmdline>
J2VwaWtfcHl0aG9uJywgJy1waCcsICc3LjAnLCAnLXRuJywgJzgnLCAnLW1hJywgJzIwMCcsICctbWV0YWxfYmluZGluZycsICctaW1hZScsICc8aW5maWxlLm1hZT4nLCAnLW9tYWUnLCAnPG91dGZpbGUubWFlPic=

> <r_epik_Ionization_Penalty>
0.0152348

> <r_epik_Ionization_Penalty_Charging>
0

> <r_epik_Ionization_Penalty_Neutral>
0.0152348

> <r_epik_State_Penalty>
0.0119607

> <r_epik_Charging_Adjusted_Penalty>
0.0119607

> <i_epik_Tot_Q>
0

> <i_epik_Tot_abs_Q>
0

> <r_epik_Metal_State_Penalty>
1.20821e-05

> <b_epik_Metal_Only>
0

> <s_lp_Force_Field>
OPLS_2005

> <r_lp_Energy>
7.92035

> <b_lp_Chiralities_Consistent>
1

> <s_lp_Variant>
AV-unprocessed.smi:1880-1

> <Gold.Version>
5.8.1

> <Gold.Id.Protein>
6NUR|6NUR_protein|mol2

> <Gold.PLP.Fitness>
47.4076

> <Gold.PLP.PLP>
-46.4815

> <Gold.PLP.part.hbond>
-1.5043

> <Gold.PLP.part.metal>
0.0000

> <Gold.PLP.part.buried>
-6.7549

> <Gold.PLP.part.nonpolar>
-38.2116

> <Gold.PLP.part.repulsive>
0.0253

> <Gold.PLP.ligand.clash>
0.0000

> <Gold.PLP.ligand.torsion>
1.0694

> <Gold.PLP.Chemscore.Hbond>
1.0000

> <Gold.PLP.Chemscore.CHOScore>
0.0000

> <Gold.PLP.Chemscore.Metal>
0.0000

> <Gold.Chemscore.Hbonds>
donor molecule, donor type, donor heavy atom, donor atom, acceptor molecule, acceptor atom, score
      P1  H  6896  6907       L1     4  0.98

> <Gold.PLP.Chemscore.Internal.Correction>
0.0650

> <Gold.Rescore>
     Score         DG    S(hbond)    S(metal)    S(lipo)     H(rot)  DE(clash)    DE(int)     intcor
     12.95     -14.22       0.92        0.00     110.79       2.85       0.18       1.09       ----

> <Gold.Chemscore.Fitness>
12.9456

> <Gold.Chemscore.DG>
-14.2171

> <Gold.Chemscore.ZeroCoef>
-5.4800

> <Gold.Chemscore.Hbond>
0.9207

> <Gold.Chemscore.Metal>
0.0000

> <Gold.Chemscore.Lipo>
110.7901

> <Gold.Chemscore.Internal_Hbond>
0.0000

> <Gold.Chemscore.DEClash>
0.1834

> <Gold.Chemscore.DEInternal>
1.0881

> <Gold.Chemscore.Rot>
2.8518

> <Gold.Chemscore.Internal.Correction>
   9.000000E+99

> <Gold.Chemscore.Hbonds>
donor molecule, donor type, donor heavy atom, donor atom, acceptor molecule, acceptor atom, score
      P1  H  6896  6907       L1     4  0.23

> <Gold.Chemscore.Hbond.Weighted>
-3.0752

> <Gold.Chemscore.Metal.Weighted>
-0.0000

> <Gold.Chemscore.Lipo.Weighted>
-12.9624

> <Gold.Chemscore.Internal_Hbond.Weighted>
0.0000

> <Gold.Chemscore.DEClash.Weighted>
0.1834

> <Gold.Chemscore.DEInternal.Weighted>
1.0881

> <Gold.Chemscore.Rot.Weighted>
7.3005

> <Gold.Chemscore.Internal.Correction.Weighted>
   9.000000E+99

> <Gold.Protein.RotatedTorsions>
[ 6907 6896 6895 6894 ] final   49.55 input  -60.11 | X-H torsion
[ 7974 7965 7964 7962 ] final    8.64 input  175.53 | X-H torsion
[ 8008 7997 7996 7995 ] final   -5.97 input   59.86 | X-H torsion
[ 10167 10162 10161 10158 ] final -139.45 input  -65.29 | X-H torsion
[ 10718 10713 10712 10709 ] final -116.89 input   66.30 | X-H torsion
[ 10763 10752 10751 10750 ] final  174.41 input  -60.55 | X-H torsion
[ 11005 11000 10999 10996 ] final  -59.46 input  -57.11 | X-H torsion

> <Gold.Protein.ActiveResidues>
 VAL166  LYS551  ARG553  GLY616  TRP617  ASP618  TYR619  PRO620  LYS621  CYS622 
 ASP623  PHE694  ASN695  SER759  ASP760  ASP761  ALA762  ILE779  LEU786  VAL792 
 PHE793  MET794  SER795  GLU796  ALA797  LYS798  CYS799  TRP800  GLU811  SER814 

> <Gold.Protein.RotatedAtoms>
  152.2920  134.7710  160.0375 H   0  0  0  0  0  0  0  0  0  0  0  0  # atno 6907 bound_to 6896
  151.8252  133.3395  159.3604 H   0  0  0  0  0  0  0  0  0  0  0  0  # atno 6908 bound_to 6896
  150.7235  134.5464  159.5817 H   0  0  0  0  0  0  0  0  0  0  0  0  # atno 6909 bound_to 6896
  146.2414  139.9902  142.8426 H   0  0  0  0  0  0  0  0  0  0  0  0  # atno 7974 bound_to 7965
  154.5985  140.2445  155.7824 H   0  0  0  0  0  0  0  0  0  0  0  0  # atno 8008 bound_to 7997
  156.2295  140.2971  156.0105 H   0  0  0  0  0  0  0  0  0  0  0  0  # atno 8009 bound_to 7997
  155.2252  140.0401  157.2944 H   0  0  0  0  0  0  0  0  0  0  0  0  # atno 8010 bound_to 7997
  139.8378  143.7361  152.2664 H   0  0  0  0  0  0  0  0  0  0  0  0  # atno 10167 bound_to 10162
  156.0995  130.6160  150.9094 H   0  0  0  0  0  0  0  0  0  0  0  0  # atno 10718 bound_to 10713
  154.4535  135.2765  155.1764 H   0  0  0  0  0  0  0  0  0  0  0  0  # atno 10763 bound_to 10752
  154.3581  135.6135  153.5680 H   0  0  0  0  0  0  0  0  0  0  0  0  # atno 10764 bound_to 10752
  152.9849  135.5828  154.4884 H   0  0  0  0  0  0  0  0  0  0  0  0  # atno 10765 bound_to 10752
  141.1249  133.6616  156.5075 H   0  0  0  0  0  0  0  0  0  0  0  0  # atno 11005 bound_to 11000
  145.1510  140.9623  143.4433 LP  0  0  0  0  0  0  0  0  0  0  0  0  # atno 17320 bound_to 7965
  145.0205  139.3428  143.6074 LP  0  0  0  0  0  0  0  0  0  0  0  0  # atno 17321 bound_to 7965
  139.7589  144.7512  151.0394 LP  0  0  0  0  0  0  0  0  0  0  0  0  # atno 17342 bound_to 10162
  140.7801  143.4774  151.0064 LP  0  0  0  0  0  0  0  0  0  0  0  0  # atno 17343 bound_to 10162
  157.6163  131.0933  150.8705 LP  0  0  0  0  0  0  0  0  0  0  0  0  # atno 17370 bound_to 10713
  156.8836  130.5188  149.5289 LP  0  0  0  0  0  0  0  0  0  0  0  0  # atno 17371 bound_to 10713
  140.4396  134.7028  157.4984 LP  0  0  0  0  0  0  0  0  0  0  0  0  # atno 17394 bound_to 11000
  140.0238  134.6507  155.9201 LP  0  0  0  0  0  0  0  0  0  0  0  0  # atno 17395 bound_to 11000

$$$$
