AV-unprocessed.smi:1047|AV-procd|sdf|4570|dock9
  -GOLD-   22720 3 23D 1   1.00000     0.00000
 Structure written by MMmdl.
 56 58  0  0  0  0  0  0  0  0  2 V2000
  147.2718  143.6824  161.8177 C   0  0  0  0  0  0  0  0  0  0  0  0
  146.0039  142.8186  161.7573 C   0  0  0  0  0  0  0  0  0  0  0  0
  145.9758  141.8393  160.6717 N   0  0  0  0  0  0  0  0  0  0  0  0
  144.6326  141.3249  160.4163 C   0  0  0  0  0  0  0  0  0  0  0  0
  144.6160  140.3215  159.2507 C   0  0  0  0  0  0  0  0  0  0  0  0
  145.1691  140.9295  158.0878 O   0  0  0  0  0  0  0  0  0  0  0  0
  146.5041  141.3904  158.2815 C   0  0  1  0  0  0  0  0  0  0  0  0
  146.9929  142.0116  156.9662 C   0  0  0  0  0  0  0  0  0  0  0  0
  148.4153  142.3968  157.0560 N   0  3  0  0  0  0  0  0  0  0  0  0
  149.3510  141.3310  156.6462 C   0  0  0  0  0  0  0  0  0  0  0  0
  150.7677  141.5683  157.2066 C   0  0  1  0  0  0  0  0  0  0  0  0
  151.7131  140.9488  156.3571 O   0  0  0  0  0  0  0  0  0  0  0  0
  151.1487  143.0591  157.3051 C   0  0  0  0  0  0  0  0  0  0  0  0
  151.2814  143.5157  158.6767 N   0  0  0  0  0  0  0  0  0  0  0  0
  150.7608  144.6380  159.2089 C   0  0  0  0  0  0  0  0  0  0  0  0
  151.0077  144.8737  160.4940 N   0  0  0  0  0  0  0  0  0  0  0  0
  151.7724  143.7723  160.8385 C   0  0  0  0  0  0  0  0  0  0  0  0
  152.3612  143.4139  162.0706 C   0  0  0  0  0  0  0  0  0  0  0  0
  153.1172  142.2265  162.1946 C   0  0  0  0  0  0  0  0  0  0  0  0
  153.7308  141.8794  163.5399 C   0  0  0  0  0  0  0  0  0  0  0  0
  153.2944  141.3767  161.0733 C   0  0  0  0  0  0  0  0  0  0  0  0
  154.1037  140.0966  161.1829 C   0  0  0  0  0  0  0  0  0  0  0  0
  152.7115  141.7186  159.8353 C   0  0  0  0  0  0  0  0  0  0  0  0
  151.9608  142.9027  159.7247 C   0  0  0  0  0  0  0  0  0  0  0  0
  146.5076  142.4092  159.4387 C   0  0  0  0  0  0  0  0  0  0  0  0
  147.1746  144.4498  162.5857 H   0  0  0  0  0  0  0  0  0  0  0  0
  147.4504  144.1868  160.8677 H   0  0  0  0  0  0  0  0  0  0  0  0
  148.1563  143.0939  162.0603 H   0  0  0  0  0  0  0  0  0  0  0  0
  145.8602  142.3164  162.7151 H   0  0  0  0  0  0  0  0  0  0  0  0
  145.1551  143.4943  161.6437 H   0  0  0  0  0  0  0  0  0  0  0  0
  144.2397  140.8318  161.3051 H   0  0  0  0  0  0  0  0  0  0  0  0
  143.9557  142.1506  160.1913 H   0  0  0  0  0  0  0  0  0  0  0  0
  145.1830  139.4246  159.5049 H   0  0  0  0  0  0  0  0  0  0  0  0
  143.5951  140.0051  159.0371 H   0  0  0  0  0  0  0  0  0  0  0  0
  147.1454  140.5461  158.5420 H   0  0  0  0  0  0  0  0  0  0  0  0
  146.8512  141.3113  156.1420 H   0  0  0  0  0  0  0  0  0  0  0  0
  146.4048  142.9015  156.7374 H   0  0  0  0  0  0  0  0  0  0  0  0
  148.5690  143.2059  156.4712 H   0  0  0  0  0  0  0  0  0  0  0  0
  148.9721  140.3597  156.9680 H   0  0  0  0  0  0  0  0  0  0  0  0
  149.3732  141.3185  155.5564 H   0  0  0  0  0  0  0  0  0  0  0  0
  150.8520  141.1161  158.1959 H   0  0  0  0  0  0  0  0  0  0  0  0
  152.4899  140.7474  156.8554 H   0  0  0  0  0  0  0  0  0  0  0  0
  152.0965  143.2408  156.7957 H   0  0  0  0  0  0  0  0  0  0  0  0
  150.4042  143.6785  156.8028 H   0  0  0  0  0  0  0  0  0  0  0  0
  150.1704  145.3230  158.6178 H   0  0  0  0  0  0  0  0  0  0  0  0
  152.2263  144.0612  162.9248 H   0  0  0  0  0  0  0  0  0  0  0  0
  153.3778  140.9062  163.8822 H   0  0  0  0  0  0  0  0  0  0  0  0
  153.4673  142.6156  164.3000 H   0  0  0  0  0  0  0  0  0  0  0  0
  154.8183  141.8480  163.4671 H   0  0  0  0  0  0  0  0  0  0  0  0
  154.1661  139.5815  160.2238 H   0  0  0  0  0  0  0  0  0  0  0  0
  153.6437  139.4158  161.8995 H   0  0  0  0  0  0  0  0  0  0  0  0
  155.1201  140.3125  161.5126 H   0  0  0  0  0  0  0  0  0  0  0  0
  152.8384  141.0791  158.9744 H   0  0  0  0  0  0  0  0  0  0  0  0
  145.9215  143.2850  159.1546 H   0  0  0  0  0  0  0  0  0  0  0  0
  147.5270  142.7592  159.6065 H   0  0  0  0  0  0  0  0  0  0  0  0
  148.6148  142.6468  158.0141 H   0  0  0  0  0  0  0  0  0  0  0  0
  1  2  1  0  0  0  0
  1 26  1  0  0  0  0
  1 27  1  0  0  0  0
  1 28  1  0  0  0  0
  2  3  1  0  0  0  0
  2 29  1  0  0  0  0
  2 30  1  0  0  0  0
  3 25  1  0  0  0  0
  3  4  1  0  0  0  0
  4  5  1  0  0  0  0
  4 31  1  0  0  0  0
  4 32  1  0  0  0  0
  5  6  1  0  0  0  0
  5 33  1  0  0  0  0
  5 34  1  0  0  0  0
  6  7  1  0  0  0  0
  7  8  1  0  0  0  0
  7 25  1  0  0  0  0
  7 35  1  0  0  0  0
  8  9  1  0  0  0  0
  8 36  1  0  0  0  0
  8 37  1  0  0  0  0
  9 10  1  0  0  0  0
  9 38  1  0  0  0  0
  9 56  1  0  0  0  0
 10 11  1  0  0  0  0
 10 39  1  0  0  0  0
 10 40  1  0  0  0  0
 11 12  1  0  0  0  0
 11 13  1  0  0  0  0
 11 41  1  0  0  0  0
 12 42  1  0  0  0  0
 13 14  1  0  0  0  0
 13 43  1  0  0  0  0
 13 44  1  0  0  0  0
 14 24  1  0  0  0  0
 14 15  1  0  0  0  0
 15 16  2  0  0  0  0
 15 45  1  0  0  0  0
 16 17  1  0  0  0  0
 17 24  2  0  0  0  0
 17 18  1  0  0  0  0
 18 19  2  0  0  0  0
 18 46  1  0  0  0  0
 19 20  1  0  0  0  0
 19 21  1  0  0  0  0
 20 47  1  0  0  0  0
 20 48  1  0  0  0  0
 20 49  1  0  0  0  0
 21 22  1  0  0  0  0
 21 23  2  0  0  0  0
 22 50  1  0  0  0  0
 22 51  1  0  0  0  0
 22 52  1  0  0  0  0
 23 24  1  0  0  0  0
 23 53  1  0  0  0  0
 25 54  1  0  0  0  0
 25 55  1  0  0  0  0
M  CHG  1   9   1
M  END
> <s_m_source_file>
AV-unprocessed.smi

> <i_m_source_file_index>
1047

> <i_lp_mmshare_version>
43012

> <i_f3d_flags>
0

> <s_epik_input>
W0NIM11bQ0gyXU4xW0NIMl1bQ0gyXU9bQ0BIXShbQ0gyXTEpW0NIMl1bTkhdW0NIMl1bQ0BIXShbT0hdKVtDSDJdbihbY0hdbjIpYyhjMjMpW2NIXWMoW0NIM10pYyhbY0hdMylbQ0gzXQ==

> <s_epik_cmdline>
J2VwaWtfcHl0aG9uJywgJy1waCcsICc3LjAnLCAnLXRuJywgJzgnLCAnLW1hJywgJzIwMCcsICctbWV0YWxfYmluZGluZycsICctaW1hZScsICc8aW5maWxlLm1hZT4nLCAnLW9tYWUnLCAnPG91dGZpbGUubWFlPic=

> <r_epik_Ionization_Penalty>
0.692425

> <r_epik_Ionization_Penalty_Charging>
0.0243549

> <r_epik_Ionization_Penalty_Neutral>
0.66807

> <r_epik_State_Penalty>
0.592789

> <r_epik_Charging_Adjusted_Penalty>
0.617144

> <i_epik_Tot_Q>
1

> <i_epik_Tot_abs_Q>
1

> <r_epik_Metal_State_Penalty>
0.508021

> <b_epik_Metal_Only>
0

> <s_lp_Force_Field>
OPLS_2005

> <r_lp_Energy>
31.2277

> <b_lp_Chiralities_Consistent>
1

> <s_lp_Variant>
AV-unprocessed.smi:1047-11

> <Gold.Version>
5.8.1

> <Gold.Id.Protein>
6NUR|6NUR_protein|mol2

> <Gold.PLP.Fitness>
62.3960

> <Gold.PLP.PLP>
-54.2641

> <Gold.PLP.part.hbond>
-2.0000

> <Gold.PLP.part.metal>
0.0000

> <Gold.PLP.part.buried>
-7.3933

> <Gold.PLP.part.nonpolar>
-44.2076

> <Gold.PLP.part.repulsive>
0.1753

> <Gold.PLP.ligand.clash>
0.0000

> <Gold.PLP.ligand.torsion>
1.6276

> <Gold.PLP.Chemscore.Hbond>
2.9500

> <Gold.PLP.Chemscore.CHOScore>
0.7889

> <Gold.PLP.Chemscore.Metal>
0.0000

> <Gold.Chemscore.Hbonds>
donor molecule, donor type, donor heavy atom, donor atom, acceptor molecule, acceptor atom, score
      L1  H     9    38       P1  8028  2.00
      P1  H  6934  6946       L1     3  0.40
      L1  C    15    45       P1  8029  0.58

> <Gold.PLP.Chemscore.Internal.Correction>
0.1703

> <Gold.Rescore>
     Score         DG    S(hbond)    S(metal)    S(lipo)     H(rot)  DE(clash)    DE(int)     intcor
     15.96     -17.65       1.11        0.00     129.37       2.60       0.03       1.66       ----

> <Gold.Chemscore.Fitness>
15.9575

> <Gold.Chemscore.DG>
-17.6477

> <Gold.Chemscore.ZeroCoef>
-5.4800

> <Gold.Chemscore.Hbond>
1.1076

> <Gold.Chemscore.Metal>
0.0000

> <Gold.Chemscore.Lipo>
129.3748

> <Gold.Chemscore.Internal_Hbond>
0.0000

> <Gold.Chemscore.DEClash>
0.0309

> <Gold.Chemscore.DEInternal>
1.6593

> <Gold.Chemscore.Rot>
2.6049

> <Gold.Chemscore.Internal.Correction>
   9.000000E+99

> <Gold.Chemscore.Hbonds>
donor molecule, donor type, donor heavy atom, donor atom, acceptor molecule, acceptor atom, score
      L1  H     9    38       P1  8028  0.78
      P1  H  6934  6946       L1     3  0.04

> <Gold.Chemscore.Hbond.Weighted>
-3.6993

> <Gold.Chemscore.Metal.Weighted>
-0.0000

> <Gold.Chemscore.Lipo.Weighted>
-15.1369

> <Gold.Chemscore.Internal_Hbond.Weighted>
0.0000

> <Gold.Chemscore.DEClash.Weighted>
0.0309

> <Gold.Chemscore.DEInternal.Weighted>
1.6593

> <Gold.Chemscore.Rot.Weighted>
6.6685

> <Gold.Chemscore.Internal.Correction.Weighted>
   9.000000E+99

> <Gold.Protein.RotatedTorsions>
[ 6907 6896 6895 6894 ] final  -10.26 input  -60.11 | X-H torsion
[ 7974 7965 7964 7962 ] final -158.58 input  175.53 | X-H torsion
[ 8008 7997 7996 7995 ] final -153.03 input   59.86 | X-H torsion
[ 10167 10162 10161 10158 ] final   22.04 input  -65.29 | X-H torsion
[ 10718 10713 10712 10709 ] final -103.31 input   66.30 | X-H torsion
[ 10763 10752 10751 10750 ] final  129.97 input  -60.55 | X-H torsion
[ 11005 11000 10999 10996 ] final   72.37 input  -57.11 | X-H torsion

> <Gold.Protein.ActiveResidues>
 VAL166  LYS551  ARG553  GLY616  TRP617  ASP618  TYR619  PRO620  LYS621  CYS622 
 ASP623  PHE694  ASN695  SER759  ASP760  ASP761  ALA762  ILE779  LEU786  VAL792 
 PHE793  MET794  SER795  GLU796  ALA797  LYS798  CYS799  TRP800  GLU811  SER814 

> <Gold.Protein.RotatedAtoms>
  151.4047  135.0976  159.9566 H   0  0  0  0  0  0  0  0  0  0  0  0  # atno 6907 bound_to 6896
  152.5039  133.8854  159.7378 H   0  0  0  0  0  0  0  0  0  0  0  0  # atno 6908 bound_to 6896
  150.9336  133.6681  159.2834 H   0  0  0  0  0  0  0  0  0  0  0  0  # atno 6909 bound_to 6896
  144.7500  140.3807  143.6055 H   0  0  0  0  0  0  0  0  0  0  0  0  # atno 7974 bound_to 7965
  155.6644  140.0726  157.2543 H   0  0  0  0  0  0  0  0  0  0  0  0  # atno 8008 bound_to 7997
  154.4136  140.1710  156.1862 H   0  0  0  0  0  0  0  0  0  0  0  0  # atno 8009 bound_to 7997
  155.9670  140.3365  155.6544 H   0  0  0  0  0  0  0  0  0  0  0  0  # atno 8010 bound_to 7997
  140.5380  143.9727  150.6502 H   0  0  0  0  0  0  0  0  0  0  0  0  # atno 10167 bound_to 10162
  156.0261  130.5461  150.7235 H   0  0  0  0  0  0  0  0  0  0  0  0  # atno 10718 bound_to 10713
  153.7504  135.3210  155.3320 H   0  0  0  0  0  0  0  0  0  0  0  0  # atno 10763 bound_to 10752
  154.8265  135.4566  154.0937 H   0  0  0  0  0  0  0  0  0  0  0  0  # atno 10764 bound_to 10752
  153.2138  135.6939  153.8164 H   0  0  0  0  0  0  0  0  0  0  0  0  # atno 10765 bound_to 10752
  139.9494  134.7254  156.0899 H   0  0  0  0  0  0  0  0  0  0  0  0  # atno 11005 bound_to 11000
  145.6980  139.1654  143.2609 LP  0  0  0  0  0  0  0  0  0  0  0  0  # atno 17320 bound_to 7965
  146.1436  140.7024  142.9355 LP  0  0  0  0  0  0  0  0  0  0  0  0  # atno 17321 bound_to 7965
  140.3120  143.3192  152.0869 LP  0  0  0  0  0  0  0  0  0  0  0  0  # atno 17342 bound_to 10162
  139.4978  144.6630  151.6421 LP  0  0  0  0  0  0  0  0  0  0  0  0  # atno 17343 bound_to 10162
  157.4845  131.0905  151.0499 LP  0  0  0  0  0  0  0  0  0  0  0  0  # atno 17370 bound_to 10713
  157.0923  130.5947  149.5442 LP  0  0  0  0  0  0  0  0  0  0  0  0  # atno 17371 bound_to 10713
  141.1153  133.6629  156.3079 LP  0  0  0  0  0  0  0  0  0  0  0  0  # atno 17394 bound_to 11000
  140.5755  134.5798  157.5467 LP  0  0  0  0  0  0  0  0  0  0  0  0  # atno 17395 bound_to 11000

$$$$
