AV-unprocessed.smi:1718|AV-procd|sdf|6928|dock1
  -GOLD-   22720 8133D 1   1.00000     0.00000
 Structure written by MMmdl.
 39 40  0  0  0  0  0  0  0  0  2 V2000
  149.9369  138.6031  153.9911 C   0  0  0  0  0  0  0  0  0  0  0  0
  149.3274  139.3943  155.1580 C   0  0  2  0  0  0  0  0  0  0  0  0
  148.3329  140.2582  154.6157 O   0  0  0  0  0  0  0  0  0  0  0  0
  147.4969  140.9024  155.5716 C   0  0  0  0  0  0  0  0  0  0  0  0
  146.3552  141.6310  154.8499 C   0  0  1  0  0  0  0  0  0  0  0  0
  145.3474  142.3405  155.7634 C   0  0  0  0  0  0  0  0  0  0  0  0
  145.0190  143.6296  155.0214 C   0  0  0  0  0  0  0  0  0  0  0  0
  145.7616  143.4987  153.6928 C   0  0  0  0  0  0  0  0  0  0  0  0
  146.8561  142.6510  153.9990 O   0  0  0  0  0  0  0  0  0  0  0  0
  150.3970  140.2148  155.8968 C   0  0  0  0  0  0  0  0  0  0  0  0
  151.3460  140.6769  155.2635 O   0  0  0  0  0  0  0  0  0  0  0  0
  150.1784  140.3900  157.2150 N   0  0  0  0  0  0  0  0  0  0  0  0
  150.9452  141.0768  158.1721 C   0  0  0  0  0  0  0  0  0  0  0  0
  150.8828  142.4167  158.4089 C   0  0  0  0  0  0  0  0  0  0  0  0
  151.7157  143.0724  159.4092 C   0  0  0  0  0  0  0  0  0  0  0  0
  151.5968  144.5424  159.7705 C   0  0  0  0  0  0  0  0  0  0  0  0
  150.3196  144.9066  159.8863 F   0  0  0  0  0  0  0  0  0  0  0  0
  152.2022  144.7737  160.9344 F   0  0  0  0  0  0  0  0  0  0  0  0
  152.1706  145.3098  158.8436 F   0  0  0  0  0  0  0  0  0  0  0  0
  152.5442  142.1835  160.0661 C   0  0  0  0  0  0  0  0  0  0  0  0
  152.6880  140.8540  159.8739 N   0  5  0  0  0  0  0  0  0  0  0  0
  151.9010  140.2507  158.9389 C   0  0  0  0  0  0  0  0  0  0  0  0
  151.9720  139.0404  158.7217 O   0  0  0  0  0  0  0  0  0  0  0  0
  150.7205  137.9279  154.3368 H   0  0  0  0  0  0  0  0  0  0  0  0
  150.3702  139.2643  153.2393 H   0  0  0  0  0  0  0  0  0  0  0  0
  149.1762  137.9986  153.4967 H   0  0  0  0  0  0  0  0  0  0  0  0
  148.8590  138.6855  155.8438 H   0  0  0  0  0  0  0  0  0  0  0  0
  147.0871  140.1663  156.2643 H   0  0  0  0  0  0  0  0  0  0  0  0
  148.0631  141.6238  156.1614 H   0  0  0  0  0  0  0  0  0  0  0  0
  145.8193  140.9172  154.2216 H   0  0  0  0  0  0  0  0  0  0  0  0
  144.4634  141.7235  155.9276 H   0  0  0  0  0  0  0  0  0  0  0  0
  145.7725  142.5727  156.7406 H   0  0  0  0  0  0  0  0  0  0  0  0
  143.9477  143.7747  154.8800 H   0  0  0  0  0  0  0  0  0  0  0  0
  145.4021  144.4839  155.5806 H   0  0  0  0  0  0  0  0  0  0  0  0
  145.1314  143.0197  152.9415 H   0  0  0  0  0  0  0  0  0  0  0  0
  146.0941  144.4599  153.2997 H   0  0  0  0  0  0  0  0  0  0  0  0
  149.3206  139.9996  157.5778 H   0  0  0  0  0  0  0  0  0  0  0  0
  150.2203  143.0513  157.8446 H   0  0  0  0  0  0  0  0  0  0  0  0
  153.1836  142.6028  160.8720 H   0  0  0  0  0  0  0  0  0  0  0  0
  1  2  1  0  0  0  0
  1 24  1  0  0  0  0
  1 25  1  0  0  0  0
  1 26  1  0  0  0  0
  2  3  1  0  0  0  0
  2 10  1  0  0  0  0
  2 27  1  0  0  0  0
  3  4  1  0  0  0  0
  4  5  1  0  0  0  0
  4 28  1  0  0  0  0
  4 29  1  0  0  0  0
  5  9  1  0  0  0  0
  5  6  1  0  0  0  0
  5 30  1  0  0  0  0
  6  7  1  0  0  0  0
  6 31  1  0  0  0  0
  6 32  1  0  0  0  0
  7  8  1  0  0  0  0
  7 33  1  0  0  0  0
  7 34  1  0  0  0  0
  8  9  1  0  0  0  0
  8 35  1  0  0  0  0
  8 36  1  0  0  0  0
 10 11  2  0  0  0  0
 10 12  1  0  0  0  0
 12 13  1  0  0  0  0
 12 37  1  0  0  0  0
 13 22  1  0  0  0  0
 13 14  2  0  0  0  0
 14 15  1  0  0  0  0
 14 38  1  0  0  0  0
 15 16  1  0  0  0  0
 15 20  2  0  0  0  0
 16 17  1  0  0  0  0
 16 18  1  0  0  0  0
 16 19  1  0  0  0  0
 20 21  1  0  0  0  0
 20 39  1  0  0  0  0
 21 22  1  0  0  0  0
 22 23  2  0  0  0  0
M  CHG  1  21  -1
M  END
> <s_m_source_file>
AV-unprocessed.smi

> <i_m_source_file_index>
1718

> <i_lp_mmshare_version>
43012

> <i_f3d_flags>
0

> <s_epik_input>
TzFbQ0gyXVtDSDJdW0NIMl1bQ0BIXTFbQ0gyXU9bQ0BASF0oW0NIM10pQyg9TylbTkhdYzJbY0hdYyhDKEYpKEYpRilbY0hdW25IXWMyPU8=

> <s_epik_cmdline>
J2VwaWtfcHl0aG9uJywgJy1waCcsICc3LjAnLCAnLXRuJywgJzgnLCAnLW1hJywgJzIwMCcsICctbWV0YWxfYmluZGluZycsICctaW1hZScsICc8aW5maWxlLm1hZT4nLCAnLW9tYWUnLCAnPG91dGZpbGUubWFlPic=

> <r_epik_Ionization_Penalty>
2.5466

> <r_epik_Ionization_Penalty_Charging>
0.0575837

> <r_epik_Ionization_Penalty_Neutral>
2.48901

> <r_epik_State_Penalty>
2.6532

> <r_epik_Charging_Adjusted_Penalty>
2.71078

> <i_epik_Tot_Q>
-1

> <i_epik_Tot_abs_Q>
1

> <r_epik_Metal_State_Penalty>
0.516196

> <b_epik_Metal_Only>
0

> <s_lp_Force_Field>
OPLS_2005

> <r_lp_Energy>
37.3461

> <b_lp_Chiralities_Consistent>
1

> <s_lp_Variant>
AV-unprocessed.smi:1718-7

> <Gold.Version>
5.8.1

> <Gold.Id.Protein>
6NUR|6NUR_protein|mol2

> <Gold.PLP.Fitness>
42.2591

> <Gold.PLP.PLP>
-43.7137

> <Gold.PLP.part.hbond>
-1.0000

> <Gold.PLP.part.metal>
0.0000

> <Gold.PLP.part.buried>
-7.8109

> <Gold.PLP.part.nonpolar>
-35.5085

> <Gold.PLP.part.repulsive>
0.3170

> <Gold.PLP.ligand.clash>
0.0000

> <Gold.PLP.ligand.torsion>
2.0656

> <Gold.PLP.Chemscore.Hbond>
0.8160

> <Gold.PLP.Chemscore.CHOScore>
0.0000

> <Gold.PLP.Chemscore.Metal>
0.0000

> <Gold.Chemscore.Hbonds>
donor molecule, donor type, donor heavy atom, donor atom, acceptor molecule, acceptor atom, score
      P1  H  7989  7998       L1    11  0.80

> <Gold.PLP.Chemscore.Internal.Correction>
0.2284

> <Gold.Rescore>
     Score         DG    S(hbond)    S(metal)    S(lipo)     H(rot)  DE(clash)    DE(int)     intcor
     11.07     -12.62       0.91        0.00      75.48       1.85       0.10       1.45       ----

> <Gold.Chemscore.Fitness>
11.0748

> <Gold.Chemscore.DG>
-12.6232

> <Gold.Chemscore.ZeroCoef>
-5.4800

> <Gold.Chemscore.Hbond>
0.9093

> <Gold.Chemscore.Metal>
0.0000

> <Gold.Chemscore.Lipo>
75.4767

> <Gold.Chemscore.Internal_Hbond>
0.0000

> <Gold.Chemscore.DEClash>
0.1016

> <Gold.Chemscore.DEInternal>
1.4469

> <Gold.Chemscore.Rot>
1.8455

> <Gold.Chemscore.Internal.Correction>
   9.000000E+99

> <Gold.Chemscore.Hbonds>
donor molecule, donor type, donor heavy atom, donor atom, acceptor molecule, acceptor atom, score
      P1  H  7989  7998       L1    11  0.80

> <Gold.Chemscore.Hbond.Weighted>
-3.0369

> <Gold.Chemscore.Metal.Weighted>
-0.0000

> <Gold.Chemscore.Lipo.Weighted>
-8.8308

> <Gold.Chemscore.Internal_Hbond.Weighted>
0.0000

> <Gold.Chemscore.DEClash.Weighted>
0.1016

> <Gold.Chemscore.DEInternal.Weighted>
1.4469

> <Gold.Chemscore.Rot.Weighted>
4.7245

> <Gold.Chemscore.Internal.Correction.Weighted>
   9.000000E+99

> <Gold.Protein.RotatedTorsions>
[ 6907 6896 6895 6894 ] final   23.49 input  -60.11 | X-H torsion
[ 7974 7965 7964 7962 ] final  -17.57 input  175.53 | X-H torsion
[ 8008 7997 7996 7995 ] final   41.42 input   59.86 | X-H torsion
[ 10167 10162 10161 10158 ] final   46.61 input  -65.29 | X-H torsion
[ 10718 10713 10712 10709 ] final   12.11 input   66.30 | X-H torsion
[ 10763 10752 10751 10750 ] final -151.22 input  -60.55 | X-H torsion
[ 11005 11000 10999 10996 ] final -154.20 input  -57.11 | X-H torsion

> <Gold.Protein.ActiveResidues>
 VAL166  LYS551  ARG553  GLY616  TRP617  ASP618  TYR619  PRO620  LYS621  CYS622 
 ASP623  PHE694  ASN695  SER759  ASP760  ASP761  ALA762  ILE779  LEU786  VAL792 
 PHE793  MET794  SER795  GLU796  ALA797  LYS798  CYS799  TRP800  GLU811  SER814 

> <Gold.Protein.RotatedAtoms>
  151.9431  135.0204  160.0536 H   0  0  0  0  0  0  0  0  0  0  0  0  # atno 6907 bound_to 6896
  152.2019  133.4842  159.5071 H   0  0  0  0  0  0  0  0  0  0  0  0  # atno 6908 bound_to 6896
  150.6956  134.1497  159.4178 H   0  0  0  0  0  0  0  0  0  0  0  0  # atno 6909 bound_to 6896
  146.1935  140.3798  142.8449 H   0  0  0  0  0  0  0  0  0  0  0  0  # atno 7974 bound_to 7965
  155.2694  140.3365  155.4266 H   0  0  0  0  0  0  0  0  0  0  0  0  # atno 8008 bound_to 7997
  156.2139  140.1781  156.7674 H   0  0  0  0  0  0  0  0  0  0  0  0  # atno 8009 bound_to 7997
  154.5726  140.0667  156.8971 H   0  0  0  0  0  0  0  0  0  0  0  0  # atno 8010 bound_to 7997
  140.3122  144.2807  150.6198 H   0  0  0  0  0  0  0  0  0  0  0  0  # atno 10167 bound_to 10162
  157.0054  130.6096  149.5701 H   0  0  0  0  0  0  0  0  0  0  0  0  # atno 10718 bound_to 10713
  154.8071  135.3265  154.7402 H   0  0  0  0  0  0  0  0  0  0  0  0  # atno 10763 bound_to 10752
  153.8058  135.6900  153.4853 H   0  0  0  0  0  0  0  0  0  0  0  0  # atno 10764 bound_to 10752
  153.1824  135.4581  154.9991 H   0  0  0  0  0  0  0  0  0  0  0  0  # atno 10765 bound_to 10752
  140.6999  134.3949  157.5211 H   0  0  0  0  0  0  0  0  0  0  0  0  # atno 11005 bound_to 11000
  144.8532  140.7032  143.6154 LP  0  0  0  0  0  0  0  0  0  0  0  0  # atno 17320 bound_to 7965
  145.3719  139.1656  143.4327 LP  0  0  0  0  0  0  0  0  0  0  0  0  # atno 17321 bound_to 7965
  140.5558  143.2199  151.7849 LP  0  0  0  0  0  0  0  0  0  0  0  0  # atno 17342 bound_to 10162
  139.4891  144.4415  151.9759 LP  0  0  0  0  0  0  0  0  0  0  0  0  # atno 17343 bound_to 10162
  156.0155  130.5249  150.8123 LP  0  0  0  0  0  0  0  0  0  0  0  0  # atno 17370 bound_to 10713
  157.5360  131.0939  150.9892 LP  0  0  0  0  0  0  0  0  0  0  0  0  # atno 17371 bound_to 10713
  139.8900  134.8817  156.2394 LP  0  0  0  0  0  0  0  0  0  0  0  0  # atno 17394 bound_to 11000
  141.0172  133.7061  156.1209 LP  0  0  0  0  0  0  0  0  0  0  0  0  # atno 17395 bound_to 11000

$$$$
