AV-unprocessed.smi:221|AV-procd|sdf|1691|dock10
  -GOLD-   2262020133D 1   1.00000     0.00000
 Structure written by MMmdl.
 50 53  0  0  0  0  0  0  0  0  1 V2000
  145.9597  140.7443  153.7099 N   0  0  0  0  0  0  0  0  0  0  0  0
  147.0870  140.3860  153.0877 C   0  0  0  0  0  0  0  0  0  0  0  0
  147.0708  139.8320  151.9904 O   0  0  0  0  0  0  0  0  0  0  0  0
  148.4260  140.6803  153.7947 C   0  0  1  0  0  0  0  0  0  0  0  0
  148.3263  141.3962  155.1500 C   0  0  0  0  0  0  0  0  0  0  0  0
  149.7035  141.1578  155.7837 C   0  0  1  0  0  0  0  0  0  0  0  0
  149.5661  140.6948  157.0266 F   0  0  0  0  0  0  0  0  0  0  0  0
  150.3907  140.1171  154.8829 C   0  0  0  0  0  0  0  0  0  0  0  0
  149.3484  139.5598  154.0267 N   0  0  0  0  0  0  0  0  0  0  0  0
  148.9136  138.3589  154.4953 C   0  0  0  0  0  0  0  0  0  0  0  0
  147.5955  138.0243  154.4725 N   0  0  0  0  0  0  0  0  0  0  0  0
  147.1909  136.8461  154.9552 C   0  0  0  0  0  0  0  0  0  0  0  0
  147.9219  135.8744  155.5049 N   0  0  0  0  0  0  0  0  0  0  0  0
  149.2427  136.2110  155.5426 C   0  0  0  0  0  0  0  0  0  0  0  0
  149.8168  137.4222  155.0654 C   0  0  0  0  0  0  0  0  0  0  0  0
  151.1906  137.4136  155.2724 N   0  0  0  0  0  0  0  0  0  0  0  0
  151.4167  136.2618  155.8436 C   0  0  0  0  0  0  0  0  0  0  0  0
  150.3029  135.4793  156.0485 N   0  0  0  0  0  0  0  0  0  0  0  0
  150.2718  134.1641  156.6642 C   0  0  0  0  0  0  0  0  0  0  0  0
  151.0342  133.0921  155.8466 C   0  0  1  0  0  0  0  0  0  0  0  0
  152.0349  132.2840  156.7091 C   0  0  0  0  0  0  0  0  0  0  0  0
  151.4750  131.9347  157.9586 O   0  0  0  0  0  0  0  0  0  0  0  0
  150.0605  132.1779  155.0598 C   0  0  2  0  0  0  0  0  0  0  0  0
  150.7052  130.9723  154.3988 C   0  0  0  0  0  0  0  0  0  0  0  0
  149.6569  130.5725  153.3670 C   0  0  0  0  0  0  0  0  0  0  0  0
  149.0429  131.7884  152.9553 O   0  0  0  0  0  0  0  0  0  0  0  0
  149.4012  132.8412  153.8453 C   0  0  0  0  0  0  0  0  0  0  0  0
  148.9524  141.3500  153.1118 H   0  0  0  0  0  0  0  0  0  0  0  0
  150.2909  142.0745  155.8448 H   0  0  0  0  0  0  0  0  0  0  0  0
  145.0677  140.5699  153.2705 H   0  0  0  0  0  0  0  0  0  0  0  0
  146.0041  141.1924  154.6137 H   0  0  0  0  0  0  0  0  0  0  0  0
  148.1054  142.4582  155.0374 H   0  0  0  0  0  0  0  0  0  0  0  0
  147.5394  140.9602  155.7675 H   0  0  0  0  0  0  0  0  0  0  0  0
  151.1277  140.6027  154.2419 H   0  0  0  0  0  0  0  0  0  0  0  0
  150.9292  139.3680  155.4676 H   0  0  0  0  0  0  0  0  0  0  0  0
  146.1292  136.6562  154.8946 H   0  0  0  0  0  0  0  0  0  0  0  0
  152.4082  135.9495  156.1379 H   0  0  0  0  0  0  0  0  0  0  0  0
  150.6856  134.2380  157.6707 H   0  0  0  0  0  0  0  0  0  0  0  0
  149.2249  133.8839  156.7840 H   0  0  0  0  0  0  0  0  0  0  0  0
  151.6335  133.6286  155.1094 H   0  0  0  0  0  0  0  0  0  0  0  0
  152.3416  131.3726  156.1968 H   0  0  0  0  0  0  0  0  0  0  0  0
  152.9505  132.8495  156.8827 H   0  0  0  0  0  0  0  0  0  0  0  0
  151.0211  131.1112  157.8658 H   0  0  0  0  0  0  0  0  0  0  0  0
  149.2723  131.8239  155.7264 H   0  0  0  0  0  0  0  0  0  0  0  0
  151.6314  131.2595  153.8991 H   0  0  0  0  0  0  0  0  0  0  0  0
  150.9287  130.1654  155.0974 H   0  0  0  0  0  0  0  0  0  0  0  0
  150.0863  130.0347  152.5214 H   0  0  0  0  0  0  0  0  0  0  0  0
  148.8975  129.9365  153.8234 H   0  0  0  0  0  0  0  0  0  0  0  0
  148.5283  133.4346  154.1181 H   0  0  0  0  0  0  0  0  0  0  0  0
  150.1058  133.4961  153.3308 H   0  0  0  0  0  0  0  0  0  0  0  0
  1  2  1  0  0  0  0
  1 30  1  0  0  0  0
  1 31  1  0  0  0  0
  2  3  2  0  0  0  0
  2  4  1  0  0  0  0
  4 28  1  0  0  0  0
  4  9  1  0  0  0  0
  4  5  1  0  0  0  0
  5  6  1  0  0  0  0
  5 32  1  0  0  0  0
  5 33  1  0  0  0  0
  6 29  1  0  0  0  0
  6  7  1  0  0  0  0
  6  8  1  0  0  0  0
  8  9  1  0  0  0  0
  8 34  1  0  0  0  0
  8 35  1  0  0  0  0
  9 10  1  0  0  0  0
 10 15  1  0  0  0  0
 10 11  2  0  0  0  0
 11 12  1  0  0  0  0
 12 13  2  0  0  0  0
 12 36  1  0  0  0  0
 13 14  1  0  0  0  0
 14 18  1  0  0  0  0
 14 15  2  0  0  0  0
 15 16  1  0  0  0  0
 16 17  2  0  0  0  0
 17 18  1  0  0  0  0
 17 37  1  0  0  0  0
 18 19  1  0  0  0  0
 19 20  1  0  0  0  0
 19 38  1  0  0  0  0
 19 39  1  0  0  0  0
 20 21  1  0  0  0  0
 20 23  1  0  0  0  0
 20 40  1  0  0  0  0
 21 22  1  0  0  0  0
 21 41  1  0  0  0  0
 21 42  1  0  0  0  0
 22 43  1  0  0  0  0
 23 27  1  0  0  0  0
 23 24  1  0  0  0  0
 23 44  1  0  0  0  0
 24 25  1  0  0  0  0
 24 45  1  0  0  0  0
 24 46  1  0  0  0  0
 25 26  1  0  0  0  0
 25 47  1  0  0  0  0
 25 48  1  0  0  0  0
 26 27  1  0  0  0  0
 27 49  1  0  0  0  0
 27 50  1  0  0  0  0
M  END
> <s_m_source_file>
AV-unprocessed.smi

> <i_m_source_file_index>
221

> <i_lp_mmshare_version>
43012

> <i_f3d_flags>
0

> <s_epik_input>
W05IMl1DKD1PKVtDQEBIXTFbQ0gyXVtDQEBIXShGKVtDSDJdTjFjKG5bY0hdbjIpYyhjMjMpbltjSF1uM1tDSDJdW0NASF0oW0NIMl1bT0hdKVtDQEBIXTRbQ0gyXVtDSDJdT1tDSDJdNA==

> <s_epik_cmdline>
J2VwaWtfcHl0aG9uJywgJy1waCcsICc3LjAnLCAnLXRuJywgJzgnLCAnLW1hJywgJzIwMCcsICctbWV0YWxfYmluZGluZycsICctaW1hZScsICc8aW5maWxlLm1hZT4nLCAnLW9tYWUnLCAnPG91dGZpbGUubWFlPic=

> <r_lp_tautomer_probability>
1

> <r_epik_Ionization_Penalty>
0.000818822

> <r_epik_Ionization_Penalty_Charging>
0

> <r_epik_Ionization_Penalty_Neutral>
0.000818822

> <r_epik_State_Penalty>
0.000440551

> <r_epik_Charging_Adjusted_Penalty>
0.000440551

> <i_epik_Tot_Q>
0

> <i_epik_Tot_abs_Q>
0

> <r_epik_Metal_State_Penalty>
-0

> <b_epik_Metal_Only>
0

> <s_lp_Force_Field>
OPLS_2005

> <r_lp_Energy>
55.0143

> <b_lp_Chiralities_Consistent>
1

> <s_lp_Variant>
AV-unprocessed.smi:221-6

> <Gold.Version>
5.8.1

> <Gold.Id.Protein>
6NUR|6NUR_protein|mol2

> <Gold.PLP.Fitness>
35.4464

> <Gold.PLP.PLP>
-32.5209

> <Gold.PLP.part.hbond>
-2.0000

> <Gold.PLP.part.metal>
0.0000

> <Gold.PLP.part.buried>
-3.1005

> <Gold.PLP.part.nonpolar>
-29.7915

> <Gold.PLP.part.repulsive>
2.7960

> <Gold.PLP.ligand.clash>
0.0000

> <Gold.PLP.ligand.torsion>
1.6486

> <Gold.PLP.Chemscore.Hbond>
2.0000

> <Gold.PLP.Chemscore.CHOScore>
0.0000

> <Gold.PLP.Chemscore.Metal>
0.0000

> <Gold.Chemscore.Hbonds>
donor molecule, donor type, donor heavy atom, donor atom, acceptor molecule, acceptor atom, score
      L1  H     1    30       P1 10175  1.00
      P1  H  6896  6909       L1    22  1.00

> <Gold.PLP.Chemscore.Internal.Correction>
0.2226

> <Gold.Rescore>
     Score         DG    S(hbond)    S(metal)    S(lipo)     H(rot)  DE(clash)    DE(int)     intcor
      5.49     -10.04       1.97        0.00      64.02       3.72       0.55       4.00       ----

> <Gold.Chemscore.Fitness>
5.4858

> <Gold.Chemscore.DG>
-10.0363

> <Gold.Chemscore.ZeroCoef>
-5.4800

> <Gold.Chemscore.Hbond>
1.9729

> <Gold.Chemscore.Metal>
0.0000

> <Gold.Chemscore.Lipo>
64.0230

> <Gold.Chemscore.Internal_Hbond>
0.0000

> <Gold.Chemscore.DEClash>
0.5517

> <Gold.Chemscore.DEInternal>
3.9988

> <Gold.Chemscore.Rot>
3.7202

> <Gold.Chemscore.Internal.Correction>
   9.000000E+99

> <Gold.Chemscore.Hbonds>
donor molecule, donor type, donor heavy atom, donor atom, acceptor molecule, acceptor atom, score
      L1  H     1    30       P1 10175  0.94
      P1  H  6896  6909       L1    22  0.88

> <Gold.Chemscore.Hbond.Weighted>
-6.5894

> <Gold.Chemscore.Metal.Weighted>
-0.0000

> <Gold.Chemscore.Lipo.Weighted>
-7.4907

> <Gold.Chemscore.Internal_Hbond.Weighted>
0.0000

> <Gold.Chemscore.DEClash.Weighted>
0.5517

> <Gold.Chemscore.DEInternal.Weighted>
3.9988

> <Gold.Chemscore.Rot.Weighted>
9.5237

> <Gold.Chemscore.Internal.Correction.Weighted>
   9.000000E+99

> <Gold.Protein.RotatedTorsions>
[ 6907 6896 6895 6894 ] final  -56.82 input  -60.11 | X-H torsion
[ 7974 7965 7964 7962 ] final   42.96 input  175.53 | X-H torsion
[ 8008 7997 7996 7995 ] final  -59.59 input   59.86 | X-H torsion
[ 10167 10162 10161 10158 ] final   93.19 input  -65.29 | X-H torsion
[ 10718 10713 10712 10709 ] final -159.03 input   66.30 | X-H torsion
[ 10763 10752 10751 10750 ] final -141.70 input  -60.55 | X-H torsion
[ 11005 11000 10999 10996 ] final   76.72 input  -57.11 | X-H torsion

> <Gold.Protein.ActiveResidues>
 VAL166  LYS551  ARG553  GLY616  TRP617  ASP618  TYR619  PRO620  LYS621  CYS622 
 ASP623  PHE694  ASN695  SER759  ASP760  ASP761  ALA762  ILE779  LEU786  VAL792 
 PHE793  MET794  SER795  GLU796  ALA797  LYS798  CYS799  TRP800  GLU811  SER814 

> <Gold.Protein.RotatedAtoms>
  150.8136  134.7305  159.6709 H   0  0  0  0  0  0  0  0  0  0  0  0  # atno 6907 bound_to 6896
  152.4255  134.5872  159.9974 H   0  0  0  0  0  0  0  0  0  0  0  0  # atno 6908 bound_to 6896
  151.6075  133.3313  159.3096 H   0  0  0  0  0  0  0  0  0  0  0  0  # atno 6909 bound_to 6896
  146.0696  139.5240  142.9606 H   0  0  0  0  0  0  0  0  0  0  0  0  # atno 7974 bound_to 7965
  154.4359  140.1058  156.6140 H   0  0  0  0  0  0  0  0  0  0  0  0  # atno 8008 bound_to 7997
  155.5779  140.3490  155.4513 H   0  0  0  0  0  0  0  0  0  0  0  0  # atno 8009 bound_to 7997
  156.0341  140.1267  157.0216 H   0  0  0  0  0  0  0  0  0  0  0  0  # atno 8010 bound_to 7997
  139.8204  144.6734  150.9526 H   0  0  0  0  0  0  0  0  0  0  0  0  # atno 10167 bound_to 10162
  156.5624  130.8653  151.2813 H   0  0  0  0  0  0  0  0  0  0  0  0  # atno 10718 bound_to 10713
  154.8536  135.3517  154.5910 H   0  0  0  0  0  0  0  0  0  0  0  0  # atno 10763 bound_to 10752
  153.6520  135.6993  153.5210 H   0  0  0  0  0  0  0  0  0  0  0  0  # atno 10764 bound_to 10752
  153.2886  135.4241  155.1104 H   0  0  0  0  0  0  0  0  0  0  0  0  # atno 10765 bound_to 10752
  139.9285  134.7624  156.1432 H   0  0  0  0  0  0  0  0  0  0  0  0  # atno 11005 bound_to 11000
  145.6416  141.0283  143.1809 LP  0  0  0  0  0  0  0  0  0  0  0  0  # atno 17320 bound_to 7965
  144.7223  139.7988  143.7377 LP  0  0  0  0  0  0  0  0  0  0  0  0  # atno 17321 bound_to 7965
  140.7813  143.4097  151.1012 LP  0  0  0  0  0  0  0  0  0  0  0  0  # atno 17342 bound_to 10162
  139.7758  143.8427  152.3129 LP  0  0  0  0  0  0  0  0  0  0  0  0  # atno 17343 bound_to 10162
  157.7366  130.9781  150.2144 LP  0  0  0  0  0  0  0  0  0  0  0  0  # atno 17370 bound_to 10713
  156.2787  130.3731  149.7957 LP  0  0  0  0  0  0  0  0  0  0  0  0  # atno 17371 bound_to 10713
  141.0859  133.6734  156.2436 LP  0  0  0  0  0  0  0  0  0  0  0  0  # atno 17394 bound_to 11000
  140.6267  134.5306  157.5554 LP  0  0  0  0  0  0  0  0  0  0  0  0  # atno 17395 bound_to 11000

$$$$
