AV-unprocessed.smi:1683|AV-procd|sdf|6751|dock2
  -GOLD-   22720 7503D 1   1.00000     0.00000
 Structure written by MMmdl.
 37 38  0  0  0  0  0  0  0  0  2 V2000
  148.6107  138.2263  155.1709 O   0  0  0  0  0  0  0  0  0  0  0  0
  148.9787  138.7076  154.0995 C   0  0  0  0  0  0  0  0  0  0  0  0
  150.2007  139.2221  153.9007 N   0  0  0  0  0  0  0  0  0  0  0  0
  151.2498  139.3087  154.9116 C   0  0  0  0  0  0  0  0  0  0  0  0
  150.8291  140.1573  156.1277 C   0  0  2  0  0  0  0  0  0  0  0  0
  150.4223  141.5846  155.7777 C   0  0  0  0  0  0  0  0  0  0  0  0
  150.5299  142.2967  157.1227 C   0  0  0  0  0  0  0  0  0  0  0  0
  151.6930  141.6841  157.8035 N   0  3  1  0  0  0  0  0  0  0  0  0
  151.6205  141.6678  159.2859 C   0  0  0  0  0  0  0  0  0  0  0  0
  152.7920  142.4113  159.9527 C   0  0  0  0  0  0  0  0  0  0  0  0
  152.5732  142.5914  161.2549 F   0  0  0  0  0  0  0  0  0  0  0  0
  153.9013  141.6879  159.8097 F   0  0  0  0  0  0  0  0  0  0  0  0
  152.9760  143.5952  159.3685 F   0  0  0  0  0  0  0  0  0  0  0  0
  151.9211  140.3525  157.1903 C   0  0  0  0  0  0  0  0  0  0  0  0
  148.2282  138.7870  152.9889 N   0  0  0  0  0  0  0  0  0  0  0  0
  146.8939  138.3392  152.8215 C   0  0  0  0  0  0  0  0  0  0  0  0
  146.0167  137.7383  153.7718 C   0  0  0  0  0  0  0  0  0  0  0  0
  144.8406  137.4579  153.2285 N   0  0  0  0  0  0  0  0  0  0  0  0
  144.9577  137.8712  151.9465 N   0  0  0  0  0  0  0  0  0  0  0  0
  146.1909  138.4118  151.6562 C   0  0  0  0  0  0  0  0  0  0  0  0
  144.1953  137.7790  151.2903 H   0  0  0  0  0  0  0  0  0  0  0  0
  150.4131  139.6017  152.9894 H   0  0  0  0  0  0  0  0  0  0  0  0
  151.4931  138.2945  155.2295 H   0  0  0  0  0  0  0  0  0  0  0  0
  152.1577  139.7161  154.4630 H   0  0  0  0  0  0  0  0  0  0  0  0
  149.9712  139.6866  156.6112 H   0  0  0  0  0  0  0  0  0  0  0  0
  151.1262  142.0204  155.0667 H   0  0  0  0  0  0  0  0  0  0  0  0
  149.4226  141.6471  155.3467 H   0  0  0  0  0  0  0  0  0  0  0  0
  150.6496  143.3746  157.0119 H   0  0  0  0  0  0  0  0  0  0  0  0
  149.6214  142.1149  157.6996 H   0  0  0  0  0  0  0  0  0  0  0  0
  150.6643  142.0730  159.6208 H   0  0  0  0  0  0  0  0  0  0  0  0
  151.6485  140.6277  159.6144 H   0  0  0  0  0  0  0  0  0  0  0  0
  151.9024  139.5417  157.9202 H   0  0  0  0  0  0  0  0  0  0  0  0
  152.9121  140.3588  156.7349 H   0  0  0  0  0  0  0  0  0  0  0  0
  148.6518  139.2181  152.1805 H   0  0  0  0  0  0  0  0  0  0  0  0
  146.1797  137.4978  154.8120 H   0  0  0  0  0  0  0  0  0  0  0  0
  146.4487  138.7896  150.6777 H   0  0  0  0  0  0  0  0  0  0  0  0
  152.4991  142.2404  157.5558 H   0  0  0  0  0  0  0  0  0  0  0  0
  1  2  2  0  0  0  0
  2  3  1  0  0  0  0
  2 15  1  0  0  0  0
  3  4  1  0  0  0  0
  3 22  1  0  0  0  0
  4  5  1  0  0  0  0
  4 23  1  0  0  0  0
  4 24  1  0  0  0  0
  5 14  1  0  0  0  0
  5  6  1  0  0  0  0
  5 25  1  0  0  0  0
  6  7  1  0  0  0  0
  6 26  1  0  0  0  0
  6 27  1  0  0  0  0
  7  8  1  0  0  0  0
  7 28  1  0  0  0  0
  7 29  1  0  0  0  0
  8  9  1  0  0  0  0
  8 14  1  0  0  0  0
  8 37  1  0  0  0  0
  9 10  1  0  0  0  0
  9 30  1  0  0  0  0
  9 31  1  0  0  0  0
 10 11  1  0  0  0  0
 10 12  1  0  0  0  0
 10 13  1  0  0  0  0
 14 32  1  0  0  0  0
 14 33  1  0  0  0  0
 15 16  1  0  0  0  0
 15 34  1  0  0  0  0
 16 20  2  0  0  0  0
 16 17  1  0  0  0  0
 17 18  2  0  0  0  0
 17 35  1  0  0  0  0
 18 19  1  0  0  0  0
 19 21  1  0  0  0  0
 19 20  1  0  0  0  0
 20 36  1  0  0  0  0
M  CHG  1   8   1
M  END
> <s_m_source_file>
AV-unprocessed.smi

> <i_m_source_file_index>
1683

> <i_lp_mmshare_version>
43012

> <i_f3d_flags>
0

> <s_epik_input>
W2NIXTFbbkhdbltjSF1jMVtOSF1DKD1PKVtOSF1bQ0gyXVtDQEBIXTJbQ0gyXVtDSDJdTihbQ0gyXTIpW0NIMl1DKEYpKEYpRg==

> <s_epik_cmdline>
J2VwaWtfcHl0aG9uJywgJy1waCcsICc3LjAnLCAnLXRuJywgJzgnLCAnLW1hJywgJzIwMCcsICctbWV0YWxfYmluZGluZycsICctaW1hZScsICc8aW5maWxlLm1hZT4nLCAnLW9tYWUnLCAnPG91dGZpbGUubWFlPic=

> <r_lp_tautomer_probability>
0.5

> <r_epik_Ionization_Penalty>
0.641865

> <r_epik_Ionization_Penalty_Charging>
0.64182

> <r_epik_Ionization_Penalty_Neutral>
4.50685e-05

> <r_epik_State_Penalty>
0.65957

> <r_epik_Charging_Adjusted_Penalty>
1.30139

> <i_epik_Tot_Q>
1

> <i_epik_Tot_abs_Q>
1

> <r_epik_Metal_State_Penalty>
0.659571

> <b_epik_Metal_Only>
0

> <s_lp_Force_Field>
OPLS_2005

> <r_lp_Energy>
31.6125

> <b_lp_Chiralities_Consistent>
1

> <s_lp_Variant>
AV-unprocessed.smi:1683-5

> <Gold.Version>
5.8.1

> <Gold.Id.Protein>
6NUR|6NUR_protein|mol2

> <Gold.PLP.Fitness>
47.4610

> <Gold.PLP.PLP>
-40.7237

> <Gold.PLP.part.hbond>
-4.8762

> <Gold.PLP.part.metal>
0.0000

> <Gold.PLP.part.buried>
-0.9349

> <Gold.PLP.part.nonpolar>
-36.1884

> <Gold.PLP.part.repulsive>
0.5560

> <Gold.PLP.ligand.clash>
0.0000

> <Gold.PLP.ligand.torsion>
0.8548

> <Gold.PLP.Chemscore.Hbond>
2.5282

> <Gold.PLP.Chemscore.CHOScore>
0.1483

> <Gold.PLP.Chemscore.Metal>
0.0000

> <Gold.Chemscore.Hbonds>
donor molecule, donor type, donor heavy atom, donor atom, acceptor molecule, acceptor atom, score
      L1  H     3    22       P1  7957  0.89
      L1  H    15    34       P1  7957  1.00
      L1  H    19    21       P1 10171  0.64
      L1  C    20    36       P1 10171  0.15

> <Gold.PLP.Chemscore.Internal.Correction>
0.4176

> <Gold.Rescore>
     Score         DG    S(hbond)    S(metal)    S(lipo)     H(rot)  DE(clash)    DE(int)     intcor
     14.50     -17.37       2.45        0.00      71.30       1.81       1.13       1.75       ----

> <Gold.Chemscore.Fitness>
14.4974

> <Gold.Chemscore.DG>
-17.3693

> <Gold.Chemscore.ZeroCoef>
-5.4800

> <Gold.Chemscore.Hbond>
2.4505

> <Gold.Chemscore.Metal>
0.0000

> <Gold.Chemscore.Lipo>
71.3031

> <Gold.Chemscore.Internal_Hbond>
0.0000

> <Gold.Chemscore.DEClash>
1.1255

> <Gold.Chemscore.DEInternal>
1.7464

> <Gold.Chemscore.Rot>
1.8116

> <Gold.Chemscore.Internal.Correction>
   9.000000E+99

> <Gold.Chemscore.Hbonds>
donor molecule, donor type, donor heavy atom, donor atom, acceptor molecule, acceptor atom, score
      L1  H     3    22       P1  7957  0.75
      L1  H    15    34       P1  7957  0.99
      L1  H    19    21       P1 10171  0.64

> <Gold.Chemscore.Hbond.Weighted>
-8.1847

> <Gold.Chemscore.Metal.Weighted>
-0.0000

> <Gold.Chemscore.Lipo.Weighted>
-8.3425

> <Gold.Chemscore.Internal_Hbond.Weighted>
0.0000

> <Gold.Chemscore.DEClash.Weighted>
1.1255

> <Gold.Chemscore.DEInternal.Weighted>
1.7464

> <Gold.Chemscore.Rot.Weighted>
4.6378

> <Gold.Chemscore.Internal.Correction.Weighted>
   9.000000E+99

> <Gold.Protein.RotatedTorsions>
[ 6907 6896 6895 6894 ] final   31.93 input  -60.11 | X-H torsion
[ 7974 7965 7964 7962 ] final   49.26 input  175.53 | X-H torsion
[ 8008 7997 7996 7995 ] final  -35.67 input   59.86 | X-H torsion
[ 10167 10162 10161 10158 ] final  122.98 input  -65.29 | X-H torsion
[ 10718 10713 10712 10709 ] final -106.43 input   66.30 | X-H torsion
[ 10763 10752 10751 10750 ] final -165.41 input  -60.55 | X-H torsion
[ 11005 11000 10999 10996 ] final   98.23 input  -57.11 | X-H torsion

> <Gold.Protein.ActiveResidues>
 VAL166  LYS551  ARG553  GLY616  TRP617  ASP618  TYR619  PRO620  LYS621  CYS622 
 ASP623  PHE694  ASN695  SER759  ASP760  ASP761  ALA762  ILE779  LEU786  VAL792 
 PHE793  MET794  SER795  GLU796  ALA797  LYS798  CYS799  TRP800  GLU811  SER814 

> <Gold.Protein.RotatedAtoms>
  152.0672  134.9556  160.0574 H   0  0  0  0  0  0  0  0  0  0  0  0  # atno 6907 bound_to 6896
  152.0897  133.4189  159.4546 H   0  0  0  0  0  0  0  0  0  0  0  0  # atno 6908 bound_to 6896
  150.6836  134.2806  159.4669 H   0  0  0  0  0  0  0  0  0  0  0  0  # atno 6909 bound_to 6896
  146.0126  139.4560  142.9947 H   0  0  0  0  0  0  0  0  0  0  0  0  # atno 7974 bound_to 7965
  154.4090  140.1651  156.2250 H   0  0  0  0  0  0  0  0  0  0  0  0  # atno 8008 bound_to 7997
  155.9331  140.3413  155.6243 H   0  0  0  0  0  0  0  0  0  0  0  0  # atno 8009 bound_to 7997
  155.7081  140.0753  157.2373 H   0  0  0  0  0  0  0  0  0  0  0  0  # atno 8010 bound_to 7997
  139.5826  144.6993  151.3489 H   0  0  0  0  0  0  0  0  0  0  0  0  # atno 10167 bound_to 10162
  156.0390  130.5612  150.7680 H   0  0  0  0  0  0  0  0  0  0  0  0  # atno 10718 bound_to 10713
  154.6934  135.2975  154.9446 H   0  0  0  0  0  0  0  0  0  0  0  0  # atno 10763 bound_to 10752
  154.0402  135.6658  153.4793 H   0  0  0  0  0  0  0  0  0  0  0  0  # atno 10764 bound_to 10752
  153.0628  135.5105  154.8039 H   0  0  0  0  0  0  0  0  0  0  0  0  # atno 10765 bound_to 10752
  139.8773  134.9039  156.4425 H   0  0  0  0  0  0  0  0  0  0  0  0  # atno 11005 bound_to 11000
  145.7319  141.0039  143.1347 LP  0  0  0  0  0  0  0  0  0  0  0  0  # atno 17320 bound_to 7965
  144.6958  139.8994  143.7457 LP  0  0  0  0  0  0  0  0  0  0  0  0  # atno 17321 bound_to 7965
  140.7102  143.7409  150.7554 LP  0  0  0  0  0  0  0  0  0  0  0  0  # atno 17342 bound_to 10162
  140.0945  143.4846  152.2460 LP  0  0  0  0  0  0  0  0  0  0  0  0  # atno 17343 bound_to 10162
  157.5181  131.0930  151.0113 LP  0  0  0  0  0  0  0  0  0  0  0  0  # atno 17370 bound_to 10713
  157.0451  130.5764  149.5362 LP  0  0  0  0  0  0  0  0  0  0  0  0  # atno 17371 bound_to 10713
  140.8989  133.7793  155.9658 LP  0  0  0  0  0  0  0  0  0  0  0  0  # atno 17394 bound_to 11000
  140.8672  134.2770  157.5207 LP  0  0  0  0  0  0  0  0  0  0  0  0  # atno 17395 bound_to 11000

$$$$
