AV-unprocessed.smi:1019|AV-procd|sdf|4445|dock9
  -GOLD-   22720 2403D 1   1.00000     0.00000
 Structure written by MMmdl.
 44 46  0  0  0  0  0  0  0  0  2 V2000
  146.6873  138.9307  151.6861 C   0  0  0  0  0  0  0  0  0  0  0  0
  146.5281  137.6899  152.4801 N   0  3  1  0  0  0  0  0  0  0  0  0
  146.7346  137.9400  153.9287 C   0  0  0  0  0  0  0  0  0  0  0  0
  148.0671  138.6136  154.2095 C   0  0  0  0  0  0  0  0  0  0  0  0
  148.1956  140.0102  154.0551 C   0  0  0  0  0  0  0  0  0  0  0  0
  149.4287  140.6406  154.3121 C   0  0  0  0  0  0  0  0  0  0  0  0
  150.5372  139.8774  154.7268 C   0  0  0  0  0  0  0  0  0  0  0  0
  150.4124  138.4837  154.8850 C   0  0  0  0  0  0  0  0  0  0  0  0
  149.1797  137.8525  154.6284 C   0  0  0  0  0  0  0  0  0  0  0  0
  145.2572  136.9767  152.1844 C   0  0  0  0  0  0  0  0  0  0  0  0
  145.4380  135.4447  152.0987 C   0  0  1  0  0  0  0  0  0  0  0  0
  144.5251  134.8312  152.9864 O   0  0  0  0  0  0  0  0  0  0  0  0
  145.1768  134.8752  150.6900 C   0  0  0  0  0  0  0  0  0  0  0  0
  144.9400  133.4434  150.7044 N   0  0  0  0  0  0  0  0  0  0  0  0
  143.9635  132.7783  150.0576 C   0  0  0  0  0  0  0  0  0  0  0  0
  143.9161  131.4591  150.2170 N   0  0  0  0  0  0  0  0  0  0  0  0
  144.9915  131.2401  151.0607 C   0  0  0  0  0  0  0  0  0  0  0  0
  145.4903  130.0416  151.6194 C   0  0  0  0  0  0  0  0  0  0  0  0
  146.6145  130.0641  152.4709 C   0  0  0  0  0  0  0  0  0  0  0  0
  147.2562  131.2820  152.7763 C   0  0  0  0  0  0  0  0  0  0  0  0
  146.7783  132.4888  152.2310 C   0  0  0  0  0  0  0  0  0  0  0  0
  145.6560  132.4621  151.3822 C   0  0  0  0  0  0  0  0  0  0  0  0
  145.9170  139.6592  151.9423 H   0  0  0  0  0  0  0  0  0  0  0  0
  146.6274  138.7336  150.6166 H   0  0  0  0  0  0  0  0  0  0  0  0
  147.6602  139.3860  151.8737 H   0  0  0  0  0  0  0  0  0  0  0  0
  145.9518  138.5988  154.3076 H   0  0  0  0  0  0  0  0  0  0  0  0
  146.6489  137.0052  154.4854 H   0  0  0  0  0  0  0  0  0  0  0  0
  147.3495  140.6020  153.7370 H   0  0  0  0  0  0  0  0  0  0  0  0
  149.5242  141.7097  154.1921 H   0  0  0  0  0  0  0  0  0  0  0  0
  151.4826  140.3615  154.9239 H   0  0  0  0  0  0  0  0  0  0  0  0
  151.2627  137.8987  155.2041 H   0  0  0  0  0  0  0  0  0  0  0  0
  149.0931  136.7828  154.7516 H   0  0  0  0  0  0  0  0  0  0  0  0
  144.5141  137.1835  152.9543 H   0  0  0  0  0  0  0  0  0  0  0  0
  144.8460  137.3782  151.2578 H   0  0  0  0  0  0  0  0  0  0  0  0
  146.4457  135.1620  152.4017 H   0  0  0  0  0  0  0  0  0  0  0  0
  143.7157  135.3201  152.9739 H   0  0  0  0  0  0  0  0  0  0  0  0
  144.3084  135.3594  150.2407 H   0  0  0  0  0  0  0  0  0  0  0  0
  146.0216  135.0799  150.0309 H   0  0  0  0  0  0  0  0  0  0  0  0
  143.2425  133.2931  149.4394 H   0  0  0  0  0  0  0  0  0  0  0  0
  145.0068  129.1028  151.3935 H   0  0  0  0  0  0  0  0  0  0  0  0
  146.9863  129.1414  152.8916 H   0  0  0  0  0  0  0  0  0  0  0  0
  148.1167  131.2889  153.4294 H   0  0  0  0  0  0  0  0  0  0  0  0
  147.2680  133.4225  152.4644 H   0  0  0  0  0  0  0  0  0  0  0  0
  147.2739  137.0686  152.1998 H   0  0  0  0  0  0  0  0  0  0  0  0
  1  2  1  0  0  0  0
  1 23  1  0  0  0  0
  1 24  1  0  0  0  0
  1 25  1  0  0  0  0
  2  3  1  0  0  0  0
  2 10  1  0  0  0  0
  2 44  1  0  0  0  0
  3  4  1  0  0  0  0
  3 26  1  0  0  0  0
  3 27  1  0  0  0  0
  4  9  1  0  0  0  0
  4  5  2  0  0  0  0
  5  6  1  0  0  0  0
  5 28  1  0  0  0  0
  6  7  2  0  0  0  0
  6 29  1  0  0  0  0
  7  8  1  0  0  0  0
  7 30  1  0  0  0  0
  8  9  2  0  0  0  0
  8 31  1  0  0  0  0
  9 32  1  0  0  0  0
 10 11  1  0  0  0  0
 10 33  1  0  0  0  0
 10 34  1  0  0  0  0
 11 12  1  0  0  0  0
 11 13  1  0  0  0  0
 11 35  1  0  0  0  0
 12 36  1  0  0  0  0
 13 14  1  0  0  0  0
 13 37  1  0  0  0  0
 13 38  1  0  0  0  0
 14 22  1  0  0  0  0
 14 15  1  0  0  0  0
 15 16  2  0  0  0  0
 15 39  1  0  0  0  0
 16 17  1  0  0  0  0
 17 22  2  0  0  0  0
 17 18  1  0  0  0  0
 18 19  2  0  0  0  0
 18 40  1  0  0  0  0
 19 20  1  0  0  0  0
 19 41  1  0  0  0  0
 20 21  2  0  0  0  0
 20 42  1  0  0  0  0
 21 22  1  0  0  0  0
 21 43  1  0  0  0  0
M  CHG  1   2   1
M  END
> <s_m_source_file>
AV-unprocessed.smi

> <i_m_source_file_index>
1019

> <i_lp_mmshare_version>
43012

> <i_f3d_flags>
0

> <s_epik_input>
W2NIXTFbY0hdW2NIXVtjSF1bY0hdYzFbQ0gyXU4oW0NIM10pW0NIMl1bQ0BIXShbT0hdKVtDSDJdbihbY0hdbjIpYyhjMjMpW2NIXVtjSF1bY0hdW2NIXTM=

> <s_epik_cmdline>
J2VwaWtfcHl0aG9uJywgJy1waCcsICc3LjAnLCAnLXRuJywgJzgnLCAnLW1hJywgJzIwMCcsICctbWV0YWxfYmluZGluZycsICctaW1hZScsICc8aW5maWxlLm1hZT4nLCAnLW9tYWUnLCAnPG91dGZpbGUubWFlPic=

> <r_epik_Ionization_Penalty>
0.0996557

> <r_epik_Ionization_Penalty_Charging>
0.0475377

> <r_epik_Ionization_Penalty_Neutral>
0.0521179

> <r_epik_State_Penalty>
0.0851777

> <r_epik_Charging_Adjusted_Penalty>
0.132715

> <i_epik_Tot_Q>
1

> <i_epik_Tot_abs_Q>
1

> <r_epik_Metal_State_Penalty>
0.0423478

> <b_epik_Metal_Only>
0

> <s_lp_Force_Field>
OPLS_2005

> <r_lp_Energy>
16.033

> <b_lp_Chiralities_Consistent>
1

> <s_lp_Variant>
AV-unprocessed.smi:1019-3

> <Gold.Version>
5.8.1

> <Gold.Id.Protein>
6NUR|6NUR_protein|mol2

> <Gold.PLP.Fitness>
50.1069

> <Gold.PLP.PLP>
-42.7018

> <Gold.PLP.part.hbond>
-2.0000

> <Gold.PLP.part.metal>
0.0000

> <Gold.PLP.part.buried>
-0.9448

> <Gold.PLP.part.nonpolar>
-39.2609

> <Gold.PLP.part.repulsive>
0.2087

> <Gold.PLP.ligand.clash>
0.0000

> <Gold.PLP.ligand.torsion>
1.8903

> <Gold.PLP.Chemscore.Hbond>
2.6880

> <Gold.PLP.Chemscore.CHOScore>
1.0000

> <Gold.PLP.Chemscore.Metal>
0.0000

> <Gold.Chemscore.Hbonds>
donor molecule, donor type, donor heavy atom, donor atom, acceptor molecule, acceptor atom, score
      L1  H     2    44       P1  7948  2.00
      P1  H 10785 10796       L1    16  0.61
      L1  C    15    39       P1 10186  1.00

> <Gold.PLP.Chemscore.Internal.Correction>
0.1217

> <Gold.Rescore>
     Score         DG    S(hbond)    S(metal)    S(lipo)     H(rot)  DE(clash)    DE(int)     intcor
     15.94     -18.09       1.70        0.00     110.92       2.36       0.18       1.96       ----

> <Gold.Chemscore.Fitness>
15.9418

> <Gold.Chemscore.DG>
-18.0873

> <Gold.Chemscore.ZeroCoef>
-5.4800

> <Gold.Chemscore.Hbond>
1.6992

> <Gold.Chemscore.Metal>
0.0000

> <Gold.Chemscore.Lipo>
110.9205

> <Gold.Chemscore.Internal_Hbond>
0.0000

> <Gold.Chemscore.DEClash>
0.1833

> <Gold.Chemscore.DEInternal>
1.9621

> <Gold.Chemscore.Rot>
2.3616

> <Gold.Chemscore.Internal.Correction>
   9.000000E+99

> <Gold.Chemscore.Hbonds>
donor molecule, donor type, donor heavy atom, donor atom, acceptor molecule, acceptor atom, score
      L1  H     2    44       P1  7948  1.00
      P1  H 10785 10796       L1    16  0.59

> <Gold.Chemscore.Hbond.Weighted>
-5.6753

> <Gold.Chemscore.Metal.Weighted>
-0.0000

> <Gold.Chemscore.Lipo.Weighted>
-12.9777

> <Gold.Chemscore.Internal_Hbond.Weighted>
0.0000

> <Gold.Chemscore.DEClash.Weighted>
0.1833

> <Gold.Chemscore.DEInternal.Weighted>
1.9621

> <Gold.Chemscore.Rot.Weighted>
6.0457

> <Gold.Chemscore.Internal.Correction.Weighted>
   9.000000E+99

> <Gold.Protein.RotatedTorsions>
[ 6907 6896 6895 6894 ] final -158.74 input  -60.11 | X-H torsion
[ 7974 7965 7964 7962 ] final   15.56 input  175.53 | X-H torsion
[ 8008 7997 7996 7995 ] final  131.04 input   59.86 | X-H torsion
[ 10167 10162 10161 10158 ] final   50.76 input  -65.29 | X-H torsion
[ 10718 10713 10712 10709 ] final  144.73 input   66.30 | X-H torsion
[ 10763 10752 10751 10750 ] final -115.18 input  -60.55 | X-H torsion
[ 11005 11000 10999 10996 ] final  122.99 input  -57.11 | X-H torsion

> <Gold.Protein.ActiveResidues>
 VAL166  LYS551  ARG553  GLY616  TRP617  ASP618  TYR619  PRO620  LYS621  CYS622 
 ASP623  PHE694  ASN695  SER759  ASP760  ASP761  ALA762  ILE779  LEU786  VAL792 
 PHE793  MET794  SER795  GLU796  ALA797  LYS798  CYS799  TRP800  GLU811  SER814 

> <Gold.Protein.RotatedAtoms>
  151.3228  133.4033  159.2655 H   0  0  0  0  0  0  0  0  0  0  0  0  # atno 6907 bound_to 6896
  151.0020  134.9330  159.7970 H   0  0  0  0  0  0  0  0  0  0  0  0  # atno 6908 bound_to 6896
  152.5278  134.3193  159.9195 H   0  0  0  0  0  0  0  0  0  0  0  0  # atno 6909 bound_to 6896
  146.2275  139.8876  142.8560 H   0  0  0  0  0  0  0  0  0  0  0  0  # atno 7974 bound_to 7965
  156.2964  140.2581  156.2860 H   0  0  0  0  0  0  0  0  0  0  0  0  # atno 8008 bound_to 7997
  154.9555  140.0393  157.2183 H   0  0  0  0  0  0  0  0  0  0  0  0  # atno 8009 bound_to 7997
  154.7995  140.2826  155.5936 H   0  0  0  0  0  0  0  0  0  0  0  0  # atno 8010 bound_to 7997
  140.2690  144.3287  150.6295 H   0  0  0  0  0  0  0  0  0  0  0  0  # atno 10167 bound_to 10162
  157.3538  131.0954  151.0977 H   0  0  0  0  0  0  0  0  0  0  0  0  # atno 10718 bound_to 10713
  154.8471  135.4391  154.1622 H   0  0  0  0  0  0  0  0  0  0  0  0  # atno 10763 bound_to 10752
  153.2756  135.6949  153.7442 H   0  0  0  0  0  0  0  0  0  0  0  0  # atno 10764 bound_to 10752
  153.6666  135.3426  155.3117 H   0  0  0  0  0  0  0  0  0  0  0  0  # atno 10765 bound_to 10752
  139.9293  134.9641  156.8192 H   0  0  0  0  0  0  0  0  0  0  0  0  # atno 11005 bound_to 11000
  145.2449  141.0023  143.3914 LP  0  0  0  0  0  0  0  0  0  0  0  0  # atno 17320 bound_to 7965
  144.9421  139.4177  143.6443 LP  0  0  0  0  0  0  0  0  0  0  0  0  # atno 17321 bound_to 7965
  140.5905  143.2168  151.7262 LP  0  0  0  0  0  0  0  0  0  0  0  0  # atno 17342 bound_to 10162
  139.4994  144.3946  152.0244 LP  0  0  0  0  0  0  0  0  0  0  0  0  # atno 17343 bound_to 10162
  157.2143  130.6452  149.5786 LP  0  0  0  0  0  0  0  0  0  0  0  0  # atno 17370 bound_to 10713
  155.9726  130.4650  150.6237 LP  0  0  0  0  0  0  0  0  0  0  0  0  # atno 17371 bound_to 10713
  140.6248  133.9960  155.7635 LP  0  0  0  0  0  0  0  0  0  0  0  0  # atno 17394 bound_to 11000
  141.0871  133.9974  157.3296 LP  0  0  0  0  0  0  0  0  0  0  0  0  # atno 17395 bound_to 11000

$$$$
