AV-unprocessed.smi:2166|AV-procd|sdf|8815|dock8
  -GOLD-   2272012 03D 1   1.00000     0.00000
 Structure written by MMmdl.
 38 39  0  0  0  0  0  0  0  0  1 V2000
  154.9512  136.9615  163.8813 C   0  0  0  0  0  0  0  0  0  0  0  0
  154.7403  135.3334  163.1099 S   0  0  0  0  0  0  0  0  0  0  0  0
  155.1269  135.7154  161.3747 C   0  0  1  0  0  0  0  0  0  0  0  0
  155.0025  134.4495  160.5117 C   0  0  0  0  0  0  0  0  0  0  0  0
  154.2508  136.8522  160.8312 C   0  0  0  0  0  0  0  0  0  0  0  0
  153.1370  136.6003  160.3699 O   0  0  0  0  0  0  0  0  0  0  0  0
  154.7827  138.0868  160.9095 N   0  0  0  0  0  0  0  0  0  0  0  0
  154.2012  139.3233  160.5240 C   0  0  0  0  0  0  0  0  0  0  0  0
  154.8352  140.4704  161.0457 C   0  0  0  0  0  0  0  0  0  0  0  0
  154.3280  141.7454  160.7319 C   0  0  0  0  0  0  0  0  0  0  0  0
  153.1911  141.8607  159.9012 C   0  0  0  0  0  0  0  0  0  0  0  0
  152.6634  143.1301  159.5800 N   0  0  0  0  0  0  0  0  0  0  0  0
  151.6871  143.2170  158.4977 C   0  0  0  0  0  0  0  0  0  0  0  0
  151.4573  144.6852  158.0999 C   0  0  0  0  0  0  0  0  0  0  0  0
  151.0750  145.4381  159.2461 O   0  0  0  0  0  0  0  0  0  0  0  0
  152.0898  145.4322  160.2448 C   0  0  0  0  0  0  0  0  0  0  0  0
  152.3488  143.9909  160.7177 C   0  0  0  0  0  0  0  0  0  0  0  0
  152.6324  140.6518  159.4192 C   0  0  0  0  0  0  0  0  0  0  0  0
  153.1164  139.4285  159.7203 N   0  0  0  0  0  0  0  0  0  0  0  0
  154.7964  136.8870  164.9575 H   0  0  0  0  0  0  0  0  0  0  0  0
  154.2313  137.6759  163.4827 H   0  0  0  0  0  0  0  0  0  0  0  0
  155.9570  137.3415  163.7027 H   0  0  0  0  0  0  0  0  0  0  0  0
  156.1707  136.0315  161.3389 H   0  0  0  0  0  0  0  0  0  0  0  0
  155.2158  134.6601  159.4630 H   0  0  0  0  0  0  0  0  0  0  0  0
  154.0018  134.0191  160.5699 H   0  0  0  0  0  0  0  0  0  0  0  0
  155.7077  133.6856  160.8408 H   0  0  0  0  0  0  0  0  0  0  0  0
  155.7071  138.1482  161.3098 H   0  0  0  0  0  0  0  0  0  0  0  0
  155.7036  140.3803  161.6821 H   0  0  0  0  0  0  0  0  0  0  0  0
  154.8245  142.6207  161.1235 H   0  0  0  0  0  0  0  0  0  0  0  0
  152.0366  142.6588  157.6284 H   0  0  0  0  0  0  0  0  0  0  0  0
  150.7461  142.7696  158.8213 H   0  0  0  0  0  0  0  0  0  0  0  0
  152.3564  145.1130  157.6530 H   0  0  0  0  0  0  0  0  0  0  0  0
  150.6674  144.7518  157.3516 H   0  0  0  0  0  0  0  0  0  0  0  0
  153.0033  145.8826  159.8531 H   0  0  0  0  0  0  0  0  0  0  0  0
  151.7658  146.0492  161.0830 H   0  0  0  0  0  0  0  0  0  0  0  0
  151.4627  143.5997  161.2196 H   0  0  0  0  0  0  0  0  0  0  0  0
  153.1518  143.9984  161.4535 H   0  0  0  0  0  0  0  0  0  0  0  0
  151.7603  140.6428  158.7828 H   0  0  0  0  0  0  0  0  0  0  0  0
  1  2  1  0  0  0  0
  1 20  1  0  0  0  0
  1 21  1  0  0  0  0
  1 22  1  0  0  0  0
  2  3  1  0  0  0  0
  3  4  1  0  0  0  0
  3  5  1  0  0  0  0
  3 23  1  0  0  0  0
  4 24  1  0  0  0  0
  4 25  1  0  0  0  0
  4 26  1  0  0  0  0
  5  6  2  0  0  0  0
  5  7  1  0  0  0  0
  7  8  1  0  0  0  0
  7 27  1  0  0  0  0
  8 19  1  0  0  0  0
  8  9  2  0  0  0  0
  9 10  1  0  0  0  0
  9 28  1  0  0  0  0
 10 11  2  0  0  0  0
 10 29  1  0  0  0  0
 11 12  1  0  0  0  0
 11 18  1  0  0  0  0
 12 17  1  0  0  0  0
 12 13  1  0  0  0  0
 13 14  1  0  0  0  0
 13 30  1  0  0  0  0
 13 31  1  0  0  0  0
 14 15  1  0  0  0  0
 14 32  1  0  0  0  0
 14 33  1  0  0  0  0
 15 16  1  0  0  0  0
 16 17  1  0  0  0  0
 16 34  1  0  0  0  0
 16 35  1  0  0  0  0
 17 36  1  0  0  0  0
 17 37  1  0  0  0  0
 18 19  2  0  0  0  0
 18 38  1  0  0  0  0
M  END
> <s_m_source_file>
AV-unprocessed.smi

> <i_m_source_file_index>
2166

> <i_lp_mmshare_version>
43012

> <i_f3d_flags>
0

> <s_epik_input>
W0NIM11TW0NASF0oW0NIM10pQyg9TylbTkhdYzFbY0hdW2NIXWMoW2NIXW4xKU4yW0NIMl1bQ0gyXU9bQ0gyXVtDSDJdMg==

> <s_epik_cmdline>
J2VwaWtfcHl0aG9uJywgJy1waCcsICc3LjAnLCAnLXRuJywgJzgnLCAnLW1hJywgJzIwMCcsICctbWV0YWxfYmluZGluZycsICctaW1hZScsICc8aW5maWxlLm1hZT4nLCAnLW9tYWUnLCAnPG91dGZpbGUubWFlPic=

> <r_lp_tautomer_probability>
1

> <r_epik_Ionization_Penalty>
0.0038652

> <r_epik_Ionization_Penalty_Charging>
0

> <r_epik_Ionization_Penalty_Neutral>
0.0038652

> <r_epik_State_Penalty>
0.00681294

> <r_epik_Charging_Adjusted_Penalty>
0.00681294

> <i_epik_Tot_Q>
0

> <i_epik_Tot_abs_Q>
0

> <r_epik_Metal_State_Penalty>
-0

> <b_epik_Metal_Only>
0

> <s_lp_Force_Field>
OPLS_2005

> <r_lp_Energy>
24.7489

> <b_lp_Chiralities_Consistent>
1

> <s_lp_Variant>
AV-unprocessed.smi:2166-2

> <Gold.Version>
5.8.1

> <Gold.Id.Protein>
6NUR|6NUR_protein|mol2

> <Gold.PLP.Fitness>
43.4440

> <Gold.PLP.PLP>
-41.9071

> <Gold.PLP.part.hbond>
-1.3222

> <Gold.PLP.part.metal>
0.0000

> <Gold.PLP.part.buried>
-5.3161

> <Gold.PLP.part.nonpolar>
-34.8416

> <Gold.PLP.part.repulsive>
0.1516

> <Gold.PLP.ligand.clash>
0.0000

> <Gold.PLP.ligand.torsion>
0.9188

> <Gold.PLP.Chemscore.Hbond>
1.0000

> <Gold.PLP.Chemscore.CHOScore>
0.0000

> <Gold.PLP.Chemscore.Metal>
0.0000

> <Gold.Chemscore.Hbonds>
donor molecule, donor type, donor heavy atom, donor atom, acceptor molecule, acceptor atom, score
      P1  H  6896  6907       L1     6  1.00

> <Gold.PLP.Chemscore.Internal.Correction>
0.3746

> <Gold.Rescore>
     Score         DG    S(hbond)    S(metal)    S(lipo)     H(rot)  DE(clash)    DE(int)     intcor
     17.01     -18.74       0.99        0.00     113.83       1.31       0.02       1.72       ----

> <Gold.Chemscore.Fitness>
17.0051

> <Gold.Chemscore.DG>
-18.7368

> <Gold.Chemscore.ZeroCoef>
-5.4800

> <Gold.Chemscore.Hbond>
0.9860

> <Gold.Chemscore.Metal>
0.0000

> <Gold.Chemscore.Lipo>
113.8322

> <Gold.Chemscore.Internal_Hbond>
0.0000

> <Gold.Chemscore.DEClash>
0.0158

> <Gold.Chemscore.DEInternal>
1.7159

> <Gold.Chemscore.Rot>
1.3105

> <Gold.Chemscore.Internal.Correction>
   9.000000E+99

> <Gold.Chemscore.Hbonds>
donor molecule, donor type, donor heavy atom, donor atom, acceptor molecule, acceptor atom, score
      P1  H  6896  6907       L1     6  1.00

> <Gold.Chemscore.Hbond.Weighted>
-3.2933

> <Gold.Chemscore.Metal.Weighted>
-0.0000

> <Gold.Chemscore.Lipo.Weighted>
-13.3184

> <Gold.Chemscore.Internal_Hbond.Weighted>
0.0000

> <Gold.Chemscore.DEClash.Weighted>
0.0158

> <Gold.Chemscore.DEInternal.Weighted>
1.7159

> <Gold.Chemscore.Rot.Weighted>
3.3549

> <Gold.Chemscore.Internal.Correction.Weighted>
   9.000000E+99

> <Gold.Protein.RotatedTorsions>
[ 6907 6896 6895 6894 ] final   31.39 input  -60.11 | X-H torsion
[ 7974 7965 7964 7962 ] final  -69.51 input  175.53 | X-H torsion
[ 8008 7997 7996 7995 ] final   57.24 input   59.86 | X-H torsion
[ 10167 10162 10161 10158 ] final  -38.92 input  -65.29 | X-H torsion
[ 10718 10713 10712 10709 ] final   80.23 input   66.30 | X-H torsion
[ 10763 10752 10751 10750 ] final -137.54 input  -60.55 | X-H torsion
[ 11005 11000 10999 10996 ] final -138.28 input  -57.11 | X-H torsion

> <Gold.Protein.ActiveResidues>
 VAL166  LYS551  ARG553  GLY616  TRP617  ASP618  TYR619  PRO620  LYS621  CYS622 
 ASP623  PHE694  ASN695  SER759  ASP760  ASP761  ALA762  ILE779  LEU786  VAL792 
 PHE793  MET794  SER795  GLU796  ALA797  LYS798  CYS799  TRP800  GLU811  SER814 

> <Gold.Protein.RotatedAtoms>
  152.0597  134.9602  160.0574 H   0  0  0  0  0  0  0  0  0  0  0  0  # atno 6907 bound_to 6896
  152.0970  133.4225  159.4578 H   0  0  0  0  0  0  0  0  0  0  0  0  # atno 6908 bound_to 6896
  150.6838  134.2724  159.4637 H   0  0  0  0  0  0  0  0  0  0  0  0  # atno 6909 bound_to 6896
  145.7029  140.9109  143.0722 H   0  0  0  0  0  0  0  0  0  0  0  0  # atno 7974 bound_to 7965
  155.5306  140.3482  155.4425 H   0  0  0  0  0  0  0  0  0  0  0  0  # atno 8008 bound_to 7997
  156.0721  140.1365  156.9843 H   0  0  0  0  0  0  0  0  0  0  0  0  # atno 8009 bound_to 7997
  154.4533  140.0963  156.6659 H   0  0  0  0  0  0  0  0  0  0  0  0  # atno 8010 bound_to 7997
  140.7078  143.3246  151.2710 H   0  0  0  0  0  0  0  0  0  0  0  0  # atno 10167 bound_to 10162
  157.6800  130.9950  150.2048 H   0  0  0  0  0  0  0  0  0  0  0  0  # atno 10718 bound_to 10713
  154.8659  135.3639  154.5240 H   0  0  0  0  0  0  0  0  0  0  0  0  # atno 10763 bound_to 10752
  153.5869  135.7016  153.5444 H   0  0  0  0  0  0  0  0  0  0  0  0  # atno 10764 bound_to 10752
  153.3408  135.4098  155.1532 H   0  0  0  0  0  0  0  0  0  0  0  0  # atno 10765 bound_to 10752
  140.8631  134.2144  157.4696 H   0  0  0  0  0  0  0  0  0  0  0  0  # atno 11005 bound_to 11000
  144.6963  139.8971  143.7456 LP  0  0  0  0  0  0  0  0  0  0  0  0  # atno 17320 bound_to 7965
  146.0782  139.3770  143.0481 LP  0  0  0  0  0  0  0  0  0  0  0  0  # atno 17321 bound_to 7965
  139.6711  144.0019  152.2753 LP  0  0  0  0  0  0  0  0  0  0  0  0  # atno 17342 bound_to 10162
  139.9618  144.6553  150.8072 LP  0  0  0  0  0  0  0  0  0  0  0  0  # atno 17343 bound_to 10162
  156.2731  130.3724  149.8011 LP  0  0  0  0  0  0  0  0  0  0  0  0  # atno 17370 bound_to 10713
  156.5722  130.8429  151.3359 LP  0  0  0  0  0  0  0  0  0  0  0  0  # atno 17371 bound_to 10713
  139.8708  134.9739  156.4825 LP  0  0  0  0  0  0  0  0  0  0  0  0  # atno 17394 bound_to 11000
  140.8660  133.8024  155.9315 LP  0  0  0  0  0  0  0  0  0  0  0  0  # atno 17395 bound_to 11000

$$$$
