AV-unprocessed.smi:1943|AV-procd|sdf|7852|dock4
  -GOLD-   22720 9593D 1   1.00000     0.00000
 Structure written by MMmdl.
 47 48  0  0  0  0  0  0  0  0  3 V2000
  143.3610  133.8668  151.8096 C   0  0  0  0  0  0  0  0  0  0  0  0
  143.3673  134.3021  153.2375 N   0  3  0  0  0  0  0  0  0  0  0  0
  142.1415  135.0964  153.5155 C   0  0  0  0  0  0  0  0  0  0  0  0
  144.6699  134.8738  153.7620 C   0  0  0  0  0  0  0  0  0  0  0  0
  144.8117  136.3676  153.3465 C   0  0  0  0  0  0  0  0  0  0  0  0
  144.7198  134.8279  155.3236 C   0  0  0  0  0  0  0  0  0  0  0  0
  145.8405  133.9916  153.1932 C   0  0  0  0  0  0  0  0  0  0  0  0
  147.1275  134.3374  153.7913 N   0  5  0  0  0  0  0  0  0  0  0  0
  147.9769  133.4264  154.3423 C   0  0  0  0  0  0  0  0  0  0  0  0
  147.9077  132.1926  154.3698 O   0  0  0  0  0  0  0  0  0  0  0  0
  149.1979  134.0768  154.9282 C   0  0  0  0  0  0  0  0  0  0  0  0
  149.3517  135.3976  154.6768 N   0  0  0  0  0  0  0  0  0  0  0  0
  150.4195  136.0261  155.1823 C   0  0  0  0  0  0  0  0  0  0  0  0
  150.5491  137.3961  154.9182 N   0  0  0  0  0  0  0  0  0  0  0  0
  151.8599  138.0410  154.8018 C   0  0  0  0  0  0  0  0  0  0  0  0
  151.7931  139.5059  155.2652 C   0  0  0  0  0  0  0  0  0  0  0  0
  150.7820  140.1957  154.5406 O   0  0  0  0  0  0  0  0  0  0  0  0
  149.4977  139.6294  154.7701 C   0  0  0  0  0  0  0  0  0  0  0  0
  149.4767  138.1694  154.2871 C   0  0  0  0  0  0  0  0  0  0  0  0
  151.3717  135.4422  155.9208 N   0  0  0  0  0  0  0  0  0  0  0  0
  151.2496  134.1220  156.1713 C   0  0  0  0  0  0  0  0  0  0  0  0
  150.1646  133.3667  155.6879 C   0  0  0  0  0  0  0  0  0  0  0  0
  150.0886  131.6661  156.0037 Cl  0  0  0  0  0  0  0  0  0  0  0  0
  143.3578  134.7229  151.1338 H   0  0  0  0  0  0  0  0  0  0  0  0
  142.4650  133.2820  151.5993 H   0  0  0  0  0  0  0  0  0  0  0  0
  144.2108  133.2352  151.5524 H   0  0  0  0  0  0  0  0  0  0  0  0
  142.2169  136.0972  153.0888 H   0  0  0  0  0  0  0  0  0  0  0  0
  141.9412  135.1801  154.5836 H   0  0  0  0  0  0  0  0  0  0  0  0
  141.2637  134.6165  153.0815 H   0  0  0  0  0  0  0  0  0  0  0  0
  145.6791  136.8419  153.8098 H   0  0  0  0  0  0  0  0  0  0  0  0
  143.9432  136.9435  153.6672 H   0  0  0  0  0  0  0  0  0  0  0  0
  144.9138  136.5117  152.2692 H   0  0  0  0  0  0  0  0  0  0  0  0
  145.6600  135.2074  155.7294 H   0  0  0  0  0  0  0  0  0  0  0  0
  144.5836  133.8203  155.7226 H   0  0  0  0  0  0  0  0  0  0  0  0
  143.9529  135.4606  155.7711 H   0  0  0  0  0  0  0  0  0  0  0  0
  145.5932  132.9420  153.3589 H   0  0  0  0  0  0  0  0  0  0  0  0
  145.8809  134.1068  152.1099 H   0  0  0  0  0  0  0  0  0  0  0  0
  152.6231  137.5332  155.3908 H   0  0  0  0  0  0  0  0  0  0  0  0
  152.1809  137.9918  153.7608 H   0  0  0  0  0  0  0  0  0  0  0  0
  151.5951  139.5657  156.3367 H   0  0  0  0  0  0  0  0  0  0  0  0
  152.7509  139.9967  155.0917 H   0  0  0  0  0  0  0  0  0  0  0  0
  149.2434  139.6922  155.8295 H   0  0  0  0  0  0  0  0  0  0  0  0
  148.7521  140.2131  154.2301 H   0  0  0  0  0  0  0  0  0  0  0  0
  149.6099  138.1304  153.2055 H   0  0  0  0  0  0  0  0  0  0  0  0
  148.4916  137.7549  154.4993 H   0  0  0  0  0  0  0  0  0  0  0  0
  152.0328  133.6626  156.7561 H   0  0  0  0  0  0  0  0  0  0  0  0
  143.2434  133.4539  153.7724 H   0  0  0  0  0  0  0  0  0  0  0  0
  1  2  1  0  0  0  0
  1 24  1  0  0  0  0
  1 25  1  0  0  0  0
  1 26  1  0  0  0  0
  2  3  1  0  0  0  0
  2  4  1  0  0  0  0
  2 47  1  0  0  0  0
  3 27  1  0  0  0  0
  3 28  1  0  0  0  0
  3 29  1  0  0  0  0
  4  5  1  0  0  0  0
  4  6  1  0  0  0  0
  4  7  1  0  0  0  0
  5 30  1  0  0  0  0
  5 31  1  0  0  0  0
  5 32  1  0  0  0  0
  6 33  1  0  0  0  0
  6 34  1  0  0  0  0
  6 35  1  0  0  0  0
  7  8  1  0  0  0  0
  7 36  1  0  0  0  0
  7 37  1  0  0  0  0
  8  9  1  0  0  0  0
  9 10  2  0  0  0  0
  9 11  1  0  0  0  0
 11 22  1  0  0  0  0
 11 12  2  0  0  0  0
 12 13  1  0  0  0  0
 13 14  1  0  0  0  0
 13 20  2  0  0  0  0
 14 19  1  0  0  0  0
 14 15  1  0  0  0  0
 15 16  1  0  0  0  0
 15 38  1  0  0  0  0
 15 39  1  0  0  0  0
 16 17  1  0  0  0  0
 16 40  1  0  0  0  0
 16 41  1  0  0  0  0
 17 18  1  0  0  0  0
 18 19  1  0  0  0  0
 18 42  1  0  0  0  0
 18 43  1  0  0  0  0
 19 44  1  0  0  0  0
 19 45  1  0  0  0  0
 20 21  1  0  0  0  0
 21 22  2  0  0  0  0
 21 46  1  0  0  0  0
 22 23  1  0  0  0  0
M  CHG  1   2   1
M  CHG  1   8  -1
M  END
> <s_m_source_file>
AV-unprocessed.smi

> <i_m_source_file_index>
1943

> <i_lp_mmshare_version>
43012

> <i_f3d_flags>
0

> <s_epik_input>
W0NIM11OKFtDSDNdKUMoW0NIM10pKFtDSDNdKVtDSDJdW05IXUMoPU8pYzFuYyhuW2NIXWMxQ2wpTjJbQ0gyXVtDSDJdT1tDSDJdW0NIMl0y

> <s_epik_cmdline>
J2VwaWtfcHl0aG9uJywgJy1waCcsICc3LjAnLCAnLXRuJywgJzgnLCAnLW1hJywgJzIwMCcsICctbWV0YWxfYmluZGluZycsICctaW1hZScsICc8aW5maWxlLm1hZT4nLCAnLW9tYWUnLCAnPG91dGZpbGUubWFlPic=

> <r_lp_tautomer_probability>
1

> <r_epik_Ionization_Penalty>
4.9942

> <r_epik_Ionization_Penalty_Charging>
4.9942

> <r_epik_Ionization_Penalty_Neutral>
6.27513e-06

> <r_epik_State_Penalty>
4.99795

> <r_epik_Charging_Adjusted_Penalty>
9.99215

> <i_epik_Tot_Q>
0

> <i_epik_Tot_abs_Q>
2

> <r_epik_Metal_State_Penalty>
1.11486

> <b_epik_Metal_Only>
1

> <s_lp_Force_Field>
OPLS_2005

> <r_lp_Energy>
33.8194

> <b_lp_Chiralities_Consistent>
1

> <s_lp_Variant>
AV-unprocessed.smi:1943-2

> <Gold.Version>
5.8.1

> <Gold.Id.Protein>
6NUR|6NUR_protein|mol2

> <Gold.PLP.Fitness>
42.4314

> <Gold.PLP.PLP>
-31.5183

> <Gold.PLP.part.hbond>
-3.0000

> <Gold.PLP.part.metal>
0.0000

> <Gold.PLP.part.buried>
-4.8857

> <Gold.PLP.part.nonpolar>
-25.4752

> <Gold.PLP.part.repulsive>
1.5841

> <Gold.PLP.ligand.clash>
0.0000

> <Gold.PLP.ligand.torsion>
0.6838

> <Gold.PLP.Chemscore.Hbond>
4.0000

> <Gold.PLP.Chemscore.CHOScore>
0.0000

> <Gold.PLP.Chemscore.Metal>
0.0000

> <Gold.Chemscore.Hbonds>
donor molecule, donor type, donor heavy atom, donor atom, acceptor molecule, acceptor atom, score
      L1  H     2    47       P1 10957  1.92
      P1  H  7989  7998       L1    17  0.93
      P1  H 10752 10764       L1    20  1.00

> <Gold.PLP.Chemscore.Internal.Correction>
0.2807

> <Gold.Rescore>
     Score         DG    S(hbond)    S(metal)    S(lipo)     H(rot)  DE(clash)    DE(int)     intcor
     14.45     -16.49       2.03        0.00      66.93       1.41       0.08       1.96       ----

> <Gold.Chemscore.Fitness>
14.4477

> <Gold.Chemscore.DG>
-16.4876

> <Gold.Chemscore.ZeroCoef>
-5.4800

> <Gold.Chemscore.Hbond>
2.0289

> <Gold.Chemscore.Metal>
0.0000

> <Gold.Chemscore.Lipo>
66.9291

> <Gold.Chemscore.Internal_Hbond>
0.0000

> <Gold.Chemscore.DEClash>
0.0779

> <Gold.Chemscore.DEInternal>
1.9620

> <Gold.Chemscore.Rot>
1.4060

> <Gold.Chemscore.Internal.Correction>
   9.000000E+99

> <Gold.Chemscore.Hbonds>
donor molecule, donor type, donor heavy atom, donor atom, acceptor molecule, acceptor atom, score
      L1  H     2    47       P1 10957  0.90
      P1  H  7989  7998       L1    17  0.23
      P1  H 10752 10764       L1    20  0.19

> <Gold.Chemscore.Hbond.Weighted>
-6.7764

> <Gold.Chemscore.Metal.Weighted>
-0.0000

> <Gold.Chemscore.Lipo.Weighted>
-7.8307

> <Gold.Chemscore.Internal_Hbond.Weighted>
0.0000

> <Gold.Chemscore.DEClash.Weighted>
0.0779

> <Gold.Chemscore.DEInternal.Weighted>
1.9620

> <Gold.Chemscore.Rot.Weighted>
3.5994

> <Gold.Chemscore.Internal.Correction.Weighted>
   9.000000E+99

> <Gold.Protein.RotatedTorsions>
[ 6907 6896 6895 6894 ] final  -19.41 input  -60.11 | X-H torsion
[ 7974 7965 7964 7962 ] final -153.10 input  175.53 | X-H torsion
[ 8008 7997 7996 7995 ] final    4.66 input   59.86 | X-H torsion
[ 10167 10162 10161 10158 ] final    8.58 input  -65.29 | X-H torsion
[ 10718 10713 10712 10709 ] final   59.74 input   66.30 | X-H torsion
[ 10763 10752 10751 10750 ] final  -41.45 input  -60.55 | X-H torsion
[ 11005 11000 10999 10996 ] final   86.18 input  -57.11 | X-H torsion

> <Gold.Protein.ActiveResidues>
 VAL166  LYS551  ARG553  GLY616  TRP617  ASP618  TYR619  PRO620  LYS621  CYS622 
 ASP623  PHE694  ASN695  SER759  ASP760  ASP761  ALA762  ILE779  LEU786  VAL792 
 PHE793  MET794  SER795  GLU796  ALA797  LYS798  CYS799  TRP800  GLU811  SER814 

> <Gold.Protein.RotatedAtoms>
  151.2636  135.0662  159.9107 H   0  0  0  0  0  0  0  0  0  0  0  0  # atno 6907 bound_to 6896
  152.5362  134.0205  159.7990 H   0  0  0  0  0  0  0  0  0  0  0  0  # atno 6908 bound_to 6896
  151.0432  133.5638  159.2680 H   0  0  0  0  0  0  0  0  0  0  0  0  # atno 6909 bound_to 6896
  144.7758  140.4572  143.5874 H   0  0  0  0  0  0  0  0  0  0  0  0  # atno 7974 bound_to 7965
  154.7187  140.2707  155.6561 H   0  0  0  0  0  0  0  0  0  0  0  0  # atno 8008 bound_to 7997
  156.2817  140.2739  156.1777 H   0  0  0  0  0  0  0  0  0  0  0  0  # atno 8009 bound_to 7997
  155.0536  140.0371  157.2542 H   0  0  0  0  0  0  0  0  0  0  0  0  # atno 8010 bound_to 7997
  140.6305  143.8003  150.7290 H   0  0  0  0  0  0  0  0  0  0  0  0  # atno 10167 bound_to 10162
  157.5699  130.8899  149.9249 H   0  0  0  0  0  0  0  0  0  0  0  0  # atno 10718 bound_to 10713
  153.9628  135.6737  153.4745 H   0  0  0  0  0  0  0  0  0  0  0  0  # atno 10763 bound_to 10752
  153.0830  135.4913  154.8537 H   0  0  0  0  0  0  0  0  0  0  0  0  # atno 10764 bound_to 10752
  154.7263  135.3128  154.8925 H   0  0  0  0  0  0  0  0  0  0  0  0  # atno 10765 bound_to 10752
  139.8951  134.8337  156.2684 H   0  0  0  0  0  0  0  0  0  0  0  0  # atno 11005 bound_to 11000
  145.6189  139.1522  143.3033 LP  0  0  0  0  0  0  0  0  0  0  0  0  # atno 17320 bound_to 7965
  146.1937  140.6301  142.9134 LP  0  0  0  0  0  0  0  0  0  0  0  0  # atno 17321 bound_to 7965
  140.1613  143.4273  152.2065 LP  0  0  0  0  0  0  0  0  0  0  0  0  # atno 17342 bound_to 10162
  139.5520  144.7345  151.4406 LP  0  0  0  0  0  0  0  0  0  0  0  0  # atno 17343 bound_to 10162
  156.0745  130.3681  150.0707 LP  0  0  0  0  0  0  0  0  0  0  0  0  # atno 17370 bound_to 10713
  156.8861  130.9573  151.3594 LP  0  0  0  0  0  0  0  0  0  0  0  0  # atno 17371 bound_to 10713
  141.0117  133.7092  156.1122 LP  0  0  0  0  0  0  0  0  0  0  0  0  # atno 17394 bound_to 11000
  140.7359  134.4204  157.5560 LP  0  0  0  0  0  0  0  0  0  0  0  0  # atno 17395 bound_to 11000

$$$$
