AV-unprocessed.smi:100|AV-procd|sdf|907|dock2
  -GOLD-   2262017403D 1   1.00000     0.00000
 Structure written by MMmdl.
 31 33  0  0  0  0  0  0  0  0  1 V2000
  143.1923  138.8635  154.5222 N   0  0  0  0  0  0  0  0  0  0  0  0
  143.3143  137.6662  153.9322 C   0  0  0  0  0  0  0  0  0  0  0  0
  142.4216  136.6993  154.2489 N   0  0  0  0  0  0  0  0  0  0  0  0
  142.5215  135.4975  153.6717 C   0  0  0  0  0  0  0  0  0  0  0  0
  143.4169  135.0725  152.7769 N   0  0  0  0  0  0  0  0  0  0  0  0
  144.3192  136.0473  152.4606 C   0  0  0  0  0  0  0  0  0  0  0  0
  144.3333  137.3668  152.9927 C   0  0  0  0  0  0  0  0  0  0  0  0
  145.3861  138.0876  152.4458 N   0  0  0  0  0  0  0  0  0  0  0  0
  145.9599  137.2381  151.6369 C   0  0  0  0  0  0  0  0  0  0  0  0
  145.3872  135.9854  151.5870 N   0  0  0  0  0  0  0  0  0  0  0  0
  145.8308  134.8149  150.7632 C   0  0  2  0  0  0  0  0  0  0  0  0
  144.7086  134.0709  150.3995 O   0  0  0  0  0  0  0  0  0  0  0  0
  145.0518  132.6896  150.4150 C   0  0  2  0  0  0  0  0  0  0  0  0
  143.7937  131.8100  150.4888 C   0  0  0  0  0  0  0  0  0  0  0  0
  142.9994  132.0043  149.3377 O   0  0  0  0  0  0  0  0  0  0  0  0
  145.9675  132.5900  151.6379 C   0  0  2  0  0  0  0  0  0  0  0  0
  145.2278  132.5940  152.7494 F   0  0  0  0  0  0  0  0  0  0  0  0
  146.7880  133.8666  151.5168 C   0  0  2  0  0  0  0  0  0  0  0  0
  147.2655  134.3285  152.7684 O   0  0  0  0  0  0  0  0  0  0  0  0
  143.8460  139.6009  154.3017 H   0  0  0  0  0  0  0  0  0  0  0  0
  142.4464  139.0262  155.1828 H   0  0  0  0  0  0  0  0  0  0  0  0
  141.7786  134.7720  153.9685 H   0  0  0  0  0  0  0  0  0  0  0  0
  146.8284  137.5033  151.0518 H   0  0  0  0  0  0  0  0  0  0  0  0
  146.2899  135.2588  149.8785 H   0  0  0  0  0  0  0  0  0  0  0  0
  145.6337  132.4534  149.5217 H   0  0  0  0  0  0  0  0  0  0  0  0
  144.0734  130.7566  150.5182 H   0  0  0  0  0  0  0  0  0  0  0  0
  143.2156  132.0181  151.3900 H   0  0  0  0  0  0  0  0  0  0  0  0
  142.4770  132.7822  149.4606 H   0  0  0  0  0  0  0  0  0  0  0  0
  146.5762  131.6856  151.6506 H   0  0  0  0  0  0  0  0  0  0  0  0
  147.6431  133.6836  150.8648 H   0  0  0  0  0  0  0  0  0  0  0  0
  147.9795  134.9281  152.6155 H   0  0  0  0  0  0  0  0  0  0  0  0
  1  2  1  0  0  0  0
  1 20  1  0  0  0  0
  1 21  1  0  0  0  0
  2  7  1  0  0  0  0
  2  3  2  0  0  0  0
  3  4  1  0  0  0  0
  4  5  2  0  0  0  0
  4 22  1  0  0  0  0
  5  6  1  0  0  0  0
  6 10  1  0  0  0  0
  6  7  2  0  0  0  0
  7  8  1  0  0  0  0
  8  9  2  0  0  0  0
  9 10  1  0  0  0  0
  9 23  1  0  0  0  0
 10 11  1  0  0  0  0
 11 18  1  0  0  0  0
 11 12  1  0  0  0  0
 11 24  1  0  0  0  0
 12 13  1  0  0  0  0
 13 14  1  0  0  0  0
 13 16  1  0  0  0  0
 13 25  1  0  0  0  0
 14 15  1  0  0  0  0
 14 26  1  0  0  0  0
 14 27  1  0  0  0  0
 15 28  1  0  0  0  0
 16 17  1  0  0  0  0
 16 18  1  0  0  0  0
 16 29  1  0  0  0  0
 18 19  1  0  0  0  0
 18 30  1  0  0  0  0
 19 31  1  0  0  0  0
M  END
> <s_m_source_file>
AV-unprocessed.smi

> <i_m_source_file_index>
100

> <i_lp_mmshare_version>
43012

> <i_f3d_flags>
0

> <s_epik_input>
bjFbY0hdbmMoW05IMl0pYyhjMTIpbltjSF1uMltDQEBIXTNPW0NAQEhdKFtDSDJdW09IXSlbQ0BIXShGKVtDQEhdM1tPSF0=

> <s_epik_cmdline>
J2VwaWtfcHl0aG9uJywgJy1waCcsICc3LjAnLCAnLXRuJywgJzgnLCAnLW1hJywgJzIwMCcsICctbWV0YWxfYmluZGluZycsICctaW1hZScsICc8aW5maWxlLm1hZT4nLCAnLW9tYWUnLCAnPG91dGZpbGUubWFlPic=

> <r_lp_tautomer_probability>
1

> <r_epik_Ionization_Penalty>
0.000750324

> <r_epik_Ionization_Penalty_Charging>
0

> <r_epik_Ionization_Penalty_Neutral>
0.000750324

> <r_epik_State_Penalty>
-0

> <r_epik_Charging_Adjusted_Penalty>
0

> <i_epik_Tot_Q>
0

> <i_epik_Tot_abs_Q>
0

> <r_epik_Metal_State_Penalty>
-0

> <b_epik_Metal_Only>
0

> <s_epik_Chemistry_Notes>
This compound contains an acetal/aminal-like group ( X-CH(R)-Y where X, Y are N, S, or O) that may be acid/base labile, releasing an aldehyde.

> <s_lp_Force_Field>
OPLS_2005

> <r_lp_Energy>
39.5

> <b_lp_Chiralities_Consistent>
1

> <s_lp_Variant>
AV-unprocessed.smi:100-11

> <Gold.Version>
5.8.1

> <Gold.Id.Protein>
6NUR|6NUR_protein|mol2

> <Gold.PLP.Fitness>
36.3492

> <Gold.PLP.PLP>
-28.2473

> <Gold.PLP.part.hbond>
-4.8018

> <Gold.PLP.part.metal>
0.0000

> <Gold.PLP.part.buried>
-2.7316

> <Gold.PLP.part.nonpolar>
-21.6281

> <Gold.PLP.part.repulsive>
1.6450

> <Gold.PLP.ligand.clash>
0.0000

> <Gold.PLP.ligand.torsion>
0.7327

> <Gold.PLP.Chemscore.Hbond>
2.5252

> <Gold.PLP.Chemscore.CHOScore>
0.6615

> <Gold.PLP.Chemscore.Metal>
0.0000

> <Gold.Chemscore.Hbonds>
donor molecule, donor type, donor heavy atom, donor atom, acceptor molecule, acceptor atom, score
      L1  H     1    20       P1 10175  0.32
      L1  H    15    28       P1 10186  0.59
      L1  H    19    31       P1  7948  1.00
      P1  H 10785 10796       L1    15  0.70
      L1  C     9    23       P1  7948  0.60

> <Gold.PLP.Chemscore.Internal.Correction>
0.0072

> <Gold.Rescore>
     Score         DG    S(hbond)    S(metal)    S(lipo)     H(rot)  DE(clash)    DE(int)     intcor
      4.85      -8.34       2.18        0.00      32.05       3.19       0.49       3.00       ----

> <Gold.Chemscore.Fitness>
4.8488

> <Gold.Chemscore.DG>
-8.3422

> <Gold.Chemscore.ZeroCoef>
-5.4800

> <Gold.Chemscore.Hbond>
2.1794

> <Gold.Chemscore.Metal>
0.0000

> <Gold.Chemscore.Lipo>
32.0478

> <Gold.Chemscore.Internal_Hbond>
0.0000

> <Gold.Chemscore.DEClash>
0.4918

> <Gold.Chemscore.DEInternal>
3.0016

> <Gold.Chemscore.Rot>
3.1901

> <Gold.Chemscore.Internal.Correction>
   9.000000E+99

> <Gold.Chemscore.Hbonds>
donor molecule, donor type, donor heavy atom, donor atom, acceptor molecule, acceptor atom, score
      L1  H     1    20       P1 10175  0.31
      L1  H    15    28       P1 10186  0.58
      L1  H    19    31       P1  7948  0.88
      P1  H 10785 10796       L1    15  0.07

> <Gold.Chemscore.Hbond.Weighted>
-7.2793

> <Gold.Chemscore.Metal.Weighted>
-0.0000

> <Gold.Chemscore.Lipo.Weighted>
-3.7496

> <Gold.Chemscore.Internal_Hbond.Weighted>
0.0000

> <Gold.Chemscore.DEClash.Weighted>
0.4918

> <Gold.Chemscore.DEInternal.Weighted>
3.0016

> <Gold.Chemscore.Rot.Weighted>
8.1667

> <Gold.Chemscore.Internal.Correction.Weighted>
   9.000000E+99

> <Gold.Protein.RotatedTorsions>
[ 6907 6896 6895 6894 ] final   65.05 input  -60.11 | X-H torsion
[ 7974 7965 7964 7962 ] final -156.21 input  175.53 | X-H torsion
[ 8008 7997 7996 7995 ] final  -36.67 input   59.86 | X-H torsion
[ 10167 10162 10161 10158 ] final -121.36 input  -65.29 | X-H torsion
[ 10718 10713 10712 10709 ] final -156.02 input   66.30 | X-H torsion
[ 10763 10752 10751 10750 ] final  -77.99 input  -60.55 | X-H torsion
[ 11005 11000 10999 10996 ] final  108.08 input  -57.11 | X-H torsion

> <Gold.Protein.ActiveResidues>
 VAL166  LYS551  ARG553  GLY616  TRP617  ASP618  TYR619  PRO620  LYS621  CYS622 
 ASP623  PHE694  ASN695  SER759  ASP760  ASP761  ALA762  ILE779  LEU786  VAL792 
 PHE793  MET794  SER795  GLU796  ALA797  LYS798  CYS799  TRP800  GLU811  SER814 

> <Gold.Protein.RotatedAtoms>
  152.4378  134.5651  159.9905 H   0  0  0  0  0  0  0  0  0  0  0  0  # atno 6907 bound_to 6896
  151.5756  133.3378  159.3006 H   0  0  0  0  0  0  0  0  0  0  0  0  # atno 6908 bound_to 6896
  150.8279  134.7553  159.6893 H   0  0  0  0  0  0  0  0  0  0  0  0  # atno 6909 bound_to 6896
  144.7604  140.4142  143.5981 H   0  0  0  0  0  0  0  0  0  0  0  0  # atno 7974 bound_to 7965
  154.4068  140.1624  156.2412 H   0  0  0  0  0  0  0  0  0  0  0  0  # atno 8008 bound_to 7997
  155.9199  140.3422  155.6142 H   0  0  0  0  0  0  0  0  0  0  0  0  # atno 8009 bound_to 7997
  155.7234  140.0771  157.2311 H   0  0  0  0  0  0  0  0  0  0  0  0  # atno 8010 bound_to 7997
  140.0259  143.5297  152.2199 H   0  0  0  0  0  0  0  0  0  0  0  0  # atno 10167 bound_to 10162
  156.5208  130.8477  151.2681 H   0  0  0  0  0  0  0  0  0  0  0  0  # atno 10718 bound_to 10713
  154.5201  135.5745  153.6674 H   0  0  0  0  0  0  0  0  0  0  0  0  # atno 10763 bound_to 10752
  152.9915  135.6180  154.2765 H   0  0  0  0  0  0  0  0  0  0  0  0  # atno 10764 bound_to 10752
  154.2685  135.2854  155.2728 H   0  0  0  0  0  0  0  0  0  0  0  0  # atno 10765 bound_to 10752
  139.8838  134.9420  156.5918 H   0  0  0  0  0  0  0  0  0  0  0  0  # atno 11005 bound_to 11000
  145.6639  139.1586  143.2792 LP  0  0  0  0  0  0  0  0  0  0  0  0  # atno 17320 bound_to 7965
  146.1660  140.6717  142.9255 LP  0  0  0  0  0  0  0  0  0  0  0  0  # atno 17321 bound_to 7965
  139.6108  144.7608  151.2956 LP  0  0  0  0  0  0  0  0  0  0  0  0  # atno 17342 bound_to 10162
  140.7323  143.6828  150.7987 LP  0  0  0  0  0  0  0  0  0  0  0  0  # atno 17343 bound_to 10162
  157.7437  130.9918  150.2614 LP  0  0  0  0  0  0  0  0  0  0  0  0  # atno 17370 bound_to 10713
  156.3152  130.3777  149.7625 LP  0  0  0  0  0  0  0  0  0  0  0  0  # atno 17371 bound_to 10713
  140.7950  133.8551  155.8678 LP  0  0  0  0  0  0  0  0  0  0  0  0  # atno 17394 bound_to 11000
  140.9644  134.1614  157.4628 LP  0  0  0  0  0  0  0  0  0  0  0  0  # atno 17395 bound_to 11000

$$$$
