AV-unprocessed.smi:1241|AV-procd|sdf|5215|dock2
  -GOLD-   22720 4313D 1   1.00000     0.00000
 Structure written by MMmdl.
 38 39  0  0  0  0  0  0  0  0  1 V2000
  149.8341  141.3996  156.0159 C   0  0  0  0  0  0  0  0  0  0  0  0
  148.1097  141.0869  156.5749 S   0  0  0  0  0  0  0  0  0  0  0  0
  148.0674  139.7624  157.2136 O   0  0  0  0  0  0  0  0  0  0  0  0
  147.6455  142.2692  157.3169 O   0  0  0  0  0  0  0  0  0  0  0  0
  147.1967  140.9938  155.0963 N   0  0  0  0  0  0  0  0  0  0  0  0
  147.8878  141.0878  153.7942 C   0  0  0  0  0  0  0  0  0  0  0  0
  148.0646  139.7065  153.1389 C   0  0  0  0  0  0  0  0  0  0  0  0
  146.7248  138.9592  153.0327 C   0  0  0  0  0  0  0  0  0  0  0  0
  146.9175  137.6224  152.4771 N   0  0  0  0  0  0  0  0  0  0  0  0
  145.9316  136.7750  152.1469 C   0  0  0  0  0  0  0  0  0  0  0  0
  144.7365  137.0427  152.2756 O   0  0  0  0  0  0  0  0  0  0  0  0
  146.4226  135.6212  151.6605 N   0  0  0  0  0  0  0  0  0  0  0  0
  145.7036  134.4701  151.2401 C   0  0  0  0  0  0  0  0  0  0  0  0
  146.5022  133.4022  150.7714 C   0  0  0  0  0  0  0  0  0  0  0  0
  145.8842  132.2132  150.3376 C   0  0  0  0  0  0  0  0  0  0  0  0
  144.4817  132.1220  150.3850 C   0  0  0  0  0  0  0  0  0  0  0  0
  143.7609  133.2310  150.8652 C   0  0  0  0  0  0  0  0  0  0  0  0
  144.3512  134.3716  151.2805 N   0  0  0  0  0  0  0  0  0  0  0  0
  146.0882  138.8605  154.4264 C   0  0  0  0  0  0  0  0  0  0  0  0
  145.9209  140.2508  155.0645 C   0  0  0  0  0  0  0  0  0  0  0  0
  150.4793  141.4914  156.8893 H   0  0  0  0  0  0  0  0  0  0  0  0
  149.8777  142.3258  155.4460 H   0  0  0  0  0  0  0  0  0  0  0  0
  150.1826  140.5684  155.4053 H   0  0  0  0  0  0  0  0  0  0  0  0
  147.2972  141.7279  153.1377 H   0  0  0  0  0  0  0  0  0  0  0  0
  148.8543  141.5776  153.9104 H   0  0  0  0  0  0  0  0  0  0  0  0
  148.5025  139.8323  152.1479 H   0  0  0  0  0  0  0  0  0  0  0  0
  148.7768  139.1121  153.7103 H   0  0  0  0  0  0  0  0  0  0  0  0
  146.0498  139.5242  152.3869 H   0  0  0  0  0  0  0  0  0  0  0  0
  147.8708  137.3216  152.3367 H   0  0  0  0  0  0  0  0  0  0  0  0
  147.4271  135.5538  151.5919 H   0  0  0  0  0  0  0  0  0  0  0  0
  147.5788  133.4883  150.7429 H   0  0  0  0  0  0  0  0  0  0  0  0
  146.4767  131.3858  149.9762 H   0  0  0  0  0  0  0  0  0  0  0  0
  143.9717  131.2265  150.0621 H   0  0  0  0  0  0  0  0  0  0  0  0
  142.6827  133.2016  150.9193 H   0  0  0  0  0  0  0  0  0  0  0  0
  145.1142  138.3749  154.3568 H   0  0  0  0  0  0  0  0  0  0  0  0
  146.6978  138.2272  155.0701 H   0  0  0  0  0  0  0  0  0  0  0  0
  145.5090  140.1594  156.0690 H   0  0  0  0  0  0  0  0  0  0  0  0
  145.1994  140.8313  154.4885 H   0  0  0  0  0  0  0  0  0  0  0  0
  1  2  1  0  0  0  0
  1 21  1  0  0  0  0
  1 22  1  0  0  0  0
  1 23  1  0  0  0  0
  2  3  2  0  0  0  0
  2  4  2  0  0  0  0
  2  5  1  0  0  0  0
  5 20  1  0  0  0  0
  5  6  1  0  0  0  0
  6  7  1  0  0  0  0
  6 24  1  0  0  0  0
  6 25  1  0  0  0  0
  7  8  1  0  0  0  0
  7 26  1  0  0  0  0
  7 27  1  0  0  0  0
  8  9  1  0  0  0  0
  8 19  1  0  0  0  0
  8 28  1  0  0  0  0
  9 10  1  0  0  0  0
  9 29  1  0  0  0  0
 10 11  2  0  0  0  0
 10 12  1  0  0  0  0
 12 13  1  0  0  0  0
 12 30  1  0  0  0  0
 13 18  1  0  0  0  0
 13 14  2  0  0  0  0
 14 15  1  0  0  0  0
 14 31  1  0  0  0  0
 15 16  2  0  0  0  0
 15 32  1  0  0  0  0
 16 17  1  0  0  0  0
 16 33  1  0  0  0  0
 17 18  2  0  0  0  0
 17 34  1  0  0  0  0
 19 20  1  0  0  0  0
 19 35  1  0  0  0  0
 19 36  1  0  0  0  0
 20 37  1  0  0  0  0
 20 38  1  0  0  0  0
M  END
> <s_m_source_file>
AV-unprocessed.smi

> <i_m_source_file_index>
1241

> <i_lp_mmshare_version>
43012

> <i_f3d_flags>
0

> <s_epik_input>
W0NIM11TKD1PKSg9TylOMVtDSDJdW0NIMl1bQ0hdKFtDSDJdW0NIMl0xKVtOSF1DKD1PKVtOSF1jMltjSF1bY0hdW2NIXVtjSF1uMg==

> <s_epik_cmdline>
J2VwaWtfcHl0aG9uJywgJy1waCcsICc3LjAnLCAnLXRuJywgJzgnLCAnLW1hJywgJzIwMCcsICctbWV0YWxfYmluZGluZycsICctaW1hZScsICc8aW5maWxlLm1hZT4nLCAnLW9tYWUnLCAnPG91dGZpbGUubWFlPic=

> <r_lp_tautomer_probability>
1

> <r_epik_Ionization_Penalty>
4.62702e-05

> <r_epik_Ionization_Penalty_Charging>
0

> <r_epik_Ionization_Penalty_Neutral>
4.62702e-05

> <r_epik_State_Penalty>
-0

> <r_epik_Charging_Adjusted_Penalty>
0

> <i_epik_Tot_Q>
0

> <i_epik_Tot_abs_Q>
0

> <r_epik_Metal_State_Penalty>
-0

> <b_epik_Metal_Only>
0

> <s_lp_Force_Field>
OPLS_2005

> <r_lp_Energy>
3.28241

> <b_lp_Chiralities_Consistent>
1

> <s_lp_Variant>
AV-unprocessed.smi:1241-1

> <Gold.Version>
5.8.1

> <Gold.Id.Protein>
6NUR|6NUR_protein|mol2

> <Gold.PLP.Fitness>
36.0078

> <Gold.PLP.PLP>
-27.5258

> <Gold.PLP.part.hbond>
-2.0000

> <Gold.PLP.part.metal>
0.0000

> <Gold.PLP.part.buried>
-1.4236

> <Gold.PLP.part.nonpolar>
-25.8592

> <Gold.PLP.part.repulsive>
1.1924

> <Gold.PLP.ligand.clash>
0.0000

> <Gold.PLP.ligand.torsion>
1.2547

> <Gold.PLP.Chemscore.Hbond>
2.0000

> <Gold.PLP.Chemscore.CHOScore>
0.9795

> <Gold.PLP.Chemscore.Metal>
0.0000

> <Gold.Chemscore.Hbonds>
donor molecule, donor type, donor heavy atom, donor atom, acceptor molecule, acceptor atom, score
      L1  H     9    29       P1  7948  1.00
      L1  H    12    30       P1  7948  1.00
      L1  C    17    34       P1 10186  1.00

> <Gold.PLP.Chemscore.Internal.Correction>
2.0529

> <Gold.Rescore>
     Score         DG    S(hbond)    S(metal)    S(lipo)     H(rot)  DE(clash)    DE(int)     intcor
     13.16     -17.32       1.91        0.00      68.43       1.00       1.62       2.54       ----

> <Gold.Chemscore.Fitness>
13.1598

> <Gold.Chemscore.DG>
-17.3207

> <Gold.Chemscore.ZeroCoef>
-5.4800

> <Gold.Chemscore.Hbond>
1.9147

> <Gold.Chemscore.Metal>
0.0000

> <Gold.Chemscore.Lipo>
68.4254

> <Gold.Chemscore.Internal_Hbond>
0.0000

> <Gold.Chemscore.DEClash>
1.6182

> <Gold.Chemscore.DEInternal>
2.5428

> <Gold.Chemscore.Rot>
1.0000

> <Gold.Chemscore.Internal.Correction>
   9.000000E+99

> <Gold.Chemscore.Hbonds>
donor molecule, donor type, donor heavy atom, donor atom, acceptor molecule, acceptor atom, score
      L1  H     9    29       P1  7948  0.95
      L1  H    12    30       P1  7948  0.93

> <Gold.Chemscore.Hbond.Weighted>
-6.3950

> <Gold.Chemscore.Metal.Weighted>
-0.0000

> <Gold.Chemscore.Lipo.Weighted>
-8.0058

> <Gold.Chemscore.Internal_Hbond.Weighted>
0.0000

> <Gold.Chemscore.DEClash.Weighted>
1.6182

> <Gold.Chemscore.DEInternal.Weighted>
2.5428

> <Gold.Chemscore.Rot.Weighted>
2.5600

> <Gold.Chemscore.Internal.Correction.Weighted>
   9.000000E+99

> <Gold.Protein.RotatedTorsions>
[ 6907 6896 6895 6894 ] final   45.78 input  -60.11 | X-H torsion
[ 7974 7965 7964 7962 ] final   50.93 input  175.53 | X-H torsion
[ 8008 7997 7996 7995 ] final  -22.23 input   59.86 | X-H torsion
[ 10167 10162 10161 10158 ] final  165.95 input  -65.29 | X-H torsion
[ 10718 10713 10712 10709 ] final -163.38 input   66.30 | X-H torsion
[ 10763 10752 10751 10750 ] final  -29.33 input  -60.55 | X-H torsion
[ 11005 11000 10999 10996 ] final  -80.39 input  -57.11 | X-H torsion

> <Gold.Protein.ActiveResidues>
 VAL166  LYS551  ARG553  GLY616  TRP617  ASP618  TYR619  PRO620  LYS621  CYS622 
 ASP623  PHE694  ASN695  SER759  ASP760  ASP761  ALA762  ILE779  LEU786  VAL792 
 PHE793  MET794  SER795  GLU796  ALA797  LYS798  CYS799  TRP800  GLU811  SER814 

> <Gold.Protein.RotatedAtoms>
  152.2487  134.8155  160.0449 H   0  0  0  0  0  0  0  0  0  0  0  0  # atno 6907 bound_to 6896
  151.8843  133.3497  159.3785 H   0  0  0  0  0  0  0  0  0  0  0  0  # atno 6908 bound_to 6896
  150.7077  134.4914  159.5561 H   0  0  0  0  0  0  0  0  0  0  0  0  # atno 6909 bound_to 6896
  145.9964  139.4392  143.0042 H   0  0  0  0  0  0  0  0  0  0  0  0  # atno 7974 bound_to 7965
  154.4657  140.2013  156.0125 H   0  0  0  0  0  0  0  0  0  0  0  0  # atno 8008 bound_to 7997
  156.0922  140.3256  155.7802 H   0  0  0  0  0  0  0  0  0  0  0  0  # atno 8009 bound_to 7997
  155.4938  140.0548  157.2940 H   0  0  0  0  0  0  0  0  0  0  0  0  # atno 8010 bound_to 7997
  139.4915  144.4078  151.9334 H   0  0  0  0  0  0  0  0  0  0  0  0  # atno 10167 bound_to 10162
  156.6239  130.8901  151.2963 H   0  0  0  0  0  0  0  0  0  0  0  0  # atno 10718 bound_to 10713
  153.7628  135.6918  153.4922 H   0  0  0  0  0  0  0  0  0  0  0  0  # atno 10763 bound_to 10752
  153.1926  135.4465  155.0167 H   0  0  0  0  0  0  0  0  0  0  0  0  # atno 10764 bound_to 10752
  154.8146  135.3393  154.7143 H   0  0  0  0  0  0  0  0  0  0  0  0  # atno 10765 bound_to 10752
  141.1668  133.7148  156.8266 H   0  0  0  0  0  0  0  0  0  0  0  0  # atno 11005 bound_to 11000
  145.7554  140.9956  143.1228 LP  0  0  0  0  0  0  0  0  0  0  0  0  # atno 17320 bound_to 7965
  144.6905  139.9265  143.7470 LP  0  0  0  0  0  0  0  0  0  0  0  0  # atno 17321 bound_to 7965
  140.3519  144.3079  150.5948 LP  0  0  0  0  0  0  0  0  0  0  0  0  # atno 17342 bound_to 10162
  140.5478  143.2211  151.7978 LP  0  0  0  0  0  0  0  0  0  0  0  0  # atno 17343 bound_to 10162
  157.7220  130.9571  150.1476 LP  0  0  0  0  0  0  0  0  0  0  0  0  # atno 17370 bound_to 10713
  156.2289  130.3680  149.8468 LP  0  0  0  0  0  0  0  0  0  0  0  0  # atno 17371 bound_to 10713
  140.2081  134.8848  157.3244 LP  0  0  0  0  0  0  0  0  0  0  0  0  # atno 17394 bound_to 11000
  140.2116  134.4132  155.7610 LP  0  0  0  0  0  0  0  0  0  0  0  0  # atno 17395 bound_to 11000

$$$$
