AV-unprocessed.smi:2518|AV-procd|sdf|9902|dock8
  -GOLD-   2272013543D 1   1.00000     0.00000
 Structure written by MMmdl.
 41 43  0  0  0  0  0  0  0  0  1 V2000
  151.9607  145.1749  159.7574 C   0  0  0  0  0  0  0  0  0  0  0  0
  152.0651  143.6697  159.6229 C   0  0  0  0  0  0  0  0  0  0  0  0
  152.6879  142.9067  160.6303 C   0  0  0  0  0  0  0  0  0  0  0  0
  152.7843  141.5081  160.4990 C   0  0  0  0  0  0  0  0  0  0  0  0
  152.2638  140.8508  159.3654 C   0  0  0  0  0  0  0  0  0  0  0  0
  152.4020  139.4799  159.3195 O   0  0  0  0  0  0  0  0  0  0  0  0
  151.9648  138.8001  158.1507 C   0  0  0  0  0  0  0  0  0  0  0  0
  151.3272  137.4590  158.5577 C   0  0  1  0  0  0  0  0  0  0  0  0
  151.9529  137.0079  159.7421 O   0  0  0  0  0  0  0  0  0  0  0  0
  149.8153  137.5492  158.8504 C   0  0  0  0  0  0  0  0  0  0  0  0
  149.1055  136.3092  158.5733 N   0  0  0  0  0  0  0  0  0  0  0  0
  149.2359  135.7247  157.3548 N   0  0  0  0  0  0  0  0  0  0  0  0
  148.4879  134.6240  157.3975 C   0  0  0  0  0  0  0  0  0  0  0  0
  147.8455  134.4651  158.6559 C   0  0  0  0  0  0  0  0  0  0  0  0
  146.9401  133.4790  159.2376 C   0  0  0  0  0  0  0  0  0  0  0  0
  146.5349  133.6616  160.4554 N   0  0  0  0  0  0  0  0  0  0  0  0
  146.9475  134.7724  161.2004 N   0  0  0  0  0  0  0  0  0  0  0  0
  146.3970  134.8412  162.5520 C   0  0  0  0  0  0  0  0  0  0  0  0
  147.7848  135.7536  160.7479 C   0  0  0  0  0  0  0  0  0  0  0  0
  148.1185  136.7348  161.4121 O   0  0  0  0  0  0  0  0  0  0  0  0
  148.2623  135.5471  159.3590 C   0  0  0  0  0  0  0  0  0  0  0  0
  151.6399  141.6250  158.3541 C   0  0  0  0  0  0  0  0  0  0  0  0
  151.5435  143.0241  158.4845 C   0  0  0  0  0  0  0  0  0  0  0  0
  152.0533  145.4841  160.7990 H   0  0  0  0  0  0  0  0  0  0  0  0
  150.9988  145.5283  159.3849 H   0  0  0  0  0  0  0  0  0  0  0  0
  152.7511  145.6597  159.1839 H   0  0  0  0  0  0  0  0  0  0  0  0
  153.0941  143.3899  161.5068 H   0  0  0  0  0  0  0  0  0  0  0  0
  153.2638  140.9329  161.2774 H   0  0  0  0  0  0  0  0  0  0  0  0
  151.2619  139.4023  157.5723 H   0  0  0  0  0  0  0  0  0  0  0  0
  152.8417  138.6213  157.5291 H   0  0  0  0  0  0  0  0  0  0  0  0
  151.4919  136.7212  157.7713 H   0  0  0  0  0  0  0  0  0  0  0  0
  152.8892  137.0628  159.6268 H   0  0  0  0  0  0  0  0  0  0  0  0
  149.6570  137.7992  159.9009 H   0  0  0  0  0  0  0  0  0  0  0  0
  149.3594  138.3580  158.2803 H   0  0  0  0  0  0  0  0  0  0  0  0
  148.4373  133.9884  156.5258 H   0  0  0  0  0  0  0  0  0  0  0  0
  146.6168  132.6140  158.6587 H   0  0  0  0  0  0  0  0  0  0  0  0
  147.1969  134.8888  163.2925 H   0  0  0  0  0  0  0  0  0  0  0  0
  145.7816  133.9715  162.7883 H   0  0  0  0  0  0  0  0  0  0  0  0
  145.7728  135.7288  162.6650 H   0  0  0  0  0  0  0  0  0  0  0  0
  151.2273  141.1701  157.4664 H   0  0  0  0  0  0  0  0  0  0  0  0
  151.0664  143.6010  157.7057 H   0  0  0  0  0  0  0  0  0  0  0  0
  1  2  1  0  0  0  0
  1 24  1  0  0  0  0
  1 25  1  0  0  0  0
  1 26  1  0  0  0  0
  2 23  1  0  0  0  0
  2  3  2  0  0  0  0
  3  4  1  0  0  0  0
  3 27  1  0  0  0  0
  4  5  2  0  0  0  0
  4 28  1  0  0  0  0
  5  6  1  0  0  0  0
  5 22  1  0  0  0  0
  6  7  1  0  0  0  0
  7  8  1  0  0  0  0
  7 29  1  0  0  0  0
  7 30  1  0  0  0  0
  8  9  1  0  0  0  0
  8 10  1  0  0  0  0
  8 31  1  0  0  0  0
  9 32  1  0  0  0  0
 10 11  1  0  0  0  0
 10 33  1  0  0  0  0
 10 34  1  0  0  0  0
 11 21  1  0  0  0  0
 11 12  1  0  0  0  0
 12 13  2  0  0  0  0
 13 14  1  0  0  0  0
 13 35  1  0  0  0  0
 14 21  2  0  0  0  0
 14 15  1  0  0  0  0
 15 16  2  0  0  0  0
 15 36  1  0  0  0  0
 16 17  1  0  0  0  0
 17 18  1  0  0  0  0
 17 19  1  0  0  0  0
 18 37  1  0  0  0  0
 18 38  1  0  0  0  0
 18 39  1  0  0  0  0
 19 20  2  0  0  0  0
 19 21  1  0  0  0  0
 22 23  2  0  0  0  0
 22 40  1  0  0  0  0
 23 41  1  0  0  0  0
M  END
> <s_m_source_file>
AV-unprocessed.smi

> <i_m_source_file_index>
2518

> <i_lp_mmshare_version>
43012

> <i_f3d_flags>
0

> <s_epik_input>
W0NIM11jMVtjSF1bY0hdYyhbY0hdW2NIXTEpT1tDSDJdW0NASF0oW09IXSlbQ0gyXW4obltjSF0yKWMoYzIzKWMoPU8pbihbQ0gzXSluW2NIXTM=

> <s_epik_cmdline>
J2VwaWtfcHl0aG9uJywgJy1waCcsICc3LjAnLCAnLXRuJywgJzgnLCAnLW1hJywgJzIwMCcsICctbWV0YWxfYmluZGluZycsICctaW1hZScsICc8aW5maWxlLm1hZT4nLCAnLW9tYWUnLCAnPG91dGZpbGUubWFlPic=

> <r_lp_tautomer_probability>
1

> <r_epik_Ionization_Penalty>
2.246e-06

> <r_epik_Ionization_Penalty_Charging>
1.41975e-10

> <r_epik_Ionization_Penalty_Neutral>
2.24586e-06

> <r_epik_State_Penalty>
-0

> <r_epik_Charging_Adjusted_Penalty>
1.41975e-10

> <i_epik_Tot_Q>
0

> <i_epik_Tot_abs_Q>
0

> <r_epik_Metal_State_Penalty>
-0

> <b_epik_Metal_Only>
0

> <s_lp_Force_Field>
OPLS_2005

> <r_lp_Energy>
31.8709

> <b_lp_Chiralities_Consistent>
1

> <s_lp_Variant>
AV-unprocessed.smi:2518-2

> <Gold.Version>
5.8.1

> <Gold.Id.Protein>
6NUR|6NUR_protein|mol2

> <Gold.PLP.Fitness>
48.8939

> <Gold.PLP.PLP>
-44.1800

> <Gold.PLP.part.hbond>
-2.9133

> <Gold.PLP.part.metal>
0.0000

> <Gold.PLP.part.buried>
-6.0603

> <Gold.PLP.part.nonpolar>
-36.0103

> <Gold.PLP.part.repulsive>
0.0000

> <Gold.PLP.ligand.clash>
0.0000

> <Gold.PLP.ligand.torsion>
1.0480

> <Gold.PLP.Chemscore.Hbond>
2.2580

> <Gold.PLP.Chemscore.CHOScore>
0.0000

> <Gold.PLP.Chemscore.Metal>
0.0000

> <Gold.Chemscore.Hbonds>
donor molecule, donor type, donor heavy atom, donor atom, acceptor molecule, acceptor atom, score
      P1  H  6896  6908       L1     9  1.00
      P1  H  6931  6943       L1    20  1.00

> <Gold.PLP.Chemscore.Internal.Correction>
0.0357

> <Gold.Rescore>
     Score         DG    S(hbond)    S(metal)    S(lipo)     H(rot)  DE(clash)    DE(int)     intcor
     16.99     -17.98       1.78        0.00     107.51       2.35       0.01       0.98       ----

> <Gold.Chemscore.Fitness>
16.9872

> <Gold.Chemscore.DG>
-17.9755

> <Gold.Chemscore.ZeroCoef>
-5.4800

> <Gold.Chemscore.Hbond>
1.7755

> <Gold.Chemscore.Metal>
0.0000

> <Gold.Chemscore.Lipo>
107.5128

> <Gold.Chemscore.Internal_Hbond>
0.0000

> <Gold.Chemscore.DEClash>
0.0115

> <Gold.Chemscore.DEInternal>
0.9768

> <Gold.Chemscore.Rot>
2.3490

> <Gold.Chemscore.Internal.Correction>
   9.000000E+99

> <Gold.Chemscore.Hbonds>
donor molecule, donor type, donor heavy atom, donor atom, acceptor molecule, acceptor atom, score
      P1  H  6896  6908       L1     9  0.31
      P1  H  6931  6943       L1    20  1.00
      P1  H  6934  6947       L1    20  0.01

> <Gold.Chemscore.Hbond.Weighted>
-5.9301

> <Gold.Chemscore.Metal.Weighted>
-0.0000

> <Gold.Chemscore.Lipo.Weighted>
-12.5790

> <Gold.Chemscore.Internal_Hbond.Weighted>
0.0000

> <Gold.Chemscore.DEClash.Weighted>
0.0115

> <Gold.Chemscore.DEInternal.Weighted>
0.9768

> <Gold.Chemscore.Rot.Weighted>
6.0136

> <Gold.Chemscore.Internal.Correction.Weighted>
   9.000000E+99

> <Gold.Protein.RotatedTorsions>
[ 6907 6896 6895 6894 ] final -115.99 input  -60.11 | X-H torsion
[ 7974 7965 7964 7962 ] final -133.72 input  175.53 | X-H torsion
[ 8008 7997 7996 7995 ] final   61.86 input   59.86 | X-H torsion
[ 10167 10162 10161 10158 ] final  -47.39 input  -65.29 | X-H torsion
[ 10718 10713 10712 10709 ] final  -39.77 input   66.30 | X-H torsion
[ 10763 10752 10751 10750 ] final  -92.19 input  -60.55 | X-H torsion
[ 11005 11000 10999 10996 ] final   73.87 input  -57.11 | X-H torsion

> <Gold.Protein.ActiveResidues>
 VAL166  LYS551  ARG553  GLY616  TRP617  ASP618  TYR619  PRO620  LYS621  CYS622 
 ASP623  PHE694  ASN695  SER759  ASP760  ASP761  ALA762  ILE779  LEU786  VAL792 
 PHE793  MET794  SER795  GLU796  ALA797  LYS798  CYS799  TRP800  GLU811  SER814 

> <Gold.Protein.RotatedAtoms>
  150.8021  133.8580  159.3223 H   0  0  0  0  0  0  0  0  0  0  0  0  # atno 6907 bound_to 6896
  151.6389  135.1013  160.0147 H   0  0  0  0  0  0  0  0  0  0  0  0  # atno 6908 bound_to 6896
  152.4109  133.6922  159.6432 H   0  0  0  0  0  0  0  0  0  0  0  0  # atno 6909 bound_to 6896
  144.9168  140.6964  143.4990 H   0  0  0  0  0  0  0  0  0  0  0  0  # atno 7974 bound_to 7965
  155.6051  140.3494  155.4605 H   0  0  0  0  0  0  0  0  0  0  0  0  # atno 8008 bound_to 7997
  156.0198  140.1251  157.0393 H   0  0  0  0  0  0  0  0  0  0  0  0  # atno 8009 bound_to 7997
  154.4311  140.1065  156.5934 H   0  0  0  0  0  0  0  0  0  0  0  0  # atno 8010 bound_to 7997
  140.6777  143.2786  151.3920 H   0  0  0  0  0  0  0  0  0  0  0  0  # atno 10167 bound_to 10162
  156.2888  130.4226  149.8260 H   0  0  0  0  0  0  0  0  0  0  0  0  # atno 10718 bound_to 10713
  154.6836  135.5240  153.8297 H   0  0  0  0  0  0  0  0  0  0  0  0  # atno 10763 bound_to 10752
  153.0582  135.6558  154.0535 H   0  0  0  0  0  0  0  0  0  0  0  0  # atno 10764 bound_to 10752
  154.0419  135.2976  155.3333 H   0  0  0  0  0  0  0  0  0  0  0  0  # atno 10765 bound_to 10752
  139.9419  134.7384  156.1078 H   0  0  0  0  0  0  0  0  0  0  0  0  # atno 11005 bound_to 11000
  145.3363  139.1745  143.4510 LP  0  0  0  0  0  0  0  0  0  0  0  0  # atno 17320 bound_to 7965
  146.3185  140.3399  142.8647 LP  0  0  0  0  0  0  0  0  0  0  0  0  # atno 17321 bound_to 7965
  139.6079  144.1159  152.2268 LP  0  0  0  0  0  0  0  0  0  0  0  0  # atno 17342 bound_to 10162
  140.0563  144.5892  150.7297 LP  0  0  0  0  0  0  0  0  0  0  0  0  # atno 17343 bound_to 10162
  156.5681  130.8413  151.3348 LP  0  0  0  0  0  0  0  0  0  0  0  0  # atno 17370 bound_to 10713
  157.7336  130.9733  150.1987 LP  0  0  0  0  0  0  0  0  0  0  0  0  # atno 17371 bound_to 10713
  141.1056  133.6661  156.2856 LP  0  0  0  0  0  0  0  0  0  0  0  0  # atno 17394 bound_to 11000
  140.5931  134.5630  157.5503 LP  0  0  0  0  0  0  0  0  0  0  0  0  # atno 17395 bound_to 11000

$$$$
