AV-unprocessed.smi:3237|AV-procd|sdf|12371|dock6
  -GOLD-   2272018233D 1   1.00000     0.00000
 Structure written by MMmdl.
 36 38  0  0  0  0  0  0  0  0  3 V2000
  151.7245  145.0758  159.9888 C   0  0  0  0  0  0  0  0  0  0  0  0
  151.5591  143.8348  159.1805 C   0  0  0  0  0  0  0  0  0  0  0  0
  151.4176  143.6103  157.8402 C   0  0  0  0  0  0  0  0  0  0  0  0
  151.3075  142.1964  157.7610 C   0  0  0  0  0  0  0  0  0  0  0  0
  151.1440  141.5531  156.5058 N   0  0  0  0  0  0  0  0  0  0  0  0
  151.7105  140.4167  156.0607 C   0  0  0  0  0  0  0  0  0  0  0  0
  152.4864  139.7798  156.7830 O   0  0  0  0  0  0  0  0  0  0  0  0
  151.3222  140.1109  154.7919 N   0  5  0  0  0  0  0  0  0  0  0  0
  150.4310  139.0060  154.4357 C   0  0  2  0  0  0  0  0  0  0  0  0
  149.4214  138.6958  155.5436 C   0  0  0  0  0  0  0  0  0  0  0  0
  149.1012  137.2054  155.3608 C   0  0  0  0  0  0  0  0  0  0  0  0
  150.1630  136.6449  154.4918 N   0  3  2  0  0  0  0  0  0  0  0  0
  150.6935  135.3392  154.9401 C   0  0  0  0  0  0  0  0  0  0  0  0
  149.9813  134.1559  154.3296 C   0  0  0  0  0  0  0  0  0  0  0  0
  149.7148  134.5423  155.7687 C   0  0  0  0  0  0  0  0  0  0  0  0
  151.1932  137.6878  154.3189 C   0  0  0  0  0  0  0  0  0  0  0  0
  151.3785  141.6110  158.9475 N   0  0  0  0  0  0  0  0  0  0  0  0
  151.5400  142.6579  159.8630 O   0  0  0  0  0  0  0  0  0  0  0  0
  151.4834  145.9597  159.3982 H   0  0  0  0  0  0  0  0  0  0  0  0
  152.7519  145.1727  160.3393 H   0  0  0  0  0  0  0  0  0  0  0  0
  151.0685  145.0621  160.8593 H   0  0  0  0  0  0  0  0  0  0  0  0
  151.3958  144.3412  157.0455 H   0  0  0  0  0  0  0  0  0  0  0  0
  150.5166  142.0104  155.8611 H   0  0  0  0  0  0  0  0  0  0  0  0
  149.8937  139.1782  153.5014 H   0  0  0  0  0  0  0  0  0  0  0  0
  149.8714  138.8480  156.5266 H   0  0  0  0  0  0  0  0  0  0  0  0
  148.5325  139.3255  155.4866 H   0  0  0  0  0  0  0  0  0  0  0  0
  149.0587  136.7024  156.3284 H   0  0  0  0  0  0  0  0  0  0  0  0
  148.1349  137.0614  154.8745 H   0  0  0  0  0  0  0  0  0  0  0  0
  151.7609  135.2949  155.1494 H   0  0  0  0  0  0  0  0  0  0  0  0
  149.1937  134.3474  153.6028 H   0  0  0  0  0  0  0  0  0  0  0  0
  150.5652  133.2543  154.1548 H   0  0  0  0  0  0  0  0  0  0  0  0
  150.1225  133.8945  156.5419 H   0  0  0  0  0  0  0  0  0  0  0  0
  148.7502  134.9916  155.9987 H   0  0  0  0  0  0  0  0  0  0  0  0
  151.7100  137.5851  153.3644 H   0  0  0  0  0  0  0  0  0  0  0  0
  151.9343  137.6016  155.1166 H   0  0  0  0  0  0  0  0  0  0  0  0
  149.7426  136.5129  153.5833 H   0  0  0  0  0  0  0  0  0  0  0  0
  1  2  1  0  0  0  0
  1 19  1  0  0  0  0
  1 20  1  0  0  0  0
  1 21  1  0  0  0  0
  2 18  1  0  0  0  0
  2  3  2  0  0  0  0
  3  4  1  0  0  0  0
  3 22  1  0  0  0  0
  4  5  1  0  0  0  0
  4 17  2  0  0  0  0
  5  6  1  0  0  0  0
  5 23  1  0  0  0  0
  6  7  2  0  0  0  0
  6  8  1  0  0  0  0
  8  9  1  0  0  0  0
  9 16  1  0  0  0  0
  9 10  1  0  0  0  0
  9 24  1  0  0  0  0
 10 11  1  0  0  0  0
 10 25  1  0  0  0  0
 10 26  1  0  0  0  0
 11 12  1  0  0  0  0
 11 27  1  0  0  0  0
 11 28  1  0  0  0  0
 12 13  1  0  0  0  0
 12 16  1  0  0  0  0
 12 36  1  0  0  0  0
 13 15  1  0  0  0  0
 13 14  1  0  0  0  0
 13 29  1  0  0  0  0
 14 15  1  0  0  0  0
 14 30  1  0  0  0  0
 14 31  1  0  0  0  0
 15 32  1  0  0  0  0
 15 33  1  0  0  0  0
 16 34  1  0  0  0  0
 16 35  1  0  0  0  0
 17 18  1  0  0  0  0
M  CHG  1   8  -1
M  CHG  1  12   1
M  END
> <s_m_source_file>
AV-unprocessed.smi

> <i_m_source_file_index>
3237

> <i_lp_mmshare_version>
43012

> <i_f3d_flags>
0

> <s_epik_input>
W0NIM11jMVtjSF1jKG5vMSlbTkhdQyg9TylbTkhdW0NAQEhdMltDSDJdW0NIMl1OKFtDSDJdMilbQ0hdM1tDSDJdW0NIMl0z

> <s_epik_cmdline>
J2VwaWtfcHl0aG9uJywgJy1waCcsICc3LjAnLCAnLXRuJywgJzgnLCAnLW1hJywgJzIwMCcsICctbWV0YWxfYmluZGluZycsICctaW1hZScsICc8aW5maWxlLm1hZT4nLCAnLW9tYWUnLCAnPG91dGZpbGUubWFlPic=

> <r_epik_Ionization_Penalty>
6.76456

> <r_epik_Ionization_Penalty_Charging>
6.76456

> <r_epik_Ionization_Penalty_Neutral>
5.76722e-06

> <r_epik_State_Penalty>
6.78919

> <r_epik_Charging_Adjusted_Penalty>
13.5538

> <i_epik_Tot_Q>
0

> <i_epik_Tot_abs_Q>
2

> <r_epik_Metal_State_Penalty>
2.728

> <b_epik_Metal_Only>
1

> <s_lp_Force_Field>
OPLS_2005

> <r_lp_Energy>
30.701

> <b_lp_Chiralities_Consistent>
1

> <s_lp_Variant>
AV-unprocessed.smi:3237-9

> <Gold.Version>
5.8.1

> <Gold.Id.Protein>
6NUR|6NUR_protein|mol2

> <Gold.PLP.Fitness>
43.3452

> <Gold.PLP.PLP>
-34.4857

> <Gold.PLP.part.hbond>
-3.0391

> <Gold.PLP.part.metal>
0.0000

> <Gold.PLP.part.buried>
-5.7680

> <Gold.PLP.part.nonpolar>
-26.0012

> <Gold.PLP.part.repulsive>
0.2372

> <Gold.PLP.ligand.clash>
0.0000

> <Gold.PLP.ligand.torsion>
2.2172

> <Gold.PLP.Chemscore.Hbond>
4.0000

> <Gold.PLP.Chemscore.CHOScore>
0.0000

> <Gold.PLP.Chemscore.Metal>
0.0000

> <Gold.Chemscore.Hbonds>
donor molecule, donor type, donor heavy atom, donor atom, acceptor molecule, acceptor atom, score
      L1  H    12    36       P1  7948  2.00
      P1  H  7989  7998       L1     8  0.99
      P1  H  7997  8009       L1     7  1.00

> <Gold.PLP.Chemscore.Internal.Correction>
1.2939

> <Gold.Rescore>
     Score         DG    S(hbond)    S(metal)    S(lipo)     H(rot)  DE(clash)    DE(int)     intcor
     17.61     -20.03       2.75        0.00      73.04       1.25       0.04       2.38       ----

> <Gold.Chemscore.Fitness>
17.6072

> <Gold.Chemscore.DG>
-20.0293

> <Gold.Chemscore.ZeroCoef>
-5.4800

> <Gold.Chemscore.Hbond>
2.7529

> <Gold.Chemscore.Metal>
0.0000

> <Gold.Chemscore.Lipo>
73.0372

> <Gold.Chemscore.Internal_Hbond>
0.0000

> <Gold.Chemscore.DEClash>
0.0414

> <Gold.Chemscore.DEInternal>
2.3806

> <Gold.Chemscore.Rot>
1.2464

> <Gold.Chemscore.Internal.Correction>
   9.000000E+99

> <Gold.Chemscore.Hbonds>
donor molecule, donor type, donor heavy atom, donor atom, acceptor molecule, acceptor atom, score
      L1  H    12    36       P1  7948  0.40
      P1  H  7989  7998       L1     8  0.56
      P1  H  7997  8009       L1     7  0.96

> <Gold.Chemscore.Hbond.Weighted>
-9.1948

> <Gold.Chemscore.Metal.Weighted>
-0.0000

> <Gold.Chemscore.Lipo.Weighted>
-8.5454

> <Gold.Chemscore.Internal_Hbond.Weighted>
0.0000

> <Gold.Chemscore.DEClash.Weighted>
0.0414

> <Gold.Chemscore.DEInternal.Weighted>
2.3806

> <Gold.Chemscore.Rot.Weighted>
3.1909

> <Gold.Chemscore.Internal.Correction.Weighted>
   9.000000E+99

> <Gold.Protein.RotatedTorsions>
[ 6907 6896 6895 6894 ] final   83.71 input  -60.11 | X-H torsion
[ 7974 7965 7964 7962 ] final  -80.00 input  175.53 | X-H torsion
[ 8008 7997 7996 7995 ] final  172.97 input   59.86 | X-H torsion
[ 10167 10162 10161 10158 ] final   34.51 input  -65.29 | X-H torsion
[ 10718 10713 10712 10709 ] final -108.70 input   66.30 | X-H torsion
[ 10763 10752 10751 10750 ] final   91.95 input  -60.55 | X-H torsion
[ 11005 11000 10999 10996 ] final -102.29 input  -57.11 | X-H torsion

> <Gold.Protein.ActiveResidues>
 VAL166  LYS551  ARG553  GLY616  TRP617  ASP618  TYR619  PRO620  LYS621  CYS622 
 ASP623  PHE694  ASN695  SER759  ASP760  ASP761  ALA762  ILE779  LEU786  VAL792 
 PHE793  MET794  SER795  GLU796  ALA797  LYS798  CYS799  TRP800  GLU811  SER814 

> <Gold.Protein.RotatedAtoms>
  152.5334  134.2853  159.9022 H   0  0  0  0  0  0  0  0  0  0  0  0  # atno 6907 bound_to 6896
  151.2806  133.4205  159.2634 H   0  0  0  0  0  0  0  0  0  0  0  0  # atno 6908 bound_to 6896
  151.0287  134.9538  159.8156 H   0  0  0  0  0  0  0  0  0  0  0  0  # atno 6909 bound_to 6896
  145.5657  140.9474  143.1423 H   0  0  0  0  0  0  0  0  0  0  0  0  # atno 7974 bound_to 7965
  156.1122  140.1472  156.9323 H   0  0  0  0  0  0  0  0  0  0  0  0  # atno 8008 bound_to 7997
  154.4775  140.0890  156.7340 H   0  0  0  0  0  0  0  0  0  0  0  0  # atno 8009 bound_to 7997
  155.4577  140.3437  155.4311 H   0  0  0  0  0  0  0  0  0  0  0  0  # atno 8010 bound_to 7997
  140.4309  144.1326  150.6159 H   0  0  0  0  0  0  0  0  0  0  0  0  # atno 10167 bound_to 10162
  156.0499  130.5726  150.7997 H   0  0  0  0  0  0  0  0  0  0  0  0  # atno 10718 bound_to 10713
  153.2138  135.4379  155.0411 H   0  0  0  0  0  0  0  0  0  0  0  0  # atno 10763 bound_to 10752
  154.8214  135.3339  154.7028 H   0  0  0  0  0  0  0  0  0  0  0  0  # atno 10764 bound_to 10752
  153.7464  135.7001  153.5011 H   0  0  0  0  0  0  0  0  0  0  0  0  # atno 10765 bound_to 10752
  141.1195  133.8546  157.1341 H   0  0  0  0  0  0  0  0  0  0  0  0  # atno 11005 bound_to 11000
  144.7461  139.7315  143.7291 LP  0  0  0  0  0  0  0  0  0  0  0  0  # atno 17320 bound_to 7965
  146.1820  139.5017  142.9860 LP  0  0  0  0  0  0  0  0  0  0  0  0  # atno 17321 bound_to 7965
  140.4428  143.2519  151.9450 LP  0  0  0  0  0  0  0  0  0  0  0  0  # atno 17342 bound_to 10162
  139.4785  144.5637  151.8198 LP  0  0  0  0  0  0  0  0  0  0  0  0  # atno 17343 bound_to 10162
  157.5414  131.0941  150.9822 LP  0  0  0  0  0  0  0  0  0  0  0  0  # atno 17370 bound_to 10713
  157.0104  130.5634  149.5320 LP  0  0  0  0  0  0  0  0  0  0  0  0  # atno 17371 bound_to 10713
  140.0142  134.9975  157.0458 LP  0  0  0  0  0  0  0  0  0  0  0  0  # atno 17394 bound_to 11000
  140.4548  134.1545  155.7185 LP  0  0  0  0  0  0  0  0  0  0  0  0  # atno 17395 bound_to 11000

$$$$
