AV-unprocessed.smi:2717|AV-procd|sdf|10485|dock10
  -GOLD-   2272014533D 1   1.00000     0.00000
 Structure written by MMmdl.
 43 44  0  0  0  0  0  0  0  0  1 V2000
  150.5538  140.8137  157.8251 C   0  0  0  0  0  0  0  0  0  0  0  0
  149.4969  139.8434  157.2863 C   0  0  0  0  0  0  0  0  0  0  0  0
  150.0608  138.8645  156.3116 C   0  0  0  0  0  0  0  0  0  0  0  0
  149.9898  137.5403  156.4730 N   0  0  0  0  0  0  0  0  0  0  0  0
  150.5642  136.8376  155.4095 C   0  0  0  0  0  0  0  0  0  0  0  0
  150.5988  135.3370  155.4322 C   0  0  0  0  0  0  0  0  0  0  0  0
  149.1995  134.6897  155.4788 C   0  0  0  0  0  0  0  0  0  0  0  0
  148.5076  134.7346  154.1939 N   0  0  0  0  0  0  0  0  0  0  0  0
  147.3971  134.0475  153.8940 C   0  0  0  0  0  0  0  0  0  0  0  0
  146.8434  133.2610  154.6627 O   0  0  0  0  0  0  0  0  0  0  0  0
  146.9510  134.3388  152.6644 N   0  0  0  0  0  0  0  0  0  0  0  0
  145.7327  133.8052  152.0640 C   0  0  2  0  0  0  0  0  0  0  0  0
  145.9029  132.2972  151.8060 C   0  0  0  0  0  0  0  0  0  0  0  0
  144.6627  131.6974  151.1201 C   0  0  0  0  0  0  0  0  0  0  0  0
  144.2939  132.4446  149.8246 C   0  0  2  0  0  0  0  0  0  0  0  0
  145.2625  132.1924  148.8259 O   0  0  0  0  0  0  0  0  0  0  0  0
  144.1656  133.9610  150.0618 C   0  0  0  0  0  0  0  0  0  0  0  0
  145.4071  134.5504  150.7537 C   0  0  0  0  0  0  0  0  0  0  0  0
  151.0608  137.6555  154.4250 C   0  0  0  0  0  0  0  0  0  0  0  0
  150.8286  139.3399  154.8010 S   0  0  0  0  0  0  0  0  0  0  0  0
  150.1127  141.5143  158.5344 H   0  0  0  0  0  0  0  0  0  0  0  0
  151.0026  141.3943  157.0185 H   0  0  0  0  0  0  0  0  0  0  0  0
  151.3531  140.2783  158.3383 H   0  0  0  0  0  0  0  0  0  0  0  0
  149.0432  139.2926  158.1107 H   0  0  0  0  0  0  0  0  0  0  0  0
  148.6931  140.4001  156.8024 H   0  0  0  0  0  0  0  0  0  0  0  0
  151.1346  134.9635  154.5590 H   0  0  0  0  0  0  0  0  0  0  0  0
  151.1778  134.9988  156.2922 H   0  0  0  0  0  0  0  0  0  0  0  0
  149.2968  133.6398  155.7561 H   0  0  0  0  0  0  0  0  0  0  0  0
  148.5880  135.1576  156.2516 H   0  0  0  0  0  0  0  0  0  0  0  0
  148.8844  135.3596  153.4961 H   0  0  0  0  0  0  0  0  0  0  0  0
  147.4773  134.9999  152.1121 H   0  0  0  0  0  0  0  0  0  0  0  0
  144.9033  133.9381  152.7619 H   0  0  0  0  0  0  0  0  0  0  0  0
  146.7818  132.1250  151.1828 H   0  0  0  0  0  0  0  0  0  0  0  0
  146.0868  131.7762  152.7464 H   0  0  0  0  0  0  0  0  0  0  0  0
  144.8230  130.6385  150.9142 H   0  0  0  0  0  0  0  0  0  0  0  0
  143.8197  131.7473  151.8104 H   0  0  0  0  0  0  0  0  0  0  0  0
  143.3442  132.0613  149.4501 H   0  0  0  0  0  0  0  0  0  0  0  0
  145.3173  132.9488  148.2623 H   0  0  0  0  0  0  0  0  0  0  0  0
  143.9816  134.4776  149.1191 H   0  0  0  0  0  0  0  0  0  0  0  0
  143.2913  134.1497  150.6859 H   0  0  0  0  0  0  0  0  0  0  0  0
  145.2416  135.6098  150.9539 H   0  0  0  0  0  0  0  0  0  0  0  0
  146.2608  134.4974  150.0764 H   0  0  0  0  0  0  0  0  0  0  0  0
  151.5519  137.3683  153.5068 H   0  0  0  0  0  0  0  0  0  0  0  0
  1  2  1  0  0  0  0
  1 21  1  0  0  0  0
  1 22  1  0  0  0  0
  1 23  1  0  0  0  0
  2  3  1  0  0  0  0
  2 24  1  0  0  0  0
  2 25  1  0  0  0  0
  3 20  1  0  0  0  0
  3  4  2  0  0  0  0
  4  5  1  0  0  0  0
  5  6  1  0  0  0  0
  5 19  2  0  0  0  0
  6  7  1  0  0  0  0
  6 26  1  0  0  0  0
  6 27  1  0  0  0  0
  7  8  1  0  0  0  0
  7 28  1  0  0  0  0
  7 29  1  0  0  0  0
  8  9  1  0  0  0  0
  8 30  1  0  0  0  0
  9 10  2  0  0  0  0
  9 11  1  0  0  0  0
 11 12  1  0  0  0  0
 11 31  1  0  0  0  0
 12 18  1  0  0  0  0
 12 13  1  0  0  0  0
 12 32  1  0  0  0  0
 13 14  1  0  0  0  0
 13 33  1  0  0  0  0
 13 34  1  0  0  0  0
 14 15  1  0  0  0  0
 14 35  1  0  0  0  0
 14 36  1  0  0  0  0
 15 16  1  0  0  0  0
 15 17  1  0  0  0  0
 15 37  1  0  0  0  0
 16 38  1  0  0  0  0
 17 18  1  0  0  0  0
 17 39  1  0  0  0  0
 17 40  1  0  0  0  0
 18 41  1  0  0  0  0
 18 42  1  0  0  0  0
 19 20  1  0  0  0  0
 19 43  1  0  0  0  0
M  END
> <s_m_source_file>
AV-unprocessed.smi

> <i_m_source_file_index>
2717

> <i_lp_mmshare_version>
43012

> <i_f3d_flags>
0

> <s_epik_input>
W0NIM11bQ0gyXWMxbmMoW2NIXXMxKVtDSDJdW0NIMl1bTkhdQyg9TylbTkhdW0NAQEhdMltDSDJdW0NIMl1bQ0BASF0oW09IXSlbQ0gyXVtDSDJdMg==

> <s_epik_cmdline>
J2VwaWtfcHl0aG9uJywgJy1waCcsICc3LjAnLCAnLXRuJywgJzgnLCAnLW1hJywgJzIwMCcsICctbWV0YWxfYmluZGluZycsICctaW1hZScsICc8aW5maWxlLm1hZT4nLCAnLW9tYWUnLCAnPG91dGZpbGUubWFlPic=

> <r_epik_Ionization_Penalty>
0.00202099

> <r_epik_Ionization_Penalty_Charging>
0

> <r_epik_Ionization_Penalty_Neutral>
0.00202099

> <r_epik_State_Penalty>
0.00133629

> <r_epik_Charging_Adjusted_Penalty>
0.00133629

> <i_epik_Tot_Q>
0

> <i_epik_Tot_abs_Q>
0

> <r_epik_Metal_State_Penalty>
-0

> <b_epik_Metal_Only>
0

> <s_lp_Force_Field>
OPLS_2005

> <r_lp_Energy>
0.0101123

> <b_lp_Chiralities_Consistent>
1

> <s_lp_Variant>
AV-unprocessed.smi:2717-2

> <Gold.Version>
5.8.1

> <Gold.Id.Protein>
6NUR|6NUR_protein|mol2

> <Gold.PLP.Fitness>
44.6531

> <Gold.PLP.PLP>
-33.0492

> <Gold.PLP.part.hbond>
-4.0000

> <Gold.PLP.part.metal>
0.0000

> <Gold.PLP.part.buried>
-3.1138

> <Gold.PLP.part.nonpolar>
-25.8892

> <Gold.PLP.part.repulsive>
0.0497

> <Gold.PLP.ligand.clash>
0.0000

> <Gold.PLP.ligand.torsion>
0.2111

> <Gold.PLP.Chemscore.Hbond>
3.0000

> <Gold.PLP.Chemscore.CHOScore>
1.0000

> <Gold.PLP.Chemscore.Metal>
0.0000

> <Gold.Chemscore.Hbonds>
donor molecule, donor type, donor heavy atom, donor atom, acceptor molecule, acceptor atom, score
      L1  H     8    30       P1  7948  1.00
      L1  H    11    31       P1  7948  1.00
      L1  H    16    38       P1  7921  0.54
      L1  C    19    43       P1  7949  1.00

> <Gold.PLP.Chemscore.Internal.Correction>
0.0261

> <Gold.Rescore>
     Score         DG    S(hbond)    S(metal)    S(lipo)     H(rot)  DE(clash)    DE(int)     intcor
     17.16     -17.69       2.41        0.00      83.97       2.21       0.20       0.33       ----

> <Gold.Chemscore.Fitness>
17.1602

> <Gold.Chemscore.DG>
-17.6902

> <Gold.Chemscore.ZeroCoef>
-5.4800

> <Gold.Chemscore.Hbond>
2.4070

> <Gold.Chemscore.Metal>
0.0000

> <Gold.Chemscore.Lipo>
83.9674

> <Gold.Chemscore.Internal_Hbond>
0.0000

> <Gold.Chemscore.DEClash>
0.1955

> <Gold.Chemscore.DEInternal>
0.3344

> <Gold.Chemscore.Rot>
2.2084

> <Gold.Chemscore.Internal.Correction>
   9.000000E+99

> <Gold.Chemscore.Hbonds>
donor molecule, donor type, donor heavy atom, donor atom, acceptor molecule, acceptor atom, score
      L1  H     8    30       P1  7948  0.73
      L1  H    11    31       P1  7948  0.91
      L1  H    16    38       P1  7921  0.04

> <Gold.Chemscore.Hbond.Weighted>
-8.0395

> <Gold.Chemscore.Metal.Weighted>
-0.0000

> <Gold.Chemscore.Lipo.Weighted>
-9.8242

> <Gold.Chemscore.Internal_Hbond.Weighted>
0.0000

> <Gold.Chemscore.DEClash.Weighted>
0.1955

> <Gold.Chemscore.DEInternal.Weighted>
0.3344

> <Gold.Chemscore.Rot.Weighted>
5.6535

> <Gold.Chemscore.Internal.Correction.Weighted>
   9.000000E+99

> <Gold.Protein.RotatedTorsions>
[ 6907 6896 6895 6894 ] final    4.70 input  -60.11 | X-H torsion
[ 7974 7965 7964 7962 ] final -126.94 input  175.53 | X-H torsion
[ 8008 7997 7996 7995 ] final -172.94 input   59.86 | X-H torsion
[ 10167 10162 10161 10158 ] final  -88.79 input  -65.29 | X-H torsion
[ 10718 10713 10712 10709 ] final  105.56 input   66.30 | X-H torsion
[ 10763 10752 10751 10750 ] final   54.26 input  -60.55 | X-H torsion
[ 11005 11000 10999 10996 ] final  131.73 input  -57.11 | X-H torsion

> <Gold.Protein.ActiveResidues>
 VAL166  LYS551  ARG553  GLY616  TRP617  ASP618  TYR619  PRO620  LYS621  CYS622 
 ASP623  PHE694  ASN695  SER759  ASP760  ASP761  ALA762  ILE779  LEU786  VAL792 
 PHE793  MET794  SER795  GLU796  ALA797  LYS798  CYS799  TRP800  GLU811  SER814 

> <Gold.Protein.RotatedAtoms>
  151.6455  135.1008  160.0149 H   0  0  0  0  0  0  0  0  0  0  0  0  # atno 6907 bound_to 6896
  152.4030  133.6842  159.6341 H   0  0  0  0  0  0  0  0  0  0  0  0  # atno 6908 bound_to 6896
  150.7928  133.8675  159.3290 H   0  0  0  0  0  0  0  0  0  0  0  0  # atno 6909 bound_to 6896
  144.9821  140.7651  143.4605 H   0  0  0  0  0  0  0  0  0  0  0  0  # atno 7974 bound_to 7965
  155.9511  140.1126  157.0976 H   0  0  0  0  0  0  0  0  0  0  0  0  # atno 8008 bound_to 7997
  154.4110  140.1200  156.5120 H   0  0  0  0  0  0  0  0  0  0  0  0  # atno 8009 bound_to 7997
  155.6841  140.3473  155.4869 H   0  0  0  0  0  0  0  0  0  0  0  0  # atno 8010 bound_to 7997
  140.3712  143.2793  151.9498 H   0  0  0  0  0  0  0  0  0  0  0  0  # atno 10167 bound_to 10162
  157.6701  131.0830  150.5875 H   0  0  0  0  0  0  0  0  0  0  0  0  # atno 10718 bound_to 10713
  152.9803  135.5751  154.4875 H   0  0  0  0  0  0  0  0  0  0  0  0  # atno 10763 bound_to 10752
  154.4414  135.2776  155.1847 H   0  0  0  0  0  0  0  0  0  0  0  0  # atno 10764 bound_to 10752
  154.3513  135.6208  153.5698 H   0  0  0  0  0  0  0  0  0  0  0  0  # atno 10765 bound_to 10752
  139.9748  134.9567  156.9481 H   0  0  0  0  0  0  0  0  0  0  0  0  # atno 11005 bound_to 11000
  145.2405  139.2074  143.4995 LP  0  0  0  0  0  0  0  0  0  0  0  0  # atno 17320 bound_to 7965
  146.3411  140.2300  142.8593 LP  0  0  0  0  0  0  0  0  0  0  0  0  # atno 17321 bound_to 7965
  139.4803  144.5905  151.7780 LP  0  0  0  0  0  0  0  0  0  0  0  0  # atno 17342 bound_to 10162
  140.5031  144.1139  150.5976 LP  0  0  0  0  0  0  0  0  0  0  0  0  # atno 17343 bound_to 10162
  156.6175  130.4397  149.5835 LP  0  0  0  0  0  0  0  0  0  0  0  0  # atno 17370 bound_to 10713
  156.2381  130.6835  151.1529 LP  0  0  0  0  0  0  0  0  0  0  0  0  # atno 17371 bound_to 10713
  140.5218  134.0900  155.7294 LP  0  0  0  0  0  0  0  0  0  0  0  0  # atno 17394 bound_to 11000
  141.1425  133.9112  157.2292 LP  0  0  0  0  0  0  0  0  0  0  0  0  # atno 17395 bound_to 11000

$$$$
