AV-unprocessed.smi:3116|AV-procd|sdf|11874|dock6
  -GOLD-   2272017253D 1   1.00000     0.00000
 Structure written by MMmdl.
 33 33  0  0  0  0  0  0  0  0  1 V2000
  150.2032  139.2272  157.9550 C   0  0  0  0  0  0  0  0  0  0  0  0
  151.4041  139.9202  157.2807 C   0  0  2  0  0  0  0  0  0  0  0  0
  151.1799  141.3729  157.2054 N   0  0  0  0  0  0  0  0  0  0  0  0
  151.0091  142.0492  158.4913 C   0  0  2  0  0  0  0  0  0  0  0  0
  149.6805  142.8298  158.5206 C   0  0  0  0  0  0  0  0  0  0  0  0
  152.2352  142.9586  158.7732 C   0  0  1  0  0  0  0  0  0  0  0  0
  152.1313  144.3426  158.1058 C   0  0  0  0  0  0  0  0  0  0  0  0
  152.5530  143.0711  160.1946 N   0  0  0  0  0  0  0  0  0  0  0  0
  152.0216  143.9268  161.1406 C   0  0  0  0  0  0  0  0  0  0  0  0
  152.6137  143.6369  162.3360 C   0  0  0  0  0  0  0  0  0  0  0  0
  153.5030  142.5724  162.0222 C   0  0  0  0  0  0  0  0  0  0  0  0
  153.4617  142.2343  160.7440 N   0  0  0  0  0  0  0  0  0  0  0  0
  151.6797  139.3585  155.8767 C   0  0  0  0  0  0  0  0  0  0  0  0
  150.8465  138.4123  155.4348 N   0  0  0  0  0  0  0  0  0  0  0  0
  152.6188  139.7641  155.1938 O   0  0  0  0  0  0  0  0  0  0  0  0
  150.3562  138.1497  158.0268 H   0  0  0  0  0  0  0  0  0  0  0  0
  149.2794  139.3962  157.3997 H   0  0  0  0  0  0  0  0  0  0  0  0
  150.0437  139.5946  158.9680 H   0  0  0  0  0  0  0  0  0  0  0  0
  152.2972  139.7094  157.8716 H   0  0  0  0  0  0  0  0  0  0  0  0
  150.4321  141.6116  156.5698 H   0  0  0  0  0  0  0  0  0  0  0  0
  150.9827  141.2940  159.2785 H   0  0  0  0  0  0  0  0  0  0  0  0
  149.5977  143.4196  159.4336 H   0  0  0  0  0  0  0  0  0  0  0  0
  148.8209  142.1604  158.4979 H   0  0  0  0  0  0  0  0  0  0  0  0
  149.5936  143.5148  157.6764 H   0  0  0  0  0  0  0  0  0  0  0  0
  153.0910  142.4728  158.3004 H   0  0  0  0  0  0  0  0  0  0  0  0
  151.9753  144.2463  157.0313 H   0  0  0  0  0  0  0  0  0  0  0  0
  153.0464  144.9165  158.2543 H   0  0  0  0  0  0  0  0  0  0  0  0
  151.3048  144.9294  158.5072 H   0  0  0  0  0  0  0  0  0  0  0  0
  151.2718  144.6624  160.8887 H   0  0  0  0  0  0  0  0  0  0  0  0
  152.4366  144.1112  163.2899 H   0  0  0  0  0  0  0  0  0  0  0  0
  154.1707  142.0370  162.6807 H   0  0  0  0  0  0  0  0  0  0  0  0
  150.9777  138.0188  154.5144 H   0  0  0  0  0  0  0  0  0  0  0  0
  150.0830  138.1033  156.0189 H   0  0  0  0  0  0  0  0  0  0  0  0
  1  2  1  0  0  0  0
  1 16  1  0  0  0  0
  1 17  1  0  0  0  0
  1 18  1  0  0  0  0
  2  3  1  0  0  0  0
  2 13  1  0  0  0  0
  2 19  1  0  0  0  0
  3  4  1  0  0  0  0
  3 20  1  0  0  0  0
  4  5  1  0  0  0  0
  4  6  1  0  0  0  0
  4 21  1  0  0  0  0
  5 22  1  0  0  0  0
  5 23  1  0  0  0  0
  5 24  1  0  0  0  0
  6  7  1  0  0  0  0
  6  8  1  0  0  0  0
  6 25  1  0  0  0  0
  7 26  1  0  0  0  0
  7 27  1  0  0  0  0
  7 28  1  0  0  0  0
  8 12  1  0  0  0  0
  8  9  1  0  0  0  0
  9 10  2  0  0  0  0
  9 29  1  0  0  0  0
 10 11  1  0  0  0  0
 10 30  1  0  0  0  0
 11 12  2  0  0  0  0
 11 31  1  0  0  0  0
 13 14  1  0  0  0  0
 13 15  2  0  0  0  0
 14 32  1  0  0  0  0
 14 33  1  0  0  0  0
M  END
> <s_m_source_file>
AV-unprocessed.smi

> <i_m_source_file_index>
3116

> <i_lp_mmshare_version>
43012

> <i_f3d_flags>
0

> <s_epik_input>
W05IMl1DKD1PKVtDQEhdKFtDSDNdKVtOSF1bQ0BIXShbQ0gzXSlbQ0BIXShbQ0gzXSluMVtjSF1bY0hdW2NIXW4x

> <s_epik_cmdline>
J2VwaWtfcHl0aG9uJywgJy1waCcsICc3LjAnLCAnLXRuJywgJzgnLCAnLW1hJywgJzIwMCcsICctbWV0YWxfYmluZGluZycsICctaW1hZScsICc8aW5maWxlLm1hZT4nLCAnLW9tYWUnLCAnPG91dGZpbGUubWFlPic=

> <r_lp_tautomer_probability>
1

> <r_epik_Ionization_Penalty>
0.865977

> <r_epik_Ionization_Penalty_Charging>
0

> <r_epik_Ionization_Penalty_Neutral>
0.865977

> <r_epik_State_Penalty>
0.901888

> <r_epik_Charging_Adjusted_Penalty>
0.901888

> <i_epik_Tot_Q>
0

> <i_epik_Tot_abs_Q>
0

> <r_epik_Metal_State_Penalty>
0.901181

> <b_epik_Metal_Only>
0

> <s_lp_Force_Field>
OPLS_2005

> <r_lp_Energy>
11.5103

> <b_lp_Chiralities_Consistent>
1

> <s_lp_Variant>
AV-unprocessed.smi:3116-13

> <Gold.Version>
5.8.1

> <Gold.Id.Protein>
6NUR|6NUR_protein|mol2

> <Gold.PLP.Fitness>
36.6763

> <Gold.PLP.PLP>
-36.5958

> <Gold.PLP.part.hbond>
-2.0000

> <Gold.PLP.part.metal>
0.0000

> <Gold.PLP.part.buried>
-4.9762

> <Gold.PLP.part.nonpolar>
-29.6952

> <Gold.PLP.part.repulsive>
0.0940

> <Gold.PLP.ligand.clash>
0.8800

> <Gold.PLP.ligand.torsion>
1.9162

> <Gold.PLP.Chemscore.Hbond>
1.5280

> <Gold.PLP.Chemscore.CHOScore>
0.0000

> <Gold.PLP.Chemscore.Metal>
0.0000

> <Gold.Chemscore.Hbonds>
donor molecule, donor type, donor heavy atom, donor atom, acceptor molecule, acceptor atom, score
      P1  H  7989  7998       L1    15  0.31
      P1  H  7997  8010       L1    15  1.00

> <Gold.PLP.Chemscore.Internal.Correction>
0.2089

> <Gold.Rescore>
     Score         DG    S(hbond)    S(metal)    S(lipo)     H(rot)  DE(clash)    DE(int)     intcor
     11.23     -12.58       1.04        0.00      83.03       2.38       0.04       1.31       ----

> <Gold.Chemscore.Fitness>
11.2280

> <Gold.Chemscore.DG>
-12.5765

> <Gold.Chemscore.ZeroCoef>
-5.4800

> <Gold.Chemscore.Hbond>
1.0432

> <Gold.Chemscore.Metal>
0.0000

> <Gold.Chemscore.Lipo>
83.0285

> <Gold.Chemscore.Internal_Hbond>
0.0000

> <Gold.Chemscore.DEClash>
0.0373

> <Gold.Chemscore.DEInternal>
1.3113

> <Gold.Chemscore.Rot>
2.3836

> <Gold.Chemscore.Internal.Correction>
   9.000000E+99

> <Gold.Chemscore.Hbonds>
donor molecule, donor type, donor heavy atom, donor atom, acceptor molecule, acceptor atom, score
      P1  H  7989  7998       L1    15  0.17
      P1  H  7997  8010       L1    15  0.95

> <Gold.Chemscore.Hbond.Weighted>
-3.4842

> <Gold.Chemscore.Metal.Weighted>
-0.0000

> <Gold.Chemscore.Lipo.Weighted>
-9.7143

> <Gold.Chemscore.Internal_Hbond.Weighted>
0.0000

> <Gold.Chemscore.DEClash.Weighted>
0.0373

> <Gold.Chemscore.DEInternal.Weighted>
1.3113

> <Gold.Chemscore.Rot.Weighted>
6.1020

> <Gold.Chemscore.Internal.Correction.Weighted>
   9.000000E+99

> <Gold.Protein.RotatedTorsions>
[ 6907 6896 6895 6894 ] final -117.13 input  -60.11 | X-H torsion
[ 7974 7965 7964 7962 ] final   17.79 input  175.53 | X-H torsion
[ 8008 7997 7996 7995 ] final  106.48 input   59.86 | X-H torsion
[ 10167 10162 10161 10158 ] final   95.74 input  -65.29 | X-H torsion
[ 10718 10713 10712 10709 ] final  168.88 input   66.30 | X-H torsion
[ 10763 10752 10751 10750 ] final -119.76 input  -60.55 | X-H torsion
[ 11005 11000 10999 10996 ] final  173.98 input  -57.11 | X-H torsion

> <Gold.Protein.ActiveResidues>
 VAL166  LYS551  ARG553  GLY616  TRP617  ASP618  TYR619  PRO620  LYS621  CYS622 
 ASP623  PHE694  ASN695  SER759  ASP760  ASP761  ALA762  ILE779  LEU786  VAL792 
 PHE793  MET794  SER795  GLU796  ALA797  LYS798  CYS799  TRP800  GLU811  SER814 

> <Gold.Protein.RotatedAtoms>
  150.8111  133.8420  159.3181 H   0  0  0  0  0  0  0  0  0  0  0  0  # atno 6907 bound_to 6896
  151.6205  135.1031  160.0110 H   0  0  0  0  0  0  0  0  0  0  0  0  # atno 6908 bound_to 6896
  152.4203  133.7065  159.6511 H   0  0  0  0  0  0  0  0  0  0  0  0  # atno 6909 bound_to 6896
  146.2207  139.8551  142.8615 H   0  0  0  0  0  0  0  0  0  0  0  0  # atno 7974 bound_to 7965
  156.1746  140.3112  155.9036 H   0  0  0  0  0  0  0  0  0  0  0  0  # atno 8008 bound_to 7997
  155.3514  140.0471  157.3063 H   0  0  0  0  0  0  0  0  0  0  0  0  # atno 8009 bound_to 7997
  154.5277  140.2220  155.8871 H   0  0  0  0  0  0  0  0  0  0  0  0  # atno 8010 bound_to 7997
  139.7960  144.6833  150.9829 H   0  0  0  0  0  0  0  0  0  0  0  0  # atno 10167 bound_to 10162
  157.0307  131.0258  151.2745 H   0  0  0  0  0  0  0  0  0  0  0  0  # atno 10718 bound_to 10713
  154.8626  135.4227  154.2350 H   0  0  0  0  0  0  0  0  0  0  0  0  # atno 10763 bound_to 10752
  153.3327  135.6989  153.6940 H   0  0  0  0  0  0  0  0  0  0  0  0  # atno 10764 bound_to 10752
  153.5950  135.3547  155.2898 H   0  0  0  0  0  0  0  0  0  0  0  0  # atno 10765 bound_to 10752
  140.3463  134.7233  157.4237 H   0  0  0  0  0  0  0  0  0  0  0  0  # atno 11005 bound_to 11000
  145.2762  141.0124  143.3743 LP  0  0  0  0  0  0  0  0  0  0  0  0  # atno 17320 bound_to 7965
  144.9185  139.4440  143.6552 LP  0  0  0  0  0  0  0  0  0  0  0  0  # atno 17321 bound_to 7965
  140.7820  143.4331  151.0664 LP  0  0  0  0  0  0  0  0  0  0  0  0  # atno 17342 bound_to 10162
  139.8005  143.8090  152.3162 LP  0  0  0  0  0  0  0  0  0  0  0  0  # atno 17343 bound_to 10162
  157.5179  130.7980  149.7777 LP  0  0  0  0  0  0  0  0  0  0  0  0  # atno 17370 bound_to 10713
  156.0070  130.3851  150.2395 LP  0  0  0  0  0  0  0  0  0  0  0  0  # atno 17371 bound_to 10713
  140.0739  134.5824  155.8612 LP  0  0  0  0  0  0  0  0  0  0  0  0  # atno 17394 bound_to 11000
  141.2024  133.6625  156.6007 LP  0  0  0  0  0  0  0  0  0  0  0  0  # atno 17395 bound_to 11000

$$$$
