AV-unprocessed.smi:3330|AV-procd|sdf|12815|dock4
  -GOLD-   2272019183D 1   1.00000     0.00000
 Structure written by MMmdl.
 37 38  0  0  0  0  0  0  0  0  2 V2000
  151.8730  138.8970  158.9590 C   0  0  0  0  0  0  0  0  0  0  0  0
  150.5620  139.6182  158.5959 C   0  0  2  0  0  0  0  0  0  0  0  0
  149.6195  138.5908  158.1669 N   0  0  0  0  0  0  0  0  0  0  0  0
  149.4846  137.5428  159.1663 C   0  0  0  0  0  0  0  0  0  0  0  0
  148.0555  136.9824  159.1376 C   0  0  0  0  0  0  0  0  0  0  0  0
  147.8899  135.9258  160.1393 N   0  0  0  0  0  0  0  0  0  0  0  0
  148.0050  134.6201  159.8787 C   0  0  0  0  0  0  0  0  0  0  0  0
  148.2747  134.0837  158.8035 O   0  0  0  0  0  0  0  0  0  0  0  0
  147.7268  133.8736  161.1625 C   0  0  0  0  0  0  0  0  0  0  0  0
  147.4498  134.9471  162.0899 N   0  5  0  0  0  0  0  0  0  0  0  0
  147.5565  136.1237  161.4290 C   0  0  0  0  0  0  0  0  0  0  0  0
  147.3767  137.2482  161.8957 O   0  0  0  0  0  0  0  0  0  0  0  0
  150.7291  140.6772  157.4726 C   0  0  1  0  0  0  0  0  0  0  0  0
  149.3993  141.0602  156.7976 C   0  0  0  0  0  0  0  0  0  0  0  0
  151.3884  141.8804  157.9645 N   0  0  0  0  0  0  0  0  0  0  0  0
  151.0499  143.2008  157.7436 C   0  0  0  0  0  0  0  0  0  0  0  0
  151.9609  143.9728  158.4056 C   0  0  0  0  0  0  0  0  0  0  0  0
  152.8318  143.0237  159.0091 C   0  0  0  0  0  0  0  0  0  0  0  0
  152.4885  141.7742  158.7424 N   0  0  0  0  0  0  0  0  0  0  0  0
  152.6103  139.5835  159.3749 H   0  0  0  0  0  0  0  0  0  0  0  0
  152.3192  138.4199  158.0857 H   0  0  0  0  0  0  0  0  0  0  0  0
  151.7006  138.1237  159.7087 H   0  0  0  0  0  0  0  0  0  0  0  0
  150.1997  140.1100  159.5004 H   0  0  0  0  0  0  0  0  0  0  0  0
  148.7187  139.0106  157.9861 H   0  0  0  0  0  0  0  0  0  0  0  0
  150.2069  136.7508  158.9643 H   0  0  0  0  0  0  0  0  0  0  0  0
  149.7062  137.9416  160.1567 H   0  0  0  0  0  0  0  0  0  0  0  0
  147.3355  137.7820  159.3219 H   0  0  0  0  0  0  0  0  0  0  0  0
  147.8215  136.5971  158.1435 H   0  0  0  0  0  0  0  0  0  0  0  0
  146.8833  133.1969  161.0221 H   0  0  0  0  0  0  0  0  0  0  0  0
  148.5955  133.2765  161.4411 H   0  0  0  0  0  0  0  0  0  0  0  0
  151.3732  140.2491  156.7014 H   0  0  0  0  0  0  0  0  0  0  0  0
  148.9470  140.2067  156.2926 H   0  0  0  0  0  0  0  0  0  0  0  0
  149.5520  141.8334  156.0442 H   0  0  0  0  0  0  0  0  0  0  0  0
  148.6776  141.4390  157.5220 H   0  0  0  0  0  0  0  0  0  0  0  0
  150.1967  143.4770  157.1415 H   0  0  0  0  0  0  0  0  0  0  0  0
  152.0002  145.0510  158.4516 H   0  0  0  0  0  0  0  0  0  0  0  0
  153.6979  143.2040  159.6285 H   0  0  0  0  0  0  0  0  0  0  0  0
  1  2  1  0  0  0  0
  1 20  1  0  0  0  0
  1 21  1  0  0  0  0
  1 22  1  0  0  0  0
  2  3  1  0  0  0  0
  2 13  1  0  0  0  0
  2 23  1  0  0  0  0
  3  4  1  0  0  0  0
  3 24  1  0  0  0  0
  4  5  1  0  0  0  0
  4 25  1  0  0  0  0
  4 26  1  0  0  0  0
  5  6  1  0  0  0  0
  5 27  1  0  0  0  0
  5 28  1  0  0  0  0
  6 11  1  0  0  0  0
  6  7  1  0  0  0  0
  7  8  2  0  0  0  0
  7  9  1  0  0  0  0
  9 10  1  0  0  0  0
  9 29  1  0  0  0  0
  9 30  1  0  0  0  0
 10 11  1  0  0  0  0
 11 12  2  0  0  0  0
 13 14  1  0  0  0  0
 13 15  1  0  0  0  0
 13 31  1  0  0  0  0
 14 32  1  0  0  0  0
 14 33  1  0  0  0  0
 14 34  1  0  0  0  0
 15 19  1  0  0  0  0
 15 16  1  0  0  0  0
 16 17  2  0  0  0  0
 16 35  1  0  0  0  0
 17 18  1  0  0  0  0
 17 36  1  0  0  0  0
 18 19  2  0  0  0  0
 18 37  1  0  0  0  0
M  CHG  1  10  -1
M  END
> <s_m_source_file>
AV-unprocessed.smi

> <i_m_source_file_index>
3330

> <i_lp_mmshare_version>
43012

> <i_f3d_flags>
0

> <s_epik_input>
bjFbY0hdW2NIXVtjSF1uMVtDQEBIXShbQ0gzXSlbQ0BIXShbQ0gzXSlbTkhdW0NIMl1bQ0gyXU4yQyg9TylbQ0gyXVtOSF1DMj1P

> <s_epik_cmdline>
J2VwaWtfcHl0aG9uJywgJy1waCcsICc3LjAnLCAnLXRuJywgJzgnLCAnLW1hJywgJzIwMCcsICctbWV0YWxfYmluZGluZycsICctaW1hZScsICc8aW5maWxlLm1hZT4nLCAnLW9tYWUnLCAnPG91dGZpbGUubWFlPic=

> <r_lp_tautomer_probability>
1

> <r_epik_Ionization_Penalty>
8.77477

> <r_epik_Ionization_Penalty_Charging>
6.28461

> <r_epik_Ionization_Penalty_Neutral>
2.49016

> <r_epik_State_Penalty>
8.73376

> <r_epik_Charging_Adjusted_Penalty>
15.0184

> <i_epik_Tot_Q>
-1

> <i_epik_Tot_abs_Q>
1

> <r_epik_Metal_State_Penalty>
4.73175

> <b_epik_Metal_Only>
1

> <s_lp_Force_Field>
OPLS_2005

> <r_lp_Energy>
21.2445

> <b_lp_Chiralities_Consistent>
1

> <s_lp_Variant>
AV-unprocessed.smi:3330-15

> <Gold.Version>
5.8.1

> <Gold.Id.Protein>
6NUR|6NUR_protein|mol2

> <Gold.PLP.Fitness>
38.0890

> <Gold.PLP.PLP>
-32.1793

> <Gold.PLP.part.hbond>
-2.0000

> <Gold.PLP.part.metal>
0.0000

> <Gold.PLP.part.buried>
-5.4380

> <Gold.PLP.part.nonpolar>
-25.3405

> <Gold.PLP.part.repulsive>
0.0000

> <Gold.PLP.ligand.clash>
0.0000

> <Gold.PLP.ligand.torsion>
1.0905

> <Gold.PLP.Chemscore.Hbond>
1.6480

> <Gold.PLP.Chemscore.CHOScore>
1.0000

> <Gold.PLP.Chemscore.Metal>
0.0000

> <Gold.Chemscore.Hbonds>
donor molecule, donor type, donor heavy atom, donor atom, acceptor molecule, acceptor atom, score
      P1  H  6931  6943       L1    12  0.88
      P1  H  6934  6947       L1    12  0.75
      L1  C    16    35       P1  8028  1.00

> <Gold.PLP.Chemscore.Internal.Correction>
0.1468

> <Gold.Rescore>
     Score         DG    S(hbond)    S(metal)    S(lipo)     H(rot)  DE(clash)    DE(int)     intcor
     10.76     -12.72       1.73        0.00      67.59       2.52       0.00       1.96       ----

> <Gold.Chemscore.Fitness>
10.7615

> <Gold.Chemscore.DG>
-12.7246

> <Gold.Chemscore.ZeroCoef>
-5.4800

> <Gold.Chemscore.Hbond>
1.7298

> <Gold.Chemscore.Metal>
0.0000

> <Gold.Chemscore.Lipo>
67.5906

> <Gold.Chemscore.Internal_Hbond>
0.0000

> <Gold.Chemscore.DEClash>
0.0015

> <Gold.Chemscore.DEInternal>
1.9616

> <Gold.Chemscore.Rot>
2.5160

> <Gold.Chemscore.Internal.Correction>
   9.000000E+99

> <Gold.Chemscore.Hbonds>
donor molecule, donor type, donor heavy atom, donor atom, acceptor molecule, acceptor atom, score
      P1  H  6931  6943       L1    12  0.68
      P1  H  6934  6947       L1    12  0.70

> <Gold.Chemscore.Hbond.Weighted>
-5.7775

> <Gold.Chemscore.Metal.Weighted>
-0.0000

> <Gold.Chemscore.Lipo.Weighted>
-7.9081

> <Gold.Chemscore.Internal_Hbond.Weighted>
0.0000

> <Gold.Chemscore.DEClash.Weighted>
0.0015

> <Gold.Chemscore.DEInternal.Weighted>
1.9616

> <Gold.Chemscore.Rot.Weighted>
6.4410

> <Gold.Chemscore.Internal.Correction.Weighted>
   9.000000E+99

> <Gold.Protein.RotatedTorsions>
[ 6907 6896 6895 6894 ] final  -51.86 input  -60.11 | X-H torsion
[ 7974 7965 7964 7962 ] final -121.80 input  175.53 | X-H torsion
[ 8008 7997 7996 7995 ] final -115.52 input   59.86 | X-H torsion
[ 10167 10162 10161 10158 ] final  113.80 input  -65.29 | X-H torsion
[ 10718 10713 10712 10709 ] final  130.05 input   66.30 | X-H torsion
[ 10763 10752 10751 10750 ] final -152.54 input  -60.55 | X-H torsion
[ 11005 11000 10999 10996 ] final   82.89 input  -57.11 | X-H torsion

> <Gold.Protein.ActiveResidues>
 VAL166  LYS551  ARG553  GLY616  TRP617  ASP618  TYR619  PRO620  LYS621  CYS622 
 ASP623  PHE694  ASN695  SER759  ASP760  ASP761  ALA762  ILE779  LEU786  VAL792 
 PHE793  MET794  SER795  GLU796  ALA797  LYS798  CYS799  TRP800  GLU811  SER814 

> <Gold.Protein.RotatedAtoms>
  150.8572  134.7914  159.7054 H   0  0  0  0  0  0  0  0  0  0  0  0  # atno 6907 bound_to 6896
  152.4620  134.5160  159.9778 H   0  0  0  0  0  0  0  0  0  0  0  0  # atno 6908 bound_to 6896
  151.5270  133.3418  159.2947 H   0  0  0  0  0  0  0  0  0  0  0  0  # atno 6909 bound_to 6896
  145.0364  140.8109  143.4292 H   0  0  0  0  0  0  0  0  0  0  0  0  # atno 7974 bound_to 7965
  155.0534  140.0393  157.2551 H   0  0  0  0  0  0  0  0  0  0  0  0  # atno 8008 bound_to 7997
  154.7119  140.2694  155.6597 H   0  0  0  0  0  0  0  0  0  0  0  0  # atno 8009 bound_to 7997
  156.2792  140.2720  156.1763 H   0  0  0  0  0  0  0  0  0  0  0  0  # atno 8010 bound_to 7997
  139.6435  144.7125  151.2190 H   0  0  0  0  0  0  0  0  0  0  0  0  # atno 10167 bound_to 10162
  157.5097  131.1096  150.9310 H   0  0  0  0  0  0  0  0  0  0  0  0  # atno 10718 bound_to 10713
  154.7987  135.3234  154.7602 H   0  0  0  0  0  0  0  0  0  0  0  0  # atno 10763 bound_to 10752
  153.8275  135.6882  153.4823 H   0  0  0  0  0  0  0  0  0  0  0  0  # atno 10764 bound_to 10752
  153.1692  135.4630  154.9822 H   0  0  0  0  0  0  0  0  0  0  0  0  # atno 10765 bound_to 10752
  139.9048  134.8105  156.2236 H   0  0  0  0  0  0  0  0  0  0  0  0  # atno 11005 bound_to 11000
  145.1704  139.2407  143.5345 LP  0  0  0  0  0  0  0  0  0  0  0  0  # atno 17320 bound_to 7965
  146.3504  140.1453  142.8593 LP  0  0  0  0  0  0  0  0  0  0  0  0  # atno 17321 bound_to 7965
  140.7503  143.6271  150.8458 LP  0  0  0  0  0  0  0  0  0  0  0  0  # atno 17342 bound_to 10162
  139.9911  143.5845  152.2909 LP  0  0  0  0  0  0  0  0  0  0  0  0  # atno 17343 bound_to 10162
  156.9954  130.5579  149.5307 LP  0  0  0  0  0  0  0  0  0  0  0  0  # atno 17370 bound_to 10713
  156.0281  130.5374  150.8462 LP  0  0  0  0  0  0  0  0  0  0  0  0  # atno 17371 bound_to 10713
  141.0390  133.6948  156.1564 LP  0  0  0  0  0  0  0  0  0  0  0  0  # atno 17394 bound_to 11000
  140.6984  134.4591  157.5587 LP  0  0  0  0  0  0  0  0  0  0  0  0  # atno 17395 bound_to 11000

$$$$
