AV-unprocessed.smi:151|AV-procd|sdf|1245|dock8
  -GOLD-   2262018463D 1   1.00000     0.00000
 Structure written by MMmdl.
 56 59  0  0  0  0  0  0  0  0  1 V2000
  148.2506  131.8622  157.8658 C   0  0  0  0  0  0  0  0  0  0  0  0
  149.5507  132.5405  157.4127 C   0  0  0  0  0  0  0  0  0  0  0  0
  150.5352  131.5991  156.6693 C   0  0  1  0  0  0  0  0  0  0  0  0
  151.1923  130.5995  157.6476 C   0  0  0  0  0  0  0  0  0  0  0  0
  152.0464  129.6869  156.9626 O   0  0  0  0  0  0  0  0  0  0  0  0
  151.4229  128.9276  155.9254 C   0  0  0  0  0  0  0  0  0  0  0  0
  152.5600  128.1476  155.2475 C   0  0  0  0  0  0  0  0  0  0  0  0
  150.3918  127.9309  156.4968 C   0  0  0  0  0  0  0  0  0  0  0  0
  150.7874  129.9095  154.9207 C   0  0  0  0  0  0  0  0  0  0  0  0
  149.8882  130.8454  155.5890 N   0  0  0  0  0  0  0  0  0  0  0  0
  149.1873  131.5846  154.6997 C   0  0  0  0  0  0  0  0  0  0  0  0
  149.3046  132.9386  154.6949 N   0  0  0  0  0  0  0  0  0  0  0  0
  148.5921  133.6640  153.8278 C   0  0  0  0  0  0  0  0  0  0  0  0
  147.7209  133.2458  152.9070 N   0  0  0  0  0  0  0  0  0  0  0  0
  147.6001  131.8861  152.9137 C   0  0  0  0  0  0  0  0  0  0  0  0
  148.2961  130.9883  153.7702 C   0  0  0  0  0  0  0  0  0  0  0  0
  147.9238  129.6792  153.4979 N   0  0  0  0  0  0  0  0  0  0  0  0
  147.0527  129.7949  152.5324 C   0  0  0  0  0  0  0  0  0  0  0  0
  146.7944  131.0842  152.1206 N   0  0  0  0  0  0  0  0  0  0  0  0
  145.8807  131.4840  151.0868 C   0  0  0  0  0  0  0  0  0  0  0  0
  146.1637  132.7076  150.2129 C   0  0  0  0  0  0  0  0  0  0  0  0
  144.6642  133.0814  150.2244 C   0  0  0  0  0  0  0  0  0  0  0  0
  144.3654  134.5513  150.5572 C   0  0  0  0  0  0  0  0  0  0  0  0
  145.1718  135.4261  149.7946 O   0  0  0  0  0  0  0  0  0  0  0  0
  143.8410  132.7203  148.9688 C   0  0  0  0  0  0  0  0  0  0  0  0
  142.6481  132.0245  149.2707 O   0  0  0  0  0  0  0  0  0  0  0  0
  144.5280  132.1169  151.4247 C   0  0  0  0  0  0  0  0  0  0  0  0
  147.6511  132.5459  158.4671 H   0  0  0  0  0  0  0  0  0  0  0  0
  148.4578  130.9818  158.4745 H   0  0  0  0  0  0  0  0  0  0  0  0
  147.6365  131.5540  157.0202 H   0  0  0  0  0  0  0  0  0  0  0  0
  149.3132  133.3987  156.7828 H   0  0  0  0  0  0  0  0  0  0  0  0
  150.0210  132.9465  158.3083 H   0  0  0  0  0  0  0  0  0  0  0  0
  151.3237  132.2062  156.2216 H   0  0  0  0  0  0  0  0  0  0  0  0
  151.8080  131.1280  158.3744 H   0  0  0  0  0  0  0  0  0  0  0  0
  150.4392  130.0588  158.2210 H   0  0  0  0  0  0  0  0  0  0  0  0
  152.1892  127.5472  154.4162 H   0  0  0  0  0  0  0  0  0  0  0  0
  153.0498  127.4734  155.9511 H   0  0  0  0  0  0  0  0  0  0  0  0
  153.3226  128.8210  154.8548 H   0  0  0  0  0  0  0  0  0  0  0  0
  150.0069  127.2777  155.7132 H   0  0  0  0  0  0  0  0  0  0  0  0
  149.5315  128.4299  156.9422 H   0  0  0  0  0  0  0  0  0  0  0  0
  150.8404  127.2978  157.2627 H   0  0  0  0  0  0  0  0  0  0  0  0
  151.5735  130.4728  154.4151 H   0  0  0  0  0  0  0  0  0  0  0  0
  150.2477  129.3578  154.1491 H   0  0  0  0  0  0  0  0  0  0  0  0
  148.7376  134.7327  153.8815 H   0  0  0  0  0  0  0  0  0  0  0  0
  146.5699  128.9338  152.0932 H   0  0  0  0  0  0  0  0  0  0  0  0
  145.7295  130.6081  150.4543 H   0  0  0  0  0  0  0  0  0  0  0  0
  146.7880  133.4491  150.7131 H   0  0  0  0  0  0  0  0  0  0  0  0
  146.5645  132.4680  149.2276 H   0  0  0  0  0  0  0  0  0  0  0  0
  143.3167  134.7924  150.3800 H   0  0  0  0  0  0  0  0  0  0  0  0
  144.5561  134.7585  151.6109 H   0  0  0  0  0  0  0  0  0  0  0  0
  145.5456  134.9388  149.0761 H   0  0  0  0  0  0  0  0  0  0  0  0
  143.5697  133.6190  148.4138 H   0  0  0  0  0  0  0  0  0  0  0  0
  144.4185  132.0953  148.2872 H   0  0  0  0  0  0  0  0  0  0  0  0
  141.9522  132.6551  149.3771 H   0  0  0  0  0  0  0  0  0  0  0  0
  143.6868  131.4257  151.3627 H   0  0  0  0  0  0  0  0  0  0  0  0
  144.5285  132.6304  152.3866 H   0  0  0  0  0  0  0  0  0  0  0  0
  1  2  1  0  0  0  0
  1 28  1  0  0  0  0
  1 29  1  0  0  0  0
  1 30  1  0  0  0  0
  2  3  1  0  0  0  0
  2 31  1  0  0  0  0
  2 32  1  0  0  0  0
  3 10  1  0  0  0  0
  3  4  1  0  0  0  0
  3 33  1  0  0  0  0
  4  5  1  0  0  0  0
  4 34  1  0  0  0  0
  4 35  1  0  0  0  0
  5  6  1  0  0  0  0
  6  7  1  0  0  0  0
  6  8  1  0  0  0  0
  6  9  1  0  0  0  0
  7 36  1  0  0  0  0
  7 37  1  0  0  0  0
  7 38  1  0  0  0  0
  8 39  1  0  0  0  0
  8 40  1  0  0  0  0
  8 41  1  0  0  0  0
  9 10  1  0  0  0  0
  9 42  1  0  0  0  0
  9 43  1  0  0  0  0
 10 11  1  0  0  0  0
 11 16  1  0  0  0  0
 11 12  2  0  0  0  0
 12 13  1  0  0  0  0
 13 14  2  0  0  0  0
 13 44  1  0  0  0  0
 14 15  1  0  0  0  0
 15 19  1  0  0  0  0
 15 16  2  0  0  0  0
 16 17  1  0  0  0  0
 17 18  2  0  0  0  0
 18 19  1  0  0  0  0
 18 45  1  0  0  0  0
 19 20  1  0  0  0  0
 20 27  1  0  0  0  0
 20 21  1  0  0  0  0
 20 46  1  0  0  0  0
 21 22  1  0  0  0  0
 21 47  1  0  0  0  0
 21 48  1  0  0  0  0
 22 23  1  0  0  0  0
 22 25  1  0  0  0  0
 22 27  1  0  0  0  0
 23 24  1  0  0  0  0
 23 49  1  0  0  0  0
 23 50  1  0  0  0  0
 24 51  1  0  0  0  0
 25 26  1  0  0  0  0
 25 52  1  0  0  0  0
 25 53  1  0  0  0  0
 26 54  1  0  0  0  0
 27 55  1  0  0  0  0
 27 56  1  0  0  0  0
M  END
> <s_m_source_file>
AV-unprocessed.smi

> <i_m_source_file_index>
151

> <i_lp_mmshare_version>
43012

> <i_f3d_flags>
0

> <s_epik_input>
W0NIM11DMShbQ0gzXSlPW0NIMl1bQ0BASF0oW0NIMl1bQ0gzXSlOKFtDSDJdMSljKG5bY0hdbjIpYyhjMjMpbltjSF1uM1tDSF0oW0NIMl00KVtDSDJdQzQoW0NIMl1bT0hdKVtDSDJdW09IXQ==

> <s_epik_cmdline>
J2VwaWtfcHl0aG9uJywgJy1waCcsICc3LjAnLCAnLXRuJywgJzgnLCAnLW1hJywgJzIwMCcsICctbWV0YWxfYmluZGluZycsICctaW1hZScsICc8aW5maWxlLm1hZT4nLCAnLW9tYWUnLCAnPG91dGZpbGUubWFlPic=

> <r_lp_tautomer_probability>
1

> <r_epik_Ionization_Penalty>
0.000102837

> <r_epik_Ionization_Penalty_Charging>
0

> <r_epik_Ionization_Penalty_Neutral>
0.000102837

> <r_epik_State_Penalty>
-0

> <r_epik_Charging_Adjusted_Penalty>
0

> <i_epik_Tot_Q>
0

> <i_epik_Tot_abs_Q>
0

> <r_epik_Metal_State_Penalty>
-0

> <b_epik_Metal_Only>
0

> <s_lp_Force_Field>
OPLS_2005

> <r_lp_Energy>
49.3626

> <b_lp_Chiralities_Consistent>
1

> <s_lp_Variant>
AV-unprocessed.smi:151-2

> <Gold.Version>
5.8.1

> <Gold.Id.Protein>
6NUR|6NUR_protein|mol2

> <Gold.PLP.Fitness>
47.5147

> <Gold.PLP.PLP>
-39.3735

> <Gold.PLP.part.hbond>
-3.4420

> <Gold.PLP.part.metal>
0.0000

> <Gold.PLP.part.buried>
-2.3445

> <Gold.PLP.part.nonpolar>
-33.4522

> <Gold.PLP.part.repulsive>
0.3123

> <Gold.PLP.ligand.clash>
0.0000

> <Gold.PLP.ligand.torsion>
1.9585

> <Gold.PLP.Chemscore.Hbond>
2.9663

> <Gold.PLP.Chemscore.CHOScore>
0.8799

> <Gold.PLP.Chemscore.Metal>
0.0000

> <Gold.Chemscore.Hbonds>
donor molecule, donor type, donor heavy atom, donor atom, acceptor molecule, acceptor atom, score
      L1  H    24    51       P1  7921  1.00
      L1  H    26    54       P1 10186  1.00
      P1  H 10785 10796       L1    26  1.00
      L1  C    13    44       P1  7948  0.86

> <Gold.PLP.Chemscore.Internal.Correction>
0.5198

> <Gold.Rescore>
     Score         DG    S(hbond)    S(metal)    S(lipo)     H(rot)  DE(clash)    DE(int)     intcor
     10.38     -14.34       2.26        0.00      82.64       3.26       0.36       3.60       ----

> <Gold.Chemscore.Fitness>
10.3811

> <Gold.Chemscore.DG>
-14.3403

> <Gold.Chemscore.ZeroCoef>
-5.4800

> <Gold.Chemscore.Hbond>
2.2562

> <Gold.Chemscore.Metal>
0.0000

> <Gold.Chemscore.Lipo>
82.6425

> <Gold.Chemscore.Internal_Hbond>
0.0000

> <Gold.Chemscore.DEClash>
0.3635

> <Gold.Chemscore.DEInternal>
3.5957

> <Gold.Chemscore.Rot>
3.2596

> <Gold.Chemscore.Internal.Correction>
   9.000000E+99

> <Gold.Chemscore.Hbonds>
donor molecule, donor type, donor heavy atom, donor atom, acceptor molecule, acceptor atom, score
      L1  H    24    51       P1  7921  0.93
      L1  H    26    54       P1 10186  0.96
      P1  H 10785 10796       L1    26  0.24

> <Gold.Chemscore.Hbond.Weighted>
-7.5358

> <Gold.Chemscore.Metal.Weighted>
-0.0000

> <Gold.Chemscore.Lipo.Weighted>
-9.6692

> <Gold.Chemscore.Internal_Hbond.Weighted>
0.0000

> <Gold.Chemscore.DEClash.Weighted>
0.3635

> <Gold.Chemscore.DEInternal.Weighted>
3.5957

> <Gold.Chemscore.Rot.Weighted>
8.3447

> <Gold.Chemscore.Internal.Correction.Weighted>
   9.000000E+99

> <Gold.Protein.RotatedTorsions>
[ 6907 6896 6895 6894 ] final  -75.92 input  -60.11 | X-H torsion
[ 7974 7965 7964 7962 ] final  -41.96 input  175.53 | X-H torsion
[ 8008 7997 7996 7995 ] final   69.96 input   59.86 | X-H torsion
[ 10167 10162 10161 10158 ] final  -38.65 input  -65.29 | X-H torsion
[ 10718 10713 10712 10709 ] final  -85.50 input   66.30 | X-H torsion
[ 10763 10752 10751 10750 ] final  -72.98 input  -60.55 | X-H torsion
[ 11005 11000 10999 10996 ] final -127.86 input  -57.11 | X-H torsion

> <Gold.Protein.ActiveResidues>
 VAL166  LYS551  ARG553  GLY616  TRP617  ASP618  TYR619  PRO620  LYS621  CYS622 
 ASP623  PHE694  ASN695  SER759  ASP760  ASP761  ALA762  ILE779  LEU786  VAL792 
 PHE793  MET794  SER795  GLU796  ALA797  LYS798  CYS799  TRP800  GLU811  SER814 

> <Gold.Protein.RotatedAtoms>
  150.7043  134.4649  159.5397 H   0  0  0  0  0  0  0  0  0  0  0  0  # atno 6907 bound_to 6896
  152.2316  134.8313  160.0482 H   0  0  0  0  0  0  0  0  0  0  0  0  # atno 6908 bound_to 6896
  151.9127  133.3530  159.3906 H   0  0  0  0  0  0  0  0  0  0  0  0  # atno 6909 bound_to 6896
  146.0162  140.6905  142.9200 H   0  0  0  0  0  0  0  0  0  0  0  0  # atno 7974 bound_to 7965
  155.7316  140.3492  155.5062 H   0  0  0  0  0  0  0  0  0  0  0  0  # atno 8008 bound_to 7997
  155.9177  140.1061  157.1252 H   0  0  0  0  0  0  0  0  0  0  0  0  # atno 8009 bound_to 7997
  154.4065  140.1255  156.4626 H   0  0  0  0  0  0  0  0  0  0  0  0  # atno 8010 bound_to 7997
  140.7086  143.3264  151.2671 H   0  0  0  0  0  0  0  0  0  0  0  0  # atno 10167 bound_to 10162
  155.9996  130.4733  150.4571 H   0  0  0  0  0  0  0  0  0  0  0  0  # atno 10718 bound_to 10713
  154.4532  135.5912  153.6206 H   0  0  0  0  0  0  0  0  0  0  0  0  # atno 10763 bound_to 10752
  152.9815  135.6026  154.3578 H   0  0  0  0  0  0  0  0  0  0  0  0  # atno 10764 bound_to 10752
  154.3442  135.2841  155.2385 H   0  0  0  0  0  0  0  0  0  0  0  0  # atno 10765 bound_to 10752
  140.9565  134.0995  157.4011 H   0  0  0  0  0  0  0  0  0  0  0  0  # atno 11005 bound_to 11000
  144.6972  140.3485  143.7186 LP  0  0  0  0  0  0  0  0  0  0  0  0  # atno 17320 bound_to 7965
  145.7265  139.1724  143.2454 LP  0  0  0  0  0  0  0  0  0  0  0  0  # atno 17321 bound_to 7965
  139.6733  143.9982  152.2766 LP  0  0  0  0  0  0  0  0  0  0  0  0  # atno 17342 bound_to 10162
  139.9587  144.6572  150.8100 LP  0  0  0  0  0  0  0  0  0  0  0  0  # atno 17343 bound_to 10162
  157.2599  131.0564  151.2327 LP  0  0  0  0  0  0  0  0  0  0  0  0  # atno 17370 bound_to 10713
  157.3445  130.7050  149.6402 LP  0  0  0  0  0  0  0  0  0  0  0  0  # atno 17371 bound_to 10713
  139.8864  135.0081  156.6494 LP  0  0  0  0  0  0  0  0  0  0  0  0  # atno 17394 bound_to 11000
  140.7529  133.8882  155.8360 LP  0  0  0  0  0  0  0  0  0  0  0  0  # atno 17395 bound_to 11000

$$$$
