AV-unprocessed.smi:412|AV-procd|sdf|2511|dock2
  -GOLD-   2262022463D 1   1.00000     0.00000
 Structure written by MMmdl.
 36 38  0  0  0  0  0  0  0  0  1 V2000
  151.4400  138.1045  154.6270 C   0  0  0  0  0  0  0  0  0  0  0  0
  150.7674  139.2621  155.2042 N   0  0  0  0  0  0  0  0  0  0  0  0
  151.1411  139.9593  156.3024 C   0  0  0  0  0  0  0  0  0  0  0  0
  152.1236  139.7298  157.0079 O   0  0  0  0  0  0  0  0  0  0  0  0
  150.2483  140.9606  156.4880 N   0  0  0  0  0  0  0  0  0  0  0  0
  150.2724  141.9598  157.5557 C   0  0  0  0  0  0  0  0  0  0  0  0
  151.5290  142.8499  157.4835 C   0  0  1  0  0  0  0  0  0  0  0  0
  151.3957  143.7292  156.3836 O   0  0  0  0  0  0  0  0  0  0  0  0
  151.7336  143.6098  158.7858 C   0  0  0  0  0  0  0  0  0  0  0  0
  152.0212  142.9226  159.9865 C   0  0  0  0  0  0  0  0  0  0  0  0
  152.2151  143.6367  161.1849 C   0  0  0  0  0  0  0  0  0  0  0  0
  152.1285  145.0419  161.1896 C   0  0  0  0  0  0  0  0  0  0  0  0
  151.8500  145.7329  159.9949 C   0  0  0  0  0  0  0  0  0  0  0  0
  151.6535  145.0190  158.7966 C   0  0  0  0  0  0  0  0  0  0  0  0
  149.2794  140.9053  155.4752 C   0  0  0  0  0  0  0  0  0  0  0  0
  148.1597  141.7155  155.2161 C   0  0  0  0  0  0  0  0  0  0  0  0
  147.3711  141.3874  154.0884 C   0  0  0  0  0  0  0  0  0  0  0  0
  147.7078  140.2845  153.2612 C   0  0  0  0  0  0  0  0  0  0  0  0
  148.8415  139.4867  153.5432 C   0  0  0  0  0  0  0  0  0  0  0  0
  149.6070  139.8354  154.6691 C   0  0  0  0  0  0  0  0  0  0  0  0
  152.3139  137.8058  155.2073 H   0  0  0  0  0  0  0  0  0  0  0  0
  151.7707  138.3291  153.6127 H   0  0  0  0  0  0  0  0  0  0  0  0
  150.7580  137.2550  154.5845 H   0  0  0  0  0  0  0  0  0  0  0  0
  149.3626  142.5611  157.5578 H   0  0  0  0  0  0  0  0  0  0  0  0
  150.2679  141.4194  158.5039 H   0  0  0  0  0  0  0  0  0  0  0  0
  152.4126  142.2348  157.3070 H   0  0  0  0  0  0  0  0  0  0  0  0
  150.4861  143.9726  156.3042 H   0  0  0  0  0  0  0  0  0  0  0  0
  152.0963  141.8451  159.9922 H   0  0  0  0  0  0  0  0  0  0  0  0
  152.4318  143.1061  162.1004 H   0  0  0  0  0  0  0  0  0  0  0  0
  152.2779  145.5897  162.1083 H   0  0  0  0  0  0  0  0  0  0  0  0
  151.7882  146.8112  159.9972 H   0  0  0  0  0  0  0  0  0  0  0  0
  151.4432  145.5588  157.8847 H   0  0  0  0  0  0  0  0  0  0  0  0
  147.9089  142.5561  155.8456 H   0  0  0  0  0  0  0  0  0  0  0  0
  146.5025  141.9847  153.8536 H   0  0  0  0  0  0  0  0  0  0  0  0
  147.0917  140.0521  152.4052 H   0  0  0  0  0  0  0  0  0  0  0  0
  149.1061  138.6467  152.9179 H   0  0  0  0  0  0  0  0  0  0  0  0
  1  2  1  0  0  0  0
  1 21  1  0  0  0  0
  1 22  1  0  0  0  0
  1 23  1  0  0  0  0
  2 20  1  0  0  0  0
  2  3  1  0  0  0  0
  3  4  2  0  0  0  0
  3  5  1  0  0  0  0
  5  6  1  0  0  0  0
  5 15  1  0  0  0  0
  6  7  1  0  0  0  0
  6 24  1  0  0  0  0
  6 25  1  0  0  0  0
  7  8  1  0  0  0  0
  7  9  1  0  0  0  0
  7 26  1  0  0  0  0
  8 27  1  0  0  0  0
  9 14  1  0  0  0  0
  9 10  2  0  0  0  0
 10 11  1  0  0  0  0
 10 28  1  0  0  0  0
 11 12  2  0  0  0  0
 11 29  1  0  0  0  0
 12 13  1  0  0  0  0
 12 30  1  0  0  0  0
 13 14  2  0  0  0  0
 13 31  1  0  0  0  0
 14 32  1  0  0  0  0
 15 20  2  0  0  0  0
 15 16  1  0  0  0  0
 16 17  2  0  0  0  0
 16 33  1  0  0  0  0
 17 18  1  0  0  0  0
 17 34  1  0  0  0  0
 18 19  2  0  0  0  0
 18 35  1  0  0  0  0
 19 20  1  0  0  0  0
 19 36  1  0  0  0  0
M  END
> <s_m_source_file>
AV-unprocessed.smi

> <i_m_source_file_index>
412

> <i_lp_mmshare_version>
43012

> <i_f3d_flags>
0

> <s_epik_input>
W2NIXTFbY0hdW2NIXVtjSF1jKGMxMiluKFtDSDNdKWMoPU8pbjJbQ0gyXVtDQEhdKFtPSF0pYzNbY0hdW2NIXVtjSF1bY0hdW2NIXTM=

> <s_epik_cmdline>
J2VwaWtfcHl0aG9uJywgJy1waCcsICc3LjAnLCAnLXRuJywgJzgnLCAnLW1hJywgJzIwMCcsICctbWV0YWxfYmluZGluZycsICctaW1hZScsICc8aW5maWxlLm1hZT4nLCAnLW9tYWUnLCAnPG91dGZpbGUubWFlPic=

> <r_lp_tautomer_probability>
1

> <r_epik_Ionization_Penalty>
1.34619e-06

> <r_epik_Ionization_Penalty_Charging>
2.57375e-09

> <r_epik_Ionization_Penalty_Neutral>
1.34362e-06

> <r_epik_State_Penalty>
-0

> <r_epik_Charging_Adjusted_Penalty>
2.57375e-09

> <i_epik_Tot_Q>
0

> <i_epik_Tot_abs_Q>
0

> <r_epik_Metal_State_Penalty>
-0

> <b_epik_Metal_Only>
0

> <s_lp_Force_Field>
OPLS_2005

> <r_lp_Energy>
43.5229

> <b_lp_Chiralities_Consistent>
1

> <s_lp_Variant>
AV-unprocessed.smi:412-2

> <Gold.Version>
5.8.1

> <Gold.Id.Protein>
6NUR|6NUR_protein|mol2

> <Gold.PLP.Fitness>
51.1739

> <Gold.PLP.PLP>
-45.5554

> <Gold.PLP.part.hbond>
-2.0000

> <Gold.PLP.part.metal>
0.0000

> <Gold.PLP.part.buried>
4.1161

> <Gold.PLP.part.nonpolar>
-47.4375

> <Gold.PLP.part.repulsive>
0.0000

> <Gold.PLP.ligand.clash>
0.0645

> <Gold.PLP.ligand.torsion>
0.1645

> <Gold.PLP.Chemscore.Hbond>
2.0000

> <Gold.PLP.Chemscore.CHOScore>
0.0000

> <Gold.PLP.Chemscore.Metal>
0.0000

> <Gold.Chemscore.Hbonds>
donor molecule, donor type, donor heavy atom, donor atom, acceptor molecule, acceptor atom, score
      L1  H     8    27       P1  8028  1.00
      P1  H  7997  8008       L1     4  0.24

> <Gold.PLP.Chemscore.Internal.Correction>
0.0120

> <Gold.Rescore>
     Score         DG    S(hbond)    S(metal)    S(lipo)     H(rot)  DE(clash)    DE(int)     intcor
     19.92     -22.86       1.87        0.00     133.42       1.76       2.88       0.06       ----

> <Gold.Chemscore.Fitness>
19.9220

> <Gold.Chemscore.DG>
-22.8569

> <Gold.Chemscore.ZeroCoef>
-5.4800

> <Gold.Chemscore.Hbond>
1.8746

> <Gold.Chemscore.Metal>
0.0000

> <Gold.Chemscore.Lipo>
133.4171

> <Gold.Chemscore.Internal_Hbond>
0.0000

> <Gold.Chemscore.DEClash>
2.8769

> <Gold.Chemscore.DEInternal>
0.0581

> <Gold.Chemscore.Rot>
1.7555

> <Gold.Chemscore.Internal.Correction>
   9.000000E+99

> <Gold.Chemscore.Hbonds>
donor molecule, donor type, donor heavy atom, donor atom, acceptor molecule, acceptor atom, score
      L1  H     8    27       P1  8028  1.00
      P1  H  7997  8008       L1     4  0.25

> <Gold.Chemscore.Hbond.Weighted>
-6.2613

> <Gold.Chemscore.Metal.Weighted>
-0.0000

> <Gold.Chemscore.Lipo.Weighted>
-15.6098

> <Gold.Chemscore.Internal_Hbond.Weighted>
0.0000

> <Gold.Chemscore.DEClash.Weighted>
2.8769

> <Gold.Chemscore.DEInternal.Weighted>
0.0581

> <Gold.Chemscore.Rot.Weighted>
4.4942

> <Gold.Chemscore.Internal.Correction.Weighted>
   9.000000E+99

> <Gold.Protein.RotatedTorsions>
[ 6907 6896 6895 6894 ] final  -42.48 input  -60.11 | X-H torsion
[ 7974 7965 7964 7962 ] final  134.59 input  175.53 | X-H torsion
[ 8008 7997 7996 7995 ] final  -44.18 input   59.86 | X-H torsion
[ 10167 10162 10161 10158 ] final  -37.03 input  -65.29 | X-H torsion
[ 10718 10713 10712 10709 ] final -171.50 input   66.30 | X-H torsion
[ 10763 10752 10751 10750 ] final -178.56 input  -60.55 | X-H torsion
[ 11005 11000 10999 10996 ] final   33.91 input  -57.11 | X-H torsion

> <Gold.Protein.ActiveResidues>
 VAL166  LYS551  ARG553  GLY616  TRP617  ASP618  TYR619  PRO620  LYS621  CYS622 
 ASP623  PHE694  ASN695  SER759  ASP760  ASP761  ALA762  ILE779  LEU786  VAL792 
 PHE793  MET794  SER795  GLU796  ALA797  LYS798  CYS799  TRP800  GLU811  SER814 

> <Gold.Protein.RotatedAtoms>
  150.9547  134.8943  159.7693 H   0  0  0  0  0  0  0  0  0  0  0  0  # atno 6907 bound_to 6896
  152.5133  134.3756  159.9343 H   0  0  0  0  0  0  0  0  0  0  0  0  # atno 6908 bound_to 6896
  151.3771  133.3794  159.2740 H   0  0  0  0  0  0  0  0  0  0  0  0  # atno 6909 bound_to 6896
  144.9748  139.4566  143.5415 H   0  0  0  0  0  0  0  0  0  0  0  0  # atno 7974 bound_to 7965
  154.3997  140.1428  156.3641 H   0  0  0  0  0  0  0  0  0  0  0  0  # atno 8008 bound_to 7997
  155.8153  140.3471  155.5461 H   0  0  0  0  0  0  0  0  0  0  0  0  # atno 8009 bound_to 7997
  155.8344  140.0917  157.1763 H   0  0  0  0  0  0  0  0  0  0  0  0  # atno 8010 bound_to 7997
  140.7128  143.3369  151.2443 H   0  0  0  0  0  0  0  0  0  0  0  0  # atno 10167 bound_to 10162
  156.7419  130.9345  151.3110 H   0  0  0  0  0  0  0  0  0  0  0  0  # atno 10718 bound_to 10713
  154.5461  135.2809  155.1051 H   0  0  0  0  0  0  0  0  0  0  0  0  # atno 10763 bound_to 10752
  154.2515  135.6338  153.5246 H   0  0  0  0  0  0  0  0  0  0  0  0  # atno 10764 bound_to 10752
  152.9991  135.5584  154.6014 H   0  0  0  0  0  0  0  0  0  0  0  0  # atno 10765 bound_to 10752
  140.2583  134.3222  155.7866 H   0  0  0  0  0  0  0  0  0  0  0  0  # atno 11005 bound_to 11000
  146.3392  139.8984  142.8798 LP  0  0  0  0  0  0  0  0  0  0  0  0  # atno 17320 bound_to 7965
  145.2506  141.0042  143.3883 LP  0  0  0  0  0  0  0  0  0  0  0  0  # atno 17321 bound_to 7965
  139.6866  143.9763  152.2837 LP  0  0  0  0  0  0  0  0  0  0  0  0  # atno 17342 bound_to 10162
  139.9410  144.6681  150.8266 LP  0  0  0  0  0  0  0  0  0  0  0  0  # atno 17343 bound_to 10162
  157.6815  130.9144  150.0279 LP  0  0  0  0  0  0  0  0  0  0  0  0  # atno 17370 bound_to 10713
  156.1459  130.3642  149.9511 LP  0  0  0  0  0  0  0  0  0  0  0  0  # atno 17371 bound_to 10713
  141.2193  133.7394  156.9146 LP  0  0  0  0  0  0  0  0  0  0  0  0  # atno 17394 bound_to 11000
  140.1490  134.9243  157.2567 LP  0  0  0  0  0  0  0  0  0  0  0  0  # atno 17395 bound_to 11000

$$$$
