AV-unprocessed.smi:102|AV-procd|sdf|961|dock9
  -GOLD-   2262017503D 1   1.00000     0.00000
 Structure written by MMmdl.
 43 44  0  0  0  0  0  0  0  0  2 V2000
  144.5379  144.3532  161.5200 C   0  0  0  0  0  0  0  0  0  0  0  0
  145.7134  143.9110  160.6592 C   0  0  0  0  0  0  0  0  0  0  0  0
  146.8336  143.7420  161.1408 O   0  0  0  0  0  0  0  0  0  0  0  0
  145.3688  143.7421  159.3700 O   0  0  0  0  0  0  0  0  0  0  0  0
  146.3452  143.8451  158.3421 C   0  0  0  0  0  0  0  0  0  0  0  0
  147.0091  142.4838  158.0857 C   0  0  2  0  0  0  0  0  0  0  0  0
  147.4853  142.4025  156.7466 O   0  0  0  0  0  0  0  0  0  0  0  0
  147.5935  141.0634  156.3578 C   0  0  1  0  0  0  0  0  0  0  0  0
  149.0590  140.6837  156.2546 N   0  0  0  0  0  0  0  0  0  0  0  0
  149.9548  140.9657  157.2735 C   0  0  0  0  0  0  0  0  0  0  0  0
  151.2531  140.6141  157.1785 C   0  0  0  0  0  0  0  0  0  0  0  0
  152.0985  140.9000  158.1837 F   0  0  0  0  0  0  0  0  0  0  0  0
  151.7304  139.9234  155.9820 C   0  0  0  0  0  0  0  0  0  0  0  0
  152.9158  139.6052  155.9019 O   0  0  0  0  0  0  0  0  0  0  0  0
  150.8264  139.6586  154.9948 N   0  5  0  0  0  0  0  0  0  0  0  0
  149.5105  140.0099  155.0874 C   0  0  0  0  0  0  0  0  0  0  0  0
  148.6830  139.7646  154.2095 O   0  0  0  0  0  0  0  0  0  0  0  0
  146.8232  140.2238  157.4044 C   0  0  1  0  0  0  0  0  0  0  0  0
  147.7262  139.5538  158.2869 O   0  0  0  0  0  0  0  0  0  0  0  0
  148.4037  138.4649  157.8850 C   0  0  0  0  0  0  0  0  0  0  0  0
  149.3245  137.9241  158.9703 C   0  0  0  0  0  0  0  0  0  0  0  0
  148.3234  137.9231  156.7826 O   0  0  0  0  0  0  0  0  0  0  0  0
  146.0398  141.3083  158.1377 C   0  0  1  0  0  0  0  0  0  0  0  0
  145.6929  140.9555  159.4722 O   0  0  0  0  0  0  0  0  0  0  0  0
  144.9096  139.8886  159.7066 C   0  0  0  0  0  0  0  0  0  0  0  0
  144.7047  139.6354  161.1940 C   0  0  0  0  0  0  0  0  0  0  0  0
  144.4008  139.1608  158.8541 O   0  0  0  0  0  0  0  0  0  0  0  0
  144.1553  145.3134  161.1742 H   0  0  0  0  0  0  0  0  0  0  0  0
  144.8441  144.4567  162.5611 H   0  0  0  0  0  0  0  0  0  0  0  0
  143.7336  143.6192  161.4680 H   0  0  0  0  0  0  0  0  0  0  0  0
  145.8217  144.1618  157.4398 H   0  0  0  0  0  0  0  0  0  0  0  0
  147.0861  144.6163  158.5578 H   0  0  0  0  0  0  0  0  0  0  0  0
  147.8312  142.3162  158.7841 H   0  0  0  0  0  0  0  0  0  0  0  0
  147.1931  140.9740  155.3466 H   0  0  0  0  0  0  0  0  0  0  0  0
  149.6257  141.4731  158.1673 H   0  0  0  0  0  0  0  0  0  0  0  0
  146.1638  139.5257  156.8872 H   0  0  0  0  0  0  0  0  0  0  0  0
  148.9185  138.1347  159.9600 H   0  0  0  0  0  0  0  0  0  0  0  0
  150.3071  138.3897  158.8931 H   0  0  0  0  0  0  0  0  0  0  0  0
  149.4420  136.8451  158.8677 H   0  0  0  0  0  0  0  0  0  0  0  0
  145.1511  141.5692  157.5603 H   0  0  0  0  0  0  0  0  0  0  0  0
  144.3688  140.5449  161.6923 H   0  0  0  0  0  0  0  0  0  0  0  0
  145.6393  139.3121  161.6525 H   0  0  0  0  0  0  0  0  0  0  0  0
  143.9558  138.8588  161.3508 H   0  0  0  0  0  0  0  0  0  0  0  0
  1  2  1  0  0  0  0
  1 28  1  0  0  0  0
  1 29  1  0  0  0  0
  1 30  1  0  0  0  0
  2  3  2  0  0  0  0
  2  4  1  0  0  0  0
  4  5  1  0  0  0  0
  5  6  1  0  0  0  0
  5 31  1  0  0  0  0
  5 32  1  0  0  0  0
  6 23  1  0  0  0  0
  6  7  1  0  0  0  0
  6 33  1  0  0  0  0
  7  8  1  0  0  0  0
  8  9  1  0  0  0  0
  8 18  1  0  0  0  0
  8 34  1  0  0  0  0
  9 16  1  0  0  0  0
  9 10  1  0  0  0  0
 10 11  2  0  0  0  0
 10 35  1  0  0  0  0
 11 12  1  0  0  0  0
 11 13  1  0  0  0  0
 13 14  2  0  0  0  0
 13 15  1  0  0  0  0
 15 16  1  0  0  0  0
 16 17  2  0  0  0  0
 18 19  1  0  0  0  0
 18 23  1  0  0  0  0
 18 36  1  0  0  0  0
 19 20  1  0  0  0  0
 20 21  1  0  0  0  0
 20 22  2  0  0  0  0
 21 37  1  0  0  0  0
 21 38  1  0  0  0  0
 21 39  1  0  0  0  0
 23 24  1  0  0  0  0
 23 40  1  0  0  0  0
 24 25  1  0  0  0  0
 25 26  1  0  0  0  0
 25 27  2  0  0  0  0
 26 41  1  0  0  0  0
 26 42  1  0  0  0  0
 26 43  1  0  0  0  0
M  CHG  1  15  -1
M  END
> <s_m_source_file>
AV-unprocessed.smi

> <i_m_source_file_index>
102

> <i_lp_mmshare_version>
43012

> <i_f3d_flags>
0

> <s_epik_input>
W0NIM11DKD1PKU9bQ0gyXVtDQEBIXTFPW0NASF0oW0NAQEhdKE9DKD1PKVtDSDNdKVtDQEhdMU9DKD1PKVtDSDNdKW4yW2NIXWMoRiljKD1PKVtuSF1jMj1P

> <s_epik_cmdline>
J2VwaWtfcHl0aG9uJywgJy1waCcsICc3LjAnLCAnLXRuJywgJzgnLCAnLW1hJywgJzIwMCcsICctbWV0YWxfYmluZGluZycsICctaW1hZScsICc8aW5maWxlLm1hZT4nLCAnLW9tYWUnLCAnPG91dGZpbGUubWFlPic=

> <r_epik_Ionization_Penalty>
1.40304

> <r_epik_Ionization_Penalty_Charging>
1.43915e-08

> <r_epik_Ionization_Penalty_Neutral>
1.40304

> <r_epik_State_Penalty>
1.48536

> <r_epik_Charging_Adjusted_Penalty>
1.48536

> <i_epik_Tot_Q>
-1

> <i_epik_Tot_abs_Q>
1

> <r_epik_Metal_State_Penalty>
0.00663881

> <b_epik_Metal_Only>
0

> <s_epik_Chemistry_Notes>
This compound has an ester and may undergo hydrolysis at high or low pH. This compound contains an acetal/aminal-like group ( X-CH(R)-Y where X, Y are N, S, or O) that may be acid/base labile, releasing an aldehyde.

> <s_lp_Force_Field>
OPLS_2005

> <r_lp_Energy>
23.8996

> <b_lp_Chiralities_Consistent>
1

> <s_lp_Variant>
AV-unprocessed.smi:102-17

> <Gold.Version>
5.8.1

> <Gold.Id.Protein>
6NUR|6NUR_protein|mol2

> <Gold.PLP.Fitness>
38.4716

> <Gold.PLP.PLP>
-30.1252

> <Gold.PLP.part.hbond>
-5.6295

> <Gold.PLP.part.metal>
0.0000

> <Gold.PLP.part.buried>
-6.6588

> <Gold.PLP.part.nonpolar>
-18.9486

> <Gold.PLP.part.repulsive>
1.8248

> <Gold.PLP.ligand.clash>
0.0000

> <Gold.PLP.ligand.torsion>
1.0685

> <Gold.PLP.Chemscore.Hbond>
3.2536

> <Gold.PLP.Chemscore.CHOScore>
0.0000

> <Gold.PLP.Chemscore.Metal>
0.0000

> <Gold.Chemscore.Hbonds>
donor molecule, donor type, donor heavy atom, donor atom, acceptor molecule, acceptor atom, score
      P1  H  6933  6944       L1     3  0.63
      P1  H  7989  7998       L1    15  0.82
      P1  H  7997  8010       L1    14  1.00

> <Gold.PLP.Chemscore.Internal.Correction>
0.7226

> <Gold.Rescore>
     Score         DG    S(hbond)    S(metal)    S(lipo)     H(rot)  DE(clash)    DE(int)     intcor
     -0.39      -5.93       2.49        0.00      20.09       4.00       0.56       5.75       ----

> <Gold.Chemscore.Fitness>
-0.3856

> <Gold.Chemscore.DG>
-5.9261

> <Gold.Chemscore.ZeroCoef>
-5.4800

> <Gold.Chemscore.Hbond>
2.4918

> <Gold.Chemscore.Metal>
0.0000

> <Gold.Chemscore.Lipo>
20.0935

> <Gold.Chemscore.Internal_Hbond>
0.0000

> <Gold.Chemscore.DEClash>
0.5569

> <Gold.Chemscore.DEInternal>
5.7548

> <Gold.Chemscore.Rot>
3.9951

> <Gold.Chemscore.Internal.Correction>
   9.000000E+99

> <Gold.Chemscore.Hbonds>
donor molecule, donor type, donor heavy atom, donor atom, acceptor molecule, acceptor atom, score
      P1  H  6933  6944       L1     3  0.62
      P1  H  7989  7998       L1    15  0.10
      P1  H  7997  8010       L1    14  0.97

> <Gold.Chemscore.Hbond.Weighted>
-8.3226

> <Gold.Chemscore.Metal.Weighted>
-0.0000

> <Gold.Chemscore.Lipo.Weighted>
-2.3509

> <Gold.Chemscore.Internal_Hbond.Weighted>
0.0000

> <Gold.Chemscore.DEClash.Weighted>
0.5569

> <Gold.Chemscore.DEInternal.Weighted>
5.7548

> <Gold.Chemscore.Rot.Weighted>
10.2274

> <Gold.Chemscore.Internal.Correction.Weighted>
   9.000000E+99

> <Gold.Protein.RotatedTorsions>
[ 6907 6896 6895 6894 ] final -125.63 input  -60.11 | X-H torsion
[ 7974 7965 7964 7962 ] final  140.12 input  175.53 | X-H torsion
[ 8008 7997 7996 7995 ] final   93.10 input   59.86 | X-H torsion
[ 10167 10162 10161 10158 ] final   67.03 input  -65.29 | X-H torsion
[ 10718 10713 10712 10709 ] final  -17.49 input   66.30 | X-H torsion
[ 10763 10752 10751 10750 ] final  111.04 input  -60.55 | X-H torsion
[ 11005 11000 10999 10996 ] final  128.05 input  -57.11 | X-H torsion

> <Gold.Protein.ActiveResidues>
 VAL166  LYS551  ARG553  GLY616  TRP617  ASP618  TYR619  PRO620  LYS621  CYS622 
 ASP623  PHE694  ASN695  SER759  ASP760  ASP761  ALA762  ILE779  LEU786  VAL792 
 PHE793  MET794  SER795  GLU796  ALA797  LYS798  CYS799  TRP800  GLU811  SER814 

> <Gold.Protein.RotatedAtoms>
  150.8887  133.7273  159.2910 H   0  0  0  0  0  0  0  0  0  0  0  0  # atno 6907 bound_to 6896
  151.4830  135.1052  159.9792 H   0  0  0  0  0  0  0  0  0  0  0  0  # atno 6908 bound_to 6896
  152.4806  133.8199  159.7103 H   0  0  0  0  0  0  0  0  0  0  0  0  # atno 6909 bound_to 6896
  144.9216  139.5160  143.5660 H   0  0  0  0  0  0  0  0  0  0  0  0  # atno 7974 bound_to 7965
  156.0429  140.3317  155.7263 H   0  0  0  0  0  0  0  0  0  0  0  0  # atno 8008 bound_to 7997
  155.5718  140.0628  157.2822 H   0  0  0  0  0  0  0  0  0  0  0  0  # atno 8009 bound_to 7997
  154.4401  140.1859  156.0875 H   0  0  0  0  0  0  0  0  0  0  0  0  # atno 8010 bound_to 7997
  140.0940  144.4963  150.7080 H   0  0  0  0  0  0  0  0  0  0  0  0  # atno 10167 bound_to 10162
  156.5728  130.4754  149.6355 H   0  0  0  0  0  0  0  0  0  0  0  0  # atno 10718 bound_to 10713
  153.4576  135.3729  155.2320 H   0  0  0  0  0  0  0  0  0  0  0  0  # atno 10763 bound_to 10752
  154.8757  135.3901  154.3963 H   0  0  0  0  0  0  0  0  0  0  0  0  # atno 10764 bound_to 10752
  153.4532  135.7086  153.6160 H   0  0  0  0  0  0  0  0  0  0  0  0  # atno 10765 bound_to 10752
  139.9540  134.9616  156.8945 H   0  0  0  0  0  0  0  0  0  0  0  0  # atno 11005 bound_to 11000
  146.3207  139.8100  142.8948 LP  0  0  0  0  0  0  0  0  0  0  0  0  # atno 17320 bound_to 7965
  145.3287  141.0261  143.3459 LP  0  0  0  0  0  0  0  0  0  0  0  0  # atno 17321 bound_to 7965
  140.7013  143.2437  151.4855 LP  0  0  0  0  0  0  0  0  0  0  0  0  # atno 17342 bound_to 10162
  139.5709  144.1932  152.1834 LP  0  0  0  0  0  0  0  0  0  0  0  0  # atno 17343 bound_to 10162
  156.2699  130.7011  151.1805 LP  0  0  0  0  0  0  0  0  0  0  0  0  # atno 17370 bound_to 10713
  157.7344  131.0582  150.5525 LP  0  0  0  0  0  0  0  0  0  0  0  0  # atno 17371 bound_to 10713
  140.5652  134.0496  155.7412 LP  0  0  0  0  0  0  0  0  0  0  0  0  # atno 17394 bound_to 11000
  141.1208  133.9464  157.2733 LP  0  0  0  0  0  0  0  0  0  0  0  0  # atno 17395 bound_to 11000

$$$$
