AV-unprocessed.smi:2164|AV-procd|sdf|8811|dock8
  -GOLD-   2272012 03D 1   1.00000     0.00000
 Structure written by MMmdl.
 39 41  0  0  0  0  0  0  0  0  3 V2000
  154.1730  138.3991  158.0961 O   0  0  0  0  0  0  0  0  0  0  0  0
  153.9373  138.5236  159.3050 C   0  0  0  0  0  0  0  0  0  0  0  0
  153.3566  139.6196  159.8822 N   0  5  0  0  0  0  0  0  0  0  0  0
  153.2219  140.9323  159.2533 C   0  0  0  0  0  0  0  0  0  0  0  0
  152.7868  141.9692  160.3076 C   0  0  0  0  0  0  0  0  0  0  0  0
  152.0458  143.1617  159.7193 C   0  0  0  0  0  0  0  0  0  0  0  0
  152.0323  144.4071  160.3895 C   0  0  0  0  0  0  0  0  0  0  0  0
  151.3299  145.4915  159.8239 C   0  0  0  0  0  0  0  0  0  0  0  0
  150.6529  145.3080  158.6011 C   0  0  0  0  0  0  0  0  0  0  0  0
  150.6816  144.1031  157.9908 N   0  3  0  0  0  0  0  0  0  0  0  0
  151.3409  143.0398  158.5002 C   0  0  0  0  0  0  0  0  0  0  0  0
  154.3046  137.4169  160.2008 C   0  0  0  0  0  0  0  0  0  0  0  0
  154.2190  137.4932  161.5471 C   0  0  0  0  0  0  0  0  0  0  0  0
  154.5667  136.4464  162.4049 N   0  0  0  0  0  0  0  0  0  0  0  0
  154.5224  136.6936  163.8417 C   0  0  0  0  0  0  0  0  0  0  0  0
  153.9545  135.4853  164.5695 C   0  0  0  0  0  0  0  0  0  0  0  0
  155.1213  134.1043  164.2650 S   0  0  0  0  0  0  0  0  0  0  0  0
  156.4325  134.4868  164.8122 O   0  0  0  0  0  0  0  0  0  0  0  0
  154.4855  132.8592  164.7222 O   0  0  0  0  0  0  0  0  0  0  0  0
  155.1960  134.1241  162.5906 N   0  0  0  0  0  0  0  0  0  0  0  0
  154.9713  135.1907  161.8844 C   0  0  0  0  0  0  0  0  0  0  0  0
  155.1036  135.1180  160.4388 C   0  0  0  0  0  0  0  0  0  0  0  0
  154.7897  136.1629  159.6462 C   0  0  0  0  0  0  0  0  0  0  0  0
  154.1591  141.2601  158.8016 H   0  0  0  0  0  0  0  0  0  0  0  0
  152.4875  140.9205  158.4469 H   0  0  0  0  0  0  0  0  0  0  0  0
  152.1438  141.4947  161.0505 H   0  0  0  0  0  0  0  0  0  0  0  0
  153.6595  142.3350  160.8507 H   0  0  0  0  0  0  0  0  0  0  0  0
  152.5581  144.5308  161.3253 H   0  0  0  0  0  0  0  0  0  0  0  0
  151.3124  146.4500  160.3216 H   0  0  0  0  0  0  0  0  0  0  0  0
  150.0926  146.0819  158.0973 H   0  0  0  0  0  0  0  0  0  0  0  0
  151.2913  142.1300  157.9195 H   0  0  0  0  0  0  0  0  0  0  0  0
  153.8728  138.3782  162.0615 H   0  0  0  0  0  0  0  0  0  0  0  0
  155.5269  136.9243  164.1981 H   0  0  0  0  0  0  0  0  0  0  0  0
  153.9038  137.5639  164.0628 H   0  0  0  0  0  0  0  0  0  0  0  0
  153.8858  135.6560  165.6436 H   0  0  0  0  0  0  0  0  0  0  0  0
  152.9659  135.2125  164.1986 H   0  0  0  0  0  0  0  0  0  0  0  0
  155.4507  134.2161  159.9555 H   0  0  0  0  0  0  0  0  0  0  0  0
  154.9076  136.0466  158.5789 H   0  0  0  0  0  0  0  0  0  0  0  0
  150.1846  143.9901  157.1070 H   0  0  0  0  0  0  0  0  0  0  0  0
  1  2  2  0  0  0  0
  2  3  1  0  0  0  0
  2 12  1  0  0  0  0
  3  4  1  0  0  0  0
  4  5  1  0  0  0  0
  4 24  1  0  0  0  0
  4 25  1  0  0  0  0
  5  6  1  0  0  0  0
  5 26  1  0  0  0  0
  5 27  1  0  0  0  0
  6 11  1  0  0  0  0
  6  7  2  0  0  0  0
  7  8  1  0  0  0  0
  7 28  1  0  0  0  0
  8  9  2  0  0  0  0
  8 29  1  0  0  0  0
  9 10  1  0  0  0  0
  9 30  1  0  0  0  0
 10 11  2  0  0  0  0
 10 39  1  0  0  0  0
 11 31  1  0  0  0  0
 12 23  1  0  0  0  0
 12 13  2  0  0  0  0
 13 14  1  0  0  0  0
 13 32  1  0  0  0  0
 14 21  1  0  0  0  0
 14 15  1  0  0  0  0
 15 16  1  0  0  0  0
 15 33  1  0  0  0  0
 15 34  1  0  0  0  0
 16 17  1  0  0  0  0
 16 35  1  0  0  0  0
 16 36  1  0  0  0  0
 17 18  2  0  0  0  0
 17 19  2  0  0  0  0
 17 20  1  0  0  0  0
 20 21  2  0  0  0  0
 21 22  1  0  0  0  0
 22 23  2  0  0  0  0
 22 37  1  0  0  0  0
 23 38  1  0  0  0  0
M  CHG  1   3  -1
M  CHG  1  10   1
M  END
> <s_m_source_file>
AV-unprocessed.smi

> <i_m_source_file_index>
2164

> <i_lp_mmshare_version>
43012

> <i_f3d_flags>
0

> <s_epik_input>
W0NIMl0xW0NIMl1TKD1PKSg9TylOPUMoTjEyKVtDSF09W0NIXUMoPVtDSF0yKUMoPU8pW05IXVtDSDJdW0NIMl1jM1tjSF1bY0hdW2NIXW5bY0hdMw==

> <s_epik_cmdline>
J2VwaWtfcHl0aG9uJywgJy1waCcsICc3LjAnLCAnLXRuJywgJzgnLCAnLW1hJywgJzIwMCcsICctbWV0YWxfYmluZGluZycsICctaW1hZScsICc8aW5maWxlLm1hZT4nLCAnLW9tYWUnLCAnPG91dGZpbGUubWFlPic=

> <r_epik_Ionization_Penalty>
6.83439

> <r_epik_Ionization_Penalty_Charging>
6.83439

> <r_epik_Ionization_Penalty_Neutral>
0

> <r_epik_State_Penalty>
7.45298

> <r_epik_Charging_Adjusted_Penalty>
14.2874

> <i_epik_Tot_Q>
0

> <i_epik_Tot_abs_Q>
2

> <r_epik_Metal_State_Penalty>
3.5959

> <b_epik_Metal_Only>
1

> <s_lp_Force_Field>
OPLS_2005

> <r_lp_Energy>
30.4634

> <b_lp_Chiralities_Consistent>
1

> <s_lp_Variant>
AV-unprocessed.smi:2164-4

> <Gold.Version>
5.8.1

> <Gold.Id.Protein>
6NUR|6NUR_protein|mol2

> <Gold.PLP.Fitness>
49.1883

> <Gold.PLP.PLP>
-41.4587

> <Gold.PLP.part.hbond>
-2.0000

> <Gold.PLP.part.metal>
0.0000

> <Gold.PLP.part.buried>
-3.2514

> <Gold.PLP.part.nonpolar>
-35.8051

> <Gold.PLP.part.repulsive>
0.1490

> <Gold.PLP.ligand.clash>
0.0000

> <Gold.PLP.ligand.torsion>
0.6340

> <Gold.PLP.Chemscore.Hbond>
2.9825

> <Gold.PLP.Chemscore.CHOScore>
0.0000

> <Gold.PLP.Chemscore.Metal>
0.0000

> <Gold.Chemscore.Hbonds>
donor molecule, donor type, donor heavy atom, donor atom, acceptor molecule, acceptor atom, score
      L1  H    10    39       P1  8028  1.84
      P1  H  7997  8008       L1     1  1.00

> <Gold.PLP.Chemscore.Internal.Correction>
0.0500

> <Gold.Rescore>
     Score         DG    S(hbond)    S(metal)    S(lipo)     H(rot)  DE(clash)    DE(int)     intcor
     19.95     -20.64       1.80        0.00     111.25       1.51       0.12       0.57       ----

> <Gold.Chemscore.Fitness>
19.9477

> <Gold.Chemscore.DG>
-20.6366

> <Gold.Chemscore.ZeroCoef>
-5.4800

> <Gold.Chemscore.Hbond>
1.7988

> <Gold.Chemscore.Metal>
0.0000

> <Gold.Chemscore.Lipo>
111.2540

> <Gold.Chemscore.Internal_Hbond>
0.0000

> <Gold.Chemscore.DEClash>
0.1217

> <Gold.Chemscore.DEInternal>
0.5671

> <Gold.Chemscore.Rot>
1.5109

> <Gold.Chemscore.Internal.Correction>
   9.000000E+99

> <Gold.Chemscore.Hbonds>
donor molecule, donor type, donor heavy atom, donor atom, acceptor molecule, acceptor atom, score
      L1  H    10    39       P1  8028  0.79
      P1  H  7997  8008       L1     1  0.91

> <Gold.Chemscore.Hbond.Weighted>
-6.0079

> <Gold.Chemscore.Metal.Weighted>
-0.0000

> <Gold.Chemscore.Lipo.Weighted>
-13.0167

> <Gold.Chemscore.Internal_Hbond.Weighted>
0.0000

> <Gold.Chemscore.DEClash.Weighted>
0.1217

> <Gold.Chemscore.DEInternal.Weighted>
0.5671

> <Gold.Chemscore.Rot.Weighted>
3.8680

> <Gold.Chemscore.Internal.Correction.Weighted>
   9.000000E+99

> <Gold.Protein.RotatedTorsions>
[ 6907 6896 6895 6894 ] final -155.52 input  -60.11 | X-H torsion
[ 7974 7965 7964 7962 ] final   81.83 input  175.53 | X-H torsion
[ 8008 7997 7996 7995 ] final  -98.12 input   59.86 | X-H torsion
[ 10167 10162 10161 10158 ] final -140.91 input  -65.29 | X-H torsion
[ 10718 10713 10712 10709 ] final -112.83 input   66.30 | X-H torsion
[ 10763 10752 10751 10750 ] final  114.34 input  -60.55 | X-H torsion
[ 11005 11000 10999 10996 ] final  -37.54 input  -57.11 | X-H torsion

> <Gold.Protein.ActiveResidues>
 VAL166  LYS551  ARG553  GLY616  TRP617  ASP618  TYR619  PRO620  LYS621  CYS622 
 ASP623  PHE694  ASN695  SER759  ASP760  ASP761  ALA762  ILE779  LEU786  VAL792 
 PHE793  MET794  SER795  GLU796  ALA797  LYS798  CYS799  TRP800  GLU811  SER814 

> <Gold.Protein.RotatedAtoms>
  151.2737  133.4243  159.2622 H   0  0  0  0  0  0  0  0  0  0  0  0  # atno 6907 bound_to 6896
  151.0422  134.9615  159.8178 H   0  0  0  0  0  0  0  0  0  0  0  0  # atno 6908 bound_to 6896
  152.5367  134.2694  159.9018 H   0  0  0  0  0  0  0  0  0  0  0  0  # atno 6909 bound_to 6896
  145.6330  139.2409  143.2074 H   0  0  0  0  0  0  0  0  0  0  0  0  # atno 7974 bound_to 7965
  154.7969  140.0457  157.1244 H   0  0  0  0  0  0  0  0  0  0  0  0  # atno 8008 bound_to 7997
  154.9524  140.3067  155.5049 H   0  0  0  0  0  0  0  0  0  0  0  0  # atno 8009 bound_to 7997
  156.2957  140.2285  156.4603 H   0  0  0  0  0  0  0  0  0  0  0  0  # atno 8010 bound_to 7997
  139.8235  143.7541  152.2666 H   0  0  0  0  0  0  0  0  0  0  0  0  # atno 10167 bound_to 10162
  156.0729  130.5940  150.8560 H   0  0  0  0  0  0  0  0  0  0  0  0  # atno 10718 bound_to 10713
  153.5059  135.3628  155.2563 H   0  0  0  0  0  0  0  0  0  0  0  0  # atno 10763 bound_to 10752
  154.8745  135.4011  154.3425 H   0  0  0  0  0  0  0  0  0  0  0  0  # atno 10764 bound_to 10752
  153.4069  135.7076  153.6453 H   0  0  0  0  0  0  0  0  0  0  0  0  # atno 10765 bound_to 10752
  140.9960  133.6980  156.1935 H   0  0  0  0  0  0  0  0  0  0  0  0  # atno 11005 bound_to 11000
  146.1341  140.7146  142.9398 LP  0  0  0  0  0  0  0  0  0  0  0  0  # atno 17320 bound_to 7965
  144.7186  140.4297  143.7025 LP  0  0  0  0  0  0  0  0  0  0  0  0  # atno 17321 bound_to 7965
  139.7727  144.7471  151.0201 LP  0  0  0  0  0  0  0  0  0  0  0  0  # atno 17342 bound_to 10162
  140.7812  143.4627  151.0255 LP  0  0  0  0  0  0  0  0  0  0  0  0  # atno 17343 bound_to 10162
  157.5810  131.0946  150.9272 LP  0  0  0  0  0  0  0  0  0  0  0  0  # atno 17370 bound_to 10713
  156.9467  130.5405  149.5281 LP  0  0  0  0  0  0  0  0  0  0  0  0  # atno 17371 bound_to 10713
  140.6965  134.4610  157.5587 LP  0  0  0  0  0  0  0  0  0  0  0  0  # atno 17394 bound_to 11000
  139.9015  134.8546  156.1877 LP  0  0  0  0  0  0  0  0  0  0  0  0  # atno 17395 bound_to 11000

$$$$
