AV-unprocessed.smi:1112|AV-procd|sdf|4797|dock1
  -GOLD-   22720 3343D 1   1.00000     0.00000
 Structure written by MMmdl.
 50 52  0  0  0  0  0  0  0  0  2 V2000
  149.5831  135.0426  156.0229 O   0  0  0  0  0  0  0  0  0  0  0  0
  149.0126  135.2453  154.9516 C   0  0  0  0  0  0  0  0  0  0  0  0
  148.6591  136.4616  154.5131 N   0  0  0  0  0  0  0  0  0  0  0  0
  148.9104  137.7279  155.2000 C   0  0  0  0  0  0  0  0  0  0  0  0
  149.5769  138.7867  154.2818 C   0  0  0  0  0  0  0  0  0  0  0  0
  148.9036  138.7183  153.0386 O   0  0  0  0  0  0  0  0  0  0  0  0
  149.3498  140.2215  154.8152 C   0  0  0  0  0  0  0  0  0  0  0  0
  150.2113  140.5421  156.0514 C   0  0  0  0  0  0  0  0  0  0  0  0
  151.7017  140.2837  155.7804 C   0  0  0  0  0  0  0  0  0  0  0  0
  151.9385  138.8532  155.2726 C   0  0  0  0  0  0  0  0  0  0  0  0
  151.0880  138.5614  154.0245 C   0  0  0  0  0  0  0  0  0  0  0  0
  148.6504  134.2928  154.0758 N   0  0  0  0  0  0  0  0  0  0  0  0
  148.8291  132.8823  154.1727 C   0  0  0  0  0  0  0  0  0  0  0  0
  149.9539  132.3004  154.8128 C   0  0  0  0  0  0  0  0  0  0  0  0
  150.0773  130.8989  154.8755 C   0  0  0  0  0  0  0  0  0  0  0  0
  149.0808  130.0986  154.2896 C   0  0  0  0  0  0  0  0  0  0  0  0
  148.0328  130.6817  153.6720 N   0  3  0  0  0  0  0  0  0  0  0  0
  147.8613  132.0242  153.5817 C   0  0  0  0  0  0  0  0  0  0  0  0
  146.7438  132.5232  152.8798 N   0  0  0  0  0  0  0  0  0  0  0  0
  147.0927  133.2692  151.6727 C   0  0  0  0  0  0  0  0  0  0  0  0
  146.0501  132.9012  150.6140 C   0  0  0  0  0  0  0  0  0  0  0  0
  145.5768  131.5215  151.0549 C   0  0  0  0  0  0  0  0  0  0  0  0
  145.6263  131.6304  152.5775 C   0  0  0  0  0  0  0  0  0  0  0  0
  148.1920  136.5272  153.6207 H   0  0  0  0  0  0  0  0  0  0  0  0
  147.9580  138.1035  155.5760 H   0  0  0  0  0  0  0  0  0  0  0  0
  149.5224  137.5562  156.0855 H   0  0  0  0  0  0  0  0  0  0  0  0
  149.3220  139.3157  152.4375 H   0  0  0  0  0  0  0  0  0  0  0  0
  149.5951  140.9431  154.0340 H   0  0  0  0  0  0  0  0  0  0  0  0
  148.2957  140.3784  155.0488 H   0  0  0  0  0  0  0  0  0  0  0  0
  150.0660  141.5836  156.3396 H   0  0  0  0  0  0  0  0  0  0  0  0
  149.8845  139.9464  156.9036 H   0  0  0  0  0  0  0  0  0  0  0  0
  152.0664  140.9973  155.0403 H   0  0  0  0  0  0  0  0  0  0  0  0
  152.2805  140.4580  156.6878 H   0  0  0  0  0  0  0  0  0  0  0  0
  152.9946  138.7146  155.0400 H   0  0  0  0  0  0  0  0  0  0  0  0
  151.7029  138.1396  156.0621 H   0  0  0  0  0  0  0  0  0  0  0  0
  151.2843  137.5512  153.6651 H   0  0  0  0  0  0  0  0  0  0  0  0
  151.4198  139.2244  153.2238 H   0  0  0  0  0  0  0  0  0  0  0  0
  148.1105  134.6076  153.2832 H   0  0  0  0  0  0  0  0  0  0  0  0
  150.7357  132.9039  155.2475 H   0  0  0  0  0  0  0  0  0  0  0  0
  150.9284  130.4456  155.3625 H   0  0  0  0  0  0  0  0  0  0  0  0
  149.0948  129.0182  154.2860 H   0  0  0  0  0  0  0  0  0  0  0  0
  147.1005  134.3429  151.8625 H   0  0  0  0  0  0  0  0  0  0  0  0
  148.0884  132.9846  151.3277 H   0  0  0  0  0  0  0  0  0  0  0  0
  145.2174  133.6052  150.6535 H   0  0  0  0  0  0  0  0  0  0  0  0
  146.4526  132.9118  149.6007 H   0  0  0  0  0  0  0  0  0  0  0  0
  144.5856  131.2681  150.6780 H   0  0  0  0  0  0  0  0  0  0  0  0
  146.2777  130.7594  150.7111 H   0  0  0  0  0  0  0  0  0  0  0  0
  145.6853  130.6517  153.0540 H   0  0  0  0  0  0  0  0  0  0  0  0
  144.7157  132.1046  152.9452 H   0  0  0  0  0  0  0  0  0  0  0  0
  147.3320  130.0769  153.2432 H   0  0  0  0  0  0  0  0  0  0  0  0
  1  2  2  0  0  0  0
  2  3  1  0  0  0  0
  2 12  1  0  0  0  0
  3  4  1  0  0  0  0
  3 24  1  0  0  0  0
  4  5  1  0  0  0  0
  4 25  1  0  0  0  0
  4 26  1  0  0  0  0
  5 11  1  0  0  0  0
  5  6  1  0  0  0  0
  5  7  1  0  0  0  0
  6 27  1  0  0  0  0
  7  8  1  0  0  0  0
  7 28  1  0  0  0  0
  7 29  1  0  0  0  0
  8  9  1  0  0  0  0
  8 30  1  0  0  0  0
  8 31  1  0  0  0  0
  9 10  1  0  0  0  0
  9 32  1  0  0  0  0
  9 33  1  0  0  0  0
 10 11  1  0  0  0  0
 10 34  1  0  0  0  0
 10 35  1  0  0  0  0
 11 36  1  0  0  0  0
 11 37  1  0  0  0  0
 12 13  1  0  0  0  0
 12 38  1  0  0  0  0
 13 18  1  0  0  0  0
 13 14  2  0  0  0  0
 14 15  1  0  0  0  0
 14 39  1  0  0  0  0
 15 16  2  0  0  0  0
 15 40  1  0  0  0  0
 16 17  1  0  0  0  0
 16 41  1  0  0  0  0
 17 18  2  0  0  0  0
 17 50  1  0  0  0  0
 18 19  1  0  0  0  0
 19 23  1  0  0  0  0
 19 20  1  0  0  0  0
 20 21  1  0  0  0  0
 20 42  1  0  0  0  0
 20 43  1  0  0  0  0
 21 22  1  0  0  0  0
 21 44  1  0  0  0  0
 21 45  1  0  0  0  0
 22 23  1  0  0  0  0
 22 46  1  0  0  0  0
 22 47  1  0  0  0  0
 23 48  1  0  0  0  0
 23 49  1  0  0  0  0
M  CHG  1  17   1
M  END
> <s_m_source_file>
AV-unprocessed.smi

> <i_m_source_file_index>
1112

> <i_lp_mmshare_version>
43012

> <i_f3d_flags>
0

> <s_epik_input>
W0NIMl0xW0NIMl1bQ0gyXVtDSDJdW0NIMl1DMShbT0hdKVtDSDJdW05IXUMoPU8pW05IXWMyW2NIXVtjSF1bY0hdbmMyTjNbQ0gyXVtDSDJdW0NIMl1bQ0gyXTM=

> <s_epik_cmdline>
J2VwaWtfcHl0aG9uJywgJy1waCcsICc3LjAnLCAnLXRuJywgJzgnLCAnLW1hJywgJzIwMCcsICctbWV0YWxfYmluZGluZycsICctaW1hZScsICc8aW5maWxlLm1hZT4nLCAnLW9tYWUnLCAnPG91dGZpbGUubWFlPic=

> <r_lp_tautomer_probability>
0.999994

> <r_epik_Ionization_Penalty>
1.10443

> <r_epik_Ionization_Penalty_Charging>
1.1044

> <r_epik_Ionization_Penalty_Neutral>
2.27493e-05

> <r_epik_State_Penalty>
1.16183

> <r_epik_Charging_Adjusted_Penalty>
2.26623

> <i_epik_Tot_Q>
1

> <i_epik_Tot_abs_Q>
1

> <r_epik_Metal_State_Penalty>
1.24855

> <b_epik_Metal_Only>
0

> <s_lp_Force_Field>
OPLS_2005

> <r_lp_Energy>
50.1983

> <b_lp_Chiralities_Consistent>
1

> <s_lp_Variant>
AV-unprocessed.smi:1112-2

> <Gold.Version>
5.8.1

> <Gold.Id.Protein>
6NUR|6NUR_protein|mol2

> <Gold.PLP.Fitness>
46.8837

> <Gold.PLP.PLP>
-42.5386

> <Gold.PLP.part.hbond>
-3.6673

> <Gold.PLP.part.metal>
0.0000

> <Gold.PLP.part.buried>
-6.5679

> <Gold.PLP.part.nonpolar>
-32.2314

> <Gold.PLP.part.repulsive>
0.1546

> <Gold.PLP.ligand.clash>
0.0000

> <Gold.PLP.ligand.torsion>
0.7171

> <Gold.PLP.Chemscore.Hbond>
1.8736

> <Gold.PLP.Chemscore.CHOScore>
0.0000

> <Gold.PLP.Chemscore.Metal>
0.0000

> <Gold.Chemscore.Hbonds>
donor molecule, donor type, donor heavy atom, donor atom, acceptor molecule, acceptor atom, score
      L1  H     3    24       P1  7948  0.54
      L1  H     6    27       P1  7957  0.89
      L1  H    12    38       P1  7948  0.14

> <Gold.PLP.Chemscore.Internal.Correction>
0.1585

> <Gold.Rescore>
     Score         DG    S(hbond)    S(metal)    S(lipo)     H(rot)  DE(clash)    DE(int)     intcor
     16.17     -18.08       1.92        0.00      94.71       1.92       0.12       1.79       ----

> <Gold.Chemscore.Fitness>
16.1706

> <Gold.Chemscore.DG>
-18.0813

> <Gold.Chemscore.ZeroCoef>
-5.4800

> <Gold.Chemscore.Hbond>
1.9247

> <Gold.Chemscore.Metal>
0.0000

> <Gold.Chemscore.Lipo>
94.7111

> <Gold.Chemscore.Internal_Hbond>
0.0000

> <Gold.Chemscore.DEClash>
0.1167

> <Gold.Chemscore.DEInternal>
1.7941

> <Gold.Chemscore.Rot>
1.9173

> <Gold.Chemscore.Internal.Correction>
   9.000000E+99

> <Gold.Chemscore.Hbonds>
donor molecule, donor type, donor heavy atom, donor atom, acceptor molecule, acceptor atom, score
      L1  H     3    24       P1  7948  0.54
      L1  H     6    27       P1  7957  0.86
      L1  H    12    38       P1  7948  0.12

> <Gold.Chemscore.Hbond.Weighted>
-6.4285

> <Gold.Chemscore.Metal.Weighted>
-0.0000

> <Gold.Chemscore.Lipo.Weighted>
-11.0812

> <Gold.Chemscore.Internal_Hbond.Weighted>
0.0000

> <Gold.Chemscore.DEClash.Weighted>
0.1167

> <Gold.Chemscore.DEInternal.Weighted>
1.7941

> <Gold.Chemscore.Rot.Weighted>
4.9084

> <Gold.Chemscore.Internal.Correction.Weighted>
   9.000000E+99

> <Gold.Protein.RotatedTorsions>
[ 6907 6896 6895 6894 ] final   73.34 input  -60.11 | X-H torsion
[ 7974 7965 7964 7962 ] final  -67.10 input  175.53 | X-H torsion
[ 8008 7997 7996 7995 ] final   36.06 input   59.86 | X-H torsion
[ 10167 10162 10161 10158 ] final   10.57 input  -65.29 | X-H torsion
[ 10718 10713 10712 10709 ] final   75.11 input   66.30 | X-H torsion
[ 10763 10752 10751 10750 ] final   62.82 input  -60.55 | X-H torsion
[ 11005 11000 10999 10996 ] final -170.97 input  -57.11 | X-H torsion

> <Gold.Protein.ActiveResidues>
 VAL166  LYS551  ARG553  GLY616  TRP617  ASP618  TYR619  PRO620  LYS621  CYS622 
 ASP623  PHE694  ASN695  SER759  ASP760  ASP761  ALA762  ILE779  LEU786  VAL792 
 PHE793  MET794  SER795  GLU796  ALA797  LYS798  CYS799  TRP800  GLU811  SER814 

> <Gold.Protein.RotatedAtoms>
  152.4918  134.4435  159.9551 H   0  0  0  0  0  0  0  0  0  0  0  0  # atno 6907 bound_to 6896
  151.4421  133.3634  159.2791 H   0  0  0  0  0  0  0  0  0  0  0  0  # atno 6908 bound_to 6896
  150.9080  134.8519  159.7466 H   0  0  0  0  0  0  0  0  0  0  0  0  # atno 6909 bound_to 6896
  145.7334  140.8987  143.0568 H   0  0  0  0  0  0  0  0  0  0  0  0  # atno 7974 bound_to 7965
  155.1812  140.3300  155.4375 H   0  0  0  0  0  0  0  0  0  0  0  0  # atno 8008 bound_to 7997
  156.2476  140.1926  156.6860 H   0  0  0  0  0  0  0  0  0  0  0  0  # atno 8009 bound_to 7997
  154.6270  140.0587  156.9671 H   0  0  0  0  0  0  0  0  0  0  0  0  # atno 8010 bound_to 7997
  140.6186  143.8254  150.7147 H   0  0  0  0  0  0  0  0  0  0  0  0  # atno 10167 bound_to 10162
  157.6620  130.9710  150.1306 H   0  0  0  0  0  0  0  0  0  0  0  0  # atno 10718 bound_to 10713
  152.9996  135.5451  154.6253 H   0  0  0  0  0  0  0  0  0  0  0  0  # atno 10763 bound_to 10752
  154.5543  135.2829  155.0981 H   0  0  0  0  0  0  0  0  0  0  0  0  # atno 10764 bound_to 10752
  154.2209  135.6451  153.5197 H   0  0  0  0  0  0  0  0  0  0  0  0  # atno 10765 bound_to 10752
  140.5135  134.5778  157.5026 H   0  0  0  0  0  0  0  0  0  0  0  0  # atno 11005 bound_to 11000
  144.6887  139.9362  143.7473 LP  0  0  0  0  0  0  0  0  0  0  0  0  # atno 17320 bound_to 7965
  146.0516  139.3517  143.0636 LP  0  0  0  0  0  0  0  0  0  0  0  0  # atno 17321 bound_to 7965
  140.1839  143.4092  152.1913 LP  0  0  0  0  0  0  0  0  0  0  0  0  # atno 17342 bound_to 10162
  139.5419  144.7264  151.4706 LP  0  0  0  0  0  0  0  0  0  0  0  0  # atno 17343 bound_to 10162
  156.2154  130.3670  149.8620 LP  0  0  0  0  0  0  0  0  0  0  0  0  # atno 17370 bound_to 10713
  156.6487  130.8735  151.3527 LP  0  0  0  0  0  0  0  0  0  0  0  0  # atno 17371 bound_to 10713
  139.9645  134.7396  156.0166 LP  0  0  0  0  0  0  0  0  0  0  0  0  # atno 17394 bound_to 11000
  141.1373  133.6572  156.3629 LP  0  0  0  0  0  0  0  0  0  0  0  0  # atno 17395 bound_to 11000

$$$$
