AV-unprocessed.smi:1905|AV-procd|sdf|7726|dock2
  -GOLD-   22720 9463D 1   1.00000     0.00000
 Structure written by MMmdl.
 38 39  0  0  0  0  0  0  0  0  1 V2000
  152.0395  145.9185  160.0470 C   0  0  0  0  0  0  0  0  0  0  0  0
  150.7095  145.2818  159.6376 C   0  0  0  0  0  0  0  0  0  0  0  0
  150.9253  144.4834  158.4782 O   0  0  0  0  0  0  0  0  0  0  0  0
  151.6187  143.2949  158.6083 C   0  0  0  0  0  0  0  0  0  0  0  0
  152.5610  143.2006  159.5797 N   0  0  0  0  0  0  0  0  0  0  0  0
  153.2354  142.0403  159.7102 C   0  0  0  0  0  0  0  0  0  0  0  0
  153.0049  140.9199  158.8917 C   0  0  0  0  0  0  0  0  0  0  0  0
  152.0280  141.0147  157.8831 C   0  0  0  0  0  0  0  0  0  0  0  0
  151.3190  142.2311  157.7250 C   0  0  0  0  0  0  0  0  0  0  0  0
  150.3013  142.4446  156.7528 N   0  0  0  0  0  0  0  0  0  0  0  0
  149.9672  141.6968  155.6873 C   0  0  0  0  0  0  0  0  0  0  0  0
  150.5158  140.6502  155.3445 O   0  0  0  0  0  0  0  0  0  0  0  0
  148.9464  142.2484  155.0164 N   0  0  0  0  0  0  0  0  0  0  0  0
  148.3345  141.6967  153.8121 C   0  0  0  0  0  0  0  0  0  0  0  0
  146.7950  141.7609  153.8526 C   0  0  1  0  0  0  0  0  0  0  0  0
  146.1794  141.0740  155.0666 C   0  0  0  0  0  0  0  0  0  0  0  0
  145.0119  141.9823  155.4679 C   0  0  0  0  0  0  0  0  0  0  0  0
  144.9074  142.9454  154.4292 O   0  0  0  0  0  0  0  0  0  0  0  0
  146.2150  143.1720  153.9329 C   0  0  0  0  0  0  0  0  0  0  0  0
  151.9169  146.5440  160.9315 H   0  0  0  0  0  0  0  0  0  0  0  0
  152.4363  146.5441  159.2471 H   0  0  0  0  0  0  0  0  0  0  0  0
  152.7837  145.1555  160.2770 H   0  0  0  0  0  0  0  0  0  0  0  0
  150.3288  144.6714  160.4583 H   0  0  0  0  0  0  0  0  0  0  0  0
  149.9780  146.0641  159.4288 H   0  0  0  0  0  0  0  0  0  0  0  0
  153.9781  142.0029  160.4933 H   0  0  0  0  0  0  0  0  0  0  0  0
  153.5631  140.0067  159.0360 H   0  0  0  0  0  0  0  0  0  0  0  0
  151.8409  140.1505  157.2664 H   0  0  0  0  0  0  0  0  0  0  0  0
  149.7863  143.3061  156.8615 H   0  0  0  0  0  0  0  0  0  0  0  0
  148.5585  143.1115  155.3683 H   0  0  0  0  0  0  0  0  0  0  0  0
  148.7111  142.2218  152.9329 H   0  0  0  0  0  0  0  0  0  0  0  0
  148.6627  140.6613  153.7170 H   0  0  0  0  0  0  0  0  0  0  0  0
  146.3883  141.2828  152.9597 H   0  0  0  0  0  0  0  0  0  0  0  0
  145.8418  140.0680  154.8148 H   0  0  0  0  0  0  0  0  0  0  0  0
  146.8880  140.9882  155.8912 H   0  0  0  0  0  0  0  0  0  0  0  0
  144.0772  141.4343  155.5876 H   0  0  0  0  0  0  0  0  0  0  0  0
  145.2298  142.4919  156.4074 H   0  0  0  0  0  0  0  0  0  0  0  0
  146.7721  143.7936  154.6360 H   0  0  0  0  0  0  0  0  0  0  0  0
  146.1947  143.6754  152.9660 H   0  0  0  0  0  0  0  0  0  0  0  0
  1  2  1  0  0  0  0
  1 20  1  0  0  0  0
  1 21  1  0  0  0  0
  1 22  1  0  0  0  0
  2  3  1  0  0  0  0
  2 23  1  0  0  0  0
  2 24  1  0  0  0  0
  3  4  1  0  0  0  0
  4  9  1  0  0  0  0
  4  5  2  0  0  0  0
  5  6  1  0  0  0  0
  6  7  2  0  0  0  0
  6 25  1  0  0  0  0
  7  8  1  0  0  0  0
  7 26  1  0  0  0  0
  8  9  2  0  0  0  0
  8 27  1  0  0  0  0
  9 10  1  0  0  0  0
 10 11  1  0  0  0  0
 10 28  1  0  0  0  0
 11 12  2  0  0  0  0
 11 13  1  0  0  0  0
 13 14  1  0  0  0  0
 13 29  1  0  0  0  0
 14 15  1  0  0  0  0
 14 30  1  0  0  0  0
 14 31  1  0  0  0  0
 15 19  1  0  0  0  0
 15 16  1  0  0  0  0
 15 32  1  0  0  0  0
 16 17  1  0  0  0  0
 16 33  1  0  0  0  0
 16 34  1  0  0  0  0
 17 18  1  0  0  0  0
 17 35  1  0  0  0  0
 17 36  1  0  0  0  0
 18 19  1  0  0  0  0
 19 37  1  0  0  0  0
 19 38  1  0  0  0  0
M  END
> <s_m_source_file>
AV-unprocessed.smi

> <i_m_source_file_index>
1905

> <i_lp_mmshare_version>
43012

> <i_f3d_flags>
0

> <s_epik_input>
W0NIM11bQ0gyXU9jMW5bY0hdW2NIXVtjSF1jMVtOSF1DKD1PKVtOSF1bQ0gyXVtDQEBIXTJbQ0gyXVtDSDJdT1tDSDJdMg==

> <s_epik_cmdline>
J2VwaWtfcHl0aG9uJywgJy1waCcsICc3LjAnLCAnLXRuJywgJzgnLCAnLW1hJywgJzIwMCcsICctbWV0YWxfYmluZGluZycsICctaW1hZScsICc8aW5maWxlLm1hZT4nLCAnLW9tYWUnLCAnPG91dGZpbGUubWFlPic=

> <r_lp_tautomer_probability>
1

> <r_epik_Ionization_Penalty>
0.000115153

> <r_epik_Ionization_Penalty_Charging>
0

> <r_epik_Ionization_Penalty_Neutral>
0.000115153

> <r_epik_State_Penalty>
-0

> <r_epik_Charging_Adjusted_Penalty>
0

> <i_epik_Tot_Q>
0

> <i_epik_Tot_abs_Q>
0

> <r_epik_Metal_State_Penalty>
-0

> <b_epik_Metal_Only>
0

> <s_lp_Force_Field>
OPLS_2005

> <r_lp_Energy>
21.5364

> <b_lp_Chiralities_Consistent>
1

> <s_lp_Variant>
AV-unprocessed.smi:1905-2

> <Gold.Version>
5.8.1

> <Gold.Id.Protein>
6NUR|6NUR_protein|mol2

> <Gold.PLP.Fitness>
44.0594

> <Gold.PLP.PLP>
-38.3124

> <Gold.PLP.part.hbond>
-3.0000

> <Gold.PLP.part.metal>
0.0000

> <Gold.PLP.part.buried>
-5.4706

> <Gold.PLP.part.nonpolar>
-29.0284

> <Gold.PLP.part.repulsive>
0.6888

> <Gold.PLP.ligand.clash>
0.0000

> <Gold.PLP.ligand.torsion>
0.5523

> <Gold.PLP.Chemscore.Hbond>
2.2626

> <Gold.PLP.Chemscore.CHOScore>
0.0000

> <Gold.PLP.Chemscore.Metal>
0.0000

> <Gold.Chemscore.Hbonds>
donor molecule, donor type, donor heavy atom, donor atom, acceptor molecule, acceptor atom, score
      L1  H    10    28       P1  8028  0.73
      L1  H    13    29       P1  8028  0.90
      P1  H  7989  7998       L1    12  0.61

> <Gold.PLP.Chemscore.Internal.Correction>
0.0638

> <Gold.Rescore>
     Score         DG    S(hbond)    S(metal)    S(lipo)     H(rot)  DE(clash)    DE(int)     intcor
     15.49     -19.08       2.31        0.00      85.65       1.61       0.47       3.12       ----

> <Gold.Chemscore.Fitness>
15.4928

> <Gold.Chemscore.DG>
-19.0801

> <Gold.Chemscore.ZeroCoef>
-5.4800

> <Gold.Chemscore.Hbond>
2.3080

> <Gold.Chemscore.Metal>
0.0000

> <Gold.Chemscore.Lipo>
85.6486

> <Gold.Chemscore.Internal_Hbond>
0.0000

> <Gold.Chemscore.DEClash>
0.4717

> <Gold.Chemscore.DEInternal>
3.1156

> <Gold.Chemscore.Rot>
1.6131

> <Gold.Chemscore.Internal.Correction>
   9.000000E+99

> <Gold.Chemscore.Hbonds>
donor molecule, donor type, donor heavy atom, donor atom, acceptor molecule, acceptor atom, score
      L1  H    10    28       P1  8028  0.69
      L1  H    13    29       P1  8028  0.88
      P1  H  7989  7998       L1    12  0.48

> <Gold.Chemscore.Hbond.Weighted>
-7.7088

> <Gold.Chemscore.Metal.Weighted>
-0.0000

> <Gold.Chemscore.Lipo.Weighted>
-10.0209

> <Gold.Chemscore.Internal_Hbond.Weighted>
0.0000

> <Gold.Chemscore.DEClash.Weighted>
0.4717

> <Gold.Chemscore.DEInternal.Weighted>
3.1156

> <Gold.Chemscore.Rot.Weighted>
4.1296

> <Gold.Chemscore.Internal.Correction.Weighted>
   9.000000E+99

> <Gold.Protein.RotatedTorsions>
[ 6907 6896 6895 6894 ] final  133.41 input  -60.11 | X-H torsion
[ 7974 7965 7964 7962 ] final  173.70 input  175.53 | X-H torsion
[ 8008 7997 7996 7995 ] final -162.58 input   59.86 | X-H torsion
[ 10167 10162 10161 10158 ] final    1.07 input  -65.29 | X-H torsion
[ 10718 10713 10712 10709 ] final -101.95 input   66.30 | X-H torsion
[ 10763 10752 10751 10750 ] final -177.63 input  -60.55 | X-H torsion
[ 11005 11000 10999 10996 ] final  108.93 input  -57.11 | X-H torsion

> <Gold.Protein.ActiveResidues>
 VAL166  LYS551  ARG553  GLY616  TRP617  ASP618  TYR619  PRO620  LYS621  CYS622 
 ASP623  PHE694  ASN695  SER759  ASP760  ASP761  ALA762  ILE779  LEU786  VAL792 
 PHE793  MET794  SER795  GLU796  ALA797  LYS798  CYS799  TRP800  GLU811  SER814 

> <Gold.Protein.RotatedAtoms>
  152.3222  133.5866  159.5751 H   0  0  0  0  0  0  0  0  0  0  0  0  # atno 6907 bound_to 6896
  150.7377  133.9994  159.3642 H   0  0  0  0  0  0  0  0  0  0  0  0  # atno 6908 bound_to 6896
  151.7877  135.0745  160.0434 H   0  0  0  0  0  0  0  0  0  0  0  0  # atno 6909 bound_to 6896
  144.7238  139.9687  143.6436 H   0  0  0  0  0  0  0  0  0  0  0  0  # atno 7974 bound_to 7965
  155.8089  140.0902  157.1915 H   0  0  0  0  0  0  0  0  0  0  0  0  # atno 8008 bound_to 7997
  154.3980  140.1458  156.3422 H   0  0  0  0  0  0  0  0  0  0  0  0  # atno 8009 bound_to 7997
  155.8385  140.3440  155.5620 H   0  0  0  0  0  0  0  0  0  0  0  0  # atno 8010 bound_to 7997
  140.6700  143.7075  150.7903 H   0  0  0  0  0  0  0  0  0  0  0  0  # atno 10167 bound_to 10162
  156.0212  130.5397  150.7038 H   0  0  0  0  0  0  0  0  0  0  0  0  # atno 10718 bound_to 10713
  154.5577  135.2817  155.0948 H   0  0  0  0  0  0  0  0  0  0  0  0  # atno 10763 bound_to 10752
  154.2369  135.6364  153.5198 H   0  0  0  0  0  0  0  0  0  0  0  0  # atno 10764 bound_to 10752
  153.0020  135.5550  154.6162 H   0  0  0  0  0  0  0  0  0  0  0  0  # atno 10765 bound_to 10752
  139.8853  134.9444  156.6048 H   0  0  0  0  0  0  0  0  0  0  0  0  # atno 11005 bound_to 11000
  146.0580  139.3576  143.0598 LP  0  0  0  0  0  0  0  0  0  0  0  0  # atno 17320 bound_to 7965
  145.8129  140.9717  143.0939 LP  0  0  0  0  0  0  0  0  0  0  0  0  # atno 17321 bound_to 7965
  140.0759  143.5016  152.2556 LP  0  0  0  0  0  0  0  0  0  0  0  0  # atno 17342 bound_to 10162
  139.5964  144.7568  151.3276 LP  0  0  0  0  0  0  0  0  0  0  0  0  # atno 17343 bound_to 10162
  157.4692  131.0891  151.0661 LP  0  0  0  0  0  0  0  0  0  0  0  0  # atno 17370 bound_to 10713
  157.1127  130.6028  149.5486 LP  0  0  0  0  0  0  0  0  0  0  0  0  # atno 17371 bound_to 10713
  140.7856  133.8624  155.8603 LP  0  0  0  0  0  0  0  0  0  0  0  0  # atno 17394 bound_to 11000
  140.9722  134.1516  157.4566 LP  0  0  0  0  0  0  0  0  0  0  0  0  # atno 17395 bound_to 11000

$$$$
