AV-unprocessed.smi:2256|AV-procd|sdf|9127|dock3
  -GOLD-   2272012333D 1   1.00000     0.00000
 Structure written by MMmdl.
 42 44  0  0  0  0  0  0  0  0  1 V2000
  151.1933  141.1977  156.1253 C   0  0  0  0  0  0  0  0  0  0  0  0
  151.0823  139.7088  155.8485 C   0  0  0  0  0  0  0  0  0  0  0  0
  150.8071  139.3597  154.5231 N   0  0  0  0  0  0  0  0  0  0  0  0
  150.6999  138.1140  154.1934 C   0  0  0  0  0  0  0  0  0  0  0  0
  150.8555  137.0853  155.1366 N   0  0  0  0  0  0  0  0  0  0  0  0
  150.7093  135.7104  154.6310 C   0  0  0  0  0  0  0  0  0  0  0  0
  149.6412  134.9149  155.4146 C   0  0  1  0  0  0  0  0  0  0  0  0
  148.4075  135.6044  155.4041 O   0  0  0  0  0  0  0  0  0  0  0  0
  149.3938  133.5087  154.8432 C   0  0  0  0  0  0  0  0  0  0  0  0
  148.6293  133.6016  153.6471 O   0  0  0  0  0  0  0  0  0  0  0  0
  147.9219  132.4943  153.2292 C   0  0  0  0  0  0  0  0  0  0  0  0
  148.0615  131.2044  153.8052 C   0  0  0  0  0  0  0  0  0  0  0  0
  147.3063  130.1160  153.3286 C   0  0  0  0  0  0  0  0  0  0  0  0
  146.4007  130.2989  152.2705 C   0  0  0  0  0  0  0  0  0  0  0  0
  146.2612  131.5750  151.6998 C   0  0  0  0  0  0  0  0  0  0  0  0
  145.4699  132.0517  150.6730 N   0  0  0  0  0  0  0  0  0  0  0  0
  145.6907  133.4028  150.4728 C   0  0  0  0  0  0  0  0  0  0  0  0
  146.6332  133.8357  151.3687 C   0  0  0  0  0  0  0  0  0  0  0  0
  147.0126  132.6964  152.1606 C   0  0  0  0  0  0  0  0  0  0  0  0
  151.1064  137.3384  156.4537 C   0  0  0  0  0  0  0  0  0  0  0  0
  151.2137  136.4289  157.2786 O   0  0  0  0  0  0  0  0  0  0  0  0
  151.2348  138.7600  156.8123 C   0  0  0  0  0  0  0  0  0  0  0  0
  151.5368  139.0800  158.2711 C   0  0  0  0  0  0  0  0  0  0  0  0
  144.8128  131.5125  150.1274 H   0  0  0  0  0  0  0  0  0  0  0  0
  152.1868  141.4441  156.5004 H   0  0  0  0  0  0  0  0  0  0  0  0
  150.4543  141.5042  156.8658 H   0  0  0  0  0  0  0  0  0  0  0  0
  151.0220  141.7842  155.2219 H   0  0  0  0  0  0  0  0  0  0  0  0
  150.4808  137.7882  153.1750 H   0  0  0  0  0  0  0  0  0  0  0  0
  150.4966  135.6875  153.5600 H   0  0  0  0  0  0  0  0  0  0  0  0
  151.6731  135.2055  154.7208 H   0  0  0  0  0  0  0  0  0  0  0  0
  149.9424  134.8024  156.4568 H   0  0  0  0  0  0  0  0  0  0  0  0
  148.0465  135.5832  156.2775 H   0  0  0  0  0  0  0  0  0  0  0  0
  150.3580  133.0518  154.6144 H   0  0  0  0  0  0  0  0  0  0  0  0
  148.8954  132.8792  155.5825 H   0  0  0  0  0  0  0  0  0  0  0  0
  148.7459  131.0214  154.6195 H   0  0  0  0  0  0  0  0  0  0  0  0
  147.4235  129.1403  153.7767 H   0  0  0  0  0  0  0  0  0  0  0  0
  145.8183  129.4679  151.9008 H   0  0  0  0  0  0  0  0  0  0  0  0
  145.1574  133.9471  149.7073 H   0  0  0  0  0  0  0  0  0  0  0  0
  147.0243  134.8372  151.4705 H   0  0  0  0  0  0  0  0  0  0  0  0
  150.7427  138.6965  158.9119 H   0  0  0  0  0  0  0  0  0  0  0  0
  151.6292  140.1469  158.4667 H   0  0  0  0  0  0  0  0  0  0  0  0
  152.4729  138.6098  158.5735 H   0  0  0  0  0  0  0  0  0  0  0  0
  1  2  1  0  0  0  0
  1 25  1  0  0  0  0
  1 26  1  0  0  0  0
  1 27  1  0  0  0  0
  2 22  2  0  0  0  0
  2  3  1  0  0  0  0
  3  4  2  0  0  0  0
  4  5  1  0  0  0  0
  4 28  1  0  0  0  0
  5  6  1  0  0  0  0
  5 20  1  0  0  0  0
  6  7  1  0  0  0  0
  6 29  1  0  0  0  0
  6 30  1  0  0  0  0
  7  8  1  0  0  0  0
  7  9  1  0  0  0  0
  7 31  1  0  0  0  0
  8 32  1  0  0  0  0
  9 10  1  0  0  0  0
  9 33  1  0  0  0  0
  9 34  1  0  0  0  0
 10 11  1  0  0  0  0
 11 19  1  0  0  0  0
 11 12  2  0  0  0  0
 12 13  1  0  0  0  0
 12 35  1  0  0  0  0
 13 14  2  0  0  0  0
 13 36  1  0  0  0  0
 14 15  1  0  0  0  0
 14 37  1  0  0  0  0
 15 19  2  0  0  0  0
 15 16  1  0  0  0  0
 16 24  1  0  0  0  0
 16 17  1  0  0  0  0
 17 18  2  0  0  0  0
 17 38  1  0  0  0  0
 18 19  1  0  0  0  0
 18 39  1  0  0  0  0
 20 21  2  0  0  0  0
 20 22  1  0  0  0  0
 22 23  1  0  0  0  0
 23 40  1  0  0  0  0
 23 41  1  0  0  0  0
 23 42  1  0  0  0  0
M  END
> <s_m_source_file>
AV-unprocessed.smi

> <i_m_source_file_index>
2256

> <i_lp_mmshare_version>
43012

> <i_f3d_flags>
0

> <s_epik_input>
W0NIM11jMW5bY0hdbihjKD1PKWMxW0NIM10pW0NIMl1bQ0BIXShbT0hdKVtDSDJdT2MoW2NIXVtjSF1bY0hdMiljKGMyMylbY0hdW2NIXVtuSF0z

> <s_epik_cmdline>
J2VwaWtfcHl0aG9uJywgJy1waCcsICc3LjAnLCAnLXRuJywgJzgnLCAnLW1hJywgJzIwMCcsICctbWV0YWxfYmluZGluZycsICctaW1hZScsICc8aW5maWxlLm1hZT4nLCAnLW9tYWUnLCAnPG91dGZpbGUubWFlPic=

> <r_lp_tautomer_probability>
1

> <r_epik_Ionization_Penalty>
4.18314e-05

> <r_epik_Ionization_Penalty_Charging>
1.04093e-07

> <r_epik_Ionization_Penalty_Neutral>
4.17273e-05

> <r_epik_State_Penalty>
-0

> <r_epik_Charging_Adjusted_Penalty>
1.04093e-07

> <i_epik_Tot_Q>
0

> <i_epik_Tot_abs_Q>
0

> <r_epik_Metal_State_Penalty>
-0

> <b_epik_Metal_Only>
0

> <s_lp_Force_Field>
OPLS_2005

> <r_lp_Energy>
26.3199

> <b_lp_Chiralities_Consistent>
1

> <s_lp_Variant>
AV-unprocessed.smi:2256-2

> <Gold.Version>
5.8.1

> <Gold.Id.Protein>
6NUR|6NUR_protein|mol2

> <Gold.PLP.Fitness>
44.0728

> <Gold.PLP.PLP>
-35.3749

> <Gold.PLP.part.hbond>
-1.0000

> <Gold.PLP.part.metal>
0.0000

> <Gold.PLP.part.buried>
-4.4315

> <Gold.PLP.part.nonpolar>
-30.0403

> <Gold.PLP.part.repulsive>
0.3454

> <Gold.PLP.ligand.clash>
0.0000

> <Gold.PLP.ligand.torsion>
0.3368

> <Gold.PLP.Chemscore.Hbond>
1.0000

> <Gold.PLP.Chemscore.CHOScore>
2.0961

> <Gold.PLP.Chemscore.Metal>
0.0000

> <Gold.Chemscore.Hbonds>
donor molecule, donor type, donor heavy atom, donor atom, acceptor molecule, acceptor atom, score
      P1  H  7989  7998       L1     3  1.00
      L1  C     4    28       P1  7948  0.65
      L1  C     4    28       P1  7949  0.47
      L1  C    17    38       P1  7921  0.91

> <Gold.PLP.Chemscore.Internal.Correction>
0.0832

> <Gold.Rescore>
     Score         DG    S(hbond)    S(metal)    S(lipo)     H(rot)  DE(clash)    DE(int)     intcor
      9.96     -11.93       0.83        0.00      87.98       2.58       0.19       1.77       ----

> <Gold.Chemscore.Fitness>
9.9631

> <Gold.Chemscore.DG>
-11.9297

> <Gold.Chemscore.ZeroCoef>
-5.4800

> <Gold.Chemscore.Hbond>
0.8270

> <Gold.Chemscore.Metal>
0.0000

> <Gold.Chemscore.Lipo>
87.9779

> <Gold.Chemscore.Internal_Hbond>
0.0000

> <Gold.Chemscore.DEClash>
0.1948

> <Gold.Chemscore.DEInternal>
1.7719

> <Gold.Chemscore.Rot>
2.5804

> <Gold.Chemscore.Internal.Correction>
   9.000000E+99

> <Gold.Chemscore.Hbonds>
donor molecule, donor type, donor heavy atom, donor atom, acceptor molecule, acceptor atom, score
      P1  H  7989  7998       L1     3  0.38

> <Gold.Chemscore.Hbond.Weighted>
-2.7622

> <Gold.Chemscore.Metal.Weighted>
-0.0000

> <Gold.Chemscore.Lipo.Weighted>
-10.2934

> <Gold.Chemscore.Internal_Hbond.Weighted>
0.0000

> <Gold.Chemscore.DEClash.Weighted>
0.1948

> <Gold.Chemscore.DEInternal.Weighted>
1.7719

> <Gold.Chemscore.Rot.Weighted>
6.6059

> <Gold.Chemscore.Internal.Correction.Weighted>
   9.000000E+99

> <Gold.Protein.RotatedTorsions>
[ 6907 6896 6895 6894 ] final -148.79 input  -60.11 | X-H torsion
[ 7974 7965 7964 7962 ] final -141.94 input  175.53 | X-H torsion
[ 8008 7997 7996 7995 ] final   67.69 input   59.86 | X-H torsion
[ 10167 10162 10161 10158 ] final  -50.59 input  -65.29 | X-H torsion
[ 10718 10713 10712 10709 ] final -143.05 input   66.30 | X-H torsion
[ 10763 10752 10751 10750 ] final  123.24 input  -60.55 | X-H torsion
[ 11005 11000 10999 10996 ] final -137.57 input  -57.11 | X-H torsion

> <Gold.Protein.ActiveResidues>
 VAL166  LYS551  ARG553  GLY616  TRP617  ASP618  TYR619  PRO620  LYS621  CYS622 
 ASP623  PHE694  ASN695  SER759  ASP760  ASP761  ALA762  ILE779  LEU786  VAL792 
 PHE793  MET794  SER795  GLU796  ALA797  LYS798  CYS799  TRP800  GLU811  SER814 

> <Gold.Protein.RotatedAtoms>
  151.1748  133.4761  159.2593 H   0  0  0  0  0  0  0  0  0  0  0  0  # atno 6907 bound_to 6896
  151.1319  135.0134  159.8596 H   0  0  0  0  0  0  0  0  0  0  0  0  # atno 6908 bound_to 6896
  152.5460  134.1650  159.8626 H   0  0  0  0  0  0  0  0  0  0  0  0  # atno 6909 bound_to 6896
  144.8481  140.6018  143.5408 H   0  0  0  0  0  0  0  0  0  0  0  0  # atno 7974 bound_to 7965
  155.6969  140.3495  155.4916 H   0  0  0  0  0  0  0  0  0  0  0  0  # atno 8008 bound_to 7997
  155.9475  140.1113  157.1026 H   0  0  0  0  0  0  0  0  0  0  0  0  # atno 8009 bound_to 7997
  154.4115  140.1200  156.4995 H   0  0  0  0  0  0  0  0  0  0  0  0  # atno 8010 bound_to 7997
  140.6630  143.2652  151.4381 H   0  0  0  0  0  0  0  0  0  0  0  0  # atno 10167 bound_to 10162
  156.3532  130.7699  151.1855 H   0  0  0  0  0  0  0  0  0  0  0  0  # atno 10718 bound_to 10713
  153.6424  135.3377  155.3075 H   0  0  0  0  0  0  0  0  0  0  0  0  # atno 10763 bound_to 10752
  154.8556  135.4321  154.1990 H   0  0  0  0  0  0  0  0  0  0  0  0  # atno 10764 bound_to 10752
  153.2912  135.7017  153.7365 H   0  0  0  0  0  0  0  0  0  0  0  0  # atno 10765 bound_to 10752
  140.8699  134.2064  157.4657 H   0  0  0  0  0  0  0  0  0  0  0  0  # atno 11005 bound_to 11000
  145.4556  139.1518  143.3894 LP  0  0  0  0  0  0  0  0  0  0  0  0  # atno 17320 bound_to 7965
  146.2761  140.4684  142.8795 LP  0  0  0  0  0  0  0  0  0  0  0  0  # atno 17321 bound_to 7965
  139.5870  144.1583  152.2041 LP  0  0  0  0  0  0  0  0  0  0  0  0  # atno 17342 bound_to 10162
  140.0926  144.5608  150.7044 LP  0  0  0  0  0  0  0  0  0  0  0  0  # atno 17343 bound_to 10162
  157.7464  131.0421  150.4680 LP  0  0  0  0  0  0  0  0  0  0  0  0  # atno 17370 bound_to 10713
  156.4878  130.4088  149.6424 LP  0  0  0  0  0  0  0  0  0  0  0  0  # atno 17371 bound_to 10713
  139.8711  134.9769  156.4939 LP  0  0  0  0  0  0  0  0  0  0  0  0  # atno 17394 bound_to 11000
  140.8586  133.8077  155.9241 LP  0  0  0  0  0  0  0  0  0  0  0  0  # atno 17395 bound_to 11000

$$$$
