AV-unprocessed.smi:235|AV-procd|sdf|1808|dock1
  -GOLD-   2262020383D 1   1.00000     0.00000
 Structure written by MMmdl.
 54 58  0  0  0  0  0  0  0  0  1 V2000
  150.8944  140.7598  158.8334 O   0  0  0  0  0  0  0  0  0  0  0  0
  150.5562  141.4538  157.8736 C   0  0  0  0  0  0  0  0  0  0  0  0
  151.1455  142.6160  157.5576 N   0  0  0  0  0  0  0  0  0  0  0  0
  152.2272  143.2169  158.2677 C   0  0  0  0  0  0  0  0  0  0  0  0
  151.8980  144.3158  159.2545 C   0  0  0  0  0  0  0  0  0  0  0  0
  152.5590  144.6583  157.9480 C   0  0  0  0  0  0  0  0  0  0  0  0
  149.4117  141.0036  156.9511 C   0  0  1  0  0  0  0  0  0  0  0  0
  148.4309  142.1545  156.6730 C   0  0  0  0  0  0  0  0  0  0  0  0
  147.8492  141.8141  155.3051 C   0  0  0  0  0  0  0  0  0  0  0  0
  149.0257  141.1708  154.5733 C   0  0  0  0  0  0  0  0  0  0  0  0
  149.8819  140.6202  155.6166 N   0  0  0  0  0  0  0  0  0  0  0  0
  150.5777  139.4745  155.3838 C   0  0  0  0  0  0  0  0  0  0  0  0
  151.7478  139.5334  154.6931 N   0  0  0  0  0  0  0  0  0  0  0  0
  152.4497  138.4235  154.4485 C   0  0  0  0  0  0  0  0  0  0  0  0
  152.1688  137.1663  154.7936 N   0  0  0  0  0  0  0  0  0  0  0  0
  150.9926  137.0957  155.4793 C   0  0  0  0  0  0  0  0  0  0  0  0
  150.1426  138.1878  155.8169 C   0  0  0  0  0  0  0  0  0  0  0  0
  149.0310  137.7182  156.5091 N   0  0  0  0  0  0  0  0  0  0  0  0
  149.2164  136.4284  156.5808 C   0  0  0  0  0  0  0  0  0  0  0  0
  150.3694  135.9702  155.9862 N   0  0  0  0  0  0  0  0  0  0  0  0
  150.8237  134.5934  155.9099 C   0  0  0  0  0  0  0  0  0  0  0  0
  149.8064  133.6774  155.2027 C   0  0  1  0  0  0  0  0  0  0  0  0
  149.3969  134.2418  153.9711 O   0  0  0  0  0  0  0  0  0  0  0  0
  150.3425  132.2484  154.9838 C   0  0  1  0  0  0  0  0  0  0  0  0
  150.6568  131.4376  156.2533 C   0  0  0  0  0  0  0  0  0  0  0  0
  149.9254  130.1225  156.0366 C   0  0  0  0  0  0  0  0  0  0  0  0
  149.6805  130.1020  154.5325 C   0  0  0  0  0  0  0  0  0  0  0  0
  149.4205  131.4633  154.2353 O   0  0  0  0  0  0  0  0  0  0  0  0
  150.7984  143.1156  156.7520 H   0  0  0  0  0  0  0  0  0  0  0  0
  153.0722  142.5796  158.5255 H   0  0  0  0  0  0  0  0  0  0  0  0
  150.8523  144.5926  159.3772 H   0  0  0  0  0  0  0  0  0  0  0  0
  152.5044  144.3782  160.1558 H   0  0  0  0  0  0  0  0  0  0  0  0
  153.6073  144.9488  157.9759 H   0  0  0  0  0  0  0  0  0  0  0  0
  151.9549  145.1668  157.1988 H   0  0  0  0  0  0  0  0  0  0  0  0
  148.8668  140.1675  157.3941 H   0  0  0  0  0  0  0  0  0  0  0  0
  147.6613  142.2426  157.4405 H   0  0  0  0  0  0  0  0  0  0  0  0
  148.9523  143.1120  156.6138 H   0  0  0  0  0  0  0  0  0  0  0  0
  147.0443  141.0871  155.4209 H   0  0  0  0  0  0  0  0  0  0  0  0
  147.4475  142.6827  154.7828 H   0  0  0  0  0  0  0  0  0  0  0  0
  148.6773  140.4142  153.8687 H   0  0  0  0  0  0  0  0  0  0  0  0
  149.5895  141.9217  154.0182 H   0  0  0  0  0  0  0  0  0  0  0  0
  153.3670  138.5636  153.8957 H   0  0  0  0  0  0  0  0  0  0  0  0
  148.5128  135.7718  157.0717 H   0  0  0  0  0  0  0  0  0  0  0  0
  151.7848  134.5735  155.3944 H   0  0  0  0  0  0  0  0  0  0  0  0
  151.0073  134.2389  156.9249 H   0  0  0  0  0  0  0  0  0  0  0  0
  148.9134  133.6079  155.8255 H   0  0  0  0  0  0  0  0  0  0  0  0
  149.4140  135.1829  154.0559 H   0  0  0  0  0  0  0  0  0  0  0  0
  151.2548  132.3085  154.3877 H   0  0  0  0  0  0  0  0  0  0  0  0
  151.7318  131.2739  156.3356 H   0  0  0  0  0  0  0  0  0  0  0  0
  150.3296  131.9233  157.1731 H   0  0  0  0  0  0  0  0  0  0  0  0
  150.4884  129.2569  156.3868 H   0  0  0  0  0  0  0  0  0  0  0  0
  148.9703  130.1413  156.5634 H   0  0  0  0  0  0  0  0  0  0  0  0
  150.5713  129.7729  153.9949 H   0  0  0  0  0  0  0  0  0  0  0  0
  148.8468  129.4595  154.2482 H   0  0  0  0  0  0  0  0  0  0  0  0
  1  2  2  0  0  0  0
  2  3  1  0  0  0  0
  2  7  1  0  0  0  0
  3  4  1  0  0  0  0
  3 29  1  0  0  0  0
  4  6  1  0  0  0  0
  4  5  1  0  0  0  0
  4 30  1  0  0  0  0
  5  6  1  0  0  0  0
  5 31  1  0  0  0  0
  5 32  1  0  0  0  0
  6 33  1  0  0  0  0
  6 34  1  0  0  0  0
  7 11  1  0  0  0  0
  7  8  1  0  0  0  0
  7 35  1  0  0  0  0
  8  9  1  0  0  0  0
  8 36  1  0  0  0  0
  8 37  1  0  0  0  0
  9 10  1  0  0  0  0
  9 38  1  0  0  0  0
  9 39  1  0  0  0  0
 10 11  1  0  0  0  0
 10 40  1  0  0  0  0
 10 41  1  0  0  0  0
 11 12  1  0  0  0  0
 12 17  1  0  0  0  0
 12 13  2  0  0  0  0
 13 14  1  0  0  0  0
 14 15  2  0  0  0  0
 14 42  1  0  0  0  0
 15 16  1  0  0  0  0
 16 20  1  0  0  0  0
 16 17  2  0  0  0  0
 17 18  1  0  0  0  0
 18 19  2  0  0  0  0
 19 20  1  0  0  0  0
 19 43  1  0  0  0  0
 20 21  1  0  0  0  0
 21 22  1  0  0  0  0
 21 44  1  0  0  0  0
 21 45  1  0  0  0  0
 22 23  1  0  0  0  0
 22 24  1  0  0  0  0
 22 46  1  0  0  0  0
 23 47  1  0  0  0  0
 24 28  1  0  0  0  0
 24 25  1  0  0  0  0
 24 48  1  0  0  0  0
 25 26  1  0  0  0  0
 25 49  1  0  0  0  0
 25 50  1  0  0  0  0
 26 27  1  0  0  0  0
 26 51  1  0  0  0  0
 26 52  1  0  0  0  0
 27 28  1  0  0  0  0
 27 53  1  0  0  0  0
 27 54  1  0  0  0  0
M  END
> <s_m_source_file>
AV-unprocessed.smi

> <i_m_source_file_index>
235

> <i_lp_mmshare_version>
43012

> <i_f3d_flags>
0

> <s_epik_input>
W0NIMl0xW0NIMl1bQ0hdMVtOSF1DKD1PKVtDQEBIXTJbQ0gyXVtDSDJdW0NIMl1OMmMobltjSF1uMyljKGMzNCluW2NIXW40W0NIMl1bQ0BIXShbT0hdKVtDQEBIXTVbQ0gyXVtDSDJdW0NIMl1PNQ==

> <s_epik_cmdline>
J2VwaWtfcHl0aG9uJywgJy1waCcsICc3LjAnLCAnLXRuJywgJzgnLCAnLW1hJywgJzIwMCcsICctbWV0YWxfYmluZGluZycsICctaW1hZScsICc8aW5maWxlLm1hZT4nLCAnLW9tYWUnLCAnPG91dGZpbGUubWFlPic=

> <r_lp_tautomer_probability>
1

> <r_epik_Ionization_Penalty>
0.000526714

> <r_epik_Ionization_Penalty_Charging>
0

> <r_epik_Ionization_Penalty_Neutral>
0.000526714

> <r_epik_State_Penalty>
0.000272704

> <r_epik_Charging_Adjusted_Penalty>
0.000272704

> <i_epik_Tot_Q>
0

> <i_epik_Tot_abs_Q>
0

> <r_epik_Metal_State_Penalty>
-0

> <b_epik_Metal_Only>
0

> <s_lp_Force_Field>
OPLS_2005

> <r_lp_Energy>
60.2581

> <b_lp_Chiralities_Consistent>
1

> <s_lp_Variant>
AV-unprocessed.smi:235-8

> <Gold.Version>
5.8.1

> <Gold.Id.Protein>
6NUR|6NUR_protein|mol2

> <Gold.PLP.Fitness>
46.4633

> <Gold.PLP.PLP>
-43.8716

> <Gold.PLP.part.hbond>
-3.0000

> <Gold.PLP.part.metal>
0.0000

> <Gold.PLP.part.buried>
-3.8456

> <Gold.PLP.part.nonpolar>
-36.4833

> <Gold.PLP.part.repulsive>
0.2480

> <Gold.PLP.ligand.clash>
0.0000

> <Gold.PLP.ligand.torsion>
1.7329

> <Gold.PLP.Chemscore.Hbond>
1.8492

> <Gold.PLP.Chemscore.CHOScore>
0.0000

> <Gold.PLP.Chemscore.Metal>
0.0000

> <Gold.Chemscore.Hbonds>
donor molecule, donor type, donor heavy atom, donor atom, acceptor molecule, acceptor atom, score
      P1  H  7989  7998       L1    13  1.00
      P1  H 10752 10765       L1    15  0.85

> <Gold.PLP.Chemscore.Internal.Correction>
0.5100

> <Gold.Rescore>
     Score         DG    S(hbond)    S(metal)    S(lipo)     H(rot)  DE(clash)    DE(int)     intcor
     12.98     -14.83       1.75        0.00      88.53       2.68       0.23       1.62       ----

> <Gold.Chemscore.Fitness>
12.9808

> <Gold.Chemscore.DG>
-14.8313

> <Gold.Chemscore.ZeroCoef>
-5.4800

> <Gold.Chemscore.Hbond>
1.7497

> <Gold.Chemscore.Metal>
0.0000

> <Gold.Chemscore.Lipo>
88.5293

> <Gold.Chemscore.Internal_Hbond>
0.0000

> <Gold.Chemscore.DEClash>
0.2315

> <Gold.Chemscore.DEInternal>
1.6189

> <Gold.Chemscore.Rot>
2.6760

> <Gold.Chemscore.Internal.Correction>
   9.000000E+99

> <Gold.Chemscore.Hbonds>
donor molecule, donor type, donor heavy atom, donor atom, acceptor molecule, acceptor atom, score
      P1  H  7989  7998       L1    13  0.71
      P1  H 10752 10765       L1    15  0.75

> <Gold.Chemscore.Hbond.Weighted>
-5.8440

> <Gold.Chemscore.Metal.Weighted>
-0.0000

> <Gold.Chemscore.Lipo.Weighted>
-10.3579

> <Gold.Chemscore.Internal_Hbond.Weighted>
0.0000

> <Gold.Chemscore.DEClash.Weighted>
0.2315

> <Gold.Chemscore.DEInternal.Weighted>
1.6189

> <Gold.Chemscore.Rot.Weighted>
6.8506

> <Gold.Chemscore.Internal.Correction.Weighted>
   9.000000E+99

> <Gold.Protein.RotatedTorsions>
[ 6907 6896 6895 6894 ] final  141.49 input  -60.11 | X-H torsion
[ 7974 7965 7964 7962 ] final -158.67 input  175.53 | X-H torsion
[ 8008 7997 7996 7995 ] final -119.61 input   59.86 | X-H torsion
[ 10167 10162 10161 10158 ] final  115.69 input  -65.29 | X-H torsion
[ 10718 10713 10712 10709 ] final   83.18 input   66.30 | X-H torsion
[ 10763 10752 10751 10750 ] final  174.93 input  -60.55 | X-H torsion
[ 11005 11000 10999 10996 ] final  122.89 input  -57.11 | X-H torsion

> <Gold.Protein.ActiveResidues>
 VAL166  LYS551  ARG553  GLY616  TRP617  ASP618  TYR619  PRO620  LYS621  CYS622 
 ASP623  PHE694  ASN695  SER759  ASP760  ASP761  ALA762  ILE779  LEU786  VAL792 
 PHE793  MET794  SER795  GLU796  ALA797  LYS798  CYS799  TRP800  GLU811  SER814 

> <Gold.Protein.RotatedAtoms>
  152.2304  133.5053  159.5212 H   0  0  0  0  0  0  0  0  0  0  0  0  # atno 6907 bound_to 6896
  150.7036  134.1224  159.4049 H   0  0  0  0  0  0  0  0  0  0  0  0  # atno 6908 bound_to 6896
  151.9145  135.0324  160.0568 H   0  0  0  0  0  0  0  0  0  0  0  0  # atno 6909 bound_to 6896
  144.7496  140.3795  143.6058 H   0  0  0  0  0  0  0  0  0  0  0  0  # atno 7974 bound_to 7965
  155.1185  140.0398  157.2743 H   0  0  0  0  0  0  0  0  0  0  0  0  # atno 8008 bound_to 7997
  154.6631  140.2595  155.7061 H   0  0  0  0  0  0  0  0  0  0  0  0  # atno 8009 bound_to 7997
  156.2627  140.2813  156.1111 H   0  0  0  0  0  0  0  0  0  0  0  0  # atno 8010 bound_to 7997
  139.6299  144.7113  151.2454 H   0  0  0  0  0  0  0  0  0  0  0  0  # atno 10167 bound_to 10162
  157.6873  131.0080  150.2485 H   0  0  0  0  0  0  0  0  0  0  0  0  # atno 10718 bound_to 10713
  154.4606  135.2767  155.1715 H   0  0  0  0  0  0  0  0  0  0  0  0  # atno 10763 bound_to 10752
  154.3505  135.6151  153.5644 H   0  0  0  0  0  0  0  0  0  0  0  0  # atno 10764 bound_to 10752
  152.9854  135.5810  154.4968 H   0  0  0  0  0  0  0  0  0  0  0  0  # atno 10765 bound_to 10752
  139.9288  134.9641  156.8177 H   0  0  0  0  0  0  0  0  0  0  0  0  # atno 11005 bound_to 11000
  145.6992  139.1657  143.2602 LP  0  0  0  0  0  0  0  0  0  0  0  0  # atno 17320 bound_to 7965
  146.1427  140.7035  142.9359 LP  0  0  0  0  0  0  0  0  0  0  0  0  # atno 17321 bound_to 7965
  140.7433  143.6499  150.8258 LP  0  0  0  0  0  0  0  0  0  0  0  0  # atno 17342 bound_to 10162
  140.0123  143.5630  152.2834 LP  0  0  0  0  0  0  0  0  0  0  0  0  # atno 17343 bound_to 10162
  156.3086  130.3768  149.7683 LP  0  0  0  0  0  0  0  0  0  0  0  0  # atno 17370 bound_to 10713
  156.5290  130.8249  151.3230 LP  0  0  0  0  0  0  0  0  0  0  0  0  # atno 17371 bound_to 10713
  140.6260  133.9950  155.7640 LP  0  0  0  0  0  0  0  0  0  0  0  0  # atno 17394 bound_to 11000
  141.0864  133.9985  157.3307 LP  0  0  0  0  0  0  0  0  0  0  0  0  # atno 17395 bound_to 11000

$$$$
