AV-unprocessed.smi:2021|AV-procd|sdf|8184|dock10
  -GOLD-   2272010443D 1   1.00000     0.00000
 Structure written by MMmdl.
 41 42  0  0  0  0  0  0  0  0  3 V2000
  152.7160  143.6735  159.3858 C   0  0  0  0  0  0  0  0  0  0  0  0
  151.9089  143.3867  158.1083 C   0  0  0  0  0  0  0  0  0  0  0  0
  151.9247  144.6098  157.1793 C   0  0  0  0  0  0  0  0  0  0  0  0
  150.4573  142.9673  158.4258 C   0  0  0  0  0  0  0  0  0  0  0  0
  149.7737  142.3108  157.2821 N   0  3  2  0  0  0  0  0  0  0  0  0
  148.5748  141.5282  157.6716 C   0  0  0  0  0  0  0  0  0  0  0  0
  147.9110  140.9108  156.4297 C   0  0  0  0  0  0  0  0  0  0  0  0
  148.8569  140.1115  155.7319 O   0  0  0  0  0  0  0  0  0  0  0  0
  149.9661  140.8722  155.2631 C   0  0  2  0  0  0  0  0  0  0  0  0
  150.8825  139.9498  154.4487 C   0  0  0  0  0  0  0  0  0  0  0  0
  151.1524  138.7177  155.1766 N   0  0  0  0  0  0  0  0  0  0  0  0
  152.3699  138.2034  155.3891 C   0  0  0  0  0  0  0  0  0  0  0  0
  153.3663  138.7888  154.9587 O   0  0  0  0  0  0  0  0  0  0  0  0
  152.3569  137.0448  156.0855 N   0  5  0  0  0  0  0  0  0  0  0  0
  152.4717  137.0665  157.4239 C   0  0  0  0  0  0  0  0  0  0  0  0
  153.0403  136.0636  158.1126 N   0  0  0  0  0  0  0  0  0  0  0  0
  153.0584  136.2839  159.4832 N   0  0  0  0  0  0  0  0  0  0  0  0
  152.4918  137.4493  159.7955 C   0  0  0  0  0  0  0  0  0  0  0  0
  151.8810  138.3813  158.4447 S   0  0  0  0  0  0  0  0  0  0  0  0
  150.6965  141.4741  156.4789 C   0  0  0  0  0  0  0  0  0  0  0  0
  152.2623  144.4745  159.9703 H   0  0  0  0  0  0  0  0  0  0  0  0
  153.7356  143.9764  159.1450 H   0  0  0  0  0  0  0  0  0  0  0  0
  152.7828  142.7917  160.0235 H   0  0  0  0  0  0  0  0  0  0  0  0
  152.4060  142.5797  157.5707 H   0  0  0  0  0  0  0  0  0  0  0  0
  151.4543  145.4735  157.6509 H   0  0  0  0  0  0  0  0  0  0  0  0
  151.3908  144.4060  156.2506 H   0  0  0  0  0  0  0  0  0  0  0  0
  152.9447  144.8906  156.9145 H   0  0  0  0  0  0  0  0  0  0  0  0
  150.4789  142.2819  159.2747 H   0  0  0  0  0  0  0  0  0  0  0  0
  149.8690  143.8283  158.7474 H   0  0  0  0  0  0  0  0  0  0  0  0
  148.8620  140.7395  158.3688 H   0  0  0  0  0  0  0  0  0  0  0  0
  147.8524  142.1614  158.1851 H   0  0  0  0  0  0  0  0  0  0  0  0
  147.0699  140.2839  156.7261 H   0  0  0  0  0  0  0  0  0  0  0  0
  147.5143  141.6861  155.7722 H   0  0  0  0  0  0  0  0  0  0  0  0
  149.6100  141.6782  154.6179 H   0  0  0  0  0  0  0  0  0  0  0  0
  150.4063  139.7010  153.4988 H   0  0  0  0  0  0  0  0  0  0  0  0
  151.8224  140.4533  154.2169 H   0  0  0  0  0  0  0  0  0  0  0  0
  150.3600  138.2147  155.5482 H   0  0  0  0  0  0  0  0  0  0  0  0
  152.4304  137.7607  160.8274 H   0  0  0  0  0  0  0  0  0  0  0  0
  151.5361  142.0805  156.1362 H   0  0  0  0  0  0  0  0  0  0  0  0
  151.1080  140.6804  157.1049 H   0  0  0  0  0  0  0  0  0  0  0  0
  149.4602  143.0508  156.6702 H   0  0  0  0  0  0  0  0  0  0  0  0
  1  2  1  0  0  0  0
  1 21  1  0  0  0  0
  1 22  1  0  0  0  0
  1 23  1  0  0  0  0
  2  3  1  0  0  0  0
  2  4  1  0  0  0  0
  2 24  1  0  0  0  0
  3 25  1  0  0  0  0
  3 26  1  0  0  0  0
  3 27  1  0  0  0  0
  4  5  1  0  0  0  0
  4 28  1  0  0  0  0
  4 29  1  0  0  0  0
  5 20  1  0  0  0  0
  5  6  1  0  0  0  0
  5 41  1  0  0  0  0
  6  7  1  0  0  0  0
  6 30  1  0  0  0  0
  6 31  1  0  0  0  0
  7  8  1  0  0  0  0
  7 32  1  0  0  0  0
  7 33  1  0  0  0  0
  8  9  1  0  0  0  0
  9 10  1  0  0  0  0
  9 20  1  0  0  0  0
  9 34  1  0  0  0  0
 10 11  1  0  0  0  0
 10 35  1  0  0  0  0
 10 36  1  0  0  0  0
 11 12  1  0  0  0  0
 11 37  1  0  0  0  0
 12 13  2  0  0  0  0
 12 14  1  0  0  0  0
 14 15  1  0  0  0  0
 15 19  1  0  0  0  0
 15 16  2  0  0  0  0
 16 17  1  0  0  0  0
 17 18  2  0  0  0  0
 18 19  1  0  0  0  0
 18 38  1  0  0  0  0
 20 39  1  0  0  0  0
 20 40  1  0  0  0  0
M  CHG  1   5   1
M  CHG  1  14  -1
M  END
> <s_m_source_file>
AV-unprocessed.smi

> <i_m_source_file_index>
2021

> <i_lp_mmshare_version>
43012

> <i_f3d_flags>
0

> <s_epik_input>
W0NIM11bQ0hdKFtDSDNdKVtDSDJdTjFbQ0gyXVtDSDJdT1tDQEhdKFtDSDJdMSlbQ0gyXVtOSF1DKD1PKVtOSF1jMm5uW2NIXXMy

> <s_epik_cmdline>
J2VwaWtfcHl0aG9uJywgJy1waCcsICc3LjAnLCAnLXRuJywgJzgnLCAnLW1hJywgJzIwMCcsICctbWV0YWxfYmluZGluZycsICctaW1hZScsICc8aW5maWxlLm1hZT4nLCAnLW9tYWUnLCAnPG91dGZpbGUubWFlPic=

> <r_lp_tautomer_probability>
1

> <r_epik_Ionization_Penalty>
3.15762

> <r_epik_Ionization_Penalty_Charging>
3.12229

> <r_epik_Ionization_Penalty_Neutral>
0.0353298

> <r_epik_State_Penalty>
3.11266

> <r_epik_Charging_Adjusted_Penalty>
6.23495

> <i_epik_Tot_Q>
0

> <i_epik_Tot_abs_Q>
2

> <r_epik_Metal_State_Penalty>
0.541462

> <b_epik_Metal_Only>
1

> <s_lp_Force_Field>
OPLS_2005

> <r_lp_Energy>
10.6965

> <b_lp_Chiralities_Consistent>
1

> <s_lp_Variant>
AV-unprocessed.smi:2021-10

> <Gold.Version>
5.8.1

> <Gold.Id.Protein>
6NUR|6NUR_protein|mol2

> <Gold.PLP.Fitness>
45.4792

> <Gold.PLP.PLP>
-30.6934

> <Gold.PLP.part.hbond>
-4.8725

> <Gold.PLP.part.metal>
0.0000

> <Gold.PLP.part.buried>
-1.4042

> <Gold.PLP.part.nonpolar>
-24.2243

> <Gold.PLP.part.repulsive>
0.1671

> <Gold.PLP.ligand.clash>
0.0000

> <Gold.PLP.ligand.torsion>
1.3736

> <Gold.PLP.Chemscore.Hbond>
5.8080

> <Gold.PLP.Chemscore.CHOScore>
0.0000

> <Gold.PLP.Chemscore.Metal>
0.0000

> <Gold.Chemscore.Hbonds>
donor molecule, donor type, donor heavy atom, donor atom, acceptor molecule, acceptor atom, score
      L1  H     5    41       P1  8028  1.98
      P1  H  6896  6909       L1    17  1.00
      P1  H  7997  8010       L1    13  1.00
      P1  H 10752 10765       L1    14  1.86

> <Gold.PLP.Chemscore.Internal.Correction>
0.1089

> <Gold.Rescore>
     Score         DG    S(hbond)    S(metal)    S(lipo)     H(rot)  DE(clash)    DE(int)     intcor
     17.50     -20.73       3.10        0.00      82.39       1.85       1.75       1.49       ----

> <Gold.Chemscore.Fitness>
17.4955

> <Gold.Chemscore.DG>
-20.7319

> <Gold.Chemscore.ZeroCoef>
-5.4800

> <Gold.Chemscore.Hbond>
3.0955

> <Gold.Chemscore.Metal>
0.0000

> <Gold.Chemscore.Lipo>
82.3937

> <Gold.Chemscore.Internal_Hbond>
0.0000

> <Gold.Chemscore.DEClash>
1.7461

> <Gold.Chemscore.DEInternal>
1.4903

> <Gold.Chemscore.Rot>
1.8466

> <Gold.Chemscore.Internal.Correction>
   9.000000E+99

> <Gold.Chemscore.Hbonds>
donor molecule, donor type, donor heavy atom, donor atom, acceptor molecule, acceptor atom, score
      L1  H     5    41       P1  8028  0.92
      P1  H  6896  6909       L1    17  0.19
      P1  H  7997  8010       L1    13  0.92
      P1  H 10752 10765       L1    14  0.69

> <Gold.Chemscore.Hbond.Weighted>
-10.3391

> <Gold.Chemscore.Metal.Weighted>
-0.0000

> <Gold.Chemscore.Lipo.Weighted>
-9.6401

> <Gold.Chemscore.Internal_Hbond.Weighted>
0.0000

> <Gold.Chemscore.DEClash.Weighted>
1.7461

> <Gold.Chemscore.DEInternal.Weighted>
1.4903

> <Gold.Chemscore.Rot.Weighted>
4.7272

> <Gold.Chemscore.Internal.Correction.Weighted>
   9.000000E+99

> <Gold.Protein.RotatedTorsions>
[ 6907 6896 6895 6894 ] final  146.30 input  -60.11 | X-H torsion
[ 7974 7965 7964 7962 ] final  148.46 input  175.53 | X-H torsion
[ 8008 7997 7996 7995 ] final   98.58 input   59.86 | X-H torsion
[ 10167 10162 10161 10158 ] final -179.57 input  -65.29 | X-H torsion
[ 10718 10713 10712 10709 ] final   12.53 input   66.30 | X-H torsion
[ 10763 10752 10751 10750 ] final -153.07 input  -60.55 | X-H torsion
[ 11005 11000 10999 10996 ] final  -56.13 input  -57.11 | X-H torsion

> <Gold.Protein.ActiveResidues>
 VAL166  LYS551  ARG553  GLY616  TRP617  ASP618  TYR619  PRO620  LYS621  CYS622 
 ASP623  PHE694  ASN695  SER759  ASP760  ASP761  ALA762  ILE779  LEU786  VAL792 
 PHE793  MET794  SER795  GLU796  ALA797  LYS798  CYS799  TRP800  GLU811  SER814 

> <Gold.Protein.RotatedAtoms>
  152.1696  133.4635  159.4902 H   0  0  0  0  0  0  0  0  0  0  0  0  # atno 6907 bound_to 6896
  150.6918  134.1969  159.4316 H   0  0  0  0  0  0  0  0  0  0  0  0  # atno 6908 bound_to 6896
  151.9875  134.9996  160.0611 H   0  0  0  0  0  0  0  0  0  0  0  0  # atno 6909 bound_to 6896
  144.8512  139.6157  143.5973 H   0  0  0  0  0  0  0  0  0  0  0  0  # atno 7974 bound_to 7965
  156.1018  140.3241  155.7953 H   0  0  0  0  0  0  0  0  0  0  0  0  # atno 8008 bound_to 7997
  155.4823  140.0555  157.2982 H   0  0  0  0  0  0  0  0  0  0  0  0  # atno 8009 bound_to 7997
  154.4702  140.2008  156.0029 H   0  0  0  0  0  0  0  0  0  0  0  0  # atno 8010 bound_to 7997
  139.5380  144.2443  152.0835 H   0  0  0  0  0  0  0  0  0  0  0  0  # atno 10167 bound_to 10162
  157.0114  130.6118  149.5708 H   0  0  0  0  0  0  0  0  0  0  0  0  # atno 10718 bound_to 10713
  154.7952  135.3221  154.7682 H   0  0  0  0  0  0  0  0  0  0  0  0  # atno 10763 bound_to 10752
  153.8362  135.6875  153.4812 H   0  0  0  0  0  0  0  0  0  0  0  0  # atno 10764 bound_to 10752
  153.1641  135.4649  154.9754 H   0  0  0  0  0  0  0  0  0  0  0  0  # atno 10765 bound_to 10752
  141.1106  133.6611  156.4573 H   0  0  0  0  0  0  0  0  0  0  0  0  # atno 11005 bound_to 11000
  146.2786  139.6818  142.9245 LP  0  0  0  0  0  0  0  0  0  0  0  0  # atno 17320 bound_to 7965
  145.4496  141.0427  143.2812 LP  0  0  0  0  0  0  0  0  0  0  0  0  # atno 17321 bound_to 7965
  140.1916  144.4746  150.6476 LP  0  0  0  0  0  0  0  0  0  0  0  0  # atno 17342 bound_to 10162
  140.6596  143.2248  151.5887 LP  0  0  0  0  0  0  0  0  0  0  0  0  # atno 17343 bound_to 10162
  156.0135  130.5227  150.8061 LP  0  0  0  0  0  0  0  0  0  0  0  0  # atno 17370 bound_to 10713
  157.5317  131.0937  150.9946 LP  0  0  0  0  0  0  0  0  0  0  0  0  # atno 17371 bound_to 10713
  140.4785  134.6686  157.5161 LP  0  0  0  0  0  0  0  0  0  0  0  0  # atno 17394 bound_to 11000
  139.9998  134.6854  155.9549 LP  0  0  0  0  0  0  0  0  0  0  0  0  # atno 17395 bound_to 11000

$$$$
