AV-unprocessed.smi:1507|AV-procd|sdf|6082|dock1
  -GOLD-   22720 6203D 1   1.00000     0.00000
 Structure written by MMmdl.
 34 35  0  0  0  0  0  0  0  0  3 V2000
  149.6124  135.8179  154.6339 N   0  0  0  0  0  0  0  0  0  0  0  0
  150.6125  136.8883  155.5306 S   0  0  0  0  0  0  0  0  0  0  0  0
  149.7509  137.4723  156.5712 O   0  0  0  0  0  0  0  0  0  0  0  0
  151.7815  136.0968  155.9461 O   0  0  0  0  0  0  0  0  0  0  0  0
  150.9222  137.9006  154.3062 N   0  5  0  0  0  0  0  0  0  0  0  0
  150.1170  139.0992  154.1663 C   0  0  0  0  0  0  0  0  0  0  0  0
  150.4274  140.1019  155.2667 C   0  0  0  0  0  0  0  0  0  0  0  0
  151.4455  139.8482  156.2158 C   0  0  0  0  0  0  0  0  0  0  0  0
  151.6982  140.7941  157.2317 C   0  0  0  0  0  0  0  0  0  0  0  0
  150.9303  141.9761  157.2865 C   0  0  0  0  0  0  0  0  0  0  0  0
  151.1459  142.9330  158.2880 N   0  0  0  0  0  0  0  0  0  0  0  0
  151.8680  142.4099  159.4409 C   0  0  0  0  0  0  0  0  0  0  0  0
  151.9589  143.4866  160.5361 C   0  0  0  0  0  0  0  0  0  0  0  0
  152.5665  144.6592  160.0016 O   0  0  0  0  0  0  0  0  0  0  0  0
  151.8146  145.2081  158.9229 C   0  0  0  0  0  0  0  0  0  0  0  0
  151.7189  144.1759  157.7862 C   0  0  0  0  0  0  0  0  0  0  0  0
  149.9668  142.1840  156.3576 N   0  3  0  0  0  0  0  0  0  0  0  0
  149.6922  141.3049  155.3684 C   0  0  0  0  0  0  0  0  0  0  0  0
  150.0297  134.8933  154.5333 H   0  0  0  0  0  0  0  0  0  0  0  0
  149.3026  136.2268  153.7532 H   0  0  0  0  0  0  0  0  0  0  0  0
  150.2791  139.5846  153.2034 H   0  0  0  0  0  0  0  0  0  0  0  0
  149.0500  138.8776  154.2075 H   0  0  0  0  0  0  0  0  0  0  0  0
  152.0316  138.9396  156.1833 H   0  0  0  0  0  0  0  0  0  0  0  0
  152.4707  140.6076  157.9634 H   0  0  0  0  0  0  0  0  0  0  0  0
  151.3593  141.5254  159.8261 H   0  0  0  0  0  0  0  0  0  0  0  0
  152.8707  142.1017  159.1407 H   0  0  0  0  0  0  0  0  0  0  0  0
  150.9700  143.7247  160.9316 H   0  0  0  0  0  0  0  0  0  0  0  0
  152.5582  143.1245  161.3716 H   0  0  0  0  0  0  0  0  0  0  0  0
  150.8221  145.5010  159.2691 H   0  0  0  0  0  0  0  0  0  0  0  0
  152.3084  146.1129  158.5688 H   0  0  0  0  0  0  0  0  0  0  0  0
  152.7120  143.9870  157.3759 H   0  0  0  0  0  0  0  0  0  0  0  0
  151.1027  144.5663  156.9753 H   0  0  0  0  0  0  0  0  0  0  0  0
  148.8903  141.5922  154.7020 H   0  0  0  0  0  0  0  0  0  0  0  0
  149.4161  143.0410  156.4086 H   0  0  0  0  0  0  0  0  0  0  0  0
  1  2  1  0  0  0  0
  1 19  1  0  0  0  0
  1 20  1  0  0  0  0
  2  3  2  0  0  0  0
  2  4  2  0  0  0  0
  2  5  1  0  0  0  0
  5  6  1  0  0  0  0
  6  7  1  0  0  0  0
  6 21  1  0  0  0  0
  6 22  1  0  0  0  0
  7 18  1  0  0  0  0
  7  8  2  0  0  0  0
  8  9  1  0  0  0  0
  8 23  1  0  0  0  0
  9 10  2  0  0  0  0
  9 24  1  0  0  0  0
 10 11  1  0  0  0  0
 10 17  1  0  0  0  0
 11 16  1  0  0  0  0
 11 12  1  0  0  0  0
 12 13  1  0  0  0  0
 12 25  1  0  0  0  0
 12 26  1  0  0  0  0
 13 14  1  0  0  0  0
 13 27  1  0  0  0  0
 13 28  1  0  0  0  0
 14 15  1  0  0  0  0
 15 16  1  0  0  0  0
 15 29  1  0  0  0  0
 15 30  1  0  0  0  0
 16 31  1  0  0  0  0
 16 32  1  0  0  0  0
 17 18  2  0  0  0  0
 17 34  1  0  0  0  0
 18 33  1  0  0  0  0
M  CHG  1   5  -1
M  CHG  1  17   1
M  END
> <s_m_source_file>
AV-unprocessed.smi

> <i_m_source_file_index>
1507

> <i_lp_mmshare_version>
43012

> <i_f3d_flags>
0

> <s_epik_input>
W05IMl1TKD1PKSg9TylbTkhdW0NIMl1jMVtjSF1bY0hdYyhuW2NIXTEpTjJbQ0gyXVtDSDJdT1tDSDJdW0NIMl0y

> <s_epik_cmdline>
J2VwaWtfcHl0aG9uJywgJy1waCcsICc3LjAnLCAnLXRuJywgJzgnLCAnLW1hJywgJzIwMCcsICctbWV0YWxfYmluZGluZycsICctaW1hZScsICc8aW5maWxlLm1hZT4nLCAnLW9tYWUnLCAnPG91dGZpbGUubWFlPic=

> <r_epik_Ionization_Penalty>
1.53449

> <r_epik_Ionization_Penalty_Charging>
1.53276

> <r_epik_Ionization_Penalty_Neutral>
0.00173209

> <r_epik_State_Penalty>
2.14469

> <r_epik_Charging_Adjusted_Penalty>
3.67745

> <i_epik_Tot_Q>
0

> <i_epik_Tot_abs_Q>
2

> <r_epik_Metal_State_Penalty>
2.50812

> <b_epik_Metal_Only>
0

> <s_lp_Force_Field>
OPLS_2005

> <r_lp_Energy>
19.2824

> <b_lp_Chiralities_Consistent>
1

> <s_lp_Variant>
AV-unprocessed.smi:1507-3

> <Gold.Version>
5.8.1

> <Gold.Id.Protein>
6NUR|6NUR_protein|mol2

> <Gold.PLP.Fitness>
45.2111

> <Gold.PLP.PLP>
-34.2106

> <Gold.PLP.part.hbond>
-3.0000

> <Gold.PLP.part.metal>
0.0000

> <Gold.PLP.part.buried>
-2.0916

> <Gold.PLP.part.nonpolar>
-29.2754

> <Gold.PLP.part.repulsive>
0.4623

> <Gold.PLP.ligand.clash>
0.2777

> <Gold.PLP.ligand.torsion>
0.8791

> <Gold.PLP.Chemscore.Hbond>
4.0000

> <Gold.PLP.Chemscore.CHOScore>
0.0000

> <Gold.PLP.Chemscore.Metal>
0.0000

> <Gold.Chemscore.Hbonds>
donor molecule, donor type, donor heavy atom, donor atom, acceptor molecule, acceptor atom, score
      L1  H     1    20       P1  7948  1.00
      L1  H    17    34       P1  8028  2.00
      P1  H 10752 10764       L1     4  1.00

> <Gold.PLP.Chemscore.Internal.Correction>
1.0365

> <Gold.Rescore>
     Score         DG    S(hbond)    S(metal)    S(lipo)     H(rot)  DE(clash)    DE(int)     intcor
     18.45     -19.67       2.86        0.00      81.57       1.91       0.14       1.08       ----

> <Gold.Chemscore.Fitness>
18.4473

> <Gold.Chemscore.DG>
-19.6670

> <Gold.Chemscore.ZeroCoef>
-5.4800

> <Gold.Chemscore.Hbond>
2.8557

> <Gold.Chemscore.Metal>
0.0000

> <Gold.Chemscore.Lipo>
81.5718

> <Gold.Chemscore.Internal_Hbond>
0.0000

> <Gold.Chemscore.DEClash>
0.1385

> <Gold.Chemscore.DEInternal>
1.0812

> <Gold.Chemscore.Rot>
1.9121

> <Gold.Chemscore.Internal.Correction>
   9.000000E+99

> <Gold.Chemscore.Hbonds>
donor molecule, donor type, donor heavy atom, donor atom, acceptor molecule, acceptor atom, score
      L1  H     1    20       P1  7948  0.83
      L1  H    17    34       P1  8028  0.94
      P1  H 10752 10764       L1     4  1.00

> <Gold.Chemscore.Hbond.Weighted>
-9.5381

> <Gold.Chemscore.Metal.Weighted>
-0.0000

> <Gold.Chemscore.Lipo.Weighted>
-9.5439

> <Gold.Chemscore.Internal_Hbond.Weighted>
0.0000

> <Gold.Chemscore.DEClash.Weighted>
0.1385

> <Gold.Chemscore.DEInternal.Weighted>
1.0812

> <Gold.Chemscore.Rot.Weighted>
4.8950

> <Gold.Chemscore.Internal.Correction.Weighted>
   9.000000E+99

> <Gold.Protein.RotatedTorsions>
[ 6907 6896 6895 6894 ] final -119.53 input  -60.11 | X-H torsion
[ 7974 7965 7964 7962 ] final   -1.02 input  175.53 | X-H torsion
[ 8008 7997 7996 7995 ] final  -94.98 input   59.86 | X-H torsion
[ 10167 10162 10161 10158 ] final -119.01 input  -65.29 | X-H torsion
[ 10718 10713 10712 10709 ] final  -33.64 input   66.30 | X-H torsion
[ 10763 10752 10751 10750 ] final  -41.63 input  -60.55 | X-H torsion
[ 11005 11000 10999 10996 ] final   40.42 input  -57.11 | X-H torsion

> <Gold.Protein.ActiveResidues>
 VAL166  LYS551  ARG553  GLY616  TRP617  ASP618  TYR619  PRO620  LYS621  CYS622 
 ASP623  PHE694  ASN695  SER759  ASP760  ASP761  ALA762  ILE779  LEU786  VAL792 
 PHE793  MET794  SER795  GLU796  ALA797  LYS798  CYS799  TRP800  GLU811  SER814 

> <Gold.Protein.RotatedAtoms>
  150.8313  133.8086  159.3097 H   0  0  0  0  0  0  0  0  0  0  0  0  # atno 6907 bound_to 6896
  151.5816  135.1056  160.0028 H   0  0  0  0  0  0  0  0  0  0  0  0  # atno 6908 bound_to 6896
  152.4392  133.7375  159.6678 H   0  0  0  0  0  0  0  0  0  0  0  0  # atno 6909 bound_to 6896
  146.2421  140.1357  142.8336 H   0  0  0  0  0  0  0  0  0  0  0  0  # atno 7974 bound_to 7965
  154.7554  140.0484  157.0929 H   0  0  0  0  0  0  0  0  0  0  0  0  # atno 8008 bound_to 7997
  155.0004  140.3124  155.4850 H   0  0  0  0  0  0  0  0  0  0  0  0  # atno 8009 bound_to 7997
  156.2894  140.2202  156.5114 H   0  0  0  0  0  0  0  0  0  0  0  0  # atno 8010 bound_to 7997
  140.0513  143.5057  152.2080 H   0  0  0  0  0  0  0  0  0  0  0  0  # atno 10167 bound_to 10162
  156.3602  130.4322  149.7630 H   0  0  0  0  0  0  0  0  0  0  0  0  # atno 10718 bound_to 10713
  153.9656  135.6734  153.4746 H   0  0  0  0  0  0  0  0  0  0  0  0  # atno 10763 bound_to 10752
  153.0817  135.4920  154.8513 H   0  0  0  0  0  0  0  0  0  0  0  0  # atno 10764 bound_to 10752
  154.7248  135.3125  154.8949 H   0  0  0  0  0  0  0  0  0  0  0  0  # atno 10765 bound_to 10752
  140.1932  134.3961  155.8135 H   0  0  0  0  0  0  0  0  0  0  0  0  # atno 11005 bound_to 11000
  145.0288  140.8854  143.5122 LP  0  0  0  0  0  0  0  0  0  0  0  0  # atno 17320 bound_to 7965
  145.1418  139.2568  143.5486 LP  0  0  0  0  0  0  0  0  0  0  0  0  # atno 17321 bound_to 7965
  139.5951  144.7564  151.3305 LP  0  0  0  0  0  0  0  0  0  0  0  0  # atno 17342 bound_to 10162
  140.7215  143.7122  150.7761 LP  0  0  0  0  0  0  0  0  0  0  0  0  # atno 17343 bound_to 10162
  156.4797  130.8035  151.3050 LP  0  0  0  0  0  0  0  0  0  0  0  0  # atno 17370 bound_to 10713
  157.7472  131.0010  150.2946 LP  0  0  0  0  0  0  0  0  0  0  0  0  # atno 17371 bound_to 10713
  141.2226  133.7057  156.8132 LP  0  0  0  0  0  0  0  0  0  0  0  0  # atno 17394 bound_to 11000
  140.2136  134.8809  157.3301 LP  0  0  0  0  0  0  0  0  0  0  0  0  # atno 17395 bound_to 11000

$$$$
