AV-unprocessed.smi:3181|AV-procd|sdf|12136|dock6
  -GOLD-   2272017573D 1   1.00000     0.00000
 Structure written by MMmdl.
 42 43  0  0  0  0  0  0  0  0  2 V2000
  144.1063  136.7585  152.6467 C   0  0  0  0  0  0  0  0  0  0  0  0
  145.3087  136.2309  151.8467 C   0  0  1  0  0  0  0  0  0  0  0  0
  144.8791  135.4875  150.5632 C   0  0  0  0  0  0  0  0  0  0  0  0
  145.0169  134.0473  150.6724 N   0  0  0  0  0  0  0  0  0  0  0  0
  144.1065  133.0765  150.5783 C   0  0  0  0  0  0  0  0  0  0  0  0
  144.6075  131.8582  150.7247 N   0  0  0  0  0  0  0  0  0  0  0  0
  145.9240  132.1725  150.9115 C   0  0  0  0  0  0  0  0  0  0  0  0
  146.2231  133.4717  150.8861 N   0  0  0  0  0  0  0  0  0  0  0  0
  146.2086  137.3568  151.5060 N   0  3  0  0  0  0  0  0  0  0  0  0
  146.3970  138.3832  152.5576 C   0  0  2  0  0  0  0  0  0  0  0  0
  146.9041  139.6889  151.9193 C   0  0  0  0  0  0  0  0  0  0  0  0
  147.1499  140.7816  152.9713 C   0  0  0  0  0  0  0  0  0  0  0  0
  148.1226  140.3013  154.0656 C   0  0  1  0  0  0  0  0  0  0  0  0
  148.4415  141.4163  155.0750 C   0  0  0  0  0  0  0  0  0  0  0  0
  147.6291  138.9911  154.7309 C   0  0  1  0  0  0  0  0  0  0  0  0
  146.4095  139.1724  155.6572 C   0  0  0  0  0  0  0  0  0  0  0  0
  147.3732  137.9104  153.6591 C   0  0  0  0  0  0  0  0  0  0  0  0
  143.4556  135.9473  152.9745 H   0  0  0  0  0  0  0  0  0  0  0  0
  143.5049  137.4472  152.0524 H   0  0  0  0  0  0  0  0  0  0  0  0
  144.4338  137.2888  153.5415 H   0  0  0  0  0  0  0  0  0  0  0  0
  145.8433  135.5339  152.4941 H   0  0  0  0  0  0  0  0  0  0  0  0
  143.8385  135.7151  150.3271 H   0  0  0  0  0  0  0  0  0  0  0  0
  145.4679  135.8167  149.7067 H   0  0  0  0  0  0  0  0  0  0  0  0
  143.0571  133.2632  150.4017 H   0  0  0  0  0  0  0  0  0  0  0  0
  146.6843  131.4215  151.0688 H   0  0  0  0  0  0  0  0  0  0  0  0
  147.1089  136.9913  151.2304 H   0  0  0  0  0  0  0  0  0  0  0  0
  145.4204  138.5841  152.9997 H   0  0  0  0  0  0  0  0  0  0  0  0
  147.8312  139.4993  151.3765 H   0  0  0  0  0  0  0  0  0  0  0  0
  146.1848  140.0494  151.1829 H   0  0  0  0  0  0  0  0  0  0  0  0
  147.5538  141.6680  152.4808 H   0  0  0  0  0  0  0  0  0  0  0  0
  146.2021  141.0870  153.4156 H   0  0  0  0  0  0  0  0  0  0  0  0
  149.0650  140.0636  153.5692 H   0  0  0  0  0  0  0  0  0  0  0  0
  147.5409  141.7926  155.5607 H   0  0  0  0  0  0  0  0  0  0  0  0
  148.9212  142.2613  154.5805 H   0  0  0  0  0  0  0  0  0  0  0  0
  149.1199  141.0629  155.8518 H   0  0  0  0  0  0  0  0  0  0  0  0
  148.4384  138.6226  155.3631 H   0  0  0  0  0  0  0  0  0  0  0  0
  145.5527  139.5970  155.1350 H   0  0  0  0  0  0  0  0  0  0  0  0
  146.6402  139.8260  156.4983 H   0  0  0  0  0  0  0  0  0  0  0  0
  146.0966  138.2166  156.0782 H   0  0  0  0  0  0  0  0  0  0  0  0
  146.9981  137.0092  154.1446 H   0  0  0  0  0  0  0  0  0  0  0  0
  148.3238  137.6326  153.2018 H   0  0  0  0  0  0  0  0  0  0  0  0
  145.8027  137.8266  150.7095 H   0  0  0  0  0  0  0  0  0  0  0  0
  1  2  1  0  0  0  0
  1 18  1  0  0  0  0
  1 19  1  0  0  0  0
  1 20  1  0  0  0  0
  2  3  1  0  0  0  0
  2  9  1  0  0  0  0
  2 21  1  0  0  0  0
  3  4  1  0  0  0  0
  3 22  1  0  0  0  0
  3 23  1  0  0  0  0
  4  8  1  0  0  0  0
  4  5  1  0  0  0  0
  5  6  2  0  0  0  0
  5 24  1  0  0  0  0
  6  7  1  0  0  0  0
  7  8  2  0  0  0  0
  7 25  1  0  0  0  0
  9 10  1  0  0  0  0
  9 26  1  0  0  0  0
  9 42  1  0  0  0  0
 10 17  1  0  0  0  0
 10 11  1  0  0  0  0
 10 27  1  0  0  0  0
 11 12  1  0  0  0  0
 11 28  1  0  0  0  0
 11 29  1  0  0  0  0
 12 13  1  0  0  0  0
 12 30  1  0  0  0  0
 12 31  1  0  0  0  0
 13 14  1  0  0  0  0
 13 15  1  0  0  0  0
 13 32  1  0  0  0  0
 14 33  1  0  0  0  0
 14 34  1  0  0  0  0
 14 35  1  0  0  0  0
 15 16  1  0  0  0  0
 15 17  1  0  0  0  0
 15 36  1  0  0  0  0
 16 37  1  0  0  0  0
 16 38  1  0  0  0  0
 16 39  1  0  0  0  0
 17 40  1  0  0  0  0
 17 41  1  0  0  0  0
M  CHG  1   9   1
M  END
> <s_m_source_file>
AV-unprocessed.smi

> <i_m_source_file_index>
3181

> <i_lp_mmshare_version>
43012

> <i_f3d_flags>
0

> <s_epik_input>
bjFbY0hdbltjSF1uMVtDSDJdW0NAQEhdKFtDSDNdKVtOSF1bQ0BASF0yW0NIMl1bQ0gyXVtDQEBIXShbQ0gzXSlbQ0BASF0oW0NIM10pW0NIMl0y

> <s_epik_cmdline>
J2VwaWtfcHl0aG9uJywgJy1waCcsICc3LjAnLCAnLXRuJywgJzgnLCAnLW1hJywgJzIwMCcsICctbWV0YWxfYmluZGluZycsICctaW1hZScsICc8aW5maWxlLm1hZT4nLCAnLW9tYWUnLCAnPG91dGZpbGUubWFlPic=

> <r_lp_tautomer_probability>
1

> <r_epik_Ionization_Penalty>
0.000617007

> <r_epik_Ionization_Penalty_Charging>
0.000616215

> <r_epik_Ionization_Penalty_Neutral>
7.92544e-07

> <r_epik_State_Penalty>
0.000388807

> <r_epik_Charging_Adjusted_Penalty>
0.00100502

> <i_epik_Tot_Q>
1

> <i_epik_Tot_abs_Q>
1

> <r_epik_Metal_State_Penalty>
-0

> <b_epik_Metal_Only>
0

> <s_lp_Force_Field>
OPLS_2005

> <r_lp_Energy>
21.1382

> <b_lp_Chiralities_Consistent>
1

> <s_lp_Variant>
AV-unprocessed.smi:3181-2

> <Gold.Version>
5.8.1

> <Gold.Id.Protein>
6NUR|6NUR_protein|mol2

> <Gold.PLP.Fitness>
39.2703

> <Gold.PLP.PLP>
-28.2977

> <Gold.PLP.part.hbond>
-1.6538

> <Gold.PLP.part.metal>
0.0000

> <Gold.PLP.part.buried>
0.4679

> <Gold.PLP.part.nonpolar>
-27.6051

> <Gold.PLP.part.repulsive>
0.4090

> <Gold.PLP.ligand.clash>
0.0000

> <Gold.PLP.ligand.torsion>
1.0015

> <Gold.PLP.Chemscore.Hbond>
2.3176

> <Gold.PLP.Chemscore.CHOScore>
2.0000

> <Gold.PLP.Chemscore.Metal>
0.0000

> <Gold.Chemscore.Hbonds>
donor molecule, donor type, donor heavy atom, donor atom, acceptor molecule, acceptor atom, score
      L1  H     9    26       P1  7948  1.81
      L1  H     9    42       P1 10171  0.40
      L1  C     5    24       P1 10186  1.00
      L1  C     7    25       P1 10747  1.00

> <Gold.PLP.Chemscore.Internal.Correction>
0.0227

> <Gold.Rescore>
     Score         DG    S(hbond)    S(metal)    S(lipo)     H(rot)  DE(clash)    DE(int)     intcor
     10.31     -11.98       1.31        0.00      64.19       2.11       1.03       0.64       ----

> <Gold.Chemscore.Fitness>
10.3066

> <Gold.Chemscore.DG>
-11.9777

> <Gold.Chemscore.ZeroCoef>
-5.4800

> <Gold.Chemscore.Hbond>
1.3137

> <Gold.Chemscore.Metal>
0.0000

> <Gold.Chemscore.Lipo>
64.1902

> <Gold.Chemscore.Internal_Hbond>
0.0000

> <Gold.Chemscore.DEClash>
1.0297

> <Gold.Chemscore.DEInternal>
0.6414

> <Gold.Chemscore.Rot>
2.1095

> <Gold.Chemscore.Internal.Correction>
   9.000000E+99

> <Gold.Chemscore.Hbonds>
donor molecule, donor type, donor heavy atom, donor atom, acceptor molecule, acceptor atom, score
      L1  H     9    26       P1  7948  0.83
      L1  H     9    42       P1 10171  0.38

> <Gold.Chemscore.Hbond.Weighted>
-4.3878

> <Gold.Chemscore.Metal.Weighted>
-0.0000

> <Gold.Chemscore.Lipo.Weighted>
-7.5103

> <Gold.Chemscore.Internal_Hbond.Weighted>
0.0000

> <Gold.Chemscore.DEClash.Weighted>
1.0297

> <Gold.Chemscore.DEInternal.Weighted>
0.6414

> <Gold.Chemscore.Rot.Weighted>
5.4003

> <Gold.Chemscore.Internal.Correction.Weighted>
   9.000000E+99

> <Gold.Protein.RotatedTorsions>
[ 6907 6896 6895 6894 ] final  129.25 input  -60.11 | X-H torsion
[ 7974 7965 7964 7962 ] final   -6.27 input  175.53 | X-H torsion
[ 8008 7997 7996 7995 ] final  -67.01 input   59.86 | X-H torsion
[ 10167 10162 10161 10158 ] final   36.96 input  -65.29 | X-H torsion
[ 10718 10713 10712 10709 ] final   26.20 input   66.30 | X-H torsion
[ 10763 10752 10751 10750 ] final   -1.12 input  -60.55 | X-H torsion
[ 11005 11000 10999 10996 ] final -147.34 input  -57.11 | X-H torsion

> <Gold.Protein.ActiveResidues>
 VAL166  LYS551  ARG553  GLY616  TRP617  ASP618  TYR619  PRO620  LYS621  CYS622 
 ASP623  PHE694  ASN695  SER759  ASP760  ASP761  ALA762  ILE779  LEU786  VAL792 
 PHE793  MET794  SER795  GLU796  ALA797  LYS798  CYS799  TRP800  GLU811  SER814 

> <Gold.Protein.RotatedAtoms>
  152.3642  133.6335  159.6037 H   0  0  0  0  0  0  0  0  0  0  0  0  # atno 6907 bound_to 6896
  150.7622  133.9375  159.3455 H   0  0  0  0  0  0  0  0  0  0  0  0  # atno 6908 bound_to 6896
  151.7209  135.0895  160.0335 H   0  0  0  0  0  0  0  0  0  0  0  0  # atno 6909 bound_to 6896
  146.2334  140.2146  142.8336 H   0  0  0  0  0  0  0  0  0  0  0  0  # atno 7974 bound_to 7965
  154.4771  140.0901  156.7289 H   0  0  0  0  0  0  0  0  0  0  0  0  # atno 8008 bound_to 7997
  155.4567  140.3459  155.4289 H   0  0  0  0  0  0  0  0  0  0  0  0  # atno 8009 bound_to 7997
  156.1134  140.1454  156.9295 H   0  0  0  0  0  0  0  0  0  0  0  0  # atno 8010 bound_to 7997
  140.4078  144.1635  150.6137 H   0  0  0  0  0  0  0  0  0  0  0  0  # atno 10167 bound_to 10162
  157.2036  130.6901  149.6198 H   0  0  0  0  0  0  0  0  0  0  0  0  # atno 10718 bound_to 10713
  153.3407  135.6980  153.6869 H   0  0  0  0  0  0  0  0  0  0  0  0  # atno 10763 bound_to 10752
  153.5635  135.3530  155.2809 H   0  0  0  0  0  0  0  0  0  0  0  0  # atno 10764 bound_to 10752
  154.8636  135.4255  154.2619 H   0  0  0  0  0  0  0  0  0  0  0  0  # atno 10765 bound_to 10752
  140.7727  134.3171  157.5070 H   0  0  0  0  0  0  0  0  0  0  0  0  # atno 11005 bound_to 11000
  144.9680  140.8341  143.5473 LP  0  0  0  0  0  0  0  0  0  0  0  0  # atno 17320 bound_to 7965
  145.2124  139.2198  143.5136 LP  0  0  0  0  0  0  0  0  0  0  0  0  # atno 17321 bound_to 7965
  140.4671  143.2427  151.9140 LP  0  0  0  0  0  0  0  0  0  0  0  0  # atno 17342 bound_to 10162
  139.4783  144.5408  151.8531 LP  0  0  0  0  0  0  0  0  0  0  0  0  # atno 17343 bound_to 10162
  155.9698  130.4574  150.5963 LP  0  0  0  0  0  0  0  0  0  0  0  0  # atno 17370 bound_to 10713
  157.3743  131.0770  151.1531 LP  0  0  0  0  0  0  0  0  0  0  0  0  # atno 17371 bound_to 10713
  139.8753  134.9270  156.3415 LP  0  0  0  0  0  0  0  0  0  0  0  0  # atno 17394 bound_to 11000
  140.9559  133.7420  156.0334 LP  0  0  0  0  0  0  0  0  0  0  0  0  # atno 17395 bound_to 11000

$$$$
