AV-unprocessed.smi:1643|AV-procd|sdf|6582|dock7
  -GOLD-   22720 7273D 1   1.00000     0.00000
 Structure written by MMmdl.
 54 56  0  0  0  0  0  0  0  0  2 V2000
  147.3903  134.6540  161.8623 C   0  0  0  0  0  0  0  0  0  0  0  0
  147.3660  136.0315  161.1948 C   0  0  0  0  0  0  0  0  0  0  0  0
  147.5585  137.0232  161.8986 O   0  0  0  0  0  0  0  0  0  0  0  0
  147.1306  136.1146  159.8633 N   0  0  0  0  0  0  0  0  0  0  0  0
  146.9545  134.9242  159.0238 C   0  0  0  0  0  0  0  0  0  0  0  0
  148.3045  134.4732  158.4433 C   0  0  0  0  0  0  0  0  0  0  0  0
  149.0596  135.5600  157.6491 C   0  0  0  0  0  0  0  0  0  0  0  0
  149.5540  136.6676  158.4796 N   0  0  0  0  0  0  0  0  0  0  0  0
  150.8158  137.2215  157.9826 C   0  0  0  0  0  0  0  0  0  0  0  0
  150.6708  138.2984  156.8883 C   0  0  2  0  0  0  0  0  0  0  0  0
  150.6836  137.6596  155.6266 O   0  0  0  0  0  0  0  0  0  0  0  0
  151.8234  139.3186  156.9413 C   0  0  0  0  0  0  0  0  0  0  0  0
  151.3474  140.7074  156.9610 N   0  0  0  0  0  0  0  0  0  0  0  0
  150.5852  141.3847  156.0605 C   0  0  0  0  0  0  0  0  0  0  0  0
  150.4118  142.6483  156.5386 N   0  3  0  0  0  0  0  0  0  0  0  0
  151.0735  142.7784  157.7620 C   0  0  0  0  0  0  0  0  0  0  0  0
  151.1903  143.8615  158.6252 C   0  0  0  0  0  0  0  0  0  0  0  0
  151.9407  143.6664  159.8069 C   0  0  0  0  0  0  0  0  0  0  0  0
  152.0919  144.8314  160.7701 C   0  0  0  0  0  0  0  0  0  0  0  0
  152.5405  142.4123  160.0930 C   0  0  0  0  0  0  0  0  0  0  0  0
  153.3413  142.2124  161.3685 C   0  0  0  0  0  0  0  0  0  0  0  0
  152.4104  141.3231  159.2020 C   0  0  0  0  0  0  0  0  0  0  0  0
  151.6727  141.5347  158.0401 C   0  0  0  0  0  0  0  0  0  0  0  0
  148.5631  137.7474  158.6095 C   0  0  0  0  0  0  0  0  0  0  0  0
  147.1470  137.3646  159.0958 C   0  0  0  0  0  0  0  0  0  0  0  0
  146.4571  134.1184  161.6891 H   0  0  0  0  0  0  0  0  0  0  0  0
  147.5189  134.7532  162.9406 H   0  0  0  0  0  0  0  0  0  0  0  0
  148.2183  134.0551  161.4826 H   0  0  0  0  0  0  0  0  0  0  0  0
  146.5040  134.1068  159.5890 H   0  0  0  0  0  0  0  0  0  0  0  0
  146.2527  135.1217  158.2129 H   0  0  0  0  0  0  0  0  0  0  0  0
  148.9444  134.1082  159.2478 H   0  0  0  0  0  0  0  0  0  0  0  0
  148.1314  133.6167  157.7911 H   0  0  0  0  0  0  0  0  0  0  0  0
  149.8892  135.0588  157.1541 H   0  0  0  0  0  0  0  0  0  0  0  0
  148.4395  135.9419  156.8369 H   0  0  0  0  0  0  0  0  0  0  0  0
  151.3796  137.6286  158.8233 H   0  0  0  0  0  0  0  0  0  0  0  0
  151.4342  136.4196  157.5756 H   0  0  0  0  0  0  0  0  0  0  0  0
  149.7268  138.8325  156.9852 H   0  0  0  0  0  0  0  0  0  0  0  0
  151.1985  136.8699  155.7001 H   0  0  0  0  0  0  0  0  0  0  0  0
  152.4509  139.1559  157.8184 H   0  0  0  0  0  0  0  0  0  0  0  0
  152.4731  139.2060  156.0722 H   0  0  0  0  0  0  0  0  0  0  0  0
  150.1861  140.9889  155.1375 H   0  0  0  0  0  0  0  0  0  0  0  0
  150.7282  144.8121  158.4025 H   0  0  0  0  0  0  0  0  0  0  0  0
  153.1451  145.0583  160.9368 H   0  0  0  0  0  0  0  0  0  0  0  0
  151.6310  144.5959  161.7296 H   0  0  0  0  0  0  0  0  0  0  0  0
  151.6154  145.7327  160.3838 H   0  0  0  0  0  0  0  0  0  0  0  0
  153.6865  141.1826  161.4659 H   0  0  0  0  0  0  0  0  0  0  0  0
  152.7339  142.4424  162.2442 H   0  0  0  0  0  0  0  0  0  0  0  0
  154.2178  142.8606  161.3740 H   0  0  0  0  0  0  0  0  0  0  0  0
  152.8659  140.3680  159.4184 H   0  0  0  0  0  0  0  0  0  0  0  0
  148.9583  138.4846  159.3092 H   0  0  0  0  0  0  0  0  0  0  0  0
  148.4687  138.2761  157.6597 H   0  0  0  0  0  0  0  0  0  0  0  0
  146.4991  137.2679  158.2242 H   0  0  0  0  0  0  0  0  0  0  0  0
  146.7072  138.1886  159.6583 H   0  0  0  0  0  0  0  0  0  0  0  0
  149.8786  143.3654  156.0636 H   0  0  0  0  0  0  0  0  0  0  0  0
  1  2  1  0  0  0  0
  1 26  1  0  0  0  0
  1 27  1  0  0  0  0
  1 28  1  0  0  0  0
  2  3  2  0  0  0  0
  2  4  1  0  0  0  0
  4 25  1  0  0  0  0
  4  5  1  0  0  0  0
  5  6  1  0  0  0  0
  5 29  1  0  0  0  0
  5 30  1  0  0  0  0
  6  7  1  0  0  0  0
  6 31  1  0  0  0  0
  6 32  1  0  0  0  0
  7  8  1  0  0  0  0
  7 33  1  0  0  0  0
  7 34  1  0  0  0  0
  8  9  1  0  0  0  0
  8 24  1  0  0  0  0
  9 10  1  0  0  0  0
  9 35  1  0  0  0  0
  9 36  1  0  0  0  0
 10 11  1  0  0  0  0
 10 12  1  0  0  0  0
 10 37  1  0  0  0  0
 11 38  1  0  0  0  0
 12 13  1  0  0  0  0
 12 39  1  0  0  0  0
 12 40  1  0  0  0  0
 13 23  1  0  0  0  0
 13 14  1  0  0  0  0
 14 15  2  0  0  0  0
 14 41  1  0  0  0  0
 15 16  1  0  0  0  0
 15 54  1  0  0  0  0
 16 23  2  0  0  0  0
 16 17  1  0  0  0  0
 17 18  2  0  0  0  0
 17 42  1  0  0  0  0
 18 19  1  0  0  0  0
 18 20  1  0  0  0  0
 19 43  1  0  0  0  0
 19 44  1  0  0  0  0
 19 45  1  0  0  0  0
 20 21  1  0  0  0  0
 20 22  2  0  0  0  0
 21 46  1  0  0  0  0
 21 47  1  0  0  0  0
 21 48  1  0  0  0  0
 22 23  1  0  0  0  0
 22 49  1  0  0  0  0
 24 25  1  0  0  0  0
 24 50  1  0  0  0  0
 24 51  1  0  0  0  0
 25 52  1  0  0  0  0
 25 53  1  0  0  0  0
M  CHG  1  15   1
M  END
> <s_m_source_file>
AV-unprocessed.smi

> <i_m_source_file_index>
1643

> <i_lp_mmshare_version>
43012

> <i_f3d_flags>
0

> <s_epik_input>
W0NIM11DKD1PKU4xW0NIMl1bQ0gyXVtDSDJdTihbQ0gyXVtDSDJdMSlbQ0gyXVtDQEhdKFtPSF0pW0NIMl1uKFtjSF1uMiljKGMyMylbY0hdYyhbQ0gzXSljKFtjSF0zKVtDSDNd

> <s_epik_cmdline>
J2VwaWtfcHl0aG9uJywgJy1waCcsICc3LjAnLCAnLXRuJywgJzgnLCAnLW1hJywgJzIwMCcsICctbWV0YWxfYmluZGluZycsICctaW1hZScsICc8aW5maWxlLm1hZT4nLCAnLW9tYWUnLCAnPG91dGZpbGUubWFlPic=

> <r_epik_Ionization_Penalty>
2.25269

> <r_epik_Ionization_Penalty_Charging>
1.20735

> <r_epik_Ionization_Penalty_Neutral>
1.04533

> <r_epik_State_Penalty>
2.37869

> <r_epik_Charging_Adjusted_Penalty>
3.58604

> <i_epik_Tot_Q>
1

> <i_epik_Tot_abs_Q>
1

> <r_epik_Metal_State_Penalty>
6.40045

> <b_epik_Metal_Only>
0

> <s_lp_Force_Field>
OPLS_2005

> <r_lp_Energy>
52.9577

> <b_lp_Chiralities_Consistent>
1

> <s_lp_Variant>
AV-unprocessed.smi:1643-11

> <Gold.Version>
5.8.1

> <Gold.Id.Protein>
6NUR|6NUR_protein|mol2

> <Gold.PLP.Fitness>
55.3413

> <Gold.PLP.PLP>
-46.8774

> <Gold.PLP.part.hbond>
-3.0000

> <Gold.PLP.part.metal>
0.0000

> <Gold.PLP.part.buried>
-6.5231

> <Gold.PLP.part.nonpolar>
-37.5523

> <Gold.PLP.part.repulsive>
0.1048

> <Gold.PLP.ligand.clash>
0.0000

> <Gold.PLP.ligand.torsion>
1.3313

> <Gold.PLP.Chemscore.Hbond>
3.6776

> <Gold.PLP.Chemscore.CHOScore>
0.0000

> <Gold.PLP.Chemscore.Metal>
0.0000

> <Gold.Chemscore.Hbonds>
donor molecule, donor type, donor heavy atom, donor atom, acceptor molecule, acceptor atom, score
      L1  H    15    54       P1  8028  2.00
      P1  H  6931  6943       L1     3  1.00
      P1  H  6934  6947       L1     3  0.35

> <Gold.PLP.Chemscore.Internal.Correction>
0.0937

> <Gold.Rescore>
     Score         DG    S(hbond)    S(metal)    S(lipo)     H(rot)  DE(clash)    DE(int)     intcor
     21.07     -22.46       2.74        0.00     113.27       2.12       0.00       1.39       ----

> <Gold.Chemscore.Fitness>
21.0736

> <Gold.Chemscore.DG>
-22.4614

> <Gold.Chemscore.ZeroCoef>
-5.4800

> <Gold.Chemscore.Hbond>
2.7428

> <Gold.Chemscore.Metal>
0.0000

> <Gold.Chemscore.Lipo>
113.2721

> <Gold.Chemscore.Internal_Hbond>
0.0000

> <Gold.Chemscore.DEClash>
0.0000

> <Gold.Chemscore.DEInternal>
1.3878

> <Gold.Chemscore.Rot>
2.1220

> <Gold.Chemscore.Internal.Correction>
   9.000000E+99

> <Gold.Chemscore.Hbonds>
donor molecule, donor type, donor heavy atom, donor atom, acceptor molecule, acceptor atom, score
      L1  H    15    54       P1  8028  1.00
      P1  H  6931  6943       L1     3  0.96
      P1  H  6934  6947       L1     3  0.33

> <Gold.Chemscore.Hbond.Weighted>
-9.1608

> <Gold.Chemscore.Metal.Weighted>
-0.0000

> <Gold.Chemscore.Lipo.Weighted>
-13.2528

> <Gold.Chemscore.Internal_Hbond.Weighted>
0.0000

> <Gold.Chemscore.DEClash.Weighted>
0.0000

> <Gold.Chemscore.DEInternal.Weighted>
1.3878

> <Gold.Chemscore.Rot.Weighted>
5.4322

> <Gold.Chemscore.Internal.Correction.Weighted>
   9.000000E+99

> <Gold.Protein.RotatedTorsions>
[ 6907 6896 6895 6894 ] final  -17.15 input  -60.11 | X-H torsion
[ 7974 7965 7964 7962 ] final  172.83 input  175.53 | X-H torsion
[ 8008 7997 7996 7995 ] final -100.27 input   59.86 | X-H torsion
[ 10167 10162 10161 10158 ] final -108.28 input  -65.29 | X-H torsion
[ 10718 10713 10712 10709 ] final   50.18 input   66.30 | X-H torsion
[ 10763 10752 10751 10750 ] final  147.96 input  -60.55 | X-H torsion
[ 11005 11000 10999 10996 ] final  -61.03 input  -57.11 | X-H torsion

> <Gold.Protein.ActiveResidues>
 VAL166  LYS551  ARG553  GLY616  TRP617  ASP618  TYR619  PRO620  LYS621  CYS622 
 ASP623  PHE694  ASN695  SER759  ASP760  ASP761  ALA762  ILE779  LEU786  VAL792 
 PHE793  MET794  SER795  GLU796  ALA797  LYS798  CYS799  TRP800  GLU811  SER814 

> <Gold.Protein.RotatedAtoms>
  151.2978  135.0760  159.9227 H   0  0  0  0  0  0  0  0  0  0  0  0  # atno 6907 bound_to 6896
  152.5304  133.9865  159.7841 H   0  0  0  0  0  0  0  0  0  0  0  0  # atno 6908 bound_to 6896
  151.0146  133.5882  159.2709 H   0  0  0  0  0  0  0  0  0  0  0  0  # atno 6909 bound_to 6896
  144.7258  139.9557  143.6433 H   0  0  0  0  0  0  0  0  0  0  0  0  # atno 7974 bound_to 7965
  154.8263  140.0442  157.1446 H   0  0  0  0  0  0  0  0  0  0  0  0  # atno 8008 bound_to 7997
  154.9202  140.3026  155.5200 H   0  0  0  0  0  0  0  0  0  0  0  0  # atno 8009 bound_to 7997
  156.2984  140.2342  156.4251 H   0  0  0  0  0  0  0  0  0  0  0  0  # atno 8010 bound_to 7997
  140.1679  143.4067  152.1377 H   0  0  0  0  0  0  0  0  0  0  0  0  # atno 10167 bound_to 10162
  157.4859  130.8345  149.8146 H   0  0  0  0  0  0  0  0  0  0  0  0  # atno 10718 bound_to 10713
  154.0470  135.2885  155.3346 H   0  0  0  0  0  0  0  0  0  0  0  0  # atno 10763 bound_to 10752
  154.6893  135.5233  153.8373 H   0  0  0  0  0  0  0  0  0  0  0  0  # atno 10764 bound_to 10752
  153.0576  135.6601  154.0669 H   0  0  0  0  0  0  0  0  0  0  0  0  # atno 10765 bound_to 10752
  141.1309  133.6627  156.5313 H   0  0  0  0  0  0  0  0  0  0  0  0  # atno 11005 bound_to 11000
  146.0677  139.3667  143.0542 LP  0  0  0  0  0  0  0  0  0  0  0  0  # atno 17320 bound_to 7965
  145.8009  140.9771  143.0999 LP  0  0  0  0  0  0  0  0  0  0  0  0  # atno 17321 bound_to 7965
  139.5351  144.7201  151.4920 LP  0  0  0  0  0  0  0  0  0  0  0  0  # atno 17342 bound_to 10162
  140.6601  143.8516  150.6878 LP  0  0  0  0  0  0  0  0  0  0  0  0  # atno 17343 bound_to 10162
  156.0146  130.3819  150.2151 LP  0  0  0  0  0  0  0  0  0  0  0  0  # atno 17370 bound_to 10713
  157.0338  131.0015  151.3304 LP  0  0  0  0  0  0  0  0  0  0  0  0  # atno 17371 bound_to 10713
  140.4213  134.7185  157.4891 LP  0  0  0  0  0  0  0  0  0  0  0  0  # atno 17394 bound_to 11000
  140.0358  134.6340  155.9046 LP  0  0  0  0  0  0  0  0  0  0  0  0  # atno 17395 bound_to 11000

$$$$
