AV-unprocessed.smi:2115|AV-procd|sdf|8624|dock6
  -GOLD-   2272011373D 1   1.00000     0.00000
 Structure written by MMmdl.
 37 38  0  0  0  0  0  0  0  0  1 V2000
  148.7593  126.4388  151.0701 C   0  0  0  0  0  0  0  0  0  0  0  0
  147.8962  127.5585  151.1641 O   0  0  0  0  0  0  0  0  0  0  0  0
  147.5397  127.8583  152.5034 C   0  0  0  0  0  0  0  0  0  0  0  0
  147.4071  129.3760  152.6616 C   0  0  0  0  0  0  0  0  0  0  0  0
  148.0484  129.7708  153.8708 O   0  0  0  0  0  0  0  0  0  0  0  0
  148.5112  131.0663  153.9788 C   0  0  0  0  0  0  0  0  0  0  0  0
  149.2813  131.4143  155.1061 C   0  0  0  0  0  0  0  0  0  0  0  0
  149.7611  132.7326  155.2188 C   0  0  0  0  0  0  0  0  0  0  0  0
  149.4681  133.6608  154.1996 C   0  0  0  0  0  0  0  0  0  0  0  0
  149.9521  134.9887  154.3452 N   0  0  0  0  0  0  0  0  0  0  0  0
  150.4932  135.5678  155.4328 C   0  0  0  0  0  0  0  0  0  0  0  0
  150.6507  135.0073  156.5177 O   0  0  0  0  0  0  0  0  0  0  0  0
  150.9191  137.0309  155.2637 C   0  0  1  0  0  0  0  0  0  0  0  0
  151.3415  137.7149  156.5778 C   0  0  0  0  0  0  0  0  0  0  0  0
  152.8359  137.9141  156.4170 C   0  0  0  0  0  0  0  0  0  0  0  0
  152.9739  138.0427  154.9071 C   0  0  0  0  0  0  0  0  0  0  0  0
  152.0694  137.0639  154.4209 O   0  0  0  0  0  0  0  0  0  0  0  0
  148.6727  133.2186  153.1144 C   0  0  0  0  0  0  0  0  0  0  0  0
  148.2081  131.9560  153.0015 N   0  0  0  0  0  0  0  0  0  0  0  0
  149.0022  126.2500  150.0245 H   0  0  0  0  0  0  0  0  0  0  0  0
  148.2868  125.5423  151.4733 H   0  0  0  0  0  0  0  0  0  0  0  0
  149.6930  126.6142  151.6060 H   0  0  0  0  0  0  0  0  0  0  0  0
  146.6086  127.3624  152.7824 H   0  0  0  0  0  0  0  0  0  0  0  0
  148.3199  127.4911  153.1718 H   0  0  0  0  0  0  0  0  0  0  0  0
  147.8937  129.8657  151.8164 H   0  0  0  0  0  0  0  0  0  0  0  0
  146.3548  129.6651  152.6569 H   0  0  0  0  0  0  0  0  0  0  0  0
  149.4996  130.6829  155.8703 H   0  0  0  0  0  0  0  0  0  0  0  0
  150.3520  133.0225  156.0756 H   0  0  0  0  0  0  0  0  0  0  0  0
  149.8127  135.5922  153.5478 H   0  0  0  0  0  0  0  0  0  0  0  0
  150.1198  137.6065  154.7930 H   0  0  0  0  0  0  0  0  0  0  0  0
  150.8434  138.6817  156.6640 H   0  0  0  0  0  0  0  0  0  0  0  0
  151.1002  137.1450  157.4764 H   0  0  0  0  0  0  0  0  0  0  0  0
  153.2142  138.7823  156.9571 H   0  0  0  0  0  0  0  0  0  0  0  0
  153.3717  137.0304  156.7664 H   0  0  0  0  0  0  0  0  0  0  0  0
  152.6611  139.0316  154.5687 H   0  0  0  0  0  0  0  0  0  0  0  0
  153.9903  137.8610  154.5576 H   0  0  0  0  0  0  0  0  0  0  0  0
  148.3728  133.8820  152.3183 H   0  0  0  0  0  0  0  0  0  0  0  0
  1  2  1  0  0  0  0
  1 20  1  0  0  0  0
  1 21  1  0  0  0  0
  1 22  1  0  0  0  0
  2  3  1  0  0  0  0
  3  4  1  0  0  0  0
  3 23  1  0  0  0  0
  3 24  1  0  0  0  0
  4  5  1  0  0  0  0
  4 25  1  0  0  0  0
  4 26  1  0  0  0  0
  5  6  1  0  0  0  0
  6 19  1  0  0  0  0
  6  7  2  0  0  0  0
  7  8  1  0  0  0  0
  7 27  1  0  0  0  0
  8  9  2  0  0  0  0
  8 28  1  0  0  0  0
  9 10  1  0  0  0  0
  9 18  1  0  0  0  0
 10 11  1  0  0  0  0
 10 29  1  0  0  0  0
 11 12  2  0  0  0  0
 11 13  1  0  0  0  0
 13 17  1  0  0  0  0
 13 14  1  0  0  0  0
 13 30  1  0  0  0  0
 14 15  1  0  0  0  0
 14 31  1  0  0  0  0
 14 32  1  0  0  0  0
 15 16  1  0  0  0  0
 15 33  1  0  0  0  0
 15 34  1  0  0  0  0
 16 17  1  0  0  0  0
 16 35  1  0  0  0  0
 16 36  1  0  0  0  0
 18 19  2  0  0  0  0
 18 37  1  0  0  0  0
M  END
> <s_m_source_file>
AV-unprocessed.smi

> <i_m_source_file_index>
2115

> <i_lp_mmshare_version>
43012

> <i_f3d_flags>
0

> <s_epik_input>
W0NIM11PW0NIMl1bQ0gyXU9jMVtjSF1bY0hdYyhbY0hdbjEpW05IXUMoPU8pW0NAQEhdMltDSDJdW0NIMl1bQ0gyXU8y

> <s_epik_cmdline>
J2VwaWtfcHl0aG9uJywgJy1waCcsICc3LjAnLCAnLXRuJywgJzgnLCAnLW1hJywgJzIwMCcsICctbWV0YWxfYmluZGluZycsICctaW1hZScsICc8aW5maWxlLm1hZT4nLCAnLW9tYWUnLCAnPG91dGZpbGUubWFlPic=

> <r_lp_tautomer_probability>
1

> <r_epik_Ionization_Penalty>
1.60185e-05

> <r_epik_Ionization_Penalty_Charging>
0

> <r_epik_Ionization_Penalty_Neutral>
1.60185e-05

> <r_epik_State_Penalty>
-0

> <r_epik_Charging_Adjusted_Penalty>
0

> <i_epik_Tot_Q>
0

> <i_epik_Tot_abs_Q>
0

> <r_epik_Metal_State_Penalty>
-0

> <b_epik_Metal_Only>
0

> <s_lp_Force_Field>
OPLS_2005

> <r_lp_Energy>
23.9239

> <b_lp_Chiralities_Consistent>
1

> <s_lp_Variant>
AV-unprocessed.smi:2115-2

> <Gold.Version>
5.8.1

> <Gold.Id.Protein>
6NUR|6NUR_protein|mol2

> <Gold.PLP.Fitness>
40.0912

> <Gold.PLP.PLP>
-33.2804

> <Gold.PLP.part.hbond>
-2.1874

> <Gold.PLP.part.metal>
0.0000

> <Gold.PLP.part.buried>
-5.3213

> <Gold.PLP.part.nonpolar>
-26.6423

> <Gold.PLP.part.repulsive>
0.6461

> <Gold.PLP.ligand.clash>
0.0000

> <Gold.PLP.ligand.torsion>
0.9463

> <Gold.PLP.Chemscore.Hbond>
1.9920

> <Gold.PLP.Chemscore.CHOScore>
0.8724

> <Gold.PLP.Chemscore.Metal>
0.0000

> <Gold.Chemscore.Hbonds>
donor molecule, donor type, donor heavy atom, donor atom, acceptor molecule, acceptor atom, score
      L1  H    10    29       P1  7948  0.55
      P1  H 10752 10765       L1    17  0.98
      L1  C    18    37       P1  7948  0.38

> <Gold.PLP.Chemscore.Internal.Correction>
0.1104

> <Gold.Rescore>
     Score         DG    S(hbond)    S(metal)    S(lipo)     H(rot)  DE(clash)    DE(int)     intcor
      9.34     -11.93       0.92        0.00      68.96       1.84       0.06       2.53       ----

> <Gold.Chemscore.Fitness>
9.3353

> <Gold.Chemscore.DG>
-11.9267

> <Gold.Chemscore.ZeroCoef>
-5.4800

> <Gold.Chemscore.Hbond>
0.9246

> <Gold.Chemscore.Metal>
0.0000

> <Gold.Chemscore.Lipo>
68.9603

> <Gold.Chemscore.Internal_Hbond>
0.0000

> <Gold.Chemscore.DEClash>
0.0595

> <Gold.Chemscore.DEInternal>
2.5319

> <Gold.Chemscore.Rot>
1.8398

> <Gold.Chemscore.Internal.Correction>
   9.000000E+99

> <Gold.Chemscore.Hbonds>
donor molecule, donor type, donor heavy atom, donor atom, acceptor molecule, acceptor atom, score
      L1  H    10    29       P1  7948  0.03
      P1  H 10752 10765       L1    17  0.44

> <Gold.Chemscore.Hbond.Weighted>
-3.0882

> <Gold.Chemscore.Metal.Weighted>
-0.0000

> <Gold.Chemscore.Lipo.Weighted>
-8.0684

> <Gold.Chemscore.Internal_Hbond.Weighted>
0.0000

> <Gold.Chemscore.DEClash.Weighted>
0.0595

> <Gold.Chemscore.DEInternal.Weighted>
2.5319

> <Gold.Chemscore.Rot.Weighted>
4.7099

> <Gold.Chemscore.Internal.Correction.Weighted>
   9.000000E+99

> <Gold.Protein.RotatedTorsions>
[ 6907 6896 6895 6894 ] final -100.32 input  -60.11 | X-H torsion
[ 7974 7965 7964 7962 ] final   -9.28 input  175.53 | X-H torsion
[ 8008 7997 7996 7995 ] final  -80.06 input   59.86 | X-H torsion
[ 10167 10162 10161 10158 ] final -114.50 input  -65.29 | X-H torsion
[ 10718 10713 10712 10709 ] final   30.21 input   66.30 | X-H torsion
[ 10763 10752 10751 10750 ] final  162.92 input  -60.55 | X-H torsion
[ 11005 11000 10999 10996 ] final  -50.09 input  -57.11 | X-H torsion

> <Gold.Protein.ActiveResidues>
 VAL166  LYS551  ARG553  GLY616  TRP617  ASP618  TYR619  PRO620  LYS621  CYS622 
 ASP623  PHE694  ASN695  SER759  ASP760  ASP761  ALA762  ILE779  LEU786  VAL792 
 PHE793  MET794  SER795  GLU796  ALA797  LYS798  CYS799  TRP800  GLU811  SER814 

> <Gold.Protein.RotatedAtoms>
  150.7111  134.0905  159.3929 H   0  0  0  0  0  0  0  0  0  0  0  0  # atno 6907 bound_to 6896
  151.8891  135.0421  160.0505 H   0  0  0  0  0  0  0  0  0  0  0  0  # atno 6908 bound_to 6896
  152.2506  133.5176  159.5360 H   0  0  0  0  0  0  0  0  0  0  0  0  # atno 6909 bound_to 6896
  146.2256  140.2592  142.8351 H   0  0  0  0  0  0  0  0  0  0  0  0  # atno 7974 bound_to 7965
  154.5845  140.0669  156.9152 H   0  0  0  0  0  0  0  0  0  0  0  0  # atno 8008 bound_to 7997
  155.2403  140.3344  155.4275 H   0  0  0  0  0  0  0  0  0  0  0  0  # atno 8009 bound_to 7997
  156.2213  140.1800  156.7454 H   0  0  0  0  0  0  0  0  0  0  0  0  # atno 8010 bound_to 7997
  140.1003  143.4619  152.1816 H   0  0  0  0  0  0  0  0  0  0  0  0  # atno 10167 bound_to 10162
  157.2566  130.7141  149.6432 H   0  0  0  0  0  0  0  0  0  0  0  0  # atno 10718 bound_to 10713
  154.2857  135.2762  155.2677 H   0  0  0  0  0  0  0  0  0  0  0  0  # atno 10763 bound_to 10752
  154.5178  135.5764  153.6660 H   0  0  0  0  0  0  0  0  0  0  0  0  # atno 10764 bound_to 10752
  152.9922  135.6197  154.3019 H   0  0  0  0  0  0  0  0  0  0  0  0  # atno 10765 bound_to 10752
  141.0796  133.6656  156.3681 H   0  0  0  0  0  0  0  0  0  0  0  0  # atno 11005 bound_to 11000
  144.9352  140.8019  143.5664 LP  0  0  0  0  0  0  0  0  0  0  0  0  # atno 17320 bound_to 7965
  145.2539  139.2020  143.4928 LP  0  0  0  0  0  0  0  0  0  0  0  0  # atno 17321 bound_to 7965
  139.5675  144.7444  151.3982 LP  0  0  0  0  0  0  0  0  0  0  0  0  # atno 17342 bound_to 10162
  140.6981  143.7698  150.7359 LP  0  0  0  0  0  0  0  0  0  0  0  0  # atno 17343 bound_to 10162
  155.9665  130.4411  150.5325 LP  0  0  0  0  0  0  0  0  0  0  0  0  # atno 17370 bound_to 10713
  157.3221  131.0684  151.1924 LP  0  0  0  0  0  0  0  0  0  0  0  0  # atno 17371 bound_to 10713
  140.5497  134.6040  157.5404 LP  0  0  0  0  0  0  0  0  0  0  0  0  # atno 17394 bound_to 11000
  139.9610  134.7453  156.0238 LP  0  0  0  0  0  0  0  0  0  0  0  0  # atno 17395 bound_to 11000

$$$$
