AV-unprocessed.smi:133|AV-procd|sdf|1165|dock6
  -GOLD-   2262018303D 1   1.00000     0.00000
 Structure written by MMmdl.
 47 50  0  0  0  0  0  0  0  0  1 V2000
  153.7731  138.2570  158.3716 O   0  0  0  0  0  0  0  0  0  0  0  0
  153.0939  138.7647  157.4783 C   0  0  0  0  0  0  0  0  0  0  0  0
  152.9603  138.0763  156.1105 C   0  0  0  0  0  0  0  0  0  0  0  0
  151.5649  137.7502  155.7414 N   0  0  0  0  0  0  0  0  0  0  0  0
  150.6834  138.8110  155.4154 C   0  0  0  0  0  0  0  0  0  0  0  0
  151.0545  139.9850  155.4546 O   0  0  0  0  0  0  0  0  0  0  0  0
  149.3356  138.4126  155.0263 C   0  0  0  0  0  0  0  0  0  0  0  0
  148.4360  139.3507  154.6851 F   0  0  0  0  0  0  0  0  0  0  0  0
  148.9771  137.1127  154.9982 C   0  0  0  0  0  0  0  0  0  0  0  0
  149.8389  136.0892  155.3394 N   0  0  0  0  0  0  0  0  0  0  0  0
  149.3652  134.6583  155.2300 C   0  0  2  0  0  0  0  0  0  0  0  0
  150.3167  133.7529  154.4251 C   0  0  0  0  0  0  0  0  0  0  0  0
  149.4264  133.2306  153.3091 C   0  0  0  0  0  0  0  0  0  0  0  0
  148.0235  133.4272  153.8735 C   0  0  0  0  0  0  0  0  0  0  0  0
  148.1267  134.6477  154.5899 O   0  0  0  0  0  0  0  0  0  0  0  0
  151.1752  136.3900  155.6913 C   0  0  0  0  0  0  0  0  0  0  0  0
  151.9832  135.4941  155.9406 O   0  0  0  0  0  0  0  0  0  0  0  0
  152.4446  139.9378  157.5889 N   0  0  0  0  0  0  0  0  0  0  0  0
  152.3681  140.8067  158.7104 C   0  0  0  0  0  0  0  0  0  0  0  0
  153.0688  140.5749  159.9273 C   0  0  0  0  0  0  0  0  0  0  0  0
  152.9366  141.4640  161.0168 C   0  0  0  0  0  0  0  0  0  0  0  0
  152.0894  142.5752  160.8723 C   0  0  0  0  0  0  0  0  0  0  0  0
  151.3914  142.7987  159.6930 C   0  0  0  0  0  0  0  0  0  0  0  0
  151.5092  141.9250  158.5985 C   0  0  0  0  0  0  0  0  0  0  0  0
  150.5451  144.0396  159.7770 C   0  0  0  0  0  0  0  0  0  0  0  0
  150.9655  144.6842  161.1202 C   0  0  0  0  0  0  0  0  0  0  0  0
  151.8008  143.6379  161.8972 C   0  0  0  0  0  0  0  0  0  0  0  0
  153.4229  138.7144  155.3558 H   0  0  0  0  0  0  0  0  0  0  0  0
  153.5825  137.1800  156.1129 H   0  0  0  0  0  0  0  0  0  0  0  0
  147.9683  136.8711  154.6964 H   0  0  0  0  0  0  0  0  0  0  0  0
  149.2417  134.3028  156.2541 H   0  0  0  0  0  0  0  0  0  0  0  0
  151.1933  134.2867  154.0567 H   0  0  0  0  0  0  0  0  0  0  0  0
  150.6531  132.9418  155.0717 H   0  0  0  0  0  0  0  0  0  0  0  0
  149.5538  133.8366  152.4115 H   0  0  0  0  0  0  0  0  0  0  0  0
  149.6358  132.1932  153.0473 H   0  0  0  0  0  0  0  0  0  0  0  0
  147.2599  133.4790  153.0973 H   0  0  0  0  0  0  0  0  0  0  0  0
  147.7640  132.6207  154.5615 H   0  0  0  0  0  0  0  0  0  0  0  0
  152.0081  140.2809  156.7458 H   0  0  0  0  0  0  0  0  0  0  0  0
  153.7032  139.7109  160.0520 H   0  0  0  0  0  0  0  0  0  0  0  0
  153.4689  141.2888  161.9402 H   0  0  0  0  0  0  0  0  0  0  0  0
  150.9564  142.1120  157.6892 H   0  0  0  0  0  0  0  0  0  0  0  0
  150.7216  144.7020  158.9287 H   0  0  0  0  0  0  0  0  0  0  0  0
  149.4919  143.7571  159.7866 H   0  0  0  0  0  0  0  0  0  0  0  0
  151.6055  145.5405  160.9038 H   0  0  0  0  0  0  0  0  0  0  0  0
  150.1167  145.0588  161.6932 H   0  0  0  0  0  0  0  0  0  0  0  0
  151.2272  143.2035  162.7165 H   0  0  0  0  0  0  0  0  0  0  0  0
  152.7207  144.0623  162.3008 H   0  0  0  0  0  0  0  0  0  0  0  0
  1  2  2  0  0  0  0
  2  3  1  0  0  0  0
  2 18  1  0  0  0  0
  3  4  1  0  0  0  0
  3 28  1  0  0  0  0
  3 29  1  0  0  0  0
  4 16  1  0  0  0  0
  4  5  1  0  0  0  0
  5  6  2  0  0  0  0
  5  7  1  0  0  0  0
  7  8  1  0  0  0  0
  7  9  2  0  0  0  0
  9 10  1  0  0  0  0
  9 30  1  0  0  0  0
 10 11  1  0  0  0  0
 10 16  1  0  0  0  0
 11 15  1  0  0  0  0
 11 12  1  0  0  0  0
 11 31  1  0  0  0  0
 12 13  1  0  0  0  0
 12 32  1  0  0  0  0
 12 33  1  0  0  0  0
 13 14  1  0  0  0  0
 13 34  1  0  0  0  0
 13 35  1  0  0  0  0
 14 15  1  0  0  0  0
 14 36  1  0  0  0  0
 14 37  1  0  0  0  0
 16 17  2  0  0  0  0
 18 19  1  0  0  0  0
 18 38  1  0  0  0  0
 19 24  1  0  0  0  0
 19 20  2  0  0  0  0
 20 21  1  0  0  0  0
 20 39  1  0  0  0  0
 21 22  2  0  0  0  0
 21 40  1  0  0  0  0
 22 27  1  0  0  0  0
 22 23  1  0  0  0  0
 23 24  2  0  0  0  0
 23 25  1  0  0  0  0
 24 41  1  0  0  0  0
 25 26  1  0  0  0  0
 25 42  1  0  0  0  0
 25 43  1  0  0  0  0
 26 27  1  0  0  0  0
 26 44  1  0  0  0  0
 26 45  1  0  0  0  0
 27 46  1  0  0  0  0
 27 47  1  0  0  0  0
M  END
> <s_m_source_file>
AV-unprocessed.smi

> <i_m_source_file_index>
133

> <i_lp_mmshare_version>
43012

> <i_f3d_flags>
0

> <s_epik_input>
W0NIMl0xW0NIMl1bQ0gyXWMoYzEyKVtjSF1jKFtjSF1bY0hdMilbTkhdQyg9TylbQ0gyXW4zYyg9TyljKEYpW2NIXW4oYzM9TylbQ0BASF00W0NIMl1bQ0gyXVtDSDJdTzQ=

> <s_epik_cmdline>
J2VwaWtfcHl0aG9uJywgJy1waCcsICc3LjAnLCAnLXRuJywgJzgnLCAnLW1hJywgJzIwMCcsICctbWV0YWxfYmluZGluZycsICctaW1hZScsICc8aW5maWxlLm1hZT4nLCAnLW9tYWUnLCAnPG91dGZpbGUubWFlPic=

> <r_lp_tautomer_probability>
1

> <r_epik_Ionization_Penalty>
4.05675e-06

> <r_epik_Ionization_Penalty_Charging>
3.88729e-08

> <r_epik_Ionization_Penalty_Neutral>
4.01788e-06

> <r_epik_State_Penalty>
-0

> <r_epik_Charging_Adjusted_Penalty>
3.88729e-08

> <i_epik_Tot_Q>
0

> <i_epik_Tot_abs_Q>
0

> <r_epik_Metal_State_Penalty>
-0

> <b_epik_Metal_Only>
0

> <s_epik_Chemistry_Notes>
This compound contains an acetal/aminal-like group ( X-CH(R)-Y where X, Y are N, S, or O) that may be acid/base labile, releasing an aldehyde.

> <s_lp_Force_Field>
OPLS_2005

> <r_lp_Energy>
40.9248

> <b_lp_Chiralities_Consistent>
1

> <s_lp_Variant>
AV-unprocessed.smi:133-1

> <Gold.Version>
5.8.1

> <Gold.Id.Protein>
6NUR|6NUR_protein|mol2

> <Gold.PLP.Fitness>
53.4506

> <Gold.PLP.PLP>
-48.0442

> <Gold.PLP.part.hbond>
-2.0000

> <Gold.PLP.part.metal>
0.0000

> <Gold.PLP.part.buried>
-3.5228

> <Gold.PLP.part.nonpolar>
-43.2176

> <Gold.PLP.part.repulsive>
1.6509

> <Gold.PLP.ligand.clash>
0.0000

> <Gold.PLP.ligand.torsion>
0.3107

> <Gold.PLP.Chemscore.Hbond>
2.0000

> <Gold.PLP.Chemscore.CHOScore>
0.0000

> <Gold.PLP.Chemscore.Metal>
0.0000

> <Gold.Chemscore.Hbonds>
donor molecule, donor type, donor heavy atom, donor atom, acceptor molecule, acceptor atom, score
      P1  H  7989  7998       L1     6  0.52
      P1  H 10752 10764       L1    17  0.91

> <Gold.PLP.Chemscore.Internal.Correction>
0.0278

> <Gold.Rescore>
     Score         DG    S(hbond)    S(metal)    S(lipo)     H(rot)  DE(clash)    DE(int)     intcor
     18.01     -21.54       1.98        0.00     115.44       1.59       0.63       2.90       ----

> <Gold.Chemscore.Fitness>
18.0088

> <Gold.Chemscore.DG>
-21.5380

> <Gold.Chemscore.ZeroCoef>
-5.4800

> <Gold.Chemscore.Hbond>
1.9804

> <Gold.Chemscore.Metal>
0.0000

> <Gold.Chemscore.Lipo>
115.4357

> <Gold.Chemscore.Internal_Hbond>
0.0000

> <Gold.Chemscore.DEClash>
0.6335

> <Gold.Chemscore.DEInternal>
2.8957

> <Gold.Chemscore.Rot>
1.5869

> <Gold.Chemscore.Internal.Correction>
   9.000000E+99

> <Gold.Chemscore.Hbonds>
donor molecule, donor type, donor heavy atom, donor atom, acceptor molecule, acceptor atom, score
      P1  H  7989  7998       L1     6  0.48
      P1  H 10752 10764       L1    17  0.42

> <Gold.Chemscore.Hbond.Weighted>
-6.6145

> <Gold.Chemscore.Metal.Weighted>
-0.0000

> <Gold.Chemscore.Lipo.Weighted>
-13.5060

> <Gold.Chemscore.Internal_Hbond.Weighted>
0.0000

> <Gold.Chemscore.DEClash.Weighted>
0.6335

> <Gold.Chemscore.DEInternal.Weighted>
2.8957

> <Gold.Chemscore.Rot.Weighted>
4.0624

> <Gold.Chemscore.Internal.Correction.Weighted>
   9.000000E+99

> <Gold.Protein.RotatedTorsions>
[ 6907 6896 6895 6894 ] final  -81.79 input  -60.11 | X-H torsion
[ 7974 7965 7964 7962 ] final  141.37 input  175.53 | X-H torsion
[ 8008 7997 7996 7995 ] final   -2.09 input   59.86 | X-H torsion
[ 10167 10162 10161 10158 ] final -124.98 input  -65.29 | X-H torsion
[ 10718 10713 10712 10709 ] final  -71.89 input   66.30 | X-H torsion
[ 10763 10752 10751 10750 ] final  -50.89 input  -60.55 | X-H torsion
[ 11005 11000 10999 10996 ] final -128.88 input  -57.11 | X-H torsion

> <Gold.Protein.ActiveResidues>
 VAL166  LYS551  ARG553  GLY616  TRP617  ASP618  TYR619  PRO620  LYS621  CYS622 
 ASP623  PHE694  ASN695  SER759  ASP760  ASP761  ALA762  ILE779  LEU786  VAL792 
 PHE793  MET794  SER795  GLU796  ALA797  LYS798  CYS799  TRP800  GLU811  SER814 

> <Gold.Protein.RotatedAtoms>
  150.6906  134.3763  159.5014 H   0  0  0  0  0  0  0  0  0  0  0  0  # atno 6907 bound_to 6896
  152.1572  134.8939  160.0553 H   0  0  0  0  0  0  0  0  0  0  0  0  # atno 6908 bound_to 6896
  152.0014  133.3792  159.4220 H   0  0  0  0  0  0  0  0  0  0  0  0  # atno 6909 bound_to 6896
  144.9102  139.5303  143.5712 H   0  0  0  0  0  0  0  0  0  0  0  0  # atno 7974 bound_to 7965
  154.6395  140.2543  155.7338 H   0  0  0  0  0  0  0  0  0  0  0  0  # atno 8008 bound_to 7997
  156.2521  140.2890  156.0703 H   0  0  0  0  0  0  0  0  0  0  0  0  # atno 8009 bound_to 7997
  155.1618  140.0384  157.2834 H   0  0  0  0  0  0  0  0  0  0  0  0  # atno 8010 bound_to 7997
  139.9869  143.5682  152.2357 H   0  0  0  0  0  0  0  0  0  0  0  0  # atno 10167 bound_to 10162
  156.0343  130.4360  150.2511 H   0  0  0  0  0  0  0  0  0  0  0  0  # atno 10718 bound_to 10713
  154.1178  135.6539  153.4897 H   0  0  0  0  0  0  0  0  0  0  0  0  # atno 10763 bound_to 10752
  153.0235  135.5263  154.7127 H   0  0  0  0  0  0  0  0  0  0  0  0  # atno 10764 bound_to 10752
  154.6326  135.2978  155.0168 H   0  0  0  0  0  0  0  0  0  0  0  0  # atno 10765 bound_to 10752
  140.9479  134.1105  157.4090 H   0  0  0  0  0  0  0  0  0  0  0  0  # atno 11005 bound_to 11000
  146.3155  139.7903  142.8987 LP  0  0  0  0  0  0  0  0  0  0  0  0  # atno 17320 bound_to 7965
  145.3467  141.0299  143.3362 LP  0  0  0  0  0  0  0  0  0  0  0  0  # atno 17321 bound_to 7965
  139.6368  144.7651  151.2421 LP  0  0  0  0  0  0  0  0  0  0  0  0  # atno 17342 bound_to 10162
  140.7469  143.6384  150.8357 LP  0  0  0  0  0  0  0  0  0  0  0  0  # atno 17343 bound_to 10162
  157.0611  131.0090  151.3222 LP  0  0  0  0  0  0  0  0  0  0  0  0  # atno 17370 bound_to 10713
  157.5070  130.7915  149.7664 LP  0  0  0  0  0  0  0  0  0  0  0  0  # atno 17371 bound_to 10713
  139.8839  135.0057  156.6330 LP  0  0  0  0  0  0  0  0  0  0  0  0  # atno 17394 bound_to 11000
  140.7644  133.8791  155.8443 LP  0  0  0  0  0  0  0  0  0  0  0  0  # atno 17395 bound_to 11000

$$$$
