AV-unprocessed.smi:1|AV-procd|sdf|12|dock8
  -GOLD-   2262015103D 1   1.00000     0.00000
 Structure written by MMmdl.
 57 62  0  0  0  0  0  0  0  0  1 V2000
  150.6096  143.3861  157.1396 O   0  0  0  0  0  0  0  0  0  0  0  0
  151.2689  142.5883  157.8119 C   0  0  0  0  0  0  0  0  0  0  0  0
  151.6816  141.3040  157.4819 N   0  0  0  0  0  0  0  0  0  0  0  0
  150.8209  140.3321  157.4439 C   0  0  0  0  0  0  0  0  0  0  0  0
  149.4424  140.2796  157.6855 N   0  0  0  0  0  0  0  0  0  0  0  0
  148.6352  139.1357  157.5976 C   0  0  0  0  0  0  0  0  0  0  0  0
  149.0616  137.9445  157.2739 N   0  0  0  0  0  0  0  0  0  0  0  0
  150.4270  137.9362  157.0264 C   0  0  0  0  0  0  0  0  0  0  0  0
  151.3186  138.9869  157.0816 C   0  0  0  0  0  0  0  0  0  0  0  0
  152.6047  138.5628  156.7679 N   0  0  0  0  0  0  0  0  0  0  0  0
  152.4333  137.2648  156.5350 C   0  0  0  0  0  0  0  0  0  0  0  0
  151.1710  136.8140  156.6602 N   0  0  0  0  0  0  0  0  0  0  0  0
  150.7274  135.3976  156.4627 C   0  0  1  0  0  0  0  0  0  0  0  0
  149.3407  135.3691  156.2938 O   0  0  0  0  0  0  0  0  0  0  0  0
  148.9978  134.8694  155.0036 C   0  0  2  0  0  0  0  0  0  0  0  0
  147.6617  134.1187  155.0412 C   0  0  0  0  0  0  0  0  0  0  0  0
  147.3038  133.7490  153.7201 O   0  0  0  0  0  0  0  0  0  0  0  0
  146.3522  134.4366  153.0608 C   0  0  0  0  0  0  0  0  0  0  0  0
  146.0296  135.5932  153.3394 O   0  0  0  0  0  0  0  0  0  0  0  0
  145.7302  133.6509  151.9560 C   0  0  0  0  0  0  0  0  0  0  0  0
  146.2065  132.3482  151.6788 C   0  0  0  0  0  0  0  0  0  0  0  0
  145.6358  131.5806  150.6450 C   0  0  0  0  0  0  0  0  0  0  0  0
  144.5816  132.1065  149.8756 C   0  0  0  0  0  0  0  0  0  0  0  0
  144.0993  133.4013  150.1410 C   0  0  0  0  0  0  0  0  0  0  0  0
  144.6688  134.1707  151.1743 C   0  0  0  0  0  0  0  0  0  0  0  0
  150.1963  134.0110  154.6026 C   0  0  2  0  0  0  0  0  0  0  0  0
  150.1295  132.7228  155.1920 O   0  0  0  0  0  0  0  0  0  0  0  0
  151.6482  132.3253  155.7624 S   0  0  0  0  0  0  0  0  0  0  0  0
  151.5363  132.0223  157.1973 O   0  0  0  0  0  0  0  0  0  0  0  0
  152.2754  131.4030  154.8037 O   0  0  0  0  0  0  0  0  0  0  0  0
  152.3706  133.8238  155.5952 O   0  0  0  0  0  0  0  0  0  0  0  0
  151.3768  134.7631  155.2237 C   0  0  2  0  0  0  0  0  0  0  0  0
  151.6825  143.0064  159.1852 C   0  0  0  0  0  0  0  0  0  0  0  0
  152.5256  142.1762  159.9538 C   0  0  0  0  0  0  0  0  0  0  0  0
  152.9201  142.5734  161.2465 C   0  0  0  0  0  0  0  0  0  0  0  0
  152.4751  143.8015  161.7730 C   0  0  0  0  0  0  0  0  0  0  0  0
  151.6358  144.6333  161.0069 C   0  0  0  0  0  0  0  0  0  0  0  0
  151.2402  144.2375  159.7141 C   0  0  0  0  0  0  0  0  0  0  0  0
  147.5840  139.3156  157.8270 H   0  0  0  0  0  0  0  0  0  0  0  0
  153.2557  136.6198  156.2627 H   0  0  0  0  0  0  0  0  0  0  0  0
  150.9837  134.8881  157.3928 H   0  0  0  0  0  0  0  0  0  0  0  0
  148.9248  135.7050  154.3083 H   0  0  0  0  0  0  0  0  0  0  0  0
  147.7597  133.2177  155.6486 H   0  0  0  0  0  0  0  0  0  0  0  0
  146.8839  134.7382  155.4902 H   0  0  0  0  0  0  0  0  0  0  0  0
  147.0142  131.9228  152.2568 H   0  0  0  0  0  0  0  0  0  0  0  0
  146.0073  130.5867  150.4434 H   0  0  0  0  0  0  0  0  0  0  0  0
  144.1436  131.5167  149.0840 H   0  0  0  0  0  0  0  0  0  0  0  0
  143.2895  133.8059  149.5517 H   0  0  0  0  0  0  0  0  0  0  0  0
  144.2739  135.1603  151.3521 H   0  0  0  0  0  0  0  0  0  0  0  0
  150.2908  133.9044  153.5214 H   0  0  0  0  0  0  0  0  0  0  0  0
  151.7671  135.5236  154.5471 H   0  0  0  0  0  0  0  0  0  0  0  0
  152.8720  141.2332  159.5562 H   0  0  0  0  0  0  0  0  0  0  0  0
  153.5646  141.9364  161.8340 H   0  0  0  0  0  0  0  0  0  0  0  0
  152.7782  144.1053  162.7640 H   0  0  0  0  0  0  0  0  0  0  0  0
  151.2953  145.5753  161.4106 H   0  0  0  0  0  0  0  0  0  0  0  0
  150.5977  144.8817  159.1315 H   0  0  0  0  0  0  0  0  0  0  0  0
  148.9906  141.1449  157.9456 H   0  0  0  0  0  0  0  0  0  0  0  0
  1  2  2  0  0  0  0
  2  3  1  0  0  0  0
  2 33  1  0  0  0  0
  3  4  2  0  0  0  0
  4  9  1  0  0  0  0
  4  5  1  0  0  0  0
  5  6  1  0  0  0  0
  5 57  1  0  0  0  0
  6  7  2  0  0  0  0
  6 39  1  0  0  0  0
  7  8  1  0  0  0  0
  8 12  1  0  0  0  0
  8  9  2  0  0  0  0
  9 10  1  0  0  0  0
 10 11  2  0  0  0  0
 11 12  1  0  0  0  0
 11 40  1  0  0  0  0
 12 13  1  0  0  0  0
 13 32  1  0  0  0  0
 13 14  1  0  0  0  0
 13 41  1  0  0  0  0
 14 15  1  0  0  0  0
 15 16  1  0  0  0  0
 15 26  1  0  0  0  0
 15 42  1  0  0  0  0
 16 17  1  0  0  0  0
 16 43  1  0  0  0  0
 16 44  1  0  0  0  0
 17 18  1  0  0  0  0
 18 19  2  0  0  0  0
 18 20  1  0  0  0  0
 20 25  1  0  0  0  0
 20 21  2  0  0  0  0
 21 22  1  0  0  0  0
 21 45  1  0  0  0  0
 22 23  2  0  0  0  0
 22 46  1  0  0  0  0
 23 24  1  0  0  0  0
 23 47  1  0  0  0  0
 24 25  2  0  0  0  0
 24 48  1  0  0  0  0
 25 49  1  0  0  0  0
 26 32  1  0  0  0  0
 26 27  1  0  0  0  0
 26 50  1  0  0  0  0
 27 28  1  0  0  0  0
 28 29  2  0  0  0  0
 28 30  2  0  0  0  0
 28 31  1  0  0  0  0
 31 32  1  0  0  0  0
 32 51  1  0  0  0  0
 33 38  1  0  0  0  0
 33 34  2  0  0  0  0
 34 35  1  0  0  0  0
 34 52  1  0  0  0  0
 35 36  2  0  0  0  0
 35 53  1  0  0  0  0
 36 37  1  0  0  0  0
 36 54  1  0  0  0  0
 37 38  2  0  0  0  0
 37 55  1  0  0  0  0
 38 56  1  0  0  0  0
M  END
> <s_m_source_file>
AV-unprocessed.smi

> <i_m_source_file_index>
1

> <i_lp_mmshare_version>
43012

> <i_f3d_flags>
0

> <s_epik_input>
W2NIXTFbY0hdW2NIXVtjSF1bY0hdYzFDKD1PKVtOSF1jKG5bY0hdbjIpYyhjMjMpbltjSF1uM1tDQEBIXShbQ0BIXShbQ0BIXTQ1KU9TKE81KSg9Tyk9TylPW0NASF00W0NIMl1PQyg9TyljNltjSF1bY0hdW2NIXVtjSF1bY0hdNg==

> <s_epik_cmdline>
J2VwaWtfcHl0aG9uJywgJy1waCcsICc3LjAnLCAnLXRuJywgJzgnLCAnLW1hJywgJzIwMCcsICctbWV0YWxfYmluZGluZycsICctaW1hZScsICc8aW5maWxlLm1hZT4nLCAnLW9tYWUnLCAnPG91dGZpbGUubWFlPic=

> <r_epik_Ionization_Penalty>
0.122545

> <r_epik_Ionization_Penalty_Charging>
0.122545

> <r_epik_Ionization_Penalty_Neutral>
7.8935e-16

> <r_epik_State_Penalty>
2.69178

> <r_epik_Charging_Adjusted_Penalty>
2.81433

> <i_epik_Tot_Q>
0

> <i_epik_Tot_abs_Q>
0

> <r_epik_Metal_State_Penalty>
3.02665

> <b_epik_Metal_Only>
0

> <s_epik_Chemistry_Notes>
This compound has an ester and may undergo hydrolysis at high or low pH. This compound contains an acetal/aminal-like group ( X-CH(R)-Y where X, Y are N, S, or O) that may be acid/base labile, releasing an aldehyde.

> <s_lp_Force_Field>
OPLS_2005

> <r_lp_Energy>
62.4663

> <b_lp_Chiralities_Consistent>
1

> <s_lp_Variant>
AV-unprocessed.smi:1-12

> <Gold.Version>
5.8.1

> <Gold.Id.Protein>
6NUR|6NUR_protein|mol2

> <Gold.PLP.Fitness>
52.3678

> <Gold.PLP.PLP>
-52.7766

> <Gold.PLP.part.hbond>
-1.0000

> <Gold.PLP.part.metal>
0.0000

> <Gold.PLP.part.buried>
-8.4036

> <Gold.PLP.part.nonpolar>
-43.4081

> <Gold.PLP.part.repulsive>
0.4221

> <Gold.PLP.ligand.clash>
0.0000

> <Gold.PLP.ligand.torsion>
1.8252

> <Gold.PLP.Chemscore.Hbond>
1.0000

> <Gold.PLP.Chemscore.CHOScore>
0.0000

> <Gold.PLP.Chemscore.Metal>
0.0000

> <Gold.Chemscore.Hbonds>
donor molecule, donor type, donor heavy atom, donor atom, acceptor molecule, acceptor atom, score
      P1  H  6896  6907       L1    29  0.06

> <Gold.PLP.Chemscore.Internal.Correction>
0.2416

> <Gold.Rescore>
     Score         DG    S(hbond)    S(metal)    S(lipo)     H(rot)  DE(clash)    DE(int)     intcor
     14.62     -18.41       0.85        0.00     133.05       2.13       0.39       3.40       ----

> <Gold.Chemscore.Fitness>
14.6161

> <Gold.Chemscore.DG>
-18.4118

> <Gold.Chemscore.ZeroCoef>
-5.4800

> <Gold.Chemscore.Hbond>
0.8462

> <Gold.Chemscore.Metal>
0.0000

> <Gold.Chemscore.Lipo>
133.0488

> <Gold.Chemscore.Internal_Hbond>
0.0000

> <Gold.Chemscore.DEClash>
0.3929

> <Gold.Chemscore.DEInternal>
3.4028

> <Gold.Chemscore.Rot>
2.1333

> <Gold.Chemscore.Internal.Correction>
   9.000000E+99

> <Gold.Chemscore.Hbonds>
donor molecule, donor type, donor heavy atom, donor atom, acceptor molecule, acceptor atom, score
      P1  H  6896  6907       L1    29  0.10
      P1  H  7997  8009       L1    10  0.07

> <Gold.Chemscore.Hbond.Weighted>
-2.8265

> <Gold.Chemscore.Metal.Weighted>
-0.0000

> <Gold.Chemscore.Lipo.Weighted>
-15.5667

> <Gold.Chemscore.Internal_Hbond.Weighted>
0.0000

> <Gold.Chemscore.DEClash.Weighted>
0.3929

> <Gold.Chemscore.DEInternal.Weighted>
3.4028

> <Gold.Chemscore.Rot.Weighted>
5.4614

> <Gold.Chemscore.Internal.Correction.Weighted>
   9.000000E+99

> <Gold.Protein.RotatedTorsions>
[ 6907 6896 6895 6894 ] final -168.36 input  -60.11 | X-H torsion
[ 7974 7965 7964 7962 ] final -138.71 input  175.53 | X-H torsion
[ 8008 7997 7996 7995 ] final  159.18 input   59.86 | X-H torsion
[ 10167 10162 10161 10158 ] final  167.53 input  -65.29 | X-H torsion
[ 10718 10713 10712 10709 ] final  -83.85 input   66.30 | X-H torsion
[ 10763 10752 10751 10750 ] final -122.58 input  -60.55 | X-H torsion
[ 11005 11000 10999 10996 ] final   18.84 input  -57.11 | X-H torsion

> <Gold.Protein.ActiveResidues>
 VAL166  LYS551  ARG553  GLY616  TRP617  ASP618  TYR619  PRO620  LYS621  CYS622 
 ASP623  PHE694  ASN695  SER759  ASP760  ASP761  ALA762  ILE779  LEU786  VAL792 
 PHE793  MET794  SER795  GLU796  ALA797  LYS798  CYS799  TRP800  GLU811  SER814 

> <Gold.Protein.RotatedAtoms>
  151.4743  133.3561  159.2827 H   0  0  0  0  0  0  0  0  0  0  0  0  # atno 6907 bound_to 6896
  150.8940  134.8348  159.7324 H   0  0  0  0  0  0  0  0  0  0  0  0  # atno 6908 bound_to 6896
  152.4840  134.4656  159.9671 H   0  0  0  0  0  0  0  0  0  0  0  0  # atno 6909 bound_to 6896
  144.8736  140.6403  143.5251 H   0  0  0  0  0  0  0  0  0  0  0  0  # atno 7974 bound_to 7965
  156.2255  140.1838  156.7373 H   0  0  0  0  0  0  0  0  0  0  0  0  # atno 8008 bound_to 7997
  154.5934  140.0647  156.9299 H   0  0  0  0  0  0  0  0  0  0  0  0  # atno 8009 bound_to 7997
  155.2296  140.3314  155.4307 H   0  0  0  0  0  0  0  0  0  0  0  0  # atno 8010 bound_to 7997
  139.4947  144.3912  151.9515 H   0  0  0  0  0  0  0  0  0  0  0  0  # atno 10167 bound_to 10162
  156.0013  130.4679  150.4320 H   0  0  0  0  0  0  0  0  0  0  0  0  # atno 10718 bound_to 10713
  154.8692  135.4128  154.2805 H   0  0  0  0  0  0  0  0  0  0  0  0  # atno 10763 bound_to 10752
  153.3699  135.7007  153.6652 H   0  0  0  0  0  0  0  0  0  0  0  0  # atno 10764 bound_to 10752
  153.5518  135.3627  155.2734 H   0  0  0  0  0  0  0  0  0  0  0  0  # atno 10765 bound_to 10752
  140.4203  134.1526  155.7672 H   0  0  0  0  0  0  0  0  0  0  0  0  # atno 11005 bound_to 11000
  145.4085  139.1584  143.4139 LP  0  0  0  0  0  0  0  0  0  0  0  0  # atno 17320 bound_to 7965
  146.2947  140.4187  142.8726 LP  0  0  0  0  0  0  0  0  0  0  0  0  # atno 17321 bound_to 7965
  140.3349  144.3272  150.5979 LP  0  0  0  0  0  0  0  0  0  0  0  0  # atno 17342 bound_to 10162
  140.5614  143.2191  151.7758 LP  0  0  0  0  0  0  0  0  0  0  0  0  # atno 17343 bound_to 10162
  157.2368  131.0516  151.2460 LP  0  0  0  0  0  0  0  0  0  0  0  0  # atno 17370 bound_to 10713
  157.3659  130.7155  149.6532 LP  0  0  0  0  0  0  0  0  0  0  0  0  # atno 17371 bound_to 10713
  141.1787  133.8461  157.1334 LP  0  0  0  0  0  0  0  0  0  0  0  0  # atno 17394 bound_to 11000
  140.0205  134.9948  157.0581 LP  0  0  0  0  0  0  0  0  0  0  0  0  # atno 17395 bound_to 11000

$$$$
