AV-unprocessed.smi:21|AV-procd|sdf|121|dock4
  -GOLD-   2262015293D 1   1.00000     0.00000
 Structure written by MMmdl.
 62 65  0  0  0  0  0  0  0  0  2 V2000
  144.8557  132.5866  150.3387 C   0  0  0  0  0  0  0  0  0  0  0  0
  146.1048  132.3133  150.9524 O   0  0  0  0  0  0  0  0  0  0  0  0
  146.2702  132.9525  152.2092 C   0  0  1  0  0  0  0  0  0  0  0  0
  147.6351  132.6237  152.7977 C   0  0  0  0  0  0  0  0  0  0  0  0
  147.8707  133.7719  153.7826 C   0  0  1  0  0  0  0  0  0  0  0  0
  149.3625  134.0150  154.0948 C   0  0  0  0  0  0  0  0  0  0  0  0
  149.6273  134.2980  155.5039 N   0  0  0  0  0  0  0  0  0  0  0  0
  150.8201  133.6737  156.0579 C   0  0  0  0  0  0  0  0  0  0  0  0
  149.5415  135.6032  155.8414 C   0  0  0  0  0  0  0  0  0  0  0  0
  148.5198  135.9684  156.6537 N   0  0  0  0  0  0  0  0  0  0  0  0
  148.3782  137.2482  157.0129 C   0  0  0  0  0  0  0  0  0  0  0  0
  149.1324  138.2978  156.6783 N   0  0  0  0  0  0  0  0  0  0  0  0
  150.1617  137.9302  155.8623 C   0  0  0  0  0  0  0  0  0  0  0  0
  150.4384  136.6146  155.3968 C   0  0  0  0  0  0  0  0  0  0  0  0
  151.5653  136.6247  154.5835 N   0  0  0  0  0  0  0  0  0  0  0  0
  151.9413  137.8748  154.5781 C   0  0  0  0  0  0  0  0  0  0  0  0
  151.1570  138.7262  155.3230 N   0  0  0  0  0  0  0  0  0  0  0  0
  151.3506  140.1568  155.4879 C   0  0  0  0  0  0  0  0  0  0  0  0
  150.3612  140.7971  156.4946 C   0  0  2  0  0  0  0  0  0  0  0  0
  149.1624  141.4495  155.7578 C   0  0  0  0  0  0  0  0  0  0  0  0
  149.5839  142.3243  154.7330 O   0  0  0  0  0  0  0  0  0  0  0  0
  151.1012  141.8049  157.4179 C   0  0  2  0  0  0  0  0  0  0  0  0
  152.1932  141.1977  158.2845 C   0  0  0  0  0  0  0  0  0  0  0  0
  152.3977  142.2617  159.3572 C   0  0  0  0  0  0  0  0  0  0  0  0
  151.1328  142.8892  159.5251 O   0  0  0  0  0  0  0  0  0  0  0  0
  150.2395  142.4628  158.5020 C   0  0  0  0  0  0  0  0  0  0  0  0
  147.2511  134.9581  153.1467 N   0  3  2  0  0  0  0  0  0  0  0  0
  146.6648  135.9195  154.1061 C   0  0  0  0  0  0  0  0  0  0  0  0
  146.2989  134.4839  152.1142 C   0  0  0  0  0  0  0  0  0  0  0  0
  145.4989  132.6334  152.9130 H   0  0  0  0  0  0  0  0  0  0  0  0
  147.3158  133.5540  154.6974 H   0  0  0  0  0  0  0  0  0  0  0  0
  144.7897  132.0497  149.3924 H   0  0  0  0  0  0  0  0  0  0  0  0
  144.7369  133.6496  150.1271 H   0  0  0  0  0  0  0  0  0  0  0  0
  144.0270  132.2594  150.9679 H   0  0  0  0  0  0  0  0  0  0  0  0
  147.6642  131.6426  153.2727 H   0  0  0  0  0  0  0  0  0  0  0  0
  148.3916  132.6386  152.0113 H   0  0  0  0  0  0  0  0  0  0  0  0
  149.9414  133.1380  153.8026 H   0  0  0  0  0  0  0  0  0  0  0  0
  149.7399  134.8388  153.4886 H   0  0  0  0  0  0  0  0  0  0  0  0
  150.9550  133.9437  157.1064 H   0  0  0  0  0  0  0  0  0  0  0  0
  151.7121  133.9746  155.5072 H   0  0  0  0  0  0  0  0  0  0  0  0
  150.7372  132.5882  156.0011 H   0  0  0  0  0  0  0  0  0  0  0  0
  147.5424  137.4618  157.6630 H   0  0  0  0  0  0  0  0  0  0  0  0
  152.8088  138.2134  154.0301 H   0  0  0  0  0  0  0  0  0  0  0  0
  152.3814  140.3003  155.8105 H   0  0  0  0  0  0  0  0  0  0  0  0
  151.2633  140.6396  154.5138 H   0  0  0  0  0  0  0  0  0  0  0  0
  149.9721  139.9891  157.1166 H   0  0  0  0  0  0  0  0  0  0  0  0
  148.5023  140.6878  155.3419 H   0  0  0  0  0  0  0  0  0  0  0  0
  148.5568  142.0527  156.4321 H   0  0  0  0  0  0  0  0  0  0  0  0
  149.2588  143.1907  154.9251 H   0  0  0  0  0  0  0  0  0  0  0  0
  151.5477  142.5919  156.8074 H   0  0  0  0  0  0  0  0  0  0  0  0
  151.8452  140.2697  158.7407 H   0  0  0  0  0  0  0  0  0  0  0  0
  153.1135  140.9868  157.7391 H   0  0  0  0  0  0  0  0  0  0  0  0
  152.7630  141.8427  160.2948 H   0  0  0  0  0  0  0  0  0  0  0  0
  153.1138  143.0111  159.0184 H   0  0  0  0  0  0  0  0  0  0  0  0
  149.6594  143.3042  158.1227 H   0  0  0  0  0  0  0  0  0  0  0  0
  149.5464  141.7409  158.9360 H   0  0  0  0  0  0  0  0  0  0  0  0
  145.8379  135.4703  154.6578 H   0  0  0  0  0  0  0  0  0  0  0  0
  146.2890  136.7986  153.5820 H   0  0  0  0  0  0  0  0  0  0  0  0
  147.4146  136.2526  154.8245 H   0  0  0  0  0  0  0  0  0  0  0  0
  146.6842  134.7971  151.1432 H   0  0  0  0  0  0  0  0  0  0  0  0
  145.3015  134.9121  152.2244 H   0  0  0  0  0  0  0  0  0  0  0  0
  147.9867  135.4402  152.6498 H   0  0  0  0  0  0  0  0  0  0  0  0
  1  2  1  0  0  0  0
  1 32  1  0  0  0  0
  1 33  1  0  0  0  0
  1 34  1  0  0  0  0
  2  3  1  0  0  0  0
  3 30  1  0  0  0  0
  3 29  1  0  0  0  0
  3  4  1  0  0  0  0
  4  5  1  0  0  0  0
  4 35  1  0  0  0  0
  4 36  1  0  0  0  0
  5 31  1  0  0  0  0
  5  6  1  0  0  0  0
  5 27  1  0  0  0  0
  6  7  1  0  0  0  0
  6 37  1  0  0  0  0
  6 38  1  0  0  0  0
  7  8  1  0  0  0  0
  7  9  1  0  0  0  0
  8 39  1  0  0  0  0
  8 40  1  0  0  0  0
  8 41  1  0  0  0  0
  9 14  1  0  0  0  0
  9 10  2  0  0  0  0
 10 11  1  0  0  0  0
 11 12  2  0  0  0  0
 11 42  1  0  0  0  0
 12 13  1  0  0  0  0
 13 17  1  0  0  0  0
 13 14  2  0  0  0  0
 14 15  1  0  0  0  0
 15 16  2  0  0  0  0
 16 17  1  0  0  0  0
 16 43  1  0  0  0  0
 17 18  1  0  0  0  0
 18 19  1  0  0  0  0
 18 44  1  0  0  0  0
 18 45  1  0  0  0  0
 19 20  1  0  0  0  0
 19 22  1  0  0  0  0
 19 46  1  0  0  0  0
 20 21  1  0  0  0  0
 20 47  1  0  0  0  0
 20 48  1  0  0  0  0
 21 49  1  0  0  0  0
 22 26  1  0  0  0  0
 22 23  1  0  0  0  0
 22 50  1  0  0  0  0
 23 24  1  0  0  0  0
 23 51  1  0  0  0  0
 23 52  1  0  0  0  0
 24 25  1  0  0  0  0
 24 53  1  0  0  0  0
 24 54  1  0  0  0  0
 25 26  1  0  0  0  0
 26 55  1  0  0  0  0
 26 56  1  0  0  0  0
 27 28  1  0  0  0  0
 27 29  1  0  0  0  0
 27 62  1  0  0  0  0
 28 57  1  0  0  0  0
 28 58  1  0  0  0  0
 28 59  1  0  0  0  0
 29 60  1  0  0  0  0
 29 61  1  0  0  0  0
M  CHG  1  27   1
M  END
> <s_m_source_file>
AV-unprocessed.smi

> <i_m_source_file_index>
21

> <i_lp_mmshare_version>
43012

> <i_f3d_flags>
0

> <s_epik_input>
W0NIM11PW0NASF0xW0NIMl1bQ0BIXShOKFtDSDNdKVtDSDJdMSlbQ0gyXU4oW0NIM10pYyhuW2NIXW4yKWMoYzIzKW5bY0hdbjNbQ0gyXVtDQEhdKFtDSDJdW09IXSlbQ0BASF00W0NIMl1bQ0gyXU9bQ0gyXTQ=

> <s_epik_cmdline>
J2VwaWtfcHl0aG9uJywgJy1waCcsICc3LjAnLCAnLXRuJywgJzgnLCAnLW1hJywgJzIwMCcsICctbWV0YWxfYmluZGluZycsICctaW1hZScsICc8aW5maWxlLm1hZT4nLCAnLW9tYWUnLCAnPG91dGZpbGUubWFlPic=

> <r_lp_tautomer_probability>
1

> <r_epik_Ionization_Penalty>
0.0157465

> <r_epik_Ionization_Penalty_Charging>
0.015354

> <r_epik_Ionization_Penalty_Neutral>
0.000392529

> <r_epik_State_Penalty>
0.0120612

> <r_epik_Charging_Adjusted_Penalty>
0.0274152

> <i_epik_Tot_Q>
1

> <i_epik_Tot_abs_Q>
1

> <r_epik_Metal_State_Penalty>
0.0121253

> <b_epik_Metal_Only>
0

> <s_lp_Force_Field>
OPLS_2005

> <r_lp_Energy>
60.2547

> <b_lp_Chiralities_Consistent>
1

> <s_lp_Variant>
AV-unprocessed.smi:21-1

> <Gold.Version>
5.8.1

> <Gold.Id.Protein>
6NUR|6NUR_protein|mol2

> <Gold.PLP.Fitness>
52.9266

> <Gold.PLP.PLP>
-43.4085

> <Gold.PLP.part.hbond>
-4.0099

> <Gold.PLP.part.metal>
0.0000

> <Gold.PLP.part.buried>
-4.7116

> <Gold.PLP.part.nonpolar>
-34.4925

> <Gold.PLP.part.repulsive>
1.1597

> <Gold.PLP.ligand.clash>
0.0000

> <Gold.PLP.ligand.torsion>
1.8176

> <Gold.PLP.Chemscore.Hbond>
4.1170

> <Gold.PLP.Chemscore.CHOScore>
0.0000

> <Gold.PLP.Chemscore.Metal>
0.0000

> <Gold.Chemscore.Hbonds>
donor molecule, donor type, donor heavy atom, donor atom, acceptor molecule, acceptor atom, score
      L1  H    21    49       P1  8028  1.00
      L1  H    27    62       P1  7948  1.62
      P1  H  8011  8017       L1    21  0.01
      P1  H 10752 10764       L1    15  1.00

> <Gold.PLP.Chemscore.Internal.Correction>
0.8022

> <Gold.Rescore>
     Score         DG    S(hbond)    S(metal)    S(lipo)     H(rot)  DE(clash)    DE(int)     intcor
     14.25     -17.88       2.93        0.00      95.63       3.35       0.03       3.60       ----

> <Gold.Chemscore.Fitness>
14.2539

> <Gold.Chemscore.DG>
-17.8819

> <Gold.Chemscore.ZeroCoef>
-5.4800

> <Gold.Chemscore.Hbond>
2.9274

> <Gold.Chemscore.Metal>
0.0000

> <Gold.Chemscore.Lipo>
95.6254

> <Gold.Chemscore.Internal_Hbond>
0.0000

> <Gold.Chemscore.DEClash>
0.0308

> <Gold.Chemscore.DEInternal>
3.5973

> <Gold.Chemscore.Rot>
3.3452

> <Gold.Chemscore.Internal.Correction>
   9.000000E+99

> <Gold.Chemscore.Hbonds>
donor molecule, donor type, donor heavy atom, donor atom, acceptor molecule, acceptor atom, score
      L1  H    21    49       P1  8028  1.00
      L1  H    27    62       P1  7948  0.80
      P1  H  8011  8017       L1    21  0.01
      P1  H 10752 10764       L1    15  0.70

> <Gold.Chemscore.Hbond.Weighted>
-9.7774

> <Gold.Chemscore.Metal.Weighted>
-0.0000

> <Gold.Chemscore.Lipo.Weighted>
-11.1882

> <Gold.Chemscore.Internal_Hbond.Weighted>
0.0000

> <Gold.Chemscore.DEClash.Weighted>
0.0308

> <Gold.Chemscore.DEInternal.Weighted>
3.5973

> <Gold.Chemscore.Rot.Weighted>
8.5636

> <Gold.Chemscore.Internal.Correction.Weighted>
   9.000000E+99

> <Gold.Protein.RotatedTorsions>
[ 6907 6896 6895 6894 ] final  -35.75 input  -60.11 | X-H torsion
[ 7974 7965 7964 7962 ] final   36.66 input  175.53 | X-H torsion
[ 8008 7997 7996 7995 ] final  -75.92 input   59.86 | X-H torsion
[ 10167 10162 10161 10158 ] final   88.54 input  -65.29 | X-H torsion
[ 10718 10713 10712 10709 ] final  134.01 input   66.30 | X-H torsion
[ 10763 10752 10751 10750 ] final  -70.90 input  -60.55 | X-H torsion
[ 11005 11000 10999 10996 ] final   97.65 input  -57.11 | X-H torsion

> <Gold.Protein.ActiveResidues>
 VAL166  LYS551  ARG553  GLY616  TRP617  ASP618  TYR619  PRO620  LYS621  CYS622 
 ASP623  PHE694  ASN695  SER759  ASP760  ASP761  ALA762  ILE779  LEU786  VAL792 
 PHE793  MET794  SER795  GLU796  ALA797  LYS798  CYS799  TRP800  GLU811  SER814 

> <Gold.Protein.RotatedAtoms>
  151.0358  134.9572  159.8135 H   0  0  0  0  0  0  0  0  0  0  0  0  # atno 6907 bound_to 6896
  152.5354  134.2721  159.8985 H   0  0  0  0  0  0  0  0  0  0  0  0  # atno 6908 bound_to 6896
  151.2732  133.4203  159.2656 H   0  0  0  0  0  0  0  0  0  0  0  0  # atno 6909 bound_to 6896
  146.1195  139.5989  142.9299 H   0  0  0  0  0  0  0  0  0  0  0  0  # atno 7974 bound_to 7965
  154.5459  140.0736  156.8588 H   0  0  0  0  0  0  0  0  0  0  0  0  # atno 8008 bound_to 7997
  155.3088  140.3389  155.4226 H   0  0  0  0  0  0  0  0  0  0  0  0  # atno 8009 bound_to 7997
  156.1918  140.1689  156.8064 H   0  0  0  0  0  0  0  0  0  0  0  0  # atno 8010 bound_to 7997
  139.8662  144.6517  150.9001 H   0  0  0  0  0  0  0  0  0  0  0  0  # atno 10167 bound_to 10162
  157.4715  131.1080  150.9796 H   0  0  0  0  0  0  0  0  0  0  0  0  # atno 10718 bound_to 10713
  154.4242  135.5979  153.6028 H   0  0  0  0  0  0  0  0  0  0  0  0  # atno 10763 bound_to 10752
  152.9795  135.5959  154.3918 H   0  0  0  0  0  0  0  0  0  0  0  0  # atno 10764 bound_to 10752
  154.3748  135.2841  155.2224 H   0  0  0  0  0  0  0  0  0  0  0  0  # atno 10765 bound_to 10752
  139.8775  134.9011  156.4338 H   0  0  0  0  0  0  0  0  0  0  0  0  # atno 11005 bound_to 11000
  145.5497  141.0414  143.2285 LP  0  0  0  0  0  0  0  0  0  0  0  0  # atno 17320 bound_to 7965
  144.7583  139.7018  143.7245 LP  0  0  0  0  0  0  0  0  0  0  0  0  # atno 17321 bound_to 7965
  140.7768  143.3702  151.1664 LP  0  0  0  0  0  0  0  0  0  0  0  0  # atno 17342 bound_to 10162
  139.7327  143.9048  152.3024 LP  0  0  0  0  0  0  0  0  0  0  0  0  # atno 17343 bound_to 10162
  157.0559  130.5806  149.5378 LP  0  0  0  0  0  0  0  0  0  0  0  0  # atno 17370 bound_to 10713
  156.0076  130.5164  150.7882 LP  0  0  0  0  0  0  0  0  0  0  0  0  # atno 17371 bound_to 10713
  140.9048  133.7754  155.9722 LP  0  0  0  0  0  0  0  0  0  0  0  0  # atno 17394 bound_to 11000
  140.8612  134.2839  157.5234 LP  0  0  0  0  0  0  0  0  0  0  0  0  # atno 17395 bound_to 11000

$$$$
