AV-unprocessed.smi:1641|AV-procd|sdf|6565|dock3
  -GOLD-   22720 7253D 1   1.00000     0.00000
 Structure written by MMmdl.
 40 41  0  0  0  0  0  0  0  0  2 V2000
  143.9144  134.6862  162.9646 C   0  0  0  0  0  0  0  0  0  0  0  0
  145.1209  135.1126  162.2009 C   0  0  0  0  0  0  0  0  0  0  0  0
  145.9593  134.2420  161.6336 N   0  0  0  0  0  0  0  0  0  0  0  0
  147.0059  134.8751  160.9787 N   0  0  0  0  0  0  0  0  0  0  0  0
  146.9503  136.2116  161.0669 C   0  0  0  0  0  0  0  0  0  0  0  0
  147.8677  137.0083  160.4940 N   0  5  0  0  0  0  0  0  0  0  0  0
  148.7902  136.4852  159.6543 C   0  0  0  0  0  0  0  0  0  0  0  0
  148.7733  135.3552  159.1607 O   0  0  0  0  0  0  0  0  0  0  0  0
  149.7959  137.3230  159.3692 N   0  0  0  0  0  0  0  0  0  0  0  0
  150.9201  137.0232  158.4930 C   0  0  0  0  0  0  0  0  0  0  0  0
  150.4255  136.8052  157.0541 C   0  0  0  0  0  0  0  0  0  0  0  0
  149.9479  138.0088  156.3752 N   0  0  0  0  0  0  0  0  0  0  0  0
  149.9876  137.8825  154.9196 C   0  0  0  0  0  0  0  0  0  0  0  0
  149.5248  139.1632  154.1954 C   0  0  1  0  0  0  0  0  0  0  0  0
  148.0028  139.3777  154.2516 C   0  0  0  0  0  0  0  0  0  0  0  0
  150.2383  140.2997  154.6860 O   0  0  0  0  0  0  0  0  0  0  0  0
  150.2190  140.4628  156.1030 C   0  0  2  0  0  0  0  0  0  0  0  0
  151.0854  141.6764  156.4563 C   0  0  0  0  0  0  0  0  0  0  0  0
  150.7290  139.1736  156.7706 C   0  0  0  0  0  0  0  0  0  0  0  0
  145.5546  136.7984  161.9721 S   0  0  0  0  0  0  0  0  0  0  0  0
  144.2111  134.1075  163.8395 H   0  0  0  0  0  0  0  0  0  0  0  0
  143.2714  134.0702  162.3355 H   0  0  0  0  0  0  0  0  0  0  0  0
  143.3475  135.5560  163.2970 H   0  0  0  0  0  0  0  0  0  0  0  0
  149.7742  138.2389  159.7927 H   0  0  0  0  0  0  0  0  0  0  0  0
  151.6270  137.8512  158.5472 H   0  0  0  0  0  0  0  0  0  0  0  0
  151.4356  136.1287  158.8469 H   0  0  0  0  0  0  0  0  0  0  0  0
  151.2556  136.3871  156.4826 H   0  0  0  0  0  0  0  0  0  0  0  0
  149.6439  136.0439  157.0466 H   0  0  0  0  0  0  0  0  0  0  0  0
  151.0064  137.6502  154.6056 H   0  0  0  0  0  0  0  0  0  0  0  0
  149.3678  137.0490  154.5904 H   0  0  0  0  0  0  0  0  0  0  0  0
  149.7921  139.0665  153.1428 H   0  0  0  0  0  0  0  0  0  0  0  0
  147.4778  138.5529  153.7691 H   0  0  0  0  0  0  0  0  0  0  0  0
  147.7203  140.2958  153.7365 H   0  0  0  0  0  0  0  0  0  0  0  0
  147.6351  139.4414  155.2754 H   0  0  0  0  0  0  0  0  0  0  0  0
  149.1986  140.6638  156.4307 H   0  0  0  0  0  0  0  0  0  0  0  0
  151.0912  141.8545  157.5319 H   0  0  0  0  0  0  0  0  0  0  0  0
  150.7087  142.5777  155.9724 H   0  0  0  0  0  0  0  0  0  0  0  0
  152.1173  141.5322  156.1349 H   0  0  0  0  0  0  0  0  0  0  0  0
  150.6889  139.2930  157.8541 H   0  0  0  0  0  0  0  0  0  0  0  0
  151.7781  139.0188  156.5133 H   0  0  0  0  0  0  0  0  0  0  0  0
  1  2  1  0  0  0  0
  1 21  1  0  0  0  0
  1 22  1  0  0  0  0
  1 23  1  0  0  0  0
  2 20  1  0  0  0  0
  2  3  2  0  0  0  0
  3  4  1  0  0  0  0
  4  5  2  0  0  0  0
  5  6  1  0  0  0  0
  5 20  1  0  0  0  0
  6  7  1  0  0  0  0
  7  8  2  0  0  0  0
  7  9  1  0  0  0  0
  9 10  1  0  0  0  0
  9 24  1  0  0  0  0
 10 11  1  0  0  0  0
 10 25  1  0  0  0  0
 10 26  1  0  0  0  0
 11 12  1  0  0  0  0
 11 27  1  0  0  0  0
 11 28  1  0  0  0  0
 12 19  1  0  0  0  0
 12 13  1  0  0  0  0
 13 14  1  0  0  0  0
 13 29  1  0  0  0  0
 13 30  1  0  0  0  0
 14 15  1  0  0  0  0
 14 16  1  0  0  0  0
 14 31  1  0  0  0  0
 15 32  1  0  0  0  0
 15 33  1  0  0  0  0
 15 34  1  0  0  0  0
 16 17  1  0  0  0  0
 17 18  1  0  0  0  0
 17 19  1  0  0  0  0
 17 35  1  0  0  0  0
 18 36  1  0  0  0  0
 18 37  1  0  0  0  0
 18 38  1  0  0  0  0
 19 39  1  0  0  0  0
 19 40  1  0  0  0  0
M  CHG  1   6  -1
M  END
> <s_m_source_file>
AV-unprocessed.smi

> <i_m_source_file_index>
1641

> <i_lp_mmshare_version>
43012

> <i_f3d_flags>
0

> <s_epik_input>
W0NIM11jMW5uYyhzMSlbTkhdQyg9TylbTkhdW0NIMl1bQ0gyXU4yW0NIMl1bQ0BASF0oW0NIM10pT1tDQEBIXShbQ0gzXSlbQ0gyXTI=

> <s_epik_cmdline>
J2VwaWtfcHl0aG9uJywgJy1waCcsICc3LjAnLCAnLXRuJywgJzgnLCAnLW1hJywgJzIwMCcsICctbWV0YWxfYmluZGluZycsICctaW1hZScsICc8aW5maWxlLm1hZT4nLCAnLW9tYWUnLCAnPG91dGZpbGUubWFlPic=

> <r_lp_tautomer_probability>
1

> <r_epik_Ionization_Penalty>
3.81681

> <r_epik_Ionization_Penalty_Charging>
3.36369

> <r_epik_Ionization_Penalty_Neutral>
0.45313

> <r_epik_State_Penalty>
3.571

> <r_epik_Charging_Adjusted_Penalty>
6.93469

> <i_epik_Tot_Q>
-1

> <i_epik_Tot_abs_Q>
1

> <r_epik_Metal_State_Penalty>
0.710322

> <b_epik_Metal_Only>
1

> <s_lp_Force_Field>
OPLS_2005

> <r_lp_Energy>
20.315

> <b_lp_Chiralities_Consistent>
1

> <s_lp_Variant>
AV-unprocessed.smi:1641-10

> <Gold.Version>
5.8.1

> <Gold.Id.Protein>
6NUR|6NUR_protein|mol2

> <Gold.PLP.Fitness>
41.6666

> <Gold.PLP.PLP>
-26.6547

> <Gold.PLP.part.hbond>
-4.0000

> <Gold.PLP.part.metal>
0.0000

> <Gold.PLP.part.buried>
-6.1861

> <Gold.PLP.part.nonpolar>
-19.3781

> <Gold.PLP.part.repulsive>
1.1851

> <Gold.PLP.ligand.clash>
0.0000

> <Gold.PLP.ligand.torsion>
0.3456

> <Gold.PLP.Chemscore.Hbond>
5.2180

> <Gold.PLP.Chemscore.CHOScore>
0.0000

> <Gold.PLP.Chemscore.Metal>
0.0000

> <Gold.Chemscore.Hbonds>
donor molecule, donor type, donor heavy atom, donor atom, acceptor molecule, acceptor atom, score
      P1  H  6896  6909       L1     8  0.86
      P1  H  6931  6943       L1     6  0.92
      P1  H  6934  6947       L1     6  1.15
      P1  H  7989  7998       L1    16  1.00

> <Gold.PLP.Chemscore.Internal.Correction>
0.0491

> <Gold.Rescore>
     Score         DG    S(hbond)    S(metal)    S(lipo)     H(rot)  DE(clash)    DE(int)     intcor
     14.89     -16.94       2.49        0.00      61.18       1.57       0.04       2.01       ----

> <Gold.Chemscore.Fitness>
14.8936

> <Gold.Chemscore.DG>
-16.9447

> <Gold.Chemscore.ZeroCoef>
-5.4800

> <Gold.Chemscore.Hbond>
2.4916

> <Gold.Chemscore.Metal>
0.0000

> <Gold.Chemscore.Lipo>
61.1835

> <Gold.Chemscore.Internal_Hbond>
0.0000

> <Gold.Chemscore.DEClash>
0.0424

> <Gold.Chemscore.DEInternal>
2.0088

> <Gold.Chemscore.Rot>
1.5686

> <Gold.Chemscore.Internal.Correction>
   9.000000E+99

> <Gold.Chemscore.Hbonds>
donor molecule, donor type, donor heavy atom, donor atom, acceptor molecule, acceptor atom, score
      P1  H  6896  6909       L1     8  0.51
      P1  H  6931  6943       L1     6  0.19
      P1  H  6934  6947       L1     6  0.28
      P1  H  7989  7998       L1    16  0.82

> <Gold.Chemscore.Hbond.Weighted>
-8.3220

> <Gold.Chemscore.Metal.Weighted>
-0.0000

> <Gold.Chemscore.Lipo.Weighted>
-7.1585

> <Gold.Chemscore.Internal_Hbond.Weighted>
0.0000

> <Gold.Chemscore.DEClash.Weighted>
0.0424

> <Gold.Chemscore.DEInternal.Weighted>
2.0088

> <Gold.Chemscore.Rot.Weighted>
4.0157

> <Gold.Chemscore.Internal.Correction.Weighted>
   9.000000E+99

> <Gold.Protein.RotatedTorsions>
[ 6907 6896 6895 6894 ] final   44.51 input  -60.11 | X-H torsion
[ 7974 7965 7964 7962 ] final  143.57 input  175.53 | X-H torsion
[ 8008 7997 7996 7995 ] final -174.82 input   59.86 | X-H torsion
[ 10167 10162 10161 10158 ] final  -80.98 input  -65.29 | X-H torsion
[ 10718 10713 10712 10709 ] final   52.25 input   66.30 | X-H torsion
[ 10763 10752 10751 10750 ] final   47.75 input  -60.55 | X-H torsion
[ 11005 11000 10999 10996 ] final  143.57 input  -57.11 | X-H torsion

> <Gold.Protein.ActiveResidues>
 VAL166  LYS551  ARG553  GLY616  TRP617  ASP618  TYR619  PRO620  LYS621  CYS622 
 ASP623  PHE694  ASN695  SER759  ASP760  ASP761  ALA762  ILE779  LEU786  VAL792 
 PHE793  MET794  SER795  GLU796  ALA797  LYS798  CYS799  TRP800  GLU811  SER814 

> <Gold.Protein.RotatedAtoms>
  152.2333  134.8300  160.0470 H   0  0  0  0  0  0  0  0  0  0  0  0  # atno 6907 bound_to 6896
  151.9041  133.3540  159.3849 H   0  0  0  0  0  0  0  0  0  0  0  0  # atno 6908 bound_to 6896
  150.7032  134.4724  159.5476 H   0  0  0  0  0  0  0  0  0  0  0  0  # atno 6909 bound_to 6896
  144.8909  139.5560  143.5799 H   0  0  0  0  0  0  0  0  0  0  0  0  # atno 7974 bound_to 7965
  155.9749  140.1170  157.0779 H   0  0  0  0  0  0  0  0  0  0  0  0  # atno 8008 bound_to 7997
  154.4166  140.1156  156.5425 H   0  0  0  0  0  0  0  0  0  0  0  0  # atno 8009 bound_to 7997
  155.6547  140.3473  155.4763 H   0  0  0  0  0  0  0  0  0  0  0  0  # atno 8010 bound_to 7997
  140.4454  143.2500  151.8566 H   0  0  0  0  0  0  0  0  0  0  0  0  # atno 10167 bound_to 10162
  157.5057  130.8467  149.8372 H   0  0  0  0  0  0  0  0  0  0  0  0  # atno 10718 bound_to 10713
  152.9797  135.5966  154.3814 H   0  0  0  0  0  0  0  0  0  0  0  0  # atno 10763 bound_to 10752
  154.3478  135.2767  155.2390 H   0  0  0  0  0  0  0  0  0  0  0  0  # atno 10764 bound_to 10752
  154.4442  135.6005  153.6204 H   0  0  0  0  0  0  0  0  0  0  0  0  # atno 10765 bound_to 10752
  140.0564  134.9228  157.1108 H   0  0  0  0  0  0  0  0  0  0  0  0  # atno 11005 bound_to 11000
  146.3053  139.7560  142.9061 LP  0  0  0  0  0  0  0  0  0  0  0  0  # atno 17320 bound_to 7965
  145.3785  141.0354  143.3191 LP  0  0  0  0  0  0  0  0  0  0  0  0  # atno 17321 bound_to 7965
  139.4792  144.5182  151.8839 LP  0  0  0  0  0  0  0  0  0  0  0  0  # atno 17342 bound_to 10162
  140.4270  144.2167  150.5887 LP  0  0  0  0  0  0  0  0  0  0  0  0  # atno 17343 bound_to 10162
  156.0257  130.3780  150.1831 LP  0  0  0  0  0  0  0  0  0  0  0  0  # atno 17370 bound_to 10713
  157.0021  130.9925  151.3388 LP  0  0  0  0  0  0  0  0  0  0  0  0  # atno 17371 bound_to 10713
  140.3837  134.2259  155.7169 LP  0  0  0  0  0  0  0  0  0  0  0  0  # atno 17394 bound_to 11000
  141.1954  133.8107  157.0717 LP  0  0  0  0  0  0  0  0  0  0  0  0  # atno 17395 bound_to 11000

$$$$
