AV-unprocessed.smi:3263|AV-procd|sdf|12487|dock2
  -GOLD-   2272018383D 1   1.00000     0.00000
 Structure written by MMmdl.
 41 43  0  0  0  0  0  0  0  0  1 V2000
  153.6498  139.9892  158.4989 O   0  0  0  0  0  0  0  0  0  0  0  0
  152.5614  140.4732  158.8118 C   0  0  0  0  0  0  0  0  0  0  0  0
  152.4189  141.3249  160.0786 C   0  0  0  0  0  0  0  0  0  0  0  0
  152.6568  142.8352  159.8497 C   0  0  1  0  0  0  0  0  0  0  0  0
  152.4287  143.2998  158.3908 C   0  0  0  0  0  0  0  0  0  0  0  0
  151.4040  144.4381  158.5428 C   0  0  2  0  0  0  0  0  0  0  0  0
  152.0723  145.6459  159.2258 C   0  0  0  0  0  0  0  0  0  0  0  0
  152.2295  145.1675  160.6817 C   0  0  0  0  0  0  0  0  0  0  0  0
  151.6689  143.7331  160.6297 C   0  0  1  0  0  0  0  0  0  0  0  0
  150.5094  143.8995  159.6516 C   0  0  0  0  0  0  0  0  0  0  0  0
  151.4398  140.2868  158.0978 N   0  0  0  0  0  0  0  0  0  0  0  0
  151.3329  139.4935  156.8755 C   0  0  0  0  0  0  0  0  0  0  0  0
  151.2724  140.3675  155.6073 C   0  0  0  0  0  0  0  0  0  0  0  0
  149.9316  140.3215  154.8937 C   0  0  0  0  0  0  0  0  0  0  0  0
  149.1689  141.4957  154.7130 C   0  0  0  0  0  0  0  0  0  0  0  0
  147.9207  141.3921  154.0693 C   0  0  0  0  0  0  0  0  0  0  0  0
  147.4865  140.1262  153.6311 C   0  0  0  0  0  0  0  0  0  0  0  0
  148.3243  139.0158  153.8559 C   0  0  0  0  0  0  0  0  0  0  0  0
  149.5236  139.1040  154.4704 N   0  0  0  0  0  0  0  0  0  0  0  0
  151.4295  141.1624  160.5079 H   0  0  0  0  0  0  0  0  0  0  0  0
  153.1367  140.9513  160.8096 H   0  0  0  0  0  0  0  0  0  0  0  0
  153.6754  143.0731  160.1617 H   0  0  0  0  0  0  0  0  0  0  0  0
  153.3514  143.6313  157.9132 H   0  0  0  0  0  0  0  0  0  0  0  0
  152.0099  142.5002  157.7778 H   0  0  0  0  0  0  0  0  0  0  0  0
  150.8890  144.6884  157.6151 H   0  0  0  0  0  0  0  0  0  0  0  0
  153.0281  145.9015  158.7666 H   0  0  0  0  0  0  0  0  0  0  0  0
  151.4304  146.5264  159.1781 H   0  0  0  0  0  0  0  0  0  0  0  0
  153.2645  145.2017  161.0238 H   0  0  0  0  0  0  0  0  0  0  0  0
  151.6373  145.7896  161.3539 H   0  0  0  0  0  0  0  0  0  0  0  0
  151.3933  143.3430  161.6100 H   0  0  0  0  0  0  0  0  0  0  0  0
  149.7584  144.6167  159.9879 H   0  0  0  0  0  0  0  0  0  0  0  0
  150.0152  142.9617  159.3931 H   0  0  0  0  0  0  0  0  0  0  0  0
  150.5919  140.7223  158.4313 H   0  0  0  0  0  0  0  0  0  0  0  0
  152.2058  138.8426  156.8231 H   0  0  0  0  0  0  0  0  0  0  0  0
  150.4659  138.8322  156.9197 H   0  0  0  0  0  0  0  0  0  0  0  0
  151.5050  141.4018  155.8635 H   0  0  0  0  0  0  0  0  0  0  0  0
  152.0486  140.0499  154.9101 H   0  0  0  0  0  0  0  0  0  0  0  0
  149.5249  142.4513  155.0689 H   0  0  0  0  0  0  0  0  0  0  0  0
  147.3065  142.2672  153.9172 H   0  0  0  0  0  0  0  0  0  0  0  0
  146.5342  140.0090  153.1356 H   0  0  0  0  0  0  0  0  0  0  0  0
  148.0236  138.0301  153.5330 H   0  0  0  0  0  0  0  0  0  0  0  0
  1  2  2  0  0  0  0
  2  3  1  0  0  0  0
  2 11  1  0  0  0  0
  3  4  1  0  0  0  0
  3 20  1  0  0  0  0
  3 21  1  0  0  0  0
  4  9  1  0  0  0  0
  4  5  1  0  0  0  0
  4 22  1  0  0  0  0
  5  6  1  0  0  0  0
  5 23  1  0  0  0  0
  5 24  1  0  0  0  0
  6 10  1  0  0  0  0
  6  7  1  0  0  0  0
  6 25  1  0  0  0  0
  7  8  1  0  0  0  0
  7 26  1  0  0  0  0
  7 27  1  0  0  0  0
  8  9  1  0  0  0  0
  8 28  1  0  0  0  0
  8 29  1  0  0  0  0
  9 10  1  0  0  0  0
  9 30  1  0  0  0  0
 10 31  1  0  0  0  0
 10 32  1  0  0  0  0
 11 12  1  0  0  0  0
 11 33  1  0  0  0  0
 12 13  1  0  0  0  0
 12 34  1  0  0  0  0
 12 35  1  0  0  0  0
 13 14  1  0  0  0  0
 13 36  1  0  0  0  0
 13 37  1  0  0  0  0
 14 19  1  0  0  0  0
 14 15  2  0  0  0  0
 15 16  1  0  0  0  0
 15 38  1  0  0  0  0
 16 17  2  0  0  0  0
 16 39  1  0  0  0  0
 17 18  1  0  0  0  0
 17 40  1  0  0  0  0
 18 19  2  0  0  0  0
 18 41  1  0  0  0  0
M  END
> <s_m_source_file>
AV-unprocessed.smi

> <i_m_source_file_index>
3263

> <i_lp_mmshare_version>
43012

> <i_f3d_flags>
0

> <s_epik_input>
W0NIMl0xW0NIMl1bQ0BASF0oW0NIMl0yKVtDQEBIXShbQ0gyXVtDQEhdMTIpW0NIMl1DKD1PKVtOSF1bQ0gyXVtDSDJdYzNbY0hdW2NIXVtjSF1bY0hdbjM=

> <s_epik_cmdline>
J2VwaWtfcHl0aG9uJywgJy1waCcsICc3LjAnLCAnLXRuJywgJzgnLCAnLW1hJywgJzIwMCcsICctbWV0YWxfYmluZGluZycsICctaW1hZScsICc8aW5maWxlLm1hZT4nLCAnLW9tYWUnLCAnPG91dGZpbGUubWFlPic=

> <r_epik_Ionization_Penalty>
0.0273541

> <r_epik_Ionization_Penalty_Charging>
0

> <r_epik_Ionization_Penalty_Neutral>
0.0273541

> <r_epik_State_Penalty>
0.0223838

> <r_epik_Charging_Adjusted_Penalty>
0.0223838

> <i_epik_Tot_Q>
0

> <i_epik_Tot_abs_Q>
0

> <r_epik_Metal_State_Penalty>
0.0213927

> <b_epik_Metal_Only>
0

> <s_lp_Force_Field>
OPLS_2005

> <r_lp_Energy>
47.5771

> <b_lp_Chiralities_Consistent>
1

> <s_lp_Variant>
AV-unprocessed.smi:3263-2

> <Gold.Version>
5.8.1

> <Gold.Id.Protein>
6NUR|6NUR_protein|mol2

> <Gold.PLP.Fitness>
45.6446

> <Gold.PLP.PLP>
-42.3647

> <Gold.PLP.part.hbond>
-1.0000

> <Gold.PLP.part.metal>
0.0000

> <Gold.PLP.part.buried>
-0.9569

> <Gold.PLP.part.nonpolar>
-38.9801

> <Gold.PLP.part.repulsive>
0.2694

> <Gold.PLP.ligand.clash>
0.0000

> <Gold.PLP.ligand.torsion>
1.3840

> <Gold.PLP.Chemscore.Hbond>
1.0000

> <Gold.PLP.Chemscore.CHOScore>
0.9885

> <Gold.PLP.Chemscore.Metal>
0.0000

> <Gold.Chemscore.Hbonds>
donor molecule, donor type, donor heavy atom, donor atom, acceptor molecule, acceptor atom, score
      P1  H  7997  8009       L1     1  1.00
      L1  C    18    41       P1  7948  0.79

> <Gold.PLP.Chemscore.Internal.Correction>
0.0825

> <Gold.Rescore>
     Score         DG    S(hbond)    S(metal)    S(lipo)     H(rot)  DE(clash)    DE(int)     intcor
     19.09     -20.51       1.00        0.00     131.82       1.46       0.22       1.21       ----

> <Gold.Chemscore.Fitness>
19.0902

> <Gold.Chemscore.DG>
-20.5123

> <Gold.Chemscore.ZeroCoef>
-5.4800

> <Gold.Chemscore.Hbond>
0.9986

> <Gold.Chemscore.Metal>
0.0000

> <Gold.Chemscore.Lipo>
131.8219

> <Gold.Chemscore.Internal_Hbond>
0.0000

> <Gold.Chemscore.DEClash>
0.2160

> <Gold.Chemscore.DEInternal>
1.2062

> <Gold.Chemscore.Rot>
1.4555

> <Gold.Chemscore.Internal.Correction>
   9.000000E+99

> <Gold.Chemscore.Hbonds>
donor molecule, donor type, donor heavy atom, donor atom, acceptor molecule, acceptor atom, score
      P1  H  7997  8009       L1     1  0.97

> <Gold.Chemscore.Hbond.Weighted>
-3.3352

> <Gold.Chemscore.Metal.Weighted>
-0.0000

> <Gold.Chemscore.Lipo.Weighted>
-15.4232

> <Gold.Chemscore.Internal_Hbond.Weighted>
0.0000

> <Gold.Chemscore.DEClash.Weighted>
0.2160

> <Gold.Chemscore.DEInternal.Weighted>
1.2062

> <Gold.Chemscore.Rot.Weighted>
3.7260

> <Gold.Chemscore.Internal.Correction.Weighted>
   9.000000E+99

> <Gold.Protein.RotatedTorsions>
[ 6907 6896 6895 6894 ] final -155.43 input  -60.11 | X-H torsion
[ 7974 7965 7964 7962 ] final -167.38 input  175.53 | X-H torsion
[ 8008 7997 7996 7995 ] final  147.78 input   59.86 | X-H torsion
[ 10167 10162 10161 10158 ] final  108.12 input  -65.29 | X-H torsion
[ 10718 10713 10712 10709 ] final   -3.24 input   66.30 | X-H torsion
[ 10763 10752 10751 10750 ] final  -21.39 input  -60.55 | X-H torsion
[ 11005 11000 10999 10996 ] final    5.12 input  -57.11 | X-H torsion

> <Gold.Protein.ActiveResidues>
 VAL166  LYS551  ARG553  GLY616  TRP617  ASP618  TYR619  PRO620  LYS621  CYS622 
 ASP623  PHE694  ASN695  SER759  ASP760  ASP761  ALA762  ILE779  LEU786  VAL792 
 PHE793  MET794  SER795  GLU796  ALA797  LYS798  CYS799  TRP800  GLU811  SER814 

> <Gold.Protein.RotatedAtoms>
  151.2723  133.4249  159.2621 H   0  0  0  0  0  0  0  0  0  0  0  0  # atno 6907 bound_to 6896
  151.0434  134.9623  159.8184 H   0  0  0  0  0  0  0  0  0  0  0  0  # atno 6908 bound_to 6896
  152.5369  134.2681  159.9013 H   0  0  0  0  0  0  0  0  0  0  0  0  # atno 6909 bound_to 6896
  144.7224  140.2526  143.6276 H   0  0  0  0  0  0  0  0  0  0  0  0  # atno 7974 bound_to 7965
  156.2813  140.2146  156.5593 H   0  0  0  0  0  0  0  0  0  0  0  0  # atno 8008 bound_to 7997
  154.7226  140.0502  157.0676 H   0  0  0  0  0  0  0  0  0  0  0  0  # atno 8009 bound_to 7997
  155.0458  140.3151  155.4712 H   0  0  0  0  0  0  0  0  0  0  0  0  # atno 8010 bound_to 7997
  139.6872  144.7112  151.1412 H   0  0  0  0  0  0  0  0  0  0  0  0  # atno 10167 bound_to 10162
  156.7789  130.5324  149.5754 H   0  0  0  0  0  0  0  0  0  0  0  0  # atno 10718 bound_to 10713
  153.6354  135.6987  153.5260 H   0  0  0  0  0  0  0  0  0  0  0  0  # atno 10763 bound_to 10752
  153.2825  135.4181  155.1091 H   0  0  0  0  0  0  0  0  0  0  0  0  # atno 10764 bound_to 10752
  154.8512  135.3605  154.5898 H   0  0  0  0  0  0  0  0  0  0  0  0  # atno 10765 bound_to 10752
  140.5743  134.0073  155.8021 H   0  0  0  0  0  0  0  0  0  0  0  0  # atno 11005 bound_to 11000
  145.8213  139.2045  143.1936 LP  0  0  0  0  0  0  0  0  0  0  0  0  # atno 17320 bound_to 7965
  146.0511  140.8068  142.9781 LP  0  0  0  0  0  0  0  0  0  0  0  0  # atno 17321 bound_to 7965
  140.7671  143.5612  150.9096 LP  0  0  0  0  0  0  0  0  0  0  0  0  # atno 17342 bound_to 10162
  139.9288  143.6518  152.3081 LP  0  0  0  0  0  0  0  0  0  0  0  0  # atno 17343 bound_to 10162
  156.1230  130.6124  151.0222 LP  0  0  0  0  0  0  0  0  0  0  0  0  # atno 17370 bound_to 10713
  157.6655  131.0872  150.7737 LP  0  0  0  0  0  0  0  0  0  0  0  0  # atno 17371 bound_to 10713
  141.1036  133.9728  157.3035 LP  0  0  0  0  0  0  0  0  0  0  0  0  # atno 17394 bound_to 11000
  139.9347  135.0197  156.8517 LP  0  0  0  0  0  0  0  0  0  0  0  0  # atno 17395 bound_to 11000

$$$$
