AV-unprocessed.smi:2100|AV-procd|sdf|8578|dock9
  -GOLD-   2272011313D 1   1.00000     0.00000
 Structure written by MMmdl.
 40 41  0  0  0  0  0  0  0  0  2 V2000
  148.7095  140.4100  154.7160 C   0  0  0  0  0  0  0  0  0  0  0  0
  148.9414  138.8895  154.6542 C   0  0  1  0  0  0  0  0  0  0  0  0
  150.4300  138.5080  154.5719 C   0  0  0  0  0  0  0  0  0  0  0  0
  151.1004  138.6697  155.8764 N   0  0  0  0  0  0  0  0  0  0  0  0
  152.8360  138.6392  155.9025 S   0  0  0  0  0  0  0  0  0  0  0  0
  153.2364  137.2227  155.8924 O   0  0  0  0  0  0  0  0  0  0  0  0
  153.2675  139.4850  154.7773 O   0  0  0  0  0  0  0  0  0  0  0  0
  153.0193  139.3270  157.3571 N   0  5  0  0  0  0  0  0  0  0  0  0
  152.1954  140.4662  157.7225 C   0  0  0  0  0  0  0  0  0  0  0  0
  152.8198  141.2049  158.9290 C   0  0  0  0  0  0  0  0  0  0  0  0
  152.3780  142.6575  159.0984 C   0  0  0  0  0  0  0  0  0  0  0  0
  152.6151  143.3449  160.3112 C   0  0  0  0  0  0  0  0  0  0  0  0
  152.1905  144.6819  160.4250 C   0  0  0  0  0  0  0  0  0  0  0  0
  151.5560  145.2877  159.3238 C   0  0  0  0  0  0  0  0  0  0  0  0
  151.3737  144.5248  158.1533 C   0  0  0  0  0  0  0  0  0  0  0  0
  151.7758  143.2414  158.0334 N   0  0  0  0  0  0  0  0  0  0  0  0
  150.3897  137.9872  156.9670 C   0  0  0  0  0  0  0  0  0  0  0  0
  148.9089  138.4063  157.0015 C   0  0  2  0  0  0  0  0  0  0  0  0
  148.1129  137.6018  158.0348 C   0  0  0  0  0  0  0  0  0  0  0  0
  148.3078  138.1982  155.7282 O   0  0  0  0  0  0  0  0  0  0  0  0
  149.0814  140.8930  153.8120 H   0  0  0  0  0  0  0  0  0  0  0  0
  149.2227  140.8719  155.5591 H   0  0  0  0  0  0  0  0  0  0  0  0
  147.6474  140.6397  154.8008 H   0  0  0  0  0  0  0  0  0  0  0  0
  148.4587  138.5356  153.7427 H   0  0  0  0  0  0  0  0  0  0  0  0
  150.5268  137.4670  154.2621 H   0  0  0  0  0  0  0  0  0  0  0  0
  150.9229  139.1049  153.8049 H   0  0  0  0  0  0  0  0  0  0  0  0
  152.1034  141.1644  156.8903 H   0  0  0  0  0  0  0  0  0  0  0  0
  151.1766  140.1716  157.9766 H   0  0  0  0  0  0  0  0  0  0  0  0
  152.6035  140.6595  159.8489 H   0  0  0  0  0  0  0  0  0  0  0  0
  153.9058  141.1893  158.8284 H   0  0  0  0  0  0  0  0  0  0  0  0
  153.0973  142.8496  161.1415 H   0  0  0  0  0  0  0  0  0  0  0  0
  152.3476  145.2320  161.3409 H   0  0  0  0  0  0  0  0  0  0  0  0
  151.2167  146.3115  159.3754 H   0  0  0  0  0  0  0  0  0  0  0  0
  150.8923  144.9577  157.2891 H   0  0  0  0  0  0  0  0  0  0  0  0
  150.4831  136.9095  156.8268 H   0  0  0  0  0  0  0  0  0  0  0  0
  150.8555  138.2287  157.9222 H   0  0  0  0  0  0  0  0  0  0  0  0
  148.8369  139.4598  157.2720 H   0  0  0  0  0  0  0  0  0  0  0  0
  148.5183  137.7414  159.0372 H   0  0  0  0  0  0  0  0  0  0  0  0
  148.1376  136.5355  157.8086 H   0  0  0  0  0  0  0  0  0  0  0  0
  147.0689  137.9150  158.0521 H   0  0  0  0  0  0  0  0  0  0  0  0
  1  2  1  0  0  0  0
  1 21  1  0  0  0  0
  1 22  1  0  0  0  0
  1 23  1  0  0  0  0
  2 20  1  0  0  0  0
  2  3  1  0  0  0  0
  2 24  1  0  0  0  0
  3  4  1  0  0  0  0
  3 25  1  0  0  0  0
  3 26  1  0  0  0  0
  4  5  1  0  0  0  0
  4 17  1  0  0  0  0
  5  6  2  0  0  0  0
  5  7  2  0  0  0  0
  5  8  1  0  0  0  0
  8  9  1  0  0  0  0
  9 10  1  0  0  0  0
  9 27  1  0  0  0  0
  9 28  1  0  0  0  0
 10 11  1  0  0  0  0
 10 29  1  0  0  0  0
 10 30  1  0  0  0  0
 11 16  1  0  0  0  0
 11 12  2  0  0  0  0
 12 13  1  0  0  0  0
 12 31  1  0  0  0  0
 13 14  2  0  0  0  0
 13 32  1  0  0  0  0
 14 15  1  0  0  0  0
 14 33  1  0  0  0  0
 15 16  2  0  0  0  0
 15 34  1  0  0  0  0
 17 18  1  0  0  0  0
 17 35  1  0  0  0  0
 17 36  1  0  0  0  0
 18 19  1  0  0  0  0
 18 20  1  0  0  0  0
 18 37  1  0  0  0  0
 19 38  1  0  0  0  0
 19 39  1  0  0  0  0
 19 40  1  0  0  0  0
M  CHG  1   8  -1
M  END
> <s_m_source_file>
AV-unprocessed.smi

> <i_m_source_file_index>
2100

> <i_lp_mmshare_version>
43012

> <i_f3d_flags>
0

> <s_epik_input>
W0NIM11bQ0BASF0xW0NIMl1OKFtDSDJdW0NASF0oTzEpW0NIM10pUyg9TykoPU8pW05IXVtDSDJdW0NIMl1jMltjSF1bY0hdW2NIXVtjSF1uMg==

> <s_epik_cmdline>
J2VwaWtfcHl0aG9uJywgJy1waCcsICc3LjAnLCAnLXRuJywgJzgnLCAnLW1hJywgJzIwMCcsICctbWV0YWxfYmluZGluZycsICctaW1hZScsICc8aW5maWxlLm1hZT4nLCAnLW9tYWUnLCAnPG91dGZpbGUubWFlPic=

> <r_epik_Ionization_Penalty>
1.27779

> <r_epik_Ionization_Penalty_Charging>
1.20871

> <r_epik_Ionization_Penalty_Neutral>
0.0690773

> <r_epik_State_Penalty>
1.64557

> <r_epik_Charging_Adjusted_Penalty>
2.85428

> <i_epik_Tot_Q>
-1

> <i_epik_Tot_abs_Q>
1

> <r_epik_Metal_State_Penalty>
0.643506

> <b_epik_Metal_Only>
0

> <s_lp_Force_Field>
OPLS_2005

> <r_lp_Energy>
10.0642

> <b_lp_Chiralities_Consistent>
1

> <s_lp_Variant>
AV-unprocessed.smi:2100-6

> <Gold.Version>
5.8.1

> <Gold.Id.Protein>
6NUR|6NUR_protein|mol2

> <Gold.PLP.Fitness>
46.8440

> <Gold.PLP.PLP>
-36.5738

> <Gold.PLP.part.hbond>
-4.0000

> <Gold.PLP.part.metal>
0.0000

> <Gold.PLP.part.buried>
-5.3271

> <Gold.PLP.part.nonpolar>
-27.9735

> <Gold.PLP.part.repulsive>
0.1192

> <Gold.PLP.ligand.clash>
0.0000

> <Gold.PLP.ligand.torsion>
1.3716

> <Gold.PLP.Chemscore.Hbond>
2.8218

> <Gold.PLP.Chemscore.CHOScore>
1.0000

> <Gold.PLP.Chemscore.Metal>
0.0000

> <Gold.Chemscore.Hbonds>
donor molecule, donor type, donor heavy atom, donor atom, acceptor molecule, acceptor atom, score
      P1  H  7997  8008       L1     8  1.60
      P1  H  7997  8009       L1     7  0.58
      P1  H 10752 10763       L1     6  0.43
      L1  C    15    34       P1  8028  0.95

> <Gold.PLP.Chemscore.Internal.Correction>
1.5480

> <Gold.Rescore>
     Score         DG    S(hbond)    S(metal)    S(lipo)     H(rot)  DE(clash)    DE(int)     intcor
     14.55     -15.95       0.90        0.00      96.18       1.47       0.01       1.39       ----

> <Gold.Chemscore.Fitness>
14.5547

> <Gold.Chemscore.DG>
-15.9533

> <Gold.Chemscore.ZeroCoef>
-5.4800

> <Gold.Chemscore.Hbond>
0.8957

> <Gold.Chemscore.Metal>
0.0000

> <Gold.Chemscore.Lipo>
96.1793

> <Gold.Chemscore.Internal_Hbond>
0.0000

> <Gold.Chemscore.DEClash>
0.0126

> <Gold.Chemscore.DEInternal>
1.3860

> <Gold.Chemscore.Rot>
1.4731

> <Gold.Chemscore.Internal.Correction>
   9.000000E+99

> <Gold.Chemscore.Hbonds>
donor molecule, donor type, donor heavy atom, donor atom, acceptor molecule, acceptor atom, score
      P1  H  7989  7998       L1     7  0.01
      P1  H  7997  8008       L1     8  0.06
      P1  H  7997  8009       L1     7  0.22
      P1  H 10752 10763       L1     6  0.44

> <Gold.Chemscore.Hbond.Weighted>
-2.9915

> <Gold.Chemscore.Metal.Weighted>
-0.0000

> <Gold.Chemscore.Lipo.Weighted>
-11.2530

> <Gold.Chemscore.Internal_Hbond.Weighted>
0.0000

> <Gold.Chemscore.DEClash.Weighted>
0.0126

> <Gold.Chemscore.DEInternal.Weighted>
1.3860

> <Gold.Chemscore.Rot.Weighted>
3.7712

> <Gold.Chemscore.Internal.Correction.Weighted>
   9.000000E+99

> <Gold.Protein.RotatedTorsions>
[ 6907 6896 6895 6894 ] final -173.33 input  -60.11 | X-H torsion
[ 7974 7965 7964 7962 ] final   96.31 input  175.53 | X-H torsion
[ 8008 7997 7996 7995 ] final  -91.37 input   59.86 | X-H torsion
[ 10167 10162 10161 10158 ] final  156.70 input  -65.29 | X-H torsion
[ 10718 10713 10712 10709 ] final   51.61 input   66.30 | X-H torsion
[ 10763 10752 10751 10750 ] final   88.62 input  -60.55 | X-H torsion
[ 11005 11000 10999 10996 ] final  -94.11 input  -57.11 | X-H torsion

> <Gold.Protein.ActiveResidues>
 VAL166  LYS551  ARG553  GLY616  TRP617  ASP618  TYR619  PRO620  LYS621  CYS622 
 ASP623  PHE694  ASN695  SER759  ASP760  ASP761  ALA762  ILE779  LEU786  VAL792 
 PHE793  MET794  SER795  GLU796  ALA797  LYS798  CYS799  TRP800  GLU811  SER814 

> <Gold.Protein.RotatedAtoms>
  151.5544  133.3412  159.2958 H   0  0  0  0  0  0  0  0  0  0  0  0  # atno 6907 bound_to 6896
  150.8460  134.7771  159.6982 H   0  0  0  0  0  0  0  0  0  0  0  0  # atno 6908 bound_to 6896
  152.4517  134.5386  159.9884 H   0  0  0  0  0  0  0  0  0  0  0  0  # atno 6909 bound_to 6896
  145.4406  139.2301  143.3094 H   0  0  0  0  0  0  0  0  0  0  0  0  # atno 7974 bound_to 7965
  154.7099  140.0520  157.0540 H   0  0  0  0  0  0  0  0  0  0  0  0  # atno 8008 bound_to 7997
  155.0569  140.3185  155.4654 H   0  0  0  0  0  0  0  0  0  0  0  0  # atno 8009 bound_to 7997
  156.2786  140.2106  156.5695 H   0  0  0  0  0  0  0  0  0  0  0  0  # atno 8010 bound_to 7997
  139.4821  144.4985  151.8204 H   0  0  0  0  0  0  0  0  0  0  0  0  # atno 10167 bound_to 10162
  157.4997  130.8429  149.8301 H   0  0  0  0  0  0  0  0  0  0  0  0  # atno 10718 bound_to 10713
  153.1787  135.4500  155.0000 H   0  0  0  0  0  0  0  0  0  0  0  0  # atno 10763 bound_to 10752
  154.8016  135.3258  154.7539 H   0  0  0  0  0  0  0  0  0  0  0  0  # atno 10764 bound_to 10752
  153.8006  135.6963  153.4911 H   0  0  0  0  0  0  0  0  0  0  0  0  # atno 10765 bound_to 10752
  141.1479  133.7934  157.0253 H   0  0  0  0  0  0  0  0  0  0  0  0  # atno 11005 bound_to 11000
  146.2558  140.5154  142.8874 LP  0  0  0  0  0  0  0  0  0  0  0  0  # atno 17320 bound_to 7965
  144.8124  140.6409  143.6406 LP  0  0  0  0  0  0  0  0  0  0  0  0  # atno 17321 bound_to 7965
  140.4475  144.1900  150.5895 LP  0  0  0  0  0  0  0  0  0  0  0  0  # atno 17342 bound_to 10162
  140.4619  143.2445  151.9208 LP  0  0  0  0  0  0  0  0  0  0  0  0  # atno 17343 bound_to 10162
  156.0222  130.3792  150.1929 LP  0  0  0  0  0  0  0  0  0  0  0  0  # atno 17370 bound_to 10713
  157.0119  130.9953  151.3363 LP  0  0  0  0  0  0  0  0  0  0  0  0  # atno 17371 bound_to 10713
  140.0789  134.9659  157.1592 LP  0  0  0  0  0  0  0  0  0  0  0  0  # atno 17394 bound_to 11000
  140.3604  134.2500  155.7188 LP  0  0  0  0  0  0  0  0  0  0  0  0  # atno 17395 bound_to 11000

$$$$
