AV-unprocessed.smi:3275|AV-procd|sdf|12531|dock7
  -GOLD-   2272018443D 1   1.00000     0.00000
 Structure written by MMmdl.
 35 36  0  0  0  0  0  0  0  0  2 V2000
  152.8430  139.2504  155.3879 O   0  0  0  0  0  0  0  0  0  0  0  0
  152.0379  138.4782  154.5237 C   0  0  0  0  0  0  0  0  0  0  0  0
  150.5692  138.8880  154.6730 C   0  0  0  0  0  0  0  0  0  0  0  0
  150.3998  140.1828  154.1151 O   0  0  0  0  0  0  0  0  0  0  0  0
  149.7814  141.1231  154.9838 C   0  0  1  0  0  0  0  0  0  0  0  0
  148.4612  140.5695  155.5608 C   0  0  0  0  0  0  0  0  0  0  0  0
  147.8961  141.5281  156.6217 C   0  0  0  0  0  0  0  0  0  0  0  0
  148.9400  141.8280  157.7102 C   0  0  0  0  0  0  0  0  0  0  0  0
  150.1816  142.3116  157.1121 N   0  0  0  0  0  0  0  0  0  0  0  0
  151.0568  142.9200  158.0298 C   0  0  0  0  0  0  0  0  0  0  0  0
  151.2154  144.3278  158.0780 C   0  0  0  0  0  0  0  0  0  0  0  0
  152.1115  144.8985  159.0041 C   0  0  0  0  0  0  0  0  0  0  0  0
  152.8129  144.1032  159.8385 N   0  3  0  0  0  0  0  0  0  0  0  0
  152.6967  142.7587  159.8332 C   0  0  0  0  0  0  0  0  0  0  0  0
  151.8160  142.1280  158.9306 C   0  0  0  0  0  0  0  0  0  0  0  0
  151.6693  140.4050  158.9708 Cl  0  0  0  0  0  0  0  0  0  0  0  0
  150.7756  141.4160  156.1217 C   0  0  0  0  0  0  0  0  0  0  0  0
  152.3216  139.5107  156.1317 H   0  0  0  0  0  0  0  0  0  0  0  0
  152.3738  138.6245  153.4969 H   0  0  0  0  0  0  0  0  0  0  0  0
  152.1669  137.4227  154.7638 H   0  0  0  0  0  0  0  0  0  0  0  0
  149.9287  138.1715  154.1566 H   0  0  0  0  0  0  0  0  0  0  0  0
  150.2896  138.8830  155.7266 H   0  0  0  0  0  0  0  0  0  0  0  0
  149.5895  142.0549  154.4482 H   0  0  0  0  0  0  0  0  0  0  0  0
  147.7211  140.4238  154.7747 H   0  0  0  0  0  0  0  0  0  0  0  0
  148.6380  139.5914  156.0098 H   0  0  0  0  0  0  0  0  0  0  0  0
  147.5912  142.4602  156.1441 H   0  0  0  0  0  0  0  0  0  0  0  0
  146.9989  141.1026  157.0716 H   0  0  0  0  0  0  0  0  0  0  0  0
  148.5382  142.5577  158.4137 H   0  0  0  0  0  0  0  0  0  0  0  0
  149.1520  140.9234  158.2819 H   0  0  0  0  0  0  0  0  0  0  0  0
  150.6692  144.9762  157.4091 H   0  0  0  0  0  0  0  0  0  0  0  0
  152.2890  145.9600  159.0987 H   0  0  0  0  0  0  0  0  0  0  0  0
  153.3047  142.2288  160.5517 H   0  0  0  0  0  0  0  0  0  0  0  0
  151.0615  140.4798  156.6028 H   0  0  0  0  0  0  0  0  0  0  0  0
  151.6838  141.8626  155.7145 H   0  0  0  0  0  0  0  0  0  0  0  0
  153.4564  144.5360  160.5018 H   0  0  0  0  0  0  0  0  0  0  0  0
  1  2  1  0  0  0  0
  1 18  1  0  0  0  0
  2  3  1  0  0  0  0
  2 19  1  0  0  0  0
  2 20  1  0  0  0  0
  3  4  1  0  0  0  0
  3 21  1  0  0  0  0
  3 22  1  0  0  0  0
  4  5  1  0  0  0  0
  5 17  1  0  0  0  0
  5  6  1  0  0  0  0
  5 23  1  0  0  0  0
  6  7  1  0  0  0  0
  6 24  1  0  0  0  0
  6 25  1  0  0  0  0
  7  8  1  0  0  0  0
  7 26  1  0  0  0  0
  7 27  1  0  0  0  0
  8  9  1  0  0  0  0
  8 28  1  0  0  0  0
  8 29  1  0  0  0  0
  9 10  1  0  0  0  0
  9 17  1  0  0  0  0
 10 15  1  0  0  0  0
 10 11  2  0  0  0  0
 11 12  1  0  0  0  0
 11 30  1  0  0  0  0
 12 13  2  0  0  0  0
 12 31  1  0  0  0  0
 13 14  1  0  0  0  0
 13 35  1  0  0  0  0
 14 15  2  0  0  0  0
 14 32  1  0  0  0  0
 15 16  1  0  0  0  0
 17 33  1  0  0  0  0
 17 34  1  0  0  0  0
M  CHG  1  13   1
M  END
> <s_m_source_file>
AV-unprocessed.smi

> <i_m_source_file_index>
3275

> <i_lp_mmshare_version>
43012

> <i_f3d_flags>
0

> <s_epik_input>
W09IXVtDSDJdW0NIMl1PW0NAQEhdMVtDSDJdW0NIMl1bQ0gyXU4oW0NIMl0xKWMyW2NIXVtjSF1uW2NIXWMyQ2w=

> <s_epik_cmdline>
J2VwaWtfcHl0aG9uJywgJy1waCcsICc3LjAnLCAnLXRuJywgJzgnLCAnLW1hJywgJzIwMCcsICctbWV0YWxfYmluZGluZycsICctaW1hZScsICc8aW5maWxlLm1hZT4nLCAnLW9tYWUnLCAnPG91dGZpbGUubWFlPic=

> <r_lp_tautomer_probability>
1

> <r_epik_Ionization_Penalty>
0.0778579

> <r_epik_Ionization_Penalty_Charging>
0.0778578

> <r_epik_Ionization_Penalty_Neutral>
8.80348e-08

> <r_epik_State_Penalty>
0.0687871

> <r_epik_Charging_Adjusted_Penalty>
0.146645

> <i_epik_Tot_Q>
1

> <i_epik_Tot_abs_Q>
1

> <r_epik_Metal_State_Penalty>
2.85646

> <b_epik_Metal_Only>
0

> <s_lp_Force_Field>
OPLS_2005

> <r_lp_Energy>
26.1135

> <b_lp_Chiralities_Consistent>
1

> <s_lp_Variant>
AV-unprocessed.smi:3275-2

> <Gold.Version>
5.8.1

> <Gold.Id.Protein>
6NUR|6NUR_protein|mol2

> <Gold.PLP.Fitness>
41.8994

> <Gold.PLP.PLP>
-36.8374

> <Gold.PLP.part.hbond>
-1.7905

> <Gold.PLP.part.metal>
0.0000

> <Gold.PLP.part.buried>
-5.0072

> <Gold.PLP.part.nonpolar>
-30.2257

> <Gold.PLP.part.repulsive>
0.9573

> <Gold.PLP.ligand.clash>
0.0000

> <Gold.PLP.ligand.torsion>
0.6274

> <Gold.PLP.Chemscore.Hbond>
2.0000

> <Gold.PLP.Chemscore.CHOScore>
0.0000

> <Gold.PLP.Chemscore.Metal>
0.0000

> <Gold.Chemscore.Hbonds>
donor molecule, donor type, donor heavy atom, donor atom, acceptor molecule, acceptor atom, score
      P1  H  7989  7998       L1     4  1.00
      P1  H  7997  8009       L1     1  0.95

> <Gold.PLP.Chemscore.Internal.Correction>
0.3168

> <Gold.Rescore>
     Score         DG    S(hbond)    S(metal)    S(lipo)     H(rot)  DE(clash)    DE(int)     intcor
     15.84     -16.45       1.62        0.00      94.29       2.14       0.03       0.58       ----

> <Gold.Chemscore.Fitness>
15.8390

> <Gold.Chemscore.DG>
-16.4531

> <Gold.Chemscore.ZeroCoef>
-5.4800

> <Gold.Chemscore.Hbond>
1.6226

> <Gold.Chemscore.Metal>
0.0000

> <Gold.Chemscore.Lipo>
94.2894

> <Gold.Chemscore.Internal_Hbond>
0.0000

> <Gold.Chemscore.DEClash>
0.0291

> <Gold.Chemscore.DEInternal>
0.5850

> <Gold.Chemscore.Rot>
2.1400

> <Gold.Chemscore.Internal.Correction>
   9.000000E+99

> <Gold.Chemscore.Hbonds>
donor molecule, donor type, donor heavy atom, donor atom, acceptor molecule, acceptor atom, score
      P1  H  7989  7998       L1     4  0.53
      P1  H  7997  8009       L1     1  0.21

> <Gold.Chemscore.Hbond.Weighted>
-5.4196

> <Gold.Chemscore.Metal.Weighted>
-0.0000

> <Gold.Chemscore.Lipo.Weighted>
-11.0319

> <Gold.Chemscore.Internal_Hbond.Weighted>
0.0000

> <Gold.Chemscore.DEClash.Weighted>
0.0291

> <Gold.Chemscore.DEInternal.Weighted>
0.5850

> <Gold.Chemscore.Rot.Weighted>
5.4783

> <Gold.Chemscore.Internal.Correction.Weighted>
   9.000000E+99

> <Gold.Protein.RotatedTorsions>
[ 6907 6896 6895 6894 ] final  -78.90 input  -60.11 | X-H torsion
[ 7974 7965 7964 7962 ] final  -64.40 input  175.53 | X-H torsion
[ 8008 7997 7996 7995 ] final -129.45 input   59.86 | X-H torsion
[ 10167 10162 10161 10158 ] final -127.88 input  -65.29 | X-H torsion
[ 10718 10713 10712 10709 ] final   38.68 input   66.30 | X-H torsion
[ 10763 10752 10751 10750 ] final -163.48 input  -60.55 | X-H torsion
[ 11005 11000 10999 10996 ] final  -13.68 input  -57.11 | X-H torsion

> <Gold.Protein.ActiveResidues>
 VAL166  LYS551  ARG553  GLY616  TRP617  ASP618  TYR619  PRO620  LYS621  CYS622 
 ASP623  PHE694  ASN695  SER759  ASP760  ASP761  ALA762  ILE779  LEU786  VAL792 
 PHE793  MET794  SER795  GLU796  ALA797  LYS798  CYS799  TRP800  GLU811  SER814 

> <Gold.Protein.RotatedAtoms>
  150.6962  134.4203  159.5201 H   0  0  0  0  0  0  0  0  0  0  0  0  # atno 6907 bound_to 6896
  152.1947  134.8638  160.0523 H   0  0  0  0  0  0  0  0  0  0  0  0  # atno 6908 bound_to 6896
  151.9581  133.3651  159.4062 H   0  0  0  0  0  0  0  0  0  0  0  0  # atno 6909 bound_to 6896
  145.7672  140.8831  143.0399 H   0  0  0  0  0  0  0  0  0  0  0  0  # atno 7974 bound_to 7965
  155.2794  140.0443  157.3014 H   0  0  0  0  0  0  0  0  0  0  0  0  # atno 8008 bound_to 7997
  154.5606  140.2345  155.8310 H   0  0  0  0  0  0  0  0  0  0  0  0  # atno 8009 bound_to 7997
  156.2044  140.3016  155.9602 H   0  0  0  0  0  0  0  0  0  0  0  0  # atno 8010 bound_to 7997
  139.9562  143.6001  152.2460 H   0  0  0  0  0  0  0  0  0  0  0  0  # atno 10167 bound_to 10162
  157.3617  130.7653  149.7052 H   0  0  0  0  0  0  0  0  0  0  0  0  # atno 10718 bound_to 10713
  154.7119  135.3008  154.9184 H   0  0  0  0  0  0  0  0  0  0  0  0  # atno 10763 bound_to 10752
  154.0083  135.6698  153.4767 H   0  0  0  0  0  0  0  0  0  0  0  0  # atno 10764 bound_to 10752
  153.0762  135.5034  154.8322 H   0  0  0  0  0  0  0  0  0  0  0  0  # atno 10765 bound_to 10752
  140.7786  133.8380  155.9272 H   0  0  0  0  0  0  0  0  0  0  0  0  # atno 11005 bound_to 11000
  144.6819  139.9805  143.7483 LP  0  0  0  0  0  0  0  0  0  0  0  0  # atno 17320 bound_to 7965
  146.0206  139.3247  143.0815 LP  0  0  0  0  0  0  0  0  0  0  0  0  # atno 17321 bound_to 7965
  139.6590  144.7662  151.2000 LP  0  0  0  0  0  0  0  0  0  0  0  0  # atno 17342 bound_to 10162
  140.7568  143.6040  150.8671 LP  0  0  0  0  0  0  0  0  0  0  0  0  # atno 17343 bound_to 10162
  155.9738  130.4112  150.3969 LP  0  0  0  0  0  0  0  0  0  0  0  0  # atno 17370 bound_to 10713
  157.2047  131.0446  151.2631 LP  0  0  0  0  0  0  0  0  0  0  0  0  # atno 17371 bound_to 10713
  140.9504  134.1786  157.4732 LP  0  0  0  0  0  0  0  0  0  0  0  0  # atno 17394 bound_to 11000
  139.8745  134.9907  156.5514 LP  0  0  0  0  0  0  0  0  0  0  0  0  # atno 17395 bound_to 11000

$$$$
