AV-unprocessed.smi:1907|AV-procd|sdf|7731|dock4
  -GOLD-   22720 9473D 1   1.00000     0.00000
 Structure written by MMmdl.
 32 33  0  0  0  0  0  0  0  0  1 V2000
  142.1603  132.1072  147.9871 N   0  0  0  0  0  0  0  0  0  0  0  0
  143.4023  132.5152  148.2626 C   0  0  0  0  0  0  0  0  0  0  0  0
  144.0124  133.2993  147.5392 O   0  0  0  0  0  0  0  0  0  0  0  0
  144.0557  131.9609  149.5301 C   0  0  0  0  0  0  0  0  0  0  0  0
  144.7382  133.0614  150.2890 C   0  0  0  0  0  0  0  0  0  0  0  0
  144.2693  134.3358  150.5000 C   0  0  0  0  0  0  0  0  0  0  0  0
  145.3867  135.2993  151.4294 S   0  0  0  0  0  0  0  0  0  0  0  0
  146.4504  133.9048  151.5228 C   0  0  0  0  0  0  0  0  0  0  0  0
  147.7111  133.9562  152.1711 N   0  0  0  0  0  0  0  0  0  0  0  0
  148.4249  132.9689  152.7487 C   0  0  0  0  0  0  0  0  0  0  0  0
  147.9917  131.8172  152.7347 O   0  0  0  0  0  0  0  0  0  0  0  0
  149.7958  133.2565  153.4056 C   0  0  0  0  0  0  0  0  0  0  0  0
  150.4253  132.0077  154.0501 C   0  0  0  0  0  0  0  0  0  0  0  0
  149.9716  131.9847  155.5181 C   0  0  0  0  0  0  0  0  0  0  0  0
  149.3562  133.3599  155.8081 C   0  0  0  0  0  0  0  0  0  0  0  0
  149.6742  134.2288  154.5882 C   0  0  0  0  0  0  0  0  0  0  0  0
  145.9958  132.8380  150.8581 N   0  0  0  0  0  0  0  0  0  0  0  0
  141.6895  132.4542  147.1642 H   0  0  0  0  0  0  0  0  0  0  0  0
  141.6941  131.4595  148.6056 H   0  0  0  0  0  0  0  0  0  0  0  0
  143.2991  131.4744  150.1474 H   0  0  0  0  0  0  0  0  0  0  0  0
  144.7704  131.1847  149.2537 H   0  0  0  0  0  0  0  0  0  0  0  0
  143.3370  134.7647  150.1636 H   0  0  0  0  0  0  0  0  0  0  0  0
  148.1380  134.8707  152.1996 H   0  0  0  0  0  0  0  0  0  0  0  0
  150.4876  133.6311  152.6518 H   0  0  0  0  0  0  0  0  0  0  0  0
  150.1708  131.0822  153.5312 H   0  0  0  0  0  0  0  0  0  0  0  0
  151.5118  132.0958  154.0110 H   0  0  0  0  0  0  0  0  0  0  0  0
  149.2345  131.1986  155.6856 H   0  0  0  0  0  0  0  0  0  0  0  0
  150.8170  131.7830  156.1767 H   0  0  0  0  0  0  0  0  0  0  0  0
  148.2755  133.2600  155.9159 H   0  0  0  0  0  0  0  0  0  0  0  0
  149.7360  133.7976  156.7317 H   0  0  0  0  0  0  0  0  0  0  0  0
  150.6285  134.7364  154.7352 H   0  0  0  0  0  0  0  0  0  0  0  0
  148.9204  135.0022  154.4344 H   0  0  0  0  0  0  0  0  0  0  0  0
  1  2  1  0  0  0  0
  1 18  1  0  0  0  0
  1 19  1  0  0  0  0
  2  3  2  0  0  0  0
  2  4  1  0  0  0  0
  4  5  1  0  0  0  0
  4 20  1  0  0  0  0
  4 21  1  0  0  0  0
  5 17  1  0  0  0  0
  5  6  2  0  0  0  0
  6  7  1  0  0  0  0
  6 22  1  0  0  0  0
  7  8  1  0  0  0  0
  8  9  1  0  0  0  0
  8 17  2  0  0  0  0
  9 10  1  0  0  0  0
  9 23  1  0  0  0  0
 10 11  2  0  0  0  0
 10 12  1  0  0  0  0
 12 16  1  0  0  0  0
 12 13  1  0  0  0  0
 12 24  1  0  0  0  0
 13 14  1  0  0  0  0
 13 25  1  0  0  0  0
 13 26  1  0  0  0  0
 14 15  1  0  0  0  0
 14 27  1  0  0  0  0
 14 28  1  0  0  0  0
 15 16  1  0  0  0  0
 15 29  1  0  0  0  0
 15 30  1  0  0  0  0
 16 31  1  0  0  0  0
 16 32  1  0  0  0  0
M  END
> <s_m_source_file>
AV-unprocessed.smi

> <i_m_source_file_index>
1907

> <i_lp_mmshare_version>
43012

> <i_f3d_flags>
0

> <s_epik_input>
W05IMl1DKD1PKVtDSDJdYzFbY0hdc2MobjEpW05IXUMoPU8pW0NIXTJbQ0gyXVtDSDJdW0NIMl1bQ0gyXTI=

> <s_epik_cmdline>
J2VwaWtfcHl0aG9uJywgJy1waCcsICc3LjAnLCAnLXRuJywgJzgnLCAnLW1hJywgJzIwMCcsICctbWV0YWxfYmluZGluZycsICctaW1hZScsICc8aW5maWxlLm1hZT4nLCAnLW9tYWUnLCAnPG91dGZpbGUubWFlPic=

> <r_lp_tautomer_probability>
1

> <r_epik_Ionization_Penalty>
0.00017492

> <r_epik_Ionization_Penalty_Charging>
0

> <r_epik_Ionization_Penalty_Neutral>
0.00017492

> <r_epik_State_Penalty>
-0

> <r_epik_Charging_Adjusted_Penalty>
0

> <i_epik_Tot_Q>
0

> <i_epik_Tot_abs_Q>
0

> <r_epik_Metal_State_Penalty>
0.109333

> <b_epik_Metal_Only>
0

> <s_lp_Force_Field>
OPLS_2005

> <r_lp_Energy>
23.3326

> <b_lp_Chiralities_Consistent>
1

> <s_lp_Variant>
AV-unprocessed.smi:1907-1

> <Gold.Version>
5.8.1

> <Gold.Id.Protein>
6NUR|6NUR_protein|mol2

> <Gold.PLP.Fitness>
44.7003

> <Gold.PLP.PLP>
-31.9345

> <Gold.PLP.part.hbond>
-5.0000

> <Gold.PLP.part.metal>
0.0000

> <Gold.PLP.part.buried>
-3.9103

> <Gold.PLP.part.nonpolar>
-27.9991

> <Gold.PLP.part.repulsive>
4.7834

> <Gold.PLP.ligand.clash>
0.0000

> <Gold.PLP.ligand.torsion>
0.6252

> <Gold.PLP.Chemscore.Hbond>
3.6720

> <Gold.PLP.Chemscore.CHOScore>
0.9902

> <Gold.PLP.Chemscore.Metal>
0.0000

> <Gold.Chemscore.Hbonds>
donor molecule, donor type, donor heavy atom, donor atom, acceptor molecule, acceptor atom, score
      L1  H     1    18       P1 10195  1.00
      L1  H     1    19       P1 10952  1.00
      L1  H     9    23       P1  7948  1.00
      P1  H  7918  7932       L1     3  0.69
      L1  C     6    22       P1 10186  1.00

> <Gold.PLP.Chemscore.Internal.Correction>
0.0296

> <Gold.Rescore>
     Score         DG    S(hbond)    S(metal)    S(lipo)     H(rot)  DE(clash)    DE(int)     intcor
     14.21     -19.24       3.60        0.00      56.33       1.90       2.25       2.78       ----

> <Gold.Chemscore.Fitness>
14.2071

> <Gold.Chemscore.DG>
-19.2397

> <Gold.Chemscore.ZeroCoef>
-5.4800

> <Gold.Chemscore.Hbond>
3.6048

> <Gold.Chemscore.Metal>
0.0000

> <Gold.Chemscore.Lipo>
56.3308

> <Gold.Chemscore.Internal_Hbond>
0.0000

> <Gold.Chemscore.DEClash>
2.2527

> <Gold.Chemscore.DEInternal>
2.7799

> <Gold.Chemscore.Rot>
1.9028

> <Gold.Chemscore.Internal.Correction>
   9.000000E+99

> <Gold.Chemscore.Hbonds>
donor molecule, donor type, donor heavy atom, donor atom, acceptor molecule, acceptor atom, score
      L1  H     1    18       P1 10195  0.89
      L1  H     1    19       P1 10952  1.00
      L1  H     9    23       P1  7948  0.39
      P1  H  7918  7932       L1     3  0.70

> <Gold.Chemscore.Hbond.Weighted>
-12.0401

> <Gold.Chemscore.Metal.Weighted>
-0.0000

> <Gold.Chemscore.Lipo.Weighted>
-6.5907

> <Gold.Chemscore.Internal_Hbond.Weighted>
0.0000

> <Gold.Chemscore.DEClash.Weighted>
2.2527

> <Gold.Chemscore.DEInternal.Weighted>
2.7799

> <Gold.Chemscore.Rot.Weighted>
4.8711

> <Gold.Chemscore.Internal.Correction.Weighted>
   9.000000E+99

> <Gold.Protein.RotatedTorsions>
[ 6907 6896 6895 6894 ] final   14.42 input  -60.11 | X-H torsion
[ 7974 7965 7964 7962 ] final  106.10 input  175.53 | X-H torsion
[ 8008 7997 7996 7995 ] final  151.40 input   59.86 | X-H torsion
[ 10167 10162 10161 10158 ] final   39.07 input  -65.29 | X-H torsion
[ 10718 10713 10712 10709 ] final -174.02 input   66.30 | X-H torsion
[ 10763 10752 10751 10750 ] final  -79.72 input  -60.55 | X-H torsion
[ 11005 11000 10999 10996 ] final  -51.21 input  -57.11 | X-H torsion

> <Gold.Protein.ActiveResidues>
 VAL166  LYS551  ARG553  GLY616  TRP617  ASP618  TYR619  PRO620  LYS621  CYS622 
 ASP623  PHE694  ASN695  SER759  ASP760  ASP761  ALA762  ILE779  LEU786  VAL792 
 PHE793  MET794  SER795  GLU796  ALA797  LYS798  CYS799  TRP800  GLU811  SER814 

> <Gold.Protein.RotatedAtoms>
  151.8020  135.0706  160.0401 H   0  0  0  0  0  0  0  0  0  0  0  0  # atno 6907 bound_to 6896
  152.3082  133.5721  159.5672 H   0  0  0  0  0  0  0  0  0  0  0  0  # atno 6908 bound_to 6896
  150.7307  134.0107  159.3710 H   0  0  0  0  0  0  0  0  0  0  0  0  # atno 6909 bound_to 6896
  145.3110  139.2540  143.3763 H   0  0  0  0  0  0  0  0  0  0  0  0  # atno 7974 bound_to 7965
  156.2675  140.2049  156.6170 H   0  0  0  0  0  0  0  0  0  0  0  0  # atno 8008 bound_to 7997
  154.6787  140.0542  157.0266 H   0  0  0  0  0  0  0  0  0  0  0  0  # atno 8009 bound_to 7997
  155.1032  140.3208  155.4544 H   0  0  0  0  0  0  0  0  0  0  0  0  # atno 8010 bound_to 7997
  140.3876  144.1896  150.6130 H   0  0  0  0  0  0  0  0  0  0  0  0  # atno 10167 bound_to 10162
  156.7790  130.9476  151.3120 H   0  0  0  0  0  0  0  0  0  0  0  0  # atno 10718 bound_to 10713
  154.5422  135.5686  153.6849 H   0  0  0  0  0  0  0  0  0  0  0  0  # atno 10763 bound_to 10752
  152.9966  135.6230  154.2486 H   0  0  0  0  0  0  0  0  0  0  0  0  # atno 10764 bound_to 10752
  154.2418  135.2862  155.2831 H   0  0  0  0  0  0  0  0  0  0  0  0  # atno 10765 bound_to 10752
  141.0859  133.6643  156.3844 H   0  0  0  0  0  0  0  0  0  0  0  0  # atno 11005 bound_to 11000
  146.3118  140.3646  142.8668 LP  0  0  0  0  0  0  0  0  0  0  0  0  # atno 17320 bound_to 7965
  144.9016  140.7649  143.5863 LP  0  0  0  0  0  0  0  0  0  0  0  0  # atno 17321 bound_to 7965
  140.4873  143.2359  151.8869 LP  0  0  0  0  0  0  0  0  0  0  0  0  # atno 17342 bound_to 10162
  139.4791  144.5204  151.8809 LP  0  0  0  0  0  0  0  0  0  0  0  0  # atno 17343 bound_to 10162
  157.6655  130.9004  149.9923 LP  0  0  0  0  0  0  0  0  0  0  0  0  # atno 17370 bound_to 10713
  156.1230  130.3645  149.9856 LP  0  0  0  0  0  0  0  0  0  0  0  0  # atno 17371 bound_to 10713
  140.5365  134.6162  157.5366 LP  0  0  0  0  0  0  0  0  0  0  0  0  # atno 17394 bound_to 11000
  139.9677  134.7345  156.0105 LP  0  0  0  0  0  0  0  0  0  0  0  0  # atno 17395 bound_to 11000

$$$$
