AV-unprocessed.smi:1702|AV-procd|sdf|6845|dock3
  -GOLD-   22720 8 23D 1   1.00000     0.00000
 Structure written by MMmdl.
 44 46  0  0  0  0  0  0  0  0  2 V2000
  145.1616  141.2574  154.5240 C   0  0  0  0  0  0  0  0  0  0  0  0
  146.5276  140.9634  155.1599 C   0  0  2  0  0  0  0  0  0  0  0  0
  146.8320  141.9192  156.3256 C   0  0  0  0  0  0  0  0  0  0  0  0
  148.2153  141.6353  156.9351 C   0  0  0  0  0  0  0  0  0  0  0  0
  149.2848  141.7180  155.9047 N   0  3  1  0  0  0  0  0  0  0  0  0
  150.6533  141.5708  156.4646 C   0  0  0  0  0  0  0  0  0  0  0  0
  150.9951  142.6698  157.4900 C   0  0  2  0  0  0  0  0  0  0  0  0
  151.3023  143.8600  156.7893 O   0  0  0  0  0  0  0  0  0  0  0  0
  152.1944  142.2729  158.3722 C   0  0  0  0  0  0  0  0  0  0  0  0
  152.2430  143.0243  159.6142 N   0  0  0  0  0  0  0  0  0  0  0  0
  151.5912  144.1700  159.8912 C   0  0  0  0  0  0  0  0  0  0  0  0
  151.7770  144.7006  161.0961 N   0  0  0  0  0  0  0  0  0  0  0  0
  152.6470  143.7909  161.6719 C   0  0  0  0  0  0  0  0  0  0  0  0
  153.2367  143.7728  162.9558 C   0  0  0  0  0  0  0  0  0  0  0  0
  154.1079  142.7278  163.3279 C   0  0  0  0  0  0  0  0  0  0  0  0
  154.6644  142.7262  164.5625 F   0  0  0  0  0  0  0  0  0  0  0  0
  154.4027  141.6872  162.4222 C   0  0  0  0  0  0  0  0  0  0  0  0
  155.2403  140.6879  162.7869 F   0  0  0  0  0  0  0  0  0  0  0  0
  153.8278  141.6844  161.1366 C   0  0  0  0  0  0  0  0  0  0  0  0
  152.9583  142.7285  160.7704 C   0  0  0  0  0  0  0  0  0  0  0  0
  149.0323  140.7803  154.7805 C   0  0  0  0  0  0  0  0  0  0  0  0
  147.6650  141.0469  154.1286 C   0  0  0  0  0  0  0  0  0  0  0  0
  145.1230  142.2664  154.1124 H   0  0  0  0  0  0  0  0  0  0  0  0
  144.3598  141.1663  155.2572 H   0  0  0  0  0  0  0  0  0  0  0  0
  144.9470  140.5596  153.7139 H   0  0  0  0  0  0  0  0  0  0  0  0
  146.4983  139.9458  155.5527 H   0  0  0  0  0  0  0  0  0  0  0  0
  146.7921  142.9529  155.9784 H   0  0  0  0  0  0  0  0  0  0  0  0
  146.0661  141.8235  157.0962 H   0  0  0  0  0  0  0  0  0  0  0  0
  148.4011  142.3513  157.7347 H   0  0  0  0  0  0  0  0  0  0  0  0
  148.2250  140.6449  157.3931 H   0  0  0  0  0  0  0  0  0  0  0  0
  150.7528  140.5811  156.9135 H   0  0  0  0  0  0  0  0  0  0  0  0
  151.3901  141.6121  155.6606 H   0  0  0  0  0  0  0  0  0  0  0  0
  150.1408  142.8672  158.1369 H   0  0  0  0  0  0  0  0  0  0  0  0
  152.0727  143.7089  156.2620 H   0  0  0  0  0  0  0  0  0  0  0  0
  152.1430  141.2120  158.6208 H   0  0  0  0  0  0  0  0  0  0  0  0
  153.1325  142.4203  157.8356 H   0  0  0  0  0  0  0  0  0  0  0  0
  150.9466  144.6440  159.1652 H   0  0  0  0  0  0  0  0  0  0  0  0
  153.0191  144.5642  163.6575 H   0  0  0  0  0  0  0  0  0  0  0  0
  154.0546  140.8889  160.4428 H   0  0  0  0  0  0  0  0  0  0  0  0
  149.8121  140.8922  154.0262 H   0  0  0  0  0  0  0  0  0  0  0  0
  149.0849  139.7522  155.1425 H   0  0  0  0  0  0  0  0  0  0  0  0
  147.4954  140.3283  153.3260 H   0  0  0  0  0  0  0  0  0  0  0  0
  147.6705  142.0335  153.6623 H   0  0  0  0  0  0  0  0  0  0  0  0
  149.2437  142.6462  155.5075 H   0  0  0  0  0  0  0  0  0  0  0  0
  1  2  1  0  0  0  0
  1 23  1  0  0  0  0
  1 24  1  0  0  0  0
  1 25  1  0  0  0  0
  2 22  1  0  0  0  0
  2  3  1  0  0  0  0
  2 26  1  0  0  0  0
  3  4  1  0  0  0  0
  3 27  1  0  0  0  0
  3 28  1  0  0  0  0
  4  5  1  0  0  0  0
  4 29  1  0  0  0  0
  4 30  1  0  0  0  0
  5  6  1  0  0  0  0
  5 21  1  0  0  0  0
  5 44  1  0  0  0  0
  6  7  1  0  0  0  0
  6 31  1  0  0  0  0
  6 32  1  0  0  0  0
  7  8  1  0  0  0  0
  7  9  1  0  0  0  0
  7 33  1  0  0  0  0
  8 34  1  0  0  0  0
  9 10  1  0  0  0  0
  9 35  1  0  0  0  0
  9 36  1  0  0  0  0
 10 20  1  0  0  0  0
 10 11  1  0  0  0  0
 11 12  2  0  0  0  0
 11 37  1  0  0  0  0
 12 13  1  0  0  0  0
 13 20  2  0  0  0  0
 13 14  1  0  0  0  0
 14 15  2  0  0  0  0
 14 38  1  0  0  0  0
 15 16  1  0  0  0  0
 15 17  1  0  0  0  0
 17 18  1  0  0  0  0
 17 19  2  0  0  0  0
 19 20  1  0  0  0  0
 19 39  1  0  0  0  0
 21 22  1  0  0  0  0
 21 40  1  0  0  0  0
 21 41  1  0  0  0  0
 22 42  1  0  0  0  0
 22 43  1  0  0  0  0
M  CHG  1   5   1
M  END
> <s_m_source_file>
AV-unprocessed.smi

> <i_m_source_file_index>
1702

> <i_lp_mmshare_version>
43012

> <i_f3d_flags>
0

> <s_epik_input>
W0NIM11bQ0hdMVtDSDJdW0NIMl1OKFtDSDJdW0NIMl0xKVtDSDJdW0NASF0oW09IXSlbQ0gyXW4oW2NIXW4yKWMoYzIzKVtjSF1jKEYpYyhGKVtjSF0z

> <s_epik_cmdline>
J2VwaWtfcHl0aG9uJywgJy1waCcsICc3LjAnLCAnLXRuJywgJzgnLCAnLW1hJywgJzIwMCcsICctbWV0YWxfYmluZGluZycsICctaW1hZScsICc8aW5maWxlLm1hZT4nLCAnLW9tYWUnLCAnPG91dGZpbGUubWFlPic=

> <r_epik_Ionization_Penalty>
0.0135195

> <r_epik_Ionization_Penalty_Charging>
0.00181365

> <r_epik_Ionization_Penalty_Neutral>
0.0117059

> <r_epik_State_Penalty>
0.00902283

> <r_epik_Charging_Adjusted_Penalty>
0.0108365

> <i_epik_Tot_Q>
1

> <i_epik_Tot_abs_Q>
1

> <r_epik_Metal_State_Penalty>
9.09181e-06

> <b_epik_Metal_Only>
0

> <s_lp_Force_Field>
OPLS_2005

> <r_lp_Energy>
21.6828

> <b_lp_Chiralities_Consistent>
1

> <s_lp_Variant>
AV-unprocessed.smi:1702-1

> <Gold.Version>
5.8.1

> <Gold.Id.Protein>
6NUR|6NUR_protein|mol2

> <Gold.PLP.Fitness>
54.6770

> <Gold.PLP.PLP>
-49.7789

> <Gold.PLP.part.hbond>
-2.0000

> <Gold.PLP.part.metal>
0.0000

> <Gold.PLP.part.buried>
-0.0563

> <Gold.PLP.part.nonpolar>
-48.2367

> <Gold.PLP.part.repulsive>
1.2072

> <Gold.PLP.ligand.clash>
0.0000

> <Gold.PLP.ligand.torsion>
0.5890

> <Gold.PLP.Chemscore.Hbond>
2.0000

> <Gold.PLP.Chemscore.CHOScore>
0.0000

> <Gold.PLP.Chemscore.Metal>
0.0000

> <Gold.Chemscore.Hbonds>
donor molecule, donor type, donor heavy atom, donor atom, acceptor molecule, acceptor atom, score
      L1  H     5    44       P1  8028  1.62

> <Gold.PLP.Chemscore.Internal.Correction>
0.0761

> <Gold.Rescore>
     Score         DG    S(hbond)    S(metal)    S(lipo)     H(rot)  DE(clash)    DE(int)     intcor
     13.68     -14.81       1.00        0.00     100.80       2.26       0.38       0.76       ----

> <Gold.Chemscore.Fitness>
13.6794

> <Gold.Chemscore.DG>
-14.8135

> <Gold.Chemscore.ZeroCoef>
-5.4800

> <Gold.Chemscore.Hbond>
0.9972

> <Gold.Chemscore.Metal>
0.0000

> <Gold.Chemscore.Lipo>
100.7972

> <Gold.Chemscore.Internal_Hbond>
0.0000

> <Gold.Chemscore.DEClash>
0.3776

> <Gold.Chemscore.DEInternal>
0.7565

> <Gold.Chemscore.Rot>
2.2619

> <Gold.Chemscore.Internal.Correction>
   9.000000E+99

> <Gold.Chemscore.Hbonds>
donor molecule, donor type, donor heavy atom, donor atom, acceptor molecule, acceptor atom, score
      L1  H     5    44       P1  8028  0.77

> <Gold.Chemscore.Hbond.Weighted>
-3.3307

> <Gold.Chemscore.Metal.Weighted>
-0.0000

> <Gold.Chemscore.Lipo.Weighted>
-11.7933

> <Gold.Chemscore.Internal_Hbond.Weighted>
0.0000

> <Gold.Chemscore.DEClash.Weighted>
0.3776

> <Gold.Chemscore.DEInternal.Weighted>
0.7565

> <Gold.Chemscore.Rot.Weighted>
5.7904

> <Gold.Chemscore.Internal.Correction.Weighted>
   9.000000E+99

> <Gold.Protein.RotatedTorsions>
[ 6907 6896 6895 6894 ] final  140.71 input  -60.11 | X-H torsion
[ 7974 7965 7964 7962 ] final  -24.16 input  175.53 | X-H torsion
[ 8008 7997 7996 7995 ] final  -19.75 input   59.86 | X-H torsion
[ 10167 10162 10161 10158 ] final -108.60 input  -65.29 | X-H torsion
[ 10718 10713 10712 10709 ] final -109.52 input   66.30 | X-H torsion
[ 10763 10752 10751 10750 ] final   90.87 input  -60.55 | X-H torsion
[ 11005 11000 10999 10996 ] final  134.15 input  -57.11 | X-H torsion

> <Gold.Protein.ActiveResidues>
 VAL166  LYS551  ARG553  GLY616  TRP617  ASP618  TYR619  PRO620  LYS621  CYS622 
 ASP623  PHE694  ASN695  SER759  ASP760  ASP761  ALA762  ILE779  LEU786  VAL792 
 PHE793  MET794  SER795  GLU796  ALA797  LYS798  CYS799  TRP800  GLU811  SER814 

> <Gold.Protein.RotatedAtoms>
  152.2398  133.5126  159.5263 H   0  0  0  0  0  0  0  0  0  0  0  0  # atno 6907 bound_to 6896
  150.7061  134.1104  159.4007 H   0  0  0  0  0  0  0  0  0  0  0  0  # atno 6908 bound_to 6896
  151.9025  135.0372  160.0558 H   0  0  0  0  0  0  0  0  0  0  0  0  # atno 6909 bound_to 6896
  146.1572  140.4714  142.8586 H   0  0  0  0  0  0  0  0  0  0  0  0  # atno 7974 bound_to 7965
  154.4816  140.2080  155.9751 H   0  0  0  0  0  0  0  0  0  0  0  0  # atno 8008 bound_to 7997
  156.1173  140.3219  155.8127 H   0  0  0  0  0  0  0  0  0  0  0  0  # atno 8009 bound_to 7997
  155.4530  140.0518  157.2990 H   0  0  0  0  0  0  0  0  0  0  0  0  # atno 8010 bound_to 7997
  140.1644  143.4094  152.1401 H   0  0  0  0  0  0  0  0  0  0  0  0  # atno 10167 bound_to 10162
  156.0541  130.5768  150.8111 H   0  0  0  0  0  0  0  0  0  0  0  0  # atno 10718 bound_to 10713
  153.2021  135.4418  155.0279 H   0  0  0  0  0  0  0  0  0  0  0  0  # atno 10763 bound_to 10752
  154.8153  135.3312  154.7196 H   0  0  0  0  0  0  0  0  0  0  0  0  # atno 10764 bound_to 10752
  153.7640  135.6989  153.4975 H   0  0  0  0  0  0  0  0  0  0  0  0  # atno 10765 bound_to 10752
  139.9896  134.9520  156.9825 H   0  0  0  0  0  0  0  0  0  0  0  0  # atno 11005 bound_to 11000
  144.7978  140.6156  143.6498 LP  0  0  0  0  0  0  0  0  0  0  0  0  # atno 17320 bound_to 7965
  145.4680  139.1506  143.3830 LP  0  0  0  0  0  0  0  0  0  0  0  0  # atno 17321 bound_to 7965
  139.5366  144.7216  151.4872 LP  0  0  0  0  0  0  0  0  0  0  0  0  # atno 17342 bound_to 10162
  140.6622  143.8474  150.6901 LP  0  0  0  0  0  0  0  0  0  0  0  0  # atno 17343 bound_to 10162
  157.5496  131.0943  150.9714 LP  0  0  0  0  0  0  0  0  0  0  0  0  # atno 17370 bound_to 10713
  156.9977  130.5588  149.5308 LP  0  0  0  0  0  0  0  0  0  0  0  0  # atno 17371 bound_to 10713
  140.4934  134.1170  155.7237 LP  0  0  0  0  0  0  0  0  0  0  0  0  # atno 17394 bound_to 11000
  141.1555  133.8891  157.1989 LP  0  0  0  0  0  0  0  0  0  0  0  0  # atno 17395 bound_to 11000

$$$$
