AV-unprocessed.smi:1990|AV-procd|sdf|8064|dock1
  -GOLD-   2272010273D 1   1.00000     0.00000
 Structure written by MMmdl.
 46 47  0  0  0  0  0  0  0  0  1 V2000
  151.6969  145.2199  158.9792 C   0  0  0  0  0  0  0  0  0  0  0  0
  152.1187  143.8501  158.4377 C   0  0  1  0  0  0  0  0  0  0  0  0
  152.1361  142.7727  159.5385 C   0  0  0  0  0  0  0  0  0  0  0  0
  152.4195  141.4580  158.9692 N   0  0  0  0  0  0  0  0  0  0  0  0
  152.7749  140.4007  159.8384 C   0  0  0  0  0  0  0  0  0  0  0  0
  153.1898  140.6264  161.1756 C   0  0  0  0  0  0  0  0  0  0  0  0
  153.5371  139.5287  161.9868 C   0  0  0  0  0  0  0  0  0  0  0  0
  153.4584  138.2239  161.4478 C   0  0  0  0  0  0  0  0  0  0  0  0
  153.7932  137.0340  162.1493 N   0  0  0  0  0  0  0  0  0  0  0  0
  153.9820  135.7896  161.6715 C   0  0  0  0  0  0  0  0  0  0  0  0
  153.8875  135.4741  160.4857 O   0  0  0  0  0  0  0  0  0  0  0  0
  154.3543  134.7288  162.7167 C   0  0  1  0  0  0  0  0  0  0  0  0
  155.7509  134.1399  162.4599 C   0  0  0  0  0  0  0  0  0  0  0  0
  154.2804  135.4587  164.4199 S   0  0  0  0  0  0  0  0  0  0  0  0
  152.5015  135.8996  164.6100 C   0  0  0  0  0  0  0  0  0  0  0  0
  154.5943  134.3932  165.3841 O   0  0  0  0  0  0  0  0  0  0  0  0
  155.0637  136.7035  164.4424 O   0  0  0  0  0  0  0  0  0  0  0  0
  153.0496  138.0997  160.1060 C   0  0  0  0  0  0  0  0  0  0  0  0
  152.7153  139.1478  159.3263 N   0  0  0  0  0  0  0  0  0  0  0  0
  151.5733  141.1137  157.8267 C   0  0  0  0  0  0  0  0  0  0  0  0
  151.5716  142.2489  156.7859 C   0  0  1  0  0  0  0  0  0  0  0  0
  150.5863  141.9781  155.6440 C   0  0  0  0  0  0  0  0  0  0  0  0
  151.1980  143.4680  157.4206 O   0  0  0  0  0  0  0  0  0  0  0  0
  152.3785  145.5608  159.7587 H   0  0  0  0  0  0  0  0  0  0  0  0
  150.6930  145.1847  159.4033 H   0  0  0  0  0  0  0  0  0  0  0  0
  151.6979  145.9685  158.1864 H   0  0  0  0  0  0  0  0  0  0  0  0
  153.1149  143.9438  158.0017 H   0  0  0  0  0  0  0  0  0  0  0  0
  152.8970  143.0389  160.2727 H   0  0  0  0  0  0  0  0  0  0  0  0
  151.1752  142.7398  160.0539 H   0  0  0  0  0  0  0  0  0  0  0  0
  153.2451  141.6162  161.6023 H   0  0  0  0  0  0  0  0  0  0  0  0
  153.8650  139.7166  162.9968 H   0  0  0  0  0  0  0  0  0  0  0  0
  153.9633  137.1547  163.1373 H   0  0  0  0  0  0  0  0  0  0  0  0
  153.6255  133.9181  162.6845 H   0  0  0  0  0  0  0  0  0  0  0  0
  155.8288  133.7286  161.4528 H   0  0  0  0  0  0  0  0  0  0  0  0
  155.9662  133.3329  163.1604 H   0  0  0  0  0  0  0  0  0  0  0  0
  156.5318  134.8926  162.5770 H   0  0  0  0  0  0  0  0  0  0  0  0
  152.3282  136.2611  165.6235 H   0  0  0  0  0  0  0  0  0  0  0  0
  151.8837  135.0200  164.4311 H   0  0  0  0  0  0  0  0  0  0  0  0
  152.2350  136.6854  163.9036 H   0  0  0  0  0  0  0  0  0  0  0  0
  152.9841  137.1270  159.6404 H   0  0  0  0  0  0  0  0  0  0  0  0
  151.9082  140.1980  157.3392 H   0  0  0  0  0  0  0  0  0  0  0  0
  150.5604  140.9304  158.1872 H   0  0  0  0  0  0  0  0  0  0  0  0
  152.5709  142.3576  156.3607 H   0  0  0  0  0  0  0  0  0  0  0  0
  150.8402  141.0578  155.1174 H   0  0  0  0  0  0  0  0  0  0  0  0
  150.5988  142.7907  154.9173 H   0  0  0  0  0  0  0  0  0  0  0  0
  149.5664  141.8804  156.0172 H   0  0  0  0  0  0  0  0  0  0  0  0
  1  2  1  0  0  0  0
  1 24  1  0  0  0  0
  1 25  1  0  0  0  0
  1 26  1  0  0  0  0
  2 23  1  0  0  0  0
  2  3  1  0  0  0  0
  2 27  1  0  0  0  0
  3  4  1  0  0  0  0
  3 28  1  0  0  0  0
  3 29  1  0  0  0  0
  4  5  1  0  0  0  0
  4 20  1  0  0  0  0
  5 19  1  0  0  0  0
  5  6  2  0  0  0  0
  6  7  1  0  0  0  0
  6 30  1  0  0  0  0
  7  8  2  0  0  0  0
  7 31  1  0  0  0  0
  8  9  1  0  0  0  0
  8 18  1  0  0  0  0
  9 10  1  0  0  0  0
  9 32  1  0  0  0  0
 10 11  2  0  0  0  0
 10 12  1  0  0  0  0
 12 13  1  0  0  0  0
 12 14  1  0  0  0  0
 12 33  1  0  0  0  0
 13 34  1  0  0  0  0
 13 35  1  0  0  0  0
 13 36  1  0  0  0  0
 14 15  1  0  0  0  0
 14 16  2  0  0  0  0
 14 17  2  0  0  0  0
 15 37  1  0  0  0  0
 15 38  1  0  0  0  0
 15 39  1  0  0  0  0
 18 19  2  0  0  0  0
 18 40  1  0  0  0  0
 20 21  1  0  0  0  0
 20 41  1  0  0  0  0
 20 42  1  0  0  0  0
 21 22  1  0  0  0  0
 21 23  1  0  0  0  0
 21 43  1  0  0  0  0
 22 44  1  0  0  0  0
 22 45  1  0  0  0  0
 22 46  1  0  0  0  0
M  END
> <s_m_source_file>
AV-unprocessed.smi

> <i_m_source_file_index>
1990

> <i_lp_mmshare_version>
43012

> <i_f3d_flags>
0

> <s_epik_input>
W0NIM11bQ0BASF0xW0NIMl1OKFtDSDJdW0NASF0oTzEpW0NIM10pYzJbY0hdW2NIXWMoW2NIXW4yKVtOSF1DKD1PKVtDQEhdKFtDSDNdKVMoPU8pKD1PKVtDSDNd

> <s_epik_cmdline>
J2VwaWtfcHl0aG9uJywgJy1waCcsICc3LjAnLCAnLXRuJywgJzgnLCAnLW1hJywgJzIwMCcsICctbWV0YWxfYmluZGluZycsICctaW1hZScsICc8aW5maWxlLm1hZT4nLCAnLW9tYWUnLCAnPG91dGZpbGUubWFlPic=

> <r_lp_tautomer_probability>
1

> <r_epik_Ionization_Penalty>
0.000334888

> <r_epik_Ionization_Penalty_Charging>
0

> <r_epik_Ionization_Penalty_Neutral>
0.000334888

> <r_epik_State_Penalty>
0.000200905

> <r_epik_Charging_Adjusted_Penalty>
0.000200905

> <i_epik_Tot_Q>
0

> <i_epik_Tot_abs_Q>
0

> <r_epik_Metal_State_Penalty>
-0

> <b_epik_Metal_Only>
0

> <s_lp_Force_Field>
OPLS_2005

> <r_lp_Energy>
18.0691

> <b_lp_Chiralities_Consistent>
1

> <s_lp_Variant>
AV-unprocessed.smi:1990-4

> <Gold.Version>
5.8.1

> <Gold.Id.Protein>
6NUR|6NUR_protein|mol2

> <Gold.PLP.Fitness>
40.2092

> <Gold.PLP.PLP>
-38.0330

> <Gold.PLP.part.hbond>
-1.0000

> <Gold.PLP.part.metal>
0.0000

> <Gold.PLP.part.buried>
-3.5947

> <Gold.PLP.part.nonpolar>
-33.6466

> <Gold.PLP.part.repulsive>
0.2607

> <Gold.PLP.ligand.clash>
0.0000

> <Gold.PLP.ligand.torsion>
0.7181

> <Gold.PLP.Chemscore.Hbond>
1.0000

> <Gold.PLP.Chemscore.CHOScore>
0.0000

> <Gold.PLP.Chemscore.Metal>
0.0000

> <Gold.Chemscore.Hbonds>
donor molecule, donor type, donor heavy atom, donor atom, acceptor molecule, acceptor atom, score
      P1  H  6896  6907       L1    11  1.00

> <Gold.PLP.Chemscore.Internal.Correction>
0.6123

> <Gold.Rescore>
     Score         DG    S(hbond)    S(metal)    S(lipo)     H(rot)  DE(clash)    DE(int)     intcor
     12.44     -16.76       1.00        0.00     101.11       1.52       0.30       4.02       ----

> <Gold.Chemscore.Fitness>
12.4386

> <Gold.Chemscore.DG>
-16.7605

> <Gold.Chemscore.ZeroCoef>
-5.4800

> <Gold.Chemscore.Hbond>
0.9987

> <Gold.Chemscore.Metal>
0.0000

> <Gold.Chemscore.Lipo>
101.1125

> <Gold.Chemscore.Internal_Hbond>
0.0000

> <Gold.Chemscore.DEClash>
0.2985

> <Gold.Chemscore.DEInternal>
4.0233

> <Gold.Chemscore.Rot>
1.5177

> <Gold.Chemscore.Internal.Correction>
   9.000000E+99

> <Gold.Chemscore.Hbonds>
donor molecule, donor type, donor heavy atom, donor atom, acceptor molecule, acceptor atom, score
      P1  H  6896  6907       L1    11  0.90

> <Gold.Chemscore.Hbond.Weighted>
-3.3356

> <Gold.Chemscore.Metal.Weighted>
-0.0000

> <Gold.Chemscore.Lipo.Weighted>
-11.8302

> <Gold.Chemscore.Internal_Hbond.Weighted>
0.0000

> <Gold.Chemscore.DEClash.Weighted>
0.2985

> <Gold.Chemscore.DEInternal.Weighted>
4.0233

> <Gold.Chemscore.Rot.Weighted>
3.8853

> <Gold.Chemscore.Internal.Correction.Weighted>
   9.000000E+99

> <Gold.Protein.RotatedTorsions>
[ 6907 6896 6895 6894 ] final   53.69 input  -60.11 | X-H torsion
[ 7974 7965 7964 7962 ] final   42.33 input  175.53 | X-H torsion
[ 8008 7997 7996 7995 ] final  158.23 input   59.86 | X-H torsion
[ 10167 10162 10161 10158 ] final   45.95 input  -65.29 | X-H torsion
[ 10718 10713 10712 10709 ] final  169.66 input   66.30 | X-H torsion
[ 10763 10752 10751 10750 ] final   66.78 input  -60.55 | X-H torsion
[ 11005 11000 10999 10996 ] final   55.08 input  -57.11 | X-H torsion

> <Gold.Protein.ActiveResidues>
 VAL166  LYS551  ARG553  GLY616  TRP617  ASP618  TYR619  PRO620  LYS621  CYS622 
 ASP623  PHE694  ASN695  SER759  ASP760  ASP761  ALA762  ILE779  LEU786  VAL792 
 PHE793  MET794  SER795  GLU796  ALA797  LYS798  CYS799  TRP800  GLU811  SER814 

> <Gold.Protein.RotatedAtoms>
  152.3363  134.7194  160.0275 H   0  0  0  0  0  0  0  0  0  0  0  0  # atno 6907 bound_to 6896
  151.7594  133.3327  159.3421 H   0  0  0  0  0  0  0  0  0  0  0  0  # atno 6908 bound_to 6896
  150.7452  134.6052  159.6102 H   0  0  0  0  0  0  0  0  0  0  0  0  # atno 6909 bound_to 6896
  146.0749  139.5313  142.9574 H   0  0  0  0  0  0  0  0  0  0  0  0  # atno 7974 bound_to 7965
  156.2315  140.1864  156.7229 H   0  0  0  0  0  0  0  0  0  0  0  0  # atno 8008 bound_to 7997
  154.6031  140.0633  156.9423 H   0  0  0  0  0  0  0  0  0  0  0  0  # atno 8009 bound_to 7997
  155.2140  140.3302  155.4327 H   0  0  0  0  0  0  0  0  0  0  0  0  # atno 8010 bound_to 7997
  140.3189  144.2729  150.6186 H   0  0  0  0  0  0  0  0  0  0  0  0  # atno 10167 bound_to 10162
  157.0193  131.0227  151.2779 H   0  0  0  0  0  0  0  0  0  0  0  0  # atno 10718 bound_to 10713
  153.0155  135.5308  154.6877 H   0  0  0  0  0  0  0  0  0  0  0  0  # atno 10763 bound_to 10752
  154.6020  135.2869  155.0527 H   0  0  0  0  0  0  0  0  0  0  0  0  # atno 10764 bound_to 10752
  154.1581  135.6552  153.5032 H   0  0  0  0  0  0  0  0  0  0  0  0  # atno 10765 bound_to 10752
  140.0635  134.5569  155.9125 H   0  0  0  0  0  0  0  0  0  0  0  0  # atno 11005 bound_to 11000
  145.6324  141.0301  143.1856 LP  0  0  0  0  0  0  0  0  0  0  0  0  # atno 17320 bound_to 7965
  144.7255  139.7889  143.7366 LP  0  0  0  0  0  0  0  0  0  0  0  0  # atno 17321 bound_to 7965
  140.5501  143.2208  151.7941 LP  0  0  0  0  0  0  0  0  0  0  0  0  # atno 17342 bound_to 10162
  139.4878  144.4488  151.9679 LP  0  0  0  0  0  0  0  0  0  0  0  0  # atno 17343 bound_to 10162
  157.5261  130.8029  149.7864 LP  0  0  0  0  0  0  0  0  0  0  0  0  # atno 17370 bound_to 10713
  156.0108  130.3834  150.2272 LP  0  0  0  0  0  0  0  0  0  0  0  0  # atno 17371 bound_to 10713
  141.1983  133.6601  156.5785 LP  0  0  0  0  0  0  0  0  0  0  0  0  # atno 17394 bound_to 11000
  140.3734  134.7586  157.4613 LP  0  0  0  0  0  0  0  0  0  0  0  0  # atno 17395 bound_to 11000

$$$$
