AV-unprocessed.smi:1987|AV-procd|sdf|8057|dock6
  -GOLD-   2272010263D 1   1.00000     0.00000
 Structure written by MMmdl.
 37 39  0  0  0  0  0  0  0  0  2 V2000
  147.1596  137.4729  154.4395 O   0  0  0  0  0  0  0  0  0  0  0  0
  146.4825  138.3161  153.8526 C   0  0  0  0  0  0  0  0  0  0  0  0
  147.1252  139.6128  153.3630 C   0  0  0  0  0  0  0  0  0  0  0  0
  148.4027  139.8122  154.0225 N   0  0  0  0  0  0  0  0  0  0  0  0
  149.5910  139.2383  153.8234 C   0  0  0  0  0  0  0  0  0  0  0  0
  150.5209  139.7541  154.6129 N   0  0  0  0  0  0  0  0  0  0  0  0
  149.8251  140.7042  155.3411 N   0  0  0  0  0  0  0  0  0  0  0  0
  148.5680  140.7443  154.9947 N   0  0  0  0  0  0  0  0  0  0  0  0
  145.1845  138.1503  153.5562 N   0  0  0  0  0  0  0  0  0  0  0  0
  144.4336  136.9131  153.7297 C   0  0  0  0  0  0  0  0  0  0  0  0
  144.0807  136.2723  152.3718 C   0  0  1  0  0  0  0  0  0  0  0  0
  145.2817  136.0053  151.4674 C   0  0  0  0  0  0  0  0  0  0  0  0
  144.7957  134.9125  150.5050 C   0  0  0  0  0  0  0  0  0  0  0  0
  143.5907  134.3051  151.1176 N   0  3  1  0  0  0  0  0  0  0  0  0
  143.5737  132.8273  151.0997 C   0  0  0  0  0  0  0  0  0  0  0  0
  144.9466  132.2090  150.9909 C   0  0  0  0  0  0  0  0  0  0  0  0
  144.0295  132.2361  149.7870 C   0  0  0  0  0  0  0  0  0  0  0  0
  143.4329  134.8897  152.4632 C   0  0  0  0  0  0  0  0  0  0  0  0
  147.2718  139.5817  152.2820 H   0  0  0  0  0  0  0  0  0  0  0  0
  146.4772  140.4627  153.5813 H   0  0  0  0  0  0  0  0  0  0  0  0
  149.7769  138.4625  153.0951 H   0  0  0  0  0  0  0  0  0  0  0  0
  144.7075  138.9093  153.0904 H   0  0  0  0  0  0  0  0  0  0  0  0
  144.9991  136.2141  154.3478 H   0  0  0  0  0  0  0  0  0  0  0  0
  143.5238  137.1509  154.2816 H   0  0  0  0  0  0  0  0  0  0  0  0
  143.3964  136.9306  151.8338 H   0  0  0  0  0  0  0  0  0  0  0  0
  145.6245  136.9007  150.9482 H   0  0  0  0  0  0  0  0  0  0  0  0
  146.1164  135.6240  152.0573 H   0  0  0  0  0  0  0  0  0  0  0  0
  144.5148  135.3380  149.5412 H   0  0  0  0  0  0  0  0  0  0  0  0
  145.5817  134.1774  150.3241 H   0  0  0  0  0  0  0  0  0  0  0  0
  142.7907  132.3426  151.6806 H   0  0  0  0  0  0  0  0  0  0  0  0
  145.8108  132.8710  150.9798 H   0  0  0  0  0  0  0  0  0  0  0  0
  145.1042  131.2475  151.4751 H   0  0  0  0  0  0  0  0  0  0  0  0
  143.5827  131.2930  149.4793 H   0  0  0  0  0  0  0  0  0  0  0  0
  144.2839  132.9162  148.9758 H   0  0  0  0  0  0  0  0  0  0  0  0
  143.9610  134.2776  153.1967 H   0  0  0  0  0  0  0  0  0  0  0  0
  142.3824  134.9342  152.7538 H   0  0  0  0  0  0  0  0  0  0  0  0
  142.8036  134.6253  150.5717 H   0  0  0  0  0  0  0  0  0  0  0  0
  1  2  2  0  0  0  0
  2  3  1  0  0  0  0
  2  9  1  0  0  0  0
  3  4  1  0  0  0  0
  3 19  1  0  0  0  0
  3 20  1  0  0  0  0
  4  8  1  0  0  0  0
  4  5  1  0  0  0  0
  5  6  2  0  0  0  0
  5 21  1  0  0  0  0
  6  7  1  0  0  0  0
  7  8  2  0  0  0  0
  9 10  1  0  0  0  0
  9 22  1  0  0  0  0
 10 11  1  0  0  0  0
 10 23  1  0  0  0  0
 10 24  1  0  0  0  0
 11 18  1  0  0  0  0
 11 12  1  0  0  0  0
 11 25  1  0  0  0  0
 12 13  1  0  0  0  0
 12 26  1  0  0  0  0
 12 27  1  0  0  0  0
 13 14  1  0  0  0  0
 13 28  1  0  0  0  0
 13 29  1  0  0  0  0
 14 15  1  0  0  0  0
 14 18  1  0  0  0  0
 14 37  1  0  0  0  0
 15 17  1  0  0  0  0
 15 16  1  0  0  0  0
 15 30  1  0  0  0  0
 16 17  1  0  0  0  0
 16 31  1  0  0  0  0
 16 32  1  0  0  0  0
 17 33  1  0  0  0  0
 17 34  1  0  0  0  0
 18 35  1  0  0  0  0
 18 36  1  0  0  0  0
M  CHG  1  14   1
M  END
> <s_m_source_file>
AV-unprocessed.smi

> <i_m_source_file_index>
1987

> <i_lp_mmshare_version>
43012

> <i_f3d_flags>
0

> <s_epik_input>
bjFubltjSF1uMVtDSDJdQyg9TylbTkhdW0NIMl1bQ0BASF0yW0NIMl1bQ0gyXU4oW0NIMl0yKVtDSF0zW0NIMl1bQ0gyXTM=

> <s_epik_cmdline>
J2VwaWtfcHl0aG9uJywgJy1waCcsICc3LjAnLCAnLXRuJywgJzgnLCAnLW1hJywgJzIwMCcsICctbWV0YWxfYmluZGluZycsICctaW1hZScsICc8aW5maWxlLm1hZT4nLCAnLW9tYWUnLCAnPG91dGZpbGUubWFlPic=

> <r_lp_tautomer_probability>
1

> <r_epik_Ionization_Penalty>
0.000242849

> <r_epik_Ionization_Penalty_Charging>
0.000241326

> <r_epik_Ionization_Penalty_Neutral>
1.52322e-06

> <r_epik_State_Penalty>
-0

> <r_epik_Charging_Adjusted_Penalty>
0.000241326

> <i_epik_Tot_Q>
1

> <i_epik_Tot_abs_Q>
1

> <r_epik_Metal_State_Penalty>
-0

> <b_epik_Metal_Only>
0

> <s_lp_Force_Field>
OPLS_2005

> <r_lp_Energy>
37.5901

> <b_lp_Chiralities_Consistent>
1

> <s_lp_Variant>
AV-unprocessed.smi:1987-4

> <Gold.Version>
5.8.1

> <Gold.Id.Protein>
6NUR|6NUR_protein|mol2

> <Gold.PLP.Fitness>
43.5360

> <Gold.PLP.PLP>
-28.9147

> <Gold.PLP.part.hbond>
-3.0000

> <Gold.PLP.part.metal>
0.0000

> <Gold.PLP.part.buried>
-2.0175

> <Gold.PLP.part.nonpolar>
-25.1913

> <Gold.PLP.part.repulsive>
0.3697

> <Gold.PLP.ligand.clash>
0.0000

> <Gold.PLP.ligand.torsion>
1.1005

> <Gold.PLP.Chemscore.Hbond>
4.0000

> <Gold.PLP.Chemscore.CHOScore>
1.1793

> <Gold.PLP.Chemscore.Metal>
0.0000

> <Gold.Chemscore.Hbonds>
donor molecule, donor type, donor heavy atom, donor atom, acceptor molecule, acceptor atom, score
      L1  H     9    22       P1 10175  1.00
      L1  H    14    37       P1 10186  1.82
      P1  H  7989  7998       L1     6  1.00
      L1  C     5    21       P1  7948  0.74
      L1  C     5    21       P1  7957  0.29

> <Gold.PLP.Chemscore.Internal.Correction>
1.2843

> <Gold.Rescore>
     Score         DG    S(hbond)    S(metal)    S(lipo)     H(rot)  DE(clash)    DE(int)     intcor
     10.11     -12.75       2.15        0.00      58.16       2.62       1.62       1.02       ----

> <Gold.Chemscore.Fitness>
10.1058

> <Gold.Chemscore.DG>
-12.7497

> <Gold.Chemscore.ZeroCoef>
-5.4800

> <Gold.Chemscore.Hbond>
2.1507

> <Gold.Chemscore.Metal>
0.0000

> <Gold.Chemscore.Lipo>
58.1603

> <Gold.Chemscore.Internal_Hbond>
0.0000

> <Gold.Chemscore.DEClash>
1.6200

> <Gold.Chemscore.DEInternal>
1.0238

> <Gold.Chemscore.Rot>
2.6244

> <Gold.Chemscore.Internal.Correction>
   9.000000E+99

> <Gold.Chemscore.Hbonds>
donor molecule, donor type, donor heavy atom, donor atom, acceptor molecule, acceptor atom, score
      L1  H     9    22       P1 10175  0.99
      L1  H    14    37       P1 10186  0.26
      P1  H  7989  7998       L1     6  0.19

> <Gold.Chemscore.Hbond.Weighted>
-7.1835

> <Gold.Chemscore.Metal.Weighted>
-0.0000

> <Gold.Chemscore.Lipo.Weighted>
-6.8048

> <Gold.Chemscore.Internal_Hbond.Weighted>
0.0000

> <Gold.Chemscore.DEClash.Weighted>
1.6200

> <Gold.Chemscore.DEInternal.Weighted>
1.0238

> <Gold.Chemscore.Rot.Weighted>
6.7186

> <Gold.Chemscore.Internal.Correction.Weighted>
   9.000000E+99

> <Gold.Protein.RotatedTorsions>
[ 6907 6896 6895 6894 ] final  -28.79 input  -60.11 | X-H torsion
[ 7974 7965 7964 7962 ] final  152.83 input  175.53 | X-H torsion
[ 8008 7997 7996 7995 ] final  155.59 input   59.86 | X-H torsion
[ 10167 10162 10161 10158 ] final   88.00 input  -65.29 | X-H torsion
[ 10718 10713 10712 10709 ] final  174.45 input   66.30 | X-H torsion
[ 10763 10752 10751 10750 ] final -170.87 input  -60.55 | X-H torsion
[ 11005 11000 10999 10996 ] final -129.46 input  -57.11 | X-H torsion

> <Gold.Protein.ActiveResidues>
 VAL166  LYS551  ARG553  GLY616  TRP617  ASP618  TYR619  PRO620  LYS621  CYS622 
 ASP623  PHE694  ASN695  SER759  ASP760  ASP761  ALA762  ILE779  LEU786  VAL792 
 PHE793  MET794  SER795  GLU796  ALA797  LYS798  CYS799  TRP800  GLU811  SER814 

> <Gold.Protein.RotatedAtoms>
  151.1281  135.0115  159.8569 H   0  0  0  0  0  0  0  0  0  0  0  0  # atno 6907 bound_to 6896
  152.5450  134.1643  159.8580 H   0  0  0  0  0  0  0  0  0  0  0  0  # atno 6908 bound_to 6896
  151.1707  133.4741  159.2627 H   0  0  0  0  0  0  0  0  0  0  0  0  # atno 6909 bound_to 6896
  144.8196  139.6720  143.6106 H   0  0  0  0  0  0  0  0  0  0  0  0  # atno 7974 bound_to 7965
  156.2470  140.1935  156.6825 H   0  0  0  0  0  0  0  0  0  0  0  0  # atno 8008 bound_to 7997
  154.6311  140.0595  156.9759 H   0  0  0  0  0  0  0  0  0  0  0  0  # atno 8009 bound_to 7997
  155.1709  140.3268  155.4395 H   0  0  0  0  0  0  0  0  0  0  0  0  # atno 8010 bound_to 7997
  139.8716  144.6489  150.8943 H   0  0  0  0  0  0  0  0  0  0  0  0  # atno 10167 bound_to 10162
  156.9494  131.0026  151.2952 H   0  0  0  0  0  0  0  0  0  0  0  0  # atno 10718 bound_to 10713
  154.6368  135.2893  155.0151 H   0  0  0  0  0  0  0  0  0  0  0  0  # atno 10763 bound_to 10752
  154.1292  135.6536  153.4922 H   0  0  0  0  0  0  0  0  0  0  0  0  # atno 10764 bound_to 10752
  153.0306  135.5306  154.7218 H   0  0  0  0  0  0  0  0  0  0  0  0  # atno 10765 bound_to 10752
  140.9429  134.1168  157.4134 H   0  0  0  0  0  0  0  0  0  0  0  0  # atno 11005 bound_to 11000
  146.2501  139.6181  142.9433 LP  0  0  0  0  0  0  0  0  0  0  0  0  # atno 17320 bound_to 7965
  145.5136  141.0434  143.2474 LP  0  0  0  0  0  0  0  0  0  0  0  0  # atno 17321 bound_to 7965
  140.7759  143.3659  151.1740 LP  0  0  0  0  0  0  0  0  0  0  0  0  # atno 17342 bound_to 10162
  139.7278  143.9120  152.3009 LP  0  0  0  0  0  0  0  0  0  0  0  0  # atno 17343 bound_to 10162
  157.5732  130.8325  149.8420 LP  0  0  0  0  0  0  0  0  0  0  0  0  # atno 17370 bound_to 10713
  156.0369  130.3749  150.1536 LP  0  0  0  0  0  0  0  0  0  0  0  0  # atno 17371 bound_to 10713
  139.8825  135.0042  156.6236 LP  0  0  0  0  0  0  0  0  0  0  0  0  # atno 17394 bound_to 11000
  140.7709  133.8739  155.8491 LP  0  0  0  0  0  0  0  0  0  0  0  0  # atno 17395 bound_to 11000

$$$$
