AV-unprocessed.smi:72|AV-procd|sdf|674|dock7
  -GOLD-   2262016583D 1   1.00000     0.00000
 Structure written by MMmdl.
 29 30  0  0  0  0  0  0  0  0  1 V2000
  147.4991  142.8451  158.1353 N   0  0  0  0  0  0  0  0  0  0  0  0
  147.9768  141.9204  157.3814 C   0  0  0  0  0  0  0  0  0  0  0  0
  148.0605  140.5619  157.7184 N   0  0  0  0  0  0  0  0  0  0  0  0
  148.5322  139.7309  156.8412 C   0  0  0  0  0  0  0  0  0  0  0  0
  148.9341  140.1499  155.5027 N   0  0  0  0  0  0  0  0  0  0  0  0
  149.5251  139.1672  154.4995 C   0  0  1  0  0  0  0  0  0  0  0  0
  150.8144  139.5814  154.1354 O   0  0  0  0  0  0  0  0  0  0  0  0
  151.8233  138.7752  154.7421 C   0  0  1  0  0  0  0  0  0  0  0  0
  152.2232  139.3391  156.1251 C   0  0  0  0  0  0  0  0  0  0  0  0
  153.3730  138.6726  156.6010 O   0  0  0  0  0  0  0  0  0  0  0  0
  151.1363  137.4063  154.7716 C   0  0  1  0  0  0  0  0  0  0  0  0
  151.6850  136.5270  155.7339 O   0  0  0  0  0  0  0  0  0  0  0  0
  149.6814  137.7389  155.0768 C   0  0  2  0  0  0  0  0  0  0  0  0
  148.8439  136.8095  154.4189 O   0  0  0  0  0  0  0  0  0  0  0  0
  148.9572  141.5353  155.1943 C   0  0  0  0  0  0  0  0  0  0  0  0
  149.4118  141.9736  154.1381 O   0  0  0  0  0  0  0  0  0  0  0  0
  148.4469  142.3567  156.1368 N   0  0  0  0  0  0  0  0  0  0  0  0
  148.8615  139.2303  153.6353 H   0  0  0  0  0  0  0  0  0  0  0  0
  152.7047  138.7350  154.1005 H   0  0  0  0  0  0  0  0  0  0  0  0
  151.2225  136.9542  153.7817 H   0  0  0  0  0  0  0  0  0  0  0  0
  149.5042  137.7405  156.1535 H   0  0  0  0  0  0  0  0  0  0  0  0
  147.5535  143.7421  157.6754 H   0  0  0  0  0  0  0  0  0  0  0  0
  148.6520  138.6695  157.0587 H   0  0  0  0  0  0  0  0  0  0  0  0
  152.3819  140.4162  156.1090 H   0  0  0  0  0  0  0  0  0  0  0  0
  151.4368  139.1509  156.8557 H   0  0  0  0  0  0  0  0  0  0  0  0
  153.0991  137.9680  157.1681 H   0  0  0  0  0  0  0  0  0  0  0  0
  151.6579  136.9544  156.5766 H   0  0  0  0  0  0  0  0  0  0  0  0
  148.9409  136.9308  153.4862 H   0  0  0  0  0  0  0  0  0  0  0  0
  148.4277  143.3449  155.9313 H   0  0  0  0  0  0  0  0  0  0  0  0
  1  2  2  0  0  0  0
  1 22  1  0  0  0  0
  2 17  1  0  0  0  0
  2  3  1  0  0  0  0
  3  4  2  0  0  0  0
  4  5  1  0  0  0  0
  4 23  1  0  0  0  0
  5  6  1  0  0  0  0
  5 15  1  0  0  0  0
  6 18  1  0  0  0  0
  6 13  1  0  0  0  0
  6  7  1  0  0  0  0
  7  8  1  0  0  0  0
  8 19  1  0  0  0  0
  8  9  1  0  0  0  0
  8 11  1  0  0  0  0
  9 10  1  0  0  0  0
  9 24  1  0  0  0  0
  9 25  1  0  0  0  0
 10 26  1  0  0  0  0
 11 20  1  0  0  0  0
 11 12  1  0  0  0  0
 11 13  1  0  0  0  0
 12 27  1  0  0  0  0
 13 21  1  0  0  0  0
 13 14  1  0  0  0  0
 14 28  1  0  0  0  0
 15 16  2  0  0  0  0
 15 17  1  0  0  0  0
 17 29  1  0  0  0  0
M  END
> <s_m_source_file>
AV-unprocessed.smi

> <i_m_source_file_index>
72

> <i_lp_mmshare_version>
43012

> <i_f3d_flags>
0

> <s_epik_input>
W05IMl1jMW5bY0hdbihjKD1PKW4xKVtDQEBIXTJPW0NASF0oW0NIMl1bT0hdKVtDQEBIXShbT0hdKVtDQEhdMltPSF0=

> <s_epik_cmdline>
J2VwaWtfcHl0aG9uJywgJy1waCcsICc3LjAnLCAnLXRuJywgJzgnLCAnLW1hJywgJzIwMCcsICctbWV0YWxfYmluZGluZycsICctaW1hZScsICc8aW5maWxlLm1hZT4nLCAnLW9tYWUnLCAnPG91dGZpbGUubWFlPic=

> <r_lp_tautomer_probability>
7.17554e-07

> <r_epik_Ionization_Penalty>
0.0066451

> <r_epik_Ionization_Penalty_Charging>
0.00663793

> <r_epik_Ionization_Penalty_Neutral>
7.17052e-06

> <r_epik_State_Penalty>
0.419231

> <r_epik_Charging_Adjusted_Penalty>
0.425868

> <i_epik_Tot_Q>
0

> <i_epik_Tot_abs_Q>
0

> <r_epik_Metal_State_Penalty>
1.44144

> <b_epik_Metal_Only>
0

> <s_epik_Chemistry_Notes>
This compound contains an acetal/aminal-like group ( X-CH(R)-Y where X, Y are N, S, or O) that may be acid/base labile, releasing an aldehyde.

> <s_lp_Force_Field>
OPLS_2005

> <r_lp_Energy>
41.469

> <b_lp_Chiralities_Consistent>
1

> <s_lp_Variant>
AV-unprocessed.smi:72-12

> <Gold.Version>
5.8.1

> <Gold.Id.Protein>
6NUR|6NUR_protein|mol2

> <Gold.PLP.Fitness>
40.3787

> <Gold.PLP.PLP>
-24.0152

> <Gold.PLP.part.hbond>
-6.8784

> <Gold.PLP.part.metal>
0.0000

> <Gold.PLP.part.buried>
-3.4249

> <Gold.PLP.part.nonpolar>
-14.0238

> <Gold.PLP.part.repulsive>
0.4490

> <Gold.PLP.ligand.clash>
0.0000

> <Gold.PLP.ligand.torsion>
0.1843

> <Gold.PLP.Chemscore.Hbond>
5.5445

> <Gold.PLP.Chemscore.CHOScore>
0.0000

> <Gold.PLP.Chemscore.Metal>
0.0000

> <Gold.Chemscore.Hbonds>
donor molecule, donor type, donor heavy atom, donor atom, acceptor molecule, acceptor atom, score
      L1  H     1    22       P1  8029  0.16
      L1  H    14    28       P1  7948  0.99
      L1  H    17    29       P1  8028  0.83
      P1  H  7989  7998       L1     7  1.00
      P1  H  7997  8010       L1    10  0.68
      P1  H  8011  8017       L1    16  0.40
      P1  H 10752 10765       L1    12  1.00

> <Gold.PLP.Chemscore.Internal.Correction>
0.0987

> <Gold.Rescore>
     Score         DG    S(hbond)    S(metal)    S(lipo)     H(rot)  DE(clash)    DE(int)     intcor
      9.64     -12.20       4.20        0.00      26.45       4.06       0.65       1.92       ----

> <Gold.Chemscore.Fitness>
9.6374

> <Gold.Chemscore.DG>
-12.1991

> <Gold.Chemscore.ZeroCoef>
-5.4800

> <Gold.Chemscore.Hbond>
4.1972

> <Gold.Chemscore.Metal>
0.0000

> <Gold.Chemscore.Lipo>
26.4459

> <Gold.Chemscore.Internal_Hbond>
0.0000

> <Gold.Chemscore.DEClash>
0.6460

> <Gold.Chemscore.DEInternal>
1.9156

> <Gold.Chemscore.Rot>
4.0600

> <Gold.Chemscore.Internal.Correction>
   9.000000E+99

> <Gold.Chemscore.Hbonds>
donor molecule, donor type, donor heavy atom, donor atom, acceptor molecule, acceptor atom, score
      L1  H    14    28       P1  7948  0.93
      L1  H    17    29       P1  8028  0.73
      P1  H  7989  7998       L1     7  0.50
      P1  H  7997  8010       L1    10  0.07
      P1  H  8011  8017       L1    16  0.40
      P1  H 10752 10765       L1    12  0.60

> <Gold.Chemscore.Hbond.Weighted>
-14.0185

> <Gold.Chemscore.Metal.Weighted>
-0.0000

> <Gold.Chemscore.Lipo.Weighted>
-3.0942

> <Gold.Chemscore.Internal_Hbond.Weighted>
0.0000

> <Gold.Chemscore.DEClash.Weighted>
0.6460

> <Gold.Chemscore.DEInternal.Weighted>
1.9156

> <Gold.Chemscore.Rot.Weighted>
10.3936

> <Gold.Chemscore.Internal.Correction.Weighted>
   9.000000E+99

> <Gold.Protein.RotatedTorsions>
[ 6907 6896 6895 6894 ] final  -68.67 input  -60.11 | X-H torsion
[ 7974 7965 7964 7962 ] final  129.95 input  175.53 | X-H torsion
[ 8008 7997 7996 7995 ] final   69.87 input   59.86 | X-H torsion
[ 10167 10162 10161 10158 ] final  154.13 input  -65.29 | X-H torsion
[ 10718 10713 10712 10709 ] final   36.39 input   66.30 | X-H torsion
[ 10763 10752 10751 10750 ] final -161.92 input  -60.55 | X-H torsion
[ 11005 11000 10999 10996 ] final -165.31 input  -57.11 | X-H torsion

> <Gold.Protein.ActiveResidues>
 VAL166  LYS551  ARG553  GLY616  TRP617  ASP618  TYR619  PRO620  LYS621  CYS622 
 ASP623  PHE694  ASN695  SER759  ASP760  ASP761  ALA762  ILE779  LEU786  VAL792 
 PHE793  MET794  SER795  GLU796  ALA797  LYS798  CYS799  TRP800  GLU811  SER814 

> <Gold.Protein.RotatedAtoms>
  150.7344  134.5706  159.5888 H   0  0  0  0  0  0  0  0  0  0  0  0  # atno 6907 bound_to 6896
  152.3146  134.7453  160.0337 H   0  0  0  0  0  0  0  0  0  0  0  0  # atno 6908 bound_to 6896
  151.7989  133.3332  159.3557 H   0  0  0  0  0  0  0  0  0  0  0  0  # atno 6909 bound_to 6896
  145.0232  139.4113  143.5187 H   0  0  0  0  0  0  0  0  0  0  0  0  # atno 7974 bound_to 7965
  155.7302  140.3492  155.5056 H   0  0  0  0  0  0  0  0  0  0  0  0  # atno 8008 bound_to 7997
  155.9189  140.1063  157.1243 H   0  0  0  0  0  0  0  0  0  0  0  0  # atno 8009 bound_to 7997
  154.4067  140.1253  156.4641 H   0  0  0  0  0  0  0  0  0  0  0  0  # atno 8010 bound_to 7997
  139.4824  144.5213  151.7871 H   0  0  0  0  0  0  0  0  0  0  0  0  # atno 10167 bound_to 10162
  157.3343  130.7514  149.6868 H   0  0  0  0  0  0  0  0  0  0  0  0  # atno 10718 bound_to 10713
  154.7260  135.3036  154.8969 H   0  0  0  0  0  0  0  0  0  0  0  0  # atno 10763 bound_to 10752
  153.9826  135.6728  153.4755 H   0  0  0  0  0  0  0  0  0  0  0  0  # atno 10764 bound_to 10752
  153.0876  135.4976  154.8546 H   0  0  0  0  0  0  0  0  0  0  0  0  # atno 10765 bound_to 10752
  140.5772  134.5178  157.5172 H   0  0  0  0  0  0  0  0  0  0  0  0  # atno 11005 bound_to 11000
  146.3488  139.9741  142.8703 LP  0  0  0  0  0  0  0  0  0  0  0  0  # atno 17320 bound_to 7965
  145.1868  140.9793  143.4234 LP  0  0  0  0  0  0  0  0  0  0  0  0  # atno 17321 bound_to 7965
  140.4727  144.1563  150.5920 LP  0  0  0  0  0  0  0  0  0  0  0  0  # atno 17342 bound_to 10162
  140.4364  143.2545  151.9530 LP  0  0  0  0  0  0  0  0  0  0  0  0  # atno 17343 bound_to 10162
  155.9699  130.4186  150.4336 LP  0  0  0  0  0  0  0  0  0  0  0  0  # atno 17370 bound_to 10713
  157.2373  131.0517  151.2457 LP  0  0  0  0  0  0  0  0  0  0  0  0  # atno 17371 bound_to 10713
  139.9334  134.7920  156.0868 LP  0  0  0  0  0  0  0  0  0  0  0  0  # atno 17394 bound_to 11000
  141.1019  133.6674  156.2775 LP  0  0  0  0  0  0  0  0  0  0  0  0  # atno 17395 bound_to 11000

$$$$
