AV-unprocessed.smi:1603|AV-procd|sdf|6443|dock6
  -GOLD-   22720 7 93D 1   1.00000     0.00000
 Structure written by MMmdl.
 45 47  0  0  0  0  0  0  0  0  2 V2000
  153.2271  139.6229  158.0313 O   0  0  0  0  0  0  0  0  0  0  0  0
  152.8702  140.6266  158.6492 C   0  0  0  0  0  0  0  0  0  0  0  0
  153.4608  141.0448  159.9294 C   0  0  0  0  0  0  0  0  0  0  0  0
  154.5442  140.1601  160.5404 C   0  0  0  0  0  0  0  0  0  0  0  0
  154.8495  140.5396  161.7822 F   0  0  0  0  0  0  0  0  0  0  0  0
  154.1405  138.8900  160.5903 F   0  0  0  0  0  0  0  0  0  0  0  0
  155.6583  140.2152  159.8100 F   0  0  0  0  0  0  0  0  0  0  0  0
  153.0291  142.1755  160.5392 C   0  0  0  0  0  0  0  0  0  0  0  0
  151.9896  142.9830  159.9329 C   0  0  0  0  0  0  0  0  0  0  0  0
  151.4841  144.2601  160.5402 C   0  0  0  0  0  0  0  0  0  0  0  0
  150.3181  145.0155  159.9469 C   0  0  0  0  0  0  0  0  0  0  0  0
  151.7084  145.6044  159.8865 C   0  0  0  0  0  0  0  0  0  0  0  0
  151.4594  142.6032  158.8192 N   0  0  0  0  0  0  0  0  0  0  0  0
  151.8752  141.4439  158.1937 N   0  0  0  0  0  0  0  0  0  0  0  0
  151.1573  141.1481  156.9462 C   0  0  0  0  0  0  0  0  0  0  0  0
  149.6337  141.3787  157.0617 C   0  0  2  0  0  0  0  0  0  0  0  0
  149.1428  140.4940  158.0492 O   0  0  0  0  0  0  0  0  0  0  0  0
  148.8762  141.1235  155.7394 C   0  0  0  0  0  0  0  0  0  0  0  0
  147.7463  142.0651  155.5364 N   0  3  0  0  0  0  0  0  0  0  0  0
  147.1541  141.9931  154.1769 C   0  0  0  0  0  0  0  0  0  0  0  0
  146.0186  143.0202  154.0305 C   0  0  0  0  0  0  0  0  0  0  0  0
  145.0368  142.7922  155.0336 O   0  0  0  0  0  0  0  0  0  0  0  0
  145.5697  142.9428  156.3435 C   0  0  0  0  0  0  0  0  0  0  0  0
  146.6910  141.9136  156.5661 C   0  0  0  0  0  0  0  0  0  0  0  0
  153.4458  142.4959  161.4824 H   0  0  0  0  0  0  0  0  0  0  0  0
  151.5498  144.2230  161.6260 H   0  0  0  0  0  0  0  0  0  0  0  0
  149.8904  144.6475  159.0158 H   0  0  0  0  0  0  0  0  0  0  0  0
  149.6100  145.4676  160.6382 H   0  0  0  0  0  0  0  0  0  0  0  0
  151.9250  146.4493  160.5371 H   0  0  0  0  0  0  0  0  0  0  0  0
  152.1934  145.6311  158.9123 H   0  0  0  0  0  0  0  0  0  0  0  0
  151.5563  141.7551  156.1306 H   0  0  0  0  0  0  0  0  0  0  0  0
  151.3567  140.1142  156.6573 H   0  0  0  0  0  0  0  0  0  0  0  0
  149.4573  142.3927  157.4171 H   0  0  0  0  0  0  0  0  0  0  0  0
  148.2223  140.3442  157.8983 H   0  0  0  0  0  0  0  0  0  0  0  0
  149.5434  141.2037  154.8805 H   0  0  0  0  0  0  0  0  0  0  0  0
  148.5121  140.0946  155.7397 H   0  0  0  0  0  0  0  0  0  0  0  0
  147.9108  142.1820  153.4162 H   0  0  0  0  0  0  0  0  0  0  0  0
  146.7680  140.9885  153.9972 H   0  0  0  0  0  0  0  0  0  0  0  0
  146.4022  144.0392  154.1031 H   0  0  0  0  0  0  0  0  0  0  0  0
  145.5504  142.9253  153.0506 H   0  0  0  0  0  0  0  0  0  0  0  0
  145.9397  143.9596  156.4849 H   0  0  0  0  0  0  0  0  0  0  0  0
  144.7706  142.7907  157.0694 H   0  0  0  0  0  0  0  0  0  0  0  0
  146.2836  140.9019  156.5277 H   0  0  0  0  0  0  0  0  0  0  0  0
  147.1204  142.0501  157.5593 H   0  0  0  0  0  0  0  0  0  0  0  0
  148.1203  142.9960  155.6519 H   0  0  0  0  0  0  0  0  0  0  0  0
  1  2  2  0  0  0  0
  2 14  1  0  0  0  0
  2  3  1  0  0  0  0
  3  4  1  0  0  0  0
  3  8  2  0  0  0  0
  4  5  1  0  0  0  0
  4  6  1  0  0  0  0
  4  7  1  0  0  0  0
  8  9  1  0  0  0  0
  8 25  1  0  0  0  0
  9 10  1  0  0  0  0
  9 13  2  0  0  0  0
 10 12  1  0  0  0  0
 10 11  1  0  0  0  0
 10 26  1  0  0  0  0
 11 12  1  0  0  0  0
 11 27  1  0  0  0  0
 11 28  1  0  0  0  0
 12 29  1  0  0  0  0
 12 30  1  0  0  0  0
 13 14  1  0  0  0  0
 14 15  1  0  0  0  0
 15 16  1  0  0  0  0
 15 31  1  0  0  0  0
 15 32  1  0  0  0  0
 16 17  1  0  0  0  0
 16 18  1  0  0  0  0
 16 33  1  0  0  0  0
 17 34  1  0  0  0  0
 18 19  1  0  0  0  0
 18 35  1  0  0  0  0
 18 36  1  0  0  0  0
 19 24  1  0  0  0  0
 19 20  1  0  0  0  0
 19 45  1  0  0  0  0
 20 21  1  0  0  0  0
 20 37  1  0  0  0  0
 20 38  1  0  0  0  0
 21 22  1  0  0  0  0
 21 39  1  0  0  0  0
 21 40  1  0  0  0  0
 22 23  1  0  0  0  0
 23 24  1  0  0  0  0
 23 41  1  0  0  0  0
 23 42  1  0  0  0  0
 24 43  1  0  0  0  0
 24 44  1  0  0  0  0
M  CHG  1  19   1
M  END
> <s_m_source_file>
AV-unprocessed.smi

> <i_m_source_file_index>
1603

> <i_lp_mmshare_version>
43012

> <i_f3d_flags>
0

> <s_epik_input>
Tz1jMWMoQyhGKShGKUYpW2NIXWMoW0NIXTJbQ0gyXVtDSDJdMilubjFbQ0gyXVtDQEhdKFtPSF0pW0NIMl1OM1tDSDJdW0NIMl1PW0NIMl1bQ0gyXTM=

> <s_epik_cmdline>
J2VwaWtfcHl0aG9uJywgJy1waCcsICc3LjAnLCAnLXRuJywgJzgnLCAnLW1hJywgJzIwMCcsICctbWV0YWxfYmluZGluZycsICctaW1hZScsICc8aW5maWxlLm1hZT4nLCAnLW9tYWUnLCAnPG91dGZpbGUubWFlPic=

> <r_lp_tautomer_probability>
1

> <r_epik_Ionization_Penalty>
0.373533

> <r_epik_Ionization_Penalty_Charging>
0.373533

> <r_epik_Ionization_Penalty_Neutral>
6.58334e-07

> <r_epik_State_Penalty>
0.37113

> <r_epik_Charging_Adjusted_Penalty>
0.744662

> <i_epik_Tot_Q>
1

> <i_epik_Tot_abs_Q>
1

> <r_epik_Metal_State_Penalty>
0.37113

> <b_epik_Metal_Only>
0

> <s_lp_Force_Field>
OPLS_2005

> <r_lp_Energy>
41.4102

> <b_lp_Chiralities_Consistent>
1

> <s_lp_Variant>
AV-unprocessed.smi:1603-1

> <Gold.Version>
5.8.1

> <Gold.Id.Protein>
6NUR|6NUR_protein|mol2

> <Gold.PLP.Fitness>
58.5478

> <Gold.PLP.PLP>
-51.1678

> <Gold.PLP.part.hbond>
-2.0000

> <Gold.PLP.part.metal>
0.0000

> <Gold.PLP.part.buried>
-7.6005

> <Gold.PLP.part.nonpolar>
-42.2361

> <Gold.PLP.part.repulsive>
0.2977

> <Gold.PLP.ligand.clash>
0.1803

> <Gold.PLP.ligand.torsion>
1.0636

> <Gold.PLP.Chemscore.Hbond>
3.0000

> <Gold.PLP.Chemscore.CHOScore>
0.0000

> <Gold.PLP.Chemscore.Metal>
0.0000

> <Gold.Chemscore.Hbonds>
donor molecule, donor type, donor heavy atom, donor atom, acceptor molecule, acceptor atom, score
      L1  H    19    45       P1  8028  2.00
      P1  H  7997  8010       L1     1  1.00

> <Gold.PLP.Chemscore.Internal.Correction>
0.6874

> <Gold.Rescore>
     Score         DG    S(hbond)    S(metal)    S(lipo)     H(rot)  DE(clash)    DE(int)     intcor
     15.37     -18.16       1.96        0.00     107.40       2.52       0.11       2.68       ----

> <Gold.Chemscore.Fitness>
15.3670

> <Gold.Chemscore.DG>
-18.1590

> <Gold.Chemscore.ZeroCoef>
-5.4800

> <Gold.Chemscore.Hbond>
1.9624

> <Gold.Chemscore.Metal>
0.0000

> <Gold.Chemscore.Lipo>
107.4001

> <Gold.Chemscore.Internal_Hbond>
0.0000

> <Gold.Chemscore.DEClash>
0.1090

> <Gold.Chemscore.DEInternal>
2.6830

> <Gold.Chemscore.Rot>
2.5160

> <Gold.Chemscore.Internal.Correction>
   9.000000E+99

> <Gold.Chemscore.Hbonds>
donor molecule, donor type, donor heavy atom, donor atom, acceptor molecule, acceptor atom, score
      L1  H    19    45       P1  8028  0.88
      P1  H  7997  8010       L1     1  0.65

> <Gold.Chemscore.Hbond.Weighted>
-6.5543

> <Gold.Chemscore.Metal.Weighted>
-0.0000

> <Gold.Chemscore.Lipo.Weighted>
-12.5658

> <Gold.Chemscore.Internal_Hbond.Weighted>
0.0000

> <Gold.Chemscore.DEClash.Weighted>
0.1090

> <Gold.Chemscore.DEInternal.Weighted>
2.6830

> <Gold.Chemscore.Rot.Weighted>
6.4411

> <Gold.Chemscore.Internal.Correction.Weighted>
   9.000000E+99

> <Gold.Protein.RotatedTorsions>
[ 6907 6896 6895 6894 ] final  132.52 input  -60.11 | X-H torsion
[ 7974 7965 7964 7962 ] final -166.09 input  175.53 | X-H torsion
[ 8008 7997 7996 7995 ] final   29.34 input   59.86 | X-H torsion
[ 10167 10162 10161 10158 ] final -121.81 input  -65.29 | X-H torsion
[ 10718 10713 10712 10709 ] final  106.28 input   66.30 | X-H torsion
[ 10763 10752 10751 10750 ] final   10.55 input  -60.55 | X-H torsion
[ 11005 11000 10999 10996 ] final -118.77 input  -57.11 | X-H torsion

> <Gold.Protein.ActiveResidues>
 VAL166  LYS551  ARG553  GLY616  TRP617  ASP618  TYR619  PRO620  LYS621  CYS622 
 ASP623  PHE694  ASN695  SER759  ASP760  ASP761  ALA762  ILE779  LEU786  VAL792 
 PHE793  MET794  SER795  GLU796  ALA797  LYS798  CYS799  TRP800  GLU811  SER814 

> <Gold.Protein.RotatedAtoms>
  152.3315  133.5964  159.5812 H   0  0  0  0  0  0  0  0  0  0  0  0  # atno 6907 bound_to 6896
  150.7426  133.9860  159.3600 H   0  0  0  0  0  0  0  0  0  0  0  0  # atno 6908 bound_to 6896
  151.7735  135.0781  160.0414 H   0  0  0  0  0  0  0  0  0  0  0  0  # atno 6909 bound_to 6896
  144.7254  140.2718  143.6249 H   0  0  0  0  0  0  0  0  0  0  0  0  # atno 7974 bound_to 7965
  155.0729  140.3202  155.4625 H   0  0  0  0  0  0  0  0  0  0  0  0  # atno 8008 bound_to 7997
  156.2786  140.2108  156.5802 H   0  0  0  0  0  0  0  0  0  0  0  0  # atno 8009 bound_to 7997
  154.7040  140.0504  157.0473 H   0  0  0  0  0  0  0  0  0  0  0  0  # atno 8010 bound_to 7997
  140.0210  143.5344  152.2220 H   0  0  0  0  0  0  0  0  0  0  0  0  # atno 10167 bound_to 10162
  157.6674  131.0847  150.5984 H   0  0  0  0  0  0  0  0  0  0  0  0  # atno 10718 bound_to 10713
  153.2020  135.6857  153.8220 H   0  0  0  0  0  0  0  0  0  0  0  0  # atno 10763 bound_to 10752
  153.7483  135.3228  155.3317 H   0  0  0  0  0  0  0  0  0  0  0  0  # atno 10764 bound_to 10752
  154.8176  135.4675  154.0790 H   0  0  0  0  0  0  0  0  0  0  0  0  # atno 10765 bound_to 10752
  141.0262  134.0050  157.3211 H   0  0  0  0  0  0  0  0  0  0  0  0  # atno 11005 bound_to 11000
  145.8035  139.1974  143.2034 LP  0  0  0  0  0  0  0  0  0  0  0  0  # atno 17320 bound_to 7965
  146.0656  140.7924  142.9713 LP  0  0  0  0  0  0  0  0  0  0  0  0  # atno 17321 bound_to 7965
  139.6140  144.7615  151.2888 LP  0  0  0  0  0  0  0  0  0  0  0  0  # atno 17342 bound_to 10162
  140.7342  143.6772  150.8032 LP  0  0  0  0  0  0  0  0  0  0  0  0  # atno 17343 bound_to 10162
  156.6284  130.4425  149.5796 LP  0  0  0  0  0  0  0  0  0  0  0  0  # atno 17370 bound_to 10713
  156.2301  130.6789  151.1455 LP  0  0  0  0  0  0  0  0  0  0  0  0  # atno 17371 bound_to 10713
  139.9177  135.0198  156.7947 LP  0  0  0  0  0  0  0  0  0  0  0  0  # atno 17394 bound_to 11000
  140.6487  133.9751  155.7744 LP  0  0  0  0  0  0  0  0  0  0  0  0  # atno 17395 bound_to 11000

$$$$
