AV-unprocessed.smi:196|AV-procd|sdf|1530|dock6
  -GOLD-   2262019383D 1   1.00000     0.00000
 Structure written by MMmdl.
 47 50  0  0  0  0  0  0  0  0  1 V2000
  145.5287  137.3895  161.7229 C   0  0  0  0  0  0  0  0  0  0  0  0
  145.9271  135.9194  161.5120 C   0  0  2  0  0  0  0  0  0  0  0  0
  145.1810  135.0727  162.3748 O   0  0  0  0  0  0  0  0  0  0  0  0
  145.8652  133.8347  162.4373 C   0  0  0  0  0  0  0  0  0  0  0  0
  147.3177  134.2657  162.5951 C   0  0  0  0  0  0  0  0  0  0  0  0
  147.4133  135.5480  161.7632 C   0  0  2  0  0  0  0  0  0  0  0  0
  148.0766  136.5303  162.5417 O   0  0  0  0  0  0  0  0  0  0  0  0
  148.2177  135.3331  160.4563 C   0  0  0  0  0  0  0  0  0  0  0  0
  148.2682  136.5110  159.6030 N   0  0  0  0  0  0  0  0  0  0  0  0
  147.1964  137.2084  159.0936 C   0  0  0  0  0  0  0  0  0  0  0  0
  147.5038  138.2450  158.3635 N   0  0  0  0  0  0  0  0  0  0  0  0
  148.8943  138.2541  158.3489 C   0  0  0  0  0  0  0  0  0  0  0  0
  149.8775  139.0989  157.7562 C   0  0  0  0  0  0  0  0  0  0  0  0
  149.5693  140.1857  156.9971 N   0  0  0  0  0  0  0  0  0  0  0  0
  148.3708  140.1374  156.1656 C   0  0  0  0  0  0  0  0  0  0  0  0
  148.7254  140.8836  154.8800 C   0  0  2  0  0  0  0  0  0  0  0  0
  149.2127  140.0218  153.9859 F   0  0  0  0  0  0  0  0  0  0  0  0
  149.8300  141.8365  155.3227 C   0  0  0  0  0  0  0  0  0  0  0  0
  150.5998  141.0386  156.3878 C   0  0  1  0  0  0  0  0  0  0  0  0
  151.3270  141.9848  157.3642 C   0  0  0  0  0  0  0  0  0  0  0  0
  151.1646  143.3050  157.2266 N   0  0  0  0  0  0  0  0  0  0  0  0
  152.0379  141.5140  158.2495 O   0  0  0  0  0  0  0  0  0  0  0  0
  151.1811  138.7912  157.9889 N   0  0  0  0  0  0  0  0  0  0  0  0
  151.5067  137.7302  158.7324 C   0  0  0  0  0  0  0  0  0  0  0  0
  150.7002  136.8579  159.3383 N   0  0  0  0  0  0  0  0  0  0  0  0
  149.3894  137.1657  159.1229 C   0  0  0  0  0  0  0  0  0  0  0  0
  147.8729  141.3862  154.4225 H   0  0  0  0  0  0  0  0  0  0  0  0
  151.3386  140.4108  155.8863 H   0  0  0  0  0  0  0  0  0  0  0  0
  146.1062  138.0504  161.0763 H   0  0  0  0  0  0  0  0  0  0  0  0
  145.6863  137.7039  162.7549 H   0  0  0  0  0  0  0  0  0  0  0  0
  144.4740  137.5405  161.4925 H   0  0  0  0  0  0  0  0  0  0  0  0
  145.6492  135.6286  160.4981 H   0  0  0  0  0  0  0  0  0  0  0  0
  145.5146  133.2198  163.2664 H   0  0  0  0  0  0  0  0  0  0  0  0
  145.7174  133.2821  161.5081 H   0  0  0  0  0  0  0  0  0  0  0  0
  147.5070  134.4689  163.6508 H   0  0  0  0  0  0  0  0  0  0  0  0
  148.0172  133.4892  162.2835 H   0  0  0  0  0  0  0  0  0  0  0  0
  147.7155  136.5173  163.4148 H   0  0  0  0  0  0  0  0  0  0  0  0
  149.2410  135.0321  160.6852 H   0  0  0  0  0  0  0  0  0  0  0  0
  147.7832  134.5153  159.8795 H   0  0  0  0  0  0  0  0  0  0  0  0
  146.1712  136.9300  159.2890 H   0  0  0  0  0  0  0  0  0  0  0  0
  148.0380  139.1207  155.9491 H   0  0  0  0  0  0  0  0  0  0  0  0
  147.5660  140.6508  156.6930 H   0  0  0  0  0  0  0  0  0  0  0  0
  150.4643  142.1571  154.4955 H   0  0  0  0  0  0  0  0  0  0  0  0
  149.3780  142.7294  155.7589 H   0  0  0  0  0  0  0  0  0  0  0  0
  151.6390  143.9380  157.8539 H   0  0  0  0  0  0  0  0  0  0  0  0
  150.5730  143.6639  156.4916 H   0  0  0  0  0  0  0  0  0  0  0  0
  152.5650  137.5568  158.8604 H   0  0  0  0  0  0  0  0  0  0  0  0
  1  2  1  0  0  0  0
  1 29  1  0  0  0  0
  1 30  1  0  0  0  0
  1 31  1  0  0  0  0
  2  6  1  0  0  0  0
  2  3  1  0  0  0  0
  2 32  1  0  0  0  0
  3  4  1  0  0  0  0
  4  5  1  0  0  0  0
  4 33  1  0  0  0  0
  4 34  1  0  0  0  0
  5  6  1  0  0  0  0
  5 35  1  0  0  0  0
  5 36  1  0  0  0  0
  6  7  1  0  0  0  0
  6  8  1  0  0  0  0
  7 37  1  0  0  0  0
  8  9  1  0  0  0  0
  8 38  1  0  0  0  0
  8 39  1  0  0  0  0
  9 26  1  0  0  0  0
  9 10  1  0  0  0  0
 10 11  2  0  0  0  0
 10 40  1  0  0  0  0
 11 12  1  0  0  0  0
 12 26  2  0  0  0  0
 12 13  1  0  0  0  0
 13 14  1  0  0  0  0
 13 23  2  0  0  0  0
 14 19  1  0  0  0  0
 14 15  1  0  0  0  0
 15 16  1  0  0  0  0
 15 41  1  0  0  0  0
 15 42  1  0  0  0  0
 16 27  1  0  0  0  0
 16 17  1  0  0  0  0
 16 18  1  0  0  0  0
 18 19  1  0  0  0  0
 18 43  1  0  0  0  0
 18 44  1  0  0  0  0
 19 28  1  0  0  0  0
 19 20  1  0  0  0  0
 20 21  1  0  0  0  0
 20 22  2  0  0  0  0
 21 45  1  0  0  0  0
 21 46  1  0  0  0  0
 23 24  1  0  0  0  0
 24 25  2  0  0  0  0
 24 47  1  0  0  0  0
 25 26  1  0  0  0  0
M  END
> <s_m_source_file>
AV-unprocessed.smi

> <i_m_source_file_index>
196

> <i_lp_mmshare_version>
43012

> <i_f3d_flags>
0

> <s_epik_input>
W0NIMl0xW0NIMl1PW0NAQEhdKFtDSDNdKVtDQEBdMShbT0hdKVtDSDJdbihbY0hdbjIpYyhjMjMpbltjSF1uYzNONFtDSDJdW0NASF0oRilbQ0gyXVtDQEhdNEMoPU8pW05IMl0=

> <s_epik_cmdline>
J2VwaWtfcHl0aG9uJywgJy1waCcsICc3LjAnLCAnLXRuJywgJzgnLCAnLW1hJywgJzIwMCcsICctbWV0YWxfYmluZGluZycsICctaW1hZScsICc8aW5maWxlLm1hZT4nLCAnLW9tYWUnLCAnPG91dGZpbGUubWFlPic=

> <r_lp_tautomer_probability>
1

> <r_epik_Ionization_Penalty>
0.000857933

> <r_epik_Ionization_Penalty_Charging>
0

> <r_epik_Ionization_Penalty_Neutral>
0.000857933

> <r_epik_State_Penalty>
0.000462053

> <r_epik_Charging_Adjusted_Penalty>
0.000462053

> <i_epik_Tot_Q>
0

> <i_epik_Tot_abs_Q>
0

> <r_epik_Metal_State_Penalty>
-0

> <b_epik_Metal_Only>
0

> <s_lp_Force_Field>
OPLS_2005

> <r_lp_Energy>
46.3924

> <b_lp_Chiralities_Consistent>
1

> <s_lp_Variant>
AV-unprocessed.smi:196-3

> <Gold.Version>
5.8.1

> <Gold.Id.Protein>
6NUR|6NUR_protein|mol2

> <Gold.PLP.Fitness>
47.8653

> <Gold.PLP.PLP>
-39.1442

> <Gold.PLP.part.hbond>
-3.4164

> <Gold.PLP.part.metal>
0.0000

> <Gold.PLP.part.buried>
-4.0799

> <Gold.PLP.part.nonpolar>
-31.5641

> <Gold.PLP.part.repulsive>
0.0127

> <Gold.PLP.ligand.clash>
0.0013

> <Gold.PLP.ligand.torsion>
0.2869

> <Gold.PLP.Chemscore.Hbond>
3.0000

> <Gold.PLP.Chemscore.CHOScore>
0.0000

> <Gold.PLP.Chemscore.Metal>
0.0000

> <Gold.Chemscore.Hbonds>
donor molecule, donor type, donor heavy atom, donor atom, acceptor molecule, acceptor atom, score
      L1  H    21    46       P1  8028  0.71
      P1  H  6896  6908       L1    25  1.00
      P1  H  6931  6943       L1     7  0.94

> <Gold.PLP.Chemscore.Internal.Correction>
0.2963

> <Gold.Rescore>
     Score         DG    S(hbond)    S(metal)    S(lipo)     H(rot)  DE(clash)    DE(int)     intcor
     14.69     -16.36       2.82        0.00      69.28       2.60       1.12       0.54       ----

> <Gold.Chemscore.Fitness>
14.6942

> <Gold.Chemscore.DG>
-16.3563

> <Gold.Chemscore.ZeroCoef>
-5.4800

> <Gold.Chemscore.Hbond>
2.8198

> <Gold.Chemscore.Metal>
0.0000

> <Gold.Chemscore.Lipo>
69.2821

> <Gold.Chemscore.Internal_Hbond>
0.0000

> <Gold.Chemscore.DEClash>
1.1183

> <Gold.Chemscore.DEInternal>
0.5439

> <Gold.Chemscore.Rot>
2.5968

> <Gold.Chemscore.Internal.Correction>
   9.000000E+99

> <Gold.Chemscore.Hbonds>
donor molecule, donor type, donor heavy atom, donor atom, acceptor molecule, acceptor atom, score
      L1  H    21    46       P1  8028  0.70
      P1  H  6896  6908       L1    25  0.84
      P1  H  6931  6943       L1     7  0.84

> <Gold.Chemscore.Hbond.Weighted>
-9.4181

> <Gold.Chemscore.Metal.Weighted>
-0.0000

> <Gold.Chemscore.Lipo.Weighted>
-8.1060

> <Gold.Chemscore.Internal_Hbond.Weighted>
0.0000

> <Gold.Chemscore.DEClash.Weighted>
1.1183

> <Gold.Chemscore.DEInternal.Weighted>
0.5439

> <Gold.Chemscore.Rot.Weighted>
6.6477

> <Gold.Chemscore.Internal.Correction.Weighted>
   9.000000E+99

> <Gold.Protein.RotatedTorsions>
[ 6907 6896 6895 6894 ] final -159.05 input  -60.11 | X-H torsion
[ 7974 7965 7964 7962 ] final -168.80 input  175.53 | X-H torsion
[ 8008 7997 7996 7995 ] final  -28.26 input   59.86 | X-H torsion
[ 10167 10162 10161 10158 ] final -109.12 input  -65.29 | X-H torsion
[ 10718 10713 10712 10709 ] final  121.24 input   66.30 | X-H torsion
[ 10763 10752 10751 10750 ] final  -48.76 input  -60.55 | X-H torsion
[ 11005 11000 10999 10996 ] final  150.45 input  -57.11 | X-H torsion

> <Gold.Protein.ActiveResidues>
 VAL166  LYS551  ARG553  GLY616  TRP617  ASP618  TYR619  PRO620  LYS621  CYS622 
 ASP623  PHE694  ASN695  SER759  ASP760  ASP761  ALA762  ILE779  LEU786  VAL792 
 PHE793  MET794  SER795  GLU796  ALA797  LYS798  CYS799  TRP800  GLU811  SER814 

> <Gold.Protein.RotatedAtoms>
  151.3275  133.4014  159.2659 H   0  0  0  0  0  0  0  0  0  0  0  0  # atno 6907 bound_to 6896
  150.9983  134.9302  159.7949 H   0  0  0  0  0  0  0  0  0  0  0  0  # atno 6908 bound_to 6896
  152.5267  134.3240  159.9211 H   0  0  0  0  0  0  0  0  0  0  0  0  # atno 6909 bound_to 6896
  144.7196  140.2317  143.6303 H   0  0  0  0  0  0  0  0  0  0  0  0  # atno 7974 bound_to 7965
  154.4340  140.1850  156.1061 H   0  0  0  0  0  0  0  0  0  0  0  0  # atno 8008 bound_to 7997
  156.0254  140.3336  155.7057 H   0  0  0  0  0  0  0  0  0  0  0  0  # atno 8009 bound_to 7997
  155.5916  140.0631  157.2748 H   0  0  0  0  0  0  0  0  0  0  0  0  # atno 8010 bound_to 7997
  140.1588  143.4137  152.1441 H   0  0  0  0  0  0  0  0  0  0  0  0  # atno 10167 bound_to 10162
  157.5832  131.1072  150.8145 H   0  0  0  0  0  0  0  0  0  0  0  0  # atno 10718 bound_to 10713
  154.0831  135.6588  153.4841 H   0  0  0  0  0  0  0  0  0  0  0  0  # atno 10763 bound_to 10752
  153.0349  135.5184  154.7455 H   0  0  0  0  0  0  0  0  0  0  0  0  # atno 10764 bound_to 10752
  154.6555  135.3007  154.9901 H   0  0  0  0  0  0  0  0  0  0  0  0  # atno 10765 bound_to 10752
  140.1132  134.8911  157.1967 H   0  0  0  0  0  0  0  0  0  0  0  0  # atno 11005 bound_to 11000
  145.8404  139.2127  143.1830 LP  0  0  0  0  0  0  0  0  0  0  0  0  # atno 17320 bound_to 7965
  146.0351  140.8220  142.9856 LP  0  0  0  0  0  0  0  0  0  0  0  0  # atno 17321 bound_to 7965
  139.5391  144.7239  151.4794 LP  0  0  0  0  0  0  0  0  0  0  0  0  # atno 17342 bound_to 10162
  140.6656  143.8405  150.6938 LP  0  0  0  0  0  0  0  0  0  0  0  0  # atno 17343 bound_to 10162
  156.8586  130.5105  149.5305 LP  0  0  0  0  0  0  0  0  0  0  0  0  # atno 17370 bound_to 10713
  156.0880  130.5873  150.9682 LP  0  0  0  0  0  0  0  0  0  0  0  0  # atno 17371 bound_to 10713
  140.3063  134.3075  155.7277 LP  0  0  0  0  0  0  0  0  0  0  0  0  # atno 17394 bound_to 11000
  141.2135  133.7622  156.9712 LP  0  0  0  0  0  0  0  0  0  0  0  0  # atno 17395 bound_to 11000

$$$$
