AV-unprocessed.smi:1669|AV-procd|sdf|6686|dock7
  -GOLD-   22720 7413D 1   1.00000     0.00000
 Structure written by MMmdl.
 48 50  0  0  0  0  0  0  0  0  2 V2000
  145.7955  137.1766  150.0937 C   0  0  0  0  0  0  0  0  0  0  0  0
  146.3176  137.5123  151.4393 N   0  3  2  0  0  0  0  0  0  0  0  0
  145.6831  136.7097  152.5166 C   0  0  0  0  0  0  0  0  0  0  0  0
  145.5212  135.2543  152.1169 C   0  0  0  0  0  0  0  0  0  0  0  0
  144.3855  134.8491  151.3840 C   0  0  0  0  0  0  0  0  0  0  0  0
  144.2291  133.5004  151.0097 C   0  0  0  0  0  0  0  0  0  0  0  0
  145.2081  132.5524  151.3655 C   0  0  0  0  0  0  0  0  0  0  0  0
  146.3440  132.9534  152.0953 C   0  0  0  0  0  0  0  0  0  0  0  0
  146.5013  134.3021  152.4697 C   0  0  0  0  0  0  0  0  0  0  0  0
  146.2793  138.9731  151.7036 C   0  0  0  0  0  0  0  0  0  0  0  0
  146.9805  139.3448  153.0250 C   0  0  1  0  0  0  0  0  0  0  0  0
  148.2362  138.6952  153.0682 O   0  0  0  0  0  0  0  0  0  0  0  0
  147.1831  140.8670  153.1547 C   0  0  0  0  0  0  0  0  0  0  0  0
  147.4919  141.2745  154.5193 N   0  0  0  0  0  0  0  0  0  0  0  0
  146.6944  141.9086  155.4168 C   0  0  0  0  0  0  0  0  0  0  0  0
  145.2834  142.3010  155.1008 C   0  0  0  0  0  0  0  0  0  0  0  0
  144.4272  141.1873  154.9650 O   0  0  0  0  0  0  0  0  0  0  0  0
  147.2461  142.1618  156.6039 N   0  0  0  0  0  0  0  0  0  0  0  0
  148.5172  141.6389  156.4681 C   0  0  0  0  0  0  0  0  0  0  0  0
  149.5945  141.5919  157.3814 C   0  0  0  0  0  0  0  0  0  0  0  0
  150.8187  140.9973  157.0112 C   0  0  0  0  0  0  0  0  0  0  0  0
  150.9827  140.4415  155.7258 C   0  0  0  0  0  0  0  0  0  0  0  0
  149.9219  140.4774  154.8005 C   0  0  0  0  0  0  0  0  0  0  0  0
  148.7027  141.0738  155.1748 C   0  0  0  0  0  0  0  0  0  0  0  0
  144.7394  137.4362  150.0085 H   0  0  0  0  0  0  0  0  0  0  0  0
  145.9053  136.1138  149.8788 H   0  0  0  0  0  0  0  0  0  0  0  0
  146.3434  137.7179  149.3216 H   0  0  0  0  0  0  0  0  0  0  0  0
  146.2883  136.7332  153.4228 H   0  0  0  0  0  0  0  0  0  0  0  0
  144.7185  137.1419  152.7875 H   0  0  0  0  0  0  0  0  0  0  0  0
  143.6306  135.5712  151.1081 H   0  0  0  0  0  0  0  0  0  0  0  0
  143.3585  133.1923  150.4494 H   0  0  0  0  0  0  0  0  0  0  0  0
  145.0883  131.5181  151.0777 H   0  0  0  0  0  0  0  0  0  0  0  0
  147.0949  132.2259  152.3671 H   0  0  0  0  0  0  0  0  0  0  0  0
  147.3752  134.6014  153.0299 H   0  0  0  0  0  0  0  0  0  0  0  0
  146.7672  139.5146  150.8911 H   0  0  0  0  0  0  0  0  0  0  0  0
  145.2411  139.3093  151.7090 H   0  0  0  0  0  0  0  0  0  0  0  0
  146.3958  138.9972  153.8762 H   0  0  0  0  0  0  0  0  0  0  0  0
  148.1936  137.9216  152.5258 H   0  0  0  0  0  0  0  0  0  0  0  0
  147.9676  141.2089  152.4798 H   0  0  0  0  0  0  0  0  0  0  0  0
  146.2754  141.3881  152.8478 H   0  0  0  0  0  0  0  0  0  0  0  0
  144.8996  142.9374  155.8992 H   0  0  0  0  0  0  0  0  0  0  0  0
  145.2574  142.8964  154.1883 H   0  0  0  0  0  0  0  0  0  0  0  0
  144.2600  141.0464  154.0460 H   0  0  0  0  0  0  0  0  0  0  0  0
  149.4788  142.0138  158.3689 H   0  0  0  0  0  0  0  0  0  0  0  0
  151.6355  140.9666  157.7175 H   0  0  0  0  0  0  0  0  0  0  0  0
  151.9234  139.9868  155.4517 H   0  0  0  0  0  0  0  0  0  0  0  0
  150.0449  140.0516  153.8160 H   0  0  0  0  0  0  0  0  0  0  0  0
  147.2972  137.2641  151.4302 H   0  0  0  0  0  0  0  0  0  0  0  0
  1  2  1  0  0  0  0
  1 25  1  0  0  0  0
  1 26  1  0  0  0  0
  1 27  1  0  0  0  0
  2  3  1  0  0  0  0
  2 10  1  0  0  0  0
  2 48  1  0  0  0  0
  3  4  1  0  0  0  0
  3 28  1  0  0  0  0
  3 29  1  0  0  0  0
  4  9  1  0  0  0  0
  4  5  2  0  0  0  0
  5  6  1  0  0  0  0
  5 30  1  0  0  0  0
  6  7  2  0  0  0  0
  6 31  1  0  0  0  0
  7  8  1  0  0  0  0
  7 32  1  0  0  0  0
  8  9  2  0  0  0  0
  8 33  1  0  0  0  0
  9 34  1  0  0  0  0
 10 11  1  0  0  0  0
 10 35  1  0  0  0  0
 10 36  1  0  0  0  0
 11 12  1  0  0  0  0
 11 13  1  0  0  0  0
 11 37  1  0  0  0  0
 12 38  1  0  0  0  0
 13 14  1  0  0  0  0
 13 39  1  0  0  0  0
 13 40  1  0  0  0  0
 14 24  1  0  0  0  0
 14 15  1  0  0  0  0
 15 16  1  0  0  0  0
 15 18  2  0  0  0  0
 16 17  1  0  0  0  0
 16 41  1  0  0  0  0
 16 42  1  0  0  0  0
 17 43  1  0  0  0  0
 18 19  1  0  0  0  0
 19 24  2  0  0  0  0
 19 20  1  0  0  0  0
 20 21  2  0  0  0  0
 20 44  1  0  0  0  0
 21 22  1  0  0  0  0
 21 45  1  0  0  0  0
 22 23  2  0  0  0  0
 22 46  1  0  0  0  0
 23 24  1  0  0  0  0
 23 47  1  0  0  0  0
M  CHG  1   2   1
M  END
> <s_m_source_file>
AV-unprocessed.smi

> <i_m_source_file_index>
1669

> <i_lp_mmshare_version>
43012

> <i_f3d_flags>
0

> <s_epik_input>
W2NIXTFbY0hdW2NIXVtjSF1bY0hdYzFbQ0gyXU4oW0NIM10pW0NIMl1bQ0BIXShbT0hdKVtDSDJdbihjKG4yKVtDSDJdW09IXSljKGMyMylbY0hdW2NIXVtjSF1bY0hdMw==

> <s_epik_cmdline>
J2VwaWtfcHl0aG9uJywgJy1waCcsICc3LjAnLCAnLXRuJywgJzgnLCAnLW1hJywgJzIwMCcsICctbWV0YWxfYmluZGluZycsICctaW1hZScsICc8aW5maWxlLm1hZT4nLCAnLW9tYWUnLCAnPG91dGZpbGUubWFlPic=

> <r_epik_Ionization_Penalty>
0.0949884

> <r_epik_Ionization_Penalty_Charging>
0.0475377

> <r_epik_Ionization_Penalty_Neutral>
0.0474507

> <r_epik_State_Penalty>
0.078247

> <r_epik_Charging_Adjusted_Penalty>
0.125785

> <i_epik_Tot_Q>
1

> <i_epik_Tot_abs_Q>
1

> <r_epik_Metal_State_Penalty>
0.0403451

> <b_epik_Metal_Only>
0

> <s_lp_Force_Field>
OPLS_2005

> <r_lp_Energy>
16.6823

> <b_lp_Chiralities_Consistent>
1

> <s_lp_Variant>
AV-unprocessed.smi:1669-4

> <Gold.Version>
5.8.1

> <Gold.Id.Protein>
6NUR|6NUR_protein|mol2

> <Gold.PLP.Fitness>
52.8941

> <Gold.PLP.PLP>
-42.4322

> <Gold.PLP.part.hbond>
-4.5790

> <Gold.PLP.part.metal>
0.0000

> <Gold.PLP.part.buried>
5.1925

> <Gold.PLP.part.nonpolar>
-43.2189

> <Gold.PLP.part.repulsive>
0.2765

> <Gold.PLP.ligand.clash>
0.0000

> <Gold.PLP.ligand.torsion>
0.8971

> <Gold.PLP.Chemscore.Hbond>
3.9920

> <Gold.PLP.Chemscore.CHOScore>
0.0000

> <Gold.PLP.Chemscore.Metal>
0.0000

> <Gold.Chemscore.Hbonds>
donor molecule, donor type, donor heavy atom, donor atom, acceptor molecule, acceptor atom, score
      L1  H     2    48       P1  7948  2.00
      L1  H    12    38       P1  7948  1.00
      L1  H    17    43       P1 10175  1.00

> <Gold.PLP.Chemscore.Internal.Correction>
0.2802

> <Gold.Rescore>
     Score         DG    S(hbond)    S(metal)    S(lipo)     H(rot)  DE(clash)    DE(int)     intcor
     16.49     -19.12       2.94        0.00     102.01       3.17       1.51       1.12       ----

> <Gold.Chemscore.Fitness>
16.4880

> <Gold.Chemscore.DG>
-19.1205

> <Gold.Chemscore.ZeroCoef>
-5.4800

> <Gold.Chemscore.Hbond>
2.9427

> <Gold.Chemscore.Metal>
0.0000

> <Gold.Chemscore.Lipo>
102.0079

> <Gold.Chemscore.Internal_Hbond>
0.0000

> <Gold.Chemscore.DEClash>
1.5148

> <Gold.Chemscore.DEInternal>
1.1177

> <Gold.Chemscore.Rot>
3.1731

> <Gold.Chemscore.Internal.Correction>
   9.000000E+99

> <Gold.Chemscore.Hbonds>
donor molecule, donor type, donor heavy atom, donor atom, acceptor molecule, acceptor atom, score
      L1  H     2    48       P1  7948  0.98
      L1  H    12    38       P1  7948  0.94
      L1  H    17    43       P1 10175  0.78

> <Gold.Chemscore.Hbond.Weighted>
-9.8287

> <Gold.Chemscore.Metal.Weighted>
-0.0000

> <Gold.Chemscore.Lipo.Weighted>
-11.9349

> <Gold.Chemscore.Internal_Hbond.Weighted>
0.0000

> <Gold.Chemscore.DEClash.Weighted>
1.5148

> <Gold.Chemscore.DEInternal.Weighted>
1.1177

> <Gold.Chemscore.Rot.Weighted>
8.1230

> <Gold.Chemscore.Internal.Correction.Weighted>
   9.000000E+99

> <Gold.Protein.RotatedTorsions>
[ 6907 6896 6895 6894 ] final -115.24 input  -60.11 | X-H torsion
[ 7974 7965 7964 7962 ] final  162.82 input  175.53 | X-H torsion
[ 8008 7997 7996 7995 ] final  166.33 input   59.86 | X-H torsion
[ 10167 10162 10161 10158 ] final   57.61 input  -65.29 | X-H torsion
[ 10718 10713 10712 10709 ] final   83.08 input   66.30 | X-H torsion
[ 10763 10752 10751 10750 ] final -118.36 input  -60.55 | X-H torsion
[ 11005 11000 10999 10996 ] final  115.37 input  -57.11 | X-H torsion

> <Gold.Protein.ActiveResidues>
 VAL166  LYS551  ARG553  GLY616  TRP617  ASP618  TYR619  PRO620  LYS621  CYS622 
 ASP623  PHE694  ASN695  SER759  ASP760  ASP761  ALA762  ILE779  LEU786  VAL792 
 PHE793  MET794  SER795  GLU796  ALA797  LYS798  CYS799  TRP800  GLU811  SER814 

> <Gold.Protein.RotatedAtoms>
  150.7962  133.8687  159.3252 H   0  0  0  0  0  0  0  0  0  0  0  0  # atno 6907 bound_to 6896
  151.6511  135.0999  160.0170 H   0  0  0  0  0  0  0  0  0  0  0  0  # atno 6908 bound_to 6896
  152.4044  133.6828  159.6379 H   0  0  0  0  0  0  0  0  0  0  0  0  # atno 6909 bound_to 6896
  144.7618  139.8094  143.6329 H   0  0  0  0  0  0  0  0  0  0  0  0  # atno 7974 bound_to 7965
  156.1727  140.1646  156.8419 H   0  0  0  0  0  0  0  0  0  0  0  0  # atno 8008 bound_to 7997
  154.5274  140.0764  156.8317 H   0  0  0  0  0  0  0  0  0  0  0  0  # atno 8009 bound_to 7997
  155.3479  140.3388  155.4241 H   0  0  0  0  0  0  0  0  0  0  0  0  # atno 8010 bound_to 7997
  140.1962  144.4035  150.6549 H   0  0  0  0  0  0  0  0  0  0  0  0  # atno 10167 bound_to 10162
  157.6871  131.0076  150.2471 H   0  0  0  0  0  0  0  0  0  0  0  0  # atno 10718 bound_to 10713
  154.8585  135.4276  154.2127 H   0  0  0  0  0  0  0  0  0  0  0  0  # atno 10763 bound_to 10752
  153.3149  135.6978  153.7088 H   0  0  0  0  0  0  0  0  0  0  0  0  # atno 10764 bound_to 10752
  153.6166  135.3509  155.2971 H   0  0  0  0  0  0  0  0  0  0  0  0  # atno 10765 bound_to 10752
  139.9008  134.9583  156.7035 H   0  0  0  0  0  0  0  0  0  0  0  0  # atno 11005 bound_to 11000
  146.1689  139.4832  142.9940 LP  0  0  0  0  0  0  0  0  0  0  0  0  # atno 17320 bound_to 7965
  145.6594  141.0244  143.1717 LP  0  0  0  0  0  0  0  0  0  0  0  0  # atno 17321 bound_to 7965
  140.6422  143.2206  151.6265 LP  0  0  0  0  0  0  0  0  0  0  0  0  # atno 17342 bound_to 10162
  139.5236  144.3129  152.0977 LP  0  0  0  0  0  0  0  0  0  0  0  0  # atno 17343 bound_to 10162
  156.3074  130.3767  149.7693 LP  0  0  0  0  0  0  0  0  0  0  0  0  # atno 17370 bound_to 10713
  156.5304  130.8255  151.3235 LP  0  0  0  0  0  0  0  0  0  0  0  0  # atno 17371 bound_to 10713
  140.7131  133.9206  155.8097 LP  0  0  0  0  0  0  0  0  0  0  0  0  # atno 17394 bound_to 11000
  141.0285  134.0790  157.4041 LP  0  0  0  0  0  0  0  0  0  0  0  0  # atno 17395 bound_to 11000

$$$$
