AV-unprocessed.smi:273|AV-procd|sdf|2055|dock10
  -GOLD-   2262021293D 1   1.00000     0.00000
 Structure written by MMmdl.
 59 62  0  0  0  0  0  0  0  0  1 V2000
  151.7288  144.3338  159.7447 C   0  0  0  0  0  0  0  0  0  0  0  0
  151.8500  144.5691  158.2333 C   0  0  0  0  0  0  0  0  0  0  0  0
  150.9438  143.7065  157.4851 N   0  0  0  0  0  0  0  0  0  0  0  0
  150.9186  142.3665  157.5545 C   0  0  0  0  0  0  0  0  0  0  0  0
  151.6841  141.7129  158.2638 O   0  0  0  0  0  0  0  0  0  0  0  0
  149.8627  141.6586  156.6958 C   0  0  0  0  0  0  0  0  0  0  0  0
  148.9013  140.8249  157.5687 C   0  0  0  0  0  0  0  0  0  0  0  0
  147.8695  140.0866  156.7006 C   0  0  0  0  0  0  0  0  0  0  0  0
  148.5337  139.2837  155.6786 N   0  0  0  0  0  0  0  0  0  0  0  0
  147.6913  138.4326  155.0551 C   0  0  0  0  0  0  0  0  0  0  0  0
  146.6146  138.9763  154.4365 N   0  0  0  0  0  0  0  0  0  0  0  0
  145.7487  138.1915  153.7881 C   0  0  0  0  0  0  0  0  0  0  0  0
  145.7773  136.8660  153.6323 N   0  0  0  0  0  0  0  0  0  0  0  0
  146.8674  136.3186  154.2430 C   0  0  0  0  0  0  0  0  0  0  0  0
  147.8677  137.0219  154.9719 C   0  0  0  0  0  0  0  0  0  0  0  0
  148.8261  136.1302  155.4393 N   0  0  0  0  0  0  0  0  0  0  0  0
  148.4108  134.9660  155.0209 C   0  0  0  0  0  0  0  0  0  0  0  0
  147.2408  134.9870  154.2965 N   0  0  0  0  0  0  0  0  0  0  0  0
  146.5678  133.8414  153.7079 C   0  0  0  0  0  0  0  0  0  0  0  0
  147.4602  133.0435  152.7240 C   0  0  1  0  0  0  0  0  0  0  0  0
  148.2905  131.9701  153.4733 C   0  0  0  0  0  0  0  0  0  0  0  0
  149.0049  131.1405  152.5817 O   0  0  0  0  0  0  0  0  0  0  0  0
  146.5951  132.4328  151.5868 C   0  0  2  0  0  0  0  0  0  0  0  0
  145.6901  133.4055  150.8492 C   0  0  0  0  0  0  0  0  0  0  0  0
  144.6874  132.4754  150.1769 C   0  0  0  0  0  0  0  0  0  0  0  0
  144.5351  131.3745  151.0639 O   0  0  0  0  0  0  0  0  0  0  0  0
  145.5579  131.4035  152.0541 C   0  0  0  0  0  0  0  0  0  0  0  0
  149.4497  140.0177  154.8087 C   0  0  0  0  0  0  0  0  0  0  0  0
  150.5194  140.7441  155.6404 C   0  0  0  0  0  0  0  0  0  0  0  0
  152.3822  145.0108  160.2952 H   0  0  0  0  0  0  0  0  0  0  0  0
  152.0085  143.3141  160.0120 H   0  0  0  0  0  0  0  0  0  0  0  0
  150.7084  144.5030  160.0897 H   0  0  0  0  0  0  0  0  0  0  0  0
  151.6022  145.6051  158.0014 H   0  0  0  0  0  0  0  0  0  0  0  0
  152.8792  144.4150  157.9049 H   0  0  0  0  0  0  0  0  0  0  0  0
  150.2789  144.1622  156.8770 H   0  0  0  0  0  0  0  0  0  0  0  0
  149.2769  142.4167  156.1721 H   0  0  0  0  0  0  0  0  0  0  0  0
  149.4611  140.0948  158.1557 H   0  0  0  0  0  0  0  0  0  0  0  0
  148.3849  141.4665  158.2840 H   0  0  0  0  0  0  0  0  0  0  0  0
  147.2470  139.4497  157.3309 H   0  0  0  0  0  0  0  0  0  0  0  0
  147.2055  140.8051  156.2175 H   0  0  0  0  0  0  0  0  0  0  0  0
  144.9146  138.6991  153.3266 H   0  0  0  0  0  0  0  0  0  0  0  0
  148.9499  134.0533  155.2297 H   0  0  0  0  0  0  0  0  0  0  0  0
  146.2137  133.1903  154.5080 H   0  0  0  0  0  0  0  0  0  0  0  0
  145.6782  134.2211  153.2060 H   0  0  0  0  0  0  0  0  0  0  0  0
  148.1572  133.7538  152.2762 H   0  0  0  0  0  0  0  0  0  0  0  0
  149.0366  132.4223  154.1250 H   0  0  0  0  0  0  0  0  0  0  0  0
  147.6499  131.3591  154.1099 H   0  0  0  0  0  0  0  0  0  0  0  0
  148.7876  131.3934  151.6973 H   0  0  0  0  0  0  0  0  0  0  0  0
  147.2489  131.9542  150.8555 H   0  0  0  0  0  0  0  0  0  0  0  0
  145.1775  134.0604  151.5555 H   0  0  0  0  0  0  0  0  0  0  0  0
  146.2203  134.0264  150.1270 H   0  0  0  0  0  0  0  0  0  0  0  0
  143.7334  132.9635  149.9773 H   0  0  0  0  0  0  0  0  0  0  0  0
  145.0858  132.1068  149.2308 H   0  0  0  0  0  0  0  0  0  0  0  0
  145.9873  130.4108  152.1919 H   0  0  0  0  0  0  0  0  0  0  0  0
  145.1074  131.7097  152.9993 H   0  0  0  0  0  0  0  0  0  0  0  0
  149.9251  139.3303  154.1077 H   0  0  0  0  0  0  0  0  0  0  0  0
  148.8976  140.7493  154.2188 H   0  0  0  0  0  0  0  0  0  0  0  0
  151.1615  141.3280  154.9799 H   0  0  0  0  0  0  0  0  0  0  0  0
  151.1612  140.0059  156.1244 H   0  0  0  0  0  0  0  0  0  0  0  0
  1  2  1  0  0  0  0
  1 30  1  0  0  0  0
  1 31  1  0  0  0  0
  1 32  1  0  0  0  0
  2  3  1  0  0  0  0
  2 33  1  0  0  0  0
  2 34  1  0  0  0  0
  3  4  1  0  0  0  0
  3 35  1  0  0  0  0
  4  5  2  0  0  0  0
  4  6  1  0  0  0  0
  6 29  1  0  0  0  0
  6  7  1  0  0  0  0
  6 36  1  0  0  0  0
  7  8  1  0  0  0  0
  7 37  1  0  0  0  0
  7 38  1  0  0  0  0
  8  9  1  0  0  0  0
  8 39  1  0  0  0  0
  8 40  1  0  0  0  0
  9 10  1  0  0  0  0
  9 28  1  0  0  0  0
 10 15  1  0  0  0  0
 10 11  2  0  0  0  0
 11 12  1  0  0  0  0
 12 13  2  0  0  0  0
 12 41  1  0  0  0  0
 13 14  1  0  0  0  0
 14 18  1  0  0  0  0
 14 15  2  0  0  0  0
 15 16  1  0  0  0  0
 16 17  2  0  0  0  0
 17 18  1  0  0  0  0
 17 42  1  0  0  0  0
 18 19  1  0  0  0  0
 19 20  1  0  0  0  0
 19 43  1  0  0  0  0
 19 44  1  0  0  0  0
 20 21  1  0  0  0  0
 20 23  1  0  0  0  0
 20 45  1  0  0  0  0
 21 22  1  0  0  0  0
 21 46  1  0  0  0  0
 21 47  1  0  0  0  0
 22 48  1  0  0  0  0
 23 27  1  0  0  0  0
 23 24  1  0  0  0  0
 23 49  1  0  0  0  0
 24 25  1  0  0  0  0
 24 50  1  0  0  0  0
 24 51  1  0  0  0  0
 25 26  1  0  0  0  0
 25 52  1  0  0  0  0
 25 53  1  0  0  0  0
 26 27  1  0  0  0  0
 27 54  1  0  0  0  0
 27 55  1  0  0  0  0
 28 29  1  0  0  0  0
 28 56  1  0  0  0  0
 28 57  1  0  0  0  0
 29 58  1  0  0  0  0
 29 59  1  0  0  0  0
M  END
> <s_m_source_file>
AV-unprocessed.smi

> <i_m_source_file_index>
273

> <i_lp_mmshare_version>
43012

> <i_f3d_flags>
0

> <s_epik_input>
W0NIM11bQ0gyXVtOSF1DKD1PKVtDSF0xW0NIMl1bQ0gyXU4oW0NIMl1bQ0gyXTEpYyhuW2NIXW4yKWMoYzIzKW5bY0hdbjNbQ0gyXVtDQEhdKFtDSDJdW09IXSlbQ0BASF00W0NIMl1bQ0gyXU9bQ0gyXTQ=

> <s_epik_cmdline>
J2VwaWtfcHl0aG9uJywgJy1waCcsICc3LjAnLCAnLXRuJywgJzgnLCAnLW1hJywgJzIwMCcsICctbWV0YWxfYmluZGluZycsICctaW1hZScsICc8aW5maWxlLm1hZT4nLCAnLW9tYWUnLCAnPG91dGZpbGUubWFlPic=

> <r_lp_tautomer_probability>
1

> <r_epik_Ionization_Penalty>
0.00226556

> <r_epik_Ionization_Penalty_Charging>
0

> <r_epik_Ionization_Penalty_Neutral>
0.00226556

> <r_epik_State_Penalty>
0.00139883

> <r_epik_Charging_Adjusted_Penalty>
0.00139883

> <i_epik_Tot_Q>
0

> <i_epik_Tot_abs_Q>
0

> <r_epik_Metal_State_Penalty>
-0

> <b_epik_Metal_Only>
0

> <s_lp_Force_Field>
OPLS_2005

> <r_lp_Energy>
43.4567

> <b_lp_Chiralities_Consistent>
1

> <s_lp_Variant>
AV-unprocessed.smi:273-2

> <Gold.Version>
5.8.1

> <Gold.Id.Protein>
6NUR|6NUR_protein|mol2

> <Gold.PLP.Fitness>
48.0774

> <Gold.PLP.PLP>
-40.0108

> <Gold.PLP.part.hbond>
-2.0000

> <Gold.PLP.part.metal>
0.0000

> <Gold.PLP.part.buried>
-4.7164

> <Gold.PLP.part.nonpolar>
-34.3751

> <Gold.PLP.part.repulsive>
0.5901

> <Gold.PLP.ligand.clash>
0.0000

> <Gold.PLP.ligand.torsion>
0.7085

> <Gold.PLP.Chemscore.Hbond>
2.0000

> <Gold.PLP.Chemscore.CHOScore>
1.0000

> <Gold.PLP.Chemscore.Metal>
0.0000

> <Gold.Chemscore.Hbonds>
donor molecule, donor type, donor heavy atom, donor atom, acceptor molecule, acceptor atom, score
      L1  H     3    35       P1  8028  1.00
      L1  H    22    48       P1 10747  0.71
      L1  C    12    41       P1 10175  1.00

> <Gold.PLP.Chemscore.Internal.Correction>
0.4836

> <Gold.Rescore>
     Score         DG    S(hbond)    S(metal)    S(lipo)     H(rot)  DE(clash)    DE(int)     intcor
     12.93     -14.87       1.92        0.00      96.11       3.22       0.47       1.47       ----

> <Gold.Chemscore.Fitness>
12.9317

> <Gold.Chemscore.DG>
-14.8663

> <Gold.Chemscore.ZeroCoef>
-5.4800

> <Gold.Chemscore.Hbond>
1.9151

> <Gold.Chemscore.Metal>
0.0000

> <Gold.Chemscore.Lipo>
96.1064

> <Gold.Chemscore.Internal_Hbond>
0.0000

> <Gold.Chemscore.DEClash>
0.4688

> <Gold.Chemscore.DEInternal>
1.4658

> <Gold.Chemscore.Rot>
3.2244

> <Gold.Chemscore.Internal.Correction>
   9.000000E+99

> <Gold.Chemscore.Hbonds>
donor molecule, donor type, donor heavy atom, donor atom, acceptor molecule, acceptor atom, score
      L1  H     3    35       P1  8028  0.97
      L1  H    22    48       P1 10747  0.63

> <Gold.Chemscore.Hbond.Weighted>
-6.3964

> <Gold.Chemscore.Metal.Weighted>
-0.0000

> <Gold.Chemscore.Lipo.Weighted>
-11.2444

> <Gold.Chemscore.Internal_Hbond.Weighted>
0.0000

> <Gold.Chemscore.DEClash.Weighted>
0.4688

> <Gold.Chemscore.DEInternal.Weighted>
1.4658

> <Gold.Chemscore.Rot.Weighted>
8.2545

> <Gold.Chemscore.Internal.Correction.Weighted>
   9.000000E+99

> <Gold.Protein.RotatedTorsions>
[ 6907 6896 6895 6894 ] final -113.72 input  -60.11 | X-H torsion
[ 7974 7965 7964 7962 ] final  163.97 input  175.53 | X-H torsion
[ 8008 7997 7996 7995 ] final   47.11 input   59.86 | X-H torsion
[ 10167 10162 10161 10158 ] final   68.35 input  -65.29 | X-H torsion
[ 10718 10713 10712 10709 ] final  -64.50 input   66.30 | X-H torsion
[ 10763 10752 10751 10750 ] final  179.60 input  -60.55 | X-H torsion
[ 11005 11000 10999 10996 ] final  150.17 input  -57.11 | X-H torsion

> <Gold.Protein.ActiveResidues>
 VAL166  LYS551  ARG553  GLY616  TRP617  ASP618  TYR619  PRO620  LYS621  CYS622 
 ASP623  PHE694  ASN695  SER759  ASP760  ASP761  ALA762  ILE779  LEU786  VAL792 
 PHE793  MET794  SER795  GLU796  ALA797  LYS798  CYS799  TRP800  GLU811  SER814 

> <Gold.Protein.RotatedAtoms>
  150.7850  133.8904  159.3311 H   0  0  0  0  0  0  0  0  0  0  0  0  # atno 6907 bound_to 6896
  151.6757  135.0967  160.0216 H   0  0  0  0  0  0  0  0  0  0  0  0  # atno 6908 bound_to 6896
  152.3911  133.6641  159.6274 H   0  0  0  0  0  0  0  0  0  0  0  0  # atno 6909 bound_to 6896
  144.7566  139.8259  143.6348 H   0  0  0  0  0  0  0  0  0  0  0  0  # atno 7974 bound_to 7965
  155.3636  140.3420  155.4241 H   0  0  0  0  0  0  0  0  0  0  0  0  # atno 8008 bound_to 7997
  156.1700  140.1628  156.8498 H   0  0  0  0  0  0  0  0  0  0  0  0  # atno 8009 bound_to 7997
  154.5224  140.0764  156.8178 H   0  0  0  0  0  0  0  0  0  0  0  0  # atno 8010 bound_to 7997
  140.0796  144.5082  150.7171 H   0  0  0  0  0  0  0  0  0  0  0  0  # atno 10167 bound_to 10162
  156.0725  130.4234  150.1429 H   0  0  0  0  0  0  0  0  0  0  0  0  # atno 10718 bound_to 10713
  154.5228  135.2795  155.1248 H   0  0  0  0  0  0  0  0  0  0  0  0  # atno 10763 bound_to 10752
  154.2799  135.6287  153.5346 H   0  0  0  0  0  0  0  0  0  0  0  0  # atno 10764 bound_to 10752
  152.9940  135.5648  154.5721 H   0  0  0  0  0  0  0  0  0  0  0  0  # atno 10765 bound_to 10752
  140.1108  134.8925  157.1933 H   0  0  0  0  0  0  0  0  0  0  0  0  # atno 11005 bound_to 11000
  146.1582  139.4687  143.0005 LP  0  0  0  0  0  0  0  0  0  0  0  0  # atno 17320 bound_to 7965
  145.6760  141.0204  143.1632 LP  0  0  0  0  0  0  0  0  0  0  0  0  # atno 17321 bound_to 7965
  140.7084  143.2486  151.4655 LP  0  0  0  0  0  0  0  0  0  0  0  0  # atno 17342 bound_to 10162
  139.5787  144.1759  152.1939 LP  0  0  0  0  0  0  0  0  0  0  0  0  # atno 17343 bound_to 10162
  156.9477  130.9765  151.3504 LP  0  0  0  0  0  0  0  0  0  0  0  0  # atno 17370 bound_to 10713
  157.5804  130.8372  149.8514 LP  0  0  0  0  0  0  0  0  0  0  0  0  # atno 17371 bound_to 10713
  140.3094  134.3041  155.7270 LP  0  0  0  0  0  0  0  0  0  0  0  0  # atno 17394 bound_to 11000
  141.2129  133.7641  156.9754 LP  0  0  0  0  0  0  0  0  0  0  0  0  # atno 17395 bound_to 11000

$$$$
