AV-unprocessed.smi:937|AV-procd|sdf|4209|dock2
  -GOLD-   22720 2113D 1   1.00000     0.00000
 Structure written by MMmdl.
 45 46  0  0  0  0  0  0  0  0  1 V2000
  146.0573  129.9669  151.8803 C   0  0  0  0  0  0  0  0  0  0  0  0
  145.7416  131.4226  151.6072 C   0  0  0  0  0  0  0  0  0  0  0  0
  144.5102  131.7952  151.0289 C   0  0  0  0  0  0  0  0  0  0  0  0
  144.2668  133.1616  150.7921 C   0  0  0  0  0  0  0  0  0  0  0  0
  145.2602  134.0992  151.1405 C   0  0  0  0  0  0  0  0  0  0  0  0
  145.0465  135.5803  150.9003 C   0  0  0  0  0  0  0  0  0  0  0  0
  144.0982  136.2018  151.9379 C   0  0  0  0  0  0  0  0  0  0  0  0
  144.5387  137.5347  152.3293 N   0  0  0  0  0  0  0  0  0  0  0  0
  145.0051  137.8645  153.5455 C   0  0  0  0  0  0  0  0  0  0  0  0
  145.0951  137.0652  154.4756 O   0  0  0  0  0  0  0  0  0  0  0  0
  145.3759  139.1503  153.6796 N   0  0  0  0  0  0  0  0  0  0  0  0
  145.9202  139.8288  154.8602 C   0  0  2  0  0  0  0  0  0  0  0  0
  146.2124  141.3181  154.5762 C   0  0  0  0  0  0  0  0  0  0  0  0
  147.3963  141.5006  153.6130 C   0  0  0  0  0  0  0  0  0  0  0  0
  148.6524  140.7826  154.1304 C   0  0  0  0  0  0  0  0  0  0  0  0
  148.3899  139.2828  154.3816 C   0  0  1  0  0  0  0  0  0  0  0  0
  149.6504  138.5514  154.8877 C   0  0  0  0  0  0  0  0  0  0  0  0
  149.3966  137.2602  155.1031 F   0  0  0  0  0  0  0  0  0  0  0  0
  150.6287  138.6540  153.9881 F   0  0  0  0  0  0  0  0  0  0  0  0
  150.0729  139.1031  156.0252 F   0  0  0  0  0  0  0  0  0  0  0  0
  147.1930  139.1055  155.3449 C   0  0  0  0  0  0  0  0  0  0  0  0
  146.4590  133.6222  151.7113 C   0  0  0  0  0  0  0  0  0  0  0  0
  146.7013  132.3137  151.9414 N   0  0  0  0  0  0  0  0  0  0  0  0
  145.1421  129.3894  152.0135 H   0  0  0  0  0  0  0  0  0  0  0  0
  146.6572  129.8606  152.7848 H   0  0  0  0  0  0  0  0  0  0  0  0
  146.6138  129.5401  151.0456 H   0  0  0  0  0  0  0  0  0  0  0  0
  143.7684  131.0532  150.7717 H   0  0  0  0  0  0  0  0  0  0  0  0
  143.3350  133.4821  150.3490 H   0  0  0  0  0  0  0  0  0  0  0  0
  146.0149  136.0821  150.9225 H   0  0  0  0  0  0  0  0  0  0  0  0
  144.6487  135.7249  149.8949 H   0  0  0  0  0  0  0  0  0  0  0  0
  143.0932  136.2835  151.5229 H   0  0  0  0  0  0  0  0  0  0  0  0
  144.0199  135.5610  152.8182 H   0  0  0  0  0  0  0  0  0  0  0  0
  144.4961  138.2561  151.6244 H   0  0  0  0  0  0  0  0  0  0  0  0
  145.2518  139.7332  152.8644 H   0  0  0  0  0  0  0  0  0  0  0  0
  145.1863  139.7629  155.6650 H   0  0  0  0  0  0  0  0  0  0  0  0
  145.3284  141.8170  154.1777 H   0  0  0  0  0  0  0  0  0  0  0  0
  146.4412  141.8211  155.5165 H   0  0  0  0  0  0  0  0  0  0  0  0
  147.1334  141.1165  152.6266 H   0  0  0  0  0  0  0  0  0  0  0  0
  147.6052  142.5627  153.4822 H   0  0  0  0  0  0  0  0  0  0  0  0
  149.4607  140.9063  153.4091 H   0  0  0  0  0  0  0  0  0  0  0  0
  148.9880  141.2587  155.0524 H   0  0  0  0  0  0  0  0  0  0  0  0
  148.1209  138.8309  153.4256 H   0  0  0  0  0  0  0  0  0  0  0  0
  147.4648  139.4927  156.3278 H   0  0  0  0  0  0  0  0  0  0  0  0
  146.9793  138.0459  155.4895 H   0  0  0  0  0  0  0  0  0  0  0  0
  147.2465  134.3075  151.9886 H   0  0  0  0  0  0  0  0  0  0  0  0
  1  2  1  0  0  0  0
  1 24  1  0  0  0  0
  1 25  1  0  0  0  0
  1 26  1  0  0  0  0
  2 23  1  0  0  0  0
  2  3  2  0  0  0  0
  3  4  1  0  0  0  0
  3 27  1  0  0  0  0
  4  5  2  0  0  0  0
  4 28  1  0  0  0  0
  5  6  1  0  0  0  0
  5 22  1  0  0  0  0
  6  7  1  0  0  0  0
  6 29  1  0  0  0  0
  6 30  1  0  0  0  0
  7  8  1  0  0  0  0
  7 31  1  0  0  0  0
  7 32  1  0  0  0  0
  8  9  1  0  0  0  0
  8 33  1  0  0  0  0
  9 10  2  0  0  0  0
  9 11  1  0  0  0  0
 11 12  1  0  0  0  0
 11 34  1  0  0  0  0
 12 21  1  0  0  0  0
 12 13  1  0  0  0  0
 12 35  1  0  0  0  0
 13 14  1  0  0  0  0
 13 36  1  0  0  0  0
 13 37  1  0  0  0  0
 14 15  1  0  0  0  0
 14 38  1  0  0  0  0
 14 39  1  0  0  0  0
 15 16  1  0  0  0  0
 15 40  1  0  0  0  0
 15 41  1  0  0  0  0
 16 17  1  0  0  0  0
 16 21  1  0  0  0  0
 16 42  1  0  0  0  0
 17 18  1  0  0  0  0
 17 19  1  0  0  0  0
 17 20  1  0  0  0  0
 21 43  1  0  0  0  0
 21 44  1  0  0  0  0
 22 23  2  0  0  0  0
 22 45  1  0  0  0  0
M  END
> <s_m_source_file>
AV-unprocessed.smi

> <i_m_source_file_index>
937

> <i_lp_mmshare_version>
43012

> <i_f3d_flags>
0

> <s_epik_input>
W0NIM11jMVtjSF1bY0hdYyhbY0hdbjEpW0NIMl1bQ0gyXVtOSF1DKD1PKVtOSF1bQ0BASF0yW0NIMl1bQ0gyXVtDSDJdW0NAQEhdKEMoRikoRilGKVtDSDJdMg==

> <s_epik_cmdline>
J2VwaWtfcHl0aG9uJywgJy1waCcsICc3LjAnLCAnLXRuJywgJzgnLCAnLW1hJywgJzIwMCcsICctbWV0YWxfYmluZGluZycsICctaW1hZScsICc8aW5maWxlLm1hZT4nLCAnLW9tYWUnLCAnPG91dGZpbGUubWFlPic=

> <r_epik_Ionization_Penalty>
0.0563445

> <r_epik_Ionization_Penalty_Charging>
0

> <r_epik_Ionization_Penalty_Neutral>
0.0563445

> <r_epik_State_Penalty>
0.0485409

> <r_epik_Charging_Adjusted_Penalty>
0.0485409

> <i_epik_Tot_Q>
0

> <i_epik_Tot_abs_Q>
0

> <r_epik_Metal_State_Penalty>
0.0443056

> <b_epik_Metal_Only>
0

> <s_lp_Force_Field>
OPLS_2005

> <r_lp_Energy>
16.8022

> <b_lp_Chiralities_Consistent>
1

> <s_lp_Variant>
AV-unprocessed.smi:937-1

> <Gold.Version>
5.8.1

> <Gold.Id.Protein>
6NUR|6NUR_protein|mol2

> <Gold.PLP.Fitness>
44.5648

> <Gold.PLP.PLP>
-38.2774

> <Gold.PLP.part.hbond>
-2.9034

> <Gold.PLP.part.metal>
0.0000

> <Gold.PLP.part.buried>
-5.9474

> <Gold.PLP.part.nonpolar>
-30.2365

> <Gold.PLP.part.repulsive>
0.3655

> <Gold.PLP.ligand.clash>
0.0000

> <Gold.PLP.ligand.torsion>
0.5318

> <Gold.PLP.Chemscore.Hbond>
1.4240

> <Gold.PLP.Chemscore.CHOScore>
1.0000

> <Gold.PLP.Chemscore.Metal>
0.0000

> <Gold.Chemscore.Hbonds>
donor molecule, donor type, donor heavy atom, donor atom, acceptor molecule, acceptor atom, score
      L1  H     8    33       P1 10171  0.85
      L1  H    11    34       P1 10175  0.45
      L1  C    22    45       P1  7948  1.00

> <Gold.PLP.Chemscore.Internal.Correction>
0.0789

> <Gold.Rescore>
     Score         DG    S(hbond)    S(metal)    S(lipo)     H(rot)  DE(clash)    DE(int)     intcor
     15.80     -17.54       1.59        0.00      92.43       1.58       0.41       1.33       ----

> <Gold.Chemscore.Fitness>
15.7964

> <Gold.Chemscore.DG>
-17.5390

> <Gold.Chemscore.ZeroCoef>
-5.4800

> <Gold.Chemscore.Hbond>
1.5875

> <Gold.Chemscore.Metal>
0.0000

> <Gold.Chemscore.Lipo>
92.4296

> <Gold.Chemscore.Internal_Hbond>
0.0000

> <Gold.Chemscore.DEClash>
0.4105

> <Gold.Chemscore.DEInternal>
1.3321

> <Gold.Chemscore.Rot>
1.5849

> <Gold.Chemscore.Internal.Correction>
   9.000000E+99

> <Gold.Chemscore.Hbonds>
donor molecule, donor type, donor heavy atom, donor atom, acceptor molecule, acceptor atom, score
      L1  H     8    33       P1 10171  0.82
      L1  H    11    34       P1 10175  0.44

> <Gold.Chemscore.Hbond.Weighted>
-5.3022

> <Gold.Chemscore.Metal.Weighted>
-0.0000

> <Gold.Chemscore.Lipo.Weighted>
-10.8143

> <Gold.Chemscore.Internal_Hbond.Weighted>
0.0000

> <Gold.Chemscore.DEClash.Weighted>
0.4105

> <Gold.Chemscore.DEInternal.Weighted>
1.3321

> <Gold.Chemscore.Rot.Weighted>
4.0574

> <Gold.Chemscore.Internal.Correction.Weighted>
   9.000000E+99

> <Gold.Protein.RotatedTorsions>
[ 6907 6896 6895 6894 ] final   95.03 input  -60.11 | X-H torsion
[ 7974 7965 7964 7962 ] final  -47.48 input  175.53 | X-H torsion
[ 8008 7997 7996 7995 ] final -126.00 input   59.86 | X-H torsion
[ 10167 10162 10161 10158 ] final   61.13 input  -65.29 | X-H torsion
[ 10718 10713 10712 10709 ] final -102.13 input   66.30 | X-H torsion
[ 10763 10752 10751 10750 ] final  160.80 input  -60.55 | X-H torsion
[ 11005 11000 10999 10996 ] final -144.76 input  -57.11 | X-H torsion

> <Gold.Protein.ActiveResidues>
 VAL166  LYS551  ARG553  GLY616  TRP617  ASP618  TYR619  PRO620  LYS621  CYS622 
 ASP623  PHE694  ASN695  SER759  ASP760  ASP761  ALA762  ILE779  LEU786  VAL792 
 PHE793  MET794  SER795  GLU796  ALA797  LYS798  CYS799  TRP800  GLU811  SER814 

> <Gold.Protein.RotatedAtoms>
  152.5446  134.1103  159.8355 H   0  0  0  0  0  0  0  0  0  0  0  0  # atno 6907 bound_to 6896
  151.1170  133.5124  159.2611 H   0  0  0  0  0  0  0  0  0  0  0  0  # atno 6908 bound_to 6896
  151.1821  135.0375  159.8851 H   0  0  0  0  0  0  0  0  0  0  0  0  # atno 6909 bound_to 6896
  145.9611  140.7478  142.9457 H   0  0  0  0  0  0  0  0  0  0  0  0  # atno 7974 bound_to 7965
  155.2225  140.0422  157.2950 H   0  0  0  0  0  0  0  0  0  0  0  0  # atno 8008 bound_to 7997
  154.5940  140.2434  155.7852 H   0  0  0  0  0  0  0  0  0  0  0  0  # atno 8009 bound_to 7997
  156.2278  140.2948  156.0120 H   0  0  0  0  0  0  0  0  0  0  0  0  # atno 8010 bound_to 7997
  140.1581  144.4397  150.6723 H   0  0  0  0  0  0  0  0  0  0  0  0  # atno 10167 bound_to 10162
  156.0218  130.5406  150.7064 H   0  0  0  0  0  0  0  0  0  0  0  0  # atno 10718 bound_to 10713
  154.2531  135.2771  155.2808 H   0  0  0  0  0  0  0  0  0  0  0  0  # atno 10763 bound_to 10752
  154.5448  135.5692  153.6874 H   0  0  0  0  0  0  0  0  0  0  0  0  # atno 10764 bound_to 10752
  152.9976  135.6260  154.2679 H   0  0  0  0  0  0  0  0  0  0  0  0  # atno 10765 bound_to 10752
  140.7992  134.2877  157.4985 H   0  0  0  0  0  0  0  0  0  0  0  0  # atno 11005 bound_to 11000
  144.6815  140.2593  143.7321 LP  0  0  0  0  0  0  0  0  0  0  0  0  # atno 17320 bound_to 7965
  145.8038  139.1975  143.2032 LP  0  0  0  0  0  0  0  0  0  0  0  0  # atno 17321 bound_to 7965
  140.6660  143.2268  151.5741 LP  0  0  0  0  0  0  0  0  0  0  0  0  # atno 17342 bound_to 10162
  139.5394  144.2690  152.1319 LP  0  0  0  0  0  0  0  0  0  0  0  0  # atno 17343 bound_to 10162
  157.4712  131.0893  151.0640 LP  0  0  0  0  0  0  0  0  0  0  0  0  # atno 17370 bound_to 10713
  157.1100  130.6017  149.5480 LP  0  0  0  0  0  0  0  0  0  0  0  0  # atno 17371 bound_to 10713
  139.8723  134.9419  156.3811 LP  0  0  0  0  0  0  0  0  0  0  0  0  # atno 17394 bound_to 11000
  140.9312  133.7578  156.0027 LP  0  0  0  0  0  0  0  0  0  0  0  0  # atno 17395 bound_to 11000

$$$$
