AV-unprocessed.smi:692|AV-procd|sdf|3368|dock3
  -GOLD-   22720 0343D 1   1.00000     0.00000
 Structure written by MMmdl.
 37 38  0  0  0  0  0  0  0  0  1 V2000
  153.1667  143.2013  162.6194 C   0  0  0  0  0  0  0  0  0  0  0  0
  153.3839  142.6484  161.2063 C   0  0  0  0  0  0  0  0  0  0  0  0
  152.5995  143.3995  160.1738 C   0  0  0  0  0  0  0  0  0  0  0  0
  153.0883  143.9778  159.0276 C   0  0  0  0  0  0  0  0  0  0  0  0
  151.8318  144.7458  158.0947 S   0  0  0  0  0  0  0  0  0  0  0  0
  150.6734  144.2475  159.3177 C   0  0  0  0  0  0  0  0  0  0  0  0
  149.2916  144.5552  159.2129 N   0  0  0  0  0  0  0  0  0  0  0  0
  148.3629  144.5503  160.1853 C   0  0  0  0  0  0  0  0  0  0  0  0
  148.5716  144.2797  161.3683 O   0  0  0  0  0  0  0  0  0  0  0  0
  147.1570  144.8879  159.7058 N   0  0  0  0  0  0  0  0  0  0  0  0
  145.9354  144.9895  160.4987 C   0  0  2  0  0  0  0  0  0  0  0  0
  145.8016  143.7662  161.4072 C   0  0  0  0  0  0  0  0  0  0  0  0
  144.5419  143.8791  162.2742 C   0  0  0  0  0  0  0  0  0  0  0  0
  143.2839  144.2753  161.4863 C   0  0  0  0  0  0  0  0  0  0  0  0
  142.1858  144.0536  161.9977 O   0  0  0  0  0  0  0  0  0  0  0  0
  143.4171  144.8791  160.2804 N   0  0  0  0  0  0  0  0  0  0  0  0
  142.2320  145.2964  159.5291 C   0  0  0  0  0  0  0  0  0  0  0  0
  144.6968  145.0987  159.5880 C   0  0  0  0  0  0  0  0  0  0  0  0
  151.2189  143.5607  160.3280 N   0  0  0  0  0  0  0  0  0  0  0  0
  153.7438  142.6350  163.3507 H   0  0  0  0  0  0  0  0  0  0  0  0
  152.1165  143.1449  162.9072 H   0  0  0  0  0  0  0  0  0  0  0  0
  153.4775  144.2445  162.6865 H   0  0  0  0  0  0  0  0  0  0  0  0
  154.4471  142.6853  160.9663 H   0  0  0  0  0  0  0  0  0  0  0  0
  153.1100  141.5930  161.1888 H   0  0  0  0  0  0  0  0  0  0  0  0
  154.1091  143.9955  158.6754 H   0  0  0  0  0  0  0  0  0  0  0  0
  148.9738  144.8105  158.2895 H   0  0  0  0  0  0  0  0  0  0  0  0
  147.0774  145.0938  158.7207 H   0  0  0  0  0  0  0  0  0  0  0  0
  145.9930  145.8768  161.1327 H   0  0  0  0  0  0  0  0  0  0  0  0
  145.7576  142.8547  160.8086 H   0  0  0  0  0  0  0  0  0  0  0  0
  146.6788  143.6750  162.0489 H   0  0  0  0  0  0  0  0  0  0  0  0
  144.3630  142.9367  162.7931 H   0  0  0  0  0  0  0  0  0  0  0  0
  144.6979  144.6339  163.0455 H   0  0  0  0  0  0  0  0  0  0  0  0
  141.6966  146.0809  160.0658 H   0  0  0  0  0  0  0  0  0  0  0  0
  141.5508  144.4568  159.3814 H   0  0  0  0  0  0  0  0  0  0  0  0
  142.4858  145.6849  158.5419 H   0  0  0  0  0  0  0  0  0  0  0  0
  144.6917  146.0776  159.1060 H   0  0  0  0  0  0  0  0  0  0  0  0
  144.7626  144.3591  158.7884 H   0  0  0  0  0  0  0  0  0  0  0  0
  1  2  1  0  0  0  0
  1 20  1  0  0  0  0
  1 21  1  0  0  0  0
  1 22  1  0  0  0  0
  2  3  1  0  0  0  0
  2 23  1  0  0  0  0
  2 24  1  0  0  0  0
  3 19  1  0  0  0  0
  3  4  2  0  0  0  0
  4  5  1  0  0  0  0
  4 25  1  0  0  0  0
  5  6  1  0  0  0  0
  6  7  1  0  0  0  0
  6 19  2  0  0  0  0
  7  8  1  0  0  0  0
  7 26  1  0  0  0  0
  8  9  2  0  0  0  0
  8 10  1  0  0  0  0
 10 11  1  0  0  0  0
 10 27  1  0  0  0  0
 11 18  1  0  0  0  0
 11 12  1  0  0  0  0
 11 28  1  0  0  0  0
 12 13  1  0  0  0  0
 12 29  1  0  0  0  0
 12 30  1  0  0  0  0
 13 14  1  0  0  0  0
 13 31  1  0  0  0  0
 13 32  1  0  0  0  0
 14 15  2  0  0  0  0
 14 16  1  0  0  0  0
 16 17  1  0  0  0  0
 16 18  1  0  0  0  0
 17 33  1  0  0  0  0
 17 34  1  0  0  0  0
 17 35  1  0  0  0  0
 18 36  1  0  0  0  0
 18 37  1  0  0  0  0
M  END
> <s_m_source_file>
AV-unprocessed.smi

> <i_m_source_file_index>
692

> <i_lp_mmshare_version>
43012

> <i_f3d_flags>
0

> <s_epik_input>
W0NIM11bQ0gyXWMxW2NIXXNjKG4xKVtOSF1DKD1PKVtOSF1bQ0BASF0yW0NIMl1bQ0gyXUMoPU8pTihbQ0gzXSlbQ0gyXTI=

> <s_epik_cmdline>
J2VwaWtfcHl0aG9uJywgJy1waCcsICc3LjAnLCAnLXRuJywgJzgnLCAnLW1hJywgJzIwMCcsICctbWV0YWxfYmluZGluZycsICctaW1hZScsICc8aW5maWxlLm1hZT4nLCAnLW9tYWUnLCAnPG91dGZpbGUubWFlPic=

> <r_lp_tautomer_probability>
1

> <r_epik_Ionization_Penalty>
0.000165573

> <r_epik_Ionization_Penalty_Charging>
0

> <r_epik_Ionization_Penalty_Neutral>
0.000165573

> <r_epik_State_Penalty>
-0

> <r_epik_Charging_Adjusted_Penalty>
0

> <i_epik_Tot_Q>
0

> <i_epik_Tot_abs_Q>
0

> <r_epik_Metal_State_Penalty>
0.031163

> <b_epik_Metal_Only>
0

> <s_lp_Force_Field>
OPLS_2005

> <r_lp_Energy>
8.08929

> <b_lp_Chiralities_Consistent>
1

> <s_lp_Variant>
AV-unprocessed.smi:692-1

> <Gold.Version>
5.8.1

> <Gold.Id.Protein>
6NUR|6NUR_protein|mol2

> <Gold.PLP.Fitness>
52.8736

> <Gold.PLP.PLP>
-44.9253

> <Gold.PLP.part.hbond>
-4.7535

> <Gold.PLP.part.metal>
0.0000

> <Gold.PLP.part.buried>
-6.5947

> <Gold.PLP.part.nonpolar>
-33.4500

> <Gold.PLP.part.repulsive>
0.5694

> <Gold.PLP.ligand.clash>
0.0000

> <Gold.PLP.ligand.torsion>
0.2626

> <Gold.PLP.Chemscore.Hbond>
2.8240

> <Gold.PLP.Chemscore.CHOScore>
0.0000

> <Gold.PLP.Chemscore.Metal>
0.0000

> <Gold.Chemscore.Hbonds>
donor molecule, donor type, donor heavy atom, donor atom, acceptor molecule, acceptor atom, score
      L1  H     7    26       P1  8029  0.94
      L1  H    10    27       P1  8029  0.91
      P1  H  6933  6944       L1     9  0.82

> <Gold.PLP.Chemscore.Internal.Correction>
0.0014

> <Gold.Rescore>
     Score         DG    S(hbond)    S(metal)    S(lipo)     H(rot)  DE(clash)    DE(int)     intcor
     19.00     -22.26       2.83        0.00      89.59       1.24       0.37       2.88       ----

> <Gold.Chemscore.Fitness>
19.0019

> <Gold.Chemscore.DG>
-22.2555

> <Gold.Chemscore.ZeroCoef>
-5.4800

> <Gold.Chemscore.Hbond>
2.8335

> <Gold.Chemscore.Metal>
0.0000

> <Gold.Chemscore.Lipo>
89.5940

> <Gold.Chemscore.Internal_Hbond>
0.0000

> <Gold.Chemscore.DEClash>
0.3690

> <Gold.Chemscore.DEInternal>
2.8846

> <Gold.Chemscore.Rot>
1.2386

> <Gold.Chemscore.Internal.Correction>
   9.000000E+99

> <Gold.Chemscore.Hbonds>
donor molecule, donor type, donor heavy atom, donor atom, acceptor molecule, acceptor atom, score
      L1  H     7    26       P1  8029  0.50
      L1  H    10    27       P1  8029  0.90
      P1  H  6933  6944       L1     9  0.44

> <Gold.Chemscore.Hbond.Weighted>
-9.4638

> <Gold.Chemscore.Metal.Weighted>
-0.0000

> <Gold.Chemscore.Lipo.Weighted>
-10.4825

> <Gold.Chemscore.Internal_Hbond.Weighted>
0.0000

> <Gold.Chemscore.DEClash.Weighted>
0.3690

> <Gold.Chemscore.DEInternal.Weighted>
2.8846

> <Gold.Chemscore.Rot.Weighted>
3.1708

> <Gold.Chemscore.Internal.Correction.Weighted>
   9.000000E+99

> <Gold.Protein.RotatedTorsions>
[ 6907 6896 6895 6894 ] final -158.21 input  -60.11 | X-H torsion
[ 7974 7965 7964 7962 ] final   79.20 input  175.53 | X-H torsion
[ 8008 7997 7996 7995 ] final -175.76 input   59.86 | X-H torsion
[ 10167 10162 10161 10158 ] final  134.95 input  -65.29 | X-H torsion
[ 10718 10713 10712 10709 ] final   47.56 input   66.30 | X-H torsion
[ 10763 10752 10751 10750 ] final  -99.10 input  -60.55 | X-H torsion
[ 11005 11000 10999 10996 ] final  -11.89 input  -57.11 | X-H torsion

> <Gold.Protein.ActiveResidues>
 VAL166  LYS551  ARG553  GLY616  TRP617  ASP618  TYR619  PRO620  LYS621  CYS622 
 ASP623  PHE694  ASN695  SER759  ASP760  ASP761  ALA762  ILE779  LEU786  VAL792 
 PHE793  MET794  SER795  GLU796  ALA797  LYS798  CYS799  TRP800  GLU811  SER814 

> <Gold.Protein.RotatedAtoms>
  151.3147  133.4065  159.2649 H   0  0  0  0  0  0  0  0  0  0  0  0  # atno 6907 bound_to 6896
  151.0085  134.9378  159.8004 H   0  0  0  0  0  0  0  0  0  0  0  0  # atno 6908 bound_to 6896
  152.5294  134.3112  159.9166 H   0  0  0  0  0  0  0  0  0  0  0  0  # atno 6909 bound_to 6896
  145.6673  139.2487  143.1888 H   0  0  0  0  0  0  0  0  0  0  0  0  # atno 7974 bound_to 7965
  155.9865  140.1192  157.0678 H   0  0  0  0  0  0  0  0  0  0  0  0  # atno 8008 bound_to 7997
  154.4198  140.1134  156.5575 H   0  0  0  0  0  0  0  0  0  0  0  0  # atno 8009 bound_to 7997
  155.6400  140.3473  155.4714 H   0  0  0  0  0  0  0  0  0  0  0  0  # atno 8010 bound_to 7997
  139.5236  144.6541  151.5213 H   0  0  0  0  0  0  0  0  0  0  0  0  # atno 10167 bound_to 10162
  157.4598  130.8189  149.7874 H   0  0  0  0  0  0  0  0  0  0  0  0  # atno 10718 bound_to 10713
  154.7470  135.4985  153.9221 H   0  0  0  0  0  0  0  0  0  0  0  0  # atno 10763 bound_to 10752
  153.1102  135.6707  153.9522 H   0  0  0  0  0  0  0  0  0  0  0  0  # atno 10764 bound_to 10752
  153.9283  135.3081  155.3425 H   0  0  0  0  0  0  0  0  0  0  0  0  # atno 10765 bound_to 10752
  140.7600  133.8522  155.9117 H   0  0  0  0  0  0  0  0  0  0  0  0  # atno 11005 bound_to 11000
  146.1075  140.7469  142.9519 LP  0  0  0  0  0  0  0  0  0  0  0  0  # atno 17320 bound_to 7965
  144.7069  140.3886  143.7111 LP  0  0  0  0  0  0  0  0  0  0  0  0  # atno 17321 bound_to 7965
  140.6359  143.8984  150.6647 LP  0  0  0  0  0  0  0  0  0  0  0  0  # atno 17342 bound_to 10162
  140.2303  143.3740  152.1571 LP  0  0  0  0  0  0  0  0  0  0  0  0  # atno 17343 bound_to 10162
  156.0023  130.3873  150.2558 LP  0  0  0  0  0  0  0  0  0  0  0  0  # atno 17370 bound_to 10713
  157.0735  131.0123  151.3182 LP  0  0  0  0  0  0  0  0  0  0  0  0  # atno 17371 bound_to 10713
  140.9672  134.1579  157.4606 LP  0  0  0  0  0  0  0  0  0  0  0  0  # atno 17394 bound_to 11000
  139.8772  134.9966  156.5801 LP  0  0  0  0  0  0  0  0  0  0  0  0  # atno 17395 bound_to 11000

$$$$
