AV-unprocessed.smi:2903|AV-procd|sdf|11159|dock7
  -GOLD-   2272016 43D 1   1.00000     0.00000
 Structure written by MMmdl.
 40 41  0  0  0  0  0  0  0  0  1 V2000
  153.6492  133.1008  164.7288 C   0  0  0  0  0  0  0  0  0  0  0  0
  154.5207  133.3952  163.5092 C   0  0  0  0  0  0  0  0  0  0  0  0
  155.3220  132.5412  163.1316 O   0  0  0  0  0  0  0  0  0  0  0  0
  154.3481  134.7130  162.8392 C   0  0  0  0  0  0  0  0  0  0  0  0
  153.8855  135.8577  163.5251 C   0  0  0  0  0  0  0  0  0  0  0  0
  153.7461  137.0696  162.8217 C   0  0  0  0  0  0  0  0  0  0  0  0
  154.0710  137.1196  161.4489 C   0  0  0  0  0  0  0  0  0  0  0  0
  153.8883  138.3860  160.8343 N   0  0  0  0  0  0  0  0  0  0  0  0
  154.1572  139.6055  161.3363 C   0  0  0  0  0  0  0  0  0  0  0  0
  154.5952  139.8221  162.4661 O   0  0  0  0  0  0  0  0  0  0  0  0
  153.8635  140.7776  160.4041 C   0  0  0  0  0  0  0  0  0  0  0  0
  153.1090  141.7464  161.1188 O   0  0  0  0  0  0  0  0  0  0  0  0
  152.4801  142.7197  160.2964 C   0  0  0  0  0  0  0  0  0  0  0  0
  153.4985  143.3374  159.3155 C   0  0  0  0  0  0  0  0  0  0  0  0
  152.8723  144.4866  158.5083 C   0  0  0  0  0  0  0  0  0  0  0  0
  152.2732  145.5590  159.4323 C   0  0  0  0  0  0  0  0  0  0  0  0
  151.2613  144.9451  160.4126 C   0  0  0  0  0  0  0  0  0  0  0  0
  151.8969  143.8025  161.2209 C   0  0  0  0  0  0  0  0  0  0  0  0
  154.5167  136.0207  160.7931 N   0  0  0  0  0  0  0  0  0  0  0  0
  154.6491  134.8587  161.4672 C   0  0  0  0  0  0  0  0  0  0  0  0
  152.5928  133.1413  164.4623 H   0  0  0  0  0  0  0  0  0  0  0  0
  153.8407  133.8268  165.5192 H   0  0  0  0  0  0  0  0  0  0  0  0
  153.8637  132.1060  165.1206 H   0  0  0  0  0  0  0  0  0  0  0  0
  153.6346  135.8297  164.5749 H   0  0  0  0  0  0  0  0  0  0  0  0
  153.3916  137.9509  163.3368 H   0  0  0  0  0  0  0  0  0  0  0  0
  153.5178  138.3653  159.8954 H   0  0  0  0  0  0  0  0  0  0  0  0
  154.8077  141.1914  160.0491 H   0  0  0  0  0  0  0  0  0  0  0  0
  153.3041  140.4288  159.5343 H   0  0  0  0  0  0  0  0  0  0  0  0
  151.6573  142.2660  159.7405 H   0  0  0  0  0  0  0  0  0  0  0  0
  154.3596  143.7113  159.8707 H   0  0  0  0  0  0  0  0  0  0  0  0
  153.8791  142.5814  158.6291 H   0  0  0  0  0  0  0  0  0  0  0  0
  153.6231  144.9354  157.8573 H   0  0  0  0  0  0  0  0  0  0  0  0
  152.0936  144.0907  157.8550 H   0  0  0  0  0  0  0  0  0  0  0  0
  153.0722  146.0478  159.9911 H   0  0  0  0  0  0  0  0  0  0  0  0
  151.7917  146.3358  158.8378 H   0  0  0  0  0  0  0  0  0  0  0  0
  150.8837  145.7135  161.0878 H   0  0  0  0  0  0  0  0  0  0  0  0
  150.3996  144.5674  159.8609 H   0  0  0  0  0  0  0  0  0  0  0  0
  151.1535  143.3618  161.8858 H   0  0  0  0  0  0  0  0  0  0  0  0
  152.6842  144.2040  161.8603 H   0  0  0  0  0  0  0  0  0  0  0  0
  155.0065  134.0233  160.8829 H   0  0  0  0  0  0  0  0  0  0  0  0
  1  2  1  0  0  0  0
  1 21  1  0  0  0  0
  1 22  1  0  0  0  0
  1 23  1  0  0  0  0
  2  3  2  0  0  0  0
  2  4  1  0  0  0  0
  4 20  1  0  0  0  0
  4  5  2  0  0  0  0
  5  6  1  0  0  0  0
  5 24  1  0  0  0  0
  6  7  2  0  0  0  0
  6 25  1  0  0  0  0
  7  8  1  0  0  0  0
  7 19  1  0  0  0  0
  8  9  1  0  0  0  0
  8 26  1  0  0  0  0
  9 10  2  0  0  0  0
  9 11  1  0  0  0  0
 11 12  1  0  0  0  0
 11 27  1  0  0  0  0
 11 28  1  0  0  0  0
 12 13  1  0  0  0  0
 13 18  1  0  0  0  0
 13 14  1  0  0  0  0
 13 29  1  0  0  0  0
 14 15  1  0  0  0  0
 14 30  1  0  0  0  0
 14 31  1  0  0  0  0
 15 16  1  0  0  0  0
 15 32  1  0  0  0  0
 15 33  1  0  0  0  0
 16 17  1  0  0  0  0
 16 34  1  0  0  0  0
 16 35  1  0  0  0  0
 17 18  1  0  0  0  0
 17 36  1  0  0  0  0
 17 37  1  0  0  0  0
 18 38  1  0  0  0  0
 18 39  1  0  0  0  0
 19 20  2  0  0  0  0
 20 40  1  0  0  0  0
M  END
> <s_m_source_file>
AV-unprocessed.smi

> <i_m_source_file_index>
2903

> <i_lp_mmshare_version>
43012

> <i_f3d_flags>
0

> <s_epik_input>
W0NIM11DKD1PKWMxW2NIXVtjSF1jKG5bY0hdMSlbTkhdQyg9TylbQ0gyXU9bQ0hdMltDSDJdW0NIMl1bQ0gyXVtDSDJdW0NIMl0y

> <s_epik_cmdline>
J2VwaWtfcHl0aG9uJywgJy1waCcsICc3LjAnLCAnLXRuJywgJzgnLCAnLW1hJywgJzIwMCcsICctbWV0YWxfYmluZGluZycsICctaW1hZScsICc8aW5maWxlLm1hZT4nLCAnLW9tYWUnLCAnPG91dGZpbGUubWFlPic=

> <r_lp_tautomer_probability>
1

> <r_epik_Ionization_Penalty>
3.51143e-05

> <r_epik_Ionization_Penalty_Charging>
0

> <r_epik_Ionization_Penalty_Neutral>
3.51143e-05

> <r_epik_State_Penalty>
-0

> <r_epik_Charging_Adjusted_Penalty>
0

> <i_epik_Tot_Q>
0

> <i_epik_Tot_abs_Q>
0

> <r_epik_Metal_State_Penalty>
-0

> <b_epik_Metal_Only>
0

> <s_lp_Force_Field>
OPLS_2005

> <r_lp_Energy>
19.6274

> <b_lp_Chiralities_Consistent>
1

> <s_lp_Variant>
AV-unprocessed.smi:2903-1

> <Gold.Version>
5.8.1

> <Gold.Id.Protein>
6NUR|6NUR_protein|mol2

> <Gold.PLP.Fitness>
46.5522

> <Gold.PLP.PLP>
-48.1819

> <Gold.PLP.part.hbond>
0.0000

> <Gold.PLP.part.metal>
0.0000

> <Gold.PLP.part.buried>
-6.2170

> <Gold.PLP.part.nonpolar>
-41.7244

> <Gold.PLP.part.repulsive>
0.0259

> <Gold.PLP.ligand.clash>
0.0000

> <Gold.PLP.ligand.torsion>
0.8219

> <Gold.PLP.Chemscore.Hbond>
0.0000

> <Gold.PLP.Chemscore.CHOScore>
0.0000

> <Gold.PLP.Chemscore.Metal>
0.0000

> <Gold.PLP.Chemscore.Internal.Correction>
0.0140

> <Gold.Rescore>
     Score         DG    S(hbond)    S(metal)    S(lipo)     H(rot)  DE(clash)    DE(int)     intcor
     14.55     -16.37       0.00        0.00     124.29       1.43       0.03       1.80       ----

> <Gold.Chemscore.Fitness>
14.5473

> <Gold.Chemscore.DG>
-16.3741

> <Gold.Chemscore.ZeroCoef>
-5.4800

> <Gold.Chemscore.Hbond>
0.0011

> <Gold.Chemscore.Metal>
0.0000

> <Gold.Chemscore.Lipo>
124.2894

> <Gold.Chemscore.Internal_Hbond>
0.0000

> <Gold.Chemscore.DEClash>
0.0292

> <Gold.Chemscore.DEInternal>
1.7976

> <Gold.Chemscore.Rot>
1.4264

> <Gold.Chemscore.Internal.Correction>
   9.000000E+99

> <Gold.Chemscore.Hbond.Weighted>
-0.0038

> <Gold.Chemscore.Metal.Weighted>
-0.0000

> <Gold.Chemscore.Lipo.Weighted>
-14.5419

> <Gold.Chemscore.Internal_Hbond.Weighted>
0.0000

> <Gold.Chemscore.DEClash.Weighted>
0.0292

> <Gold.Chemscore.DEInternal.Weighted>
1.7976

> <Gold.Chemscore.Rot.Weighted>
3.6516

> <Gold.Chemscore.Internal.Correction.Weighted>
   9.000000E+99

> <Gold.Protein.RotatedTorsions>
[ 6907 6896 6895 6894 ] final   54.11 input  -60.11 | X-H torsion
[ 7974 7965 7964 7962 ] final  141.49 input  175.53 | X-H torsion
[ 8008 7997 7996 7995 ] final -120.21 input   59.86 | X-H torsion
[ 10167 10162 10161 10158 ] final  153.94 input  -65.29 | X-H torsion
[ 10718 10713 10712 10709 ] final  148.90 input   66.30 | X-H torsion
[ 10763 10752 10751 10750 ] final   20.04 input  -60.55 | X-H torsion
[ 11005 11000 10999 10996 ] final  -67.38 input  -57.11 | X-H torsion

> <Gold.Protein.ActiveResidues>
 VAL166  LYS551  ARG553  GLY616  TRP617  ASP618  TYR619  PRO620  LYS621  CYS622 
 ASP623  PHE694  ASN695  SER759  ASP760  ASP761  ALA762  ILE779  LEU786  VAL792 
 PHE793  MET794  SER795  GLU796  ALA797  LYS798  CYS799  TRP800  GLU811  SER814 

> <Gold.Protein.RotatedAtoms>
  152.3406  134.7139  160.0264 H   0  0  0  0  0  0  0  0  0  0  0  0  # atno 6907 bound_to 6896
  151.7526  133.3323  159.3403 H   0  0  0  0  0  0  0  0  0  0  0  0  # atno 6908 bound_to 6896
  150.7477  134.6111  159.6131 H   0  0  0  0  0  0  0  0  0  0  0  0  # atno 6909 bound_to 6896
  144.9091  139.5317  143.5717 H   0  0  0  0  0  0  0  0  0  0  0  0  # atno 7974 bound_to 7965
  155.1282  140.0399  157.2768 H   0  0  0  0  0  0  0  0  0  0  0  0  # atno 8008 bound_to 7997
  154.6563  140.2580  155.7132 H   0  0  0  0  0  0  0  0  0  0  0  0  # atno 8009 bound_to 7997
  156.2599  140.2826  156.1017 H   0  0  0  0  0  0  0  0  0  0  0  0  # atno 8010 bound_to 7997
  139.4825  144.5230  151.7846 H   0  0  0  0  0  0  0  0  0  0  0  0  # atno 10167 bound_to 10162
  157.3029  131.0874  151.1376 H   0  0  0  0  0  0  0  0  0  0  0  0  # atno 10718 bound_to 10713
  153.1110  135.6697  153.9500 H   0  0  0  0  0  0  0  0  0  0  0  0  # atno 10763 bound_to 10752
  153.9043  135.3032  155.3450 H   0  0  0  0  0  0  0  0  0  0  0  0  # atno 10764 bound_to 10752
  154.7530  135.5025  153.9400 H   0  0  0  0  0  0  0  0  0  0  0  0  # atno 10765 bound_to 10752
  141.1506  133.6718  156.6284 H   0  0  0  0  0  0  0  0  0  0  0  0  # atno 11005 bound_to 11000
  146.3149  139.7883  142.8991 LP  0  0  0  0  0  0  0  0  0  0  0  0  # atno 17320 bound_to 7965
  145.3485  141.0302  143.3352 LP  0  0  0  0  0  0  0  0  0  0  0  0  # atno 17321 bound_to 7965
  140.4746  144.1537  150.5923 LP  0  0  0  0  0  0  0  0  0  0  0  0  # atno 17342 bound_to 10162
  140.4344  143.2554  151.9554 LP  0  0  0  0  0  0  0  0  0  0  0  0  # atno 17343 bound_to 10162
  157.2729  130.6713  149.6028 LP  0  0  0  0  0  0  0  0  0  0  0  0  # atno 17370 bound_to 10713
  155.9672  130.4473  150.5577 LP  0  0  0  0  0  0  0  0  0  0  0  0  # atno 17371 bound_to 10713
  140.3486  134.7788  157.4450 LP  0  0  0  0  0  0  0  0  0  0  0  0  # atno 17394 bound_to 11000
  140.0879  134.5641  155.8473 LP  0  0  0  0  0  0  0  0  0  0  0  0  # atno 17395 bound_to 11000

$$$$
