AV-unprocessed.smi:2061|AV-procd|sdf|8365|dock10
  -GOLD-   2272011 43D 1   1.00000     0.00000
 Structure written by MMmdl.
 45 46  0  0  0  0  0  0  0  0  1 V2000
  138.0777  137.2938  153.9566 C   0  0  0  0  0  0  0  0  0  0  0  0
  139.5442  137.4337  154.1807 C   0  0  0  0  0  0  0  0  0  0  0  0
  140.4555  138.3822  153.8097 C   0  0  0  0  0  0  0  0  0  0  0  0
  141.6705  137.8890  154.3556 C   0  0  0  0  0  0  0  0  0  0  0  0
  142.8860  138.6003  154.1871 N   0  0  0  0  0  0  0  0  0  0  0  0
  143.9202  138.6683  155.0426 C   0  0  0  0  0  0  0  0  0  0  0  0
  143.9661  138.1184  156.1431 O   0  0  0  0  0  0  0  0  0  0  0  0
  144.9102  139.4263  154.5478 N   0  0  0  0  0  0  0  0  0  0  0  0
  146.1785  139.7127  155.2156 C   0  0  0  0  0  0  0  0  0  0  0  0
  147.4177  139.3750  154.3385 C   0  0  1  0  0  0  0  0  0  0  0  0
  147.3309  140.1742  153.0125 C   0  0  0  0  0  0  0  0  0  0  0  0
  148.7078  139.5760  155.0416 N   0  0  0  0  0  0  0  0  0  0  0  0
  149.0943  140.9904  155.1077 C   0  0  0  0  0  0  0  0  0  0  0  0
  150.4443  141.2348  155.8105 C   0  0  1  0  0  0  0  0  0  0  0  0
  150.3760  141.0693  157.3384 C   0  0  0  0  0  0  0  0  0  0  0  0
  151.4610  140.4211  155.2309 O   0  0  0  0  0  0  0  0  0  0  0  0
  151.1503  139.0336  155.1719 C   0  0  2  0  0  0  0  0  0  0  0  0
  152.3113  138.3194  154.4718 C   0  0  0  0  0  0  0  0  0  0  0  0
  149.8156  138.8351  154.4305 C   0  0  0  0  0  0  0  0  0  0  0  0
  141.5150  136.7430  155.0005 N   0  0  0  0  0  0  0  0  0  0  0  0
  140.1518  136.4449  154.8912 O   0  0  0  0  0  0  0  0  0  0  0  0
  137.6504  138.2251  153.5846 H   0  0  0  0  0  0  0  0  0  0  0  0
  137.5665  137.0343  154.8839 H   0  0  0  0  0  0  0  0  0  0  0  0
  137.8721  136.5113  153.2260 H   0  0  0  0  0  0  0  0  0  0  0  0
  140.2781  139.2821  153.2399 H   0  0  0  0  0  0  0  0  0  0  0  0
  142.9788  139.1091  153.3206 H   0  0  0  0  0  0  0  0  0  0  0  0
  144.7790  139.8390  153.6359 H   0  0  0  0  0  0  0  0  0  0  0  0
  146.2307  140.7495  155.5522 H   0  0  0  0  0  0  0  0  0  0  0  0
  146.1531  139.0998  156.1145 H   0  0  0  0  0  0  0  0  0  0  0  0
  147.3407  138.3184  154.0771 H   0  0  0  0  0  0  0  0  0  0  0  0
  146.3746  140.0429  152.5083 H   0  0  0  0  0  0  0  0  0  0  0  0
  148.0736  139.8568  152.2825 H   0  0  0  0  0  0  0  0  0  0  0  0
  147.4640  141.2423  153.1875 H   0  0  0  0  0  0  0  0  0  0  0  0
  149.1454  141.3963  154.0961 H   0  0  0  0  0  0  0  0  0  0  0  0
  148.3464  141.5750  155.6396 H   0  0  0  0  0  0  0  0  0  0  0  0
  150.7364  142.2677  155.6185 H   0  0  0  0  0  0  0  0  0  0  0  0
  149.6794  141.7857  157.7743 H   0  0  0  0  0  0  0  0  0  0  0  0
  151.3523  141.2412  157.7919 H   0  0  0  0  0  0  0  0  0  0  0  0
  150.0415  140.0739  157.6297 H   0  0  0  0  0  0  0  0  0  0  0  0
  151.0669  138.6355  156.1836 H   0  0  0  0  0  0  0  0  0  0  0  0
  152.1333  137.2455  154.4115 H   0  0  0  0  0  0  0  0  0  0  0  0
  153.2448  138.4707  155.0142 H   0  0  0  0  0  0  0  0  0  0  0  0
  152.4512  138.6941  153.4574 H   0  0  0  0  0  0  0  0  0  0  0  0
  149.6131  137.7660  154.4372 H   0  0  0  0  0  0  0  0  0  0  0  0
  149.9262  139.1315  153.3862 H   0  0  0  0  0  0  0  0  0  0  0  0
  1  2  1  0  0  0  0
  1 22  1  0  0  0  0
  1 23  1  0  0  0  0
  1 24  1  0  0  0  0
  2 21  1  0  0  0  0
  2  3  2  0  0  0  0
  3  4  1  0  0  0  0
  3 25  1  0  0  0  0
  4  5  1  0  0  0  0
  4 20  2  0  0  0  0
  5  6  1  0  0  0  0
  5 26  1  0  0  0  0
  6  7  2  0  0  0  0
  6  8  1  0  0  0  0
  8  9  1  0  0  0  0
  8 27  1  0  0  0  0
  9 10  1  0  0  0  0
  9 28  1  0  0  0  0
  9 29  1  0  0  0  0
 10 11  1  0  0  0  0
 10 12  1  0  0  0  0
 10 30  1  0  0  0  0
 11 31  1  0  0  0  0
 11 32  1  0  0  0  0
 11 33  1  0  0  0  0
 12 19  1  0  0  0  0
 12 13  1  0  0  0  0
 13 14  1  0  0  0  0
 13 34  1  0  0  0  0
 13 35  1  0  0  0  0
 14 15  1  0  0  0  0
 14 16  1  0  0  0  0
 14 36  1  0  0  0  0
 15 37  1  0  0  0  0
 15 38  1  0  0  0  0
 15 39  1  0  0  0  0
 16 17  1  0  0  0  0
 17 18  1  0  0  0  0
 17 19  1  0  0  0  0
 17 40  1  0  0  0  0
 18 41  1  0  0  0  0
 18 42  1  0  0  0  0
 18 43  1  0  0  0  0
 19 44  1  0  0  0  0
 19 45  1  0  0  0  0
 20 21  1  0  0  0  0
M  END
> <s_m_source_file>
AV-unprocessed.smi

> <i_m_source_file_index>
2061

> <i_lp_mmshare_version>
43012

> <i_f3d_flags>
0

> <s_epik_input>
W0NIM11jMVtjSF1jKG5vMSlbTkhdQyg9TylbTkhdW0NIMl1bQ0BIXShbQ0gzXSlOMltDSDJdW0NAQEhdKFtDSDNdKU9bQ0BASF0oW0NIM10pW0NIMl0y

> <s_epik_cmdline>
J2VwaWtfcHl0aG9uJywgJy1waCcsICc3LjAnLCAnLXRuJywgJzgnLCAnLW1hJywgJzIwMCcsICctbWV0YWxfYmluZGluZycsICctaW1hZScsICc8aW5maWxlLm1hZT4nLCAnLW9tYWUnLCAnPG91dGZpbGUubWFlPic=

> <r_epik_Ionization_Penalty>
0.214073

> <r_epik_Ionization_Penalty_Charging>
0

> <r_epik_Ionization_Penalty_Neutral>
0.214073

> <r_epik_State_Penalty>
0.204211

> <r_epik_Charging_Adjusted_Penalty>
0.204211

> <i_epik_Tot_Q>
0

> <i_epik_Tot_abs_Q>
0

> <r_epik_Metal_State_Penalty>
0.217067

> <b_epik_Metal_Only>
0

> <s_lp_Force_Field>
OPLS_2005

> <r_lp_Energy>
29.5026

> <b_lp_Chiralities_Consistent>
1

> <s_lp_Variant>
AV-unprocessed.smi:2061-6

> <Gold.Version>
5.8.1

> <Gold.Id.Protein>
6NUR|6NUR_protein|mol2

> <Gold.PLP.Fitness>
43.2049

> <Gold.PLP.PLP>
-32.6706

> <Gold.PLP.part.hbond>
-4.1036

> <Gold.PLP.part.metal>
0.0000

> <Gold.PLP.part.buried>
-3.3595

> <Gold.PLP.part.nonpolar>
-24.7622

> <Gold.PLP.part.repulsive>
0.1847

> <Gold.PLP.ligand.clash>
0.0000

> <Gold.PLP.ligand.torsion>
0.5309

> <Gold.PLP.Chemscore.Hbond>
3.8560

> <Gold.PLP.Chemscore.CHOScore>
0.0000

> <Gold.PLP.Chemscore.Metal>
0.0000

> <Gold.Chemscore.Hbonds>
donor molecule, donor type, donor heavy atom, donor atom, acceptor molecule, acceptor atom, score
      L1  H     5    26       P1 10175  0.98
      L1  H     8    27       P1 10175  0.94
      P1  H  7989  7998       L1    16  0.91
      P1  H 11000 11005       L1    21  0.97

> <Gold.PLP.Chemscore.Internal.Correction>
0.0282

> <Gold.Rescore>
     Score         DG    S(hbond)    S(metal)    S(lipo)     H(rot)  DE(clash)    DE(int)     intcor
     19.10     -20.47       3.09        0.00      73.71       1.55       0.58       0.79       ----

> <Gold.Chemscore.Fitness>
19.1022

> <Gold.Chemscore.DG>
-20.4681

> <Gold.Chemscore.ZeroCoef>
-5.4800

> <Gold.Chemscore.Hbond>
3.0913

> <Gold.Chemscore.Metal>
0.0000

> <Gold.Chemscore.Lipo>
73.7142

> <Gold.Chemscore.Internal_Hbond>
0.0000

> <Gold.Chemscore.DEClash>
0.5786

> <Gold.Chemscore.DEInternal>
0.7873

> <Gold.Chemscore.Rot>
1.5474

> <Gold.Chemscore.Internal.Correction>
   9.000000E+99

> <Gold.Chemscore.Hbonds>
donor molecule, donor type, donor heavy atom, donor atom, acceptor molecule, acceptor atom, score
      L1  H     5    26       P1 10175  0.93
      L1  H     8    27       P1 10175  0.91
      P1  H  7989  7998       L1    16  0.28
      P1  H 11000 11005       L1    21  0.35

> <Gold.Chemscore.Hbond.Weighted>
-10.3248

> <Gold.Chemscore.Metal.Weighted>
-0.0000

> <Gold.Chemscore.Lipo.Weighted>
-8.6246

> <Gold.Chemscore.Internal_Hbond.Weighted>
0.0000

> <Gold.Chemscore.DEClash.Weighted>
0.5786

> <Gold.Chemscore.DEInternal.Weighted>
0.7873

> <Gold.Chemscore.Rot.Weighted>
3.9612

> <Gold.Chemscore.Internal.Correction.Weighted>
   9.000000E+99

> <Gold.Protein.RotatedTorsions>
[ 6907 6896 6895 6894 ] final   39.94 input  -60.11 | X-H torsion
[ 7974 7965 7964 7962 ] final  106.21 input  175.53 | X-H torsion
[ 8008 7997 7996 7995 ] final -155.60 input   59.86 | X-H torsion
[ 10167 10162 10161 10158 ] final  -81.01 input  -65.29 | X-H torsion
[ 10718 10713 10712 10709 ] final  110.47 input   66.30 | X-H torsion
[ 10763 10752 10751 10750 ] final   73.59 input  -60.55 | X-H torsion
[ 11005 11000 10999 10996 ] final   68.19 input  -57.11 | X-H torsion

> <Gold.Protein.ActiveResidues>
 VAL166  LYS551  ARG553  GLY616  TRP617  ASP618  TYR619  PRO620  LYS621  CYS622 
 ASP623  PHE694  ASN695  SER759  ASP760  ASP761  ALA762  ILE779  LEU786  VAL792 
 PHE793  MET794  SER795  GLU796  ALA797  LYS798  CYS799  TRP800  GLU811  SER814 

> <Gold.Protein.RotatedAtoms>
  152.1761  134.8793  160.0530 H   0  0  0  0  0  0  0  0  0  0  0  0  # atno 6907 bound_to 6896
  151.9735  133.3729  159.4088 H   0  0  0  0  0  0  0  0  0  0  0  0  # atno 6908 bound_to 6896
  150.6909  134.4038  159.5174 H   0  0  0  0  0  0  0  0  0  0  0  0  # atno 6909 bound_to 6896
  145.3096  139.2544  143.3770 H   0  0  0  0  0  0  0  0  0  0  0  0  # atno 7974 bound_to 7965
  155.7043  140.0770  157.2397 H   0  0  0  0  0  0  0  0  0  0  0  0  # atno 8008 bound_to 7997
  154.4068  140.1641  156.2279 H   0  0  0  0  0  0  0  0  0  0  0  0  # atno 8009 bound_to 7997
  155.9340  140.3389  155.6275 H   0  0  0  0  0  0  0  0  0  0  0  0  # atno 8010 bound_to 7997
  140.4451  143.2501  151.8570 H   0  0  0  0  0  0  0  0  0  0  0  0  # atno 10167 bound_to 10162
  157.6492  131.0933  150.6606 H   0  0  0  0  0  0  0  0  0  0  0  0  # atno 10718 bound_to 10713
  153.0531  135.5057  154.7916 H   0  0  0  0  0  0  0  0  0  0  0  0  # atno 10763 bound_to 10752
  154.6762  135.2961  154.9677 H   0  0  0  0  0  0  0  0  0  0  0  0  # atno 10764 bound_to 10752
  154.0479  135.6708  153.4849 H   0  0  0  0  0  0  0  0  0  0  0  0  # atno 10765 bound_to 10752
  139.9726  134.6875  156.0417 H   0  0  0  0  0  0  0  0  0  0  0  0  # atno 11005 bound_to 11000
  146.3123  140.3629  142.8666 LP  0  0  0  0  0  0  0  0  0  0  0  0  # atno 17320 bound_to 7965
  144.9027  140.7662  143.5857 LP  0  0  0  0  0  0  0  0  0  0  0  0  # atno 17321 bound_to 7965
  139.4792  144.5185  151.8834 LP  0  0  0  0  0  0  0  0  0  0  0  0  # atno 17342 bound_to 10162
  140.4273  144.2162  150.5887 LP  0  0  0  0  0  0  0  0  0  0  0  0  # atno 17343 bound_to 10162
  156.6920  130.4598  149.5597 LP  0  0  0  0  0  0  0  0  0  0  0  0  # atno 17370 bound_to 10713
  156.1855  130.6526  151.1001 LP  0  0  0  0  0  0  0  0  0  0  0  0  # atno 17371 bound_to 10713
  141.1405  133.6566  156.3715 LP  0  0  0  0  0  0  0  0  0  0  0  0  # atno 17394 bound_to 11000
  140.5262  134.6257  157.5335 LP  0  0  0  0  0  0  0  0  0  0  0  0  # atno 17395 bound_to 11000

$$$$
