AV-unprocessed.smi:720|AV-procd|sdf|3500|dock5
  -GOLD-   22720 0493D 1   1.00000     0.00000
 Structure written by MMmdl.
 46 48  0  0  0  0  0  0  0  0  1 V2000
  145.8193  135.8629  151.1607 C   0  0  0  0  0  0  0  0  0  0  0  0
  145.8094  136.6123  152.4119 N   0  0  0  0  0  0  0  0  0  0  0  0
  144.4240  136.7530  152.8411 C   0  0  0  0  0  0  0  0  0  0  0  0
  146.3950  137.9456  152.2573 C   0  0  0  0  0  0  0  0  0  0  0  0
  147.4679  138.2784  153.3163 C   0  0  0  0  0  0  0  0  0  0  0  0
  147.4666  139.6721  153.7260 N   0  0  0  0  0  0  0  0  0  0  0  0
  146.6986  140.7097  153.2360 C   0  0  0  0  0  0  0  0  0  0  0  0
  147.0289  141.8342  153.9368 C   0  0  0  0  0  0  0  0  0  0  0  0
  148.0179  141.3675  154.8534 C   0  0  0  0  0  0  0  0  0  0  0  0
  148.6942  142.1510  155.8224 N   0  0  0  0  0  0  0  0  0  0  0  0
  149.4726  141.7386  156.8417 C   0  0  0  0  0  0  0  0  0  0  0  0
  149.7561  140.5661  157.0788 O   0  0  0  0  0  0  0  0  0  0  0  0
  149.9289  142.7353  157.6215 N   0  0  0  0  0  0  0  0  0  0  0  0
  150.7904  142.6328  158.8018 C   0  0  1  0  0  0  0  0  0  0  0  0
  152.1824  142.0312  158.4918 C   0  0  0  0  0  0  0  0  0  0  0  0
  153.1460  143.1317  158.9720 C   0  0  2  0  0  0  0  0  0  0  0  0
  153.0940  143.2288  160.5093 C   0  0  0  0  0  0  0  0  0  0  0  0
  151.7215  143.8824  160.7653 C   0  0  0  0  0  0  0  0  0  0  0  0
  151.1522  144.0336  159.3426 C   0  0  1  0  0  0  0  0  0  0  0  0
  152.4055  144.3930  158.5498 C   0  0  0  0  0  0  0  0  0  0  0  0
  148.2624  140.0736  154.7414 N   0  0  0  0  0  0  0  0  0  0  0  0
  146.8344  135.6308  150.8453 H   0  0  0  0  0  0  0  0  0  0  0  0
  145.3262  136.4160  150.3600 H   0  0  0  0  0  0  0  0  0  0  0  0
  145.3030  134.9100  151.2825 H   0  0  0  0  0  0  0  0  0  0  0  0
  144.3664  137.2771  153.7958 H   0  0  0  0  0  0  0  0  0  0  0  0
  143.9624  135.7743  152.9780 H   0  0  0  0  0  0  0  0  0  0  0  0
  143.8358  137.3091  152.1096 H   0  0  0  0  0  0  0  0  0  0  0  0
  146.7720  138.0921  151.2438 H   0  0  0  0  0  0  0  0  0  0  0  0
  145.5925  138.6728  152.3875 H   0  0  0  0  0  0  0  0  0  0  0  0
  147.2786  137.6852  154.2115 H   0  0  0  0  0  0  0  0  0  0  0  0
  148.4612  137.9929  152.9653 H   0  0  0  0  0  0  0  0  0  0  0  0
  145.9900  140.5637  152.4343 H   0  0  0  0  0  0  0  0  0  0  0  0
  146.6171  142.8232  153.8042 H   0  0  0  0  0  0  0  0  0  0  0  0
  148.5304  143.1452  155.7631 H   0  0  0  0  0  0  0  0  0  0  0  0
  149.6356  143.6693  157.3739 H   0  0  0  0  0  0  0  0  0  0  0  0
  150.2720  142.0577  159.5714 H   0  0  0  0  0  0  0  0  0  0  0  0
  152.3470  141.0840  159.0069 H   0  0  0  0  0  0  0  0  0  0  0  0
  152.3152  141.8531  157.4235 H   0  0  0  0  0  0  0  0  0  0  0  0
  154.1556  143.0336  158.5723 H   0  0  0  0  0  0  0  0  0  0  0  0
  153.1847  142.2522  160.9860 H   0  0  0  0  0  0  0  0  0  0  0  0
  153.8967  143.8626  160.8882 H   0  0  0  0  0  0  0  0  0  0  0  0
  151.0834  143.2779  161.4111 H   0  0  0  0  0  0  0  0  0  0  0  0
  151.8447  144.8578  161.2376 H   0  0  0  0  0  0  0  0  0  0  0  0
  150.3408  144.7598  159.2788 H   0  0  0  0  0  0  0  0  0  0  0  0
  152.8856  145.3118  158.8911 H   0  0  0  0  0  0  0  0  0  0  0  0
  152.2366  144.4560  157.4733 H   0  0  0  0  0  0  0  0  0  0  0  0
  1  2  1  0  0  0  0
  1 22  1  0  0  0  0
  1 23  1  0  0  0  0
  1 24  1  0  0  0  0
  2  3  1  0  0  0  0
  2  4  1  0  0  0  0
  3 25  1  0  0  0  0
  3 26  1  0  0  0  0
  3 27  1  0  0  0  0
  4  5  1  0  0  0  0
  4 28  1  0  0  0  0
  4 29  1  0  0  0  0
  5  6  1  0  0  0  0
  5 30  1  0  0  0  0
  5 31  1  0  0  0  0
  6 21  1  0  0  0  0
  6  7  1  0  0  0  0
  7  8  2  0  0  0  0
  7 32  1  0  0  0  0
  8  9  1  0  0  0  0
  8 33  1  0  0  0  0
  9 10  1  0  0  0  0
  9 21  2  0  0  0  0
 10 11  1  0  0  0  0
 10 34  1  0  0  0  0
 11 12  2  0  0  0  0
 11 13  1  0  0  0  0
 13 14  1  0  0  0  0
 13 35  1  0  0  0  0
 14 19  1  0  0  0  0
 14 15  1  0  0  0  0
 14 36  1  0  0  0  0
 15 16  1  0  0  0  0
 15 37  1  0  0  0  0
 15 38  1  0  0  0  0
 16 20  1  0  0  0  0
 16 17  1  0  0  0  0
 16 39  1  0  0  0  0
 17 18  1  0  0  0  0
 17 40  1  0  0  0  0
 17 41  1  0  0  0  0
 18 19  1  0  0  0  0
 18 42  1  0  0  0  0
 18 43  1  0  0  0  0
 19 20  1  0  0  0  0
 19 44  1  0  0  0  0
 20 45  1  0  0  0  0
 20 46  1  0  0  0  0
M  END
> <s_m_source_file>
AV-unprocessed.smi

> <i_m_source_file_index>
720

> <i_lp_mmshare_version>
43012

> <i_f3d_flags>
0

> <s_epik_input>
W0NIM11OKFtDSDNdKVtDSDJdW0NIMl1uMVtjSF1bY0hdYyhuMSlbTkhdQyg9TylbTkhdW0NASF0oW0NIMl1bQ0BIXTIzKVtDQEhdKFtDSDJdMylbQ0gyXVtDSDJdMg==

> <s_epik_cmdline>
J2VwaWtfcHl0aG9uJywgJy1waCcsICc3LjAnLCAnLXRuJywgJzgnLCAnLW1hJywgJzIwMCcsICctbWV0YWxfYmluZGluZycsICctaW1hZScsICc8aW5maWxlLm1hZT4nLCAnLW9tYWUnLCAnPG91dGZpbGUubWFlPic=

> <r_lp_tautomer_probability>
1

> <r_epik_Ionization_Penalty>
1.83819

> <r_epik_Ionization_Penalty_Charging>
0

> <r_epik_Ionization_Penalty_Neutral>
1.83819

> <r_epik_State_Penalty>
1.95467

> <r_epik_Charging_Adjusted_Penalty>
1.95467

> <i_epik_Tot_Q>
0

> <i_epik_Tot_abs_Q>
0

> <r_epik_Metal_State_Penalty>
1.95467

> <b_epik_Metal_Only>
0

> <s_lp_Force_Field>
OPLS_2005

> <r_lp_Energy>
64.3951

> <b_lp_Chiralities_Consistent>
1

> <s_lp_Variant>
AV-unprocessed.smi:720-6

> <Gold.Version>
5.8.1

> <Gold.Id.Protein>
6NUR|6NUR_protein|mol2

> <Gold.PLP.Fitness>
46.8162

> <Gold.PLP.PLP>
-40.8247

> <Gold.PLP.part.hbond>
-1.9152

> <Gold.PLP.part.metal>
0.0000

> <Gold.PLP.part.buried>
-3.6633

> <Gold.PLP.part.nonpolar>
-37.6287

> <Gold.PLP.part.repulsive>
0.4465

> <Gold.PLP.ligand.clash>
0.0000

> <Gold.PLP.ligand.torsion>
1.0129

> <Gold.PLP.Chemscore.Hbond>
1.8070

> <Gold.PLP.Chemscore.CHOScore>
0.8449

> <Gold.PLP.Chemscore.Metal>
0.0000

> <Gold.Chemscore.Hbonds>
donor molecule, donor type, donor heavy atom, donor atom, acceptor molecule, acceptor atom, score
      L1  H    10    34       P1  8028  1.00
      L1  H    13    35       P1  8028  0.60
      L1  C     7    32       P1 10175  1.00

> <Gold.PLP.Chemscore.Internal.Correction>
0.0617

> <Gold.Rescore>
     Score         DG    S(hbond)    S(metal)    S(lipo)     H(rot)  DE(clash)    DE(int)     intcor
     17.32     -20.05       1.56        0.00     113.65       1.53       0.35       2.38       ----

> <Gold.Chemscore.Fitness>
17.3240

> <Gold.Chemscore.DG>
-20.0537

> <Gold.Chemscore.ZeroCoef>
-5.4800

> <Gold.Chemscore.Hbond>
1.5559

> <Gold.Chemscore.Metal>
0.0000

> <Gold.Chemscore.Lipo>
113.6472

> <Gold.Chemscore.Internal_Hbond>
0.0000

> <Gold.Chemscore.DEClash>
0.3478

> <Gold.Chemscore.DEInternal>
2.3819

> <Gold.Chemscore.Rot>
1.5312

> <Gold.Chemscore.Internal.Correction>
   9.000000E+99

> <Gold.Chemscore.Hbonds>
donor molecule, donor type, donor heavy atom, donor atom, acceptor molecule, acceptor atom, score
      L1  H    10    34       P1  8028  0.97
      L1  H    13    35       P1  8028  0.44

> <Gold.Chemscore.Hbond.Weighted>
-5.1969

> <Gold.Chemscore.Metal.Weighted>
-0.0000

> <Gold.Chemscore.Lipo.Weighted>
-13.2967

> <Gold.Chemscore.Internal_Hbond.Weighted>
0.0000

> <Gold.Chemscore.DEClash.Weighted>
0.3478

> <Gold.Chemscore.DEInternal.Weighted>
2.3819

> <Gold.Chemscore.Rot.Weighted>
3.9199

> <Gold.Chemscore.Internal.Correction.Weighted>
   9.000000E+99

> <Gold.Protein.RotatedTorsions>
[ 6907 6896 6895 6894 ] final   15.80 input  -60.11 | X-H torsion
[ 7974 7965 7964 7962 ] final  149.75 input  175.53 | X-H torsion
[ 8008 7997 7996 7995 ] final    8.10 input   59.86 | X-H torsion
[ 10167 10162 10161 10158 ] final  123.54 input  -65.29 | X-H torsion
[ 10718 10713 10712 10709 ] final  147.85 input   66.30 | X-H torsion
[ 10763 10752 10751 10750 ] final   23.14 input  -60.55 | X-H torsion
[ 11005 11000 10999 10996 ] final  126.10 input  -57.11 | X-H torsion

> <Gold.Protein.ActiveResidues>
 VAL166  LYS551  ARG553  GLY616  TRP617  ASP618  TYR619  PRO620  LYS621  CYS622 
 ASP623  PHE694  ASN695  SER759  ASP760  ASP761  ALA762  ILE779  LEU786  VAL792 
 PHE793  MET794  SER795  GLU796  ALA797  LYS798  CYS799  TRP800  GLU811  SER814 

> <Gold.Protein.RotatedAtoms>
  151.8239  135.0643  160.0428 H   0  0  0  0  0  0  0  0  0  0  0  0  # atno 6907 bound_to 6896
  152.2931  133.5576  159.5578 H   0  0  0  0  0  0  0  0  0  0  0  0  # atno 6908 bound_to 6896
  150.7239  134.0316  159.3777 H   0  0  0  0  0  0  0  0  0  0  0  0  # atno 6909 bound_to 6896
  144.8415  139.6320  143.6014 H   0  0  0  0  0  0  0  0  0  0  0  0  # atno 7974 bound_to 7965
  154.7625  140.2787  155.6203 H   0  0  0  0  0  0  0  0  0  0  0  0  # atno 8008 bound_to 7997
  156.2918  140.2657  156.2334 H   0  0  0  0  0  0  0  0  0  0  0  0  # atno 8009 bound_to 7997
  155.0000  140.0373  157.2346 H   0  0  0  0  0  0  0  0  0  0  0  0  # atno 8010 bound_to 7997
  139.5793  144.6979  151.3569 H   0  0  0  0  0  0  0  0  0  0  0  0  # atno 10167 bound_to 10162
  157.3159  131.0896  151.1279 H   0  0  0  0  0  0  0  0  0  0  0  0  # atno 10718 bound_to 10713
  153.0861  135.6633  153.9947 H   0  0  0  0  0  0  0  0  0  0  0  0  # atno 10763 bound_to 10752
  153.9556  135.2979  155.3438 H   0  0  0  0  0  0  0  0  0  0  0  0  # atno 10764 bound_to 10752
  154.7269  135.5140  153.8973 H   0  0  0  0  0  0  0  0  0  0  0  0  # atno 10765 bound_to 10752
  139.9439  134.9632  156.8656 H   0  0  0  0  0  0  0  0  0  0  0  0  # atno 11005 bound_to 11000
  146.2706  139.6627  142.9298 LP  0  0  0  0  0  0  0  0  0  0  0  0  # atno 17320 bound_to 7965
  145.4685  141.0435  143.2712 LP  0  0  0  0  0  0  0  0  0  0  0  0  # atno 17321 bound_to 7965
  140.7073  143.7480  150.7505 LP  0  0  0  0  0  0  0  0  0  0  0  0  # atno 17342 bound_to 10162
  140.1009  143.4789  152.2426 LP  0  0  0  0  0  0  0  0  0  0  0  0  # atno 17343 bound_to 10162
  157.2583  130.6647  149.5963 LP  0  0  0  0  0  0  0  0  0  0  0  0  # atno 17370 bound_to 10713
  155.9681  130.4516  150.5744 LP  0  0  0  0  0  0  0  0  0  0  0  0  # atno 17371 bound_to 10713
  140.5883  134.0286  155.7490 LP  0  0  0  0  0  0  0  0  0  0  0  0  # atno 17394 bound_to 11000
  141.1083  133.9658  157.2957 LP  0  0  0  0  0  0  0  0  0  0  0  0  # atno 17395 bound_to 11000

$$$$
