AV-unprocessed.smi:2021|AV-procd|sdf|8181|dock10
  -GOLD-   2272010433D 1   1.00000     0.00000
 Structure written by MMmdl.
 41 42  0  0  0  0  0  0  0  0  3 V2000
  151.7422  142.3746  159.2487 C   0  0  0  0  0  0  0  0  0  0  0  0
  151.6851  142.8568  157.7915 C   0  0  0  0  0  0  0  0  0  0  0  0
  151.6975  144.3935  157.7334 C   0  0  0  0  0  0  0  0  0  0  0  0
  150.4541  142.2642  157.0721 C   0  0  0  0  0  0  0  0  0  0  0  0
  150.6296  140.8409  156.6847 N   0  3  1  0  0  0  0  0  0  0  0  0
  151.8112  140.6022  155.8191 C   0  0  0  0  0  0  0  0  0  0  0  0
  151.9098  139.1154  155.4434 C   0  0  0  0  0  0  0  0  0  0  0  0
  151.9576  138.3347  156.6285 O   0  0  0  0  0  0  0  0  0  0  0  0
  150.7773  138.4663  157.4140 C   0  0  1  0  0  0  0  0  0  0  0  0
  150.8659  137.5086  158.6153 C   0  0  0  0  0  0  0  0  0  0  0  0
  149.7507  137.7002  159.5365 N   0  0  0  0  0  0  0  0  0  0  0  0
  148.8770  136.7599  159.9228 C   0  0  0  0  0  0  0  0  0  0  0  0
  148.9959  135.6022  159.5152 O   0  0  0  0  0  0  0  0  0  0  0  0
  147.9167  137.2220  160.7542 N   0  5  0  0  0  0  0  0  0  0  0  0
  147.1549  136.3579  161.4454 C   0  0  0  0  0  0  0  0  0  0  0  0
  147.4751  135.0600  161.5718 N   0  0  0  0  0  0  0  0  0  0  0  0
  146.5539  134.3412  162.3216 N   0  0  0  0  0  0  0  0  0  0  0  0
  145.5532  135.1178  162.7361 C   0  0  0  0  0  0  0  0  0  0  0  0
  145.6442  136.7967  162.2474 S   0  0  0  0  0  0  0  0  0  0  0  0
  150.6581  139.9367  157.8596 C   0  0  0  0  0  0  0  0  0  0  0  0
  150.8651  142.6989  159.8099 H   0  0  0  0  0  0  0  0  0  0  0  0
  152.6246  142.7635  159.7578 H   0  0  0  0  0  0  0  0  0  0  0  0
  151.7875  141.2864  159.3016 H   0  0  0  0  0  0  0  0  0  0  0  0
  152.5925  142.4951  157.3090 H   0  0  0  0  0  0  0  0  0  0  0  0
  150.8081  144.8155  158.2027 H   0  0  0  0  0  0  0  0  0  0  0  0
  151.7354  144.7547  156.7055 H   0  0  0  0  0  0  0  0  0  0  0  0
  152.5681  144.7978  158.2505 H   0  0  0  0  0  0  0  0  0  0  0  0
  149.5631  142.3561  157.6952 H   0  0  0  0  0  0  0  0  0  0  0  0
  150.2611  142.8611  156.1791 H   0  0  0  0  0  0  0  0  0  0  0  0
  151.7478  141.1965  154.9088 H   0  0  0  0  0  0  0  0  0  0  0  0
  152.7171  140.9120  156.3424 H   0  0  0  0  0  0  0  0  0  0  0  0
  151.0659  138.8101  154.8226 H   0  0  0  0  0  0  0  0  0  0  0  0
  152.8147  138.9325  154.8638 H   0  0  0  0  0  0  0  0  0  0  0  0
  149.9063  138.1984  156.8124 H   0  0  0  0  0  0  0  0  0  0  0  0
  150.9263  136.4708  158.2827 H   0  0  0  0  0  0  0  0  0  0  0  0
  151.7814  137.7052  159.1738 H   0  0  0  0  0  0  0  0  0  0  0  0
  149.6168  138.6306  159.9047 H   0  0  0  0  0  0  0  0  0  0  0  0
  144.7553  134.6991  163.3308 H   0  0  0  0  0  0  0  0  0  0  0  0
  151.4956  140.2050  158.5061 H   0  0  0  0  0  0  0  0  0  0  0  0
  149.7461  140.0684  158.4436 H   0  0  0  0  0  0  0  0  0  0  0  0
  149.8123  140.5824  156.1503 H   0  0  0  0  0  0  0  0  0  0  0  0
  1  2  1  0  0  0  0
  1 21  1  0  0  0  0
  1 22  1  0  0  0  0
  1 23  1  0  0  0  0
  2  3  1  0  0  0  0
  2  4  1  0  0  0  0
  2 24  1  0  0  0  0
  3 25  1  0  0  0  0
  3 26  1  0  0  0  0
  3 27  1  0  0  0  0
  4  5  1  0  0  0  0
  4 28  1  0  0  0  0
  4 29  1  0  0  0  0
  5 20  1  0  0  0  0
  5  6  1  0  0  0  0
  5 41  1  0  0  0  0
  6  7  1  0  0  0  0
  6 30  1  0  0  0  0
  6 31  1  0  0  0  0
  7  8  1  0  0  0  0
  7 32  1  0  0  0  0
  7 33  1  0  0  0  0
  8  9  1  0  0  0  0
  9 10  1  0  0  0  0
  9 20  1  0  0  0  0
  9 34  1  0  0  0  0
 10 11  1  0  0  0  0
 10 35  1  0  0  0  0
 10 36  1  0  0  0  0
 11 12  1  0  0  0  0
 11 37  1  0  0  0  0
 12 13  2  0  0  0  0
 12 14  1  0  0  0  0
 14 15  1  0  0  0  0
 15 19  1  0  0  0  0
 15 16  2  0  0  0  0
 16 17  1  0  0  0  0
 17 18  2  0  0  0  0
 18 19  1  0  0  0  0
 18 38  1  0  0  0  0
 20 39  1  0  0  0  0
 20 40  1  0  0  0  0
M  CHG  1   5   1
M  CHG  1  14  -1
M  END
> <s_m_source_file>
AV-unprocessed.smi

> <i_m_source_file_index>
2021

> <i_lp_mmshare_version>
43012

> <i_f3d_flags>
0

> <s_epik_input>
W0NIM11bQ0hdKFtDSDNdKVtDSDJdTjFbQ0gyXVtDSDJdT1tDQEhdKFtDSDJdMSlbQ0gyXVtOSF1DKD1PKVtOSF1jMm5uW2NIXXMy

> <s_epik_cmdline>
J2VwaWtfcHl0aG9uJywgJy1waCcsICc3LjAnLCAnLXRuJywgJzgnLCAnLW1hJywgJzIwMCcsICctbWV0YWxfYmluZGluZycsICctaW1hZScsICc8aW5maWxlLm1hZT4nLCAnLW9tYWUnLCAnPG91dGZpbGUubWFlPic=

> <r_lp_tautomer_probability>
1

> <r_epik_Ionization_Penalty>
3.15762

> <r_epik_Ionization_Penalty_Charging>
3.12229

> <r_epik_Ionization_Penalty_Neutral>
0.0353298

> <r_epik_State_Penalty>
3.11266

> <r_epik_Charging_Adjusted_Penalty>
6.23495

> <i_epik_Tot_Q>
0

> <i_epik_Tot_abs_Q>
2

> <r_epik_Metal_State_Penalty>
0.541462

> <b_epik_Metal_Only>
1

> <s_lp_Force_Field>
OPLS_2005

> <r_lp_Energy>
10.0285

> <b_lp_Chiralities_Consistent>
1

> <s_lp_Variant>
AV-unprocessed.smi:2021-7

> <Gold.Version>
5.8.1

> <Gold.Id.Protein>
6NUR|6NUR_protein|mol2

> <Gold.PLP.Fitness>
44.2702

> <Gold.PLP.PLP>
-31.6653

> <Gold.PLP.part.hbond>
-3.0000

> <Gold.PLP.part.metal>
0.0000

> <Gold.PLP.part.buried>
-5.6986

> <Gold.PLP.part.nonpolar>
-24.0249

> <Gold.PLP.part.repulsive>
1.3191

> <Gold.PLP.ligand.clash>
0.0000

> <Gold.PLP.ligand.torsion>
0.3045

> <Gold.PLP.Chemscore.Hbond>
4.3600

> <Gold.PLP.Chemscore.CHOScore>
0.0000

> <Gold.PLP.Chemscore.Metal>
0.0000

> <Gold.Chemscore.Hbonds>
donor molecule, donor type, donor heavy atom, donor atom, acceptor molecule, acceptor atom, score
      P1  H  6896  6907       L1    13  1.00
      P1  H  6931  6943       L1    14  1.50
      P1  H  6934  6947       L1    14  1.60

> <Gold.PLP.Chemscore.Internal.Correction>
0.1339

> <Gold.Rescore>
     Score         DG    S(hbond)    S(metal)    S(lipo)     H(rot)  DE(clash)    DE(int)     intcor
     12.97     -15.61       1.65        0.00      79.88       1.85       0.49       2.15       ----

> <Gold.Chemscore.Fitness>
12.9705

> <Gold.Chemscore.DG>
-15.6090

> <Gold.Chemscore.ZeroCoef>
-5.4800

> <Gold.Chemscore.Hbond>
1.6498

> <Gold.Chemscore.Metal>
0.0000

> <Gold.Chemscore.Lipo>
79.8791

> <Gold.Chemscore.Internal_Hbond>
0.0000

> <Gold.Chemscore.DEClash>
0.4891

> <Gold.Chemscore.DEInternal>
2.1493

> <Gold.Chemscore.Rot>
1.8466

> <Gold.Chemscore.Internal.Correction>
   9.000000E+99

> <Gold.Chemscore.Hbonds>
donor molecule, donor type, donor heavy atom, donor atom, acceptor molecule, acceptor atom, score
      P1  H  6896  6907       L1    13  0.93
      P1  H  6931  6943       L1    14  0.12
      P1  H  6934  6947       L1    14  0.59

> <Gold.Chemscore.Hbond.Weighted>
-5.5104

> <Gold.Chemscore.Metal.Weighted>
-0.0000

> <Gold.Chemscore.Lipo.Weighted>
-9.3459

> <Gold.Chemscore.Internal_Hbond.Weighted>
0.0000

> <Gold.Chemscore.DEClash.Weighted>
0.4891

> <Gold.Chemscore.DEInternal.Weighted>
2.1493

> <Gold.Chemscore.Rot.Weighted>
4.7272

> <Gold.Chemscore.Internal.Correction.Weighted>
   9.000000E+99

> <Gold.Protein.RotatedTorsions>
[ 6907 6896 6895 6894 ] final  -55.53 input  -60.11 | X-H torsion
[ 7974 7965 7964 7962 ] final -146.65 input  175.53 | X-H torsion
[ 8008 7997 7996 7995 ] final   68.20 input   59.86 | X-H torsion
[ 10167 10162 10161 10158 ] final  139.33 input  -65.29 | X-H torsion
[ 10718 10713 10712 10709 ] final  -26.35 input   66.30 | X-H torsion
[ 10763 10752 10751 10750 ] final  177.11 input  -60.55 | X-H torsion
[ 11005 11000 10999 10996 ] final   27.43 input  -57.11 | X-H torsion

> <Gold.Protein.ActiveResidues>
 VAL166  LYS551  ARG553  GLY616  TRP617  ASP618  TYR619  PRO620  LYS621  CYS622 
 ASP623  PHE694  ASN695  SER759  ASP760  ASP761  ALA762  ILE779  LEU786  VAL792 
 PHE793  MET794  SER795  GLU796  ALA797  LYS798  CYS799  TRP800  GLU811  SER814 

> <Gold.Protein.RotatedAtoms>
  150.8244  134.7467  159.6799 H   0  0  0  0  0  0  0  0  0  0  0  0  # atno 6907 bound_to 6896
  152.4356  134.5689  159.9925 H   0  0  0  0  0  0  0  0  0  0  0  0  # atno 6908 bound_to 6896
  151.5865  133.3334  159.3055 H   0  0  0  0  0  0  0  0  0  0  0  0  # atno 6909 bound_to 6896
  144.8145  140.5428  143.5620 H   0  0  0  0  0  0  0  0  0  0  0  0  # atno 7974 bound_to 7965
  155.7047  140.3495  155.4948 H   0  0  0  0  0  0  0  0  0  0  0  0  # atno 8008 bound_to 7997
  155.9409  140.1101  157.1078 H   0  0  0  0  0  0  0  0  0  0  0  0  # atno 8009 bound_to 7997
  154.4102  140.1213  156.4913 H   0  0  0  0  0  0  0  0  0  0  0  0  # atno 8010 bound_to 7997
  139.5082  144.6301  151.5840 H   0  0  0  0  0  0  0  0  0  0  0  0  # atno 10167 bound_to 10162
  156.4524  130.4487  149.6981 H   0  0  0  0  0  0  0  0  0  0  0  0  # atno 10718 bound_to 10713
  154.4901  135.2778  155.1503 H   0  0  0  0  0  0  0  0  0  0  0  0  # atno 10763 bound_to 10752
  154.3178  135.6216  153.5498 H   0  0  0  0  0  0  0  0  0  0  0  0  # atno 10764 bound_to 10752
  152.9887  135.5735  154.5321 H   0  0  0  0  0  0  0  0  0  0  0  0  # atno 10765 bound_to 10752
  140.3263  134.2487  155.7709 H   0  0  0  0  0  0  0  0  0  0  0  0  # atno 11005 bound_to 11000
  145.5246  139.1476  143.3533 LP  0  0  0  0  0  0  0  0  0  0  0  0  # atno 17320 bound_to 7965
  146.2447  140.5387  142.8919 LP  0  0  0  0  0  0  0  0  0  0  0  0  # atno 17321 bound_to 7965
  140.6030  143.9574  150.6399 LP  0  0  0  0  0  0  0  0  0  0  0  0  # atno 17342 bound_to 10162
  140.2792  143.3401  152.1166 LP  0  0  0  0  0  0  0  0  0  0  0  0  # atno 17343 bound_to 10162
  156.3802  130.7575  151.2567 LP  0  0  0  0  0  0  0  0  0  0  0  0  # atno 17370 bound_to 10713
  157.7502  131.0298  150.4108 LP  0  0  0  0  0  0  0  0  0  0  0  0  # atno 17371 bound_to 10713
  141.2074  133.7806  157.0119 LP  0  0  0  0  0  0  0  0  0  0  0  0  # atno 17394 bound_to 11000
  140.0898  134.9599  157.1759 LP  0  0  0  0  0  0  0  0  0  0  0  0  # atno 17395 bound_to 11000

$$$$
