AV-unprocessed.smi:2899|AV-procd|sdf|11144|dock7
  -GOLD-   2272016 23D 1   1.00000     0.00000
 Structure written by MMmdl.
 30 32  0  0  0  0  0  0  0  0  1 V2000
  147.5148  140.6562  153.6139 C   0  0  0  0  0  0  0  0  0  0  0  0
  148.7486  140.6382  154.4909 C   0  0  0  0  0  0  0  0  0  0  0  0
  149.6947  139.5952  154.4150 C   0  0  0  0  0  0  0  0  0  0  0  0
  150.7996  139.6950  155.2847 C   0  0  0  0  0  0  0  0  0  0  0  0
  150.9420  140.7323  156.1388 N   0  0  0  0  0  0  0  0  0  0  0  0
  149.9868  141.6654  156.1262 C   0  0  0  0  0  0  0  0  0  0  0  0
  150.1685  142.7123  157.0112 N   0  0  0  0  0  0  0  0  0  0  0  0
  150.5295  142.5571  158.4157 C   0  0  1  0  0  0  0  0  0  0  0  0
  151.9692  142.0794  158.6187 C   0  0  0  0  0  0  0  0  0  0  0  0
  152.5196  143.1415  159.5819 C   0  0  1  0  0  0  0  0  0  0  0  0
  152.7947  144.4669  158.8601 C   0  0  0  0  0  0  0  0  0  0  0  0
  151.3791  144.9856  158.6148 C   0  0  0  0  0  0  0  0  0  0  0  0
  150.5186  143.8673  159.2275 C   0  0  2  0  0  0  0  0  0  0  0  0
  151.3505  143.4818  160.3090 O   0  0  0  0  0  0  0  0  0  0  0  0
  148.8975  141.6717  155.3481 N   0  0  0  0  0  0  0  0  0  0  0  0
  147.4546  139.7571  153.0001 H   0  0  0  0  0  0  0  0  0  0  0  0
  147.5338  141.5217  152.9510 H   0  0  0  0  0  0  0  0  0  0  0  0
  146.6146  140.7112  154.2265 H   0  0  0  0  0  0  0  0  0  0  0  0
  149.5835  138.7658  153.7324 H   0  0  0  0  0  0  0  0  0  0  0  0
  151.5719  138.9403  155.2953 H   0  0  0  0  0  0  0  0  0  0  0  0
  149.9270  143.6360  156.6834 H   0  0  0  0  0  0  0  0  0  0  0  0
  149.8530  141.8376  158.8794 H   0  0  0  0  0  0  0  0  0  0  0  0
  151.9772  141.0916  159.0808 H   0  0  0  0  0  0  0  0  0  0  0  0
  152.5500  142.0253  157.6967 H   0  0  0  0  0  0  0  0  0  0  0  0
  153.3487  142.7935  160.1985 H   0  0  0  0  0  0  0  0  0  0  0  0
  153.3471  145.1532  159.5028 H   0  0  0  0  0  0  0  0  0  0  0  0
  153.3615  144.3290  157.9386 H   0  0  0  0  0  0  0  0  0  0  0  0
  151.2226  145.9233  159.1489 H   0  0  0  0  0  0  0  0  0  0  0  0
  151.1653  145.1612  157.5603 H   0  0  0  0  0  0  0  0  0  0  0  0
  149.5229  144.1935  159.5292 H   0  0  0  0  0  0  0  0  0  0  0  0
  1  2  1  0  0  0  0
  1 16  1  0  0  0  0
  1 17  1  0  0  0  0
  1 18  1  0  0  0  0
  2 15  1  0  0  0  0
  2  3  2  0  0  0  0
  3  4  1  0  0  0  0
  3 19  1  0  0  0  0
  4  5  2  0  0  0  0
  4 20  1  0  0  0  0
  5  6  1  0  0  0  0
  6  7  1  0  0  0  0
  6 15  2  0  0  0  0
  7  8  1  0  0  0  0
  7 21  1  0  0  0  0
  8 13  1  0  0  0  0
  8  9  1  0  0  0  0
  8 22  1  0  0  0  0
  9 10  1  0  0  0  0
  9 23  1  0  0  0  0
  9 24  1  0  0  0  0
 10 14  1  0  0  0  0
 10 11  1  0  0  0  0
 10 25  1  0  0  0  0
 11 12  1  0  0  0  0
 11 26  1  0  0  0  0
 11 27  1  0  0  0  0
 12 13  1  0  0  0  0
 12 28  1  0  0  0  0
 12 29  1  0  0  0  0
 13 14  1  0  0  0  0
 13 30  1  0  0  0  0
M  END
> <s_m_source_file>
AV-unprocessed.smi

> <i_m_source_file_index>
2899

> <i_lp_mmshare_version>
43012

> <i_f3d_flags>
0

> <s_epik_input>
W0NIM11jMVtjSF1bY0hdbmMobjEpW05IXVtDQEhdKFtDSDJdW0NAQEhdMjMpW0NAQEhdKE8zKVtDSDJdW0NIMl0y

> <s_epik_cmdline>
J2VwaWtfcHl0aG9uJywgJy1waCcsICc3LjAnLCAnLXRuJywgJzgnLCAnLW1hJywgJzIwMCcsICctbWV0YWxfYmluZGluZycsICctaW1hZScsICc8aW5maWxlLm1hZT4nLCAnLW9tYWUnLCAnPG91dGZpbGUubWFlPic=

> <r_lp_tautomer_probability>
1

> <r_epik_Ionization_Penalty>
0.00589655

> <r_epik_Ionization_Penalty_Charging>
0

> <r_epik_Ionization_Penalty_Neutral>
0.00589655

> <r_epik_State_Penalty>
0.00375391

> <r_epik_Charging_Adjusted_Penalty>
0.00375391

> <i_epik_Tot_Q>
0

> <i_epik_Tot_abs_Q>
0

> <r_epik_Metal_State_Penalty>
-0

> <b_epik_Metal_Only>
0

> <s_lp_Force_Field>
OPLS_2005

> <r_lp_Energy>
31.8412

> <b_lp_Chiralities_Consistent>
1

> <s_lp_Variant>
AV-unprocessed.smi:2899-2

> <Gold.Version>
5.8.1

> <Gold.Id.Protein>
6NUR|6NUR_protein|mol2

> <Gold.PLP.Fitness>
36.1192

> <Gold.PLP.PLP>
-34.0632

> <Gold.PLP.part.hbond>
-1.3421

> <Gold.PLP.part.metal>
0.0000

> <Gold.PLP.part.buried>
-3.3870

> <Gold.PLP.part.nonpolar>
-28.6528

> <Gold.PLP.part.repulsive>
0.5686

> <Gold.PLP.ligand.clash>
0.0000

> <Gold.PLP.ligand.torsion>
0.4764

> <Gold.PLP.Chemscore.Hbond>
1.0000

> <Gold.PLP.Chemscore.CHOScore>
0.0000

> <Gold.PLP.Chemscore.Metal>
0.0000

> <Gold.Chemscore.Hbonds>
donor molecule, donor type, donor heavy atom, donor atom, acceptor molecule, acceptor atom, score
      L1  H     7    21       P1  8028  1.00

> <Gold.PLP.Chemscore.Internal.Correction>
0.0088

> <Gold.Rescore>
     Score         DG    S(hbond)    S(metal)    S(lipo)     H(rot)  DE(clash)    DE(int)     intcor
     16.14     -16.78       0.99        0.00      90.27       1.00       0.02       0.62       ----

> <Gold.Chemscore.Fitness>
16.1423

> <Gold.Chemscore.DG>
-16.7829

> <Gold.Chemscore.ZeroCoef>
-5.4800

> <Gold.Chemscore.Hbond>
0.9886

> <Gold.Chemscore.Metal>
0.0000

> <Gold.Chemscore.Lipo>
90.2653

> <Gold.Chemscore.Internal_Hbond>
0.0000

> <Gold.Chemscore.DEClash>
0.0174

> <Gold.Chemscore.DEInternal>
0.6232

> <Gold.Chemscore.Rot>
1.0000

> <Gold.Chemscore.Internal.Correction>
   9.000000E+99

> <Gold.Chemscore.Hbonds>
donor molecule, donor type, donor heavy atom, donor atom, acceptor molecule, acceptor atom, score
      L1  H     7    21       P1  8028  0.95

> <Gold.Chemscore.Hbond.Weighted>
-3.3018

> <Gold.Chemscore.Metal.Weighted>
-0.0000

> <Gold.Chemscore.Lipo.Weighted>
-10.5610

> <Gold.Chemscore.Internal_Hbond.Weighted>
0.0000

> <Gold.Chemscore.DEClash.Weighted>
0.0174

> <Gold.Chemscore.DEInternal.Weighted>
0.6232

> <Gold.Chemscore.Rot.Weighted>
2.5600

> <Gold.Chemscore.Internal.Correction.Weighted>
   9.000000E+99

> <Gold.Protein.RotatedTorsions>
[ 6907 6896 6895 6894 ] final  133.70 input  -60.11 | X-H torsion
[ 7974 7965 7964 7962 ] final  147.21 input  175.53 | X-H torsion
[ 8008 7997 7996 7995 ] final -163.87 input   59.86 | X-H torsion
[ 10167 10162 10161 10158 ] final -122.82 input  -65.29 | X-H torsion
[ 10718 10713 10712 10709 ] final -134.76 input   66.30 | X-H torsion
[ 10763 10752 10751 10750 ] final -171.60 input  -60.55 | X-H torsion
[ 11005 11000 10999 10996 ] final -164.35 input  -57.11 | X-H torsion

> <Gold.Protein.ActiveResidues>
 VAL166  LYS551  ARG553  GLY616  TRP617  ASP618  TYR619  PRO620  LYS621  CYS622 
 ASP623  PHE694  ASN695  SER759  ASP760  ASP761  ALA762  ILE779  LEU786  VAL792 
 PHE793  MET794  SER795  GLU796  ALA797  LYS798  CYS799  TRP800  GLU811  SER814 

> <Gold.Protein.RotatedAtoms>
  152.3192  133.5835  159.5732 H   0  0  0  0  0  0  0  0  0  0  0  0  # atno 6907 bound_to 6896
  150.7362  134.0037  159.3655 H   0  0  0  0  0  0  0  0  0  0  0  0  # atno 6908 bound_to 6896
  151.7923  135.0733  160.0440 H   0  0  0  0  0  0  0  0  0  0  0  0  # atno 6909 bound_to 6896
  144.8609  139.6001  143.5931 H   0  0  0  0  0  0  0  0  0  0  0  0  # atno 7974 bound_to 7965
  155.8274  140.0929  157.1813 H   0  0  0  0  0  0  0  0  0  0  0  0  # atno 8008 bound_to 7997
  154.3979  140.1425  156.3634 H   0  0  0  0  0  0  0  0  0  0  0  0  # atno 8009 bound_to 7997
  155.8202  140.3446  155.5512 H   0  0  0  0  0  0  0  0  0  0  0  0  # atno 8010 bound_to 7997
  140.0102  143.5450  152.2266 H   0  0  0  0  0  0  0  0  0  0  0  0  # atno 10167 bound_to 10162
  156.2589  130.7197  151.1124 H   0  0  0  0  0  0  0  0  0  0  0  0  # atno 10718 bound_to 10713
  154.6286  135.2884  155.0242 H   0  0  0  0  0  0  0  0  0  0  0  0  # atno 10763 bound_to 10752
  154.1411  135.6518  153.4946 H   0  0  0  0  0  0  0  0  0  0  0  0  # atno 10764 bound_to 10752
  153.0269  135.5333  154.7105 H   0  0  0  0  0  0  0  0  0  0  0  0  # atno 10765 bound_to 10752
  140.5879  134.5075  157.5188 H   0  0  0  0  0  0  0  0  0  0  0  0  # atno 11005 bound_to 11000
  146.2860  139.7005  142.9195 LP  0  0  0  0  0  0  0  0  0  0  0  0  # atno 17320 bound_to 7965
  145.4314  141.0415  143.2908 LP  0  0  0  0  0  0  0  0  0  0  0  0  # atno 17321 bound_to 7965
  139.6210  144.7629  151.2740 LP  0  0  0  0  0  0  0  0  0  0  0  0  # atno 17342 bound_to 10162
  140.7384  143.6648  150.8133 LP  0  0  0  0  0  0  0  0  0  0  0  0  # atno 17343 bound_to 10162
  157.7243  131.0661  150.6001 LP  0  0  0  0  0  0  0  0  0  0  0  0  # atno 17370 bound_to 10713
  156.6087  130.4374  149.5867 LP  0  0  0  0  0  0  0  0  0  0  0  0  # atno 17371 bound_to 10713
  139.9287  134.8005  156.0992 LP  0  0  0  0  0  0  0  0  0  0  0  0  # atno 17394 bound_to 11000
  141.0954  133.6697  156.2634 LP  0  0  0  0  0  0  0  0  0  0  0  0  # atno 17395 bound_to 11000

$$$$
