AV-unprocessed.smi:802|AV-procd|sdf|3791|dock4
  -GOLD-   22720 1223D 1   1.00000     0.00000
 Structure written by MMmdl.
 38 39  0  0  0  0  0  0  0  0  1 V2000
  146.9740  141.5615  153.9805 C   0  0  0  0  0  0  0  0  0  0  0  0
  148.2224  140.7534  154.1777 C   0  0  0  0  0  0  0  0  0  0  0  0
  148.3562  139.3412  154.2732 C   0  0  0  0  0  0  0  0  0  0  0  0
  149.6972  139.1566  154.4570 C   0  0  0  0  0  0  0  0  0  0  0  0
  150.5404  137.9416  154.6442 C   0  0  0  0  0  0  0  0  0  0  0  0
  152.0034  138.3707  155.6755 S   0  0  0  0  0  0  0  0  0  0  0  0
  152.7464  137.1417  155.9927 O   0  0  0  0  0  0  0  0  0  0  0  0
  152.6959  139.5064  155.0474 O   0  0  0  0  0  0  0  0  0  0  0  0
  151.2765  138.9275  157.1388 N   0  0  0  0  0  0  0  0  0  0  0  0
  152.1355  139.4064  158.2260 C   0  0  0  0  0  0  0  0  0  0  0  0
  151.8682  140.8880  158.5635 C   0  0  0  0  0  0  0  0  0  0  0  0
  151.4639  141.7166  157.3256 C   0  0  0  0  0  0  0  0  0  0  0  0
  151.1334  143.1698  157.7045 C   0  0  0  0  0  0  0  0  0  0  0  0
  152.3018  143.8311  158.4524 C   0  0  0  0  0  0  0  0  0  0  0  0
  152.7013  143.0143  159.6914 C   0  0  0  0  0  0  0  0  0  0  0  0
  153.0349  141.5608  159.3175 C   0  0  0  0  0  0  0  0  0  0  0  0
  150.3383  140.3537  154.4678 O   0  0  0  0  0  0  0  0  0  0  0  0
  149.3893  141.3661  154.2900 N   0  0  0  0  0  0  0  0  0  0  0  0
  146.1421  140.9297  153.6692 H   0  0  0  0  0  0  0  0  0  0  0  0
  147.1136  142.3256  153.2151 H   0  0  0  0  0  0  0  0  0  0  0  0
  146.6831  142.0625  154.9040 H   0  0  0  0  0  0  0  0  0  0  0  0
  147.5886  138.5834  154.2224 H   0  0  0  0  0  0  0  0  0  0  0  0
  149.9804  137.1524  155.1458 H   0  0  0  0  0  0  0  0  0  0  0  0
  150.8877  137.5571  153.6853 H   0  0  0  0  0  0  0  0  0  0  0  0
  150.5829  138.2639  157.4828 H   0  0  0  0  0  0  0  0  0  0  0  0
  151.9556  138.7867  159.1048 H   0  0  0  0  0  0  0  0  0  0  0  0
  153.1832  139.2609  157.9603 H   0  0  0  0  0  0  0  0  0  0  0  0
  151.0118  140.8930  159.2396 H   0  0  0  0  0  0  0  0  0  0  0  0
  152.2716  141.7129  156.5925 H   0  0  0  0  0  0  0  0  0  0  0  0
  150.6013  141.2623  156.8371 H   0  0  0  0  0  0  0  0  0  0  0  0
  150.8945  143.7422  156.8079 H   0  0  0  0  0  0  0  0  0  0  0  0
  150.2409  143.1898  158.3312 H   0  0  0  0  0  0  0  0  0  0  0  0
  153.1586  143.9235  157.7838 H   0  0  0  0  0  0  0  0  0  0  0  0
  152.0285  144.8446  158.7472 H   0  0  0  0  0  0  0  0  0  0  0  0
  153.5587  143.4777  160.1805 H   0  0  0  0  0  0  0  0  0  0  0  0
  151.8872  143.0282  160.4170 H   0  0  0  0  0  0  0  0  0  0  0  0
  153.2713  140.9967  160.2201 H   0  0  0  0  0  0  0  0  0  0  0  0
  153.9340  141.5495  158.7005 H   0  0  0  0  0  0  0  0  0  0  0  0
  1  2  1  0  0  0  0
  1 19  1  0  0  0  0
  1 20  1  0  0  0  0
  1 21  1  0  0  0  0
  2 18  2  0  0  0  0
  2  3  1  0  0  0  0
  3  4  2  0  0  0  0
  3 22  1  0  0  0  0
  4  5  1  0  0  0  0
  4 17  1  0  0  0  0
  5  6  1  0  0  0  0
  5 23  1  0  0  0  0
  5 24  1  0  0  0  0
  6  7  2  0  0  0  0
  6  8  2  0  0  0  0
  6  9  1  0  0  0  0
  9 10  1  0  0  0  0
  9 25  1  0  0  0  0
 10 11  1  0  0  0  0
 10 26  1  0  0  0  0
 10 27  1  0  0  0  0
 11 16  1  0  0  0  0
 11 12  1  0  0  0  0
 11 28  1  0  0  0  0
 12 13  1  0  0  0  0
 12 29  1  0  0  0  0
 12 30  1  0  0  0  0
 13 14  1  0  0  0  0
 13 31  1  0  0  0  0
 13 32  1  0  0  0  0
 14 15  1  0  0  0  0
 14 33  1  0  0  0  0
 14 34  1  0  0  0  0
 15 16  1  0  0  0  0
 15 35  1  0  0  0  0
 15 36  1  0  0  0  0
 16 37  1  0  0  0  0
 16 38  1  0  0  0  0
 17 18  1  0  0  0  0
M  END
> <s_m_source_file>
AV-unprocessed.smi

> <i_m_source_file_index>
802

> <i_lp_mmshare_version>
43012

> <i_f3d_flags>
0

> <s_epik_input>
W0NIM11jMVtjSF1jKG9uMSlbQ0gyXVMoPU8pKD1PKVtOSF1bQ0gyXVtDSF0yW0NIMl1bQ0gyXVtDSDJdW0NIMl1bQ0gyXTI=

> <s_epik_cmdline>
J2VwaWtfcHl0aG9uJywgJy1waCcsICc3LjAnLCAnLXRuJywgJzgnLCAnLW1hJywgJzIwMCcsICctbWV0YWxfYmluZGluZycsICctaW1hZScsICc8aW5maWxlLm1hZT4nLCAnLW9tYWUnLCAnPG91dGZpbGUubWFlPic=

> <r_lp_tautomer_probability>
1

> <r_epik_Ionization_Penalty>
5.14394e-05

> <r_epik_Ionization_Penalty_Charging>
0

> <r_epik_Ionization_Penalty_Neutral>
5.14394e-05

> <r_epik_State_Penalty>
-0

> <r_epik_Charging_Adjusted_Penalty>
0

> <i_epik_Tot_Q>
0

> <i_epik_Tot_abs_Q>
0

> <r_epik_Metal_State_Penalty>
0.0455401

> <b_epik_Metal_Only>
0

> <s_lp_Force_Field>
OPLS_2005

> <r_lp_Energy>
6.71551

> <b_lp_Chiralities_Consistent>
1

> <s_lp_Variant>
AV-unprocessed.smi:802-1

> <Gold.Version>
5.8.1

> <Gold.Id.Protein>
6NUR|6NUR_protein|mol2

> <Gold.PLP.Fitness>
48.3265

> <Gold.PLP.PLP>
-41.1543

> <Gold.PLP.part.hbond>
-5.7536

> <Gold.PLP.part.metal>
0.0000

> <Gold.PLP.part.buried>
-3.5328

> <Gold.PLP.part.nonpolar>
-31.4036

> <Gold.PLP.part.repulsive>
0.3230

> <Gold.PLP.ligand.clash>
0.0000

> <Gold.PLP.ligand.torsion>
1.0704

> <Gold.PLP.Chemscore.Hbond>
3.0480

> <Gold.PLP.Chemscore.CHOScore>
0.0000

> <Gold.PLP.Chemscore.Metal>
0.0000

> <Gold.Chemscore.Hbonds>
donor molecule, donor type, donor heavy atom, donor atom, acceptor molecule, acceptor atom, score
      P1  H  7989  7998       L1    17  1.00
      P1  H  7997  8009       L1     8  0.91
      P1  H  8011  8017       L1    18  0.29
      P1  H 10752 10765       L1     7  0.58

> <Gold.PLP.Chemscore.Internal.Correction>
0.1689

> <Gold.Rescore>
     Score         DG    S(hbond)    S(metal)    S(lipo)     H(rot)  DE(clash)    DE(int)     intcor
     16.81     -19.41       2.33        0.00      90.62       1.74       0.05       2.56       ----

> <Gold.Chemscore.Fitness>
16.8100

> <Gold.Chemscore.DG>
-19.4108

> <Gold.Chemscore.ZeroCoef>
-5.4800

> <Gold.Chemscore.Hbond>
2.3327

> <Gold.Chemscore.Metal>
0.0000

> <Gold.Chemscore.Lipo>
90.6173

> <Gold.Chemscore.Internal_Hbond>
0.0000

> <Gold.Chemscore.DEClash>
0.0451

> <Gold.Chemscore.DEInternal>
2.5558

> <Gold.Chemscore.Rot>
1.7432

> <Gold.Chemscore.Internal.Correction>
   9.000000E+99

> <Gold.Chemscore.Hbonds>
donor molecule, donor type, donor heavy atom, donor atom, acceptor molecule, acceptor atom, score
      P1  H  7989  7998       L1    17  0.33
      P1  H  7997  8009       L1     8  0.79
      P1  H  8011  8017       L1    18  0.13
      P1  H 10752 10765       L1     7  0.56

> <Gold.Chemscore.Hbond.Weighted>
-7.7913

> <Gold.Chemscore.Metal.Weighted>
-0.0000

> <Gold.Chemscore.Lipo.Weighted>
-10.6022

> <Gold.Chemscore.Internal_Hbond.Weighted>
0.0000

> <Gold.Chemscore.DEClash.Weighted>
0.0451

> <Gold.Chemscore.DEInternal.Weighted>
2.5558

> <Gold.Chemscore.Rot.Weighted>
4.4626

> <Gold.Chemscore.Internal.Correction.Weighted>
   9.000000E+99

> <Gold.Protein.RotatedTorsions>
[ 6907 6896 6895 6894 ] final -142.02 input  -60.11 | X-H torsion
[ 7974 7965 7964 7962 ] final    2.35 input  175.53 | X-H torsion
[ 8008 7997 7996 7995 ] final -146.46 input   59.86 | X-H torsion
[ 10167 10162 10161 10158 ] final    9.59 input  -65.29 | X-H torsion
[ 10718 10713 10712 10709 ] final  -62.61 input   66.30 | X-H torsion
[ 10763 10752 10751 10750 ] final -170.92 input  -60.55 | X-H torsion
[ 11005 11000 10999 10996 ] final  -66.98 input  -57.11 | X-H torsion

> <Gold.Protein.ActiveResidues>
 VAL166  LYS551  ARG553  GLY616  TRP617  ASP618  TYR619  PRO620  LYS621  CYS622 
 ASP623  PHE694  ASN695  SER759  ASP760  ASP761  ALA762  ILE779  LEU786  VAL792 
 PHE793  MET794  SER795  GLU796  ALA797  LYS798  CYS799  TRP800  GLU811  SER814 

> <Gold.Protein.RotatedAtoms>
  151.0815  133.5386  159.2620 H   0  0  0  0  0  0  0  0  0  0  0  0  # atno 6907 bound_to 6896
  151.2288  135.0546  159.8989 H   0  0  0  0  0  0  0  0  0  0  0  0  # atno 6908 bound_to 6896
  152.5424  134.0607  159.8204 H   0  0  0  0  0  0  0  0  0  0  0  0  # atno 6909 bound_to 6896
  146.2443  140.0850  142.8355 H   0  0  0  0  0  0  0  0  0  0  0  0  # atno 7974 bound_to 7965
  155.5597  140.0624  157.2831 H   0  0  0  0  0  0  0  0  0  0  0  0  # atno 8008 bound_to 7997
  154.4394  140.1888  156.0815 H   0  0  0  0  0  0  0  0  0  0  0  0  # atno 8009 bound_to 7997
  156.0456  140.3290  155.7296 H   0  0  0  0  0  0  0  0  0  0  0  0  # atno 8010 bound_to 7997
  140.6246  143.8130  150.7217 H   0  0  0  0  0  0  0  0  0  0  0  0  # atno 10167 bound_to 10162
  156.0844  130.4211  150.1160 H   0  0  0  0  0  0  0  0  0  0  0  0  # atno 10718 bound_to 10713
  154.6362  135.2892  155.0158 H   0  0  0  0  0  0  0  0  0  0  0  0  # atno 10763 bound_to 10752
  154.1301  135.6534  153.4924 H   0  0  0  0  0  0  0  0  0  0  0  0  # atno 10764 bound_to 10752
  153.0303  135.5308  154.7209 H   0  0  0  0  0  0  0  0  0  0  0  0  # atno 10765 bound_to 10752
  141.1496  133.6710  156.6222 H   0  0  0  0  0  0  0  0  0  0  0  0  # atno 11005 bound_to 11000
  145.0700  140.9149  143.4887 LP  0  0  0  0  0  0  0  0  0  0  0  0  # atno 17320 bound_to 7965
  145.0982  139.2841  143.5700 LP  0  0  0  0  0  0  0  0  0  0  0  0  # atno 17321 bound_to 7965
  140.1728  143.4180  152.1989 LP  0  0  0  0  0  0  0  0  0  0  0  0  # atno 17342 bound_to 10162
  139.5468  144.7305  151.4558 LP  0  0  0  0  0  0  0  0  0  0  0  0  # atno 17343 bound_to 10162
  156.9184  130.9675  151.3552 LP  0  0  0  0  0  0  0  0  0  0  0  0  # atno 17370 bound_to 10713
  157.5973  130.8486  149.8748 LP  0  0  0  0  0  0  0  0  0  0  0  0  # atno 17371 bound_to 10713
  140.3531  134.7751  157.4481 LP  0  0  0  0  0  0  0  0  0  0  0  0  # atno 17394 bound_to 11000
  140.0844  134.5686  155.8507 LP  0  0  0  0  0  0  0  0  0  0  0  0  # atno 17395 bound_to 11000

$$$$
