AV-unprocessed.smi:771|AV-procd|sdf|3681|dock10
  -GOLD-   22720 1 93D 1   1.00000     0.00000
 Structure written by MMmdl.
 41 42  0  0  0  0  0  0  0  0  3 V2000
  146.2194  137.4226  155.2010 O   0  0  0  0  0  0  0  0  0  0  0  0
  146.7692  137.2725  154.1089 C   0  0  0  0  0  0  0  0  0  0  0  0
  147.2492  138.4839  153.2966 C   0  0  0  0  0  0  0  0  0  0  0  0
  148.2858  139.2725  153.9840 N   0  0  0  0  0  0  0  0  0  0  0  0
  149.5286  138.6449  154.2013 C   0  0  0  0  0  0  0  0  0  0  0  0
  150.5514  139.2743  154.8120 C   0  0  0  0  0  0  0  0  0  0  0  0
  151.8230  138.6171  155.0207 N   0  3  0  0  0  0  0  0  0  0  0  0
  151.9544  137.4570  154.6435 O   0  0  0  0  0  0  0  0  0  0  0  0
  152.7314  139.2366  155.5663 O   0  5  0  0  0  0  0  0  0  0  0  0
  150.3368  140.6396  155.2515 C   0  0  0  0  0  0  0  0  0  0  0  0
  149.1520  141.2467  155.0424 C   0  0  0  0  0  0  0  0  0  0  0  0
  148.0424  140.5618  154.3716 C   0  0  0  0  0  0  0  0  0  0  0  0
  146.9603  141.1134  154.1707 O   0  0  0  0  0  0  0  0  0  0  0  0
  146.9650  136.0723  153.5414 N   0  0  0  0  0  0  0  0  0  0  0  0
  146.5834  134.7861  154.1199 C   0  0  0  0  0  0  0  0  0  0  0  0
  145.9392  133.8349  153.0825 C   0  0  2  0  0  0  0  0  0  0  0  0
  146.8349  133.6546  151.8332 C   0  0  0  0  0  0  0  0  0  0  0  0
  146.1874  132.7481  150.7753 C   0  0  0  0  0  0  0  0  0  0  0  0
  144.8079  133.2764  150.3630 C   0  0  0  0  0  0  0  0  0  0  0  0
  143.8962  133.4248  151.5877 C   0  0  0  0  0  0  0  0  0  0  0  0
  144.5332  134.3307  152.6582 C   0  0  1  0  0  0  0  0  0  0  0  0
  143.6617  134.3566  153.7711 O   0  0  0  0  0  0  0  0  0  0  0  0
  147.6133  138.1461  152.3244 H   0  0  0  0  0  0  0  0  0  0  0  0
  146.3819  139.1072  153.0744 H   0  0  0  0  0  0  0  0  0  0  0  0
  149.5897  137.6316  153.8309 H   0  0  0  0  0  0  0  0  0  0  0  0
  151.1239  141.1853  155.7509 H   0  0  0  0  0  0  0  0  0  0  0  0
  149.0140  142.2643  155.3776 H   0  0  0  0  0  0  0  0  0  0  0  0
  147.4195  136.0458  152.6402 H   0  0  0  0  0  0  0  0  0  0  0  0
  147.4948  134.3417  154.5202 H   0  0  0  0  0  0  0  0  0  0  0  0
  145.9173  134.9198  154.9739 H   0  0  0  0  0  0  0  0  0  0  0  0
  145.8236  132.8556  153.5500 H   0  0  0  0  0  0  0  0  0  0  0  0
  147.0489  134.6293  151.3926 H   0  0  0  0  0  0  0  0  0  0  0  0
  147.7977  133.2267  152.1118 H   0  0  0  0  0  0  0  0  0  0  0  0
  146.8345  132.6785  149.9005 H   0  0  0  0  0  0  0  0  0  0  0  0
  146.0902  131.7359  151.1698 H   0  0  0  0  0  0  0  0  0  0  0  0
  144.9165  134.2409  149.8651 H   0  0  0  0  0  0  0  0  0  0  0  0
  144.3518  132.6015  149.6381 H   0  0  0  0  0  0  0  0  0  0  0  0
  142.9320  133.8312  151.2792 H   0  0  0  0  0  0  0  0  0  0  0  0
  143.6958  132.4379  152.0075 H   0  0  0  0  0  0  0  0  0  0  0  0
  144.6098  135.3462  152.2670 H   0  0  0  0  0  0  0  0  0  0  0  0
  143.4690  133.4665  154.0232 H   0  0  0  0  0  0  0  0  0  0  0  0
  1  2  2  0  0  0  0
  2  3  1  0  0  0  0
  2 14  1  0  0  0  0
  3  4  1  0  0  0  0
  3 23  1  0  0  0  0
  3 24  1  0  0  0  0
  4 12  1  0  0  0  0
  4  5  1  0  0  0  0
  5  6  2  0  0  0  0
  5 25  1  0  0  0  0
  6  7  1  0  0  0  0
  6 10  1  0  0  0  0
  7  8  2  0  0  0  0
  7  9  1  0  0  0  0
 10 11  2  0  0  0  0
 10 26  1  0  0  0  0
 11 12  1  0  0  0  0
 11 27  1  0  0  0  0
 12 13  2  0  0  0  0
 14 15  1  0  0  0  0
 14 28  1  0  0  0  0
 15 16  1  0  0  0  0
 15 29  1  0  0  0  0
 15 30  1  0  0  0  0
 16 21  1  0  0  0  0
 16 17  1  0  0  0  0
 16 31  1  0  0  0  0
 17 18  1  0  0  0  0
 17 32  1  0  0  0  0
 17 33  1  0  0  0  0
 18 19  1  0  0  0  0
 18 34  1  0  0  0  0
 18 35  1  0  0  0  0
 19 20  1  0  0  0  0
 19 36  1  0  0  0  0
 19 37  1  0  0  0  0
 20 21  1  0  0  0  0
 20 38  1  0  0  0  0
 20 39  1  0  0  0  0
 21 22  1  0  0  0  0
 21 40  1  0  0  0  0
 22 41  1  0  0  0  0
M  CHG  1   7   1
M  CHG  1   9  -1
M  END
> <s_m_source_file>
AV-unprocessed.smi

> <i_m_source_file_index>
771

> <i_lp_mmshare_version>
43012

> <i_f3d_flags>
0

> <s_epik_input>
Tz1jMVtjSF1bY0hdYyhbTitdKD1PKVtPLV0pW2NIXW4xW0NIMl1DKD1PKVtOSF1bQ0gyXVtDQEBIXTJbQ0gyXVtDSDJdW0NIMl1bQ0gyXVtDQEhdMltPSF0=

> <s_epik_cmdline>
J2VwaWtfcHl0aG9uJywgJy1waCcsICc3LjAnLCAnLXRuJywgJzgnLCAnLW1hJywgJzIwMCcsICctbWV0YWxfYmluZGluZycsICctaW1hZScsICc8aW5maWxlLm1hZT4nLCAnLW9tYWUnLCAnPG91dGZpbGUubWFlPic=

> <r_lp_tautomer_probability>
1

> <r_epik_Ionization_Penalty>
3.77175e-07

> <r_epik_Ionization_Penalty_Charging>
7.70067e-11

> <r_epik_Ionization_Penalty_Neutral>
3.77098e-07

> <r_epik_State_Penalty>
-0

> <r_epik_Charging_Adjusted_Penalty>
7.70067e-11

> <i_epik_Tot_Q>
0

> <i_epik_Tot_abs_Q>
2

> <r_epik_Metal_State_Penalty>
-0

> <b_epik_Metal_Only>
0

> <s_lp_Force_Field>
OPLS_2005

> <r_lp_Energy>
23.4116

> <b_lp_Chiralities_Consistent>
1

> <s_lp_Variant>
AV-unprocessed.smi:771-1

> <Gold.Version>
5.8.1

> <Gold.Id.Protein>
6NUR|6NUR_protein|mol2

> <Gold.PLP.Fitness>
49.3168

> <Gold.PLP.PLP>
-35.5464

> <Gold.PLP.part.hbond>
-4.0000

> <Gold.PLP.part.metal>
0.0000

> <Gold.PLP.part.buried>
-2.7511

> <Gold.PLP.part.nonpolar>
-29.2877

> <Gold.PLP.part.repulsive>
0.3092

> <Gold.PLP.ligand.clash>
0.0000

> <Gold.PLP.ligand.torsion>
0.1794

> <Gold.PLP.Chemscore.Hbond>
3.7043

> <Gold.PLP.Chemscore.CHOScore>
1.0000

> <Gold.PLP.Chemscore.Metal>
0.0000

> <Gold.Chemscore.Hbonds>
donor molecule, donor type, donor heavy atom, donor atom, acceptor molecule, acceptor atom, score
      L1  H    14    28       P1  7948  0.88
      L1  H    22    41       P1 10957  1.00
      P1  H  7997  8010       L1     9  1.00
      P1  H 10752 10764       L1     8  0.79
      L1  C     5    25       P1  7948  1.00

> <Gold.PLP.Chemscore.Internal.Correction>
0.0163

> <Gold.Rescore>
     Score         DG    S(hbond)    S(metal)    S(lipo)     H(rot)  DE(clash)    DE(int)     intcor
     19.38     -19.64       3.73        0.00      68.75       2.48       0.02       0.24       ----

> <Gold.Chemscore.Fitness>
19.3768

> <Gold.Chemscore.DG>
-19.6377

> <Gold.Chemscore.ZeroCoef>
-5.4800

> <Gold.Chemscore.Hbond>
3.7277

> <Gold.Chemscore.Metal>
0.0000

> <Gold.Chemscore.Lipo>
68.7535

> <Gold.Chemscore.Internal_Hbond>
0.0000

> <Gold.Chemscore.DEClash>
0.0247

> <Gold.Chemscore.DEInternal>
0.2361

> <Gold.Chemscore.Rot>
2.4753

> <Gold.Chemscore.Internal.Correction>
   9.000000E+99

> <Gold.Chemscore.Hbonds>
donor molecule, donor type, donor heavy atom, donor atom, acceptor molecule, acceptor atom, score
      L1  H    14    28       P1  7948  0.87
      L1  H    22    41       P1 10957  0.93
      P1  H  7997  8010       L1     9  0.99
      P1  H 10752 10764       L1     8  0.75

> <Gold.Chemscore.Hbond.Weighted>
-12.4504

> <Gold.Chemscore.Metal.Weighted>
-0.0000

> <Gold.Chemscore.Lipo.Weighted>
-8.0442

> <Gold.Chemscore.Internal_Hbond.Weighted>
0.0000

> <Gold.Chemscore.DEClash.Weighted>
0.0247

> <Gold.Chemscore.DEInternal.Weighted>
0.2361

> <Gold.Chemscore.Rot.Weighted>
6.3369

> <Gold.Chemscore.Internal.Correction.Weighted>
   9.000000E+99

> <Gold.Protein.RotatedTorsions>
[ 6907 6896 6895 6894 ] final  148.94 input  -60.11 | X-H torsion
[ 7974 7965 7964 7962 ] final  -16.50 input  175.53 | X-H torsion
[ 8008 7997 7996 7995 ] final   97.18 input   59.86 | X-H torsion
[ 10167 10162 10161 10158 ] final -162.37 input  -65.29 | X-H torsion
[ 10718 10713 10712 10709 ] final  104.61 input   66.30 | X-H torsion
[ 10763 10752 10751 10750 ] final  -76.98 input  -60.55 | X-H torsion
[ 11005 11000 10999 10996 ] final   21.80 input  -57.11 | X-H torsion

> <Gold.Protein.ActiveResidues>
 VAL166  LYS551  ARG553  GLY616  TRP617  ASP618  TYR619  PRO620  LYS621  CYS622 
 ASP623  PHE694  ASN695  SER759  ASP760  ASP761  ALA762  ILE779  LEU786  VAL792 
 PHE793  MET794  SER795  GLU796  ALA797  LYS798  CYS799  TRP800  GLU811  SER814 

> <Gold.Protein.RotatedAtoms>
  152.1347  133.4428  159.4737 H   0  0  0  0  0  0  0  0  0  0  0  0  # atno 6907 bound_to 6896
  150.6881  134.2378  159.4469 H   0  0  0  0  0  0  0  0  0  0  0  0  # atno 6908 bound_to 6896
  152.0265  134.9792  160.0622 H   0  0  0  0  0  0  0  0  0  0  0  0  # atno 6909 bound_to 6896
  146.1985  140.3645  142.8432 H   0  0  0  0  0  0  0  0  0  0  0  0  # atno 7974 bound_to 7965
  156.0874  140.3262  155.7771 H   0  0  0  0  0  0  0  0  0  0  0  0  # atno 8008 bound_to 7997
  155.5053  140.0572  157.2950 H   0  0  0  0  0  0  0  0  0  0  0  0  # atno 8009 bound_to 7997
  154.4617  140.1970  156.0243 H   0  0  0  0  0  0  0  0  0  0  0  0  # atno 8010 bound_to 7997
  139.6397  144.0282  152.2082 H   0  0  0  0  0  0  0  0  0  0  0  0  # atno 10167 bound_to 10162
  157.6734  131.0808  150.5733 H   0  0  0  0  0  0  0  0  0  0  0  0  # atno 10718 bound_to 10713
  154.5070  135.5779  153.6575 H   0  0  0  0  0  0  0  0  0  0  0  0  # atno 10763 bound_to 10752
  152.9889  135.6149  154.2929 H   0  0  0  0  0  0  0  0  0  0  0  0  # atno 10764 bound_to 10752
  154.2841  135.2850  155.2664 H   0  0  0  0  0  0  0  0  0  0  0  0  # atno 10765 bound_to 10752
  140.3876  134.1853  155.7663 H   0  0  0  0  0  0  0  0  0  0  0  0  # atno 11005 bound_to 11000
  144.8631  140.7168  143.6094 LP  0  0  0  0  0  0  0  0  0  0  0  0  # atno 17320 bound_to 7965
  145.3564  139.1693  143.4407 LP  0  0  0  0  0  0  0  0  0  0  0  0  # atno 17321 bound_to 7965
  139.9969  144.6321  150.7764 LP  0  0  0  0  0  0  0  0  0  0  0  0  # atno 17342 bound_to 10162
  140.7484  143.2922  151.3299 LP  0  0  0  0  0  0  0  0  0  0  0  0  # atno 17343 bound_to 10162
  156.6034  130.4360  149.5888 LP  0  0  0  0  0  0  0  0  0  0  0  0  # atno 17370 bound_to 10713
  156.2488  130.6895  151.1625 LP  0  0  0  0  0  0  0  0  0  0  0  0  # atno 17371 bound_to 10713
  141.1902  133.8222  157.0928 LP  0  0  0  0  0  0  0  0  0  0  0  0  # atno 17394 bound_to 11000
  140.0431  134.9844  157.0998 LP  0  0  0  0  0  0  0  0  0  0  0  0  # atno 17395 bound_to 11000

$$$$
