AV-unprocessed.smi:249|AV-procd|sdf|1901|dock5
  -GOLD-   2262020573D 1   1.00000     0.00000
 Structure written by MMmdl.
 64 67  0  0  0  0  0  0  0  0  2 V2000
  146.7836  128.8558  151.5578 C   0  0  0  0  0  0  0  0  0  0  0  0
  146.2457  130.2782  151.7730 C   0  0  0  0  0  0  0  0  0  0  0  0
  147.2294  131.1903  152.4174 N   0  3  1  0  0  0  0  0  0  0  0  0
  146.7507  132.5989  152.4424 C   0  0  0  0  0  0  0  0  0  0  0  0
  147.8594  133.5637  152.8907 C   0  0  0  0  0  0  0  0  0  0  0  0
  148.4254  133.1459  154.2614 C   0  0  2  0  0  0  0  0  0  0  0  0
  149.4260  134.0775  154.8007 N   0  0  0  0  0  0  0  0  0  0  0  0
  150.4673  133.5326  155.6657 C   0  0  0  0  0  0  0  0  0  0  0  0
  149.1672  135.3961  155.0091 C   0  0  0  0  0  0  0  0  0  0  0  0
  147.8966  135.8191  155.2396 N   0  0  0  0  0  0  0  0  0  0  0  0
  147.6425  137.1109  155.4679 C   0  0  0  0  0  0  0  0  0  0  0  0
  148.4977  138.1334  155.5132 N   0  0  0  0  0  0  0  0  0  0  0  0
  149.7761  137.7183  155.2860 C   0  0  0  0  0  0  0  0  0  0  0  0
  150.1951  136.3819  155.0295 C   0  0  0  0  0  0  0  0  0  0  0  0
  151.5718  136.3472  154.8399 N   0  0  0  0  0  0  0  0  0  0  0  0
  151.9459  137.5893  154.9822 C   0  0  0  0  0  0  0  0  0  0  0  0
  150.9327  138.4781  155.2590 N   0  0  0  0  0  0  0  0  0  0  0  0
  151.0725  139.9093  155.4640 C   0  0  0  0  0  0  0  0  0  0  0  0
  149.7433  140.5995  155.8586 C   0  0  2  0  0  0  0  0  0  0  0  0
  149.2745  141.6350  154.8073 C   0  0  0  0  0  0  0  0  0  0  0  0
  149.3748  141.1210  153.4951 O   0  0  0  0  0  0  0  0  0  0  0  0
  149.8120  141.2007  157.2853 C   0  0  2  0  0  0  0  0  0  0  0  0
  150.6668  142.4497  157.4108 C   0  0  0  0  0  0  0  0  0  0  0  0
  150.9202  142.5161  158.9125 C   0  0  0  0  0  0  0  0  0  0  0  0
  150.9680  141.1641  159.3529 O   0  0  0  0  0  0  0  0  0  0  0  0
  150.4823  140.3009  158.3293 C   0  0  0  0  0  0  0  0  0  0  0  0
  148.8899  131.6739  154.2173 C   0  0  0  0  0  0  0  0  0  0  0  0
  147.7676  130.7304  153.7364 C   0  0  1  0  0  0  0  0  0  0  0  0
  146.6801  130.5163  154.8117 C   0  0  0  0  0  0  0  0  0  0  0  0
  146.0835  128.2697  150.9622 H   0  0  0  0  0  0  0  0  0  0  0  0
  146.9226  128.3249  152.4994 H   0  0  0  0  0  0  0  0  0  0  0  0
  147.7368  128.8678  151.0286 H   0  0  0  0  0  0  0  0  0  0  0  0
  145.9917  130.6853  150.7934 H   0  0  0  0  0  0  0  0  0  0  0  0
  145.3133  130.2547  152.3372 H   0  0  0  0  0  0  0  0  0  0  0  0
  146.4182  132.8897  151.4452 H   0  0  0  0  0  0  0  0  0  0  0  0
  145.8815  132.6881  153.0948 H   0  0  0  0  0  0  0  0  0  0  0  0
  148.6416  133.5768  152.1327 H   0  0  0  0  0  0  0  0  0  0  0  0
  147.4605  134.5774  152.9375 H   0  0  0  0  0  0  0  0  0  0  0  0
  147.5989  133.1889  154.9713 H   0  0  0  0  0  0  0  0  0  0  0  0
  151.4474  133.6724  155.2102 H   0  0  0  0  0  0  0  0  0  0  0  0
  150.3283  132.4637  155.8280 H   0  0  0  0  0  0  0  0  0  0  0  0
  150.4689  134.0178  156.6427 H   0  0  0  0  0  0  0  0  0  0  0  0
  146.6063  137.3612  155.6416 H   0  0  0  0  0  0  0  0  0  0  0  0
  152.9787  137.8939  154.8923 H   0  0  0  0  0  0  0  0  0  0  0  0
  151.8257  140.0551  156.2383 H   0  0  0  0  0  0  0  0  0  0  0  0
  151.4764  140.3572  154.5554 H   0  0  0  0  0  0  0  0  0  0  0  0
  148.9798  139.8204  155.8786 H   0  0  0  0  0  0  0  0  0  0  0  0
  148.2429  141.9374  154.9870 H   0  0  0  0  0  0  0  0  0  0  0  0
  149.8673  142.5475  154.8696 H   0  0  0  0  0  0  0  0  0  0  0  0
  149.8402  140.2992  153.5281 H   0  0  0  0  0  0  0  0  0  0  0  0
  148.8050  141.4412  157.6303 H   0  0  0  0  0  0  0  0  0  0  0  0
  151.6103  142.3231  156.8778 H   0  0  0  0  0  0  0  0  0  0  0  0
  150.1775  143.3476  157.0329 H   0  0  0  0  0  0  0  0  0  0  0  0
  151.8384  143.0497  159.1577 H   0  0  0  0  0  0  0  0  0  0  0  0
  150.0918  143.0164  159.4158 H   0  0  0  0  0  0  0  0  0  0  0  0
  149.7985  139.5564  158.7380 H   0  0  0  0  0  0  0  0  0  0  0  0
  151.3344  139.7741  157.8971 H   0  0  0  0  0  0  0  0  0  0  0  0
  149.7378  131.5562  153.5437 H   0  0  0  0  0  0  0  0  0  0  0  0
  149.2432  131.3637  155.2015 H   0  0  0  0  0  0  0  0  0  0  0  0
  148.2462  129.7643  153.5785 H   0  0  0  0  0  0  0  0  0  0  0  0
  147.1294  130.2071  155.7559 H   0  0  0  0  0  0  0  0  0  0  0  0
  145.9799  129.7311  154.5281 H   0  0  0  0  0  0  0  0  0  0  0  0
  146.1045  131.4198  155.0095 H   0  0  0  0  0  0  0  0  0  0  0  0
  148.0257  131.1985  151.7959 H   0  0  0  0  0  0  0  0  0  0  0  0
  1  2  1  0  0  0  0
  1 30  1  0  0  0  0
  1 31  1  0  0  0  0
  1 32  1  0  0  0  0
  2  3  1  0  0  0  0
  2 33  1  0  0  0  0
  2 34  1  0  0  0  0
  3 28  1  0  0  0  0
  3  4  1  0  0  0  0
  3 64  1  0  0  0  0
  4  5  1  0  0  0  0
  4 35  1  0  0  0  0
  4 36  1  0  0  0  0
  5  6  1  0  0  0  0
  5 37  1  0  0  0  0
  5 38  1  0  0  0  0
  6  7  1  0  0  0  0
  6 27  1  0  0  0  0
  6 39  1  0  0  0  0
  7  8  1  0  0  0  0
  7  9  1  0  0  0  0
  8 40  1  0  0  0  0
  8 41  1  0  0  0  0
  8 42  1  0  0  0  0
  9 14  1  0  0  0  0
  9 10  2  0  0  0  0
 10 11  1  0  0  0  0
 11 12  2  0  0  0  0
 11 43  1  0  0  0  0
 12 13  1  0  0  0  0
 13 17  1  0  0  0  0
 13 14  2  0  0  0  0
 14 15  1  0  0  0  0
 15 16  2  0  0  0  0
 16 17  1  0  0  0  0
 16 44  1  0  0  0  0
 17 18  1  0  0  0  0
 18 19  1  0  0  0  0
 18 45  1  0  0  0  0
 18 46  1  0  0  0  0
 19 20  1  0  0  0  0
 19 22  1  0  0  0  0
 19 47  1  0  0  0  0
 20 21  1  0  0  0  0
 20 48  1  0  0  0  0
 20 49  1  0  0  0  0
 21 50  1  0  0  0  0
 22 26  1  0  0  0  0
 22 23  1  0  0  0  0
 22 51  1  0  0  0  0
 23 24  1  0  0  0  0
 23 52  1  0  0  0  0
 23 53  1  0  0  0  0
 24 25  1  0  0  0  0
 24 54  1  0  0  0  0
 24 55  1  0  0  0  0
 25 26  1  0  0  0  0
 26 56  1  0  0  0  0
 26 57  1  0  0  0  0
 27 28  1  0  0  0  0
 27 58  1  0  0  0  0
 27 59  1  0  0  0  0
 28 29  1  0  0  0  0
 28 60  1  0  0  0  0
 29 61  1  0  0  0  0
 29 62  1  0  0  0  0
 29 63  1  0  0  0  0
M  CHG  1   3   1
M  END
> <s_m_source_file>
AV-unprocessed.smi

> <i_m_source_file_index>
249

> <i_lp_mmshare_version>
43012

> <i_f3d_flags>
0

> <s_epik_input>
W0NIM11bQ0gyXU4xW0NIMl1bQ0gyXVtDQEhdKFtDSDJdW0NASF0xW0NIM10pTihbQ0gzXSljKG5bY0hdbjIpYyhjMjMpbltjSF1uM1tDSDJdW0NASF0oW0NIMl1bT0hdKVtDQEBIXTRbQ0gyXVtDSDJdT1tDSDJdNA==

> <s_epik_cmdline>
J2VwaWtfcHl0aG9uJywgJy1waCcsICc3LjAnLCAnLXRuJywgJzgnLCAnLW1hJywgJzIwMCcsICctbWV0YWxfYmluZGluZycsICctaW1hZScsICc8aW5maWxlLm1hZT4nLCAnLW9tYWUnLCAnPG91dGZpbGUubWFlPic=

> <r_lp_tautomer_probability>
1

> <r_epik_Ionization_Penalty>
0.00294688

> <r_epik_Ionization_Penalty_Charging>
0.00169971

> <r_epik_Ionization_Penalty_Neutral>
0.00124717

> <r_epik_State_Penalty>
-0

> <r_epik_Charging_Adjusted_Penalty>
0.00169971

> <i_epik_Tot_Q>
1

> <i_epik_Tot_abs_Q>
1

> <r_epik_Metal_State_Penalty>
-0

> <b_epik_Metal_Only>
0

> <s_lp_Force_Field>
OPLS_2005

> <r_lp_Energy>
54.0004

> <b_lp_Chiralities_Consistent>
1

> <s_lp_Variant>
AV-unprocessed.smi:249-4

> <Gold.Version>
5.8.1

> <Gold.Id.Protein>
6NUR|6NUR_protein|mol2

> <Gold.PLP.Fitness>
54.4544

> <Gold.PLP.PLP>
-48.2293

> <Gold.PLP.part.hbond>
-5.1675

> <Gold.PLP.part.metal>
0.0000

> <Gold.PLP.part.buried>
-2.0414

> <Gold.PLP.part.nonpolar>
-41.4313

> <Gold.PLP.part.repulsive>
0.2754

> <Gold.PLP.ligand.clash>
0.0000

> <Gold.PLP.ligand.torsion>
1.9528

> <Gold.PLP.Chemscore.Hbond>
3.0000

> <Gold.PLP.Chemscore.CHOScore>
0.0000

> <Gold.PLP.Chemscore.Metal>
0.0000

> <Gold.Chemscore.Hbonds>
donor molecule, donor type, donor heavy atom, donor atom, acceptor molecule, acceptor atom, score
      L1  H     3    64       P1 10747  1.00
      P1  H  8011  8017       L1    21  1.00
      P1  H 10752 10765       L1    15  1.00

> <Gold.PLP.Chemscore.Internal.Correction>
1.1306

> <Gold.Rescore>
     Score         DG    S(hbond)    S(metal)    S(lipo)     H(rot)  DE(clash)    DE(int)     intcor
     14.82     -18.43       2.31        0.00     102.67       2.65       0.20       3.41       ----

> <Gold.Chemscore.Fitness>
14.8197

> <Gold.Chemscore.DG>
-18.4285

> <Gold.Chemscore.ZeroCoef>
-5.4800

> <Gold.Chemscore.Hbond>
2.3126

> <Gold.Chemscore.Metal>
0.0000

> <Gold.Chemscore.Lipo>
102.6692

> <Gold.Chemscore.Internal_Hbond>
0.0000

> <Gold.Chemscore.DEClash>
0.1980

> <Gold.Chemscore.DEInternal>
3.4108

> <Gold.Chemscore.Rot>
2.6515

> <Gold.Chemscore.Internal.Correction>
   9.000000E+99

> <Gold.Chemscore.Hbonds>
donor molecule, donor type, donor heavy atom, donor atom, acceptor molecule, acceptor atom, score
      L1  H     3    64       P1 10747  0.99
      P1  H  8011  8017       L1    21  0.75
      P1  H 10752 10765       L1    15  0.34

> <Gold.Chemscore.Hbond.Weighted>
-7.7242

> <Gold.Chemscore.Metal.Weighted>
-0.0000

> <Gold.Chemscore.Lipo.Weighted>
-12.0123

> <Gold.Chemscore.Internal_Hbond.Weighted>
0.0000

> <Gold.Chemscore.DEClash.Weighted>
0.1980

> <Gold.Chemscore.DEInternal.Weighted>
3.4108

> <Gold.Chemscore.Rot.Weighted>
6.7880

> <Gold.Chemscore.Internal.Correction.Weighted>
   9.000000E+99

> <Gold.Protein.RotatedTorsions>
[ 6907 6896 6895 6894 ] final   88.03 input  -60.11 | X-H torsion
[ 7974 7965 7964 7962 ] final  141.25 input  175.53 | X-H torsion
[ 8008 7997 7996 7995 ] final  165.54 input   59.86 | X-H torsion
[ 10167 10162 10161 10158 ] final  -11.59 input  -65.29 | X-H torsion
[ 10718 10713 10712 10709 ] final  113.44 input   66.30 | X-H torsion
[ 10763 10752 10751 10750 ] final  161.94 input  -60.55 | X-H torsion
[ 11005 11000 10999 10996 ] final  101.69 input  -57.11 | X-H torsion

> <Gold.Protein.ActiveResidues>
 VAL166  LYS551  ARG553  GLY616  TRP617  ASP618  TYR619  PRO620  LYS621  CYS622 
 ASP623  PHE694  ASN695  SER759  ASP760  ASP761  ALA762  ILE779  LEU786  VAL792 
 PHE793  MET794  SER795  GLU796  ALA797  LYS798  CYS799  TRP800  GLU811  SER814 

> <Gold.Protein.RotatedAtoms>
  152.5419  134.2185  159.8777 H   0  0  0  0  0  0  0  0  0  0  0  0  # atno 6907 bound_to 6896
  151.2163  133.4520  159.2607 H   0  0  0  0  0  0  0  0  0  0  0  0  # atno 6908 bound_to 6896
  151.0848  134.9893  159.8429 H   0  0  0  0  0  0  0  0  0  0  0  0  # atno 6909 bound_to 6896
  144.9113  139.5289  143.5707 H   0  0  0  0  0  0  0  0  0  0  0  0  # atno 7974 bound_to 7965
  156.1792  140.1667  156.8306 H   0  0  0  0  0  0  0  0  0  0  0  0  # atno 8008 bound_to 7997
  154.5341  140.0750  156.8430 H   0  0  0  0  0  0  0  0  0  0  0  0  # atno 8009 bound_to 7997
  155.3347  140.3381  155.4241 H   0  0  0  0  0  0  0  0  0  0  0  0  # atno 8010 bound_to 7997
  140.7142  143.5624  150.9181 H   0  0  0  0  0  0  0  0  0  0  0  0  # atno 10167 bound_to 10162
  157.6338  131.0983  150.7041 H   0  0  0  0  0  0  0  0  0  0  0  0  # atno 10718 bound_to 10713
  154.2707  135.2766  155.2739 H   0  0  0  0  0  0  0  0  0  0  0  0  # atno 10763 bound_to 10752
  154.5304  135.5731  153.6757 H   0  0  0  0  0  0  0  0  0  0  0  0  # atno 10764 bound_to 10752
  152.9945  135.6226  154.2862 H   0  0  0  0  0  0  0  0  0  0  0  0  # atno 10765 bound_to 10752
  139.8774  134.9193  156.4945 H   0  0  0  0  0  0  0  0  0  0  0  0  # atno 11005 bound_to 11000
  146.3160  139.7921  142.8983 LP  0  0  0  0  0  0  0  0  0  0  0  0  # atno 17320 bound_to 7965
  145.3449  141.0295  143.3371 LP  0  0  0  0  0  0  0  0  0  0  0  0  # atno 17321 bound_to 7965
  139.9349  143.6450  152.3067 LP  0  0  0  0  0  0  0  0  0  0  0  0  # atno 17342 bound_to 10162
  139.6913  144.7646  151.1433 LP  0  0  0  0  0  0  0  0  0  0  0  0  # atno 17343 bound_to 10162
  156.7376  130.4729  149.5485 LP  0  0  0  0  0  0  0  0  0  0  0  0  # atno 17370 bound_to 10713
  156.1561  130.6342  151.0659 LP  0  0  0  0  0  0  0  0  0  0  0  0  # atno 17371 bound_to 10713
  140.8634  133.8042  155.9289 LP  0  0  0  0  0  0  0  0  0  0  0  0  # atno 17394 bound_to 11000
  140.9026  134.2359  157.5033 LP  0  0  0  0  0  0  0  0  0  0  0  0  # atno 17395 bound_to 11000

$$$$
