AV-unprocessed.smi:47|AV-procd|sdf|438|dock9
  -GOLD-   2262016303D 1   1.00000     0.00000
 Structure written by MMmdl.
 31 33  0  0  0  0  0  0  0  0  1 V2000
  145.3652  141.9911  154.4248 O   0  0  0  0  0  0  0  0  0  0  0  0
  146.7754  141.9376  154.3868 C   0  0  2  0  0  0  0  0  0  0  0  0
  147.3058  141.5440  153.0146 C   0  0  0  0  0  0  0  0  0  0  0  0
  148.6616  141.0792  153.2694 N   0  0  0  0  0  0  0  0  0  0  0  0
  148.6803  140.4616  154.6010 C   0  0  1  0  0  0  0  0  0  0  0  0
  149.8669  140.8799  155.4145 C   0  0  0  0  0  0  0  0  0  0  0  0
  151.0641  140.3453  155.1963 N   0  0  0  0  0  0  0  0  0  0  0  0
  151.8106  140.9386  156.1503 N   0  0  0  0  0  0  0  0  0  0  0  0
  151.0548  141.7616  156.8883 C   0  0  0  0  0  0  0  0  0  0  0  0
  151.5419  142.5554  158.0186 C   0  0  0  0  0  0  0  0  0  0  0  0
  152.4419  141.9945  158.9543 C   0  0  0  0  0  0  0  0  0  0  0  0
  152.9065  142.7564  160.0441 C   0  0  0  0  0  0  0  0  0  0  0  0
  152.4770  144.0865  160.2095 C   0  0  0  0  0  0  0  0  0  0  0  0
  151.5831  144.6546  159.2829 C   0  0  0  0  0  0  0  0  0  0  0  0
  151.1178  143.8935  158.1930 C   0  0  0  0  0  0  0  0  0  0  0  0
  149.7922  141.7570  156.4610 N   0  0  0  0  0  0  0  0  0  0  0  0
  147.3536  140.8467  155.2831 C   0  0  0  0  0  0  0  0  0  0  0  0
  147.1832  142.9078  154.6756 H   0  0  0  0  0  0  0  0  0  0  0  0
  148.7084  139.3765  154.4908 H   0  0  0  0  0  0  0  0  0  0  0  0
  152.7963  140.7530  156.2670 H   0  0  0  0  0  0  0  0  0  0  0  0
  145.0248  141.3872  153.7823 H   0  0  0  0  0  0  0  0  0  0  0  0
  146.7097  140.7272  152.6048 H   0  0  0  0  0  0  0  0  0  0  0  0
  147.2834  142.3674  152.3005 H   0  0  0  0  0  0  0  0  0  0  0  0
  148.9129  140.3925  152.5657 H   0  0  0  0  0  0  0  0  0  0  0  0
  152.7839  140.9755  158.8477 H   0  0  0  0  0  0  0  0  0  0  0  0
  153.5926  142.3192  160.7545 H   0  0  0  0  0  0  0  0  0  0  0  0
  152.8328  144.6703  161.0455 H   0  0  0  0  0  0  0  0  0  0  0  0
  151.2524  145.6753  159.4078 H   0  0  0  0  0  0  0  0  0  0  0  0
  150.4316  144.3489  157.4940 H   0  0  0  0  0  0  0  0  0  0  0  0
  147.4683  141.1704  156.3187 H   0  0  0  0  0  0  0  0  0  0  0  0
  146.6921  139.9789  155.2845 H   0  0  0  0  0  0  0  0  0  0  0  0
  1  2  1  0  0  0  0
  1 21  1  0  0  0  0
  2 18  1  0  0  0  0
  2 17  1  0  0  0  0
  2  3  1  0  0  0  0
  3  4  1  0  0  0  0
  3 22  1  0  0  0  0
  3 23  1  0  0  0  0
  4  5  1  0  0  0  0
  4 24  1  0  0  0  0
  5 19  1  0  0  0  0
  5  6  1  0  0  0  0
  5 17  1  0  0  0  0
  6 16  1  0  0  0  0
  6  7  2  0  0  0  0
  7  8  1  0  0  0  0
  8 20  1  0  0  0  0
  8  9  1  0  0  0  0
  9 10  1  0  0  0  0
  9 16  2  0  0  0  0
 10 15  1  0  0  0  0
 10 11  2  0  0  0  0
 11 12  1  0  0  0  0
 11 25  1  0  0  0  0
 12 13  2  0  0  0  0
 12 26  1  0  0  0  0
 13 14  1  0  0  0  0
 13 27  1  0  0  0  0
 14 15  2  0  0  0  0
 14 28  1  0  0  0  0
 15 29  1  0  0  0  0
 17 30  1  0  0  0  0
 17 31  1  0  0  0  0
M  END
> <s_m_source_file>
AV-unprocessed.smi

> <i_m_source_file_index>
47

> <i_lp_mmshare_version>
43012

> <i_f3d_flags>
0

> <s_epik_input>
W09IXVtDQEhdMVtDSDJdW05IXVtDQEBIXShbQ0gyXTEpYzJuW25IXWMobjIpLWMzW2NIXVtjSF1bY0hdW2NIXVtjSF0z

> <s_epik_cmdline>
J2VwaWtfcHl0aG9uJywgJy1waCcsICc3LjAnLCAnLXRuJywgJzgnLCAnLW1hJywgJzIwMCcsICctbWV0YWxfYmluZGluZycsICctaW1hZScsICc8aW5maWxlLm1hZT4nLCAnLW9tYWUnLCAnPG91dGZpbGUubWFlPic=

> <r_epik_Ionization_Penalty>
1.65981

> <r_epik_Ionization_Penalty_Charging>
0

> <r_epik_Ionization_Penalty_Neutral>
1.65981

> <r_epik_State_Penalty>
2.0492

> <r_epik_Charging_Adjusted_Penalty>
2.0492

> <i_epik_Tot_Q>
0

> <i_epik_Tot_abs_Q>
0

> <r_epik_Metal_State_Penalty>
2.54641

> <b_epik_Metal_Only>
0

> <s_lp_Force_Field>
OPLS_2005

> <r_lp_Energy>
25.8544

> <b_lp_Chiralities_Consistent>
1

> <s_lp_Variant>
AV-unprocessed.smi:47-16

> <Gold.Version>
5.8.1

> <Gold.Id.Protein>
6NUR|6NUR_protein|mol2

> <Gold.PLP.Fitness>
42.3740

> <Gold.PLP.PLP>
-34.3128

> <Gold.PLP.part.hbond>
-3.9493

> <Gold.PLP.part.metal>
0.0000

> <Gold.PLP.part.buried>
-4.5248

> <Gold.PLP.part.nonpolar>
-26.5137

> <Gold.PLP.part.repulsive>
0.3130

> <Gold.PLP.ligand.clash>
0.0000

> <Gold.PLP.ligand.torsion>
1.0834

> <Gold.PLP.Chemscore.Hbond>
3.4040

> <Gold.PLP.Chemscore.CHOScore>
0.0000

> <Gold.PLP.Chemscore.Metal>
0.0000

> <Gold.Chemscore.Hbonds>
donor molecule, donor type, donor heavy atom, donor atom, acceptor molecule, acceptor atom, score
      L1  H     1    21       P1 10175  0.93
      L1  H     4    24       P1  7957  0.98
      P1  H  7989  7998       L1     7  1.00
      P1  H  8011  8017       L1     4  0.45

> <Gold.PLP.Chemscore.Internal.Correction>
0.0159

> <Gold.Rescore>
     Score         DG    S(hbond)    S(metal)    S(lipo)     H(rot)  DE(clash)    DE(int)     intcor
     17.34     -20.21       2.40        0.00      89.84       1.48       1.58       1.29       ----

> <Gold.Chemscore.Fitness>
17.3431

> <Gold.Chemscore.DG>
-20.2116

> <Gold.Chemscore.ZeroCoef>
-5.4800

> <Gold.Chemscore.Hbond>
2.3968

> <Gold.Chemscore.Metal>
0.0000

> <Gold.Chemscore.Lipo>
89.8434

> <Gold.Chemscore.Internal_Hbond>
0.0000

> <Gold.Chemscore.DEClash>
1.5754

> <Gold.Chemscore.DEInternal>
1.2932

> <Gold.Chemscore.Rot>
1.4786

> <Gold.Chemscore.Internal.Correction>
   9.000000E+99

> <Gold.Chemscore.Hbonds>
donor molecule, donor type, donor heavy atom, donor atom, acceptor molecule, acceptor atom, score
      L1  H     1    21       P1 10175  0.26
      L1  H     4    24       P1  7957  0.92
      P1  H  7989  7998       L1     7  0.47
      P1  H  8011  8017       L1     4  0.01

> <Gold.Chemscore.Hbond.Weighted>
-8.0052

> <Gold.Chemscore.Metal.Weighted>
-0.0000

> <Gold.Chemscore.Lipo.Weighted>
-10.5117

> <Gold.Chemscore.Internal_Hbond.Weighted>
0.0000

> <Gold.Chemscore.DEClash.Weighted>
1.5754

> <Gold.Chemscore.DEInternal.Weighted>
1.2932

> <Gold.Chemscore.Rot.Weighted>
3.7853

> <Gold.Chemscore.Internal.Correction.Weighted>
   9.000000E+99

> <Gold.Protein.RotatedTorsions>
[ 6907 6896 6895 6894 ] final  -30.23 input  -60.11 | X-H torsion
[ 7974 7965 7964 7962 ] final   35.45 input  175.53 | X-H torsion
[ 8008 7997 7996 7995 ] final -121.10 input   59.86 | X-H torsion
[ 10167 10162 10161 10158 ] final    3.42 input  -65.29 | X-H torsion
[ 10718 10713 10712 10709 ] final  -76.62 input   66.30 | X-H torsion
[ 10763 10752 10751 10750 ] final   -1.16 input  -60.55 | X-H torsion
[ 11005 11000 10999 10996 ] final -140.24 input  -57.11 | X-H torsion

> <Gold.Protein.ActiveResidues>
 VAL166  LYS551  ARG553  GLY616  TRP617  ASP618  TYR619  PRO620  LYS621  CYS622 
 ASP623  PHE694  ASN695  SER759  ASP760  ASP761  ALA762  ILE779  LEU786  VAL792 
 PHE793  MET794  SER795  GLU796  ALA797  LYS798  CYS799  TRP800  GLU811  SER814 

> <Gold.Protein.RotatedAtoms>
  151.1084  135.0013  159.8482 H   0  0  0  0  0  0  0  0  0  0  0  0  # atno 6907 bound_to 6896
  152.5441  134.1865  159.8667 H   0  0  0  0  0  0  0  0  0  0  0  0  # atno 6908 bound_to 6896
  151.1913  133.4621  159.2628 H   0  0  0  0  0  0  0  0  0  0  0  0  # atno 6909 bound_to 6896
  146.1282  139.6141  142.9244 H   0  0  0  0  0  0  0  0  0  0  0  0  # atno 7974 bound_to 7965
  155.1425  140.0402  157.2802 H   0  0  0  0  0  0  0  0  0  0  0  0  # atno 8008 bound_to 7997
  154.6462  140.2558  155.7238 H   0  0  0  0  0  0  0  0  0  0  0  0  # atno 8009 bound_to 7997
  156.2556  140.2845  156.0877 H   0  0  0  0  0  0  0  0  0  0  0  0  # atno 8010 bound_to 7997
  140.6587  143.7361  150.7699 H   0  0  0  0  0  0  0  0  0  0  0  0  # atno 10167 bound_to 10162
  156.0169  130.4470  150.3222 H   0  0  0  0  0  0  0  0  0  0  0  0  # atno 10718 bound_to 10713
  153.3412  135.6980  153.6866 H   0  0  0  0  0  0  0  0  0  0  0  0  # atno 10763 bound_to 10752
  153.5630  135.3531  155.2807 H   0  0  0  0  0  0  0  0  0  0  0  0  # atno 10764 bound_to 10752
  154.8637  135.4254  154.2625 H   0  0  0  0  0  0  0  0  0  0  0  0  # atno 10765 bound_to 10752
  140.8442  134.2365  157.4794 H   0  0  0  0  0  0  0  0  0  0  0  0  # atno 11005 bound_to 11000
  145.5318  141.0426  143.2378 LP  0  0  0  0  0  0  0  0  0  0  0  0  # atno 17320 bound_to 7965
  144.7664  139.6836  143.7213 LP  0  0  0  0  0  0  0  0  0  0  0  0  # atno 17321 bound_to 7965
  140.1026  143.4773  152.2416 LP  0  0  0  0  0  0  0  0  0  0  0  0  # atno 17342 bound_to 10162
  139.5815  144.7512  151.3628 LP  0  0  0  0  0  0  0  0  0  0  0  0  # atno 17343 bound_to 10162
  157.1322  131.0274  151.2964 LP  0  0  0  0  0  0  0  0  0  0  0  0  # atno 17370 bound_to 10713
  157.4541  130.7615  149.7177 LP  0  0  0  0  0  0  0  0  0  0  0  0  # atno 17371 bound_to 10713
  139.8703  134.9651  156.4516 LP  0  0  0  0  0  0  0  0  0  0  0  0  # atno 17394 bound_to 11000
  140.8862  133.7881  155.9521 LP  0  0  0  0  0  0  0  0  0  0  0  0  # atno 17395 bound_to 11000

$$$$
