AV-unprocessed.smi:1402|AV-procd|sdf|5696|dock4
  -GOLD-   22720 5323D 1   1.00000     0.00000
 Structure written by MMmdl.
 44 45  0  0  0  0  0  0  0  0  1 V2000
  152.5233  143.0516  161.2865 C   0  0  0  0  0  0  0  0  0  0  0  0
  153.4026  141.8364  161.2901 C   0  0  0  0  0  0  0  0  0  0  0  0
  153.6928  140.9595  160.2050 C   0  0  0  0  0  0  0  0  0  0  0  0
  154.5258  140.0371  160.7771 C   0  0  0  0  0  0  0  0  0  0  0  0
  155.1216  138.9594  160.2010 N   0  0  0  0  0  0  0  0  0  0  0  0
  155.9782  138.9325  159.1654 C   0  0  0  0  0  0  0  0  0  0  0  0
  156.4104  139.9214  158.5724 O   0  0  0  0  0  0  0  0  0  0  0  0
  156.3001  137.6731  158.8367 N   0  0  0  0  0  0  0  0  0  0  0  0
  157.1253  137.2933  157.6956 C   0  0  0  0  0  0  0  0  0  0  0  0
  156.3089  137.2945  156.3863 C   0  0  0  0  0  0  0  0  0  0  0  0
  157.1750  137.3297  155.2021 N   0  0  0  0  0  0  0  0  0  0  0  0
  158.3011  136.3832  155.1961 C   0  0  0  0  0  0  0  0  0  0  0  0
  158.1395  135.2285  154.1804 C   0  0  0  0  0  0  0  0  0  0  0  0
  157.3461  135.5543  152.8992 C   0  0  0  0  0  0  0  0  0  0  0  0
  157.8151  136.8151  152.1425 C   0  0  0  0  0  0  0  0  0  0  0  0
  157.8777  138.1290  152.9585 C   0  0  0  0  0  0  0  0  0  0  0  0
  156.9299  138.1713  154.1679 C   0  0  0  0  0  0  0  0  0  0  0  0
  155.9840  138.9592  154.1516 O   0  0  0  0  0  0  0  0  0  0  0  0
  154.7150  140.3693  162.1018 N   0  0  0  0  0  0  0  0  0  0  0  0
  155.5043  139.7164  163.1284 C   0  0  0  0  0  0  0  0  0  0  0  0
  154.0147  141.4807  162.4140 N   0  0  0  0  0  0  0  0  0  0  0  0
  152.1228  143.2458  160.2913 H   0  0  0  0  0  0  0  0  0  0  0  0
  153.0750  143.9376  161.6007 H   0  0  0  0  0  0  0  0  0  0  0  0
  151.6791  142.9254  161.9644 H   0  0  0  0  0  0  0  0  0  0  0  0
  153.3391  141.0154  159.1865 H   0  0  0  0  0  0  0  0  0  0  0  0
  154.8329  138.0626  160.5632 H   0  0  0  0  0  0  0  0  0  0  0  0
  155.9052  136.9214  159.3827 H   0  0  0  0  0  0  0  0  0  0  0  0
  158.0204  137.9134  157.6158 H   0  0  0  0  0  0  0  0  0  0  0  0
  157.4867  136.2829  157.8883 H   0  0  0  0  0  0  0  0  0  0  0  0
  155.6882  136.3981  156.3502 H   0  0  0  0  0  0  0  0  0  0  0  0
  155.5919  138.1179  156.3647 H   0  0  0  0  0  0  0  0  0  0  0  0
  159.2233  136.9270  154.9908 H   0  0  0  0  0  0  0  0  0  0  0  0
  158.4605  135.9651  156.1908 H   0  0  0  0  0  0  0  0  0  0  0  0
  159.1288  134.8559  153.9119 H   0  0  0  0  0  0  0  0  0  0  0  0
  157.6383  134.3977  154.6778 H   0  0  0  0  0  0  0  0  0  0  0  0
  157.4012  134.6984  152.2260 H   0  0  0  0  0  0  0  0  0  0  0  0
  156.2877  135.6510  153.1448 H   0  0  0  0  0  0  0  0  0  0  0  0
  158.8005  136.6252  151.7156 H   0  0  0  0  0  0  0  0  0  0  0  0
  157.1523  136.9656  151.2897 H   0  0  0  0  0  0  0  0  0  0  0  0
  158.8959  138.3093  153.3023 H   0  0  0  0  0  0  0  0  0  0  0  0
  157.6540  138.9697  152.3003 H   0  0  0  0  0  0  0  0  0  0  0  0
  156.0381  138.8591  162.7186 H   0  0  0  0  0  0  0  0  0  0  0  0
  154.8499  139.3726  163.9299 H   0  0  0  0  0  0  0  0  0  0  0  0
  156.2301  140.4197  163.5375 H   0  0  0  0  0  0  0  0  0  0  0  0
  1  2  1  0  0  0  0
  1 22  1  0  0  0  0
  1 23  1  0  0  0  0
  1 24  1  0  0  0  0
  2 21  2  0  0  0  0
  2  3  1  0  0  0  0
  3  4  2  0  0  0  0
  3 25  1  0  0  0  0
  4  5  1  0  0  0  0
  4 19  1  0  0  0  0
  5  6  1  0  0  0  0
  5 26  1  0  0  0  0
  6  7  2  0  0  0  0
  6  8  1  0  0  0  0
  8  9  1  0  0  0  0
  8 27  1  0  0  0  0
  9 10  1  0  0  0  0
  9 28  1  0  0  0  0
  9 29  1  0  0  0  0
 10 11  1  0  0  0  0
 10 30  1  0  0  0  0
 10 31  1  0  0  0  0
 11 17  1  0  0  0  0
 11 12  1  0  0  0  0
 12 13  1  0  0  0  0
 12 32  1  0  0  0  0
 12 33  1  0  0  0  0
 13 14  1  0  0  0  0
 13 34  1  0  0  0  0
 13 35  1  0  0  0  0
 14 15  1  0  0  0  0
 14 36  1  0  0  0  0
 14 37  1  0  0  0  0
 15 16  1  0  0  0  0
 15 38  1  0  0  0  0
 15 39  1  0  0  0  0
 16 17  1  0  0  0  0
 16 40  1  0  0  0  0
 16 41  1  0  0  0  0
 17 18  2  0  0  0  0
 19 20  1  0  0  0  0
 19 21  1  0  0  0  0
 20 42  1  0  0  0  0
 20 43  1  0  0  0  0
 20 44  1  0  0  0  0
M  END
> <s_m_source_file>
AV-unprocessed.smi

> <i_m_source_file_index>
1402

> <i_lp_mmshare_version>
43012

> <i_f3d_flags>
0

> <s_epik_input>
W0NIM11jMVtjSF1jKG4objEpW0NIM10pW05IXUMoPU8pW05IXVtDSDJdW0NIMl1OMltDSDJdW0NIMl1bQ0gyXVtDSDJdW0NIMl1DMj1P

> <s_epik_cmdline>
J2VwaWtfcHl0aG9uJywgJy1waCcsICc3LjAnLCAnLXRuJywgJzgnLCAnLW1hJywgJzIwMCcsICctbWV0YWxfYmluZGluZycsICctaW1hZScsICc8aW5maWxlLm1hZT4nLCAnLW9tYWUnLCAnPG91dGZpbGUubWFlPic=

> <r_lp_tautomer_probability>
1

> <r_epik_Ionization_Penalty>
9.00432e-05

> <r_epik_Ionization_Penalty_Charging>
0

> <r_epik_Ionization_Penalty_Neutral>
9.00432e-05

> <r_epik_State_Penalty>
-0

> <r_epik_Charging_Adjusted_Penalty>
0

> <i_epik_Tot_Q>
0

> <i_epik_Tot_abs_Q>
0

> <r_epik_Metal_State_Penalty>
-0

> <b_epik_Metal_Only>
0

> <s_lp_Force_Field>
OPLS_2005

> <r_lp_Energy>
25.7606

> <b_lp_Chiralities_Consistent>
1

> <s_lp_Variant>
AV-unprocessed.smi:1402-1

> <Gold.Version>
5.8.1

> <Gold.Id.Protein>
6NUR|6NUR_protein|mol2

> <Gold.PLP.Fitness>
40.5355

> <Gold.PLP.PLP>
-36.7142

> <Gold.PLP.part.hbond>
-2.9519

> <Gold.PLP.part.metal>
0.0000

> <Gold.PLP.part.buried>
-2.0762

> <Gold.PLP.part.nonpolar>
-30.5553

> <Gold.PLP.part.repulsive>
0.1655

> <Gold.PLP.ligand.clash>
0.0000

> <Gold.PLP.ligand.torsion>
0.9401

> <Gold.PLP.Chemscore.Hbond>
1.8960

> <Gold.PLP.Chemscore.CHOScore>
0.0000

> <Gold.PLP.Chemscore.Metal>
0.0000

> <Gold.Chemscore.Hbonds>
donor molecule, donor type, donor heavy atom, donor atom, acceptor molecule, acceptor atom, score
      P1  H  7997  8009       L1    18  0.88
      P1  H  7997  8010       L1     7  0.90

> <Gold.PLP.Chemscore.Internal.Correction>
0.0134

> <Gold.Rescore>
     Score         DG    S(hbond)    S(metal)    S(lipo)     H(rot)  DE(clash)    DE(int)     intcor
     17.79     -18.72       1.88        0.00      93.21       1.54       0.06       0.87       ----

> <Gold.Chemscore.Fitness>
17.7887

> <Gold.Chemscore.DG>
-18.7206

> <Gold.Chemscore.ZeroCoef>
-5.4800

> <Gold.Chemscore.Hbond>
1.8799

> <Gold.Chemscore.Metal>
0.0000

> <Gold.Chemscore.Lipo>
93.2115

> <Gold.Chemscore.Internal_Hbond>
0.0000

> <Gold.Chemscore.DEClash>
0.0591

> <Gold.Chemscore.DEInternal>
0.8728

> <Gold.Chemscore.Rot>
1.5407

> <Gold.Chemscore.Internal.Correction>
   9.000000E+99

> <Gold.Chemscore.Hbonds>
donor molecule, donor type, donor heavy atom, donor atom, acceptor molecule, acceptor atom, score
      P1  H  7997  8009       L1    18  0.86
      P1  H  7997  8010       L1     7  0.77

> <Gold.Chemscore.Hbond.Weighted>
-6.2790

> <Gold.Chemscore.Metal.Weighted>
-0.0000

> <Gold.Chemscore.Lipo.Weighted>
-10.9057

> <Gold.Chemscore.Internal_Hbond.Weighted>
0.0000

> <Gold.Chemscore.DEClash.Weighted>
0.0591

> <Gold.Chemscore.DEInternal.Weighted>
0.8728

> <Gold.Chemscore.Rot.Weighted>
3.9441

> <Gold.Chemscore.Internal.Correction.Weighted>
   9.000000E+99

> <Gold.Protein.RotatedTorsions>
[ 6907 6896 6895 6894 ] final   16.17 input  -60.11 | X-H torsion
[ 7974 7965 7964 7962 ] final  111.26 input  175.53 | X-H torsion
[ 8008 7997 7996 7995 ] final  -53.87 input   59.86 | X-H torsion
[ 10167 10162 10161 10158 ] final   17.81 input  -65.29 | X-H torsion
[ 10718 10713 10712 10709 ] final  -85.65 input   66.30 | X-H torsion
[ 10763 10752 10751 10750 ] final   30.71 input  -60.55 | X-H torsion
[ 11005 11000 10999 10996 ] final  -67.16 input  -57.11 | X-H torsion

> <Gold.Protein.ActiveResidues>
 VAL166  LYS551  ARG553  GLY616  TRP617  ASP618  TYR619  PRO620  LYS621  CYS622 
 ASP623  PHE694  ASN695  SER759  ASP760  ASP761  ALA762  ILE779  LEU786  VAL792 
 PHE793  MET794  SER795  GLU796  ALA797  LYS798  CYS799  TRP800  GLU811  SER814 

> <Gold.Protein.RotatedAtoms>
  151.8296  135.0626  160.0434 H   0  0  0  0  0  0  0  0  0  0  0  0  # atno 6907 bound_to 6896
  152.2890  133.5539  159.5554 H   0  0  0  0  0  0  0  0  0  0  0  0  # atno 6908 bound_to 6896
  150.7222  134.0371  159.3795 H   0  0  0  0  0  0  0  0  0  0  0  0  # atno 6909 bound_to 6896
  145.2445  139.2765  143.4100 H   0  0  0  0  0  0  0  0  0  0  0  0  # atno 7974 bound_to 7965
  154.4146  140.1190  156.5223 H   0  0  0  0  0  0  0  0  0  0  0  0  # atno 8008 bound_to 7997
  155.6690  140.3496  155.4791 H   0  0  0  0  0  0  0  0  0  0  0  0  # atno 8009 bound_to 7997
  155.9649  140.1130  157.0853 H   0  0  0  0  0  0  0  0  0  0  0  0  # atno 8010 bound_to 7997
  140.5699  143.9181  150.6704 H   0  0  0  0  0  0  0  0  0  0  0  0  # atno 10167 bound_to 10162
  155.9995  130.4738  150.4594 H   0  0  0  0  0  0  0  0  0  0  0  0  # atno 10718 bound_to 10713
  153.0356  135.6457  154.1086 H   0  0  0  0  0  0  0  0  0  0  0  0  # atno 10763 bound_to 10752
  154.0802  135.2874  155.3293 H   0  0  0  0  0  0  0  0  0  0  0  0  # atno 10764 bound_to 10752
  154.6535  135.5417  153.7995 H   0  0  0  0  0  0  0  0  0  0  0  0  # atno 10765 bound_to 10752
  141.1501  133.6713  156.6250 H   0  0  0  0  0  0  0  0  0  0  0  0  # atno 11005 bound_to 11000
  146.3319  140.2818  142.8610 LP  0  0  0  0  0  0  0  0  0  0  0  0  # atno 17320 bound_to 7965
  144.9558  140.8225  143.5544 LP  0  0  0  0  0  0  0  0  0  0  0  0  # atno 17321 bound_to 7965
  140.2654  143.3494  152.1286 LP  0  0  0  0  0  0  0  0  0  0  0  0  # atno 17342 bound_to 10162
  139.5112  144.6896  151.5794 LP  0  0  0  0  0  0  0  0  0  0  0  0  # atno 17343 bound_to 10162
  157.2620  131.0569  151.2314 LP  0  0  0  0  0  0  0  0  0  0  0  0  # atno 17370 bound_to 10713
  157.3426  130.7041  149.6391 LP  0  0  0  0  0  0  0  0  0  0  0  0  # atno 17371 bound_to 10713
  140.3511  134.7768  157.4467 LP  0  0  0  0  0  0  0  0  0  0  0  0  # atno 17394 bound_to 11000
  140.0860  134.5666  155.8492 LP  0  0  0  0  0  0  0  0  0  0  0  0  # atno 17395 bound_to 11000

$$$$
