AV-unprocessed.smi:907|AV-procd|sdf|4113|dock5
  -GOLD-   22720 2 13D 1   1.00000     0.00000
 Structure written by MMmdl.
 54 57  0  0  0  0  0  0  0  0  3 V2000
  153.0378  139.2148  155.4888 O   0  0  0  0  0  0  0  0  0  0  0  0
  151.8285  139.3259  155.2836 C   0  0  0  0  0  0  0  0  0  0  0  0
  151.0710  140.2179  155.9453 N   0  0  0  0  0  0  0  0  0  0  0  0
  151.5712  141.1753  156.9262 C   0  0  0  0  0  0  0  0  0  0  0  0
  150.4565  142.1041  157.4370 C   0  0  0  0  0  0  0  0  0  0  0  0
  150.9767  143.1421  158.4123 C   0  0  0  0  0  0  0  0  0  0  0  0
  151.7065  142.7844  159.5668 C   0  0  0  0  0  0  0  0  0  0  0  0
  152.1692  143.7979  160.4316 C   0  0  0  0  0  0  0  0  0  0  0  0
  151.8944  145.1466  160.1237 C   0  0  0  0  0  0  0  0  0  0  0  0
  151.1629  145.4475  158.9564 C   0  0  0  0  0  0  0  0  0  0  0  0
  150.7365  144.4481  158.1530 N   0  3  0  0  0  0  0  0  0  0  0  0
  151.1446  138.5200  154.4339 N   0  0  0  0  0  0  0  0  0  0  0  0
  151.5667  137.1885  153.9792 C   0  0  0  0  0  0  0  0  0  0  0  0
  150.7373  136.1165  154.7129 C   0  0  0  0  0  0  0  0  0  0  0  0
  149.2710  136.3324  154.5429 N   0  3  0  0  0  0  0  0  0  0  0  0
  148.4404  135.3188  155.2555 C   0  0  1  0  0  0  0  0  0  0  0  0
  147.0143  135.1392  154.6782 C   0  0  0  0  0  0  0  0  0  0  0  0
  146.8919  133.6125  154.5147 C   0  0  1  0  0  0  0  0  0  0  0  0
  147.7075  133.1804  153.2844 C   0  0  0  0  0  0  0  0  0  0  0  0
  149.1578  133.3690  153.7630 C   0  0  0  0  0  0  0  0  0  0  0  0
  148.9831  133.8679  155.2144 C   0  0  2  0  0  0  0  0  0  0  0  0
  147.7511  133.0859  155.6578 C   0  0  0  0  0  0  0  0  0  0  0  0
  148.8697  137.7318  154.8656 C   0  0  0  0  0  0  0  0  0  0  0  0
  149.7359  138.7548  154.1104 C   0  0  0  0  0  0  0  0  0  0  0  0
  150.0800  140.2357  155.7523 H   0  0  0  0  0  0  0  0  0  0  0  0
  152.0346  140.6429  157.7587 H   0  0  0  0  0  0  0  0  0  0  0  0
  152.3611  141.7620  156.4563 H   0  0  0  0  0  0  0  0  0  0  0  0
  149.9775  142.6119  156.5988 H   0  0  0  0  0  0  0  0  0  0  0  0
  149.6752  141.5236  157.9298 H   0  0  0  0  0  0  0  0  0  0  0  0
  151.9117  141.7467  159.7876 H   0  0  0  0  0  0  0  0  0  0  0  0
  152.7294  143.5435  161.3197 H   0  0  0  0  0  0  0  0  0  0  0  0
  152.2408  145.9377  160.7727 H   0  0  0  0  0  0  0  0  0  0  0  0
  150.9085  146.4496  158.6434 H   0  0  0  0  0  0  0  0  0  0  0  0
  151.4025  137.1124  152.9032 H   0  0  0  0  0  0  0  0  0  0  0  0
  152.6281  136.9893  154.1260 H   0  0  0  0  0  0  0  0  0  0  0  0
  151.0237  135.1375  154.3302 H   0  0  0  0  0  0  0  0  0  0  0  0
  150.9810  136.1257  155.7765 H   0  0  0  0  0  0  0  0  0  0  0  0
  148.3626  135.6249  156.3008 H   0  0  0  0  0  0  0  0  0  0  0  0
  146.2693  135.5210  155.3773 H   0  0  0  0  0  0  0  0  0  0  0  0
  146.8618  135.6429  153.7232 H   0  0  0  0  0  0  0  0  0  0  0  0
  145.8627  133.2525  154.5043 H   0  0  0  0  0  0  0  0  0  0  0  0
  147.5171  132.1343  153.0397 H   0  0  0  0  0  0  0  0  0  0  0  0
  147.4778  133.7765  152.4003 H   0  0  0  0  0  0  0  0  0  0  0  0
  149.6893  132.4168  153.7451 H   0  0  0  0  0  0  0  0  0  0  0  0
  149.7140  134.0663  153.1364 H   0  0  0  0  0  0  0  0  0  0  0  0
  149.8587  133.7047  155.8434 H   0  0  0  0  0  0  0  0  0  0  0  0
  147.3830  133.3737  156.6443 H   0  0  0  0  0  0  0  0  0  0  0  0
  147.8911  132.0036  155.6311 H   0  0  0  0  0  0  0  0  0  0  0  0
  147.8244  137.9023  154.6110 H   0  0  0  0  0  0  0  0  0  0  0  0
  148.9608  137.8953  155.9408 H   0  0  0  0  0  0  0  0  0  0  0  0
  149.4142  139.7694  154.3502 H   0  0  0  0  0  0  0  0  0  0  0  0
  149.5900  138.6476  153.0343 H   0  0  0  0  0  0  0  0  0  0  0  0
  149.0856  136.2072  153.5580 H   0  0  0  0  0  0  0  0  0  0  0  0
  150.2091  144.6899  157.3138 H   0  0  0  0  0  0  0  0  0  0  0  0
  1  2  2  0  0  0  0
  2  3  1  0  0  0  0
  2 12  1  0  0  0  0
  3  4  1  0  0  0  0
  3 25  1  0  0  0  0
  4  5  1  0  0  0  0
  4 26  1  0  0  0  0
  4 27  1  0  0  0  0
  5  6  1  0  0  0  0
  5 28  1  0  0  0  0
  5 29  1  0  0  0  0
  6 11  1  0  0  0  0
  6  7  2  0  0  0  0
  7  8  1  0  0  0  0
  7 30  1  0  0  0  0
  8  9  2  0  0  0  0
  8 31  1  0  0  0  0
  9 10  1  0  0  0  0
  9 32  1  0  0  0  0
 10 11  2  0  0  0  0
 10 33  1  0  0  0  0
 11 54  1  0  0  0  0
 12 24  1  0  0  0  0
 12 13  1  0  0  0  0
 13 14  1  0  0  0  0
 13 34  1  0  0  0  0
 13 35  1  0  0  0  0
 14 15  1  0  0  0  0
 14 36  1  0  0  0  0
 14 37  1  0  0  0  0
 15 16  1  0  0  0  0
 15 23  1  0  0  0  0
 15 53  1  0  0  0  0
 16 21  1  0  0  0  0
 16 17  1  0  0  0  0
 16 38  1  0  0  0  0
 17 18  1  0  0  0  0
 17 39  1  0  0  0  0
 17 40  1  0  0  0  0
 18 22  1  0  0  0  0
 18 19  1  0  0  0  0
 18 41  1  0  0  0  0
 19 20  1  0  0  0  0
 19 42  1  0  0  0  0
 19 43  1  0  0  0  0
 20 21  1  0  0  0  0
 20 44  1  0  0  0  0
 20 45  1  0  0  0  0
 21 22  1  0  0  0  0
 21 46  1  0  0  0  0
 22 47  1  0  0  0  0
 22 48  1  0  0  0  0
 23 24  1  0  0  0  0
 23 49  1  0  0  0  0
 23 50  1  0  0  0  0
 24 51  1  0  0  0  0
 24 52  1  0  0  0  0
M  CHG  1  11   1
M  CHG  1  15   1
M  END
> <s_m_source_file>
AV-unprocessed.smi

> <i_m_source_file_index>
907

> <i_lp_mmshare_version>
43012

> <i_f3d_flags>
0

> <s_epik_input>
W0NIMl0xW0NIMl1bQ0BASF0oW0NIMl0yKVtDQEBIXShbQ0gyXVtDQEhdMTIpTihbQ0gyXVtDSDJdMylbQ0gyXVtDSDJdTjNDKD1PKVtOSF1bQ0gyXVtDSDJdYzRbY0hdW2NIXVtjSF1bY0hdbjQ=

> <s_epik_cmdline>
J2VwaWtfcHl0aG9uJywgJy1waCcsICc3LjAnLCAnLXRuJywgJzgnLCAnLW1hJywgJzIwMCcsICctbWV0YWxfYmluZGluZycsICctaW1hZScsICc8aW5maWxlLm1hZT4nLCAnLW9tYWUnLCAnPG91dGZpbGUubWFlPic=

> <r_epik_Ionization_Penalty>
1.63018

> <r_epik_Ionization_Penalty_Charging>
1.63015

> <r_epik_Ionization_Penalty_Neutral>
2.64641e-05

> <r_epik_State_Penalty>
1.72761

> <r_epik_Charging_Adjusted_Penalty>
3.35777

> <i_epik_Tot_Q>
2

> <i_epik_Tot_abs_Q>
2

> <r_epik_Metal_State_Penalty>
1.76501

> <b_epik_Metal_Only>
0

> <s_lp_Force_Field>
OPLS_2005

> <r_lp_Energy>
102.542

> <b_lp_Chiralities_Consistent>
1

> <s_lp_Variant>
AV-unprocessed.smi:907-8

> <Gold.Version>
5.8.1

> <Gold.Id.Protein>
6NUR|6NUR_protein|mol2

> <Gold.PLP.Fitness>
53.7096

> <Gold.PLP.PLP>
-41.3753

> <Gold.PLP.part.hbond>
-3.1949

> <Gold.PLP.part.metal>
0.0000

> <Gold.PLP.part.buried>
1.0512

> <Gold.PLP.part.nonpolar>
-38.7045

> <Gold.PLP.part.repulsive>
0.2258

> <Gold.PLP.ligand.clash>
1.8040

> <Gold.PLP.ligand.torsion>
0.4831

> <Gold.PLP.Chemscore.Hbond>
5.0000

> <Gold.PLP.Chemscore.CHOScore>
0.0000

> <Gold.PLP.Chemscore.Metal>
0.0000

> <Gold.Chemscore.Hbonds>
donor molecule, donor type, donor heavy atom, donor atom, acceptor molecule, acceptor atom, score
      L1  H    11    54       P1  8028  1.76
      L1  H    15    53       P1  7948  2.00
      P1  H  7997  8008       L1     1  1.00

> <Gold.PLP.Chemscore.Internal.Correction>
0.1044

> <Gold.Rescore>
     Score         DG    S(hbond)    S(metal)    S(lipo)     H(rot)  DE(clash)    DE(int)     intcor
     21.61     -24.00       2.54        0.00     117.50       1.46       1.97       0.41       ----

> <Gold.Chemscore.Fitness>
21.6136

> <Gold.Chemscore.DG>
-23.9954

> <Gold.Chemscore.ZeroCoef>
-5.4800

> <Gold.Chemscore.Hbond>
2.5444

> <Gold.Chemscore.Metal>
0.0000

> <Gold.Chemscore.Lipo>
117.5007

> <Gold.Chemscore.Internal_Hbond>
0.0000

> <Gold.Chemscore.DEClash>
1.9737

> <Gold.Chemscore.DEInternal>
0.4081

> <Gold.Chemscore.Rot>
1.4572

> <Gold.Chemscore.Internal.Correction>
   9.000000E+99

> <Gold.Chemscore.Hbonds>
donor molecule, donor type, donor heavy atom, donor atom, acceptor molecule, acceptor atom, score
      L1  H    11    54       P1  8028  0.26
      L1  H    15    53       P1  7948  0.96
      P1  H  7997  8008       L1     1  0.98

> <Gold.Chemscore.Hbond.Weighted>
-8.4984

> <Gold.Chemscore.Metal.Weighted>
-0.0000

> <Gold.Chemscore.Lipo.Weighted>
-13.7476

> <Gold.Chemscore.Internal_Hbond.Weighted>
0.0000

> <Gold.Chemscore.DEClash.Weighted>
1.9737

> <Gold.Chemscore.DEInternal.Weighted>
0.4081

> <Gold.Chemscore.Rot.Weighted>
3.7305

> <Gold.Chemscore.Internal.Correction.Weighted>
   9.000000E+99

> <Gold.Protein.RotatedTorsions>
[ 6907 6896 6895 6894 ] final -139.43 input  -60.11 | X-H torsion
[ 7974 7965 7964 7962 ] final   10.00 input  175.53 | X-H torsion
[ 8008 7997 7996 7995 ] final  -42.33 input   59.86 | X-H torsion
[ 10167 10162 10161 10158 ] final -103.24 input  -65.29 | X-H torsion
[ 10718 10713 10712 10709 ] final   97.27 input   66.30 | X-H torsion
[ 10763 10752 10751 10750 ] final   26.62 input  -60.55 | X-H torsion
[ 11005 11000 10999 10996 ] final -173.33 input  -57.11 | X-H torsion

> <Gold.Protein.ActiveResidues>
 VAL166  LYS551  ARG553  GLY616  TRP617  ASP618  TYR619  PRO620  LYS621  CYS622 
 ASP623  PHE694  ASN695  SER759  ASP760  ASP761  ALA762  ILE779  LEU786  VAL792 
 PHE793  MET794  SER795  GLU796  ALA797  LYS798  CYS799  TRP800  GLU811  SER814 

> <Gold.Protein.RotatedAtoms>
  151.0477  133.5651  159.2644 H   0  0  0  0  0  0  0  0  0  0  0  0  # atno 6907 bound_to 6896
  151.2673  135.0672  159.9131 H   0  0  0  0  0  0  0  0  0  0  0  0  # atno 6908 bound_to 6896
  152.5376  134.0213  159.8037 H   0  0  0  0  0  0  0  0  0  0  0  0  # atno 6909 bound_to 6896
  146.2395  139.9700  142.8448 H   0  0  0  0  0  0  0  0  0  0  0  0  # atno 7974 bound_to 7965
  154.3999  140.1476  156.3338 H   0  0  0  0  0  0  0  0  0  0  0  0  # atno 8008 bound_to 7997
  155.8419  140.3461  155.5616 H   0  0  0  0  0  0  0  0  0  0  0  0  # atno 8009 bound_to 7997
  155.8078  140.0879  157.1912 H   0  0  0  0  0  0  0  0  0  0  0  0  # atno 8010 bound_to 7997
  140.2221  143.3668  152.0960 H   0  0  0  0  0  0  0  0  0  0  0  0  # atno 10167 bound_to 10162
  157.6915  131.0604  150.4618 H   0  0  0  0  0  0  0  0  0  0  0  0  # atno 10718 bound_to 10713
  153.0610  135.6556  154.0462 H   0  0  0  0  0  0  0  0  0  0  0  0  # atno 10763 bound_to 10752
  154.0130  135.2926  155.3391 H   0  0  0  0  0  0  0  0  0  0  0  0  # atno 10764 bound_to 10752
  154.6949  135.5268  153.8512 H   0  0  0  0  0  0  0  0  0  0  0  0  # atno 10765 bound_to 10752
  140.4870  134.6021  157.4940 H   0  0  0  0  0  0  0  0  0  0  0  0  # atno 11005 bound_to 11000
  145.1690  140.9711  143.4332 LP  0  0  0  0  0  0  0  0  0  0  0  0  # atno 17320 bound_to 7965
  145.0046  139.3566  143.6150 LP  0  0  0  0  0  0  0  0  0  0  0  0  # atno 17321 bound_to 7965
  139.5140  144.6941  151.5678 LP  0  0  0  0  0  0  0  0  0  0  0  0  # atno 17342 bound_to 10162
  140.6247  143.9191  150.6555 LP  0  0  0  0  0  0  0  0  0  0  0  0  # atno 17343 bound_to 10162
  156.4962  130.4106  149.6378 LP  0  0  0  0  0  0  0  0  0  0  0  0  # atno 17370 bound_to 10713
  156.3371  130.7362  151.2301 LP  0  0  0  0  0  0  0  0  0  0  0  0  # atno 17371 bound_to 10713
  139.9792  134.7165  155.9891 LP  0  0  0  0  0  0  0  0  0  0  0  0  # atno 17394 bound_to 11000
  141.1503  133.6549  156.3993 LP  0  0  0  0  0  0  0  0  0  0  0  0  # atno 17395 bound_to 11000

$$$$
