AV-unprocessed.smi:284|AV-procd|sdf|2159|dock3
  -GOLD-   2262021513D 1   1.00000     0.00000
 Structure written by MMmdl.
 60 62  0  0  0  0  0  0  0  0  1 V2000
  150.7970  135.9551  155.5170 C   0  0  0  0  0  0  0  0  0  0  0  0
  150.0848  134.6120  155.5627 C   0  0  0  0  0  0  0  0  0  0  0  0
  149.0127  134.3392  154.7842 C   0  0  0  0  0  0  0  0  0  0  0  0
  148.3355  133.1351  154.8066 N   0  0  0  0  0  0  0  0  0  0  0  0
  147.1618  132.9258  153.8736 C   0  0  2  0  0  0  0  0  0  0  0  0
  147.3319  131.7241  152.9328 C   0  0  0  0  0  0  0  0  0  0  0  0
  146.5549  132.1905  151.7183 C   0  0  2  0  0  0  0  0  0  0  0  0
  147.0230  131.5578  150.5448 O   0  0  0  0  0  0  0  0  0  0  0  0
  146.8403  133.6985  151.7233 C   0  0  1  0  0  0  0  0  0  0  0  0
  145.8099  134.6044  151.0260 C   0  0  0  0  0  0  0  0  0  0  0  0
  146.2189  135.9568  151.0135 O   0  0  0  0  0  0  0  0  0  0  0  0
  146.9964  134.0708  153.0903 O   0  0  0  0  0  0  0  0  0  0  0  0
  148.7931  132.0946  155.6456 C   0  0  0  0  0  0  0  0  0  0  0  0
  148.2362  130.9953  155.6596 O   0  0  0  0  0  0  0  0  0  0  0  0
  149.9111  132.3477  156.4725 N   0  0  0  0  0  0  0  0  0  0  0  0
  150.3727  131.2825  157.3915 C   0  0  0  0  0  0  0  0  0  0  0  0
  151.8856  131.0205  157.3151 C   0  0  0  0  0  0  0  0  0  0  0  0
  152.6552  131.5645  158.1085 O   0  0  0  0  0  0  0  0  0  0  0  0
  152.2680  130.1514  156.3617 N   0  0  0  0  0  0  0  0  0  0  0  0
  153.5828  129.7242  156.0323 C   0  0  0  0  0  0  0  0  0  0  0  0
  153.7383  128.4121  155.5450 C   0  0  0  0  0  0  0  0  0  0  0  0
  155.0094  127.9250  155.1847 C   0  0  0  0  0  0  0  0  0  0  0  0
  156.1591  128.7459  155.2933 C   0  0  0  0  0  0  0  0  0  0  0  0
  157.5679  128.2493  154.9151 C   0  0  0  0  0  0  0  0  0  0  0  0
  158.5025  128.3628  156.1373 C   0  0  0  0  0  0  0  0  0  0  0  0
  158.2035  129.0582  153.7618 C   0  0  0  0  0  0  0  0  0  0  0  0
  157.4939  126.7748  154.4661 C   0  0  0  0  0  0  0  0  0  0  0  0
  155.9896  130.0697  155.7630 C   0  0  0  0  0  0  0  0  0  0  0  0
  154.7200  130.5588  156.1237 C   0  0  0  0  0  0  0  0  0  0  0  0
  150.5901  133.5909  156.4829 C   0  0  0  0  0  0  0  0  0  0  0  0
  151.5473  133.7773  157.2367 O   0  0  0  0  0  0  0  0  0  0  0  0
  150.3269  136.6400  154.8108 H   0  0  0  0  0  0  0  0  0  0  0  0
  151.8368  135.8253  155.2147 H   0  0  0  0  0  0  0  0  0  0  0  0
  150.7821  136.4291  156.4992 H   0  0  0  0  0  0  0  0  0  0  0  0
  148.6646  135.1121  154.1137 H   0  0  0  0  0  0  0  0  0  0  0  0
  146.2785  132.8208  154.5041 H   0  0  0  0  0  0  0  0  0  0  0  0
  148.3806  131.5589  152.6882 H   0  0  0  0  0  0  0  0  0  0  0  0
  146.9346  130.8146  153.3838 H   0  0  0  0  0  0  0  0  0  0  0  0
  145.4950  131.9789  151.8621 H   0  0  0  0  0  0  0  0  0  0  0  0
  147.9606  131.4577  150.6114 H   0  0  0  0  0  0  0  0  0  0  0  0
  147.8137  133.8719  151.2618 H   0  0  0  0  0  0  0  0  0  0  0  0
  145.6314  134.2673  150.0046 H   0  0  0  0  0  0  0  0  0  0  0  0
  144.8567  134.5483  151.5523 H   0  0  0  0  0  0  0  0  0  0  0  0
  147.1414  135.9936  151.2157 H   0  0  0  0  0  0  0  0  0  0  0  0
  150.1169  131.5122  158.4269 H   0  0  0  0  0  0  0  0  0  0  0  0
  149.8451  130.3478  157.1938 H   0  0  0  0  0  0  0  0  0  0  0  0
  151.5237  129.6978  155.8523 H   0  0  0  0  0  0  0  0  0  0  0  0
  152.8781  127.7649  155.4513 H   0  0  0  0  0  0  0  0  0  0  0  0
  155.0706  126.9095  154.8260 H   0  0  0  0  0  0  0  0  0  0  0  0
  159.5140  128.0351  155.8947 H   0  0  0  0  0  0  0  0  0  0  0  0
  158.1622  127.7519  156.9737 H   0  0  0  0  0  0  0  0  0  0  0  0
  158.5680  129.3930  156.4892 H   0  0  0  0  0  0  0  0  0  0  0  0
  158.3197  130.1107  154.0232 H   0  0  0  0  0  0  0  0  0  0  0  0
  157.6075  128.9984  152.8504 H   0  0  0  0  0  0  0  0  0  0  0  0
  159.1970  128.6813  153.5164 H   0  0  0  0  0  0  0  0  0  0  0  0
  158.4747  126.3999  154.1708 H   0  0  0  0  0  0  0  0  0  0  0  0
  156.8275  126.6561  153.6108 H   0  0  0  0  0  0  0  0  0  0  0  0
  157.1295  126.1215  155.2589 H   0  0  0  0  0  0  0  0  0  0  0  0
  156.8388  130.7309  155.8488 H   0  0  0  0  0  0  0  0  0  0  0  0
  154.6415  131.5827  156.4559 H   0  0  0  0  0  0  0  0  0  0  0  0
  1  2  1  0  0  0  0
  1 32  1  0  0  0  0
  1 33  1  0  0  0  0
  1 34  1  0  0  0  0
  2 30  1  0  0  0  0
  2  3  2  0  0  0  0
  3  4  1  0  0  0  0
  3 35  1  0  0  0  0
  4  5  1  0  0  0  0
  4 13  1  0  0  0  0
  5 12  1  0  0  0  0
  5  6  1  0  0  0  0
  5 36  1  0  0  0  0
  6  7  1  0  0  0  0
  6 37  1  0  0  0  0
  6 38  1  0  0  0  0
  7  8  1  0  0  0  0
  7  9  1  0  0  0  0
  7 39  1  0  0  0  0
  8 40  1  0  0  0  0
  9 10  1  0  0  0  0
  9 12  1  0  0  0  0
  9 41  1  0  0  0  0
 10 11  1  0  0  0  0
 10 42  1  0  0  0  0
 10 43  1  0  0  0  0
 11 44  1  0  0  0  0
 13 14  2  0  0  0  0
 13 15  1  0  0  0  0
 15 16  1  0  0  0  0
 15 30  1  0  0  0  0
 16 17  1  0  0  0  0
 16 45  1  0  0  0  0
 16 46  1  0  0  0  0
 17 18  2  0  0  0  0
 17 19  1  0  0  0  0
 19 20  1  0  0  0  0
 19 47  1  0  0  0  0
 20 29  1  0  0  0  0
 20 21  2  0  0  0  0
 21 22  1  0  0  0  0
 21 48  1  0  0  0  0
 22 23  2  0  0  0  0
 22 49  1  0  0  0  0
 23 24  1  0  0  0  0
 23 28  1  0  0  0  0
 24 25  1  0  0  0  0
 24 26  1  0  0  0  0
 24 27  1  0  0  0  0
 25 50  1  0  0  0  0
 25 51  1  0  0  0  0
 25 52  1  0  0  0  0
 26 53  1  0  0  0  0
 26 54  1  0  0  0  0
 26 55  1  0  0  0  0
 27 56  1  0  0  0  0
 27 57  1  0  0  0  0
 27 58  1  0  0  0  0
 28 29  2  0  0  0  0
 28 59  1  0  0  0  0
 29 60  1  0  0  0  0
 30 31  2  0  0  0  0
M  END
> <s_m_source_file>
AV-unprocessed.smi

> <i_m_source_file_index>
284

> <i_lp_mmshare_version>
43012

> <i_f3d_flags>
0

> <s_epik_input>
W09IXVtDSDJdW0NAQEhdKE8xKVtDQEhdKFtPSF0pW0NIMl1bQ0BIXTFuKFtjSF1jMltDSDNdKWMoPU8pbihjMj1PKVtDSDJdQyg9TylbTkhdYzNbY0hdW2NIXWMoQyhbQ0gzXSkoW0NIM10pW0NIM10pW2NIXVtjSF0z

> <s_epik_cmdline>
J2VwaWtfcHl0aG9uJywgJy1waCcsICc3LjAnLCAnLXRuJywgJzgnLCAnLW1hJywgJzIwMCcsICctbWV0YWxfYmluZGluZycsICctaW1hZScsICc8aW5maWxlLm1hZT4nLCAnLW9tYWUnLCAnPG91dGZpbGUubWFlPic=

> <r_lp_tautomer_probability>
1

> <r_epik_Ionization_Penalty>
4.92358e-06

> <r_epik_Ionization_Penalty_Charging>
1.29777e-07

> <r_epik_Ionization_Penalty_Neutral>
4.79381e-06

> <r_epik_State_Penalty>
-0

> <r_epik_Charging_Adjusted_Penalty>
1.29777e-07

> <i_epik_Tot_Q>
0

> <i_epik_Tot_abs_Q>
0

> <r_epik_Metal_State_Penalty>
-0

> <b_epik_Metal_Only>
0

> <s_epik_Chemistry_Notes>
This compound contains an acetal/aminal-like group ( X-CH(R)-Y where X, Y are N, S, or O) that may be acid/base labile, releasing an aldehyde.

> <s_lp_Force_Field>
OPLS_2005

> <r_lp_Energy>
37.3901

> <b_lp_Chiralities_Consistent>
1

> <s_lp_Variant>
AV-unprocessed.smi:284-3

> <Gold.Version>
5.8.1

> <Gold.Id.Protein>
6NUR|6NUR_protein|mol2

> <Gold.PLP.Fitness>
43.2496

> <Gold.PLP.PLP>
-35.5305

> <Gold.PLP.part.hbond>
-2.5553

> <Gold.PLP.part.metal>
0.0000

> <Gold.PLP.part.buried>
-4.3132

> <Gold.PLP.part.nonpolar>
-29.6817

> <Gold.PLP.part.repulsive>
0.7777

> <Gold.PLP.ligand.clash>
0.0000

> <Gold.PLP.ligand.torsion>
0.7101

> <Gold.PLP.Chemscore.Hbond>
2.0047

> <Gold.PLP.Chemscore.CHOScore>
1.0000

> <Gold.PLP.Chemscore.Metal>
0.0000

> <Gold.Chemscore.Hbonds>
donor molecule, donor type, donor heavy atom, donor atom, acceptor molecule, acceptor atom, score
      L1  H     8    40       P1 10747  0.23
      L1  H    11    44       P1  7948  1.00
      P1  H  6896  6907       L1    31  0.37
      L1  C     3    35       P1  7948  1.00

> <Gold.PLP.Chemscore.Internal.Correction>
0.1253

> <Gold.Rescore>
     Score         DG    S(hbond)    S(metal)    S(lipo)     H(rot)  DE(clash)    DE(int)     intcor
      7.15     -13.07       2.00        0.00      79.37       3.27       0.09       5.83       ----

> <Gold.Chemscore.Fitness>
7.1469

> <Gold.Chemscore.DG>
-13.0712

> <Gold.Chemscore.ZeroCoef>
-5.4800

> <Gold.Chemscore.Hbond>
2.0016

> <Gold.Chemscore.Metal>
0.0000

> <Gold.Chemscore.Lipo>
79.3667

> <Gold.Chemscore.Internal_Hbond>
0.0000

> <Gold.Chemscore.DEClash>
0.0898

> <Gold.Chemscore.DEInternal>
5.8345

> <Gold.Chemscore.Rot>
3.2735

> <Gold.Chemscore.Internal.Correction>
   9.000000E+99

> <Gold.Chemscore.Hbonds>
donor molecule, donor type, donor heavy atom, donor atom, acceptor molecule, acceptor atom, score
      L1  H     8    40       P1 10747  0.23
      L1  H    11    44       P1  7948  0.99
      P1  H  6896  6907       L1    31  0.35

> <Gold.Chemscore.Hbond.Weighted>
-6.6854

> <Gold.Chemscore.Metal.Weighted>
-0.0000

> <Gold.Chemscore.Lipo.Weighted>
-9.2859

> <Gold.Chemscore.Internal_Hbond.Weighted>
0.0000

> <Gold.Chemscore.DEClash.Weighted>
0.0898

> <Gold.Chemscore.DEInternal.Weighted>
5.8345

> <Gold.Chemscore.Rot.Weighted>
8.3801

> <Gold.Chemscore.Internal.Correction.Weighted>
   9.000000E+99

> <Gold.Protein.RotatedTorsions>
[ 6907 6896 6895 6894 ] final -174.59 input  -60.11 | X-H torsion
[ 7974 7965 7964 7962 ] final  -45.33 input  175.53 | X-H torsion
[ 8008 7997 7996 7995 ] final -115.23 input   59.86 | X-H torsion
[ 10167 10162 10161 10158 ] final  -96.73 input  -65.29 | X-H torsion
[ 10718 10713 10712 10709 ] final  -92.76 input   66.30 | X-H torsion
[ 10763 10752 10751 10750 ] final  -68.51 input  -60.55 | X-H torsion
[ 11005 11000 10999 10996 ] final  -59.53 input  -57.11 | X-H torsion

> <Gold.Protein.ActiveResidues>
 VAL166  LYS551  ARG553  GLY616  TRP617  ASP618  TYR619  PRO620  LYS621  CYS622 
 ASP623  PHE694  ASN695  SER759  ASP760  ASP761  ALA762  ILE779  LEU786  VAL792 
 PHE793  MET794  SER795  GLU796  ALA797  LYS798  CYS799  TRP800  GLU811  SER814 

> <Gold.Protein.RotatedAtoms>
  151.5748  133.3385  159.2996 H   0  0  0  0  0  0  0  0  0  0  0  0  # atno 6907 bound_to 6896
  150.8347  134.7618  159.6894 H   0  0  0  0  0  0  0  0  0  0  0  0  # atno 6908 bound_to 6896
  152.4425  134.5568  159.9934 H   0  0  0  0  0  0  0  0  0  0  0  0  # atno 6909 bound_to 6896
  145.9832  140.7261  142.9353 H   0  0  0  0  0  0  0  0  0  0  0  0  # atno 7974 bound_to 7965
  155.0487  140.0393  157.2536 H   0  0  0  0  0  0  0  0  0  0  0  0  # atno 8008 bound_to 7997
  154.7155  140.2701  155.6565 H   0  0  0  0  0  0  0  0  0  0  0  0  # atno 8009 bound_to 7997
  156.2802  140.2713  156.1811 H   0  0  0  0  0  0  0  0  0  0  0  0  # atno 8010 bound_to 7997
  140.2908  143.3223  152.0348 H   0  0  0  0  0  0  0  0  0  0  0  0  # atno 10167 bound_to 10162
  156.0005  130.5000  150.5674 H   0  0  0  0  0  0  0  0  0  0  0  0  # atno 10718 bound_to 10713
  154.3900  135.6055  153.5838 H   0  0  0  0  0  0  0  0  0  0  0  0  # atno 10763 bound_to 10752
  152.9787  135.5881  154.4308 H   0  0  0  0  0  0  0  0  0  0  0  0  # atno 10764 bound_to 10752
  154.4091  135.2844  155.2026 H   0  0  0  0  0  0  0  0  0  0  0  0  # atno 10765 bound_to 10752
  141.1252  133.6617  156.5085 H   0  0  0  0  0  0  0  0  0  0  0  0  # atno 11005 bound_to 11000
  144.6867  140.2943  143.7273 LP  0  0  0  0  0  0  0  0  0  0  0  0  # atno 17320 bound_to 7965
  145.7739  139.1867  143.2196 LP  0  0  0  0  0  0  0  0  0  0  0  0  # atno 17321 bound_to 7965
  139.4938  144.6526  151.6642 LP  0  0  0  0  0  0  0  0  0  0  0  0  # atno 17342 bound_to 10162
  140.5734  144.0070  150.6229 LP  0  0  0  0  0  0  0  0  0  0  0  0  # atno 17343 bound_to 10162
  157.3575  131.0744  151.1664 LP  0  0  0  0  0  0  0  0  0  0  0  0  # atno 17370 bound_to 10713
  157.2460  130.6591  149.5910 LP  0  0  0  0  0  0  0  0  0  0  0  0  # atno 17371 bound_to 10713
  140.4388  134.7035  157.4981 LP  0  0  0  0  0  0  0  0  0  0  0  0  # atno 17394 bound_to 11000
  140.0243  134.6500  155.9195 LP  0  0  0  0  0  0  0  0  0  0  0  0  # atno 17395 bound_to 11000

$$$$
