AV-unprocessed.smi:266|AV-procd|sdf|2038|dock10
  -GOLD-   2262021253D 1   1.00000     0.00000
 Structure written by MMmdl.
 52 55  0  0  0  0  0  0  0  0  1 V2000
  146.8829  133.3381  151.2274 C   0  0  0  0  0  0  0  0  0  0  0  0
  145.5538  133.1117  150.4903 C   0  0  1  0  0  0  0  0  0  0  0  0
  144.9238  131.9820  151.0912 O   0  0  0  0  0  0  0  0  0  0  0  0
  143.5184  132.1558  151.0484 C   0  0  0  0  0  0  0  0  0  0  0  0
  143.3614  133.6397  151.3417 C   0  0  0  0  0  0  0  0  0  0  0  0
  144.5122  134.2645  150.5585 C   0  0  2  0  0  0  0  0  0  0  0  0
  144.0533  134.5073  149.2383 O   0  0  0  0  0  0  0  0  0  0  0  0
  145.0070  135.6144  151.1422 C   0  0  0  0  0  0  0  0  0  0  0  0
  145.0050  135.6466  152.5972 N   0  0  0  0  0  0  0  0  0  0  0  0
  146.0826  135.4443  153.4310 C   0  0  0  0  0  0  0  0  0  0  0  0
  145.8260  135.5400  154.7075 N   0  0  0  0  0  0  0  0  0  0  0  0
  144.4661  135.8199  154.7565 C   0  0  0  0  0  0  0  0  0  0  0  0
  143.5368  136.0544  155.8073 C   0  0  0  0  0  0  0  0  0  0  0  0
  143.8544  136.0616  157.1172 N   0  0  0  0  0  0  0  0  0  0  0  0
  142.7367  136.4135  157.9829 C   0  0  0  0  0  0  0  0  0  0  0  0
  144.6866  134.9291  157.5116 C   0  0  0  0  0  0  0  0  0  0  0  0
  145.4022  135.1678  158.8518 C   0  0  1  0  0  0  0  0  0  0  0  0
  146.0806  133.8896  159.3811 C   0  0  0  0  0  0  0  0  0  0  0  0
  147.0055  134.2710  160.5408 C   0  0  0  0  0  0  0  0  0  0  0  0
  147.6735  135.9211  160.1123 S   0  0  0  0  0  0  0  0  0  0  0  0
  147.4325  136.8421  161.2332 O   0  0  0  0  0  0  0  0  0  0  0  0
  149.0158  135.7705  159.5304 O   0  0  0  0  0  0  0  0  0  0  0  0
  146.4774  136.2649  158.7663 C   0  0  0  0  0  0  0  0  0  0  0  0
  142.2472  136.3086  155.4777 N   0  0  0  0  0  0  0  0  0  0  0  0
  141.8814  136.3296  154.1924 C   0  0  0  0  0  0  0  0  0  0  0  0
  142.6331  136.1327  153.1068 N   0  0  0  0  0  0  0  0  0  0  0  0
  143.9324  135.8820  153.4394 C   0  0  0  0  0  0  0  0  0  0  0  0
  147.4288  134.1865  150.8147 H   0  0  0  0  0  0  0  0  0  0  0  0
  147.5256  132.4624  151.1369 H   0  0  0  0  0  0  0  0  0  0  0  0
  146.7246  133.5165  152.2914 H   0  0  0  0  0  0  0  0  0  0  0  0
  145.7755  132.8575  149.4521 H   0  0  0  0  0  0  0  0  0  0  0  0
  143.1448  131.9084  150.0536 H   0  0  0  0  0  0  0  0  0  0  0  0
  143.0112  131.5240  151.7778 H   0  0  0  0  0  0  0  0  0  0  0  0
  142.3791  134.0313  151.0733 H   0  0  0  0  0  0  0  0  0  0  0  0
  143.5034  133.8010  152.4108 H   0  0  0  0  0  0  0  0  0  0  0  0
  144.8021  134.6760  148.6872 H   0  0  0  0  0  0  0  0  0  0  0  0
  146.0244  135.8247  150.8119 H   0  0  0  0  0  0  0  0  0  0  0  0
  144.3896  136.4379  150.7808 H   0  0  0  0  0  0  0  0  0  0  0  0
  147.0746  135.2317  153.0594 H   0  0  0  0  0  0  0  0  0  0  0  0
  142.0943  137.1622  157.5166 H   0  0  0  0  0  0  0  0  0  0  0  0
  143.1023  136.8306  158.9209 H   0  0  0  0  0  0  0  0  0  0  0  0
  142.1305  135.5364  158.2118 H   0  0  0  0  0  0  0  0  0  0  0  0
  144.0570  134.0413  157.5854 H   0  0  0  0  0  0  0  0  0  0  0  0
  145.4275  134.7166  156.7385 H   0  0  0  0  0  0  0  0  0  0  0  0
  144.6707  135.4726  159.6012 H   0  0  0  0  0  0  0  0  0  0  0  0
  145.3493  133.1402  159.6850 H   0  0  0  0  0  0  0  0  0  0  0  0
  146.6796  133.4451  158.5853 H   0  0  0  0  0  0  0  0  0  0  0  0
  146.4430  134.3653  161.4698 H   0  0  0  0  0  0  0  0  0  0  0  0
  147.8183  133.5607  160.6934 H   0  0  0  0  0  0  0  0  0  0  0  0
  147.0172  136.2139  157.8200 H   0  0  0  0  0  0  0  0  0  0  0  0
  146.0677  137.2691  158.8748 H   0  0  0  0  0  0  0  0  0  0  0  0
  140.8379  136.5375  154.0071 H   0  0  0  0  0  0  0  0  0  0  0  0
  1  2  1  0  0  0  0
  1 28  1  0  0  0  0
  1 29  1  0  0  0  0
  1 30  1  0  0  0  0
  2  6  1  0  0  0  0
  2  3  1  0  0  0  0
  2 31  1  0  0  0  0
  3  4  1  0  0  0  0
  4  5  1  0  0  0  0
  4 32  1  0  0  0  0
  4 33  1  0  0  0  0
  5  6  1  0  0  0  0
  5 34  1  0  0  0  0
  5 35  1  0  0  0  0
  6  7  1  0  0  0  0
  6  8  1  0  0  0  0
  7 36  1  0  0  0  0
  8  9  1  0  0  0  0
  8 37  1  0  0  0  0
  8 38  1  0  0  0  0
  9 27  1  0  0  0  0
  9 10  1  0  0  0  0
 10 11  2  0  0  0  0
 10 39  1  0  0  0  0
 11 12  1  0  0  0  0
 12 27  2  0  0  0  0
 12 13  1  0  0  0  0
 13 14  1  0  0  0  0
 13 24  2  0  0  0  0
 14 15  1  0  0  0  0
 14 16  1  0  0  0  0
 15 40  1  0  0  0  0
 15 41  1  0  0  0  0
 15 42  1  0  0  0  0
 16 17  1  0  0  0  0
 16 43  1  0  0  0  0
 16 44  1  0  0  0  0
 17 23  1  0  0  0  0
 17 18  1  0  0  0  0
 17 45  1  0  0  0  0
 18 19  1  0  0  0  0
 18 46  1  0  0  0  0
 18 47  1  0  0  0  0
 19 20  1  0  0  0  0
 19 48  1  0  0  0  0
 19 49  1  0  0  0  0
 20 21  2  0  0  0  0
 20 22  2  0  0  0  0
 20 23  1  0  0  0  0
 23 50  1  0  0  0  0
 23 51  1  0  0  0  0
 24 25  1  0  0  0  0
 25 26  2  0  0  0  0
 25 52  1  0  0  0  0
 26 27  1  0  0  0  0
M  END
> <s_m_source_file>
AV-unprocessed.smi

> <i_m_source_file_index>
266

> <i_lp_mmshare_version>
43012

> <i_f3d_flags>
0

> <s_epik_input>
W0NIMl0xW0NIMl1PW0NAQEhdKFtDSDNdKVtDQEBdMShbT0hdKVtDSDJdbihbY0hdbjIpYyhjMjMpbltjSF1uYzNOKFtDSDNdKVtDSDJdW0NAQEhdKFtDSDJdNClbQ0gyXVtDSDJdUzQoPU8pPU8=

> <s_epik_cmdline>
J2VwaWtfcHl0aG9uJywgJy1waCcsICc3LjAnLCAnLXRuJywgJzgnLCAnLW1hJywgJzIwMCcsICctbWV0YWxfYmluZGluZycsICctaW1hZScsICc8aW5maWxlLm1hZT4nLCAnLW9tYWUnLCAnPG91dGZpbGUubWFlPic=

> <r_lp_tautomer_probability>
1

> <r_epik_Ionization_Penalty>
0.00155497

> <r_epik_Ionization_Penalty_Charging>
0

> <r_epik_Ionization_Penalty_Neutral>
0.00155497

> <r_epik_State_Penalty>
-0

> <r_epik_Charging_Adjusted_Penalty>
0

> <i_epik_Tot_Q>
0

> <i_epik_Tot_abs_Q>
0

> <r_epik_Metal_State_Penalty>
-0

> <b_epik_Metal_Only>
0

> <s_lp_Force_Field>
OPLS_2005

> <r_lp_Energy>
32.9828

> <b_lp_Chiralities_Consistent>
1

> <s_lp_Variant>
AV-unprocessed.smi:266-8

> <Gold.Version>
5.8.1

> <Gold.Id.Protein>
6NUR|6NUR_protein|mol2

> <Gold.PLP.Fitness>
43.9690

> <Gold.PLP.PLP>
-30.9030

> <Gold.PLP.part.hbond>
-5.1337

> <Gold.PLP.part.metal>
0.0000

> <Gold.PLP.part.buried>
-5.7980

> <Gold.PLP.part.nonpolar>
-19.4963

> <Gold.PLP.part.repulsive>
0.3274

> <Gold.PLP.ligand.clash>
0.0000

> <Gold.PLP.ligand.torsion>
0.9422

> <Gold.PLP.Chemscore.Hbond>
3.8400

> <Gold.PLP.Chemscore.CHOScore>
1.0000

> <Gold.PLP.Chemscore.Metal>
0.0000

> <Gold.Chemscore.Hbonds>
donor molecule, donor type, donor heavy atom, donor atom, acceptor molecule, acceptor atom, score
      L1  H     7    36       P1  7921  1.00
      P1  H  6896  6907       L1    22  1.00
      P1  H  6931  6943       L1    21  0.49
      P1  H  6934  6947       L1    21  0.54
      L1  C    10    39       P1  7948  1.00

> <Gold.PLP.Chemscore.Internal.Correction>
0.4304

> <Gold.Rescore>
     Score         DG    S(hbond)    S(metal)    S(lipo)     H(rot)  DE(clash)    DE(int)     intcor
     16.24     -17.19       3.74        0.00      53.70       2.76       0.01       0.94       ----

> <Gold.Chemscore.Fitness>
16.2418

> <Gold.Chemscore.DG>
-17.1861

> <Gold.Chemscore.ZeroCoef>
-5.4800

> <Gold.Chemscore.Hbond>
3.7420

> <Gold.Chemscore.Metal>
0.0000

> <Gold.Chemscore.Lipo>
53.7005

> <Gold.Chemscore.Internal_Hbond>
0.0000

> <Gold.Chemscore.DEClash>
0.0082

> <Gold.Chemscore.DEInternal>
0.9360

> <Gold.Chemscore.Rot>
2.7637

> <Gold.Chemscore.Internal.Correction>
   9.000000E+99

> <Gold.Chemscore.Hbonds>
donor molecule, donor type, donor heavy atom, donor atom, acceptor molecule, acceptor atom, score
      L1  H     7    36       P1  7921  1.00
      P1  H  6896  6907       L1    22  0.95
      P1  H  6931  6943       L1    21  0.47
      P1  H  6934  6947       L1    21  0.51

> <Gold.Chemscore.Hbond.Weighted>
-12.4982

> <Gold.Chemscore.Metal.Weighted>
-0.0000

> <Gold.Chemscore.Lipo.Weighted>
-6.2830

> <Gold.Chemscore.Internal_Hbond.Weighted>
0.0000

> <Gold.Chemscore.DEClash.Weighted>
0.0082

> <Gold.Chemscore.DEInternal.Weighted>
0.9360

> <Gold.Chemscore.Rot.Weighted>
7.0750

> <Gold.Chemscore.Internal.Correction.Weighted>
   9.000000E+99

> <Gold.Protein.RotatedTorsions>
[ 6907 6896 6895 6894 ] final  -56.03 input  -60.11 | X-H torsion
[ 7974 7965 7964 7962 ] final    3.37 input  175.53 | X-H torsion
[ 8008 7997 7996 7995 ] final   92.26 input   59.86 | X-H torsion
[ 10167 10162 10161 10158 ] final  128.56 input  -65.29 | X-H torsion
[ 10718 10713 10712 10709 ] final   17.38 input   66.30 | X-H torsion
[ 10763 10752 10751 10750 ] final  -73.72 input  -60.55 | X-H torsion
[ 11005 11000 10999 10996 ] final  161.82 input  -57.11 | X-H torsion

> <Gold.Protein.ActiveResidues>
 VAL166  LYS551  ARG553  GLY616  TRP617  ASP618  TYR619  PRO620  LYS621  CYS622 
 ASP623  PHE694  ASN695  SER759  ASP760  ASP761  ALA762  ILE779  LEU786  VAL792 
 PHE793  MET794  SER795  GLU796  ALA797  LYS798  CYS799  TRP800  GLU811  SER814 

> <Gold.Protein.RotatedAtoms>
  150.8201  134.7404  159.6764 H   0  0  0  0  0  0  0  0  0  0  0  0  # atno 6907 bound_to 6896
  152.4317  134.5761  159.9944 H   0  0  0  0  0  0  0  0  0  0  0  0  # atno 6908 bound_to 6896
  151.5947  133.3325  159.3071 H   0  0  0  0  0  0  0  0  0  0  0  0  # atno 6909 bound_to 6896
  146.2445  140.0696  142.8363 H   0  0  0  0  0  0  0  0  0  0  0  0  # atno 7974 bound_to 7965
  156.0333  140.3327  155.7163 H   0  0  0  0  0  0  0  0  0  0  0  0  # atno 8008 bound_to 7997
  155.5853  140.0641  157.2790 H   0  0  0  0  0  0  0  0  0  0  0  0  # atno 8009 bound_to 7997
  154.4362  140.1837  156.1006 H   0  0  0  0  0  0  0  0  0  0  0  0  # atno 8010 bound_to 7997
  139.5521  144.6821  151.4293 H   0  0  0  0  0  0  0  0  0  0  0  0  # atno 10167 bound_to 10162
  157.0813  130.6389  149.5827 H   0  0  0  0  0  0  0  0  0  0  0  0  # atno 10718 bound_to 10713
  154.4633  135.5888  153.6270 H   0  0  0  0  0  0  0  0  0  0  0  0  # atno 10763 bound_to 10752
  152.9826  135.6049  154.3459 H   0  0  0  0  0  0  0  0  0  0  0  0  # atno 10764 bound_to 10752
  154.3333  135.2842  155.2439 H   0  0  0  0  0  0  0  0  0  0  0  0  # atno 10765 bound_to 10752
  140.2195  134.8206  157.3206 H   0  0  0  0  0  0  0  0  0  0  0  0  # atno 11005 bound_to 11000
  145.0828  140.9232  143.4815 LP  0  0  0  0  0  0  0  0  0  0  0  0  # atno 17320 bound_to 7965
  145.0852  139.2930  143.5763 LP  0  0  0  0  0  0  0  0  0  0  0  0  # atno 17321 bound_to 7965
  140.6786  143.8134  150.7091 LP  0  0  0  0  0  0  0  0  0  0  0  0  # atno 17342 bound_to 10162
  140.1580  143.4300  152.2086 LP  0  0  0  0  0  0  0  0  0  0  0  0  # atno 17343 bound_to 10162
  155.9923  130.4980  150.7334 LP  0  0  0  0  0  0  0  0  0  0  0  0  # atno 17370 bound_to 10713
  157.4798  131.0901  151.0549 LP  0  0  0  0  0  0  0  0  0  0  0  0  # atno 17371 bound_to 10713
  140.1864  134.4425  155.7741 LP  0  0  0  0  0  0  0  0  0  0  0  0  # atno 17394 bound_to 11000
  141.2223  133.7007  156.7955 LP  0  0  0  0  0  0  0  0  0  0  0  0  # atno 17395 bound_to 11000

$$$$
