AV-unprocessed.smi:664|AV-procd|sdf|3252|dock2
  -GOLD-   22720 0203D 1   1.00000     0.00000
 Structure written by MMmdl.
 31 32  0  0  0  0  0  0  0  0  1 V2000
  148.3048  139.3939  153.9486 C   0  0  0  0  0  0  0  0  0  0  0  0
  149.7285  139.2811  154.4066 C   0  0  0  0  0  0  0  0  0  0  0  0
  150.7020  138.4267  153.7542 C   0  0  0  0  0  0  0  0  0  0  0  0
  151.9657  138.3812  154.2282 C   0  0  0  0  0  0  0  0  0  0  0  0
  152.3795  139.1672  155.3886 C   0  0  0  0  0  0  0  0  0  0  0  0
  153.5204  139.1427  155.8493 O   0  0  0  0  0  0  0  0  0  0  0  0
  151.3779  139.9248  155.9238 N   0  0  0  0  0  0  0  0  0  0  0  0
  151.6061  140.7413  157.1240 C   0  0  0  0  0  0  0  0  0  0  0  0
  151.2986  142.2402  156.8978 C   0  0  1  0  0  0  0  0  0  0  0  0
  149.9452  142.3660  156.5120 O   0  0  0  0  0  0  0  0  0  0  0  0
  151.6365  143.1021  158.1077 C   0  0  0  0  0  0  0  0  0  0  0  0
  151.4248  144.4982  158.0776 C   0  0  0  0  0  0  0  0  0  0  0  0
  151.7087  145.2833  159.2117 C   0  0  0  0  0  0  0  0  0  0  0  0
  152.2027  144.6773  160.3827 C   0  0  0  0  0  0  0  0  0  0  0  0
  152.4136  143.2854  160.4191 C   0  0  0  0  0  0  0  0  0  0  0  0
  153.0092  142.5395  161.8559 Cl  0  0  0  0  0  0  0  0  0  0  0  0
  152.1331  142.5006  159.2839 C   0  0  0  0  0  0  0  0  0  0  0  0
  150.0843  139.9836  155.4313 N   0  0  0  0  0  0  0  0  0  0  0  0
  148.1520  138.8719  153.0037 H   0  0  0  0  0  0  0  0  0  0  0  0
  148.0234  140.4371  153.8015 H   0  0  0  0  0  0  0  0  0  0  0  0
  147.6268  138.9606  154.6844 H   0  0  0  0  0  0  0  0  0  0  0  0
  150.4110  137.8374  152.8972 H   0  0  0  0  0  0  0  0  0  0  0  0
  152.6896  137.7452  153.7409 H   0  0  0  0  0  0  0  0  0  0  0  0
  151.0142  140.3569  157.9568 H   0  0  0  0  0  0  0  0  0  0  0  0
  152.6465  140.6318  157.4375 H   0  0  0  0  0  0  0  0  0  0  0  0
  151.8910  142.5957  156.0538 H   0  0  0  0  0  0  0  0  0  0  0  0
  149.7308  143.2854  156.4699 H   0  0  0  0  0  0  0  0  0  0  0  0
  151.0354  144.9697  157.1871 H   0  0  0  0  0  0  0  0  0  0  0  0
  151.5427  146.3501  159.1850 H   0  0  0  0  0  0  0  0  0  0  0  0
  152.4165  145.2807  161.2526 H   0  0  0  0  0  0  0  0  0  0  0  0
  152.2882  141.4323  159.3221 H   0  0  0  0  0  0  0  0  0  0  0  0
  1  2  1  0  0  0  0
  1 19  1  0  0  0  0
  1 20  1  0  0  0  0
  1 21  1  0  0  0  0
  2 18  2  0  0  0  0
  2  3  1  0  0  0  0
  3  4  2  0  0  0  0
  3 22  1  0  0  0  0
  4  5  1  0  0  0  0
  4 23  1  0  0  0  0
  5  6  2  0  0  0  0
  5  7  1  0  0  0  0
  7  8  1  0  0  0  0
  7 18  1  0  0  0  0
  8  9  1  0  0  0  0
  8 24  1  0  0  0  0
  8 25  1  0  0  0  0
  9 10  1  0  0  0  0
  9 11  1  0  0  0  0
  9 26  1  0  0  0  0
 10 27  1  0  0  0  0
 11 17  1  0  0  0  0
 11 12  2  0  0  0  0
 12 13  1  0  0  0  0
 12 28  1  0  0  0  0
 13 14  2  0  0  0  0
 13 29  1  0  0  0  0
 14 15  1  0  0  0  0
 14 30  1  0  0  0  0
 15 16  1  0  0  0  0
 15 17  2  0  0  0  0
 17 31  1  0  0  0  0
M  END
> <s_m_source_file>
AV-unprocessed.smi

> <i_m_source_file_index>
664

> <i_lp_mmshare_version>
43012

> <i_f3d_flags>
0

> <s_epik_input>
W0NIM11jMVtjSF1bY0hdYyg9TyluKG4xKVtDSDJdW0NASF0oW09IXSljMltjSF1bY0hdW2NIXWMoQ2wpW2NIXTI=

> <s_epik_cmdline>
J2VwaWtfcHl0aG9uJywgJy1waCcsICc3LjAnLCAnLXRuJywgJzgnLCAnLW1hJywgJzIwMCcsICctbWV0YWxfYmluZGluZycsICctaW1hZScsICc8aW5maWxlLm1hZT4nLCAnLW9tYWUnLCAnPG91dGZpbGUubWFlPic=

> <r_lp_tautomer_probability>
1

> <r_epik_Ionization_Penalty>
5.38844e-06

> <r_epik_Ionization_Penalty_Charging>
5.19536e-06

> <r_epik_Ionization_Penalty_Neutral>
1.93084e-07

> <r_epik_State_Penalty>
-0

> <r_epik_Charging_Adjusted_Penalty>
5.19536e-06

> <i_epik_Tot_Q>
0

> <i_epik_Tot_abs_Q>
0

> <r_epik_Metal_State_Penalty>
-0

> <b_epik_Metal_Only>
0

> <s_lp_Force_Field>
OPLS_2005

> <r_lp_Energy>
22.784

> <b_lp_Chiralities_Consistent>
1

> <s_lp_Variant>
AV-unprocessed.smi:664-2

> <Gold.Version>
5.8.1

> <Gold.Id.Protein>
6NUR|6NUR_protein|mol2

> <Gold.PLP.Fitness>
53.6945

> <Gold.PLP.PLP>
-47.7056

> <Gold.PLP.part.hbond>
-1.7621

> <Gold.PLP.part.metal>
0.0000

> <Gold.PLP.part.buried>
-6.1425

> <Gold.PLP.part.nonpolar>
-40.1082

> <Gold.PLP.part.repulsive>
0.0334

> <Gold.PLP.ligand.clash>
0.0000

> <Gold.PLP.ligand.torsion>
0.0159

> <Gold.PLP.Chemscore.Hbond>
2.0000

> <Gold.PLP.Chemscore.CHOScore>
0.0000

> <Gold.PLP.Chemscore.Metal>
0.0000

> <Gold.Chemscore.Hbonds>
donor molecule, donor type, donor heavy atom, donor atom, acceptor molecule, acceptor atom, score
      L1  H    10    27       P1  8028  1.00
      P1  H  7997  8008       L1     6  0.52

> <Gold.PLP.Chemscore.Internal.Correction>
0.0208

> <Gold.Rescore>
     Score         DG    S(hbond)    S(metal)    S(lipo)     H(rot)  DE(clash)    DE(int)     intcor
     20.33     -22.14       1.94        0.00     127.25       1.84       0.10       1.71       ----

> <Gold.Chemscore.Fitness>
20.3294

> <Gold.Chemscore.DG>
-22.1394

> <Gold.Chemscore.ZeroCoef>
-5.4800

> <Gold.Chemscore.Hbond>
1.9405

> <Gold.Chemscore.Metal>
0.0000

> <Gold.Chemscore.Lipo>
127.2546

> <Gold.Chemscore.Internal_Hbond>
0.0000

> <Gold.Chemscore.DEClash>
0.0983

> <Gold.Chemscore.DEInternal>
1.7118

> <Gold.Chemscore.Rot>
1.8400

> <Gold.Chemscore.Internal.Correction>
   9.000000E+99

> <Gold.Chemscore.Hbonds>
donor molecule, donor type, donor heavy atom, donor atom, acceptor molecule, acceptor atom, score
      L1  H    10    27       P1  8028  0.96
      P1  H  7997  8008       L1     6  0.50

> <Gold.Chemscore.Hbond.Weighted>
-6.4811

> <Gold.Chemscore.Metal.Weighted>
-0.0000

> <Gold.Chemscore.Lipo.Weighted>
-14.8888

> <Gold.Chemscore.Internal_Hbond.Weighted>
0.0000

> <Gold.Chemscore.DEClash.Weighted>
0.0983

> <Gold.Chemscore.DEInternal.Weighted>
1.7118

> <Gold.Chemscore.Rot.Weighted>
4.7105

> <Gold.Chemscore.Internal.Correction.Weighted>
   9.000000E+99

> <Gold.Protein.RotatedTorsions>
[ 6907 6896 6895 6894 ] final  132.98 input  -60.11 | X-H torsion
[ 7974 7965 7964 7962 ] final  152.77 input  175.53 | X-H torsion
[ 8008 7997 7996 7995 ] final  -37.63 input   59.86 | X-H torsion
[ 10167 10162 10161 10158 ] final   10.47 input  -65.29 | X-H torsion
[ 10718 10713 10712 10709 ] final -113.22 input   66.30 | X-H torsion
[ 10763 10752 10751 10750 ] final   -4.01 input  -60.55 | X-H torsion
[ 11005 11000 10999 10996 ] final   23.38 input  -57.11 | X-H torsion

> <Gold.Protein.ActiveResidues>
 VAL166  LYS551  ARG553  GLY616  TRP617  ASP618  TYR619  PRO620  LYS621  CYS622 
 ASP623  PHE694  ASN695  SER759  ASP760  ASP761  ALA762  ILE779  LEU786  VAL792 
 PHE793  MET794  SER795  GLU796  ALA797  LYS798  CYS799  TRP800  GLU811  SER814 

> <Gold.Protein.RotatedAtoms>
  152.3268  133.5913  159.5781 H   0  0  0  0  0  0  0  0  0  0  0  0  # atno 6907 bound_to 6896
  150.7401  133.9929  159.3622 H   0  0  0  0  0  0  0  0  0  0  0  0  # atno 6908 bound_to 6896
  151.7808  135.0763  160.0424 H   0  0  0  0  0  0  0  0  0  0  0  0  # atno 6909 bound_to 6896
  144.8200  139.6712  143.6105 H   0  0  0  0  0  0  0  0  0  0  0  0  # atno 7974 bound_to 7965
  154.4050  140.1599  156.2567 H   0  0  0  0  0  0  0  0  0  0  0  0  # atno 8008 bound_to 7997
  155.9071  140.3429  155.6048 H   0  0  0  0  0  0  0  0  0  0  0  0  # atno 8009 bound_to 7997
  155.7379  140.0789  157.2250 H   0  0  0  0  0  0  0  0  0  0  0  0  # atno 8010 bound_to 7997
  140.6192  143.8241  150.7155 H   0  0  0  0  0  0  0  0  0  0  0  0  # atno 10167 bound_to 10162
  156.0753  130.5961  150.8613 H   0  0  0  0  0  0  0  0  0  0  0  0  # atno 10718 bound_to 10713
  153.3791  135.6997  153.6579 H   0  0  0  0  0  0  0  0  0  0  0  0  # atno 10763 bound_to 10752
  153.5197  135.3614  155.2626 H   0  0  0  0  0  0  0  0  0  0  0  0  # atno 10764 bound_to 10752
  154.8690  135.4155  154.3086 H   0  0  0  0  0  0  0  0  0  0  0  0  # atno 10765 bound_to 10752
  140.3703  134.2030  155.7667 H   0  0  0  0  0  0  0  0  0  0  0  0  # atno 11005 bound_to 11000
  146.2504  139.6188  142.9430 LP  0  0  0  0  0  0  0  0  0  0  0  0  # atno 17320 bound_to 7965
  145.5128  141.0435  143.2478 LP  0  0  0  0  0  0  0  0  0  0  0  0  # atno 17321 bound_to 7965
  140.1827  143.4101  152.1921 LP  0  0  0  0  0  0  0  0  0  0  0  0  # atno 17342 bound_to 10162
  139.5424  144.7269  151.4690 LP  0  0  0  0  0  0  0  0  0  0  0  0  # atno 17343 bound_to 10162
  157.5845  131.0946  150.9217 LP  0  0  0  0  0  0  0  0  0  0  0  0  # atno 17370 bound_to 10713
  156.9406  130.5383  149.5280 LP  0  0  0  0  0  0  0  0  0  0  0  0  # atno 17371 bound_to 10713
  141.1957  133.8100  157.0705 LP  0  0  0  0  0  0  0  0  0  0  0  0  # atno 17394 bound_to 11000
  140.0557  134.9782  157.1216 LP  0  0  0  0  0  0  0  0  0  0  0  0  # atno 17395 bound_to 11000

$$$$
