AV-unprocessed.smi:3168|AV-procd|sdf|12102|dock7
  -GOLD-   2272017533D 1   1.00000     0.00000
 Structure written by MMmdl.
 33 34  0  0  0  0  0  0  0  0  1 V2000
  149.2738  141.0016  156.8362 C   0  0  0  0  0  0  0  0  0  0  0  0
  150.7246  140.6623  156.4363 C   0  0  1  0  0  0  0  0  0  0  0  0
  151.7169  140.7703  157.6093 C   0  0  0  0  0  0  0  0  0  0  0  0
  152.7282  140.0683  157.6469 O   0  0  0  0  0  0  0  0  0  0  0  0
  151.4051  141.6488  158.5761 N   0  0  0  0  0  0  0  0  0  0  0  0
  152.1965  141.8968  159.7749 C   0  0  0  0  0  0  0  0  0  0  0  0
  152.3289  143.4013  160.0612 C   0  0  1  0  0  0  0  0  0  0  0  0
  152.7132  144.2273  158.8355 C   0  0  0  0  0  0  0  0  0  0  0  0
  152.1859  145.5926  159.2127 C   0  0  0  0  0  0  0  0  0  0  0  0
  150.8835  145.2379  159.9246 C   0  0  0  0  0  0  0  0  0  0  0  0
  151.0809  143.9434  160.4879 O   0  0  0  0  0  0  0  0  0  0  0  0
  150.8140  139.3546  155.7945 N   0  0  0  0  0  0  0  0  0  0  0  0
  150.5562  138.1174  156.3496 C   0  0  0  0  0  0  0  0  0  0  0  0
  150.7371  137.1823  155.3713 C   0  0  0  0  0  0  0  0  0  0  0  0
  151.1030  137.9517  154.2324 C   0  0  0  0  0  0  0  0  0  0  0  0
  151.1430  139.2494  154.4857 N   0  0  0  0  0  0  0  0  0  0  0  0
  149.1986  142.0161  157.2292 H   0  0  0  0  0  0  0  0  0  0  0  0
  148.8911  140.3221  157.5989 H   0  0  0  0  0  0  0  0  0  0  0  0
  148.6092  140.9371  155.9742 H   0  0  0  0  0  0  0  0  0  0  0  0
  151.0367  141.4029  155.6985 H   0  0  0  0  0  0  0  0  0  0  0  0
  150.5553  142.1842  158.4741 H   0  0  0  0  0  0  0  0  0  0  0  0
  151.7484  141.3871  160.6296 H   0  0  0  0  0  0  0  0  0  0  0  0
  153.1825  141.4538  159.6330 H   0  0  0  0  0  0  0  0  0  0  0  0
  153.0622  143.5788  160.8498 H   0  0  0  0  0  0  0  0  0  0  0  0
  153.7855  144.2211  158.6375 H   0  0  0  0  0  0  0  0  0  0  0  0
  152.1982  143.8621  157.9457 H   0  0  0  0  0  0  0  0  0  0  0  0
  152.8731  146.0810  159.9053 H   0  0  0  0  0  0  0  0  0  0  0  0
  152.0386  146.2494  158.3550 H   0  0  0  0  0  0  0  0  0  0  0  0
  150.6174  145.9681  160.6889 H   0  0  0  0  0  0  0  0  0  0  0  0
  150.0617  145.1814  159.2101 H   0  0  0  0  0  0  0  0  0  0  0  0
  150.2668  138.0063  157.3842 H   0  0  0  0  0  0  0  0  0  0  0  0
  150.6220  136.1119  155.4558 H   0  0  0  0  0  0  0  0  0  0  0  0
  151.3350  137.6091  153.2348 H   0  0  0  0  0  0  0  0  0  0  0  0
  1  2  1  0  0  0  0
  1 17  1  0  0  0  0
  1 18  1  0  0  0  0
  1 19  1  0  0  0  0
  2  3  1  0  0  0  0
  2 12  1  0  0  0  0
  2 20  1  0  0  0  0
  3  4  2  0  0  0  0
  3  5  1  0  0  0  0
  5  6  1  0  0  0  0
  5 21  1  0  0  0  0
  6  7  1  0  0  0  0
  6 22  1  0  0  0  0
  6 23  1  0  0  0  0
  7 11  1  0  0  0  0
  7  8  1  0  0  0  0
  7 24  1  0  0  0  0
  8  9  1  0  0  0  0
  8 25  1  0  0  0  0
  8 26  1  0  0  0  0
  9 10  1  0  0  0  0
  9 27  1  0  0  0  0
  9 28  1  0  0  0  0
 10 11  1  0  0  0  0
 10 29  1  0  0  0  0
 10 30  1  0  0  0  0
 12 16  1  0  0  0  0
 12 13  1  0  0  0  0
 13 14  2  0  0  0  0
 13 31  1  0  0  0  0
 14 15  1  0  0  0  0
 14 32  1  0  0  0  0
 15 16  2  0  0  0  0
 15 33  1  0  0  0  0
M  END
> <s_m_source_file>
AV-unprocessed.smi

> <i_m_source_file_index>
3168

> <i_lp_mmshare_version>
43012

> <i_f3d_flags>
0

> <s_epik_input>
bjFbY0hdW2NIXVtjSF1uMVtDQEhdKFtDSDNdKUMoPU8pW05IXVtDSDJdW0NAQEhdMltDSDJdW0NIMl1bQ0gyXU8y

> <s_epik_cmdline>
J2VwaWtfcHl0aG9uJywgJy1waCcsICc3LjAnLCAnLXRuJywgJzgnLCAnLW1hJywgJzIwMCcsICctbWV0YWxfYmluZGluZycsICctaW1hZScsICc8aW5maWxlLm1hZT4nLCAnLW9tYWUnLCAnPG91dGZpbGUubWFlPic=

> <r_lp_tautomer_probability>
1

> <r_epik_Ionization_Penalty>
4.14877e-05

> <r_epik_Ionization_Penalty_Charging>
0

> <r_epik_Ionization_Penalty_Neutral>
4.14877e-05

> <r_epik_State_Penalty>
-0

> <r_epik_Charging_Adjusted_Penalty>
0

> <i_epik_Tot_Q>
0

> <i_epik_Tot_abs_Q>
0

> <r_epik_Metal_State_Penalty>
-0

> <b_epik_Metal_Only>
0

> <s_lp_Force_Field>
OPLS_2005

> <r_lp_Energy>
21.2002

> <b_lp_Chiralities_Consistent>
1

> <s_lp_Variant>
AV-unprocessed.smi:3168-4

> <Gold.Version>
5.8.1

> <Gold.Id.Protein>
6NUR|6NUR_protein|mol2

> <Gold.PLP.Fitness>
41.2259

> <Gold.PLP.PLP>
-33.9706

> <Gold.PLP.part.hbond>
-2.7520

> <Gold.PLP.part.metal>
0.0000

> <Gold.PLP.part.buried>
-2.6873

> <Gold.PLP.part.nonpolar>
-27.4546

> <Gold.PLP.part.repulsive>
0.3575

> <Gold.PLP.ligand.clash>
0.0000

> <Gold.PLP.ligand.torsion>
0.9271

> <Gold.PLP.Chemscore.Hbond>
2.0000

> <Gold.PLP.Chemscore.CHOScore>
1.0000

> <Gold.PLP.Chemscore.Metal>
0.0000

> <Gold.Chemscore.Hbonds>
donor molecule, donor type, donor heavy atom, donor atom, acceptor molecule, acceptor atom, score
      P1  H  7989  7998       L1    16  1.00
      P1  H  7997  8008       L1     4  1.00
      L1  C    15    33       P1  7949  1.00

> <Gold.PLP.Chemscore.Internal.Correction>
0.1095

> <Gold.Rescore>
     Score         DG    S(hbond)    S(metal)    S(lipo)     H(rot)  DE(clash)    DE(int)     intcor
     17.19     -18.10       1.96        0.00      87.18       1.61       0.03       0.87       ----

> <Gold.Chemscore.Fitness>
17.1892

> <Gold.Chemscore.DG>
-18.0967

> <Gold.Chemscore.ZeroCoef>
-5.4800

> <Gold.Chemscore.Hbond>
1.9570

> <Gold.Chemscore.Metal>
0.0000

> <Gold.Chemscore.Lipo>
87.1838

> <Gold.Chemscore.Internal_Hbond>
0.0000

> <Gold.Chemscore.DEClash>
0.0339

> <Gold.Chemscore.DEInternal>
0.8736

> <Gold.Chemscore.Rot>
1.6094

> <Gold.Chemscore.Internal.Correction>
   9.000000E+99

> <Gold.Chemscore.Hbonds>
donor molecule, donor type, donor heavy atom, donor atom, acceptor molecule, acceptor atom, score
      P1  H  7989  7998       L1    16  0.97
      P1  H  7997  8008       L1     4  0.97

> <Gold.Chemscore.Hbond.Weighted>
-6.5363

> <Gold.Chemscore.Metal.Weighted>
-0.0000

> <Gold.Chemscore.Lipo.Weighted>
-10.2005

> <Gold.Chemscore.Internal_Hbond.Weighted>
0.0000

> <Gold.Chemscore.DEClash.Weighted>
0.0339

> <Gold.Chemscore.DEInternal.Weighted>
0.8736

> <Gold.Chemscore.Rot.Weighted>
4.1201

> <Gold.Chemscore.Internal.Correction.Weighted>
   9.000000E+99

> <Gold.Protein.RotatedTorsions>
[ 6907 6896 6895 6894 ] final  160.22 input  -60.11 | X-H torsion
[ 7974 7965 7964 7962 ] final  -17.84 input  175.53 | X-H torsion
[ 8008 7997 7996 7995 ] final  -65.51 input   59.86 | X-H torsion
[ 10167 10162 10161 10158 ] final  142.40 input  -65.29 | X-H torsion
[ 10718 10713 10712 10709 ] final -133.80 input   66.30 | X-H torsion
[ 10763 10752 10751 10750 ] final   71.51 input  -60.55 | X-H torsion
[ 11005 11000 10999 10996 ] final   18.74 input  -57.11 | X-H torsion

> <Gold.Protein.ActiveResidues>
 VAL166  LYS551  ARG553  GLY616  TRP617  ASP618  TYR619  PRO620  LYS621  CYS622 
 ASP623  PHE694  ASN695  SER759  ASP760  ASP761  ALA762  ILE779  LEU786  VAL792 
 PHE793  MET794  SER795  GLU796  ALA797  LYS798  CYS799  TRP800  GLU811  SER814 

> <Gold.Protein.RotatedAtoms>
  151.9738  133.3735  159.4081 H   0  0  0  0  0  0  0  0  0  0  0  0  # atno 6907 bound_to 6896
  150.6945  134.4111  159.5171 H   0  0  0  0  0  0  0  0  0  0  0  0  # atno 6908 bound_to 6896
  152.1820  134.8746  160.0576 H   0  0  0  0  0  0  0  0  0  0  0  0  # atno 6909 bound_to 6896
  146.1922  140.3836  142.8454 H   0  0  0  0  0  0  0  0  0  0  0  0  # atno 7974 bound_to 7965
  154.4676  140.0931  156.7062 H   0  0  0  0  0  0  0  0  0  0  0  0  # atno 8008 bound_to 7997
  155.4813  140.3468  155.4322 H   0  0  0  0  0  0  0  0  0  0  0  0  # atno 8009 bound_to 7997
  156.0984  140.1415  156.9489 H   0  0  0  0  0  0  0  0  0  0  0  0  # atno 8010 bound_to 7997
  139.4995  144.6109  151.6272 H   0  0  0  0  0  0  0  0  0  0  0  0  # atno 10167 bound_to 10162
  156.2488  130.7140  151.1031 H   0  0  0  0  0  0  0  0  0  0  0  0  # atno 10718 bound_to 10713
  153.0403  135.5134  154.7605 H   0  0  0  0  0  0  0  0  0  0  0  0  # atno 10763 bound_to 10752
  154.6547  135.2930  154.9945 H   0  0  0  0  0  0  0  0  0  0  0  0  # atno 10764 bound_to 10752
  154.0816  135.6663  153.4891 H   0  0  0  0  0  0  0  0  0  0  0  0  # atno 10765 bound_to 10752
  140.4214  134.1515  155.7673 H   0  0  0  0  0  0  0  0  0  0  0  0  # atno 11005 bound_to 11000
  144.8508  140.6998  143.6169 LP  0  0  0  0  0  0  0  0  0  0  0  0  # atno 17320 bound_to 7965
  145.3758  139.1648  143.4307 LP  0  0  0  0  0  0  0  0  0  0  0  0  # atno 17321 bound_to 7965
  140.5784  143.9988  150.6254 LP  0  0  0  0  0  0  0  0  0  0  0  0  # atno 17342 bound_to 10162
  140.3129  143.3186  152.0861 LP  0  0  0  0  0  0  0  0  0  0  0  0  # atno 17343 bound_to 10162
  157.7206  131.0684  150.6152 LP  0  0  0  0  0  0  0  0  0  0  0  0  # atno 17370 bound_to 10713
  156.6230  130.4411  149.5815 LP  0  0  0  0  0  0  0  0  0  0  0  0  # atno 17371 bound_to 10713
  141.1782  133.8469  157.1348 LP  0  0  0  0  0  0  0  0  0  0  0  0  # atno 17394 bound_to 11000
  140.0197  134.9951  157.0567 LP  0  0  0  0  0  0  0  0  0  0  0  0  # atno 17395 bound_to 11000

$$$$
