AV-unprocessed.smi:2931|AV-procd|sdf|11248|dock7
  -GOLD-   2272016143D 1   1.00000     0.00000
 Structure written by MMmdl.
 43 44  0  0  0  0  0  0  0  0  3 V2000
  146.2476  133.4219  151.0457 C   0  0  0  0  0  0  0  0  0  0  0  0
  146.3394  134.6746  151.8257 N   0  3  1  0  0  0  0  0  0  0  0  0
  145.4296  135.7286  151.3113 C   0  0  0  0  0  0  0  0  0  0  0  0
  145.6475  137.0566  152.0558 C   0  0  0  0  0  0  0  0  0  0  0  0
  145.4983  136.8742  153.5756 C   0  0  0  0  0  0  0  0  0  0  0  0
  146.4063  135.7421  154.0896 C   0  0  2  0  0  0  0  0  0  0  0  0
  147.8074  136.1591  154.0289 N   0  0  0  0  0  0  0  0  0  0  0  0
  148.6271  136.2614  155.0843 C   0  0  0  0  0  0  0  0  0  0  0  0
  148.3072  135.9662  156.2351 O   0  0  0  0  0  0  0  0  0  0  0  0
  149.8357  136.7234  154.7354 N   0  0  0  0  0  0  0  0  0  0  0  0
  150.9294  136.9952  155.6647 C   0  0  0  0  0  0  0  0  0  0  0  0
  151.7732  138.2261  155.2755 C   0  0  0  0  0  0  0  0  0  0  0  0
  151.0087  139.5372  155.3409 C   0  0  0  0  0  0  0  0  0  0  0  0
  149.8608  139.7409  154.5425 C   0  0  0  0  0  0  0  0  0  0  0  0
  149.1762  140.9707  154.6237 C   0  0  0  0  0  0  0  0  0  0  0  0
  149.6201  141.9342  155.4604 N   0  3  0  0  0  0  0  0  0  0  0  0
  150.7118  141.7795  156.2414 C   0  0  0  0  0  0  0  0  0  0  0  0
  151.4381  140.5719  156.2010 C   0  0  0  0  0  0  0  0  0  0  0  0
  146.1542  134.4495  153.2816 C   0  0  0  0  0  0  0  0  0  0  0  0
  145.2524  132.9829  151.1260 H   0  0  0  0  0  0  0  0  0  0  0  0
  146.9743  132.6916  151.4031 H   0  0  0  0  0  0  0  0  0  0  0  0
  146.4555  133.6089  149.9918 H   0  0  0  0  0  0  0  0  0  0  0  0
  145.6041  135.8767  150.2448 H   0  0  0  0  0  0  0  0  0  0  0  0
  144.3940  135.4022  151.4202 H   0  0  0  0  0  0  0  0  0  0  0  0
  146.6396  137.4464  151.8247 H   0  0  0  0  0  0  0  0  0  0  0  0
  144.9358  137.8025  151.7007 H   0  0  0  0  0  0  0  0  0  0  0  0
  145.7185  137.8089  154.0932 H   0  0  0  0  0  0  0  0  0  0  0  0
  144.4595  136.6351  153.8070 H   0  0  0  0  0  0  0  0  0  0  0  0
  146.1555  135.5570  155.1358 H   0  0  0  0  0  0  0  0  0  0  0  0
  148.1617  136.4349  153.1246 H   0  0  0  0  0  0  0  0  0  0  0  0
  150.0009  136.9421  153.7636 H   0  0  0  0  0  0  0  0  0  0  0  0
  150.4859  137.1558  156.6476 H   0  0  0  0  0  0  0  0  0  0  0  0
  151.5668  136.1147  155.7583 H   0  0  0  0  0  0  0  0  0  0  0  0
  152.6405  138.2957  155.9329 H   0  0  0  0  0  0  0  0  0  0  0  0
  152.1739  138.0953  154.2697 H   0  0  0  0  0  0  0  0  0  0  0  0
  149.5105  138.9672  153.8745 H   0  0  0  0  0  0  0  0  0  0  0  0
  148.2952  141.2122  154.0470 H   0  0  0  0  0  0  0  0  0  0  0  0
  150.9706  142.6202  156.8685 H   0  0  0  0  0  0  0  0  0  0  0  0
  152.3132  140.4432  156.8214 H   0  0  0  0  0  0  0  0  0  0  0  0
  145.1396  134.0909  153.4627 H   0  0  0  0  0  0  0  0  0  0  0  0
  146.8246  133.6580  153.6190 H   0  0  0  0  0  0  0  0  0  0  0  0
  147.2805  135.0202  151.7057 H   0  0  0  0  0  0  0  0  0  0  0  0
  149.1120  142.8182  155.5023 H   0  0  0  0  0  0  0  0  0  0  0  0
  1  2  1  0  0  0  0
  1 20  1  0  0  0  0
  1 21  1  0  0  0  0
  1 22  1  0  0  0  0
  2 19  1  0  0  0  0
  2  3  1  0  0  0  0
  2 42  1  0  0  0  0
  3  4  1  0  0  0  0
  3 23  1  0  0  0  0
  3 24  1  0  0  0  0
  4  5  1  0  0  0  0
  4 25  1  0  0  0  0
  4 26  1  0  0  0  0
  5  6  1  0  0  0  0
  5 27  1  0  0  0  0
  5 28  1  0  0  0  0
  6  7  1  0  0  0  0
  6 19  1  0  0  0  0
  6 29  1  0  0  0  0
  7  8  1  0  0  0  0
  7 30  1  0  0  0  0
  8  9  2  0  0  0  0
  8 10  1  0  0  0  0
 10 11  1  0  0  0  0
 10 31  1  0  0  0  0
 11 12  1  0  0  0  0
 11 32  1  0  0  0  0
 11 33  1  0  0  0  0
 12 13  1  0  0  0  0
 12 34  1  0  0  0  0
 12 35  1  0  0  0  0
 13 18  1  0  0  0  0
 13 14  2  0  0  0  0
 14 15  1  0  0  0  0
 14 36  1  0  0  0  0
 15 16  2  0  0  0  0
 15 37  1  0  0  0  0
 16 17  1  0  0  0  0
 16 43  1  0  0  0  0
 17 18  2  0  0  0  0
 17 38  1  0  0  0  0
 18 39  1  0  0  0  0
 19 40  1  0  0  0  0
 19 41  1  0  0  0  0
M  CHG  1   2   1
M  CHG  1  16   1
M  END
> <s_m_source_file>
AV-unprocessed.smi

> <i_m_source_file_index>
2931

> <i_lp_mmshare_version>
43012

> <i_f3d_flags>
0

> <s_epik_input>
W0NIM11OMVtDSDJdW0NIMl1bQ0gyXVtDQEhdKFtDSDJdMSlbTkhdQyg9TylbTkhdW0NIMl1bQ0gyXWMyW2NIXVtjSF1uW2NIXVtjSF0y

> <s_epik_cmdline>
J2VwaWtfcHl0aG9uJywgJy1waCcsICc3LjAnLCAnLXRuJywgJzgnLCAnLW1hJywgJzIwMCcsICctbWV0YWxfYmluZGluZycsICctaW1hZScsICc8aW5maWxlLm1hZT4nLCAnLW9tYWUnLCAnPG91dGZpbGUubWFlPic=

> <r_epik_Ionization_Penalty>
1.43754

> <r_epik_Ionization_Penalty_Charging>
1.4375

> <r_epik_Ionization_Penalty_Neutral>
3.7629e-05

> <r_epik_State_Penalty>
1.52008

> <r_epik_Charging_Adjusted_Penalty>
2.95758

> <i_epik_Tot_Q>
2

> <i_epik_Tot_abs_Q>
2

> <r_epik_Metal_State_Penalty>
1.57105

> <b_epik_Metal_Only>
0

> <s_lp_Force_Field>
OPLS_2005

> <r_lp_Energy>
32.3729

> <b_lp_Chiralities_Consistent>
1

> <s_lp_Variant>
AV-unprocessed.smi:2931-7

> <Gold.Version>
5.8.1

> <Gold.Id.Protein>
6NUR|6NUR_protein|mol2

> <Gold.PLP.Fitness>
47.1179

> <Gold.PLP.PLP>
-31.7673

> <Gold.PLP.part.hbond>
-3.5451

> <Gold.PLP.part.metal>
0.0000

> <Gold.PLP.part.buried>
-2.1914

> <Gold.PLP.part.nonpolar>
-26.2090

> <Gold.PLP.part.repulsive>
0.2921

> <Gold.PLP.ligand.clash>
0.0000

> <Gold.PLP.ligand.torsion>
0.1781

> <Gold.PLP.Chemscore.Hbond>
5.2303

> <Gold.PLP.Chemscore.CHOScore>
0.0000

> <Gold.PLP.Chemscore.Metal>
0.0000

> <Gold.Chemscore.Hbonds>
donor molecule, donor type, donor heavy atom, donor atom, acceptor molecule, acceptor atom, score
      L1  H     2    42       P1  7948  2.00
      L1  H     7    30       P1  7948  0.93
      L1  H    10    31       P1  7948  0.30
      L1  H    16    43       P1  8028  2.00

> <Gold.PLP.Chemscore.Internal.Correction>
0.0159

> <Gold.Rescore>
     Score         DG    S(hbond)    S(metal)    S(lipo)     H(rot)  DE(clash)    DE(int)     intcor
     19.26     -19.72       2.90        0.00      75.03       1.65       0.25       0.21       ----

> <Gold.Chemscore.Fitness>
19.2639

> <Gold.Chemscore.DG>
-19.7214

> <Gold.Chemscore.ZeroCoef>
-5.4800

> <Gold.Chemscore.Hbond>
2.8976

> <Gold.Chemscore.Metal>
0.0000

> <Gold.Chemscore.Lipo>
75.0257

> <Gold.Chemscore.Internal_Hbond>
0.0000

> <Gold.Chemscore.DEClash>
0.2494

> <Gold.Chemscore.DEInternal>
0.2081

> <Gold.Chemscore.Rot>
1.6464

> <Gold.Chemscore.Internal.Correction>
   9.000000E+99

> <Gold.Chemscore.Hbonds>
donor molecule, donor type, donor heavy atom, donor atom, acceptor molecule, acceptor atom, score
      L1  H     2    42       P1  7948  0.82
      L1  H     7    30       P1  7948  0.86
      L1  H    10    31       P1  7948  0.10
      L1  H    16    43       P1  8028  0.99

> <Gold.Chemscore.Hbond.Weighted>
-9.6781

> <Gold.Chemscore.Metal.Weighted>
-0.0000

> <Gold.Chemscore.Lipo.Weighted>
-8.7780

> <Gold.Chemscore.Internal_Hbond.Weighted>
0.0000

> <Gold.Chemscore.DEClash.Weighted>
0.2494

> <Gold.Chemscore.DEInternal.Weighted>
0.2081

> <Gold.Chemscore.Rot.Weighted>
4.2148

> <Gold.Chemscore.Internal.Correction.Weighted>
   9.000000E+99

> <Gold.Protein.RotatedTorsions>
[ 6907 6896 6895 6894 ] final   30.10 input  -60.11 | X-H torsion
[ 7974 7965 7964 7962 ] final  174.91 input  175.53 | X-H torsion
[ 8008 7997 7996 7995 ] final   81.86 input   59.86 | X-H torsion
[ 10167 10162 10161 10158 ] final  -14.54 input  -65.29 | X-H torsion
[ 10718 10713 10712 10709 ] final   40.62 input   66.30 | X-H torsion
[ 10763 10752 10751 10750 ] final  -34.86 input  -60.55 | X-H torsion
[ 11005 11000 10999 10996 ] final   31.17 input  -57.11 | X-H torsion

> <Gold.Protein.ActiveResidues>
 VAL166  LYS551  ARG553  GLY616  TRP617  ASP618  TYR619  PRO620  LYS621  CYS622 
 ASP623  PHE694  ASN695  SER759  ASP760  ASP761  ALA762  ILE779  LEU786  VAL792 
 PHE793  MET794  SER795  GLU796  ALA797  LYS798  CYS799  TRP800  GLU811  SER814 

> <Gold.Protein.RotatedAtoms>
  152.0412  134.9710  160.0573 H   0  0  0  0  0  0  0  0  0  0  0  0  # atno 6907 bound_to 6896
  152.1148  133.4316  159.4656 H   0  0  0  0  0  0  0  0  0  0  0  0  # atno 6908 bound_to 6896
  150.6845  134.2523  159.4559 H   0  0  0  0  0  0  0  0  0  0  0  0  # atno 6909 bound_to 6896
  144.7212  139.9868  143.6439 H   0  0  0  0  0  0  0  0  0  0  0  0  # atno 7974 bound_to 7965
  155.9029  140.3432  155.6040 H   0  0  0  0  0  0  0  0  0  0  0  0  # atno 8008 bound_to 7997
  155.7479  140.0816  157.2234 H   0  0  0  0  0  0  0  0  0  0  0  0  # atno 8009 bound_to 7997
  154.4046  140.1559  156.2677 H   0  0  0  0  0  0  0  0  0  0  0  0  # atno 8010 bound_to 7997
  140.7203  143.5311  150.9519 H   0  0  0  0  0  0  0  0  0  0  0  0  # atno 10167 bound_to 10162
  157.3843  130.7771  149.7218 H   0  0  0  0  0  0  0  0  0  0  0  0  # atno 10718 bound_to 10713
  153.8538  135.6846  153.4789 H   0  0  0  0  0  0  0  0  0  0  0  0  # atno 10763 bound_to 10752
  153.1382  135.4669  154.9453 H   0  0  0  0  0  0  0  0  0  0  0  0  # atno 10764 bound_to 10752
  154.7790  135.3262  154.7978 H   0  0  0  0  0  0  0  0  0  0  0  0  # atno 10765 bound_to 10752
  140.2867  134.2911  155.7786 H   0  0  0  0  0  0  0  0  0  0  0  0  # atno 11005 bound_to 11000
  146.0443  139.3451  143.0678 LP  0  0  0  0  0  0  0  0  0  0  0  0  # atno 17320 bound_to 7965
  145.8295  140.9638  143.0856 LP  0  0  0  0  0  0  0  0  0  0  0  0  # atno 17321 bound_to 7965
  139.9031  143.6811  152.3128 LP  0  0  0  0  0  0  0  0  0  0  0  0  # atno 17342 bound_to 10162
  139.7167  144.7610  151.1021 LP  0  0  0  0  0  0  0  0  0  0  0  0  # atno 17343 bound_to 10162
  155.9783  130.4053  150.3658 LP  0  0  0  0  0  0  0  0  0  0  0  0  # atno 17370 bound_to 10713
  157.1766  131.0382  151.2769 LP  0  0  0  0  0  0  0  0  0  0  0  0  # atno 17371 bound_to 10713
  141.2153  133.7559  156.9563 LP  0  0  0  0  0  0  0  0  0  0  0  0  # atno 17394 bound_to 11000
  140.1233  134.9403  157.2234 LP  0  0  0  0  0  0  0  0  0  0  0  0  # atno 17395 bound_to 11000

$$$$
