AV-unprocessed.smi:1079|AV-procd|sdf|4705|dock4
  -GOLD-   22720 3233D 1   1.00000     0.00000
 Structure written by MMmdl.
 43 44  0  0  0  0  0  0  0  0  2 V2000
  151.4465  140.2532  155.8515 C   0  0  0  0  0  0  0  0  0  0  0  0
  151.1763  139.5414  154.6574 O   0  0  0  0  0  0  0  0  0  0  0  0
  151.2524  138.1362  154.8330 C   0  0  0  0  0  0  0  0  0  0  0  0
  150.1660  137.6741  155.8190 C   0  0  0  0  0  0  0  0  0  0  0  0
  149.6532  136.3274  155.4822 N   0  0  0  0  0  0  0  0  0  0  0  0
  148.3029  136.1781  155.0640 C   0  0  0  0  0  0  0  0  0  0  0  0
  147.4860  137.2983  155.0054 N   0  0  0  0  0  0  0  0  0  0  0  0
  147.8164  134.9444  154.7603 C   0  0  0  0  0  0  0  0  0  0  0  0
  146.4970  134.7538  154.3012 N   0  0  0  0  0  0  0  0  0  0  0  0
  146.2619  134.8825  152.8532 C   0  0  0  0  0  0  0  0  0  0  0  0
  145.5947  133.6642  152.2335 C   0  0  0  0  0  0  0  0  0  0  0  0
  146.2572  132.4184  152.2261 C   0  0  0  0  0  0  0  0  0  0  0  0
  145.6377  131.2889  151.6575 C   0  0  0  0  0  0  0  0  0  0  0  0
  144.3539  131.4009  151.0899 C   0  0  0  0  0  0  0  0  0  0  0  0
  143.6902  132.6428  151.0914 C   0  0  0  0  0  0  0  0  0  0  0  0
  144.3094  133.7722  151.6612 C   0  0  0  0  0  0  0  0  0  0  0  0
  145.4530  134.5784  155.1543 C   0  0  0  0  0  0  0  0  0  0  0  0
  145.6960  134.6111  156.6685 C   0  0  0  0  0  0  0  0  0  0  0  0
  144.2956  134.4239  154.7620 O   0  0  0  0  0  0  0  0  0  0  0  0
  148.7189  133.7883  154.8415 C   0  0  0  0  0  0  0  0  0  0  0  0
  148.3204  132.6665  154.5280 O   0  0  0  0  0  0  0  0  0  0  0  0
  149.9904  134.0067  155.2679 N   0  5  0  0  0  0  0  0  0  0  0  0
  150.4743  135.2384  155.5949 C   0  0  0  0  0  0  0  0  0  0  0  0
  151.6310  135.3940  155.9893 O   0  0  0  0  0  0  0  0  0  0  0  0
  151.3743  141.3242  155.6632 H   0  0  0  0  0  0  0  0  0  0  0  0
  152.4521  140.0418  156.2171 H   0  0  0  0  0  0  0  0  0  0  0  0
  150.7283  140.0000  156.6326 H   0  0  0  0  0  0  0  0  0  0  0  0
  151.1016  137.6443  153.8713 H   0  0  0  0  0  0  0  0  0  0  0  0
  152.2425  137.8479  155.1897 H   0  0  0  0  0  0  0  0  0  0  0  0
  150.5398  137.7326  156.8408 H   0  0  0  0  0  0  0  0  0  0  0  0
  149.3492  138.3976  155.8102 H   0  0  0  0  0  0  0  0  0  0  0  0
  147.8331  138.2132  155.2537 H   0  0  0  0  0  0  0  0  0  0  0  0
  146.6179  137.2798  154.4894 H   0  0  0  0  0  0  0  0  0  0  0  0
  145.6702  135.7774  152.6522 H   0  0  0  0  0  0  0  0  0  0  0  0
  147.2052  135.0367  152.3266 H   0  0  0  0  0  0  0  0  0  0  0  0
  147.2431  132.3258  152.6572 H   0  0  0  0  0  0  0  0  0  0  0  0
  146.1478  130.3370  151.6577 H   0  0  0  0  0  0  0  0  0  0  0  0
  143.8788  130.5347  150.6537 H   0  0  0  0  0  0  0  0  0  0  0  0
  142.7050  132.7296  150.6575 H   0  0  0  0  0  0  0  0  0  0  0  0
  143.7920  134.7204  151.6630 H   0  0  0  0  0  0  0  0  0  0  0  0
  146.2776  135.4872  156.9570 H   0  0  0  0  0  0  0  0  0  0  0  0
  146.2224  133.7149  156.9964 H   0  0  0  0  0  0  0  0  0  0  0  0
  144.7479  134.6535  157.2057 H   0  0  0  0  0  0  0  0  0  0  0  0
  1  2  1  0  0  0  0
  1 25  1  0  0  0  0
  1 26  1  0  0  0  0
  1 27  1  0  0  0  0
  2  3  1  0  0  0  0
  3  4  1  0  0  0  0
  3 28  1  0  0  0  0
  3 29  1  0  0  0  0
  4  5  1  0  0  0  0
  4 30  1  0  0  0  0
  4 31  1  0  0  0  0
  5 23  1  0  0  0  0
  5  6  1  0  0  0  0
  6  7  1  0  0  0  0
  6  8  2  0  0  0  0
  7 32  1  0  0  0  0
  7 33  1  0  0  0  0
  8  9  1  0  0  0  0
  8 20  1  0  0  0  0
  9 10  1  0  0  0  0
  9 17  1  0  0  0  0
 10 11  1  0  0  0  0
 10 34  1  0  0  0  0
 10 35  1  0  0  0  0
 11 16  1  0  0  0  0
 11 12  2  0  0  0  0
 12 13  1  0  0  0  0
 12 36  1  0  0  0  0
 13 14  2  0  0  0  0
 13 37  1  0  0  0  0
 14 15  1  0  0  0  0
 14 38  1  0  0  0  0
 15 16  2  0  0  0  0
 15 39  1  0  0  0  0
 16 40  1  0  0  0  0
 17 18  1  0  0  0  0
 17 19  2  0  0  0  0
 18 41  1  0  0  0  0
 18 42  1  0  0  0  0
 18 43  1  0  0  0  0
 20 21  2  0  0  0  0
 20 22  1  0  0  0  0
 22 23  1  0  0  0  0
 23 24  2  0  0  0  0
M  CHG  1  22  -1
M  END
> <s_m_source_file>
AV-unprocessed.smi

> <i_m_source_file_index>
1079

> <i_lp_mmshare_version>
43012

> <i_f3d_flags>
0

> <s_epik_input>
W0NIM11PW0NIMl1bQ0gyXW4xYyhbTkgyXSljKGMoPU8pW25IXWMxPU8pTihDKD1PKVtDSDNdKVtDSDJdYzJbY0hdW2NIXVtjSF1bY0hdW2NIXTI=

> <s_epik_cmdline>
J2VwaWtfcHl0aG9uJywgJy1waCcsICc3LjAnLCAnLXRuJywgJzgnLCAnLW1hJywgJzIwMCcsICctbWV0YWxfYmluZGluZycsICctaW1hZScsICc8aW5maWxlLm1hZT4nLCAnLW9tYWUnLCAnPG91dGZpbGUubWFlPic=

> <r_lp_tautomer_probability>
1

> <r_epik_Ionization_Penalty>
7.02899

> <r_epik_Ionization_Penalty_Charging>
0.353543

> <r_epik_Ionization_Penalty_Neutral>
6.67545

> <r_epik_State_Penalty>
6.67544

> <r_epik_Charging_Adjusted_Penalty>
7.02899

> <i_epik_Tot_Q>
-1

> <i_epik_Tot_abs_Q>
1

> <r_epik_Metal_State_Penalty>
2.59023

> <b_epik_Metal_Only>
1

> <s_epik_Chemistry_Notes>
This compound has an imine and may undergo hydrolysis.

> <s_lp_Force_Field>
OPLS_2005

> <r_lp_Energy>
37.6248

> <b_lp_Chiralities_Consistent>
1

> <s_lp_Variant>
AV-unprocessed.smi:1079-2

> <Gold.Version>
5.8.1

> <Gold.Id.Protein>
6NUR|6NUR_protein|mol2

> <Gold.PLP.Fitness>
34.8597

> <Gold.PLP.PLP>
-30.2992

> <Gold.PLP.part.hbond>
-2.0000

> <Gold.PLP.part.metal>
0.0000

> <Gold.PLP.part.buried>
-3.5881

> <Gold.PLP.part.nonpolar>
-24.7692

> <Gold.PLP.part.repulsive>
0.3252

> <Gold.PLP.ligand.clash>
0.0000

> <Gold.PLP.ligand.torsion>
1.7950

> <Gold.PLP.Chemscore.Hbond>
2.0000

> <Gold.PLP.Chemscore.CHOScore>
0.0000

> <Gold.PLP.Chemscore.Metal>
0.0000

> <Gold.Chemscore.Hbonds>
donor molecule, donor type, donor heavy atom, donor atom, acceptor molecule, acceptor atom, score
      P1  H  7989  7998       L1     2  0.85
      P1  H 10752 10764       L1    24  1.00

> <Gold.PLP.Chemscore.Internal.Correction>
2.1505

> <Gold.Rescore>
     Score         DG    S(hbond)    S(metal)    S(lipo)     H(rot)  DE(clash)    DE(int)     intcor
     11.30     -14.60       1.93        0.00      66.31       1.98       0.26       3.04       ----

> <Gold.Chemscore.Fitness>
11.3041

> <Gold.Chemscore.DG>
-14.6025

> <Gold.Chemscore.ZeroCoef>
-5.4800

> <Gold.Chemscore.Hbond>
1.9279

> <Gold.Chemscore.Metal>
0.0000

> <Gold.Chemscore.Lipo>
66.3083

> <Gold.Chemscore.Internal_Hbond>
0.0000

> <Gold.Chemscore.DEClash>
0.2597

> <Gold.Chemscore.DEInternal>
3.0387

> <Gold.Chemscore.Rot>
1.9824

> <Gold.Chemscore.Internal.Correction>
   9.000000E+99

> <Gold.Chemscore.Hbonds>
donor molecule, donor type, donor heavy atom, donor atom, acceptor molecule, acceptor atom, score
      P1  H  7989  7998       L1     2  0.15
      P1  H 10752 10764       L1    24  0.99

> <Gold.Chemscore.Hbond.Weighted>
-6.4393

> <Gold.Chemscore.Metal.Weighted>
-0.0000

> <Gold.Chemscore.Lipo.Weighted>
-7.7581

> <Gold.Chemscore.Internal_Hbond.Weighted>
0.0000

> <Gold.Chemscore.DEClash.Weighted>
0.2597

> <Gold.Chemscore.DEInternal.Weighted>
3.0387

> <Gold.Chemscore.Rot.Weighted>
5.0749

> <Gold.Chemscore.Internal.Correction.Weighted>
   9.000000E+99

> <Gold.Protein.RotatedTorsions>
[ 6907 6896 6895 6894 ] final -153.72 input  -60.11 | X-H torsion
[ 7974 7965 7964 7962 ] final  169.90 input  175.53 | X-H torsion
[ 8008 7997 7996 7995 ] final -127.61 input   59.86 | X-H torsion
[ 10167 10162 10161 10158 ] final  -36.42 input  -65.29 | X-H torsion
[ 10718 10713 10712 10709 ] final  123.99 input   66.30 | X-H torsion
[ 10763 10752 10751 10750 ] final  -37.80 input  -60.55 | X-H torsion
[ 11005 11000 10999 10996 ] final   87.59 input  -57.11 | X-H torsion

> <Gold.Protein.ActiveResidues>
 VAL166  LYS551  ARG553  GLY616  TRP617  ASP618  TYR619  PRO620  LYS621  CYS622 
 ASP623  PHE694  ASN695  SER759  ASP760  ASP761  ALA762  ILE779  LEU786  VAL792 
 PHE793  MET794  SER795  GLU796  ALA797  LYS798  CYS799  TRP800  GLU811  SER814 

> <Gold.Protein.RotatedAtoms>
  151.2468  133.4371  159.2609 H   0  0  0  0  0  0  0  0  0  0  0  0  # atno 6907 bound_to 6896
  151.0654  134.9764  159.8292 H   0  0  0  0  0  0  0  0  0  0  0  0  # atno 6908 bound_to 6896
  152.5404  134.2416  159.8917 H   0  0  0  0  0  0  0  0  0  0  0  0  # atno 6909 bound_to 6896
  144.7340  139.9123  143.6415 H   0  0  0  0  0  0  0  0  0  0  0  0  # atno 7974 bound_to 7965
  155.2490  140.0431  157.2984 H   0  0  0  0  0  0  0  0  0  0  0  0  # atno 8008 bound_to 7997
  154.5781  140.2393  155.8063 H   0  0  0  0  0  0  0  0  0  0  0  0  # atno 8009 bound_to 7997
  156.2173  140.2981  155.9877 H   0  0  0  0  0  0  0  0  0  0  0  0  # atno 8010 bound_to 7997
  140.7143  143.3410  151.2357 H   0  0  0  0  0  0  0  0  0  0  0  0  # atno 10167 bound_to 10162
  157.5621  131.1089  150.8520 H   0  0  0  0  0  0  0  0  0  0  0  0  # atno 10718 bound_to 10713
  153.9023  135.6801  153.4754 H   0  0  0  0  0  0  0  0  0  0  0  0  # atno 10763 bound_to 10752
  153.1122  135.4778  154.9052 H   0  0  0  0  0  0  0  0  0  0  0  0  # atno 10764 bound_to 10752
  154.7569  135.3200  154.8408 H   0  0  0  0  0  0  0  0  0  0  0  0  # atno 10765 bound_to 10752
  139.8916  134.8432  156.2881 H   0  0  0  0  0  0  0  0  0  0  0  0  # atno 11005 bound_to 11000
  146.0992  139.3986  143.0358 LP  0  0  0  0  0  0  0  0  0  0  0  0  # atno 17320 bound_to 7965
  145.7603  140.9938  143.1203 LP  0  0  0  0  0  0  0  0  0  0  0  0  # atno 17321 bound_to 7965
  139.6918  143.9680  152.2863 LP  0  0  0  0  0  0  0  0  0  0  0  0  # atno 17342 bound_to 10162
  139.9344  144.6721  150.8330 LP  0  0  0  0  0  0  0  0  0  0  0  0  # atno 17343 bound_to 10162
  156.9015  130.5248  149.5282 LP  0  0  0  0  0  0  0  0  0  0  0  0  # atno 17370 bound_to 10713
  156.0673  130.5713  150.9313 LP  0  0  0  0  0  0  0  0  0  0  0  0  # atno 17371 bound_to 10713
  140.9994  133.7160  156.0937 LP  0  0  0  0  0  0  0  0  0  0  0  0  # atno 17394 bound_to 11000
  140.7518  134.4037  157.5540 LP  0  0  0  0  0  0  0  0  0  0  0  0  # atno 17395 bound_to 11000

$$$$
