AV-unprocessed.smi:1586|AV-procd|sdf|6379|dock5
  -GOLD-   22720 7 13D 1   1.00000     0.00000
 Structure written by MMmdl.
 46 47  0  0  0  0  0  0  0  0  3 V2000
  145.1791  136.0236  151.4257 C   0  0  0  0  0  0  0  0  0  0  0  0
  145.3098  136.7358  152.7795 C   0  0  0  0  0  0  0  0  0  0  0  0
  146.5661  137.5171  152.8957 N   0  3  0  0  0  0  0  0  0  0  0  0
  147.0072  137.6641  154.3046 C   0  0  0  0  0  0  0  0  0  0  0  0
  148.3293  138.4569  154.3807 C   0  0  0  0  0  0  0  0  0  0  0  0
  148.1937  139.8006  153.7999 N   0  0  0  0  0  0  0  0  0  0  0  0
  147.3050  140.7302  154.5358 C   0  0  2  0  0  0  0  0  0  0  0  0
  147.2971  142.1221  153.8585 C   0  0  0  0  0  0  0  0  0  0  0  0
  147.7214  140.8464  156.0275 C   0  0  0  0  0  0  0  0  0  0  0  0
  148.8645  141.7358  156.2193 N   0  0  0  0  0  0  0  0  0  0  0  0
  150.0983  141.3819  156.6072 C   0  0  0  0  0  0  0  0  0  0  0  0
  150.3580  140.1995  156.8407 O   0  0  0  0  0  0  0  0  0  0  0  0
  150.9575  142.4237  156.6867 N   0  5  0  0  0  0  0  0  0  0  0  0
  151.0478  143.1411  157.8172 C   0  0  0  0  0  0  0  0  0  0  0  0
  151.7327  144.3778  157.9674 C   0  0  0  0  0  0  0  0  0  0  0  0
  151.5131  144.6994  159.2766 C   0  0  0  0  0  0  0  0  0  0  0  0
  151.9361  145.8542  160.1189 C   0  0  0  0  0  0  0  0  0  0  0  0
  150.7506  143.7454  159.8755 O   0  0  0  0  0  0  0  0  0  0  0  0
  150.4519  142.7544  158.9325 N   0  0  0  0  0  0  0  0  0  0  0  0
  147.8489  139.5905  152.3860 C   0  0  0  0  0  0  0  0  0  0  0  0
  146.5084  138.8414  152.2254 C   0  0  0  0  0  0  0  0  0  0  0  0
  144.2945  135.3865  151.4129 H   0  0  0  0  0  0  0  0  0  0  0  0
  146.0441  135.3899  151.2282 H   0  0  0  0  0  0  0  0  0  0  0  0
  145.0798  136.7281  150.6005 H   0  0  0  0  0  0  0  0  0  0  0  0
  144.4493  137.3823  152.9585 H   0  0  0  0  0  0  0  0  0  0  0  0
  145.2924  135.9748  153.5607 H   0  0  0  0  0  0  0  0  0  0  0  0
  146.2261  138.1388  154.8998 H   0  0  0  0  0  0  0  0  0  0  0  0
  147.1631  136.6739  154.7339 H   0  0  0  0  0  0  0  0  0  0  0  0
  148.6986  138.4969  155.4034 H   0  0  0  0  0  0  0  0  0  0  0  0
  149.1023  137.9172  153.8316 H   0  0  0  0  0  0  0  0  0  0  0  0
  146.2843  140.3512  154.5128 H   0  0  0  0  0  0  0  0  0  0  0  0
  146.6915  142.8386  154.4116 H   0  0  0  0  0  0  0  0  0  0  0  0
  146.8621  142.0995  152.8607 H   0  0  0  0  0  0  0  0  0  0  0  0
  148.3042  142.5341  153.7846 H   0  0  0  0  0  0  0  0  0  0  0  0
  146.9312  141.2965  156.6247 H   0  0  0  0  0  0  0  0  0  0  0  0
  147.9044  139.8584  156.4531 H   0  0  0  0  0  0  0  0  0  0  0  0
  148.7079  142.7170  156.0420 H   0  0  0  0  0  0  0  0  0  0  0  0
  152.2954  144.9350  157.2337 H   0  0  0  0  0  0  0  0  0  0  0  0
  151.4543  146.7722  159.7828 H   0  0  0  0  0  0  0  0  0  0  0  0
  153.0151  145.9978  160.0614 H   0  0  0  0  0  0  0  0  0  0  0  0
  151.6719  145.6968  161.1650 H   0  0  0  0  0  0  0  0  0  0  0  0
  147.8346  140.5287  151.8347 H   0  0  0  0  0  0  0  0  0  0  0  0
  148.6430  139.0080  151.9168 H   0  0  0  0  0  0  0  0  0  0  0  0
  146.3142  138.7064  151.1619 H   0  0  0  0  0  0  0  0  0  0  0  0
  145.6784  139.4302  152.6172 H   0  0  0  0  0  0  0  0  0  0  0  0
  147.2878  136.9851  152.4309 H   0  0  0  0  0  0  0  0  0  0  0  0
  1  2  1  0  0  0  0
  1 22  1  0  0  0  0
  1 23  1  0  0  0  0
  1 24  1  0  0  0  0
  2  3  1  0  0  0  0
  2 25  1  0  0  0  0
  2 26  1  0  0  0  0
  3 21  1  0  0  0  0
  3  4  1  0  0  0  0
  3 46  1  0  0  0  0
  4  5  1  0  0  0  0
  4 27  1  0  0  0  0
  4 28  1  0  0  0  0
  5  6  1  0  0  0  0
  5 29  1  0  0  0  0
  5 30  1  0  0  0  0
  6  7  1  0  0  0  0
  6 20  1  0  0  0  0
  7  8  1  0  0  0  0
  7  9  1  0  0  0  0
  7 31  1  0  0  0  0
  8 32  1  0  0  0  0
  8 33  1  0  0  0  0
  8 34  1  0  0  0  0
  9 10  1  0  0  0  0
  9 35  1  0  0  0  0
  9 36  1  0  0  0  0
 10 11  1  0  0  0  0
 10 37  1  0  0  0  0
 11 12  2  0  0  0  0
 11 13  1  0  0  0  0
 13 14  1  0  0  0  0
 14 19  2  0  0  0  0
 14 15  1  0  0  0  0
 15 16  2  0  0  0  0
 15 38  1  0  0  0  0
 16 17  1  0  0  0  0
 16 18  1  0  0  0  0
 17 39  1  0  0  0  0
 17 40  1  0  0  0  0
 17 41  1  0  0  0  0
 18 19  1  0  0  0  0
 20 21  1  0  0  0  0
 20 42  1  0  0  0  0
 20 43  1  0  0  0  0
 21 44  1  0  0  0  0
 21 45  1  0  0  0  0
M  CHG  1   3   1
M  CHG  1  13  -1
M  END
> <s_m_source_file>
AV-unprocessed.smi

> <i_m_source_file_index>
1586

> <i_lp_mmshare_version>
43012

> <i_f3d_flags>
0

> <s_epik_input>
W0NIM11bQ0gyXU4xW0NIMl1bQ0gyXU4oW0NIMl1bQ0gyXTEpW0NASF0oW0NIM10pW0NIMl1bTkhdQyg9TylbTkhdYzJbY0hdYyhbQ0gzXSlvbjI=

> <s_epik_cmdline>
J2VwaWtfcHl0aG9uJywgJy1waCcsICc3LjAnLCAnLXRuJywgJzgnLCAnLW1hJywgJzIwMCcsICctbWV0YWxfYmluZGluZycsICctaW1hZScsICc8aW5maWxlLm1hZT4nLCAnLW9tYWUnLCAnPG91dGZpbGUubWFlPic=

> <r_epik_Ionization_Penalty>
6.66134

> <r_epik_Ionization_Penalty_Charging>
6.66063

> <r_epik_Ionization_Penalty_Neutral>
0.000714131

> <r_epik_State_Penalty>
6.77843

> <r_epik_Charging_Adjusted_Penalty>
13.4391

> <i_epik_Tot_Q>
0

> <i_epik_Tot_abs_Q>
2

> <r_epik_Metal_State_Penalty>
2.70494

> <b_epik_Metal_Only>
1

> <s_lp_Force_Field>
OPLS_2005

> <r_lp_Energy>
11.4851

> <b_lp_Chiralities_Consistent>
1

> <s_lp_Variant>
AV-unprocessed.smi:1586-7

> <Gold.Version>
5.8.1

> <Gold.Id.Protein>
6NUR|6NUR_protein|mol2

> <Gold.PLP.Fitness>
39.7315

> <Gold.PLP.PLP>
-33.0391

> <Gold.PLP.part.hbond>
-2.1384

> <Gold.PLP.part.metal>
0.0000

> <Gold.PLP.part.buried>
-0.3071

> <Gold.PLP.part.nonpolar>
-30.8505

> <Gold.PLP.part.repulsive>
1.3058

> <Gold.PLP.ligand.clash>
0.0000

> <Gold.PLP.ligand.torsion>
1.2161

> <Gold.PLP.Chemscore.Hbond>
2.9913

> <Gold.PLP.Chemscore.CHOScore>
0.0000

> <Gold.PLP.Chemscore.Metal>
0.0000

> <Gold.Chemscore.Hbonds>
donor molecule, donor type, donor heavy atom, donor atom, acceptor molecule, acceptor atom, score
      L1  H     3    46       P1  7948  2.00
      L1  H    10    37       P1  8028  0.98

> <Gold.PLP.Chemscore.Internal.Correction>
0.1509

> <Gold.Rescore>
     Score         DG    S(hbond)    S(metal)    S(lipo)     H(rot)  DE(clash)    DE(int)     intcor
     14.58     -17.85       1.99        0.00      86.74       1.73       2.18       1.09       ----

> <Gold.Chemscore.Fitness>
14.5782

> <Gold.Chemscore.DG>
-17.8464

> <Gold.Chemscore.ZeroCoef>
-5.4800

> <Gold.Chemscore.Hbond>
1.9860

> <Gold.Chemscore.Metal>
0.0000

> <Gold.Chemscore.Lipo>
86.7449

> <Gold.Chemscore.Internal_Hbond>
0.0000

> <Gold.Chemscore.DEClash>
2.1824

> <Gold.Chemscore.DEInternal>
1.0858

> <Gold.Chemscore.Rot>
1.7250

> <Gold.Chemscore.Internal.Correction>
   9.000000E+99

> <Gold.Chemscore.Hbonds>
donor molecule, donor type, donor heavy atom, donor atom, acceptor molecule, acceptor atom, score
      L1  H     3    46       P1  7948  1.00
      L1  H    10    37       P1  8028  0.91

> <Gold.Chemscore.Hbond.Weighted>
-6.6333

> <Gold.Chemscore.Metal.Weighted>
-0.0000

> <Gold.Chemscore.Lipo.Weighted>
-10.1492

> <Gold.Chemscore.Internal_Hbond.Weighted>
0.0000

> <Gold.Chemscore.DEClash.Weighted>
2.1824

> <Gold.Chemscore.DEInternal.Weighted>
1.0858

> <Gold.Chemscore.Rot.Weighted>
4.4161

> <Gold.Chemscore.Internal.Correction.Weighted>
   9.000000E+99

> <Gold.Protein.RotatedTorsions>
[ 6907 6896 6895 6894 ] final  -98.20 input  -60.11 | X-H torsion
[ 7974 7965 7964 7962 ] final   78.43 input  175.53 | X-H torsion
[ 8008 7997 7996 7995 ] final  118.32 input   59.86 | X-H torsion
[ 10167 10162 10161 10158 ] final   99.76 input  -65.29 | X-H torsion
[ 10718 10713 10712 10709 ] final   29.95 input   66.30 | X-H torsion
[ 10763 10752 10751 10750 ] final  161.89 input  -60.55 | X-H torsion
[ 11005 11000 10999 10996 ] final  -72.48 input  -57.11 | X-H torsion

> <Gold.Protein.ActiveResidues>
 VAL166  LYS551  ARG553  GLY616  TRP617  ASP618  TYR619  PRO620  LYS621  CYS622 
 ASP623  PHE694  ASN695  SER759  ASP760  ASP761  ALA762  ILE779  LEU786  VAL792 
 PHE793  MET794  SER795  GLU796  ALA797  LYS798  CYS799  TRP800  GLU811  SER814 

> <Gold.Protein.RotatedAtoms>
  150.7039  134.1230  159.4041 H   0  0  0  0  0  0  0  0  0  0  0  0  # atno 6907 bound_to 6896
  151.9217  135.0293  160.0532 H   0  0  0  0  0  0  0  0  0  0  0  0  # atno 6908 bound_to 6896
  152.2251  133.4978  159.5221 H   0  0  0  0  0  0  0  0  0  0  0  0  # atno 6909 bound_to 6896
  145.6773  139.2513  143.1834 H   0  0  0  0  0  0  0  0  0  0  0  0  # atno 7974 bound_to 7965
  156.2540  140.2877  156.0816 H   0  0  0  0  0  0  0  0  0  0  0  0  # atno 8008 bound_to 7997
  155.1560  140.0398  157.2849 H   0  0  0  0  0  0  0  0  0  0  0  0  # atno 8009 bound_to 7997
  154.6427  140.2526  155.7310 H   0  0  0  0  0  0  0  0  0  0  0  0  # atno 8010 bound_to 7997
  139.7588  144.6961  151.0323 H   0  0  0  0  0  0  0  0  0  0  0  0  # atno 10167 bound_to 10162
  157.2533  130.7125  149.6416 H   0  0  0  0  0  0  0  0  0  0  0  0  # atno 10718 bound_to 10713
  154.2699  135.2766  155.2742 H   0  0  0  0  0  0  0  0  0  0  0  0  # atno 10763 bound_to 10752
  154.5310  135.5729  153.6762 H   0  0  0  0  0  0  0  0  0  0  0  0  # atno 10764 bound_to 10752
  152.9947  135.6228  154.2853 H   0  0  0  0  0  0  0  0  0  0  0  0  # atno 10765 bound_to 10752
  141.1609  133.6848  156.7065 H   0  0  0  0  0  0  0  0  0  0  0  0  # atno 11005 bound_to 11000
  146.0994  140.7561  142.9556 LP  0  0  0  0  0  0  0  0  0  0  0  0  # atno 17320 bound_to 7965
  144.7037  140.3764  143.7135 LP  0  0  0  0  0  0  0  0  0  0  0  0  # atno 17321 bound_to 7965
  140.7805  143.4722  151.0131 LP  0  0  0  0  0  0  0  0  0  0  0  0  # atno 17342 bound_to 10162
  139.8408  143.7566  152.3180 LP  0  0  0  0  0  0  0  0  0  0  0  0  # atno 17343 bound_to 10162
  155.9665  130.4421  150.5366 LP  0  0  0  0  0  0  0  0  0  0  0  0  # atno 17370 bound_to 10713
  157.3255  131.0690  151.1900 LP  0  0  0  0  0  0  0  0  0  0  0  0  # atno 17371 bound_to 10713
  140.2919  134.8234  157.4024 LP  0  0  0  0  0  0  0  0  0  0  0  0  # atno 17394 bound_to 11000
  140.1339  134.5059  155.8084 LP  0  0  0  0  0  0  0  0  0  0  0  0  # atno 17395 bound_to 11000

$$$$
