AV-unprocessed.smi:1072|AV-procd|sdf|4685|dock3
  -GOLD-   22720 3203D 1   1.00000     0.00000
 Structure written by MMmdl.
 46 47  0  0  0  0  0  0  0  0  1 V2000
  150.8904  129.6160  155.2108 C   0  0  0  0  0  0  0  0  0  0  0  0
  150.3643  131.0345  155.2509 C   0  0  0  0  0  0  0  0  0  0  0  0
  149.6617  131.3999  154.1143 N   0  0  0  0  0  0  0  0  0  0  0  0
  149.1449  132.6823  154.0570 C   0  0  0  0  0  0  0  0  0  0  0  0
  148.3930  133.0036  152.7769 C   0  0  0  0  0  0  0  0  0  0  0  0
  149.3136  133.5544  155.0833 C   0  0  0  0  0  0  0  0  0  0  0  0
  148.7539  134.9763  155.0590 C   0  0  0  0  0  0  0  0  0  0  0  0
  147.2368  135.0925  154.8925 C   0  0  0  0  0  0  0  0  0  0  0  0
  146.4904  134.8315  155.8356 O   0  0  0  0  0  0  0  0  0  0  0  0
  146.8070  135.4825  153.6795 N   0  0  0  0  0  0  0  0  0  0  0  0
  145.4253  135.6701  153.2127 C   0  0  1  0  0  0  0  0  0  0  0  0
  144.7286  136.7555  154.0619 C   0  0  0  0  0  0  0  0  0  0  0  0
  145.3748  136.0465  151.7080 C   0  0  0  0  0  0  0  0  0  0  0  0
  145.9187  134.9332  150.7948 C   0  0  0  0  0  0  0  0  0  0  0  0
  145.1646  133.6090  151.0118 C   0  0  1  0  0  0  0  0  0  0  0  0
  145.7114  132.4959  150.1073 C   0  0  0  0  0  0  0  0  0  0  0  0
  145.2082  133.2050  152.4967 C   0  0  0  0  0  0  0  0  0  0  0  0
  144.6777  134.3287  153.4075 C   0  0  0  0  0  0  0  0  0  0  0  0
  150.0650  133.1020  156.2781 C   0  0  0  0  0  0  0  0  0  0  0  0
  150.2374  133.8392  157.2477 O   0  0  0  0  0  0  0  0  0  0  0  0
  150.5774  131.7943  156.2820 N   0  0  0  0  0  0  0  0  0  0  0  0
  149.5099  130.7819  153.3301 H   0  0  0  0  0  0  0  0  0  0  0  0
  151.5752  129.4312  156.0394 H   0  0  0  0  0  0  0  0  0  0  0  0
  151.4274  129.4319  154.2796 H   0  0  0  0  0  0  0  0  0  0  0  0
  150.0666  128.9055  155.2834 H   0  0  0  0  0  0  0  0  0  0  0  0
  148.8720  133.8291  152.2504 H   0  0  0  0  0  0  0  0  0  0  0  0
  147.3635  133.2858  152.9993 H   0  0  0  0  0  0  0  0  0  0  0  0
  148.3659  132.1476  152.1015 H   0  0  0  0  0  0  0  0  0  0  0  0
  149.2354  135.5165  154.2431 H   0  0  0  0  0  0  0  0  0  0  0  0
  149.0411  135.5214  155.9586 H   0  0  0  0  0  0  0  0  0  0  0  0
  147.5217  135.6724  152.9920 H   0  0  0  0  0  0  0  0  0  0  0  0
  143.6755  136.8492  153.7948 H   0  0  0  0  0  0  0  0  0  0  0  0
  145.1791  137.7382  153.9222 H   0  0  0  0  0  0  0  0  0  0  0  0
  144.7761  136.5188  155.1254 H   0  0  0  0  0  0  0  0  0  0  0  0
  144.3412  136.2514  151.4252 H   0  0  0  0  0  0  0  0  0  0  0  0
  145.9151  136.9732  151.5156 H   0  0  0  0  0  0  0  0  0  0  0  0
  145.8287  135.2434  149.7533 H   0  0  0  0  0  0  0  0  0  0  0  0
  146.9844  134.7907  150.9788 H   0  0  0  0  0  0  0  0  0  0  0  0
  144.1204  133.7691  150.7391 H   0  0  0  0  0  0  0  0  0  0  0  0
  146.7600  132.2886  150.3226 H   0  0  0  0  0  0  0  0  0  0  0  0
  145.6361  132.7729  149.0553 H   0  0  0  0  0  0  0  0  0  0  0  0
  145.1531  131.5695  150.2441 H   0  0  0  0  0  0  0  0  0  0  0  0
  144.6144  132.3036  152.6520 H   0  0  0  0  0  0  0  0  0  0  0  0
  146.2294  132.9481  152.7812 H   0  0  0  0  0  0  0  0  0  0  0  0
  144.7385  134.0114  154.4497 H   0  0  0  0  0  0  0  0  0  0  0  0
  143.6158  134.4700  153.2005 H   0  0  0  0  0  0  0  0  0  0  0  0
  1 23  1  0  0  0  0
  1 24  1  0  0  0  0
  1 25  1  0  0  0  0
  1  2  1  0  0  0  0
  2  3  1  0  0  0  0
  2 21  2  0  0  0  0
  3  4  1  0  0  0  0
  3 22  1  0  0  0  0
  4  6  2  0  0  0  0
  4  5  1  0  0  0  0
  5 26  1  0  0  0  0
  5 27  1  0  0  0  0
  5 28  1  0  0  0  0
  6 19  1  0  0  0  0
  6  7  1  0  0  0  0
  7  8  1  0  0  0  0
  7 29  1  0  0  0  0
  7 30  1  0  0  0  0
  8  9  2  0  0  0  0
  8 10  1  0  0  0  0
 10 11  1  0  0  0  0
 10 31  1  0  0  0  0
 11 18  1  0  0  0  0
 11 12  1  0  0  0  0
 11 13  1  0  0  0  0
 12 32  1  0  0  0  0
 12 33  1  0  0  0  0
 12 34  1  0  0  0  0
 13 14  1  0  0  0  0
 13 35  1  0  0  0  0
 13 36  1  0  0  0  0
 14 15  1  0  0  0  0
 14 37  1  0  0  0  0
 14 38  1  0  0  0  0
 15 16  1  0  0  0  0
 15 17  1  0  0  0  0
 15 39  1  0  0  0  0
 16 40  1  0  0  0  0
 16 41  1  0  0  0  0
 16 42  1  0  0  0  0
 17 18  1  0  0  0  0
 17 43  1  0  0  0  0
 17 44  1  0  0  0  0
 18 45  1  0  0  0  0
 18 46  1  0  0  0  0
 19 20  2  0  0  0  0
 19 21  1  0  0  0  0
M  END
> <s_m_source_file>
AV-unprocessed.smi

> <i_m_source_file_index>
1072

> <i_lp_mmshare_version>
43012

> <i_f3d_flags>
0

> <s_epik_input>
W0NIM11jMW5jKFtDSDNdKWMoYyg9TylbbkhdMSlbQ0gyXUMoPU8pW05IXVtDQEBdMihbQ0gzXSlbQ0gyXVtDSDJdW0NAQEhdKFtDSDNdKVtDSDJdW0NIMl0y

> <s_epik_cmdline>
J2VwaWtfcHl0aG9uJywgJy1waCcsICc3LjAnLCAnLXRuJywgJzgnLCAnLW1hJywgJzIwMCcsICctbWV0YWxfYmluZGluZycsICctaW1hZScsICc8aW5maWxlLm1hZT4nLCAnLW9tYWUnLCAnPG91dGZpbGUubWFlPic=

> <r_lp_tautomer_probability>
0.156392

> <r_epik_Ionization_Penalty>
0.0131066

> <r_epik_Ionization_Penalty_Charging>
0.0129643

> <r_epik_Ionization_Penalty_Neutral>
0.000142248

> <r_epik_State_Penalty>
1.15342

> <r_epik_Charging_Adjusted_Penalty>
1.16638

> <i_epik_Tot_Q>
0

> <i_epik_Tot_abs_Q>
0

> <r_epik_Metal_State_Penalty>
1.30766

> <b_epik_Metal_Only>
0

> <s_lp_Force_Field>
OPLS_2005

> <r_lp_Energy>
14.6826

> <b_lp_Chiralities_Consistent>
1

> <s_lp_Variant>
AV-unprocessed.smi:1072-3

> <Gold.Version>
5.8.1

> <Gold.Id.Protein>
6NUR|6NUR_protein|mol2

> <Gold.PLP.Fitness>
34.2261

> <Gold.PLP.PLP>
-29.2070

> <Gold.PLP.part.hbond>
-2.0000

> <Gold.PLP.part.metal>
0.0000

> <Gold.PLP.part.buried>
-4.5809

> <Gold.PLP.part.nonpolar>
-23.6459

> <Gold.PLP.part.repulsive>
0.0147

> <Gold.PLP.ligand.clash>
0.0000

> <Gold.PLP.ligand.torsion>
0.1943

> <Gold.PLP.Chemscore.Hbond>
1.8008

> <Gold.PLP.Chemscore.CHOScore>
0.0000

> <Gold.PLP.Chemscore.Metal>
0.0000

> <Gold.Chemscore.Hbonds>
donor molecule, donor type, donor heavy atom, donor atom, acceptor molecule, acceptor atom, score
      L1  H    10    31       P1  7948  1.00
      P1  H  6896  6909       L1    20  0.77

> <Gold.PLP.Chemscore.Internal.Correction>
0.0054

> <Gold.Rescore>
     Score         DG    S(hbond)    S(metal)    S(lipo)     H(rot)  DE(clash)    DE(int)     intcor
     15.64     -15.86       1.92        0.00      65.96       1.47       0.06       0.17       ----

> <Gold.Chemscore.Fitness>
15.6358

> <Gold.Chemscore.DG>
-15.8614

> <Gold.Chemscore.ZeroCoef>
-5.4800

> <Gold.Chemscore.Hbond>
1.9237

> <Gold.Chemscore.Metal>
0.0000

> <Gold.Chemscore.Lipo>
65.9552

> <Gold.Chemscore.Internal_Hbond>
0.0000

> <Gold.Chemscore.DEClash>
0.0592

> <Gold.Chemscore.DEInternal>
0.1663

> <Gold.Chemscore.Rot>
1.4690

> <Gold.Chemscore.Internal.Correction>
   9.000000E+99

> <Gold.Chemscore.Hbonds>
donor molecule, donor type, donor heavy atom, donor atom, acceptor molecule, acceptor atom, score
      L1  H    10    31       P1  7948  1.00
      P1  H  6896  6909       L1    20  0.74

> <Gold.Chemscore.Hbond.Weighted>
-6.4253

> <Gold.Chemscore.Metal.Weighted>
-0.0000

> <Gold.Chemscore.Lipo.Weighted>
-7.7168

> <Gold.Chemscore.Internal_Hbond.Weighted>
0.0000

> <Gold.Chemscore.DEClash.Weighted>
0.0592

> <Gold.Chemscore.DEInternal.Weighted>
0.1663

> <Gold.Chemscore.Rot.Weighted>
3.7607

> <Gold.Chemscore.Internal.Correction.Weighted>
   9.000000E+99

> <Gold.Protein.RotatedTorsions>
[ 6907 6896 6895 6894 ] final    1.53 input  -60.11 | X-H torsion
[ 7974 7965 7964 7962 ] final  -50.77 input  175.53 | X-H torsion
[ 8008 7997 7996 7995 ] final -170.45 input   59.86 | X-H torsion
[ 10167 10162 10161 10158 ] final -169.22 input  -65.29 | X-H torsion
[ 10718 10713 10712 10709 ] final -133.59 input   66.30 | X-H torsion
[ 10763 10752 10751 10750 ] final   81.57 input  -60.55 | X-H torsion
[ 11005 11000 10999 10996 ] final  171.96 input  -57.11 | X-H torsion

> <Gold.Protein.ActiveResidues>
 VAL166  LYS551  ARG553  GLY616  TRP617  ASP618  TYR619  PRO620  LYS621  CYS622 
 ASP623  PHE694  ASN695  SER759  ASP760  ASP761  ALA762  ILE779  LEU786  VAL792 
 PHE793  MET794  SER795  GLU796  ALA797  LYS798  CYS799  TRP800  GLU811  SER814 

> <Gold.Protein.RotatedAtoms>
  151.5941  135.1051  160.0045 H   0  0  0  0  0  0  0  0  0  0  0  0  # atno 6907 bound_to 6896
  152.4291  133.7243  159.6562 H   0  0  0  0  0  0  0  0  0  0  0  0  # atno 6908 bound_to 6896
  150.8182  133.8227  159.3173 H   0  0  0  0  0  0  0  0  0  0  0  0  # atno 6909 bound_to 6896
  145.9262  140.7790  142.9622 H   0  0  0  0  0  0  0  0  0  0  0  0  # atno 7974 bound_to 7965
  155.9185  140.1070  157.1225 H   0  0  0  0  0  0  0  0  0  0  0  0  # atno 8008 bound_to 7997
  154.4050  140.1260  156.4713 H   0  0  0  0  0  0  0  0  0  0  0  0  # atno 8009 bound_to 7997
  155.7225  140.3469  155.5025 H   0  0  0  0  0  0  0  0  0  0  0  0  # atno 8010 bound_to 7997
  139.5936  144.1160  152.1663 H   0  0  0  0  0  0  0  0  0  0  0  0  # atno 10167 bound_to 10162
  156.2465  130.7127  151.1010 H   0  0  0  0  0  0  0  0  0  0  0  0  # atno 10718 bound_to 10713
  153.1128  135.4760  154.9064 H   0  0  0  0  0  0  0  0  0  0  0  0  # atno 10763 bound_to 10752
  154.7498  135.3103  154.8581 H   0  0  0  0  0  0  0  0  0  0  0  0  # atno 10764 bound_to 10752
  153.9165  135.6859  153.4802 H   0  0  0  0  0  0  0  0  0  0  0  0  # atno 10765 bound_to 10752
  140.3246  134.7409  157.4089 H   0  0  0  0  0  0  0  0  0  0  0  0  # atno 11005 bound_to 11000
  144.6759  140.2055  143.7382 LP  0  0  0  0  0  0  0  0  0  0  0  0  # atno 17320 bound_to 7965
  145.8485  139.2164  143.1786 LP  0  0  0  0  0  0  0  0  0  0  0  0  # atno 17321 bound_to 7965
  140.0740  144.5755  150.7170 LP  0  0  0  0  0  0  0  0  0  0  0  0  # atno 17342 bound_to 10162
  140.7193  143.2574  151.4330 LP  0  0  0  0  0  0  0  0  0  0  0  0  # atno 17343 bound_to 10162
  157.7197  131.0689  150.6185 LP  0  0  0  0  0  0  0  0  0  0  0  0  # atno 17370 bound_to 10713
  156.6262  130.4419  149.5803 LP  0  0  0  0  0  0  0  0  0  0  0  0  # atno 17371 bound_to 10713
  140.0913  134.5598  155.8442 LP  0  0  0  0  0  0  0  0  0  0  0  0  # atno 17394 bound_to 11000
  141.2078  133.6668  156.6331 LP  0  0  0  0  0  0  0  0  0  0  0  0  # atno 17395 bound_to 11000

$$$$
