AV-unprocessed.smi:3208|AV-procd|sdf|12264|dock5
  -GOLD-   2272018103D 1   1.00000     0.00000
 Structure written by MMmdl.
 29 29  0  0  0  0  0  0  0  0  2 V2000
  154.0884  141.0295  161.4549 C   0  0  0  0  0  0  0  0  0  0  0  0
  154.1707  142.2739  161.9522 C   0  0  0  0  0  0  0  0  0  0  0  0
  153.0571  143.3028  161.9420 C   0  0  0  0  0  0  0  0  0  0  0  0
  152.0954  143.0327  160.9267 O   0  0  0  0  0  0  0  0  0  0  0  0
  152.6270  142.8966  159.6109 C   0  0  2  0  0  0  0  0  0  0  0  0
  153.0870  144.2850  159.1460 C   0  0  0  0  0  0  0  0  0  0  0  0
  151.5643  142.3276  158.6561 C   0  0  0  0  0  0  0  0  0  0  0  0
  150.4685  142.8922  158.5889 O   0  0  0  0  0  0  0  0  0  0  0  0
  152.0249  141.2032  157.9763 N   0  0  0  0  0  0  0  0  0  0  0  0
  151.4979  140.7655  156.8651 C   0  0  0  0  0  0  0  0  0  0  0  0
  150.4014  141.3802  156.2353 N   0  0  0  0  0  0  0  0  0  0  0  0
  149.8489  140.9131  155.0616 C   0  0  0  0  0  0  0  0  0  0  0  0
  150.3301  139.8320  154.4459 C   0  0  0  0  0  0  0  0  0  0  0  0
  151.4595  139.1384  155.0303 C   0  0  0  0  0  0  0  0  0  0  0  0
  152.0622  139.5665  156.2192 C   0  0  0  0  0  0  0  0  0  0  0  0
  153.0378  138.9355  156.6882 O   0  5  0  0  0  0  0  0  0  0  0  0
  153.1844  140.6605  160.9934 H   0  0  0  0  0  0  0  0  0  0  0  0
  154.9335  140.3588  161.5044 H   0  0  0  0  0  0  0  0  0  0  0  0
  155.0987  142.5933  162.4033 H   0  0  0  0  0  0  0  0  0  0  0  0
  152.5758  143.2956  162.9208 H   0  0  0  0  0  0  0  0  0  0  0  0
  153.5076  144.2862  161.8052 H   0  0  0  0  0  0  0  0  0  0  0  0
  153.4989  142.2397  159.6454 H   0  0  0  0  0  0  0  0  0  0  0  0
  153.5198  144.2444  158.1457 H   0  0  0  0  0  0  0  0  0  0  0  0
  153.8473  144.6846  159.8172 H   0  0  0  0  0  0  0  0  0  0  0  0
  152.2587  144.9945  159.1253 H   0  0  0  0  0  0  0  0  0  0  0  0
  149.0114  141.4876  154.6947 H   0  0  0  0  0  0  0  0  0  0  0  0
  149.8855  139.4788  153.5271 H   0  0  0  0  0  0  0  0  0  0  0  0
  151.8408  138.2640  154.5227 H   0  0  0  0  0  0  0  0  0  0  0  0
  149.9749  142.2042  156.6322 H   0  0  0  0  0  0  0  0  0  0  0  0
  1  2  2  0  0  0  0
  1 17  1  0  0  0  0
  1 18  1  0  0  0  0
  2  3  1  0  0  0  0
  2 19  1  0  0  0  0
  3  4  1  0  0  0  0
  3 20  1  0  0  0  0
  3 21  1  0  0  0  0
  4  5  1  0  0  0  0
  5  6  1  0  0  0  0
  5  7  1  0  0  0  0
  5 22  1  0  0  0  0
  6 23  1  0  0  0  0
  6 24  1  0  0  0  0
  6 25  1  0  0  0  0
  7  8  2  0  0  0  0
  7  9  1  0  0  0  0
  9 10  2  0  0  0  0
 10 15  1  0  0  0  0
 10 11  1  0  0  0  0
 11 29  1  0  0  0  0
 11 12  1  0  0  0  0
 12 26  1  0  0  0  0
 12 13  2  0  0  0  0
 13 27  1  0  0  0  0
 13 14  1  0  0  0  0
 14 15  2  0  0  0  0
 14 28  1  0  0  0  0
 15 16  1  0  0  0  0
M  CHG  1  16  -1
M  END
> <s_m_source_file>
AV-unprocessed.smi

> <i_m_source_file_index>
3208

> <i_lp_mmshare_version>
43012

> <i_f3d_flags>
0

> <s_epik_input>
W0NIMl09W0NIXVtDSDJdT1tDQEhdKFtDSDNdKUMoPU8pW05IXWMxbltjSF1bY0hdW2NIXWMxW09IXQ==

> <s_epik_cmdline>
J2VwaWtfcHl0aG9uJywgJy1waCcsICc3LjAnLCAnLXRuJywgJzgnLCAnLW1hJywgJzIwMCcsICctbWV0YWxfYmluZGluZycsICctaW1hZScsICc8aW5maWxlLm1hZT4nLCAnLW9tYWUnLCAnPG91dGZpbGUubWFlPic=

> <r_epik_Ionization_Penalty>
0.613767

> <r_epik_Ionization_Penalty_Charging>
0.613767

> <r_epik_Ionization_Penalty_Neutral>
1.14324e-13

> <r_epik_State_Penalty>
1.22258

> <r_epik_Charging_Adjusted_Penalty>
1.83635

> <i_epik_Tot_Q>
-1

> <i_epik_Tot_abs_Q>
1

> <r_epik_Metal_State_Penalty>
1.18528

> <b_epik_Metal_Only>
0

> <s_lp_Force_Field>
OPLS_2005

> <r_lp_Energy>
36.008

> <b_lp_Chiralities_Consistent>
1

> <s_lp_Variant>
AV-unprocessed.smi:3208-5

> <Gold.Version>
5.8.1

> <Gold.Id.Protein>
6NUR|6NUR_protein|mol2

> <Gold.PLP.Fitness>
41.7703

> <Gold.PLP.PLP>
-35.5790

> <Gold.PLP.part.hbond>
-2.4974

> <Gold.PLP.part.metal>
0.0000

> <Gold.PLP.part.buried>
-1.5193

> <Gold.PLP.part.nonpolar>
-31.7016

> <Gold.PLP.part.repulsive>
0.2255

> <Gold.PLP.ligand.clash>
0.0000

> <Gold.PLP.ligand.torsion>
0.4007

> <Gold.PLP.Chemscore.Hbond>
2.3203

> <Gold.PLP.Chemscore.CHOScore>
0.0000

> <Gold.PLP.Chemscore.Metal>
0.0000

> <Gold.Chemscore.Hbonds>
donor molecule, donor type, donor heavy atom, donor atom, acceptor molecule, acceptor atom, score
      P1  H  7997  8008       L1    16  2.00

> <Gold.PLP.Chemscore.Internal.Correction>
0.0316

> <Gold.Rescore>
     Score         DG    S(hbond)    S(metal)    S(lipo)     H(rot)  DE(clash)    DE(int)     intcor
     15.36     -15.86       1.49        0.00      82.49       1.65       0.09       0.41       ----

> <Gold.Chemscore.Fitness>
15.3610

> <Gold.Chemscore.DG>
-15.8641

> <Gold.Chemscore.ZeroCoef>
-5.4800

> <Gold.Chemscore.Hbond>
1.4867

> <Gold.Chemscore.Metal>
0.0000

> <Gold.Chemscore.Lipo>
82.4861

> <Gold.Chemscore.Internal_Hbond>
0.0000

> <Gold.Chemscore.DEClash>
0.0908

> <Gold.Chemscore.DEInternal>
0.4123

> <Gold.Chemscore.Rot>
1.6533

> <Gold.Chemscore.Internal.Correction>
   9.000000E+99

> <Gold.Chemscore.Hbonds>
donor molecule, donor type, donor heavy atom, donor atom, acceptor molecule, acceptor atom, score
      P1  H  7997  8008       L1    16  0.40

> <Gold.Chemscore.Hbond.Weighted>
-4.9656

> <Gold.Chemscore.Metal.Weighted>
-0.0000

> <Gold.Chemscore.Lipo.Weighted>
-9.6509

> <Gold.Chemscore.Internal_Hbond.Weighted>
0.0000

> <Gold.Chemscore.DEClash.Weighted>
0.0908

> <Gold.Chemscore.DEInternal.Weighted>
0.4123

> <Gold.Chemscore.Rot.Weighted>
4.2324

> <Gold.Chemscore.Internal.Correction.Weighted>
   9.000000E+99

> <Gold.Protein.RotatedTorsions>
[ 6907 6896 6895 6894 ] final  -37.83 input  -60.11 | X-H torsion
[ 7974 7965 7964 7962 ] final  104.20 input  175.53 | X-H torsion
[ 8008 7997 7996 7995 ] final  -53.99 input   59.86 | X-H torsion
[ 10167 10162 10161 10158 ] final   29.73 input  -65.29 | X-H torsion
[ 10718 10713 10712 10709 ] final  161.31 input   66.30 | X-H torsion
[ 10763 10752 10751 10750 ] final -154.66 input  -60.55 | X-H torsion
[ 11005 11000 10999 10996 ] final  -91.52 input  -57.11 | X-H torsion

> <Gold.Protein.ActiveResidues>
 VAL166  LYS551  ARG553  GLY616  TRP617  ASP618  TYR619  PRO620  LYS621  CYS622 
 ASP623  PHE694  ASN695  SER759  ASP760  ASP761  ALA762  ILE779  LEU786  VAL792 
 PHE793  MET794  SER795  GLU796  ALA797  LYS798  CYS799  TRP800  GLU811  SER814 

> <Gold.Protein.RotatedAtoms>
  151.0099  134.9388  159.8000 H   0  0  0  0  0  0  0  0  0  0  0  0  # atno 6907 bound_to 6896
  152.5300  134.3042  159.9100 H   0  0  0  0  0  0  0  0  0  0  0  0  # atno 6908 bound_to 6896
  151.3048  133.4064  159.2676 H   0  0  0  0  0  0  0  0  0  0  0  0  # atno 6909 bound_to 6896
  145.3359  139.2474  143.3636 H   0  0  0  0  0  0  0  0  0  0  0  0  # atno 7974 bound_to 7965
  154.4149  140.1187  156.5242 H   0  0  0  0  0  0  0  0  0  0  0  0  # atno 8008 bound_to 7997
  155.6671  140.3496  155.4785 H   0  0  0  0  0  0  0  0  0  0  0  0  # atno 8009 bound_to 7997
  155.9664  140.1133  157.0841 H   0  0  0  0  0  0  0  0  0  0  0  0  # atno 8010 bound_to 7997
  140.4740  144.0719  150.6245 H   0  0  0  0  0  0  0  0  0  0  0  0  # atno 10167 bound_to 10162
  157.1383  131.0534  151.2339 H   0  0  0  0  0  0  0  0  0  0  0  0  # atno 10718 bound_to 10713
  154.7843  135.3185  154.7921 H   0  0  0  0  0  0  0  0  0  0  0  0  # atno 10763 bound_to 10752
  153.8625  135.6852  153.4786 H   0  0  0  0  0  0  0  0  0  0  0  0  # atno 10764 bound_to 10752
  153.1489  135.4708  154.9546 H   0  0  0  0  0  0  0  0  0  0  0  0  # atno 10765 bound_to 10752
  141.1543  133.7761  156.9890 H   0  0  0  0  0  0  0  0  0  0  0  0  # atno 11005 bound_to 11000
  146.3027  140.3946  142.8698 LP  0  0  0  0  0  0  0  0  0  0  0  0  # atno 17320 bound_to 7965
  144.8828  140.7422  143.5976 LP  0  0  0  0  0  0  0  0  0  0  0  0  # atno 17321 bound_to 7965
  140.3941  143.2737  152.0025 LP  0  0  0  0  0  0  0  0  0  0  0  0  # atno 17342 bound_to 10162
  139.4823  144.6052  151.7533 LP  0  0  0  0  0  0  0  0  0  0  0  0  # atno 17343 bound_to 10162
  157.4330  130.7501  149.7006 LP  0  0  0  0  0  0  0  0  0  0  0  0  # atno 17370 bound_to 10713
  155.9794  130.4041  150.3592 LP  0  0  0  0  0  0  0  0  0  0  0  0  # atno 17371 bound_to 10713
  140.1015  134.9532  157.1930 LP  0  0  0  0  0  0  0  0  0  0  0  0  # atno 17394 bound_to 11000
  140.3312  134.2808  155.7228 LP  0  0  0  0  0  0  0  0  0  0  0  0  # atno 17395 bound_to 11000

$$$$
