AV-unprocessed.smi:2310|AV-procd|sdf|9260|dock1
  -GOLD-   2272012483D 1   1.00000     0.00000
 Structure written by MMmdl.
 45 46  0  0  0  0  0  0  0  0  3 V2000
  149.8052  132.8913  154.5594 C   0  0  0  0  0  0  0  0  0  0  0  0
  149.7781  134.4260  154.6963 C   0  0  0  0  0  0  0  0  0  0  0  0
  148.3679  135.0425  154.8372 C   0  0  1  0  0  0  0  0  0  0  0  0
  147.6571  134.5741  156.1230 C   0  0  0  0  0  0  0  0  0  0  0  0
  148.4867  134.6008  157.3415 C   0  0  0  0  0  0  0  0  0  0  0  0
  149.1425  134.6229  158.2963 N   0  0  0  0  0  0  0  0  0  0  0  0
  148.4674  136.5066  154.8386 N   0  5  0  0  0  0  0  0  0  0  0  0
  149.2012  137.2370  155.7198 C   0  0  0  0  0  0  0  0  0  0  0  0
  149.9528  136.8174  156.6075 O   0  0  0  0  0  0  0  0  0  0  0  0
  149.0608  138.5591  155.5204 N   0  0  0  0  0  0  0  0  0  0  0  0
  149.6501  139.6326  156.2419 C   0  0  0  0  0  0  0  0  0  0  0  0
  150.4800  139.4300  157.3708 C   0  0  0  0  0  0  0  0  0  0  0  0
  151.0090  140.5414  158.0567 C   0  0  0  0  0  0  0  0  0  0  0  0
  150.6943  141.8492  157.6198 C   0  0  0  0  0  0  0  0  0  0  0  0
  151.1893  143.0063  158.2504 N   0  0  0  0  0  0  0  0  0  0  0  0
  151.8422  142.9507  159.5521 C   0  0  0  0  0  0  0  0  0  0  0  0
  152.8089  144.1400  159.5781 C   0  0  0  0  0  0  0  0  0  0  0  0
  152.2515  145.0965  158.5238 C   0  0  0  0  0  0  0  0  0  0  0  0
  151.6455  144.1542  157.4848 C   0  0  0  0  0  0  0  0  0  0  0  0
  149.8854  141.9939  156.5437 N   0  3  0  0  0  0  0  0  0  0  0  0
  149.3545  140.9599  155.8536 C   0  0  0  0  0  0  0  0  0  0  0  0
  148.4623  141.2903  154.6713 C   0  0  0  0  0  0  0  0  0  0  0  0
  150.8342  132.5373  154.4957 H   0  0  0  0  0  0  0  0  0  0  0  0
  149.2936  132.5490  153.6580 H   0  0  0  0  0  0  0  0  0  0  0  0
  149.3471  132.3939  155.4162 H   0  0  0  0  0  0  0  0  0  0  0  0
  150.3635  134.6948  155.5762 H   0  0  0  0  0  0  0  0  0  0  0  0
  150.2987  134.8708  153.8471 H   0  0  0  0  0  0  0  0  0  0  0  0
  147.7715  134.6869  153.9953 H   0  0  0  0  0  0  0  0  0  0  0  0
  146.7661  135.1743  156.3102 H   0  0  0  0  0  0  0  0  0  0  0  0
  147.3165  133.5464  155.9968 H   0  0  0  0  0  0  0  0  0  0  0  0
  148.5277  138.8193  154.7036 H   0  0  0  0  0  0  0  0  0  0  0  0
  150.7077  138.4374  157.7292 H   0  0  0  0  0  0  0  0  0  0  0  0
  151.6457  140.3728  158.9122 H   0  0  0  0  0  0  0  0  0  0  0  0
  151.0845  143.0512  160.3297 H   0  0  0  0  0  0  0  0  0  0  0  0
  152.3745  142.0122  159.7120 H   0  0  0  0  0  0  0  0  0  0  0  0
  152.8934  144.5961  160.5648 H   0  0  0  0  0  0  0  0  0  0  0  0
  153.8036  143.8086  159.2776 H   0  0  0  0  0  0  0  0  0  0  0  0
  151.4676  145.7141  158.9647 H   0  0  0  0  0  0  0  0  0  0  0  0
  153.0086  145.7595  158.1047 H   0  0  0  0  0  0  0  0  0  0  0  0
  152.4016  143.8354  156.7660 H   0  0  0  0  0  0  0  0  0  0  0  0
  150.8273  144.6289  156.9425 H   0  0  0  0  0  0  0  0  0  0  0  0
  147.4595  140.8932  154.8305 H   0  0  0  0  0  0  0  0  0  0  0  0
  148.8648  140.8503  153.7586 H   0  0  0  0  0  0  0  0  0  0  0  0
  148.3818  142.3673  154.5203 H   0  0  0  0  0  0  0  0  0  0  0  0
  149.6619  142.9395  156.2339 H   0  0  0  0  0  0  0  0  0  0  0  0
  1  2  1  0  0  0  0
  1 23  1  0  0  0  0
  1 24  1  0  0  0  0
  1 25  1  0  0  0  0
  2  3  1  0  0  0  0
  2 26  1  0  0  0  0
  2 27  1  0  0  0  0
  3  4  1  0  0  0  0
  3  7  1  0  0  0  0
  3 28  1  0  0  0  0
  4  5  1  0  0  0  0
  4 29  1  0  0  0  0
  4 30  1  0  0  0  0
  5  6  3  0  0  0  0
  7  8  1  0  0  0  0
  8  9  2  0  0  0  0
  8 10  1  0  0  0  0
 10 11  1  0  0  0  0
 10 31  1  0  0  0  0
 11 21  1  0  0  0  0
 11 12  2  0  0  0  0
 12 13  1  0  0  0  0
 12 32  1  0  0  0  0
 13 14  2  0  0  0  0
 13 33  1  0  0  0  0
 14 15  1  0  0  0  0
 14 20  1  0  0  0  0
 15 19  1  0  0  0  0
 15 16  1  0  0  0  0
 16 17  1  0  0  0  0
 16 34  1  0  0  0  0
 16 35  1  0  0  0  0
 17 18  1  0  0  0  0
 17 36  1  0  0  0  0
 17 37  1  0  0  0  0
 18 19  1  0  0  0  0
 18 38  1  0  0  0  0
 18 39  1  0  0  0  0
 19 40  1  0  0  0  0
 19 41  1  0  0  0  0
 20 21  2  0  0  0  0
 20 45  1  0  0  0  0
 21 22  1  0  0  0  0
 22 42  1  0  0  0  0
 22 43  1  0  0  0  0
 22 44  1  0  0  0  0
M  CHG  1   7  -1
M  CHG  1  20   1
M  END
> <s_m_source_file>
AV-unprocessed.smi

> <i_m_source_file_index>
2310

> <i_lp_mmshare_version>
43012

> <i_f3d_flags>
0

> <s_epik_input>
TiNDW0NIMl1bQ0BASF0oW0NIMl1bQ0gzXSlbTkhdQyg9TylbTkhdYzFbY0hdW2NIXWMobmMxW0NIM10pTjJbQ0gyXVtDSDJdW0NIMl1bQ0gyXTI=

> <s_epik_cmdline>
J2VwaWtfcHl0aG9uJywgJy1waCcsICc3LjAnLCAnLXRuJywgJzgnLCAnLW1hJywgJzIwMCcsICctbWV0YWxfYmluZGluZycsICctaW1hZScsICc8aW5maWxlLm1hZT4nLCAnLW9tYWUnLCAnPG91dGZpbGUubWFlPic=

> <r_lp_tautomer_probability>
0.999994

> <r_epik_Ionization_Penalty>
7.34515

> <r_epik_Ionization_Penalty_Charging>
7.34514

> <r_epik_Ionization_Penalty_Neutral>
2.56118e-06

> <r_epik_State_Penalty>
6.99243

> <r_epik_Charging_Adjusted_Penalty>
14.3376

> <i_epik_Tot_Q>
0

> <i_epik_Tot_abs_Q>
2

> <r_epik_Metal_State_Penalty>
3.10684

> <b_epik_Metal_Only>
1

> <s_lp_Force_Field>
OPLS_2005

> <r_lp_Energy>
34.805

> <b_lp_Chiralities_Consistent>
1

> <s_lp_Variant>
AV-unprocessed.smi:2310-6

> <Gold.Version>
5.8.1

> <Gold.Id.Protein>
6NUR|6NUR_protein|mol2

> <Gold.PLP.Fitness>
42.1286

> <Gold.PLP.PLP>
-33.8008

> <Gold.PLP.part.hbond>
-1.9806

> <Gold.PLP.part.metal>
0.0000

> <Gold.PLP.part.buried>
-5.0228

> <Gold.PLP.part.nonpolar>
-28.2461

> <Gold.PLP.part.repulsive>
0.8811

> <Gold.PLP.ligand.clash>
0.0000

> <Gold.PLP.ligand.torsion>
0.5080

> <Gold.PLP.Chemscore.Hbond>
3.0000

> <Gold.PLP.Chemscore.CHOScore>
0.0000

> <Gold.PLP.Chemscore.Metal>
0.0000

> <Gold.Chemscore.Hbonds>
donor molecule, donor type, donor heavy atom, donor atom, acceptor molecule, acceptor atom, score
      L1  H    20    45       P1  8028  2.00
      P1  H  6896  6909       L1     6  1.00

> <Gold.PLP.Chemscore.Internal.Correction>
0.3437

> <Gold.Rescore>
     Score         DG    S(hbond)    S(metal)    S(lipo)     H(rot)  DE(clash)    DE(int)     intcor
     14.39     -19.32       1.96        0.00      94.06       1.45       0.33       4.61       ----

> <Gold.Chemscore.Fitness>
14.3880

> <Gold.Chemscore.DG>
-19.3235

> <Gold.Chemscore.ZeroCoef>
-5.4800

> <Gold.Chemscore.Hbond>
1.9607

> <Gold.Chemscore.Metal>
0.0000

> <Gold.Chemscore.Lipo>
94.0570

> <Gold.Chemscore.Internal_Hbond>
0.0000

> <Gold.Chemscore.DEClash>
0.3267

> <Gold.Chemscore.DEInternal>
4.6088

> <Gold.Chemscore.Rot>
1.4492

> <Gold.Chemscore.Internal.Correction>
   9.000000E+99

> <Gold.Chemscore.Hbonds>
donor molecule, donor type, donor heavy atom, donor atom, acceptor molecule, acceptor atom, score
      L1  H    20    45       P1  8028  0.93
      P1  H  6896  6909       L1     6  1.00

> <Gold.Chemscore.Hbond.Weighted>
-6.5488

> <Gold.Chemscore.Metal.Weighted>
-0.0000

> <Gold.Chemscore.Lipo.Weighted>
-11.0047

> <Gold.Chemscore.Internal_Hbond.Weighted>
0.0000

> <Gold.Chemscore.DEClash.Weighted>
0.3267

> <Gold.Chemscore.DEInternal.Weighted>
4.6088

> <Gold.Chemscore.Rot.Weighted>
3.7100

> <Gold.Chemscore.Internal.Correction.Weighted>
   9.000000E+99

> <Gold.Protein.RotatedTorsions>
[ 6907 6896 6895 6894 ] final   19.85 input  -60.11 | X-H torsion
[ 7974 7965 7964 7962 ] final  150.75 input  175.53 | X-H torsion
[ 8008 7997 7996 7995 ] final -107.76 input   59.86 | X-H torsion
[ 10167 10162 10161 10158 ] final   23.71 input  -65.29 | X-H torsion
[ 10718 10713 10712 10709 ] final   33.12 input   66.30 | X-H torsion
[ 10763 10752 10751 10750 ] final -135.47 input  -60.55 | X-H torsion
[ 11005 11000 10999 10996 ] final  -11.67 input  -57.11 | X-H torsion

> <Gold.Protein.ActiveResidues>
 VAL166  LYS551  ARG553  GLY616  TRP617  ASP618  TYR619  PRO620  LYS621  CYS622 
 ASP623  PHE694  ASN695  SER759  ASP760  ASP761  ALA762  ILE779  LEU786  VAL792 
 PHE793  MET794  SER795  GLU796  ALA797  LYS798  CYS799  TRP800  GLU811  SER814 

> <Gold.Protein.RotatedAtoms>
  151.8873  135.0430  160.0494 H   0  0  0  0  0  0  0  0  0  0  0  0  # atno 6907 bound_to 6896
  152.2464  133.5174  159.5308 H   0  0  0  0  0  0  0  0  0  0  0  0  # atno 6908 bound_to 6896
  150.7070  134.0935  159.3983 H   0  0  0  0  0  0  0  0  0  0  0  0  # atno 6909 bound_to 6896
  144.8342  139.6448  143.6045 H   0  0  0  0  0  0  0  0  0  0  0  0  # atno 7974 bound_to 7965
  154.9342  140.0404  157.2063 H   0  0  0  0  0  0  0  0  0  0  0  0  # atno 8008 bound_to 7997
  154.8132  140.2871  155.5817 H   0  0  0  0  0  0  0  0  0  0  0  0  # atno 8009 bound_to 7997
  156.2973  140.2533  156.3024 H   0  0  0  0  0  0  0  0  0  0  0  0  # atno 8010 bound_to 7997
  140.5247  143.9944  150.6434 H   0  0  0  0  0  0  0  0  0  0  0  0  # atno 10167 bound_to 10162
  157.2938  130.7316  149.6626 H   0  0  0  0  0  0  0  0  0  0  0  0  # atno 10718 bound_to 10713
  154.8702  135.3702  154.4903 H   0  0  0  0  0  0  0  0  0  0  0  0  # atno 10763 bound_to 10752
  153.5551  135.7024  153.5578 H   0  0  0  0  0  0  0  0  0  0  0  0  # atno 10764 bound_to 10752
  153.3679  135.4029  155.1731 H   0  0  0  0  0  0  0  0  0  0  0  0  # atno 10765 bound_to 10752
  140.7577  133.8540  155.9098 H   0  0  0  0  0  0  0  0  0  0  0  0  # atno 11005 bound_to 11000
  146.2642  139.6481  142.9341 LP  0  0  0  0  0  0  0  0  0  0  0  0  # atno 17320 bound_to 7965
  145.4831  141.0438  143.2635 LP  0  0  0  0  0  0  0  0  0  0  0  0  # atno 17321 bound_to 7965
  140.3302  143.3082  152.0695 LP  0  0  0  0  0  0  0  0  0  0  0  0  # atno 17342 bound_to 10162
  139.4934  144.6514  151.6667 LP  0  0  0  0  0  0  0  0  0  0  0  0  # atno 17343 bound_to 10162
  155.9668  130.4300  150.4860 LP  0  0  0  0  0  0  0  0  0  0  0  0  # atno 17370 bound_to 10713
  157.2827  131.0610  151.2187 LP  0  0  0  0  0  0  0  0  0  0  0  0  # atno 17371 bound_to 10713
  140.9692  134.1554  157.4590 LP  0  0  0  0  0  0  0  0  0  0  0  0  # atno 17394 bound_to 11000
  139.8776  134.9972  156.5836 LP  0  0  0  0  0  0  0  0  0  0  0  0  # atno 17395 bound_to 11000

$$$$
