AV-unprocessed.smi:2872|AV-procd|sdf|11035|dock1
  -GOLD-   2272015503D 1   1.00000     0.00000
 Structure written by MMmdl.
 40 42  0  0  0  0  0  0  0  0  2 V2000
  153.8014  136.3905  159.8314 O   0  0  0  0  0  0  0  0  0  0  0  0
  154.1575  137.3064  160.5710 C   0  0  0  0  0  0  0  0  0  0  0  0
  153.8823  138.6008  160.3559 N   0  0  0  0  0  0  0  0  0  0  0  0
  153.0787  139.1114  159.2490 C   0  0  0  0  0  0  0  0  0  0  0  0
  152.8028  140.5846  159.3108 C   0  0  0  0  0  0  0  0  0  0  0  0
  152.9981  141.4153  160.3764 N   0  3  0  0  0  0  0  0  0  0  0  0
  152.6164  142.7151  160.0431 C   0  0  0  0  0  0  0  0  0  0  0  0
  152.6287  143.8896  160.7891 C   0  0  0  0  0  0  0  0  0  0  0  0
  152.1629  145.0542  160.1434 C   0  0  0  0  0  0  0  0  0  0  0  0
  151.7083  145.0218  158.8088 C   0  0  0  0  0  0  0  0  0  0  0  0
  151.7029  143.8251  158.0621 C   0  0  0  0  0  0  0  0  0  0  0  0
  152.1667  142.6795  158.7079 C   0  0  0  0  0  0  0  0  0  0  0  0
  152.3065  141.3498  158.2966 N   0  0  0  0  0  0  0  0  0  0  0  0
  151.9245  140.9790  156.9283 C   0  0  0  0  0  0  0  0  0  0  0  0
  150.4069  140.8185  156.7800 C   0  0  0  0  0  0  0  0  0  0  0  0
  150.1544  139.9218  155.7083 O   0  0  0  0  0  0  0  0  0  0  0  0
  149.0488  140.1467  154.9166 C   0  0  0  0  0  0  0  0  0  0  0  0
  148.5158  139.0345  154.2324 C   0  0  0  0  0  0  0  0  0  0  0  0
  147.3869  139.1717  153.4019 C   0  0  0  0  0  0  0  0  0  0  0  0
  146.7770  140.4302  153.2468 C   0  0  0  0  0  0  0  0  0  0  0  0
  147.2984  141.5490  153.9226 C   0  0  0  0  0  0  0  0  0  0  0  0
  148.4277  141.4113  154.7537 C   0  0  0  0  0  0  0  0  0  0  0  0
  154.7452  137.1764  161.4928 H   0  0  0  0  0  0  0  0  0  0  0  0
  154.2250  139.2772  161.0230 H   0  0  0  0  0  0  0  0  0  0  0  0
  153.5567  138.8784  158.2961 H   0  0  0  0  0  0  0  0  0  0  0  0
  152.1269  138.5797  159.2547 H   0  0  0  0  0  0  0  0  0  0  0  0
  152.9758  143.9163  161.8116 H   0  0  0  0  0  0  0  0  0  0  0  0
  152.1532  145.9904  160.6827 H   0  0  0  0  0  0  0  0  0  0  0  0
  151.3566  145.9333  158.3476 H   0  0  0  0  0  0  0  0  0  0  0  0
  151.3518  143.8100  157.0408 H   0  0  0  0  0  0  0  0  0  0  0  0
  152.3110  141.7292  156.2376 H   0  0  0  0  0  0  0  0  0  0  0  0
  152.4276  140.0434  156.6821 H   0  0  0  0  0  0  0  0  0  0  0  0
  149.9851  140.4270  157.7072 H   0  0  0  0  0  0  0  0  0  0  0  0
  149.9480  141.7873  156.5771 H   0  0  0  0  0  0  0  0  0  0  0  0
  148.9781  138.0649  154.3457 H   0  0  0  0  0  0  0  0  0  0  0  0
  146.9894  138.3112  152.8844 H   0  0  0  0  0  0  0  0  0  0  0  0
  145.9111  140.5374  152.6103 H   0  0  0  0  0  0  0  0  0  0  0  0
  146.8312  142.5155  153.8039 H   0  0  0  0  0  0  0  0  0  0  0  0
  148.7977  142.2925  155.2551 H   0  0  0  0  0  0  0  0  0  0  0  0
  153.3712  141.1093  161.2660 H   0  0  0  0  0  0  0  0  0  0  0  0
  1  2  2  0  0  0  0
  2  3  1  0  0  0  0
  2 23  1  0  0  0  0
  3  4  1  0  0  0  0
  3 24  1  0  0  0  0
  4  5  1  0  0  0  0
  4 25  1  0  0  0  0
  4 26  1  0  0  0  0
  5 13  1  0  0  0  0
  5  6  2  0  0  0  0
  6  7  1  0  0  0  0
  6 40  1  0  0  0  0
  7 12  2  0  0  0  0
  7  8  1  0  0  0  0
  8  9  2  0  0  0  0
  8 27  1  0  0  0  0
  9 10  1  0  0  0  0
  9 28  1  0  0  0  0
 10 11  2  0  0  0  0
 10 29  1  0  0  0  0
 11 12  1  0  0  0  0
 11 30  1  0  0  0  0
 12 13  1  0  0  0  0
 13 14  1  0  0  0  0
 14 15  1  0  0  0  0
 14 31  1  0  0  0  0
 14 32  1  0  0  0  0
 15 16  1  0  0  0  0
 15 33  1  0  0  0  0
 15 34  1  0  0  0  0
 16 17  1  0  0  0  0
 17 22  1  0  0  0  0
 17 18  2  0  0  0  0
 18 19  1  0  0  0  0
 18 35  1  0  0  0  0
 19 20  2  0  0  0  0
 19 36  1  0  0  0  0
 20 21  1  0  0  0  0
 20 37  1  0  0  0  0
 21 22  2  0  0  0  0
 21 38  1  0  0  0  0
 22 39  1  0  0  0  0
M  CHG  1   6   1
M  END
> <s_m_source_file>
AV-unprocessed.smi

> <i_m_source_file_index>
2872

> <i_lp_mmshare_version>
43012

> <i_f3d_flags>
0

> <s_epik_input>
Tz1bQ0hdW05IXVtDSDJdYyhuMSluKGMoYzEyKVtjSF1bY0hdW2NIXVtjSF0yKVtDSDJdW0NIMl1PYzNbY0hdW2NIXVtjSF1bY0hdW2NIXTM=

> <s_epik_cmdline>
J2VwaWtfcHl0aG9uJywgJy1waCcsICc3LjAnLCAnLXRuJywgJzgnLCAnLW1hJywgJzIwMCcsICctbWV0YWxfYmluZGluZycsICctaW1hZScsICc8aW5maWxlLm1hZT4nLCAnLW9tYWUnLCAnPG91dGZpbGUubWFlPic=

> <r_lp_tautomer_probability>
1

> <r_epik_Ionization_Penalty>
1.33318

> <r_epik_Ionization_Penalty_Charging>
1.33318

> <r_epik_Ionization_Penalty_Neutral>
7.38905e-08

> <r_epik_State_Penalty>
1.40978

> <r_epik_Charging_Adjusted_Penalty>
2.74296

> <i_epik_Tot_Q>
1

> <i_epik_Tot_abs_Q>
1

> <r_epik_Metal_State_Penalty>
1.46995

> <b_epik_Metal_Only>
0

> <s_lp_Force_Field>
OPLS_2005

> <r_lp_Energy>
15.6009

> <b_lp_Chiralities_Consistent>
1

> <s_lp_Variant>
AV-unprocessed.smi:2872-2

> <Gold.Version>
5.8.1

> <Gold.Id.Protein>
6NUR|6NUR_protein|mol2

> <Gold.PLP.Fitness>
47.7850

> <Gold.PLP.PLP>
-46.9648

> <Gold.PLP.part.hbond>
-1.0000

> <Gold.PLP.part.metal>
0.0000

> <Gold.PLP.part.buried>
-5.4501

> <Gold.PLP.part.nonpolar>
-39.8521

> <Gold.PLP.part.repulsive>
0.1726

> <Gold.PLP.ligand.clash>
0.0000

> <Gold.PLP.ligand.torsion>
1.1610

> <Gold.PLP.Chemscore.Hbond>
1.0000

> <Gold.PLP.Chemscore.CHOScore>
0.0000

> <Gold.PLP.Chemscore.Metal>
0.0000

> <Gold.Chemscore.Hbonds>
donor molecule, donor type, donor heavy atom, donor atom, acceptor molecule, acceptor atom, score
      P1  H  6896  6908       L1     1  0.59

> <Gold.PLP.Chemscore.Internal.Correction>
0.1422

> <Gold.Rescore>
     Score         DG    S(hbond)    S(metal)    S(lipo)     H(rot)  DE(clash)    DE(int)     intcor
     16.36     -17.69       0.98        0.00     130.65       2.49       0.39       0.94       ----

> <Gold.Chemscore.Fitness>
16.3603

> <Gold.Chemscore.DG>
-17.6928

> <Gold.Chemscore.ZeroCoef>
-5.4800

> <Gold.Chemscore.Hbond>
0.9848

> <Gold.Chemscore.Metal>
0.0000

> <Gold.Chemscore.Lipo>
130.6523

> <Gold.Chemscore.Internal_Hbond>
0.0000

> <Gold.Chemscore.DEClash>
0.3883

> <Gold.Chemscore.DEInternal>
0.9442

> <Gold.Chemscore.Rot>
2.4854

> <Gold.Chemscore.Internal.Correction>
   9.000000E+99

> <Gold.Chemscore.Hbonds>
donor molecule, donor type, donor heavy atom, donor atom, acceptor molecule, acceptor atom, score
      P1  H  6896  6908       L1     1  0.58

> <Gold.Chemscore.Hbond.Weighted>
-3.2891

> <Gold.Chemscore.Metal.Weighted>
-0.0000

> <Gold.Chemscore.Lipo.Weighted>
-15.2863

> <Gold.Chemscore.Internal_Hbond.Weighted>
0.0000

> <Gold.Chemscore.DEClash.Weighted>
0.3883

> <Gold.Chemscore.DEInternal.Weighted>
0.9442

> <Gold.Chemscore.Rot.Weighted>
6.3627

> <Gold.Chemscore.Internal.Correction.Weighted>
   9.000000E+99

> <Gold.Protein.RotatedTorsions>
[ 6907 6896 6895 6894 ] final  -58.68 input  -60.11 | X-H torsion
[ 7974 7965 7964 7962 ] final  -82.12 input  175.53 | X-H torsion
[ 8008 7997 7996 7995 ] final  -85.52 input   59.86 | X-H torsion
[ 10167 10162 10161 10158 ] final -148.31 input  -65.29 | X-H torsion
[ 10718 10713 10712 10709 ] final  -72.58 input   66.30 | X-H torsion
[ 10763 10752 10751 10750 ] final  170.88 input  -60.55 | X-H torsion
[ 11005 11000 10999 10996 ] final -179.56 input  -57.11 | X-H torsion

> <Gold.Protein.ActiveResidues>
 VAL166  LYS551  ARG553  GLY616  TRP617  ASP618  TYR619  PRO620  LYS621  CYS622 
 ASP623  PHE694  ASN695  SER759  ASP760  ASP761  ALA762  ILE779  LEU786  VAL792 
 PHE793  MET794  SER795  GLU796  ALA797  LYS798  CYS799  TRP800  GLU811  SER814 

> <Gold.Protein.RotatedAtoms>
  150.7988  134.7068  159.6580 H   0  0  0  0  0  0  0  0  0  0  0  0  # atno 6907 bound_to 6896
  152.4103  134.6132  160.0041 H   0  0  0  0  0  0  0  0  0  0  0  0  # atno 6908 bound_to 6896
  151.6377  133.3291  159.3159 H   0  0  0  0  0  0  0  0  0  0  0  0  # atno 6909 bound_to 6896
  145.5376  140.9514  143.1569 H   0  0  0  0  0  0  0  0  0  0  0  0  # atno 7974 bound_to 7965
  154.6416  140.0590  156.9853 H   0  0  0  0  0  0  0  0  0  0  0  0  # atno 8008 bound_to 7997
  155.1507  140.3274  155.4413 H   0  0  0  0  0  0  0  0  0  0  0  0  # atno 8009 bound_to 7997
  156.2534  140.1948  156.6619 H   0  0  0  0  0  0  0  0  0  0  0  0  # atno 8010 bound_to 7997
  139.7543  143.8471  152.2593 H   0  0  0  0  0  0  0  0  0  0  0  0  # atno 10167 bound_to 10162
  156.0314  130.4375  150.2614 H   0  0  0  0  0  0  0  0  0  0  0  0  # atno 10718 bound_to 10713
  154.4039  135.2755  155.2079 H   0  0  0  0  0  0  0  0  0  0  0  0  # atno 10763 bound_to 10752
  154.4093  135.6026  153.5947 H   0  0  0  0  0  0  0  0  0  0  0  0  # atno 10764 bound_to 10752
  152.9831  135.5945  154.4311 H   0  0  0  0  0  0  0  0  0  0  0  0  # atno 10765 bound_to 10752
  140.4173  134.6637  157.4646 H   0  0  0  0  0  0  0  0  0  0  0  0  # atno 11005 bound_to 11000
  144.7593  139.6995  143.7241 LP  0  0  0  0  0  0  0  0  0  0  0  0  # atno 17320 bound_to 7965
  146.2002  139.5293  142.9748 LP  0  0  0  0  0  0  0  0  0  0  0  0  # atno 17321 bound_to 7965
  139.8459  144.7188  150.9274 LP  0  0  0  0  0  0  0  0  0  0  0  0  # atno 17342 bound_to 10162
  140.7801  143.3942  151.1258 LP  0  0  0  0  0  0  0  0  0  0  0  0  # atno 17343 bound_to 10162
  157.0716  131.0118  151.3188 LP  0  0  0  0  0  0  0  0  0  0  0  0  # atno 17370 bound_to 10713
  157.4995  130.7871  149.7590 LP  0  0  0  0  0  0  0  0  0  0  0  0  # atno 17371 bound_to 10713
  140.0225  134.6526  155.9220 LP  0  0  0  0  0  0  0  0  0  0  0  0  # atno 17394 bound_to 11000
  141.1798  133.6545  156.4972 LP  0  0  0  0  0  0  0  0  0  0  0  0  # atno 17395 bound_to 11000

$$$$
