AV-unprocessed.smi:72|AV-procd|sdf|697|dock8
  -GOLD-   2262017 13D 1   1.00000     0.00000
 Structure written by MMmdl.
 30 31  0  0  0  0  0  0  0  0  2 V2000
  152.3307  138.6445  161.3027 N   0  0  0  0  0  0  0  0  0  0  0  0
  152.1797  138.5800  159.9332 C   0  0  0  0  0  0  0  0  0  0  0  0
  151.8441  139.7451  159.2680 N   0  3  0  0  0  0  0  0  0  0  0  0
  151.6500  139.8514  157.9464 C   0  0  0  0  0  0  0  0  0  0  0  0
  151.7614  138.7734  157.1933 N   0  0  0  0  0  0  0  0  0  0  0  0
  151.5659  138.8179  155.6951 C   0  0  2  0  0  0  0  0  0  0  0  0
  151.0957  140.0862  155.3580 O   0  0  0  0  0  0  0  0  0  0  0  0
  149.6732  140.0615  155.3066 C   0  0  1  0  0  0  0  0  0  0  0  0
  149.1164  141.3082  154.5982 C   0  0  0  0  0  0  0  0  0  0  0  0
  149.5983  141.3560  153.2720 O   0  0  0  0  0  0  0  0  0  0  0  0
  149.4168  138.7223  154.6088 C   0  0  1  0  0  0  0  0  0  0  0  0
  149.5812  138.8567  153.2066 O   0  0  0  0  0  0  0  0  0  0  0  0
  150.4751  137.8190  155.2445 C   0  0  1  0  0  0  0  0  0  0  0  0
  150.9533  136.8271  154.3551 O   0  0  0  0  0  0  0  0  0  0  0  0
  152.1473  137.5412  157.7824 C   0  0  0  0  0  0  0  0  0  0  0  0
  152.3085  136.5416  157.0831 O   0  0  0  0  0  0  0  0  0  0  0  0
  152.3242  137.5301  159.1733 N   0  0  0  0  0  0  0  0  0  0  0  0
  152.5554  138.6494  155.2665 H   0  0  0  0  0  0  0  0  0  0  0  0
  149.2709  139.9986  156.3198 H   0  0  0  0  0  0  0  0  0  0  0  0
  148.4082  138.3535  154.7985 H   0  0  0  0  0  0  0  0  0  0  0  0
  150.0437  137.3285  156.1184 H   0  0  0  0  0  0  0  0  0  0  0  0
  152.5790  137.8461  161.8696 H   0  0  0  0  0  0  0  0  0  0  0  0
  152.2051  139.4865  161.8463 H   0  0  0  0  0  0  0  0  0  0  0  0
  151.4147  140.8239  157.5345 H   0  0  0  0  0  0  0  0  0  0  0  0
  148.0261  141.3197  154.6052 H   0  0  0  0  0  0  0  0  0  0  0  0
  149.4566  142.2120  155.1045 H   0  0  0  0  0  0  0  0  0  0  0  0
  149.6113  140.4762  152.9263 H   0  0  0  0  0  0  0  0  0  0  0  0
  149.5402  137.9952  152.8191 H   0  0  0  0  0  0  0  0  0  0  0  0
  150.2843  136.6512  153.7105 H   0  0  0  0  0  0  0  0  0  0  0  0
  151.7422  140.5816  159.8250 H   0  0  0  0  0  0  0  0  0  0  0  0
  1  2  1  0  0  0  0
  1 22  1  0  0  0  0
  1 23  1  0  0  0  0
  2 17  2  0  0  0  0
  2  3  1  0  0  0  0
  3  4  2  0  0  0  0
  3 30  1  0  0  0  0
  4  5  1  0  0  0  0
  4 24  1  0  0  0  0
  5  6  1  0  0  0  0
  5 15  1  0  0  0  0
  6 18  1  0  0  0  0
  6 13  1  0  0  0  0
  6  7  1  0  0  0  0
  7  8  1  0  0  0  0
  8 19  1  0  0  0  0
  8  9  1  0  0  0  0
  8 11  1  0  0  0  0
  9 10  1  0  0  0  0
  9 25  1  0  0  0  0
  9 26  1  0  0  0  0
 10 27  1  0  0  0  0
 11 20  1  0  0  0  0
 11 12  1  0  0  0  0
 11 13  1  0  0  0  0
 12 28  1  0  0  0  0
 13 21  1  0  0  0  0
 13 14  1  0  0  0  0
 14 29  1  0  0  0  0
 15 16  2  0  0  0  0
 15 17  1  0  0  0  0
M  CHG  1   3   1
M  END
> <s_m_source_file>
AV-unprocessed.smi

> <i_m_source_file_index>
72

> <i_lp_mmshare_version>
43012

> <i_f3d_flags>
0

> <s_epik_input>
W05IMl1jMW5bY0hdbihjKD1PKW4xKVtDQEBIXTJPW0NASF0oW0NIMl1bT0hdKVtDQEBIXShbT0hdKVtDQEhdMltPSF0=

> <s_epik_cmdline>
J2VwaWtfcHl0aG9uJywgJy1waCcsICc3LjAnLCAnLXRuJywgJzgnLCAnLW1hJywgJzIwMCcsICctbWV0YWxfYmluZGluZycsICctaW1hZScsICc8aW5maWxlLm1hZT4nLCAnLW9tYWUnLCAnPG91dGZpbGUubWFlPic=

> <r_lp_tautomer_probability>
4.77166e-05

> <r_epik_Ionization_Penalty>
0.104979

> <r_epik_Ionization_Penalty_Charging>
0.0999619

> <r_epik_Ionization_Penalty_Neutral>
0.00501745

> <r_epik_State_Penalty>
2.51541

> <r_epik_Charging_Adjusted_Penalty>
2.61537

> <i_epik_Tot_Q>
1

> <i_epik_Tot_abs_Q>
1

> <r_epik_Metal_State_Penalty>
3.53763

> <b_epik_Metal_Only>
0

> <s_epik_Chemistry_Notes>
This compound contains an acetal/aminal-like group ( X-CH(R)-Y where X, Y are N, S, or O) that may be acid/base labile, releasing an aldehyde.

> <s_lp_Force_Field>
OPLS_2005

> <r_lp_Energy>
33.8759

> <b_lp_Chiralities_Consistent>
1

> <s_lp_Variant>
AV-unprocessed.smi:72-35

> <Gold.Version>
5.8.1

> <Gold.Id.Protein>
6NUR|6NUR_protein|mol2

> <Gold.PLP.Fitness>
40.9604

> <Gold.PLP.PLP>
-26.0025

> <Gold.PLP.part.hbond>
-8.3427

> <Gold.PLP.part.metal>
0.0000

> <Gold.PLP.part.buried>
-3.3999

> <Gold.PLP.part.nonpolar>
-14.0640

> <Gold.PLP.part.repulsive>
0.1841

> <Gold.PLP.ligand.clash>
0.0000

> <Gold.PLP.ligand.torsion>
0.0555

> <Gold.PLP.Chemscore.Hbond>
5.0121

> <Gold.PLP.Chemscore.CHOScore>
0.0000

> <Gold.PLP.Chemscore.Metal>
0.0000

> <Gold.Chemscore.Hbonds>
donor molecule, donor type, donor heavy atom, donor atom, acceptor molecule, acceptor atom, score
      L1  H    10    27       P1  7957  0.50
      L1  H    12    28       P1  7948  0.96
      L1  H    14    29       P1  7948  0.28
      P1  H  7989  7998       L1     7  0.86
      P1  H  8011  8017       L1    10  0.75

> <Gold.PLP.Chemscore.Internal.Correction>
0.0326

> <Gold.Rescore>
     Score         DG    S(hbond)    S(metal)    S(lipo)     H(rot)  DE(clash)    DE(int)     intcor
     13.15     -13.30       4.58        0.00      25.34       4.08       0.00       0.15       ----

> <Gold.Chemscore.Fitness>
13.1507

> <Gold.Chemscore.DG>
-13.2982

> <Gold.Chemscore.ZeroCoef>
-5.4800

> <Gold.Chemscore.Hbond>
4.5791

> <Gold.Chemscore.Metal>
0.0000

> <Gold.Chemscore.Lipo>
25.3353

> <Gold.Chemscore.Internal_Hbond>
0.0000

> <Gold.Chemscore.DEClash>
0.0000

> <Gold.Chemscore.DEInternal>
0.1475

> <Gold.Chemscore.Rot>
4.0783

> <Gold.Chemscore.Internal.Correction>
   9.000000E+99

> <Gold.Chemscore.Hbonds>
donor molecule, donor type, donor heavy atom, donor atom, acceptor molecule, acceptor atom, score
      L1  H    10    27       P1  7957  0.50
      L1  H    12    28       P1  7948  0.72
      L1  H    14    29       P1  7948  0.03
      P1  H  7989  7998       L1     7  0.36
      P1  H  8011  8017       L1    10  0.65
      P1  H 10752 10764       L1    14  0.02

> <Gold.Chemscore.Hbond.Weighted>
-15.2944

> <Gold.Chemscore.Metal.Weighted>
-0.0000

> <Gold.Chemscore.Lipo.Weighted>
-2.9642

> <Gold.Chemscore.Internal_Hbond.Weighted>
0.0000

> <Gold.Chemscore.DEClash.Weighted>
0.0000

> <Gold.Chemscore.DEInternal.Weighted>
0.1475

> <Gold.Chemscore.Rot.Weighted>
10.4404

> <Gold.Chemscore.Internal.Correction.Weighted>
   9.000000E+99

> <Gold.Protein.RotatedTorsions>
[ 6907 6896 6895 6894 ] final  163.07 input  -60.11 | X-H torsion
[ 7974 7965 7964 7962 ] final  -87.19 input  175.53 | X-H torsion
[ 8008 7997 7996 7995 ] final -104.84 input   59.86 | X-H torsion
[ 10167 10162 10161 10158 ] final  -92.29 input  -65.29 | X-H torsion
[ 10718 10713 10712 10709 ] final -152.27 input   66.30 | X-H torsion
[ 10763 10752 10751 10750 ] final  -43.53 input  -60.55 | X-H torsion
[ 11005 11000 10999 10996 ] final  -40.90 input  -57.11 | X-H torsion

> <Gold.Protein.ActiveResidues>
 VAL166  LYS551  ARG553  GLY616  TRP617  ASP618  TYR619  PRO620  LYS621  CYS622 
 ASP623  PHE694  ASN695  SER759  ASP760  ASP761  ALA762  ILE779  LEU786  VAL792 
 PHE793  MET794  SER795  GLU796  ALA797  LYS798  CYS799  TRP800  GLU811  SER814 

> <Gold.Protein.RotatedAtoms>
  151.9308  133.3610  159.3929 H   0  0  0  0  0  0  0  0  0  0  0  0  # atno 6907 bound_to 6896
  150.7017  134.4539  159.5358 H   0  0  0  0  0  0  0  0  0  0  0  0  # atno 6908 bound_to 6896
  152.2179  134.8440  160.0540 H   0  0  0  0  0  0  0  0  0  0  0  0  # atno 6909 bound_to 6896
  145.4699  140.9560  143.1923 H   0  0  0  0  0  0  0  0  0  0  0  0  # atno 7974 bound_to 7965
  154.8912  140.0416  157.1839 H   0  0  0  0  0  0  0  0  0  0  0  0  # atno 8008 bound_to 7997
  154.8539  140.2933  155.5560 H   0  0  0  0  0  0  0  0  0  0  0  0  # atno 8009 bound_to 7997
  156.2997  140.2459  156.3502 H   0  0  0  0  0  0  0  0  0  0  0  0  # atno 8010 bound_to 7997
  140.3363  143.2966  151.9885 H   0  0  0  0  0  0  0  0  0  0  0  0  # atno 10167 bound_to 10162
  156.4703  130.8255  151.2485 H   0  0  0  0  0  0  0  0  0  0  0  0  # atno 10718 bound_to 10713
  153.9971  135.6698  153.4757 H   0  0  0  0  0  0  0  0  0  0  0  0  # atno 10763 bound_to 10752
  153.0679  135.4990  154.8237 H   0  0  0  0  0  0  0  0  0  0  0  0  # atno 10764 bound_to 10752
  154.7075  135.3091  154.9211 H   0  0  0  0  0  0  0  0  0  0  0  0  # atno 10765 bound_to 10752
  141.0208  133.6864  156.2384 H   0  0  0  0  0  0  0  0  0  0  0  0  # atno 11005 bound_to 11000
  144.7952  139.6249  143.7096 LP  0  0  0  0  0  0  0  0  0  0  0  0  # atno 17320 bound_to 7965
  146.2403  139.5987  142.9496 LP  0  0  0  0  0  0  0  0  0  0  0  0  # atno 17321 bound_to 7965
  139.4848  144.6193  151.7285 LP  0  0  0  0  0  0  0  0  0  0  0  0  # atno 17342 bound_to 10162
  140.5350  144.0670  150.6067 LP  0  0  0  0  0  0  0  0  0  0  0  0  # atno 17343 bound_to 10162
  157.7492  131.0078  150.3205 LP  0  0  0  0  0  0  0  0  0  0  0  0  # atno 17370 bound_to 10713
  156.3625  130.3849  149.7240 LP  0  0  0  0  0  0  0  0  0  0  0  0  # atno 17371 bound_to 10713
  140.6577  134.5001  157.5581 LP  0  0  0  0  0  0  0  0  0  0  0  0  # atno 17394 bound_to 11000
  139.9145  134.8276  156.1414 LP  0  0  0  0  0  0  0  0  0  0  0  0  # atno 17395 bound_to 11000

$$$$
