AV-unprocessed.smi:2095|AV-procd|sdf|8555|dock3
  -GOLD-   2272011273D 1   1.00000     0.00000
 Structure written by MMmdl.
 42 43  0  0  0  0  0  0  0  0  2 V2000
  145.4873  136.1018  150.9643 C   0  0  0  0  0  0  0  0  0  0  0  0
  145.0495  134.7868  151.6329 C   0  0  1  0  0  0  0  0  0  0  0  0
  145.1566  133.5741  150.6879 C   0  0  0  0  0  0  0  0  0  0  0  0
  146.6181  133.1465  150.4858 C   0  0  0  0  0  0  0  0  0  0  0  0
  147.3141  132.9140  151.8357 C   0  0  0  0  0  0  0  0  0  0  0  0
  147.2250  134.1316  152.6864 N   0  3  2  0  0  0  0  0  0  0  0  0
  148.0810  134.1258  153.9088 C   0  0  2  0  0  0  0  0  0  0  0  0
  147.9963  132.7599  154.6187 C   0  0  0  0  0  0  0  0  0  0  0  0
  147.8107  135.3293  154.8486 C   0  0  0  0  0  0  0  0  0  0  0  0
  148.2936  136.5828  154.2773 N   0  0  0  0  0  0  0  0  0  0  0  0
  148.9012  137.5665  154.9607 C   0  0  0  0  0  0  0  0  0  0  0  0
  149.0552  137.5519  156.1813 O   0  0  0  0  0  0  0  0  0  0  0  0
  149.4503  138.7300  154.1355 C   0  0  0  0  0  0  0  0  0  0  0  0
  150.8927  138.8139  154.2709 N   0  0  0  0  0  0  0  0  0  0  0  0
  151.8536  137.9343  153.9812 C   0  0  0  0  0  0  0  0  0  0  0  0
  153.0531  138.3998  154.2928 N   0  0  0  0  0  0  0  0  0  0  0  0
  152.7797  139.6573  154.8039 N   0  0  0  0  0  0  0  0  0  0  0  0
  151.4995  139.9087  154.7941 N   0  0  0  0  0  0  0  0  0  0  0  0
  145.8127  134.5199  152.9472 C   0  0  0  0  0  0  0  0  0  0  0  0
  146.5427  136.0903  150.6920 H   0  0  0  0  0  0  0  0  0  0  0  0
  145.3295  136.9502  151.6309 H   0  0  0  0  0  0  0  0  0  0  0  0
  144.9129  136.2892  150.0566 H   0  0  0  0  0  0  0  0  0  0  0  0
  143.9955  134.9083  151.8861 H   0  0  0  0  0  0  0  0  0  0  0  0
  144.5984  132.7389  151.1132 H   0  0  0  0  0  0  0  0  0  0  0  0
  144.6896  133.7938  149.7272 H   0  0  0  0  0  0  0  0  0  0  0  0
  146.6575  132.2366  149.8864 H   0  0  0  0  0  0  0  0  0  0  0  0
  147.1560  133.9076  149.9197 H   0  0  0  0  0  0  0  0  0  0  0  0
  146.8491  132.0673  152.3420 H   0  0  0  0  0  0  0  0  0  0  0  0
  148.3548  132.6461  151.6568 H   0  0  0  0  0  0  0  0  0  0  0  0
  149.1131  134.2081  153.5645 H   0  0  0  0  0  0  0  0  0  0  0  0
  148.7791  132.6529  155.3702 H   0  0  0  0  0  0  0  0  0  0  0  0
  148.1238  131.9406  153.9107 H   0  0  0  0  0  0  0  0  0  0  0  0
  147.0407  132.6210  155.1237 H   0  0  0  0  0  0  0  0  0  0  0  0
  146.7403  135.4440  155.0173 H   0  0  0  0  0  0  0  0  0  0  0  0
  148.2572  135.1681  155.8305 H   0  0  0  0  0  0  0  0  0  0  0  0
  148.2038  136.6900  153.2771 H   0  0  0  0  0  0  0  0  0  0  0  0
  149.1975  138.5972  153.0828 H   0  0  0  0  0  0  0  0  0  0  0  0
  149.0039  139.6708  154.4613 H   0  0  0  0  0  0  0  0  0  0  0  0
  151.6748  136.9573  153.5569 H   0  0  0  0  0  0  0  0  0  0  0  0
  145.7747  135.4100  153.5764 H   0  0  0  0  0  0  0  0  0  0  0  0
  145.3152  133.7240  153.5029 H   0  0  0  0  0  0  0  0  0  0  0  0
  147.5967  134.8817  152.1211 H   0  0  0  0  0  0  0  0  0  0  0  0
  1  2  1  0  0  0  0
  1 20  1  0  0  0  0
  1 21  1  0  0  0  0
  1 22  1  0  0  0  0
  2 19  1  0  0  0  0
  2  3  1  0  0  0  0
  2 23  1  0  0  0  0
  3  4  1  0  0  0  0
  3 24  1  0  0  0  0
  3 25  1  0  0  0  0
  4  5  1  0  0  0  0
  4 26  1  0  0  0  0
  4 27  1  0  0  0  0
  5  6  1  0  0  0  0
  5 28  1  0  0  0  0
  5 29  1  0  0  0  0
  6  7  1  0  0  0  0
  6 19  1  0  0  0  0
  6 42  1  0  0  0  0
  7  8  1  0  0  0  0
  7  9  1  0  0  0  0
  7 30  1  0  0  0  0
  8 31  1  0  0  0  0
  8 32  1  0  0  0  0
  8 33  1  0  0  0  0
  9 10  1  0  0  0  0
  9 34  1  0  0  0  0
  9 35  1  0  0  0  0
 10 11  1  0  0  0  0
 10 36  1  0  0  0  0
 11 12  2  0  0  0  0
 11 13  1  0  0  0  0
 13 14  1  0  0  0  0
 13 37  1  0  0  0  0
 13 38  1  0  0  0  0
 14 18  1  0  0  0  0
 14 15  1  0  0  0  0
 15 16  2  0  0  0  0
 15 39  1  0  0  0  0
 16 17  1  0  0  0  0
 17 18  2  0  0  0  0
 19 40  1  0  0  0  0
 19 41  1  0  0  0  0
M  CHG  1   6   1
M  END
> <s_m_source_file>
AV-unprocessed.smi

> <i_m_source_file_index>
2095

> <i_lp_mmshare_version>
43012

> <i_f3d_flags>
0

> <s_epik_input>
W0NIM11bQ0BASF0xW0NIMl1bQ0gyXVtDSDJdTihbQ0gyXTEpW0NASF0oW0NIM10pW0NIMl1bTkhdQyg9TylbQ0gyXW4yW2NIXW5ubjI=

> <s_epik_cmdline>
J2VwaWtfcHl0aG9uJywgJy1waCcsICc3LjAnLCAnLXRuJywgJzgnLCAnLW1hJywgJzIwMCcsICctbWV0YWxfYmluZGluZycsICctaW1hZScsICc8aW5maWxlLm1hZT4nLCAnLW9tYWUnLCAnPG91dGZpbGUubWFlPic=

> <r_lp_tautomer_probability>
1

> <r_epik_Ionization_Penalty>
0.00268321

> <r_epik_Ionization_Penalty_Charging>
0.00267875

> <r_epik_Ionization_Penalty_Neutral>
4.46125e-06

> <r_epik_State_Penalty>
0.00186642

> <r_epik_Charging_Adjusted_Penalty>
0.00454517

> <i_epik_Tot_Q>
1

> <i_epik_Tot_abs_Q>
1

> <r_epik_Metal_State_Penalty>
-0

> <b_epik_Metal_Only>
0

> <s_lp_Force_Field>
OPLS_2005

> <r_lp_Energy>
25.1095

> <b_lp_Chiralities_Consistent>
1

> <s_lp_Variant>
AV-unprocessed.smi:2095-2

> <Gold.Version>
5.8.1

> <Gold.Id.Protein>
6NUR|6NUR_protein|mol2

> <Gold.PLP.Fitness>
47.8089

> <Gold.PLP.PLP>
-31.0587

> <Gold.PLP.part.hbond>
-5.7522

> <Gold.PLP.part.metal>
0.0000

> <Gold.PLP.part.buried>
-3.9256

> <Gold.PLP.part.nonpolar>
-22.3343

> <Gold.PLP.part.repulsive>
0.1178

> <Gold.PLP.ligand.clash>
0.0000

> <Gold.PLP.ligand.torsion>
0.5744

> <Gold.PLP.Chemscore.Hbond>
4.9120

> <Gold.PLP.Chemscore.CHOScore>
1.0000

> <Gold.PLP.Chemscore.Metal>
0.0000

> <Gold.Chemscore.Hbonds>
donor molecule, donor type, donor heavy atom, donor atom, acceptor molecule, acceptor atom, score
      L1  H     6    42       P1  7948  1.95
      L1  H    10    36       P1  7948  0.80
      P1  H  7989  7998       L1    18  0.55
      P1  H  7997  8009       L1    17  0.89
      L1  C    15    39       P1  7949  1.00

> <Gold.PLP.Chemscore.Internal.Correction>
0.1630

> <Gold.Rescore>
     Score         DG    S(hbond)    S(metal)    S(lipo)     H(rot)  DE(clash)    DE(int)     intcor
     13.63     -14.24       2.86        0.00      51.18       2.64       0.14       0.46       ----

> <Gold.Chemscore.Fitness>
13.6349

> <Gold.Chemscore.DG>
-14.2376

> <Gold.Chemscore.ZeroCoef>
-5.4800

> <Gold.Chemscore.Hbond>
2.8559

> <Gold.Chemscore.Metal>
0.0000

> <Gold.Chemscore.Lipo>
51.1755

> <Gold.Chemscore.Internal_Hbond>
0.0000

> <Gold.Chemscore.DEClash>
0.1389

> <Gold.Chemscore.DEInternal>
0.4639

> <Gold.Chemscore.Rot>
2.6439

> <Gold.Chemscore.Internal.Correction>
   9.000000E+99

> <Gold.Chemscore.Hbonds>
donor molecule, donor type, donor heavy atom, donor atom, acceptor molecule, acceptor atom, score
      L1  H     6    42       P1  7948  0.80
      L1  H    10    36       P1  7948  0.79
      P1  H  7989  7998       L1    18  0.01
      P1  H  7997  8009       L1    17  0.52

> <Gold.Chemscore.Hbond.Weighted>
-9.5385

> <Gold.Chemscore.Metal.Weighted>
-0.0000

> <Gold.Chemscore.Lipo.Weighted>
-5.9875

> <Gold.Chemscore.Internal_Hbond.Weighted>
0.0000

> <Gold.Chemscore.DEClash.Weighted>
0.1389

> <Gold.Chemscore.DEInternal.Weighted>
0.4639

> <Gold.Chemscore.Rot.Weighted>
6.7685

> <Gold.Chemscore.Internal.Correction.Weighted>
   9.000000E+99

> <Gold.Protein.RotatedTorsions>
[ 6907 6896 6895 6894 ] final  -55.40 input  -60.11 | X-H torsion
[ 7974 7965 7964 7962 ] final  101.37 input  175.53 | X-H torsion
[ 8008 7997 7996 7995 ] final -142.72 input   59.86 | X-H torsion
[ 10167 10162 10161 10158 ] final   49.75 input  -65.29 | X-H torsion
[ 10718 10713 10712 10709 ] final   -9.35 input   66.30 | X-H torsion
[ 10763 10752 10751 10750 ] final   27.10 input  -60.55 | X-H torsion
[ 11005 11000 10999 10996 ] final  176.78 input  -57.11 | X-H torsion

> <Gold.Protein.ActiveResidues>
 VAL166  LYS551  ARG553  GLY616  TRP617  ASP618  TYR619  PRO620  LYS621  CYS622 
 ASP623  PHE694  ASN695  SER759  ASP760  ASP761  ALA762  ILE779  LEU786  VAL792 
 PHE793  MET794  SER795  GLU796  ALA797  LYS798  CYS799  TRP800  GLU811  SER814 

> <Gold.Protein.RotatedAtoms>
  150.8255  134.7483  159.6808 H   0  0  0  0  0  0  0  0  0  0  0  0  # atno 6907 bound_to 6896
  152.4366  134.5671  159.9920 H   0  0  0  0  0  0  0  0  0  0  0  0  # atno 6908 bound_to 6896
  151.5844  133.3336  159.3051 H   0  0  0  0  0  0  0  0  0  0  0  0  # atno 6909 bound_to 6896
  145.3732  139.2394  143.3444 H   0  0  0  0  0  0  0  0  0  0  0  0  # atno 7974 bound_to 7965
  155.4989  140.0574  157.2942 H   0  0  0  0  0  0  0  0  0  0  0  0  # atno 8008 bound_to 7997
  154.4595  140.1989  156.0235 H   0  0  0  0  0  0  0  0  0  0  0  0  # atno 8009 bound_to 7997
  156.0862  140.3240  155.7761 H   0  0  0  0  0  0  0  0  0  0  0  0  # atno 8010 bound_to 7997
  140.2796  144.3172  150.6268 H   0  0  0  0  0  0  0  0  0  0  0  0  # atno 10167 bound_to 10162
  156.6893  130.5060  149.5948 H   0  0  0  0  0  0  0  0  0  0  0  0  # atno 10718 bound_to 10713
  153.0578  135.6545  154.0536 H   0  0  0  0  0  0  0  0  0  0  0  0  # atno 10763 bound_to 10752
  154.0210  135.2920  155.3382 H   0  0  0  0  0  0  0  0  0  0  0  0  # atno 10764 bound_to 10752
  154.6901  135.5286  153.8449 H   0  0  0  0  0  0  0  0  0  0  0  0  # atno 10765 bound_to 10752
  140.3769  134.6981  157.4427 H   0  0  0  0  0  0  0  0  0  0  0  0  # atno 11005 bound_to 11000
  146.2876  140.4387  142.8752 LP  0  0  0  0  0  0  0  0  0  0  0  0  # atno 17320 bound_to 7965
  144.8561  140.7072  143.6137 LP  0  0  0  0  0  0  0  0  0  0  0  0  # atno 17321 bound_to 7965
  140.5823  143.2172  151.7406 LP  0  0  0  0  0  0  0  0  0  0  0  0  # atno 17342 bound_to 10162
  139.4966  144.4062  152.0129 LP  0  0  0  0  0  0  0  0  0  0  0  0  # atno 17343 bound_to 10162
  156.1809  130.6498  151.0950 LP  0  0  0  0  0  0  0  0  0  0  0  0  # atno 17370 bound_to 10713
  157.7015  131.0774  150.6806 LP  0  0  0  0  0  0  0  0  0  0  0  0  # atno 17371 bound_to 10713
  140.0509  134.6132  155.8863 LP  0  0  0  0  0  0  0  0  0  0  0  0  # atno 17394 bound_to 11000
  141.1936  133.6580  156.5557 LP  0  0  0  0  0  0  0  0  0  0  0  0  # atno 17395 bound_to 11000

$$$$
