AV-unprocessed.smi:1506|AV-procd|sdf|6076|dock6
  -GOLD-   22720 6193D 1   1.00000     0.00000
 Structure written by MMmdl.
 39 41  0  0  0  0  0  0  0  0  1 V2000
  153.1161  142.2132  161.0295 C   0  0  0  0  0  0  0  0  0  0  0  0
  152.6391  142.7179  159.6831 C   0  0  0  0  0  0  0  0  0  0  0  0
  153.0158  143.9971  159.2280 C   0  0  0  0  0  0  0  0  0  0  0  0
  152.5675  144.4567  157.9759 C   0  0  0  0  0  0  0  0  0  0  0  0
  151.7414  143.6434  157.1764 C   0  0  0  0  0  0  0  0  0  0  0  0
  151.3517  142.3562  157.6255 C   0  0  0  0  0  0  0  0  0  0  0  0
  150.5429  141.4978  156.9125 O   0  0  0  0  0  0  0  0  0  0  0  0
  150.1383  141.8804  155.6034 C   0  0  0  0  0  0  0  0  0  0  0  0
  149.4991  140.6840  154.8787 C   0  0  2  0  0  0  0  0  0  0  0  0
  149.7871  140.7713  153.4968 O   0  0  0  0  0  0  0  0  0  0  0  0
  147.9859  140.5358  155.1335 C   0  0  0  0  0  0  0  0  0  0  0  0
  147.2591  141.7638  154.8650 N   0  0  0  0  0  0  0  0  0  0  0  0
  147.1445  142.3962  153.6813 C   0  0  0  0  0  0  0  0  0  0  0  0
  146.4319  143.5190  153.6567 N   0  0  0  0  0  0  0  0  0  0  0  0
  146.0362  143.6281  154.9791 C   0  0  0  0  0  0  0  0  0  0  0  0
  145.2513  144.6108  155.6239 C   0  0  0  0  0  0  0  0  0  0  0  0
  144.9766  144.5134  157.0041 C   0  0  0  0  0  0  0  0  0  0  0  0
  145.4813  143.4350  157.7594 C   0  0  0  0  0  0  0  0  0  0  0  0
  146.2659  142.4438  157.1391 C   0  0  0  0  0  0  0  0  0  0  0  0
  146.5370  142.5442  155.7617 C   0  0  0  0  0  0  0  0  0  0  0  0
  151.8099  141.9072  158.8813 C   0  0  0  0  0  0  0  0  0  0  0  0
  153.9493  142.8095  161.4029 H   0  0  0  0  0  0  0  0  0  0  0  0
  153.4490  141.1777  160.9532 H   0  0  0  0  0  0  0  0  0  0  0  0
  152.3063  142.2614  161.7579 H   0  0  0  0  0  0  0  0  0  0  0  0
  153.6478  144.6288  159.8349 H   0  0  0  0  0  0  0  0  0  0  0  0
  152.8574  145.4369  157.6270 H   0  0  0  0  0  0  0  0  0  0  0  0
  151.4194  144.0311  156.2222 H   0  0  0  0  0  0  0  0  0  0  0  0
  149.4375  142.7166  155.6343 H   0  0  0  0  0  0  0  0  0  0  0  0
  151.0174  142.2044  155.0441 H   0  0  0  0  0  0  0  0  0  0  0  0
  149.9973  139.7802  155.2319 H   0  0  0  0  0  0  0  0  0  0  0  0
  149.4574  139.9940  153.0724 H   0  0  0  0  0  0  0  0  0  0  0  0
  147.5744  139.7472  154.5022 H   0  0  0  0  0  0  0  0  0  0  0  0
  147.7925  140.2407  156.1655 H   0  0  0  0  0  0  0  0  0  0  0  0
  147.6141  142.0118  152.7877 H   0  0  0  0  0  0  0  0  0  0  0  0
  144.8600  145.4418  155.0559 H   0  0  0  0  0  0  0  0  0  0  0  0
  144.3763  145.2709  157.4863 H   0  0  0  0  0  0  0  0  0  0  0  0
  145.2667  143.3695  158.8161 H   0  0  0  0  0  0  0  0  0  0  0  0
  146.6566  141.6178  157.7150 H   0  0  0  0  0  0  0  0  0  0  0  0
  151.5189  140.9280  159.2328 H   0  0  0  0  0  0  0  0  0  0  0  0
  1  2  1  0  0  0  0
  1 22  1  0  0  0  0
  1 23  1  0  0  0  0
  1 24  1  0  0  0  0
  2 21  1  0  0  0  0
  2  3  2  0  0  0  0
  3  4  1  0  0  0  0
  3 25  1  0  0  0  0
  4  5  2  0  0  0  0
  4 26  1  0  0  0  0
  5  6  1  0  0  0  0
  5 27  1  0  0  0  0
  6  7  1  0  0  0  0
  6 21  2  0  0  0  0
  7  8  1  0  0  0  0
  8  9  1  0  0  0  0
  8 28  1  0  0  0  0
  8 29  1  0  0  0  0
  9 10  1  0  0  0  0
  9 11  1  0  0  0  0
  9 30  1  0  0  0  0
 10 31  1  0  0  0  0
 11 12  1  0  0  0  0
 11 32  1  0  0  0  0
 11 33  1  0  0  0  0
 12 20  1  0  0  0  0
 12 13  1  0  0  0  0
 13 14  2  0  0  0  0
 13 34  1  0  0  0  0
 14 15  1  0  0  0  0
 15 20  2  0  0  0  0
 15 16  1  0  0  0  0
 16 17  2  0  0  0  0
 16 35  1  0  0  0  0
 17 18  1  0  0  0  0
 17 36  1  0  0  0  0
 18 19  2  0  0  0  0
 18 37  1  0  0  0  0
 19 20  1  0  0  0  0
 19 38  1  0  0  0  0
 21 39  1  0  0  0  0
M  END
> <s_m_source_file>
AV-unprocessed.smi

> <i_m_source_file_index>
1506

> <i_lp_mmshare_version>
43012

> <i_f3d_flags>
0

> <s_epik_input>
W0NIM11jMVtjSF1bY0hdW2NIXWMoW2NIXTEpT1tDSDJdW0NASF0oW09IXSlbQ0gyXW4oW2NIXW4yKWMoYzIzKVtjSF1bY0hdW2NIXVtjSF0z

> <s_epik_cmdline>
J2VwaWtfcHl0aG9uJywgJy1waCcsICc3LjAnLCAnLXRuJywgJzgnLCAnLW1hJywgJzIwMCcsICctbWV0YWxfYmluZGluZycsICctaW1hZScsICc8aW5maWxlLm1hZT4nLCAnLW9tYWUnLCAnPG91dGZpbGUubWFlPic=

> <r_lp_tautomer_probability>
1

> <r_epik_Ionization_Penalty>
0.0608485

> <r_epik_Ionization_Penalty_Charging>
0

> <r_epik_Ionization_Penalty_Neutral>
0.0608485

> <r_epik_State_Penalty>
0.0527778

> <r_epik_Charging_Adjusted_Penalty>
0.0527778

> <i_epik_Tot_Q>
0

> <i_epik_Tot_abs_Q>
0

> <r_epik_Metal_State_Penalty>
5.51973e-05

> <b_epik_Metal_Only>
0

> <s_lp_Force_Field>
OPLS_2005

> <r_lp_Energy>
16.3702

> <b_lp_Chiralities_Consistent>
1

> <s_lp_Variant>
AV-unprocessed.smi:1506-1

> <Gold.Version>
5.8.1

> <Gold.Id.Protein>
6NUR|6NUR_protein|mol2

> <Gold.PLP.Fitness>
49.8413

> <Gold.PLP.PLP>
-45.6686

> <Gold.PLP.part.hbond>
-2.4829

> <Gold.PLP.part.metal>
0.0000

> <Gold.PLP.part.buried>
-4.6299

> <Gold.PLP.part.nonpolar>
-36.2145

> <Gold.PLP.part.repulsive>
0.2688

> <Gold.PLP.ligand.clash>
0.0000

> <Gold.PLP.ligand.torsion>
0.4910

> <Gold.PLP.Chemscore.Hbond>
1.6880

> <Gold.PLP.Chemscore.CHOScore>
0.0000

> <Gold.PLP.Chemscore.Metal>
0.0000

> <Gold.Chemscore.Hbonds>
donor molecule, donor type, donor heavy atom, donor atom, acceptor molecule, acceptor atom, score
      L1  H    10    31       P1  7957  0.27
      P1  H  7989  7998       L1    10  0.37
      P1  H  8011  8017       L1    10  1.00

> <Gold.PLP.Chemscore.Internal.Correction>
0.0906

> <Gold.Rescore>
     Score         DG    S(hbond)    S(metal)    S(lipo)     H(rot)  DE(clash)    DE(int)     intcor
     16.74     -17.74       1.33        0.00     114.78       2.19       0.46       0.53       ----

> <Gold.Chemscore.Fitness>
16.7427

> <Gold.Chemscore.DG>
-17.7360

> <Gold.Chemscore.ZeroCoef>
-5.4800

> <Gold.Chemscore.Hbond>
1.3256

> <Gold.Chemscore.Metal>
0.0000

> <Gold.Chemscore.Lipo>
114.7779

> <Gold.Chemscore.Internal_Hbond>
0.0000

> <Gold.Chemscore.DEClash>
0.4645

> <Gold.Chemscore.DEInternal>
0.5288

> <Gold.Chemscore.Rot>
2.1877

> <Gold.Chemscore.Internal.Correction>
   9.000000E+99

> <Gold.Chemscore.Hbonds>
donor molecule, donor type, donor heavy atom, donor atom, acceptor molecule, acceptor atom, score
      L1  H    10    31       P1  7957  0.28
      P1  H  7989  7998       L1    10  0.12
      P1  H  8011  8017       L1    10  0.82

> <Gold.Chemscore.Hbond.Weighted>
-4.4274

> <Gold.Chemscore.Metal.Weighted>
-0.0000

> <Gold.Chemscore.Lipo.Weighted>
-13.4290

> <Gold.Chemscore.Internal_Hbond.Weighted>
0.0000

> <Gold.Chemscore.DEClash.Weighted>
0.4645

> <Gold.Chemscore.DEInternal.Weighted>
0.5288

> <Gold.Chemscore.Rot.Weighted>
5.6005

> <Gold.Chemscore.Internal.Correction.Weighted>
   9.000000E+99

> <Gold.Protein.RotatedTorsions>
[ 6907 6896 6895 6894 ] final   78.16 input  -60.11 | X-H torsion
[ 7974 7965 7964 7962 ] final  -45.21 input  175.53 | X-H torsion
[ 8008 7997 7996 7995 ] final   63.50 input   59.86 | X-H torsion
[ 10167 10162 10161 10158 ] final -178.90 input  -65.29 | X-H torsion
[ 10718 10713 10712 10709 ] final -115.04 input   66.30 | X-H torsion
[ 10763 10752 10751 10750 ] final  105.92 input  -60.55 | X-H torsion
[ 11005 11000 10999 10996 ] final   92.50 input  -57.11 | X-H torsion

> <Gold.Protein.ActiveResidues>
 VAL166  LYS551  ARG553  GLY616  TRP617  ASP618  TYR619  PRO620  LYS621  CYS622 
 ASP623  PHE694  ASN695  SER759  ASP760  ASP761  ALA762  ILE779  LEU786  VAL792 
 PHE793  MET794  SER795  GLU796  ALA797  LYS798  CYS799  TRP800  GLU811  SER814 

> <Gold.Protein.RotatedAtoms>
  152.5148  134.3706  159.9316 H   0  0  0  0  0  0  0  0  0  0  0  0  # atno 6907 bound_to 6896
  151.3660  133.3865  159.2702 H   0  0  0  0  0  0  0  0  0  0  0  0  # atno 6908 bound_to 6896
  150.9614  134.9021  159.7791 H   0  0  0  0  0  0  0  0  0  0  0  0  # atno 6909 bound_to 6896
  145.9843  140.7249  142.9348 H   0  0  0  0  0  0  0  0  0  0  0  0  # atno 7974 bound_to 7965
  155.6313  140.3496  155.4684 H   0  0  0  0  0  0  0  0  0  0  0  0  # atno 8008 bound_to 7997
  156.0001  140.1211  157.0579 H   0  0  0  0  0  0  0  0  0  0  0  0  # atno 8009 bound_to 7997
  154.4246  140.1102  156.5671 H   0  0  0  0  0  0  0  0  0  0  0  0  # atno 8010 bound_to 7997
  139.5411  144.2361  152.0896 H   0  0  0  0  0  0  0  0  0  0  0  0  # atno 10167 bound_to 10162
  156.0869  130.6059  150.8854 H   0  0  0  0  0  0  0  0  0  0  0  0  # atno 10718 bound_to 10713
  153.3859  135.3894  155.1890 H   0  0  0  0  0  0  0  0  0  0  0  0  # atno 10763 bound_to 10752
  154.8713  135.3737  154.4798 H   0  0  0  0  0  0  0  0  0  0  0  0  # atno 10764 bound_to 10752
  153.5279  135.7086  153.5759 H   0  0  0  0  0  0  0  0  0  0  0  0  # atno 10765 bound_to 10752
  139.8822  134.8736  156.3582 H   0  0  0  0  0  0  0  0  0  0  0  0  # atno 11005 bound_to 11000
  144.6870  140.2962  143.7270 LP  0  0  0  0  0  0  0  0  0  0  0  0  # atno 17320 bound_to 7965
  145.7723  139.1861  143.2205 LP  0  0  0  0  0  0  0  0  0  0  0  0  # atno 17321 bound_to 7965
  140.1840  144.4817  150.6513 LP  0  0  0  0  0  0  0  0  0  0  0  0  # atno 17342 bound_to 10162
  140.6641  143.2262  151.5786 LP  0  0  0  0  0  0  0  0  0  0  0  0  # atno 17343 bound_to 10162
  157.6007  131.0941  150.8965 LP  0  0  0  0  0  0  0  0  0  0  0  0  # atno 17370 bound_to 10713
  156.9123  130.5285  149.5280 LP  0  0  0  0  0  0  0  0  0  0  0  0  # atno 17371 bound_to 10713
  140.9548  133.7427  156.0320 LP  0  0  0  0  0  0  0  0  0  0  0  0  # atno 17394 bound_to 11000
  140.8062  134.3452  157.5425 LP  0  0  0  0  0  0  0  0  0  0  0  0  # atno 17395 bound_to 11000

$$$$
