AV-unprocessed.smi:447|AV-procd|sdf|2604|dock6
  -GOLD-   2262023 03D 1   1.00000     0.00000
 Structure written by MMmdl.
 46 48  0  0  0  0  0  0  0  0  2 V2000
  150.0287  133.8659  154.5160 C   0  0  0  0  0  0  0  0  0  0  0  0
  150.4311  135.1640  155.2064 C   0  0  0  0  0  0  0  0  0  0  0  0
  150.5388  135.2033  156.4303 O   0  0  0  0  0  0  0  0  0  0  0  0
  150.6382  136.2213  154.4062 N   0  0  0  0  0  0  0  0  0  0  0  0
  151.0889  137.5502  154.8225 C   0  0  1  0  0  0  0  0  0  0  0  0
  152.4140  137.8588  154.1096 C   0  0  0  0  0  0  0  0  0  0  0  0
  150.0868  138.6433  154.5613 C   0  0  0  0  0  0  0  0  0  0  0  0
  149.0131  138.5590  153.7231 N   0  3  0  0  0  0  0  0  0  0  0  0
  148.3296  139.7723  153.6966 C   0  0  0  0  0  0  0  0  0  0  0  0
  147.1879  140.1567  153.0005 C   0  0  0  0  0  0  0  0  0  0  0  0
  146.7532  141.4856  153.1829 C   0  0  0  0  0  0  0  0  0  0  0  0
  147.4493  142.3748  154.0265 C   0  0  0  0  0  0  0  0  0  0  0  0
  148.6055  141.9714  154.7260 C   0  0  0  0  0  0  0  0  0  0  0  0
  149.0249  140.6523  154.5493 C   0  0  0  0  0  0  0  0  0  0  0  0
  150.0955  139.9128  155.0727 N   0  0  0  0  0  0  0  0  0  0  0  0
  151.0410  140.5749  155.9954 C   0  0  0  0  0  0  0  0  0  0  0  0
  150.4023  141.1912  157.2626 C   0  0  1  0  0  0  0  0  0  0  0  0
  149.6990  140.2134  158.0039 O   0  0  0  0  0  0  0  0  0  0  0  0
  151.3938  141.9844  158.1041 C   0  0  0  0  0  0  0  0  0  0  0  0
  152.5113  141.3650  158.7085 C   0  0  0  0  0  0  0  0  0  0  0  0
  153.4029  142.1208  159.4944 C   0  0  0  0  0  0  0  0  0  0  0  0
  153.1939  143.5014  159.6702 C   0  0  0  0  0  0  0  0  0  0  0  0
  152.0870  144.1260  159.0658 C   0  0  0  0  0  0  0  0  0  0  0  0
  151.1890  143.3692  158.2887 C   0  0  0  0  0  0  0  0  0  0  0  0
  149.0816  133.9920  153.9907 H   0  0  0  0  0  0  0  0  0  0  0  0
  149.9126  133.0601  155.2414 H   0  0  0  0  0  0  0  0  0  0  0  0
  150.7890  133.5671  153.7937 H   0  0  0  0  0  0  0  0  0  0  0  0
  150.5156  136.0821  153.4135 H   0  0  0  0  0  0  0  0  0  0  0  0
  151.2780  137.5082  155.8943 H   0  0  0  0  0  0  0  0  0  0  0  0
  152.8316  138.8132  154.4281 H   0  0  0  0  0  0  0  0  0  0  0  0
  152.2800  137.9038  153.0280 H   0  0  0  0  0  0  0  0  0  0  0  0
  153.1604  137.0920  154.3199 H   0  0  0  0  0  0  0  0  0  0  0  0
  146.6570  139.4777  152.3497 H   0  0  0  0  0  0  0  0  0  0  0  0
  145.8705  141.8303  152.6639 H   0  0  0  0  0  0  0  0  0  0  0  0
  147.0894  143.3870  154.1412 H   0  0  0  0  0  0  0  0  0  0  0  0
  149.1272  142.6618  155.3720 H   0  0  0  0  0  0  0  0  0  0  0  0
  151.7983  139.8468  156.2830 H   0  0  0  0  0  0  0  0  0  0  0  0
  151.5766  141.3420  155.4353 H   0  0  0  0  0  0  0  0  0  0  0  0
  149.6445  141.9019  156.9305 H   0  0  0  0  0  0  0  0  0  0  0  0
  150.2225  139.4269  158.0312 H   0  0  0  0  0  0  0  0  0  0  0  0
  152.6966  140.3096  158.5734 H   0  0  0  0  0  0  0  0  0  0  0  0
  154.2552  141.6419  159.9536 H   0  0  0  0  0  0  0  0  0  0  0  0
  153.8826  144.0804  160.2677 H   0  0  0  0  0  0  0  0  0  0  0  0
  151.9246  145.1851  159.2005 H   0  0  0  0  0  0  0  0  0  0  0  0
  150.3408  143.8568  157.8309 H   0  0  0  0  0  0  0  0  0  0  0  0
  148.7678  137.7225  153.2096 H   0  0  0  0  0  0  0  0  0  0  0  0
  1  2  1  0  0  0  0
  1 25  1  0  0  0  0
  1 26  1  0  0  0  0
  1 27  1  0  0  0  0
  2  3  2  0  0  0  0
  2  4  1  0  0  0  0
  4  5  1  0  0  0  0
  4 28  1  0  0  0  0
  5  6  1  0  0  0  0
  5  7  1  0  0  0  0
  5 29  1  0  0  0  0
  6 30  1  0  0  0  0
  6 31  1  0  0  0  0
  6 32  1  0  0  0  0
  7 15  1  0  0  0  0
  7  8  2  0  0  0  0
  8  9  1  0  0  0  0
  8 46  1  0  0  0  0
  9 14  2  0  0  0  0
  9 10  1  0  0  0  0
 10 11  2  0  0  0  0
 10 33  1  0  0  0  0
 11 12  1  0  0  0  0
 11 34  1  0  0  0  0
 12 13  2  0  0  0  0
 12 35  1  0  0  0  0
 13 14  1  0  0  0  0
 13 36  1  0  0  0  0
 14 15  1  0  0  0  0
 15 16  1  0  0  0  0
 16 17  1  0  0  0  0
 16 37  1  0  0  0  0
 16 38  1  0  0  0  0
 17 18  1  0  0  0  0
 17 19  1  0  0  0  0
 17 39  1  0  0  0  0
 18 40  1  0  0  0  0
 19 24  1  0  0  0  0
 19 20  2  0  0  0  0
 20 21  1  0  0  0  0
 20 41  1  0  0  0  0
 21 22  2  0  0  0  0
 21 42  1  0  0  0  0
 22 23  1  0  0  0  0
 22 43  1  0  0  0  0
 23 24  2  0  0  0  0
 23 44  1  0  0  0  0
 24 45  1  0  0  0  0
M  CHG  1   8   1
M  END
> <s_m_source_file>
AV-unprocessed.smi

> <i_m_source_file_index>
447

> <i_lp_mmshare_version>
43012

> <i_f3d_flags>
0

> <s_epik_input>
W0NIM11DKD1PKVtOSF1bQ0BIXShbQ0gzXSljKG4xKW4oYyhjMTIpW2NIXVtjSF1bY0hdW2NIXTIpW0NIMl1bQ0BIXShbT0hdKWMzW2NIXVtjSF1bY0hdW2NIXVtjSF0z

> <s_epik_cmdline>
J2VwaWtfcHl0aG9uJywgJy1waCcsICc3LjAnLCAnLXRuJywgJzgnLCAnLW1hJywgJzIwMCcsICctbWV0YWxfYmluZGluZycsICctaW1hZScsICc8aW5maWxlLm1hZT4nLCAnLW9tYWUnLCAnPG91dGZpbGUubWFlPic=

> <r_epik_Ionization_Penalty>
0.950381

> <r_epik_Ionization_Penalty_Charging>
0.950379

> <r_epik_Ionization_Penalty_Neutral>
1.42115e-06

> <r_epik_State_Penalty>
0.994584

> <r_epik_Charging_Adjusted_Penalty>
1.94496

> <i_epik_Tot_Q>
1

> <i_epik_Tot_abs_Q>
1

> <r_epik_Metal_State_Penalty>
1.10485

> <b_epik_Metal_Only>
0

> <s_lp_Force_Field>
OPLS_2005

> <r_lp_Energy>
11.8

> <b_lp_Chiralities_Consistent>
1

> <s_lp_Variant>
AV-unprocessed.smi:447-8

> <Gold.Version>
5.8.1

> <Gold.Id.Protein>
6NUR|6NUR_protein|mol2

> <Gold.PLP.Fitness>
54.9542

> <Gold.PLP.PLP>
-48.5956

> <Gold.PLP.part.hbond>
-4.0000

> <Gold.PLP.part.metal>
0.0000

> <Gold.PLP.part.buried>
1.3254

> <Gold.PLP.part.nonpolar>
-45.3573

> <Gold.PLP.part.repulsive>
0.1412

> <Gold.PLP.ligand.clash>
0.0000

> <Gold.PLP.ligand.torsion>
0.4154

> <Gold.PLP.Chemscore.Hbond>
2.3500

> <Gold.PLP.Chemscore.CHOScore>
0.0000

> <Gold.PLP.Chemscore.Metal>
0.0000

> <Gold.Chemscore.Hbonds>
donor molecule, donor type, donor heavy atom, donor atom, acceptor molecule, acceptor atom, score
      L1  H     4    28       P1  7949  0.25
      L1  H     8    46       P1  7948  2.00

> <Gold.PLP.Chemscore.Internal.Correction>
0.1395

> <Gold.Rescore>
     Score         DG    S(hbond)    S(metal)    S(lipo)     H(rot)  DE(clash)    DE(int)     intcor
     16.51     -18.36       0.94        0.00     135.96       2.41       1.36       0.48       ----

> <Gold.Chemscore.Fitness>
16.5144

> <Gold.Chemscore.DG>
-18.3586

> <Gold.Chemscore.ZeroCoef>
-5.4800

> <Gold.Chemscore.Hbond>
0.9413

> <Gold.Chemscore.Metal>
0.0000

> <Gold.Chemscore.Lipo>
135.9599

> <Gold.Chemscore.Internal_Hbond>
0.0000

> <Gold.Chemscore.DEClash>
1.3601

> <Gold.Chemscore.DEInternal>
0.4842

> <Gold.Chemscore.Rot>
2.4112

> <Gold.Chemscore.Internal.Correction>
   9.000000E+99

> <Gold.Chemscore.Hbonds>
donor molecule, donor type, donor heavy atom, donor atom, acceptor molecule, acceptor atom, score
      L1  H     8    46       P1  7948  0.95

> <Gold.Chemscore.Hbond.Weighted>
-3.1440

> <Gold.Chemscore.Metal.Weighted>
-0.0000

> <Gold.Chemscore.Lipo.Weighted>
-15.9073

> <Gold.Chemscore.Internal_Hbond.Weighted>
0.0000

> <Gold.Chemscore.DEClash.Weighted>
1.3601

> <Gold.Chemscore.DEInternal.Weighted>
0.4842

> <Gold.Chemscore.Rot.Weighted>
6.1727

> <Gold.Chemscore.Internal.Correction.Weighted>
   9.000000E+99

> <Gold.Protein.RotatedTorsions>
[ 6907 6896 6895 6894 ] final   35.79 input  -60.11 | X-H torsion
[ 7974 7965 7964 7962 ] final  -78.02 input  175.53 | X-H torsion
[ 8008 7997 7996 7995 ] final  158.77 input   59.86 | X-H torsion
[ 10167 10162 10161 10158 ] final  -10.24 input  -65.29 | X-H torsion
[ 10718 10713 10712 10709 ] final -127.70 input   66.30 | X-H torsion
[ 10763 10752 10751 10750 ] final  149.38 input  -60.55 | X-H torsion
[ 11005 11000 10999 10996 ] final  109.87 input  -57.11 | X-H torsion

> <Gold.Protein.ActiveResidues>
 VAL166  LYS551  ARG553  GLY616  TRP617  ASP618  TYR619  PRO620  LYS621  CYS622 
 ASP623  PHE694  ASN695  SER759  ASP760  ASP761  ALA762  ILE779  LEU786  VAL792 
 PHE793  MET794  SER795  GLU796  ALA797  LYS798  CYS799  TRP800  GLU811  SER814 

> <Gold.Protein.RotatedAtoms>
  152.1210  134.9205  160.0562 H   0  0  0  0  0  0  0  0  0  0  0  0  # atno 6907 bound_to 6896
  152.0346  133.3947  159.4320 H   0  0  0  0  0  0  0  0  0  0  0  0  # atno 6908 bound_to 6896
  150.6849  134.3403  159.4909 H   0  0  0  0  0  0  0  0  0  0  0  0  # atno 6909 bound_to 6896
  145.5920  140.9427  143.1287 H   0  0  0  0  0  0  0  0  0  0  0  0  # atno 7974 bound_to 7965
  156.2282  140.1849  156.7310 H   0  0  0  0  0  0  0  0  0  0  0  0  # atno 8008 bound_to 7997
  154.5976  140.0641  156.9353 H   0  0  0  0  0  0  0  0  0  0  0  0  # atno 8009 bound_to 7997
  155.2228  140.3309  155.4316 H   0  0  0  0  0  0  0  0  0  0  0  0  # atno 8010 bound_to 7997
  140.7109  143.5770  150.9032 H   0  0  0  0  0  0  0  0  0  0  0  0  # atno 10167 bound_to 10162
  156.1881  130.6777  151.0390 H   0  0  0  0  0  0  0  0  0  0  0  0  # atno 10718 bound_to 10713
  154.0702  135.2867  155.3309 H   0  0  0  0  0  0  0  0  0  0  0  0  # atno 10763 bound_to 10752
  154.6752  135.5284  153.8193 H   0  0  0  0  0  0  0  0  0  0  0  0  # atno 10764 bound_to 10752
  153.0488  135.6567  154.0884 H   0  0  0  0  0  0  0  0  0  0  0  0  # atno 10765 bound_to 10752
  139.8870  134.9469  156.6192 H   0  0  0  0  0  0  0  0  0  0  0  0  # atno 11005 bound_to 11000
  144.7347  139.7620  143.7334 LP  0  0  0  0  0  0  0  0  0  0  0  0  # atno 17320 bound_to 7965
  146.1640  139.4764  142.9970 LP  0  0  0  0  0  0  0  0  0  0  0  0  # atno 17321 bound_to 7965
  139.9496  143.6288  152.3032 LP  0  0  0  0  0  0  0  0  0  0  0  0  # atno 17342 bound_to 10162
  139.6802  144.7656  151.1623 LP  0  0  0  0  0  0  0  0  0  0  0  0  # atno 17343 bound_to 10162
  157.6912  131.0809  150.7102 LP  0  0  0  0  0  0  0  0  0  0  0  0  # atno 17370 bound_to 10713
  156.7159  130.4666  149.5535 LP  0  0  0  0  0  0  0  0  0  0  0  0  # atno 17371 bound_to 10713
  140.7752  133.8705  155.8523 LP  0  0  0  0  0  0  0  0  0  0  0  0  # atno 17394 bound_to 11000
  140.9808  134.1408  157.4496 LP  0  0  0  0  0  0  0  0  0  0  0  0  # atno 17395 bound_to 11000

$$$$
