AV-unprocessed.smi:2040|AV-procd|sdf|8288|dock6
  -GOLD-   2272010553D 1   1.00000     0.00000
 Structure written by MMmdl.
 38 39  0  0  0  0  0  0  0  0  1 V2000
  153.4638  141.8595  161.0081 C   0  0  0  0  0  0  0  0  0  0  0  0
  152.7630  142.4215  159.8065 C   0  0  0  0  0  0  0  0  0  0  0  0
  151.6282  141.8924  159.1255 C   0  0  0  0  0  0  0  0  0  0  0  0
  151.4279  142.8015  158.1228 C   0  0  0  0  0  0  0  0  0  0  0  0
  150.4704  142.8126  157.1576 N   0  0  0  0  0  0  0  0  0  0  0  0
  149.5610  141.8660  156.8670 C   0  0  0  0  0  0  0  0  0  0  0  0
  149.4457  140.7851  157.4451 O   0  0  0  0  0  0  0  0  0  0  0  0
  148.7809  142.2434  155.8438 N   0  0  0  0  0  0  0  0  0  0  0  0
  147.6870  141.4567  155.2793 C   0  0  2  0  0  0  0  0  0  0  0  0
  148.0144  141.0880  153.8217 C   0  0  0  0  0  0  0  0  0  0  0  0
  146.3761  142.2576  155.3968 C   0  0  1  0  0  0  0  0  0  0  0  0
  145.0993  141.4194  155.2814 C   0  0  0  0  0  0  0  0  0  0  0  0
  144.0803  142.1745  156.1234 C   0  0  0  0  0  0  0  0  0  0  0  0
  144.9028  143.2538  156.8292 C   0  0  0  0  0  0  0  0  0  0  0  0
  146.2478  142.8225  156.6932 O   0  0  0  0  0  0  0  0  0  0  0  0
  152.3804  143.7910  158.2227 N   0  0  0  0  0  0  0  0  0  0  0  0
  152.5779  144.9659  157.3963 C   0  0  0  0  0  0  0  0  0  0  0  0
  153.2061  143.5502  159.2642 N   0  0  0  0  0  0  0  0  0  0  0  0
  152.9402  140.9857  161.3964 H   0  0  0  0  0  0  0  0  0  0  0  0
  153.5207  142.5951  161.8110 H   0  0  0  0  0  0  0  0  0  0  0  0
  154.4810  141.5541  160.7615 H   0  0  0  0  0  0  0  0  0  0  0  0
  151.0697  140.9971  159.3528 H   0  0  0  0  0  0  0  0  0  0  0  0
  150.4533  143.6383  156.5775 H   0  0  0  0  0  0  0  0  0  0  0  0
  148.9430  143.1506  155.4319 H   0  0  0  0  0  0  0  0  0  0  0  0
  147.5760  140.5363  155.8558 H   0  0  0  0  0  0  0  0  0  0  0  0
  147.2329  140.4673  153.3836 H   0  0  0  0  0  0  0  0  0  0  0  0
  148.9463  140.5256  153.7559 H   0  0  0  0  0  0  0  0  0  0  0  0
  148.1190  141.9787  153.2014 H   0  0  0  0  0  0  0  0  0  0  0  0
  146.3549  143.0644  154.6610 H   0  0  0  0  0  0  0  0  0  0  0  0
  144.7791  141.2938  154.2467 H   0  0  0  0  0  0  0  0  0  0  0  0
  145.2546  140.4264  155.7056 H   0  0  0  0  0  0  0  0  0  0  0  0
  143.2914  142.6173  155.5144 H   0  0  0  0  0  0  0  0  0  0  0  0
  143.6114  141.5031  156.8436 H   0  0  0  0  0  0  0  0  0  0  0  0
  144.7833  144.2167  156.3299 H   0  0  0  0  0  0  0  0  0  0  0  0
  144.6267  143.3763  157.8768 H   0  0  0  0  0  0  0  0  0  0  0  0
  152.7757  144.6613  156.3684 H   0  0  0  0  0  0  0  0  0  0  0  0
  153.4218  145.5541  157.7594 H   0  0  0  0  0  0  0  0  0  0  0  0
  151.6805  145.5844  157.4192 H   0  0  0  0  0  0  0  0  0  0  0  0
  1  2  1  0  0  0  0
  1 19  1  0  0  0  0
  1 20  1  0  0  0  0
  1 21  1  0  0  0  0
  2 18  2  0  0  0  0
  2  3  1  0  0  0  0
  3  4  2  0  0  0  0
  3 22  1  0  0  0  0
  4  5  1  0  0  0  0
  4 16  1  0  0  0  0
  5  6  1  0  0  0  0
  5 23  1  0  0  0  0
  6  7  2  0  0  0  0
  6  8  1  0  0  0  0
  8  9  1  0  0  0  0
  8 24  1  0  0  0  0
  9 10  1  0  0  0  0
  9 11  1  0  0  0  0
  9 25  1  0  0  0  0
 10 26  1  0  0  0  0
 10 27  1  0  0  0  0
 10 28  1  0  0  0  0
 11 15  1  0  0  0  0
 11 12  1  0  0  0  0
 11 29  1  0  0  0  0
 12 13  1  0  0  0  0
 12 30  1  0  0  0  0
 12 31  1  0  0  0  0
 13 14  1  0  0  0  0
 13 32  1  0  0  0  0
 13 33  1  0  0  0  0
 14 15  1  0  0  0  0
 14 34  1  0  0  0  0
 14 35  1  0  0  0  0
 16 17  1  0  0  0  0
 16 18  1  0  0  0  0
 17 36  1  0  0  0  0
 17 37  1  0  0  0  0
 17 38  1  0  0  0  0
M  END
> <s_m_source_file>
AV-unprocessed.smi

> <i_m_source_file_index>
2040

> <i_lp_mmshare_version>
43012

> <i_f3d_flags>
0

> <s_epik_input>
W0NIM11jMVtjSF1jKG4objEpW0NIM10pW05IXUMoPU8pW05IXVtDQEhdKFtDSDNdKVtDQEBIXTJbQ0gyXVtDSDJdW0NIMl1PMg==

> <s_epik_cmdline>
J2VwaWtfcHl0aG9uJywgJy1waCcsICc3LjAnLCAnLXRuJywgJzgnLCAnLW1hJywgJzIwMCcsICctbWV0YWxfYmluZGluZycsICctaW1hZScsICc8aW5maWxlLm1hZT4nLCAnLW9tYWUnLCAnPG91dGZpbGUubWFlPic=

> <r_lp_tautomer_probability>
1

> <r_epik_Ionization_Penalty>
9.09088e-05

> <r_epik_Ionization_Penalty_Charging>
0

> <r_epik_Ionization_Penalty_Neutral>
9.09088e-05

> <r_epik_State_Penalty>
-0

> <r_epik_Charging_Adjusted_Penalty>
0

> <i_epik_Tot_Q>
0

> <i_epik_Tot_abs_Q>
0

> <r_epik_Metal_State_Penalty>
-0

> <b_epik_Metal_Only>
0

> <s_lp_Force_Field>
OPLS_2005

> <r_lp_Energy>
19.5885

> <b_lp_Chiralities_Consistent>
1

> <s_lp_Variant>
AV-unprocessed.smi:2040-3

> <Gold.Version>
5.8.1

> <Gold.Id.Protein>
6NUR|6NUR_protein|mol2

> <Gold.PLP.Fitness>
36.2830

> <Gold.PLP.PLP>
-31.7083

> <Gold.PLP.part.hbond>
-1.7800

> <Gold.PLP.part.metal>
0.0000

> <Gold.PLP.part.buried>
-4.9019

> <Gold.PLP.part.nonpolar>
-25.9105

> <Gold.PLP.part.repulsive>
0.2943

> <Gold.PLP.ligand.clash>
0.0000

> <Gold.PLP.ligand.torsion>
0.2630

> <Gold.PLP.Chemscore.Hbond>
1.6937

> <Gold.PLP.Chemscore.CHOScore>
0.0000

> <Gold.PLP.Chemscore.Metal>
0.0000

> <Gold.Chemscore.Hbonds>
donor molecule, donor type, donor heavy atom, donor atom, acceptor molecule, acceptor atom, score
      L1  H     5    23       P1  8028  0.56
      L1  H     8    24       P1  8028  0.93

> <Gold.PLP.Chemscore.Internal.Correction>
0.0198

> <Gold.Rescore>
     Score         DG    S(hbond)    S(metal)    S(lipo)     H(rot)  DE(clash)    DE(int)     intcor
     13.15     -16.21       1.81        0.00      67.07       1.23       1.65       1.41       ----

> <Gold.Chemscore.Fitness>
13.1479

> <Gold.Chemscore.DG>
-16.2105

> <Gold.Chemscore.ZeroCoef>
-5.4800

> <Gold.Chemscore.Hbond>
1.8088

> <Gold.Chemscore.Metal>
0.0000

> <Gold.Chemscore.Lipo>
67.0723

> <Gold.Chemscore.Internal_Hbond>
0.0000

> <Gold.Chemscore.DEClash>
1.6542

> <Gold.Chemscore.DEInternal>
1.4084

> <Gold.Chemscore.Rot>
1.2338

> <Gold.Chemscore.Internal.Correction>
   9.000000E+99

> <Gold.Chemscore.Hbonds>
donor molecule, donor type, donor heavy atom, donor atom, acceptor molecule, acceptor atom, score
      L1  H     5    23       P1  8028  0.55
      L1  H     8    24       P1  8028  0.87

> <Gold.Chemscore.Hbond.Weighted>
-6.0415

> <Gold.Chemscore.Metal.Weighted>
-0.0000

> <Gold.Chemscore.Lipo.Weighted>
-7.8475

> <Gold.Chemscore.Internal_Hbond.Weighted>
0.0000

> <Gold.Chemscore.DEClash.Weighted>
1.6542

> <Gold.Chemscore.DEInternal.Weighted>
1.4084

> <Gold.Chemscore.Rot.Weighted>
3.1584

> <Gold.Chemscore.Internal.Correction.Weighted>
   9.000000E+99

> <Gold.Protein.RotatedTorsions>
[ 6907 6896 6895 6894 ] final   72.60 input  -60.11 | X-H torsion
[ 7974 7965 7964 7962 ] final  141.46 input  175.53 | X-H torsion
[ 8008 7997 7996 7995 ] final -105.18 input   59.86 | X-H torsion
[ 10167 10162 10161 10158 ] final   99.60 input  -65.29 | X-H torsion
[ 10718 10713 10712 10709 ] final  135.78 input   66.30 | X-H torsion
[ 10763 10752 10751 10750 ] final  130.22 input  -60.55 | X-H torsion
[ 11005 11000 10999 10996 ] final  -24.31 input  -57.11 | X-H torsion

> <Gold.Protein.ActiveResidues>
 VAL166  LYS551  ARG553  GLY616  TRP617  ASP618  TYR619  PRO620  LYS621  CYS622 
 ASP623  PHE694  ASN695  SER759  ASP760  ASP761  ALA762  ILE779  LEU786  VAL792 
 PHE793  MET794  SER795  GLU796  ALA797  LYS798  CYS799  TRP800  GLU811  SER814 

> <Gold.Protein.RotatedAtoms>
  152.4877  134.4547  159.9585 H   0  0  0  0  0  0  0  0  0  0  0  0  # atno 6907 bound_to 6896
  151.4540  133.3604  159.2807 H   0  0  0  0  0  0  0  0  0  0  0  0  # atno 6908 bound_to 6896
  150.9002  134.8438  159.7415 H   0  0  0  0  0  0  0  0  0  0  0  0  # atno 6909 bound_to 6896
  144.9094  139.5313  143.5716 H   0  0  0  0  0  0  0  0  0  0  0  0  # atno 7974 bound_to 7965
  154.8961  140.0414  157.1866 H   0  0  0  0  0  0  0  0  0  0  0  0  # atno 8008 bound_to 7997
  154.8492  140.2926  155.5588 H   0  0  0  0  0  0  0  0  0  0  0  0  # atno 8009 bound_to 7997
  156.2995  140.2468  156.3447 H   0  0  0  0  0  0  0  0  0  0  0  0  # atno 8010 bound_to 7997
  139.7603  144.6956  151.0302 H   0  0  0  0  0  0  0  0  0  0  0  0  # atno 10167 bound_to 10162
  157.4535  131.1068  151.0005 H   0  0  0  0  0  0  0  0  0  0  0  0  # atno 10718 bound_to 10713
  153.7545  135.3205  155.3327 H   0  0  0  0  0  0  0  0  0  0  0  0  # atno 10763 bound_to 10752
  154.8252  135.4575  154.0899 H   0  0  0  0  0  0  0  0  0  0  0  0  # atno 10764 bound_to 10752
  153.2112  135.6936  153.8195 H   0  0  0  0  0  0  0  0  0  0  0  0  # atno 10765 bound_to 10752
  140.8833  133.7638  156.0329 H   0  0  0  0  0  0  0  0  0  0  0  0  # atno 11005 bound_to 11000
  146.3151  139.7889  142.8990 LP  0  0  0  0  0  0  0  0  0  0  0  0  # atno 17320 bound_to 7965
  145.3479  141.0301  143.3355 LP  0  0  0  0  0  0  0  0  0  0  0  0  # atno 17321 bound_to 7965
  140.7806  143.4705  151.0153 LP  0  0  0  0  0  0  0  0  0  0  0  0  # atno 17342 bound_to 10162
  139.8391  143.7588  152.3180 LP  0  0  0  0  0  0  0  0  0  0  0  0  # atno 17343 bound_to 10162
  157.0827  130.5910  149.5424 LP  0  0  0  0  0  0  0  0  0  0  0  0  # atno 17370 bound_to 10713
  155.9997  130.5073  150.7616 LP  0  0  0  0  0  0  0  0  0  0  0  0  # atno 17371 bound_to 10713
  140.8435  134.3039  157.5304 LP  0  0  0  0  0  0  0  0  0  0  0  0  # atno 17394 bound_to 11000
  139.8722  134.9429  156.3837 LP  0  0  0  0  0  0  0  0  0  0  0  0  # atno 17395 bound_to 11000

$$$$
