AV-unprocessed.smi:101|AV-procd|sdf|922|dock7
  -GOLD-   2262017433D 1   1.00000     0.00000
 Structure written by MMmdl.
 44 46  0  0  0  0  0  0  0  0  1 V2000
  149.9423  135.4906  155.8661 C   0  0  0  0  0  0  0  0  0  0  0  0
  149.0476  136.5033  156.5627 C   0  0  0  0  0  0  0  0  0  0  0  0
  148.5862  137.6173  155.9391 C   0  0  0  0  0  0  0  0  0  0  0  0
  147.7511  138.5565  156.5365 N   0  0  0  0  0  0  0  0  0  0  0  0
  147.2918  139.8023  155.7887 C   0  0  1  0  0  0  0  0  0  0  0  0
  147.8864  140.9303  156.3701 O   0  0  0  0  0  0  0  0  0  0  0  0
  148.9890  141.3905  155.5934 C   0  0  1  0  0  0  0  0  0  0  0  0
  150.2751  140.6142  155.9471 C   0  0  0  0  0  0  0  0  0  0  0  0
  150.8978  141.2203  157.0677 O   0  0  0  0  0  0  0  0  0  0  0  0
  151.9255  140.6030  157.6841 C   0  0  0  0  0  0  0  0  0  0  0  0
  152.4660  139.5819  157.2546 O   0  0  0  0  0  0  0  0  0  0  0  0
  152.3218  141.2695  158.9571 C   0  0  0  0  0  0  0  0  0  0  0  0
  151.8786  142.5876  159.2154 C   0  0  0  0  0  0  0  0  0  0  0  0
  152.2503  143.2495  160.4015 C   0  0  0  0  0  0  0  0  0  0  0  0
  153.0690  142.6008  161.3441 C   0  0  0  0  0  0  0  0  0  0  0  0
  153.5164  141.2895  161.0987 C   0  0  0  0  0  0  0  0  0  0  0  0
  153.1462  140.6261  159.9127 C   0  0  0  0  0  0  0  0  0  0  0  0
  148.4707  141.1489  154.1751 C   0  0  1  0  0  0  0  0  0  0  0  0
  149.5136  141.0881  153.2209 O   0  0  0  0  0  0  0  0  0  0  0  0
  147.7264  139.8233  154.2977 C   0  0  2  0  0  0  0  0  0  0  0  0
  146.6142  139.8200  153.4249 O   0  0  0  0  0  0  0  0  0  0  0  0
  147.4711  138.4265  157.9156 C   0  0  0  0  0  0  0  0  0  0  0  0
  146.8598  139.2768  158.5607 O   0  0  0  0  0  0  0  0  0  0  0  0
  147.9289  137.2753  158.5537 N   0  0  0  0  0  0  0  0  0  0  0  0
  148.6916  136.2661  157.9629 C   0  0  0  0  0  0  0  0  0  0  0  0
  149.0220  135.2851  158.6270 O   0  0  0  0  0  0  0  0  0  0  0  0
  147.7022  137.1681  159.5318 H   0  0  0  0  0  0  0  0  0  0  0  0
  150.1793  135.7928  154.8455 H   0  0  0  0  0  0  0  0  0  0  0  0
  149.4497  134.5187  155.8189 H   0  0  0  0  0  0  0  0  0  0  0  0
  150.8829  135.3740  156.4054 H   0  0  0  0  0  0  0  0  0  0  0  0
  148.9020  137.7678  154.9179 H   0  0  0  0  0  0  0  0  0  0  0  0
  146.2121  139.8289  155.9461 H   0  0  0  0  0  0  0  0  0  0  0  0
  149.1494  142.4549  155.7687 H   0  0  0  0  0  0  0  0  0  0  0  0
  150.0501  139.5660  156.1467 H   0  0  0  0  0  0  0  0  0  0  0  0
  150.9757  140.6377  155.1121 H   0  0  0  0  0  0  0  0  0  0  0  0
  151.2521  143.1073  158.5047 H   0  0  0  0  0  0  0  0  0  0  0  0
  151.9072  144.2565  160.5873 H   0  0  0  0  0  0  0  0  0  0  0  0
  153.3539  143.1085  162.2539 H   0  0  0  0  0  0  0  0  0  0  0  0
  154.1454  140.7909  161.8213 H   0  0  0  0  0  0  0  0  0  0  0  0
  153.5097  139.6213  159.7539 H   0  0  0  0  0  0  0  0  0  0  0  0
  147.7801  141.9514  153.9092 H   0  0  0  0  0  0  0  0  0  0  0  0
  149.3122  140.4067  152.5977 H   0  0  0  0  0  0  0  0  0  0  0  0
  148.4009  138.9946  154.0783 H   0  0  0  0  0  0  0  0  0  0  0  0
  146.9243  139.9899  152.5482 H   0  0  0  0  0  0  0  0  0  0  0  0
  1  2  1  0  0  0  0
  1 28  1  0  0  0  0
  1 29  1  0  0  0  0
  1 30  1  0  0  0  0
  2 25  1  0  0  0  0
  2  3  2  0  0  0  0
  3  4  1  0  0  0  0
  3 31  1  0  0  0  0
  4  5  1  0  0  0  0
  4 22  1  0  0  0  0
  5 20  1  0  0  0  0
  5  6  1  0  0  0  0
  5 32  1  0  0  0  0
  6  7  1  0  0  0  0
  7  8  1  0  0  0  0
  7 18  1  0  0  0  0
  7 33  1  0  0  0  0
  8  9  1  0  0  0  0
  8 34  1  0  0  0  0
  8 35  1  0  0  0  0
  9 10  1  0  0  0  0
 10 11  2  0  0  0  0
 10 12  1  0  0  0  0
 12 17  1  0  0  0  0
 12 13  2  0  0  0  0
 13 14  1  0  0  0  0
 13 36  1  0  0  0  0
 14 15  2  0  0  0  0
 14 37  1  0  0  0  0
 15 16  1  0  0  0  0
 15 38  1  0  0  0  0
 16 17  2  0  0  0  0
 16 39  1  0  0  0  0
 17 40  1  0  0  0  0
 18 19  1  0  0  0  0
 18 20  1  0  0  0  0
 18 41  1  0  0  0  0
 19 42  1  0  0  0  0
 20 21  1  0  0  0  0
 20 43  1  0  0  0  0
 21 44  1  0  0  0  0
 22 23  2  0  0  0  0
 22 24  1  0  0  0  0
 24 27  1  0  0  0  0
 24 25  1  0  0  0  0
 25 26  2  0  0  0  0
M  END
> <s_m_source_file>
AV-unprocessed.smi

> <i_m_source_file_index>
101

> <i_lp_mmshare_version>
43012

> <i_f3d_flags>
0

> <s_epik_input>
Tz1jMVtuSF1jKD1PKW4oW2NIXWMxW0NIM10pW0NAQEhdMk9bQ0BIXShbQ0BASF0oW09IXSlbQ0BIXTJbT0hdKVtDSDJdT0MoPU8pYzNbY0hdW2NIXVtjSF1bY0hdW2NIXTM=

> <s_epik_cmdline>
J2VwaWtfcHl0aG9uJywgJy1waCcsICc3LjAnLCAnLXRuJywgJzgnLCAnLW1hJywgJzIwMCcsICctbWV0YWxfYmluZGluZycsICctaW1hZScsICc8aW5maWxlLm1hZT4nLCAnLW9tYWUnLCAnPG91dGZpbGUubWFlPic=

> <r_lp_tautomer_probability>
0.999537

> <r_epik_Ionization_Penalty>
0.00263537

> <r_epik_Ionization_Penalty_Charging>
0.00263428

> <r_epik_Ionization_Penalty_Neutral>
1.09111e-06

> <r_epik_State_Penalty>
0.00183335

> <r_epik_Charging_Adjusted_Penalty>
0.00446763

> <i_epik_Tot_Q>
0

> <i_epik_Tot_abs_Q>
0

> <r_epik_Metal_State_Penalty>
1.00528

> <b_epik_Metal_Only>
0

> <s_epik_Chemistry_Notes>
This compound has an ester and may undergo hydrolysis at high or low pH. This compound contains an acetal/aminal-like group ( X-CH(R)-Y where X, Y are N, S, or O) that may be acid/base labile, releasing an aldehyde.

> <s_lp_Force_Field>
OPLS_2005

> <r_lp_Energy>
31.3632

> <b_lp_Chiralities_Consistent>
1

> <s_lp_Variant>
AV-unprocessed.smi:101-10

> <Gold.Version>
5.8.1

> <Gold.Id.Protein>
6NUR|6NUR_protein|mol2

> <Gold.PLP.Fitness>
49.8141

> <Gold.PLP.PLP>
-38.5978

> <Gold.PLP.part.hbond>
-5.6367

> <Gold.PLP.part.metal>
0.0000

> <Gold.PLP.part.buried>
-5.9013

> <Gold.PLP.part.nonpolar>
-27.2705

> <Gold.PLP.part.repulsive>
0.1830

> <Gold.PLP.ligand.clash>
0.0000

> <Gold.PLP.ligand.torsion>
0.4749

> <Gold.PLP.Chemscore.Hbond>
3.9924

> <Gold.PLP.Chemscore.CHOScore>
0.0000

> <Gold.PLP.Chemscore.Metal>
0.0000

> <Gold.Chemscore.Hbonds>
donor molecule, donor type, donor heavy atom, donor atom, acceptor molecule, acceptor atom, score
      L1  H    19    42       P1  7957  0.75
      P1  H  6896  6907       L1    26  1.00
      P1  H  7989  7998       L1    19  0.11
      P1  H  7997  8008       L1    11  0.88
      P1  H  8011  8017       L1    19  1.00

> <Gold.PLP.Chemscore.Internal.Correction>
0.1887

> <Gold.Rescore>
     Score         DG    S(hbond)    S(metal)    S(lipo)     H(rot)  DE(clash)    DE(int)     intcor
     18.51     -19.41       3.40        0.00      94.64       3.32       0.01       0.89       ----

> <Gold.Chemscore.Fitness>
18.5096

> <Gold.Chemscore.DG>
-19.4095

> <Gold.Chemscore.ZeroCoef>
-5.4800

> <Gold.Chemscore.Hbond>
3.3978

> <Gold.Chemscore.Metal>
0.0000

> <Gold.Chemscore.Lipo>
94.6395

> <Gold.Chemscore.Internal_Hbond>
0.0000

> <Gold.Chemscore.DEClash>
0.0073

> <Gold.Chemscore.DEInternal>
0.8925

> <Gold.Chemscore.Rot>
3.3172

> <Gold.Chemscore.Internal.Correction>
   9.000000E+99

> <Gold.Chemscore.Hbonds>
donor molecule, donor type, donor heavy atom, donor atom, acceptor molecule, acceptor atom, score
      L1  H    19    42       P1  7957  0.70
      P1  H  6896  6907       L1    26  0.93
      P1  H  6934  6947       L1    23  0.01
      P1  H  7989  7998       L1    19  0.04
      P1  H  7997  8008       L1    11  0.56
      P1  H  8011  8017       L1    19  0.47

> <Gold.Chemscore.Hbond.Weighted>
-11.3487

> <Gold.Chemscore.Metal.Weighted>
-0.0000

> <Gold.Chemscore.Lipo.Weighted>
-11.0728

> <Gold.Chemscore.Internal_Hbond.Weighted>
0.0000

> <Gold.Chemscore.DEClash.Weighted>
0.0073

> <Gold.Chemscore.DEInternal.Weighted>
0.8925

> <Gold.Chemscore.Rot.Weighted>
8.4920

> <Gold.Chemscore.Internal.Correction.Weighted>
   9.000000E+99

> <Gold.Protein.RotatedTorsions>
[ 6907 6896 6895 6894 ] final  -83.83 input  -60.11 | X-H torsion
[ 7974 7965 7964 7962 ] final  146.08 input  175.53 | X-H torsion
[ 8008 7997 7996 7995 ] final  -53.39 input   59.86 | X-H torsion
[ 10167 10162 10161 10158 ] final -115.20 input  -65.29 | X-H torsion
[ 10718 10713 10712 10709 ] final  -20.88 input   66.30 | X-H torsion
[ 10763 10752 10751 10750 ] final  -34.82 input  -60.55 | X-H torsion
[ 11005 11000 10999 10996 ] final -155.85 input  -57.11 | X-H torsion

> <Gold.Protein.ActiveResidues>
 VAL166  LYS551  ARG553  GLY616  TRP617  ASP618  TYR619  PRO620  LYS621  CYS622 
 ASP623  PHE694  ASN695  SER759  ASP760  ASP761  ALA762  ILE779  LEU786  VAL792 
 PHE793  MET794  SER795  GLU796  ALA797  LYS798  CYS799  TRP800  GLU811  SER814 

> <Gold.Protein.RotatedAtoms>
  150.6882  134.3452  159.4884 H   0  0  0  0  0  0  0  0  0  0  0  0  # atno 6907 bound_to 6896
  152.1300  134.9139  160.0568 H   0  0  0  0  0  0  0  0  0  0  0  0  # atno 6908 bound_to 6896
  152.0312  133.3903  159.4335 H   0  0  0  0  0  0  0  0  0  0  0  0  # atno 6909 bound_to 6896
  144.8700  139.5862  143.5891 H   0  0  0  0  0  0  0  0  0  0  0  0  # atno 7974 bound_to 7965
  154.4132  140.1201  156.5145 H   0  0  0  0  0  0  0  0  0  0  0  0  # atno 8008 bound_to 7997
  155.6765  140.3496  155.4819 H   0  0  0  0  0  0  0  0  0  0  0  0  # atno 8009 bound_to 7997
  155.9588  140.1119  157.0903 H   0  0  0  0  0  0  0  0  0  0  0  0  # atno 8010 bound_to 7997
  140.0926  143.4685  152.1860 H   0  0  0  0  0  0  0  0  0  0  0  0  # atno 10167 bound_to 10162
  156.5258  130.4643  149.6573 H   0  0  0  0  0  0  0  0  0  0  0  0  # atno 10718 bound_to 10713
  153.8531  135.6847  153.4790 H   0  0  0  0  0  0  0  0  0  0  0  0  # atno 10763 bound_to 10752
  153.1385  135.4667  154.9458 H   0  0  0  0  0  0  0  0  0  0  0  0  # atno 10764 bound_to 10752
  154.7793  135.3263  154.7972 H   0  0  0  0  0  0  0  0  0  0  0  0  # atno 10765 bound_to 10752
  140.6819  134.4135  157.5226 H   0  0  0  0  0  0  0  0  0  0  0  0  # atno 11005 bound_to 11000
  146.2923  139.7175  142.9152 LP  0  0  0  0  0  0  0  0  0  0  0  0  # atno 17320 bound_to 7965
  145.4149  141.0400  143.2996 LP  0  0  0  0  0  0  0  0  0  0  0  0  # atno 17321 bound_to 7965
  139.5716  144.7465  151.3876 LP  0  0  0  0  0  0  0  0  0  0  0  0  # atno 17342 bound_to 10162
  140.7020  143.7607  150.7419 LP  0  0  0  0  0  0  0  0  0  0  0  0  # atno 17343 bound_to 10162
  156.3106  130.7227  151.2119 LP  0  0  0  0  0  0  0  0  0  0  0  0  # atno 17370 bound_to 10713
  157.7430  131.0482  150.4983 LP  0  0  0  0  0  0  0  0  0  0  0  0  # atno 17371 bound_to 10713
  139.8949  134.8696  156.2156 LP  0  0  0  0  0  0  0  0  0  0  0  0  # atno 17394 bound_to 11000
  141.0310  133.6988  156.1431 LP  0  0  0  0  0  0  0  0  0  0  0  0  # atno 17395 bound_to 11000

$$$$
