AV-unprocessed.smi:773|AV-procd|sdf|3689|dock9
  -GOLD-   22720 1103D 1   1.00000     0.00000
 Structure written by MMmdl.
 39 40  0  0  0  0  0  0  0  0  1 V2000
  153.2078  138.6747  154.7419 C   0  0  0  0  0  0  0  0  0  0  0  0
  151.8059  138.1387  154.7810 C   0  0  0  0  0  0  0  0  0  0  0  0
  151.6106  136.8498  155.0017 N   0  0  0  0  0  0  0  0  0  0  0  0
  150.2259  136.6613  154.9708 O   0  0  0  0  0  0  0  0  0  0  0  0
  149.6343  137.8593  154.7346 C   0  0  0  0  0  0  0  0  0  0  0  0
  148.1457  137.8576  154.6457 C   0  0  0  0  0  0  0  0  0  0  0  0
  150.5787  138.8418  154.6089 C   0  0  0  0  0  0  0  0  0  0  0  0
  150.3838  140.3137  154.3379 C   0  0  0  0  0  0  0  0  0  0  0  0
  149.1813  140.9217  155.0926 C   0  0  2  0  0  0  0  0  0  0  0  0
  148.0518  141.3164  154.1312 C   0  0  0  0  0  0  0  0  0  0  0  0
  149.5792  142.0923  155.8754 N   0  0  0  0  0  0  0  0  0  0  0  0
  150.3759  142.0803  156.9548 C   0  0  0  0  0  0  0  0  0  0  0  0
  150.8687  141.0627  157.4425 O   0  0  0  0  0  0  0  0  0  0  0  0
  150.5856  143.3143  157.4304 N   0  0  0  0  0  0  0  0  0  0  0  0
  151.4320  143.6151  158.5777 C   0  0  0  0  0  0  0  0  0  0  0  0
  150.7702  144.5494  159.6010 C   0  0  0  0  0  0  0  0  0  0  0  0
  152.1268  145.2566  159.7160 C   0  0  0  0  0  0  0  0  0  0  0  0
  152.4350  144.7428  158.3034 C   0  0  0  0  0  0  0  0  0  0  0  0
  153.2755  139.5580  154.1073 H   0  0  0  0  0  0  0  0  0  0  0  0
  153.9061  137.9355  154.3479 H   0  0  0  0  0  0  0  0  0  0  0  0
  153.5456  138.9552  155.7396 H   0  0  0  0  0  0  0  0  0  0  0  0
  147.7460  138.8696  154.7067 H   0  0  0  0  0  0  0  0  0  0  0  0
  147.7088  137.2739  155.4559 H   0  0  0  0  0  0  0  0  0  0  0  0
  147.8195  137.4236  153.7004 H   0  0  0  0  0  0  0  0  0  0  0  0
  151.2852  140.8675  154.6022 H   0  0  0  0  0  0  0  0  0  0  0  0
  150.2507  140.4836  153.2691 H   0  0  0  0  0  0  0  0  0  0  0  0
  148.7817  140.1588  155.7627 H   0  0  0  0  0  0  0  0  0  0  0  0
  147.7062  140.4552  153.5585 H   0  0  0  0  0  0  0  0  0  0  0  0
  148.3797  142.0773  153.4221 H   0  0  0  0  0  0  0  0  0  0  0  0
  147.1942  141.7149  154.6743 H   0  0  0  0  0  0  0  0  0  0  0  0
  149.2312  142.9848  155.5572 H   0  0  0  0  0  0  0  0  0  0  0  0
  150.1425  144.0938  156.9667 H   0  0  0  0  0  0  0  0  0  0  0  0
  151.9021  142.7444  159.0411 H   0  0  0  0  0  0  0  0  0  0  0  0
  149.9960  145.1898  159.1737 H   0  0  0  0  0  0  0  0  0  0  0  0
  150.4315  144.0589  160.5141 H   0  0  0  0  0  0  0  0  0  0  0  0
  152.0716  146.3417  159.8068 H   0  0  0  0  0  0  0  0  0  0  0  0
  152.7718  144.8170  160.4789 H   0  0  0  0  0  0  0  0  0  0  0  0
  153.4631  144.4124  158.1525 H   0  0  0  0  0  0  0  0  0  0  0  0
  152.1129  145.4366  157.5242 H   0  0  0  0  0  0  0  0  0  0  0  0
  1  2  1  0  0  0  0
  1 19  1  0  0  0  0
  1 20  1  0  0  0  0
  1 21  1  0  0  0  0
  2  7  1  0  0  0  0
  2  3  2  0  0  0  0
  3  4  1  0  0  0  0
  4  5  1  0  0  0  0
  5  6  1  0  0  0  0
  5  7  2  0  0  0  0
  6 22  1  0  0  0  0
  6 23  1  0  0  0  0
  6 24  1  0  0  0  0
  7  8  1  0  0  0  0
  8  9  1  0  0  0  0
  8 25  1  0  0  0  0
  8 26  1  0  0  0  0
  9 10  1  0  0  0  0
  9 11  1  0  0  0  0
  9 27  1  0  0  0  0
 10 28  1  0  0  0  0
 10 29  1  0  0  0  0
 10 30  1  0  0  0  0
 11 12  1  0  0  0  0
 11 31  1  0  0  0  0
 12 13  2  0  0  0  0
 12 14  1  0  0  0  0
 14 15  1  0  0  0  0
 14 32  1  0  0  0  0
 15 18  1  0  0  0  0
 15 16  1  0  0  0  0
 15 33  1  0  0  0  0
 16 17  1  0  0  0  0
 16 34  1  0  0  0  0
 16 35  1  0  0  0  0
 17 18  1  0  0  0  0
 17 36  1  0  0  0  0
 17 37  1  0  0  0  0
 18 38  1  0  0  0  0
 18 39  1  0  0  0  0
M  END
> <s_m_source_file>
AV-unprocessed.smi

> <i_m_source_file_index>
773

> <i_lp_mmshare_version>
43012

> <i_f3d_flags>
0

> <s_epik_input>
W0NIM11jMW5vYyhbQ0gzXSljMVtDSDJdW0NASF0oW0NIM10pW05IXUMoPU8pW05IXVtDSF0yW0NIMl1bQ0gyXVtDSDJdMg==

> <s_epik_cmdline>
J2VwaWtfcHl0aG9uJywgJy1waCcsICc3LjAnLCAnLXRuJywgJzgnLCAnLW1hJywgJzIwMCcsICctbWV0YWxfYmluZGluZycsICctaW1hZScsICc8aW5maWxlLm1hZT4nLCAnLW9tYWUnLCAnPG91dGZpbGUubWFlPic=

> <r_lp_tautomer_probability>
1

> <r_epik_Ionization_Penalty>
6.63278e-05

> <r_epik_Ionization_Penalty_Charging>
0

> <r_epik_Ionization_Penalty_Neutral>
6.63278e-05

> <r_epik_State_Penalty>
-0

> <r_epik_Charging_Adjusted_Penalty>
0

> <i_epik_Tot_Q>
0

> <i_epik_Tot_abs_Q>
0

> <r_epik_Metal_State_Penalty>
-0

> <b_epik_Metal_Only>
0

> <s_lp_Force_Field>
OPLS_2005

> <r_lp_Energy>
7.52074

> <b_lp_Chiralities_Consistent>
1

> <s_lp_Variant>
AV-unprocessed.smi:773-1

> <Gold.Version>
5.8.1

> <Gold.Id.Protein>
6NUR|6NUR_protein|mol2

> <Gold.PLP.Fitness>
45.0159

> <Gold.PLP.PLP>
-38.2006

> <Gold.PLP.part.hbond>
-3.0000

> <Gold.PLP.part.metal>
0.0000

> <Gold.PLP.part.buried>
-2.2714

> <Gold.PLP.part.nonpolar>
-33.6237

> <Gold.PLP.part.repulsive>
0.4221

> <Gold.PLP.ligand.clash>
0.0000

> <Gold.PLP.ligand.torsion>
1.2174

> <Gold.PLP.Chemscore.Hbond>
3.0000

> <Gold.PLP.Chemscore.CHOScore>
0.0000

> <Gold.PLP.Chemscore.Metal>
0.0000

> <Gold.Chemscore.Hbonds>
donor molecule, donor type, donor heavy atom, donor atom, acceptor molecule, acceptor atom, score
      L1  H    11    31       P1  8028  1.00
      L1  H    14    32       P1  8028  0.99
      P1  H 10752 10764       L1     3  1.00

> <Gold.PLP.Chemscore.Internal.Correction>
0.2501

> <Gold.Rescore>
     Score         DG    S(hbond)    S(metal)    S(lipo)     H(rot)  DE(clash)    DE(int)     intcor
     20.73     -23.44       2.91        0.00     104.53       1.56       1.53       1.17       ----

> <Gold.Chemscore.Fitness>
20.7315

> <Gold.Chemscore.DG>
-23.4389

> <Gold.Chemscore.ZeroCoef>
-5.4800

> <Gold.Chemscore.Hbond>
2.9127

> <Gold.Chemscore.Metal>
0.0000

> <Gold.Chemscore.Lipo>
104.5335

> <Gold.Chemscore.Internal_Hbond>
0.0000

> <Gold.Chemscore.DEClash>
1.5339

> <Gold.Chemscore.DEInternal>
1.1735

> <Gold.Chemscore.Rot>
1.5625

> <Gold.Chemscore.Internal.Correction>
   9.000000E+99

> <Gold.Chemscore.Hbonds>
donor molecule, donor type, donor heavy atom, donor atom, acceptor molecule, acceptor atom, score
      L1  H    11    31       P1  8028  0.99
      L1  H    14    32       P1  8028  0.89
      P1  H 10752 10764       L1     3  0.97

> <Gold.Chemscore.Hbond.Weighted>
-9.7285

> <Gold.Chemscore.Metal.Weighted>
-0.0000

> <Gold.Chemscore.Lipo.Weighted>
-12.2304

> <Gold.Chemscore.Internal_Hbond.Weighted>
0.0000

> <Gold.Chemscore.DEClash.Weighted>
1.5339

> <Gold.Chemscore.DEInternal.Weighted>
1.1735

> <Gold.Chemscore.Rot.Weighted>
4.0000

> <Gold.Chemscore.Internal.Correction.Weighted>
   9.000000E+99

> <Gold.Protein.RotatedTorsions>
[ 6907 6896 6895 6894 ] final   -3.12 input  -60.11 | X-H torsion
[ 7974 7965 7964 7962 ] final   -5.21 input  175.53 | X-H torsion
[ 8008 7997 7996 7995 ] final  119.50 input   59.86 | X-H torsion
[ 10167 10162 10161 10158 ] final  138.30 input  -65.29 | X-H torsion
[ 10718 10713 10712 10709 ] final  -44.98 input   66.30 | X-H torsion
[ 10763 10752 10751 10750 ] final  -49.91 input  -60.55 | X-H torsion
[ 11005 11000 10999 10996 ] final  -22.40 input  -57.11 | X-H torsion

> <Gold.Protein.ActiveResidues>
 VAL166  LYS551  ARG553  GLY616  TRP617  ASP618  TYR619  PRO620  LYS621  CYS622 
 ASP623  PHE694  ASN695  SER759  ASP760  ASP761  ALA762  ILE779  LEU786  VAL792 
 PHE793  MET794  SER795  GLU796  ALA797  LYS798  CYS799  TRP800  GLU811  SER814 

> <Gold.Protein.RotatedAtoms>
  151.5188  135.1067  159.9872 H   0  0  0  0  0  0  0  0  0  0  0  0  # atno 6907 bound_to 6896
  152.4629  133.7857  159.6885 H   0  0  0  0  0  0  0  0  0  0  0  0  # atno 6908 bound_to 6896
  150.8600  133.7594  159.3021 H   0  0  0  0  0  0  0  0  0  0  0  0  # atno 6909 bound_to 6896
  146.2357  140.1987  142.8333 H   0  0  0  0  0  0  0  0  0  0  0  0  # atno 7974 bound_to 7965
  156.2599  140.2851  156.1002 H   0  0  0  0  0  0  0  0  0  0  0  0  # atno 8008 bound_to 7997
  155.1368  140.0395  157.2806 H   0  0  0  0  0  0  0  0  0  0  0  0  # atno 8009 bound_to 7997
  154.6559  140.2555  155.7168 H   0  0  0  0  0  0  0  0  0  0  0  0  # atno 8010 bound_to 7997
  139.5115  144.6361  151.5692 H   0  0  0  0  0  0  0  0  0  0  0  0  # atno 10167 bound_to 10162
  156.2331  130.4174  149.8851 H   0  0  0  0  0  0  0  0  0  0  0  0  # atno 10718 bound_to 10713
  154.1018  135.6562  153.4869 H   0  0  0  0  0  0  0  0  0  0  0  0  # atno 10763 bound_to 10752
  153.0286  135.5227  154.7279 H   0  0  0  0  0  0  0  0  0  0  0  0  # atno 10764 bound_to 10752
  154.6433  135.2991  155.0046 H   0  0  0  0  0  0  0  0  0  0  0  0  # atno 10765 bound_to 10752
  140.8653  133.7758  156.0123 H   0  0  0  0  0  0  0  0  0  0  0  0  # atno 11005 bound_to 11000
  144.9799  140.8449  143.5403 LP  0  0  0  0  0  0  0  0  0  0  0  0  # atno 17320 bound_to 7965
  145.1979  139.2267  143.5208 LP  0  0  0  0  0  0  0  0  0  0  0  0  # atno 17321 bound_to 7965
  140.6111  143.9434  150.6454 LP  0  0  0  0  0  0  0  0  0  0  0  0  # atno 17342 bound_to 10162
  140.2677  143.3478  152.1266 LP  0  0  0  0  0  0  0  0  0  0  0  0  # atno 17343 bound_to 10162
  156.6459  130.8723  151.3522 LP  0  0  0  0  0  0  0  0  0  0  0  0  # atno 17370 bound_to 10713
  157.7142  130.9476  150.1195 LP  0  0  0  0  0  0  0  0  0  0  0  0  # atno 17371 bound_to 10713
  140.8635  134.2812  157.5223 LP  0  0  0  0  0  0  0  0  0  0  0  0  # atno 17394 bound_to 11000
  139.8709  134.9530  156.4134 LP  0  0  0  0  0  0  0  0  0  0  0  0  # atno 17395 bound_to 11000

$$$$
