AV-unprocessed.smi:295|AV-procd|sdf|2255|dock5
  -GOLD-   2262022143D 1   1.00000     0.00000
 Structure written by MMmdl.
 35 36  0  0  0  0  0  0  0  0  1 V2000
  146.1596  137.3911  152.1504 C   0  0  0  0  0  0  0  0  0  0  0  0
  145.2009  136.2163  151.8916 C   0  0  1  0  0  0  0  0  0  0  0  0
  145.2629  135.7461  150.4237 C   0  0  0  0  0  0  0  0  0  0  0  0
  144.2601  134.6137  150.1495 C   0  0  0  0  0  0  0  0  0  0  0  0
  144.4709  133.4335  151.1098 C   0  0  0  0  0  0  0  0  0  0  0  0
  144.4128  133.8922  152.5776 C   0  0  0  0  0  0  0  0  0  0  0  0
  145.4080  135.0332  152.8714 C   0  0  1  0  0  0  0  0  0  0  0  0
  146.7755  134.5145  152.8182 N   0  0  0  0  0  0  0  0  0  0  0  0
  147.2026  133.3425  153.3148 C   0  0  0  0  0  0  0  0  0  0  0  0
  146.4835  132.5612  153.9364 O   0  0  0  0  0  0  0  0  0  0  0  0
  148.6743  133.0013  153.0749 C   0  0  0  0  0  0  0  0  0  0  0  0
  149.4951  133.3928  154.2070 N   0  0  0  0  0  0  0  0  0  0  0  0
  149.7711  134.6040  154.7027 C   0  0  0  0  0  0  0  0  0  0  0  0
  150.5878  134.5860  155.7486 N   0  0  0  0  0  0  0  0  0  0  0  0
  150.7818  133.2381  155.8420 C   0  0  0  0  0  0  0  0  0  0  0  0
  151.6392  132.6635  156.8648 C   0  0  0  0  0  0  0  0  0  0  0  0
  152.3221  132.2057  157.6792 N   0  0  0  0  0  0  0  0  0  0  0  0
  150.1552  132.4722  154.9513 N   0  0  0  0  0  0  0  0  0  0  0  0
  147.1953  137.1213  151.9425 H   0  0  0  0  0  0  0  0  0  0  0  0
  146.1027  137.7222  153.1877 H   0  0  0  0  0  0  0  0  0  0  0  0
  145.9102  138.2442  151.5191 H   0  0  0  0  0  0  0  0  0  0  0  0
  144.1926  136.5965  152.0638 H   0  0  0  0  0  0  0  0  0  0  0  0
  145.0537  136.5831  149.7567 H   0  0  0  0  0  0  0  0  0  0  0  0
  146.2714  135.4078  150.1826 H   0  0  0  0  0  0  0  0  0  0  0  0
  143.2434  134.9939  150.2571 H   0  0  0  0  0  0  0  0  0  0  0  0
  144.3550  134.2750  149.1174 H   0  0  0  0  0  0  0  0  0  0  0  0
  143.7129  132.6704  150.9304 H   0  0  0  0  0  0  0  0  0  0  0  0
  145.4333  132.9625  150.9061 H   0  0  0  0  0  0  0  0  0  0  0  0
  143.4015  134.2326  152.8038 H   0  0  0  0  0  0  0  0  0  0  0  0
  144.6017  133.0466  153.2402 H   0  0  0  0  0  0  0  0  0  0  0  0
  145.1986  135.3895  153.8815 H   0  0  0  0  0  0  0  0  0  0  0  0
  147.4498  135.0896  152.3350 H   0  0  0  0  0  0  0  0  0  0  0  0
  148.7830  131.9284  152.9125 H   0  0  0  0  0  0  0  0  0  0  0  0
  149.0381  133.5025  152.1766 H   0  0  0  0  0  0  0  0  0  0  0  0
  149.3724  135.5170  154.2847 H   0  0  0  0  0  0  0  0  0  0  0  0
  1  2  1  0  0  0  0
  1 19  1  0  0  0  0
  1 20  1  0  0  0  0
  1 21  1  0  0  0  0
  2  7  1  0  0  0  0
  2  3  1  0  0  0  0
  2 22  1  0  0  0  0
  3  4  1  0  0  0  0
  3 23  1  0  0  0  0
  3 24  1  0  0  0  0
  4  5  1  0  0  0  0
  4 25  1  0  0  0  0
  4 26  1  0  0  0  0
  5  6  1  0  0  0  0
  5 27  1  0  0  0  0
  5 28  1  0  0  0  0
  6  7  1  0  0  0  0
  6 29  1  0  0  0  0
  6 30  1  0  0  0  0
  7  8  1  0  0  0  0
  7 31  1  0  0  0  0
  8  9  1  0  0  0  0
  8 32  1  0  0  0  0
  9 10  2  0  0  0  0
  9 11  1  0  0  0  0
 11 12  1  0  0  0  0
 11 33  1  0  0  0  0
 11 34  1  0  0  0  0
 12 18  1  0  0  0  0
 12 13  1  0  0  0  0
 13 14  2  0  0  0  0
 13 35  1  0  0  0  0
 14 15  1  0  0  0  0
 15 16  1  0  0  0  0
 15 18  2  0  0  0  0
 16 17  3  0  0  0  0
M  END
> <s_m_source_file>
AV-unprocessed.smi

> <i_m_source_file_index>
295

> <i_lp_mmshare_version>
43012

> <i_f3d_flags>
0

> <s_epik_input>
W0NIM11bQ0BASF0xW0NIMl1bQ0gyXVtDSDJdW0NIMl1bQ0BIXTFbTkhdQyg9TylbQ0gyXW4yW2NIXW5jKG4yKUMjTg==

> <s_epik_cmdline>
J2VwaWtfcHl0aG9uJywgJy1waCcsICc3LjAnLCAnLXRuJywgJzgnLCAnLW1hJywgJzIwMCcsICctbWV0YWxfYmluZGluZycsICctaW1hZScsICc8aW5maWxlLm1hZT4nLCAnLW9tYWUnLCAnPG91dGZpbGUubWFlPic=

> <r_lp_tautomer_probability>
1

> <r_epik_Ionization_Penalty>
5.31112e-08

> <r_epik_Ionization_Penalty_Charging>
0

> <r_epik_Ionization_Penalty_Neutral>
5.31112e-08

> <r_epik_State_Penalty>
-0

> <r_epik_Charging_Adjusted_Penalty>
0

> <i_epik_Tot_Q>
0

> <i_epik_Tot_abs_Q>
0

> <r_epik_Metal_State_Penalty>
-0

> <b_epik_Metal_Only>
0

> <s_lp_Force_Field>
OPLS_2005

> <r_lp_Energy>
13.099

> <b_lp_Chiralities_Consistent>
1

> <s_lp_Variant>
AV-unprocessed.smi:295-2

> <Gold.Version>
5.8.1

> <Gold.Id.Protein>
6NUR|6NUR_protein|mol2

> <Gold.PLP.Fitness>
35.5148

> <Gold.PLP.PLP>
-27.6910

> <Gold.PLP.part.hbond>
-2.0000

> <Gold.PLP.part.metal>
0.0000

> <Gold.PLP.part.buried>
-0.2687

> <Gold.PLP.part.nonpolar>
-25.8002

> <Gold.PLP.part.repulsive>
0.1441

> <Gold.PLP.ligand.clash>
0.0000

> <Gold.PLP.ligand.torsion>
0.5927

> <Gold.PLP.Chemscore.Hbond>
2.0000

> <Gold.PLP.Chemscore.CHOScore>
1.0000

> <Gold.PLP.Chemscore.Metal>
0.0000

> <Gold.Chemscore.Hbonds>
donor molecule, donor type, donor heavy atom, donor atom, acceptor molecule, acceptor atom, score
      L1  H     8    32       P1  7948  1.00
      P1  H  6896  6908       L1    17  1.00
      L1  C    13    35       P1  7948  1.00

> <Gold.PLP.Chemscore.Internal.Correction>
0.0091

> <Gold.Rescore>
     Score         DG    S(hbond)    S(metal)    S(lipo)     H(rot)  DE(clash)    DE(int)     intcor
      9.48     -11.61       1.71        0.00      46.19       1.95       0.23       1.90       ----

> <Gold.Chemscore.Fitness>
9.4843

> <Gold.Chemscore.DG>
-11.6105

> <Gold.Chemscore.ZeroCoef>
-5.4800

> <Gold.Chemscore.Hbond>
1.7100

> <Gold.Chemscore.Metal>
0.0000

> <Gold.Chemscore.Lipo>
46.1915

> <Gold.Chemscore.Internal_Hbond>
0.0000

> <Gold.Chemscore.DEClash>
0.2291

> <Gold.Chemscore.DEInternal>
1.8971

> <Gold.Chemscore.Rot>
1.9474

> <Gold.Chemscore.Internal.Correction>
   9.000000E+99

> <Gold.Chemscore.Hbonds>
donor molecule, donor type, donor heavy atom, donor atom, acceptor molecule, acceptor atom, score
      L1  H     8    32       P1  7948  0.99
      P1  H  6896  6908       L1    17  0.37

> <Gold.Chemscore.Hbond.Weighted>
-5.7114

> <Gold.Chemscore.Metal.Weighted>
-0.0000

> <Gold.Chemscore.Lipo.Weighted>
-5.4044

> <Gold.Chemscore.Internal_Hbond.Weighted>
0.0000

> <Gold.Chemscore.DEClash.Weighted>
0.2291

> <Gold.Chemscore.DEInternal.Weighted>
1.8971

> <Gold.Chemscore.Rot.Weighted>
4.9852

> <Gold.Chemscore.Internal.Correction.Weighted>
   9.000000E+99

> <Gold.Protein.RotatedTorsions>
[ 6907 6896 6895 6894 ] final   45.65 input  -60.11 | X-H torsion
[ 7974 7965 7964 7962 ] final -125.39 input  175.53 | X-H torsion
[ 8008 7997 7996 7995 ] final -172.12 input   59.86 | X-H torsion
[ 10167 10162 10161 10158 ] final   69.25 input  -65.29 | X-H torsion
[ 10718 10713 10712 10709 ] final   60.37 input   66.30 | X-H torsion
[ 10763 10752 10751 10750 ] final  152.65 input  -60.55 | X-H torsion
[ 11005 11000 10999 10996 ] final  116.40 input  -57.11 | X-H torsion

> <Gold.Protein.ActiveResidues>
 VAL166  LYS551  ARG553  GLY616  TRP617  ASP618  TYR619  PRO620  LYS621  CYS622 
 ASP623  PHE694  ASN695  SER759  ASP760  ASP761  ALA762  ILE779  LEU786  VAL792 
 PHE793  MET794  SER795  GLU796  ALA797  LYS798  CYS799  TRP800  GLU811  SER814 

> <Gold.Protein.RotatedAtoms>
  152.2470  134.8171  160.0451 H   0  0  0  0  0  0  0  0  0  0  0  0  # atno 6907 bound_to 6896
  151.8864  133.3501  159.3792 H   0  0  0  0  0  0  0  0  0  0  0  0  # atno 6908 bound_to 6896
  150.7072  134.4893  159.5552 H   0  0  0  0  0  0  0  0  0  0  0  0  # atno 6909 bound_to 6896
  144.9981  140.7795  143.4513 H   0  0  0  0  0  0  0  0  0  0  0  0  # atno 7974 bound_to 7965
  155.9404  140.1107  157.1060 H   0  0  0  0  0  0  0  0  0  0  0  0  # atno 8008 bound_to 7997
  154.4088  140.1220  156.4985 H   0  0  0  0  0  0  0  0  0  0  0  0  # atno 8009 bound_to 7997
  155.6969  140.3472  155.4919 H   0  0  0  0  0  0  0  0  0  0  0  0  # atno 8010 bound_to 7997
  140.0698  144.5162  150.7235 H   0  0  0  0  0  0  0  0  0  0  0  0  # atno 10167 bound_to 10162
  157.5747  130.8935  149.9327 H   0  0  0  0  0  0  0  0  0  0  0  0  # atno 10718 bound_to 10713
  154.1234  135.2831  155.3203 H   0  0  0  0  0  0  0  0  0  0  0  0  # atno 10763 bound_to 10752
  154.6407  135.5403  153.7789 H   0  0  0  0  0  0  0  0  0  0  0  0  # atno 10764 bound_to 10752
  153.0305  135.6485  154.1388 H   0  0  0  0  0  0  0  0  0  0  0  0  # atno 10765 bound_to 10752
  139.9040  134.9597  156.7193 H   0  0  0  0  0  0  0  0  0  0  0  0  # atno 11005 bound_to 11000
  145.2192  139.2167  143.5102 LP  0  0  0  0  0  0  0  0  0  0  0  0  # atno 17320 bound_to 7965
  146.3446  140.2046  142.8589 LP  0  0  0  0  0  0  0  0  0  0  0  0  # atno 17321 bound_to 7965
  140.7131  143.2521  151.4520 LP  0  0  0  0  0  0  0  0  0  0  0  0  # atno 17342 bound_to 10162
  139.5843  144.1640  152.2008 LP  0  0  0  0  0  0  0  0  0  0  0  0  # atno 17343 bound_to 10162
  156.0792  130.3675  150.0615 LP  0  0  0  0  0  0  0  0  0  0  0  0  # atno 17370 bound_to 10713
  156.8763  130.9541  151.3604 LP  0  0  0  0  0  0  0  0  0  0  0  0  # atno 17371 bound_to 10713
  140.7013  133.9304  155.8026 LP  0  0  0  0  0  0  0  0  0  0  0  0  # atno 17394 bound_to 11000
  141.0369  134.0676  157.3948 LP  0  0  0  0  0  0  0  0  0  0  0  0  # atno 17395 bound_to 11000

$$$$
