AV-unprocessed.smi:2093|AV-procd|sdf|8545|dock9
  -GOLD-   2272011273D 1   1.00000     0.00000
 Structure written by MMmdl.
 31 32  0  0  0  0  0  0  0  0  1 V2000
  144.2252  135.7681  152.6059 C   0  0  0  0  0  0  0  0  0  0  0  0
  145.1713  135.9109  151.4048 C   0  0  1  0  0  0  0  0  0  0  0  0
  146.3539  136.6623  151.8236 N   0  0  0  0  0  0  0  0  0  0  0  0
  146.3514  137.8146  152.5104 C   0  0  0  0  0  0  0  0  0  0  0  0
  145.3257  138.3896  152.8755 O   0  0  0  0  0  0  0  0  0  0  0  0
  147.6045  138.2482  152.7318 N   0  0  0  0  0  0  0  0  0  0  0  0
  148.0203  139.4192  153.4182 C   0  0  0  0  0  0  0  0  0  0  0  0
  149.1419  139.5122  154.1421 N   0  0  0  0  0  0  0  0  0  0  0  0
  149.3005  140.7821  154.7030 C   0  0  0  0  0  0  0  0  0  0  0  0
  148.2824  141.6494  154.3939 C   0  0  0  0  0  0  0  0  0  0  0  0
  147.0777  140.9019  153.3795 S   0  0  0  0  0  0  0  0  0  0  0  0
  145.5817  134.5399  150.8291 C   0  0  2  0  0  0  0  0  0  0  0  0
  144.4317  133.7113  150.2510 C   0  0  0  0  0  0  0  0  0  0  0  0
  144.9852  132.3091  150.3503 C   0  0  0  0  0  0  0  0  0  0  0  0
  145.7185  132.3623  151.6866 C   0  0  0  0  0  0  0  0  0  0  0  0
  146.1418  133.7139  151.8484 O   0  0  0  0  0  0  0  0  0  0  0  0
  143.3076  135.2502  152.3252 H   0  0  0  0  0  0  0  0  0  0  0  0
  143.9411  136.7445  152.9994 H   0  0  0  0  0  0  0  0  0  0  0  0
  144.6908  135.2043  153.4152 H   0  0  0  0  0  0  0  0  0  0  0  0
  144.6357  136.4620  150.6297 H   0  0  0  0  0  0  0  0  0  0  0  0
  147.2477  136.2711  151.5644 H   0  0  0  0  0  0  0  0  0  0  0  0
  148.3491  137.6743  152.3646 H   0  0  0  0  0  0  0  0  0  0  0  0
  150.1706  140.9827  155.3105 H   0  0  0  0  0  0  0  0  0  0  0  0
  148.1692  142.6788  154.7000 H   0  0  0  0  0  0  0  0  0  0  0  0
  146.3424  134.6707  150.0574 H   0  0  0  0  0  0  0  0  0  0  0  0
  143.5396  133.8039  150.8724 H   0  0  0  0  0  0  0  0  0  0  0  0
  144.1700  133.9962  149.2316 H   0  0  0  0  0  0  0  0  0  0  0  0
  144.2153  131.5380  150.3161 H   0  0  0  0  0  0  0  0  0  0  0  0
  145.6911  132.1267  149.5388 H   0  0  0  0  0  0  0  0  0  0  0  0
  145.0397  132.1138  152.5034 H   0  0  0  0  0  0  0  0  0  0  0  0
  146.5618  131.6726  151.7250 H   0  0  0  0  0  0  0  0  0  0  0  0
  1  2  1  0  0  0  0
  1 17  1  0  0  0  0
  1 18  1  0  0  0  0
  1 19  1  0  0  0  0
  2  3  1  0  0  0  0
  2 12  1  0  0  0  0
  2 20  1  0  0  0  0
  3  4  1  0  0  0  0
  3 21  1  0  0  0  0
  4  5  2  0  0  0  0
  4  6  1  0  0  0  0
  6  7  1  0  0  0  0
  6 22  1  0  0  0  0
  7 11  1  0  0  0  0
  7  8  2  0  0  0  0
  8  9  1  0  0  0  0
  9 10  2  0  0  0  0
  9 23  1  0  0  0  0
 10 11  1  0  0  0  0
 10 24  1  0  0  0  0
 12 16  1  0  0  0  0
 12 13  1  0  0  0  0
 12 25  1  0  0  0  0
 13 14  1  0  0  0  0
 13 26  1  0  0  0  0
 13 27  1  0  0  0  0
 14 15  1  0  0  0  0
 14 28  1  0  0  0  0
 14 29  1  0  0  0  0
 15 16  1  0  0  0  0
 15 30  1  0  0  0  0
 15 31  1  0  0  0  0
M  END
> <s_m_source_file>
AV-unprocessed.smi

> <i_m_source_file_index>
2093

> <i_lp_mmshare_version>
43012

> <i_f3d_flags>
0

> <s_epik_input>
TzFbQ0gyXVtDSDJdW0NIMl1bQ0BIXTFbQ0BIXShbQ0gzXSlbTkhdQyg9TylbTkhdYzJuW2NIXVtjSF1zMg==

> <s_epik_cmdline>
J2VwaWtfcHl0aG9uJywgJy1waCcsICc3LjAnLCAnLXRuJywgJzgnLCAnLW1hJywgJzIwMCcsICctbWV0YWxfYmluZGluZycsICctaW1hZScsICc8aW5maWxlLm1hZT4nLCAnLW9tYWUnLCAnPG91dGZpbGUubWFlPic=

> <r_lp_tautomer_probability>
0.999

> <r_epik_Ionization_Penalty>
0.000334433

> <r_epik_Ionization_Penalty_Charging>
0

> <r_epik_Ionization_Penalty_Neutral>
0.000334433

> <r_epik_State_Penalty>
0.000177984

> <r_epik_Charging_Adjusted_Penalty>
0.000177984

> <i_epik_Tot_Q>
0

> <i_epik_Tot_abs_Q>
0

> <r_epik_Metal_State_Penalty>
0.00767616

> <b_epik_Metal_Only>
0

> <s_lp_Force_Field>
OPLS_2005

> <r_lp_Energy>
15.8348

> <b_lp_Chiralities_Consistent>
1

> <s_lp_Variant>
AV-unprocessed.smi:2093-2

> <Gold.Version>
5.8.1

> <Gold.Id.Protein>
6NUR|6NUR_protein|mol2

> <Gold.PLP.Fitness>
34.5810

> <Gold.PLP.PLP>
-26.3436

> <Gold.PLP.part.hbond>
-2.9175

> <Gold.PLP.part.metal>
0.0000

> <Gold.PLP.part.buried>
-1.8076

> <Gold.PLP.part.nonpolar>
-25.3161

> <Gold.PLP.part.repulsive>
4.2481

> <Gold.PLP.ligand.clash>
0.0000

> <Gold.PLP.ligand.torsion>
0.3492

> <Gold.PLP.Chemscore.Hbond>
1.9760

> <Gold.PLP.Chemscore.CHOScore>
1.0000

> <Gold.PLP.Chemscore.Metal>
0.0000

> <Gold.Chemscore.Hbonds>
donor molecule, donor type, donor heavy atom, donor atom, acceptor molecule, acceptor atom, score
      L1  H     3    21       P1  7948  0.98
      L1  H     6    22       P1  7948  1.00
      L1  C    10    24       P1  8028  1.00

> <Gold.PLP.Chemscore.Internal.Correction>
0.0079

> <Gold.Rescore>
     Score         DG    S(hbond)    S(metal)    S(lipo)     H(rot)  DE(clash)    DE(int)     intcor
     12.55     -15.82       1.94        0.00      61.28       1.29       1.56       1.71       ----

> <Gold.Chemscore.Fitness>
12.5512

> <Gold.Chemscore.DG>
-15.8242

> <Gold.Chemscore.ZeroCoef>
-5.4800

> <Gold.Chemscore.Hbond>
1.9420

> <Gold.Chemscore.Metal>
0.0000

> <Gold.Chemscore.Lipo>
61.2822

> <Gold.Chemscore.Internal_Hbond>
0.0000

> <Gold.Chemscore.DEClash>
1.5584

> <Gold.Chemscore.DEInternal>
1.7147

> <Gold.Chemscore.Rot>
1.2938

> <Gold.Chemscore.Internal.Correction>
   9.000000E+99

> <Gold.Chemscore.Hbonds>
donor molecule, donor type, donor heavy atom, donor atom, acceptor molecule, acceptor atom, score
      L1  H     3    21       P1  7948  0.93
      L1  H     6    22       P1  7948  0.96

> <Gold.Chemscore.Hbond.Weighted>
-6.4864

> <Gold.Chemscore.Metal.Weighted>
-0.0000

> <Gold.Chemscore.Lipo.Weighted>
-7.1700

> <Gold.Chemscore.Internal_Hbond.Weighted>
0.0000

> <Gold.Chemscore.DEClash.Weighted>
1.5584

> <Gold.Chemscore.DEInternal.Weighted>
1.7147

> <Gold.Chemscore.Rot.Weighted>
3.3122

> <Gold.Chemscore.Internal.Correction.Weighted>
   9.000000E+99

> <Gold.Protein.RotatedTorsions>
[ 6907 6896 6895 6894 ] final  126.12 input  -60.11 | X-H torsion
[ 7974 7965 7964 7962 ] final   -3.43 input  175.53 | X-H torsion
[ 8008 7997 7996 7995 ] final   16.06 input   59.86 | X-H torsion
[ 10167 10162 10161 10158 ] final   31.60 input  -65.29 | X-H torsion
[ 10718 10713 10712 10709 ] final   50.14 input   66.30 | X-H torsion
[ 10763 10752 10751 10750 ] final   48.30 input  -60.55 | X-H torsion
[ 11005 11000 10999 10996 ] final  171.40 input  -57.11 | X-H torsion

> <Gold.Protein.ActiveResidues>
 VAL166  LYS551  ARG553  GLY616  TRP617  ASP618  TYR619  PRO620  LYS621  CYS622 
 ASP623  PHE694  ASN695  SER759  ASP760  ASP761  ALA762  ILE779  LEU786  VAL792 
 PHE793  MET794  SER795  GLU796  ALA797  LYS798  CYS799  TRP800  GLU811  SER814 

> <Gold.Protein.RotatedAtoms>
  152.3932  133.6708  159.6254 H   0  0  0  0  0  0  0  0  0  0  0  0  # atno 6907 bound_to 6896
  150.7836  133.8919  159.3325 H   0  0  0  0  0  0  0  0  0  0  0  0  # atno 6908 bound_to 6896
  151.6702  135.0978  160.0248 H   0  0  0  0  0  0  0  0  0  0  0  0  # atno 6909 bound_to 6896
  146.2389  140.1721  142.8332 H   0  0  0  0  0  0  0  0  0  0  0  0  # atno 7974 bound_to 7965
  154.8715  140.2959  155.5478 H   0  0  0  0  0  0  0  0  0  0  0  0  # atno 8008 bound_to 7997
  156.3021  140.2459  156.3638 H   0  0  0  0  0  0  0  0  0  0  0  0  # atno 8009 bound_to 7997
  154.8812  140.0398  157.1772 H   0  0  0  0  0  0  0  0  0  0  0  0  # atno 8010 bound_to 7997
  140.4574  144.0958  150.6205 H   0  0  0  0  0  0  0  0  0  0  0  0  # atno 10167 bound_to 10162
  157.4855  130.8342  149.8142 H   0  0  0  0  0  0  0  0  0  0  0  0  # atno 10718 bound_to 10713
  152.9793  135.5948  154.3904 H   0  0  0  0  0  0  0  0  0  0  0  0  # atno 10763 bound_to 10752
  154.3560  135.2767  155.2348 H   0  0  0  0  0  0  0  0  0  0  0  0  # atno 10764 bound_to 10752
  154.4366  135.6023  153.6157 H   0  0  0  0  0  0  0  0  0  0  0  0  # atno 10765 bound_to 10752
  140.3186  134.7456  157.4047 H   0  0  0  0  0  0  0  0  0  0  0  0  # atno 11005 bound_to 11000
  145.0003  140.8626  143.5285 LP  0  0  0  0  0  0  0  0  0  0  0  0  # atno 17320 bound_to 7965
  145.1739  139.2389  143.5327 LP  0  0  0  0  0  0  0  0  0  0  0  0  # atno 17321 bound_to 7965
  140.4135  143.2645  151.9804 LP  0  0  0  0  0  0  0  0  0  0  0  0  # atno 17342 bound_to 10162
  139.4802  144.5895  151.7797 LP  0  0  0  0  0  0  0  0  0  0  0  0  # atno 17343 bound_to 10162
  156.0144  130.3819  150.2157 LP  0  0  0  0  0  0  0  0  0  0  0  0  # atno 17370 bound_to 10713
  157.0344  131.0017  151.3302 LP  0  0  0  0  0  0  0  0  0  0  0  0  # atno 17371 bound_to 10713
  140.0961  134.5535  155.8397 LP  0  0  0  0  0  0  0  0  0  0  0  0  # atno 17394 bound_to 11000
  141.2092  133.6681  156.6421 LP  0  0  0  0  0  0  0  0  0  0  0  0  # atno 17395 bound_to 11000

$$$$
