AV-unprocessed.smi:1097|AV-procd|sdf|4751|dock6
  -GOLD-   22720 3283D 1   1.00000     0.00000
 Structure written by MMmdl.
 40 41  0  0  0  0  0  0  0  0  1 V2000
  146.2010  143.2340  161.7302 C   0  0  0  0  0  0  0  0  0  0  0  0
  146.3853  142.3371  160.6490 O   0  0  0  0  0  0  0  0  0  0  0  0
  146.9701  142.9626  159.5192 C   0  0  0  0  0  0  0  0  0  0  0  0
  146.7384  142.0848  158.2864 C   0  0  0  0  0  0  0  0  0  0  0  0
  147.9092  142.1234  157.4764 O   0  0  0  0  0  0  0  0  0  0  0  0
  147.8485  141.6277  156.1872 C   0  0  0  0  0  0  0  0  0  0  0  0
  146.6228  141.3714  155.6626 N   0  0  0  0  0  0  0  0  0  0  0  0
  146.5418  140.8986  154.4024 C   0  0  0  0  0  0  0  0  0  0  0  0
  147.6699  140.6549  153.5990 C   0  0  0  0  0  0  0  0  0  0  0  0
  148.9422  140.9185  154.1379 C   0  0  0  0  0  0  0  0  0  0  0  0
  149.0472  141.4220  155.4553 C   0  0  0  0  0  0  0  0  0  0  0  0
  150.3971  141.6892  156.0617 C   0  0  0  0  0  0  0  0  0  0  0  0
  151.3317  140.9005  155.9179 O   0  0  0  0  0  0  0  0  0  0  0  0
  150.4853  142.8152  156.7879 N   0  0  0  0  0  0  0  0  0  0  0  0
  151.6853  143.2689  157.4849 C   0  0  2  0  0  0  0  0  0  0  0  0
  152.1137  142.2798  158.5804 C   0  0  0  0  0  0  0  0  0  0  0  0
  152.3736  143.1688  159.7848 C   0  0  0  0  0  0  0  0  0  0  0  0
  152.8453  142.7446  160.8386 O   0  0  0  0  0  0  0  0  0  0  0  0
  152.0268  144.4339  159.5303 N   0  0  0  0  0  0  0  0  0  0  0  0
  152.1355  145.5499  160.4596 C   0  0  0  0  0  0  0  0  0  0  0  0
  151.4568  144.6124  158.2067 C   0  0  0  0  0  0  0  0  0  0  0  0
  145.7416  142.7088  162.5675 H   0  0  0  0  0  0  0  0  0  0  0  0
  145.5446  144.0591  161.4504 H   0  0  0  0  0  0  0  0  0  0  0  0
  147.1531  143.6434  162.0704 H   0  0  0  0  0  0  0  0  0  0  0  0
  146.5232  143.9458  159.3639 H   0  0  0  0  0  0  0  0  0  0  0  0
  148.0396  143.1071  159.6798 H   0  0  0  0  0  0  0  0  0  0  0  0
  146.5229  141.0613  158.5978 H   0  0  0  0  0  0  0  0  0  0  0  0
  145.8786  142.4584  157.7275 H   0  0  0  0  0  0  0  0  0  0  0  0
  145.5486  140.7082  154.0237 H   0  0  0  0  0  0  0  0  0  0  0  0
  147.5617  140.2713  152.5952 H   0  0  0  0  0  0  0  0  0  0  0  0
  149.8226  140.7284  153.5414 H   0  0  0  0  0  0  0  0  0  0  0  0
  149.6628  143.3955  156.8674 H   0  0  0  0  0  0  0  0  0  0  0  0
  152.5060  143.3732  156.7724 H   0  0  0  0  0  0  0  0  0  0  0  0
  151.3269  141.5658  158.8279 H   0  0  0  0  0  0  0  0  0  0  0  0
  153.0101  141.7249  158.3014 H   0  0  0  0  0  0  0  0  0  0  0  0
  153.1641  145.6631  160.8046 H   0  0  0  0  0  0  0  0  0  0  0  0
  151.4971  145.3862  161.3285 H   0  0  0  0  0  0  0  0  0  0  0  0
  151.8324  146.4855  159.9878 H   0  0  0  0  0  0  0  0  0  0  0  0
  151.9373  145.4365  157.6779 H   0  0  0  0  0  0  0  0  0  0  0  0
  150.3964  144.8487  158.3101 H   0  0  0  0  0  0  0  0  0  0  0  0
  1  2  1  0  0  0  0
  1 22  1  0  0  0  0
  1 23  1  0  0  0  0
  1 24  1  0  0  0  0
  2  3  1  0  0  0  0
  3  4  1  0  0  0  0
  3 25  1  0  0  0  0
  3 26  1  0  0  0  0
  4  5  1  0  0  0  0
  4 27  1  0  0  0  0
  4 28  1  0  0  0  0
  5  6  1  0  0  0  0
  6 11  1  0  0  0  0
  6  7  2  0  0  0  0
  7  8  1  0  0  0  0
  8  9  2  0  0  0  0
  8 29  1  0  0  0  0
  9 10  1  0  0  0  0
  9 30  1  0  0  0  0
 10 11  2  0  0  0  0
 10 31  1  0  0  0  0
 11 12  1  0  0  0  0
 12 13  2  0  0  0  0
 12 14  1  0  0  0  0
 14 15  1  0  0  0  0
 14 32  1  0  0  0  0
 15 21  1  0  0  0  0
 15 16  1  0  0  0  0
 15 33  1  0  0  0  0
 16 17  1  0  0  0  0
 16 34  1  0  0  0  0
 16 35  1  0  0  0  0
 17 18  2  0  0  0  0
 17 19  1  0  0  0  0
 19 20  1  0  0  0  0
 19 21  1  0  0  0  0
 20 36  1  0  0  0  0
 20 37  1  0  0  0  0
 20 38  1  0  0  0  0
 21 39  1  0  0  0  0
 21 40  1  0  0  0  0
M  END
> <s_m_source_file>
AV-unprocessed.smi

> <i_m_source_file_index>
1097

> <i_lp_mmshare_version>
43012

> <i_f3d_flags>
0

> <s_epik_input>
W0NIM11PW0NIMl1bQ0gyXU9jMW5bY0hdW2NIXVtjSF1jMUMoPU8pW05IXVtDQEBIXTJbQ0gyXUMoPU8pTihbQ0gzXSlbQ0gyXTI=

> <s_epik_cmdline>
J2VwaWtfcHl0aG9uJywgJy1waCcsICc3LjAnLCAnLXRuJywgJzgnLCAnLW1hJywgJzIwMCcsICctbWV0YWxfYmluZGluZycsICctaW1hZScsICc8aW5maWxlLm1hZT4nLCAnLW9tYWUnLCAnPG91dGZpbGUubWFlPic=

> <r_lp_tautomer_probability>
1

> <r_epik_Ionization_Penalty>
2.30122e-06

> <r_epik_Ionization_Penalty_Charging>
0

> <r_epik_Ionization_Penalty_Neutral>
2.30122e-06

> <r_epik_State_Penalty>
-0

> <r_epik_Charging_Adjusted_Penalty>
0

> <i_epik_Tot_Q>
0

> <i_epik_Tot_abs_Q>
0

> <r_epik_Metal_State_Penalty>
-0

> <b_epik_Metal_Only>
0

> <s_lp_Force_Field>
OPLS_2005

> <r_lp_Energy>
19.8502

> <b_lp_Chiralities_Consistent>
1

> <s_lp_Variant>
AV-unprocessed.smi:1097-1

> <Gold.Version>
5.8.1

> <Gold.Id.Protein>
6NUR|6NUR_protein|mol2

> <Gold.PLP.Fitness>
48.1970

> <Gold.PLP.PLP>
-42.2056

> <Gold.PLP.part.hbond>
-2.9032

> <Gold.PLP.part.metal>
0.0000

> <Gold.PLP.part.buried>
-6.0548

> <Gold.PLP.part.nonpolar>
-32.9776

> <Gold.PLP.part.repulsive>
0.3486

> <Gold.PLP.ligand.clash>
0.0000

> <Gold.PLP.ligand.torsion>
1.2094

> <Gold.PLP.Chemscore.Hbond>
1.7595

> <Gold.PLP.Chemscore.CHOScore>
1.0000

> <Gold.PLP.Chemscore.Metal>
0.0000

> <Gold.Chemscore.Hbonds>
donor molecule, donor type, donor heavy atom, donor atom, acceptor molecule, acceptor atom, score
      L1  H    14    32       P1  8028  0.64
      P1  H  6933  6944       L1     2  0.01
      P1  H  6934  6946       L1     2  1.00
      P1  H  7989  7998       L1    13  0.01
      L1  C     8    29       P1 10175  1.00

> <Gold.PLP.Chemscore.Internal.Correction>
0.1319

> <Gold.Rescore>
     Score         DG    S(hbond)    S(metal)    S(lipo)     H(rot)  DE(clash)    DE(int)     intcor
     13.96     -15.57       1.66        0.00      81.49       1.95       0.33       1.28       ----

> <Gold.Chemscore.Fitness>
13.9632

> <Gold.Chemscore.DG>
-15.5741

> <Gold.Chemscore.ZeroCoef>
-5.4800

> <Gold.Chemscore.Hbond>
1.6599

> <Gold.Chemscore.Metal>
0.0000

> <Gold.Chemscore.Lipo>
81.4856

> <Gold.Chemscore.Internal_Hbond>
0.0000

> <Gold.Chemscore.DEClash>
0.3321

> <Gold.Chemscore.DEInternal>
1.2789

> <Gold.Chemscore.Rot>
1.9468

> <Gold.Chemscore.Internal.Correction>
   9.000000E+99

> <Gold.Chemscore.Hbonds>
donor molecule, donor type, donor heavy atom, donor atom, acceptor molecule, acceptor atom, score
      L1  H    14    32       P1  8028  0.63
      P1  H  6934  6946       L1     2  0.66
      P1  H  7989  7998       L1    13  0.02

> <Gold.Chemscore.Hbond.Weighted>
-5.5442

> <Gold.Chemscore.Metal.Weighted>
-0.0000

> <Gold.Chemscore.Lipo.Weighted>
-9.5338

> <Gold.Chemscore.Internal_Hbond.Weighted>
0.0000

> <Gold.Chemscore.DEClash.Weighted>
0.3321

> <Gold.Chemscore.DEInternal.Weighted>
1.2789

> <Gold.Chemscore.Rot.Weighted>
4.9839

> <Gold.Chemscore.Internal.Correction.Weighted>
   9.000000E+99

> <Gold.Protein.RotatedTorsions>
[ 6907 6896 6895 6894 ] final  150.30 input  -60.11 | X-H torsion
[ 7974 7965 7964 7962 ] final -138.91 input  175.53 | X-H torsion
[ 8008 7997 7996 7995 ] final   66.42 input   59.86 | X-H torsion
[ 10167 10162 10161 10158 ] final  -92.57 input  -65.29 | X-H torsion
[ 10718 10713 10712 10709 ] final -102.98 input   66.30 | X-H torsion
[ 10763 10752 10751 10750 ] final  -52.10 input  -60.55 | X-H torsion
[ 11005 11000 10999 10996 ] final  -38.16 input  -57.11 | X-H torsion

> <Gold.Protein.ActiveResidues>
 VAL166  LYS551  ARG553  GLY616  TRP617  ASP618  TYR619  PRO620  LYS621  CYS622 
 ASP623  PHE694  ASN695  SER759  ASP760  ASP761  ALA762  ILE779  LEU786  VAL792 
 PHE793  MET794  SER795  GLU796  ALA797  LYS798  CYS799  TRP800  GLU811  SER814 

> <Gold.Protein.RotatedAtoms>
  152.1163  133.4328  159.4654 H   0  0  0  0  0  0  0  0  0  0  0  0  # atno 6907 bound_to 6896
  150.6869  134.2588  159.4550 H   0  0  0  0  0  0  0  0  0  0  0  0  # atno 6908 bound_to 6896
  152.0461  134.9681  160.0625 H   0  0  0  0  0  0  0  0  0  0  0  0  # atno 6909 bound_to 6896
  144.8719  140.6380  143.5261 H   0  0  0  0  0  0  0  0  0  0  0  0  # atno 7974 bound_to 7965
  155.6772  140.3497  155.4841 H   0  0  0  0  0  0  0  0  0  0  0  0  # atno 8008 bound_to 7997
  155.9638  140.1142  157.0895 H   0  0  0  0  0  0  0  0  0  0  0  0  # atno 8009 bound_to 7997
  154.4149  140.1170  156.5201 H   0  0  0  0  0  0  0  0  0  0  0  0  # atno 8010 bound_to 7997
  140.3334  143.2982  151.9916 H   0  0  0  0  0  0  0  0  0  0  0  0  # atno 10167 bound_to 10162
  156.0248  130.5446  150.7187 H   0  0  0  0  0  0  0  0  0  0  0  0  # atno 10718 bound_to 10713
  154.1372  135.6511  153.4934 H   0  0  0  0  0  0  0  0  0  0  0  0  # atno 10763 bound_to 10752
  153.0177  135.5307  154.6941 H   0  0  0  0  0  0  0  0  0  0  0  0  # atno 10764 bound_to 10752
  154.6193  135.2963  155.0315 H   0  0  0  0  0  0  0  0  0  0  0  0  # atno 10765 bound_to 10752
  141.0007  133.6957  156.2017 H   0  0  0  0  0  0  0  0  0  0  0  0  # atno 11005 bound_to 11000
  145.4114  139.1579  143.4124 LP  0  0  0  0  0  0  0  0  0  0  0  0  # atno 17320 bound_to 7965
  146.2936  140.4218  142.8730 LP  0  0  0  0  0  0  0  0  0  0  0  0  # atno 17321 bound_to 7965
  139.4852  144.6216  151.7244 LP  0  0  0  0  0  0  0  0  0  0  0  0  # atno 17342 bound_to 10162
  140.5376  144.0631  150.6076 LP  0  0  0  0  0  0  0  0  0  0  0  0  # atno 17343 bound_to 10162
  157.4808  131.0902  151.0538 LP  0  0  0  0  0  0  0  0  0  0  0  0  # atno 17370 bound_to 10713
  157.0972  130.5967  149.5452 LP  0  0  0  0  0  0  0  0  0  0  0  0  # atno 17371 bound_to 10713
  140.6894  134.4682  157.5589 LP  0  0  0  0  0  0  0  0  0  0  0  0  # atno 17394 bound_to 11000
  139.9037  134.8497  156.1791 LP  0  0  0  0  0  0  0  0  0  0  0  0  # atno 17395 bound_to 11000

$$$$
