AV-unprocessed.smi:827|AV-procd|sdf|3857|dock7
  -GOLD-   22720 1313D 1   1.00000     0.00000
 Structure written by MMmdl.
 47 48  0  0  0  0  0  0  0  0  2 V2000
  148.8964  131.7024  153.5917 C   0  0  0  0  0  0  0  0  0  0  0  0
  148.0587  132.6816  152.9869 O   0  0  0  0  0  0  0  0  0  0  0  0
  146.9269  132.2582  152.3162 C   0  0  0  0  0  0  0  0  0  0  0  0
  146.6497  130.9303  152.2933 N   0  0  0  0  0  0  0  0  0  0  0  0
  145.5467  130.5151  151.6377 C   0  0  0  0  0  0  0  0  0  0  0  0
  144.6720  131.3918  150.9701 C   0  0  0  0  0  0  0  0  0  0  0  0
  144.9574  132.7694  150.9916 C   0  0  0  0  0  0  0  0  0  0  0  0
  146.1041  133.2230  151.6886 C   0  0  0  0  0  0  0  0  0  0  0  0
  146.4971  134.5884  151.7633 N   0  0  0  0  0  0  0  0  0  0  0  0
  145.7231  135.6851  151.8251 C   0  0  0  0  0  0  0  0  0  0  0  0
  144.4923  135.6934  151.8249 O   0  0  0  0  0  0  0  0  0  0  0  0
  146.4652  136.7985  151.9087 N   0  0  0  0  0  0  0  0  0  0  0  0
  145.9293  138.1529  151.9858 C   0  0  0  0  0  0  0  0  0  0  0  0
  146.9666  139.1434  152.5504 C   0  0  0  0  0  0  0  0  0  0  0  0
  146.4015  140.0189  153.6079 N   0  3  0  0  0  0  0  0  0  0  0  0
  145.8872  139.2645  154.7853 C   0  0  0  0  0  0  0  0  0  0  0  0
  145.3213  140.2115  155.8593 C   0  0  0  0  0  0  0  0  0  0  0  0
  146.3528  141.1847  156.2300 N   0  0  0  0  0  0  0  0  0  0  0  0
  146.9795  141.2499  157.4293 C   0  0  0  0  0  0  0  0  0  0  0  0
  148.1007  142.2710  157.6344 C   0  0  0  0  0  0  0  0  0  0  0  0
  146.6836  140.5179  158.3736 O   0  0  0  0  0  0  0  0  0  0  0  0
  146.7394  142.0130  155.0848 C   0  0  0  0  0  0  0  0  0  0  0  0
  147.3384  141.1096  153.9913 C   0  0  0  0  0  0  0  0  0  0  0  0
  149.7345  132.1978  154.0814 H   0  0  0  0  0  0  0  0  0  0  0  0
  149.3057  131.0146  152.8503 H   0  0  0  0  0  0  0  0  0  0  0  0
  148.3599  131.1328  154.3521 H   0  0  0  0  0  0  0  0  0  0  0  0
  145.3585  129.4518  151.6413 H   0  0  0  0  0  0  0  0  0  0  0  0
  143.8042  131.0151  150.4490 H   0  0  0  0  0  0  0  0  0  0  0  0
  144.3010  133.4432  150.4638 H   0  0  0  0  0  0  0  0  0  0  0  0
  147.4916  134.7418  151.8479 H   0  0  0  0  0  0  0  0  0  0  0  0
  147.4704  136.7022  151.9058 H   0  0  0  0  0  0  0  0  0  0  0  0
  145.6335  138.4574  150.9816 H   0  0  0  0  0  0  0  0  0  0  0  0
  145.0195  138.1382  152.5864 H   0  0  0  0  0  0  0  0  0  0  0  0
  147.8404  138.6203  152.9419 H   0  0  0  0  0  0  0  0  0  0  0  0
  147.3243  139.7628  151.7262 H   0  0  0  0  0  0  0  0  0  0  0  0
  145.1058  138.5701  154.4791 H   0  0  0  0  0  0  0  0  0  0  0  0
  146.6935  138.6657  155.2125 H   0  0  0  0  0  0  0  0  0  0  0  0
  144.4555  140.7455  155.4647 H   0  0  0  0  0  0  0  0  0  0  0  0
  144.9445  139.6300  156.6995 H   0  0  0  0  0  0  0  0  0  0  0  0
  147.7332  143.2864  157.4828 H   0  0  0  0  0  0  0  0  0  0  0  0
  148.9247  142.0840  156.9452 H   0  0  0  0  0  0  0  0  0  0  0  0
  148.4959  142.2092  158.6492 H   0  0  0  0  0  0  0  0  0  0  0  0
  145.8582  142.5312  154.7036 H   0  0  0  0  0  0  0  0  0  0  0  0
  147.4527  142.7953  155.3477 H   0  0  0  0  0  0  0  0  0  0  0  0
  148.2742  140.6735  154.3451 H   0  0  0  0  0  0  0  0  0  0  0  0
  147.5795  141.7117  153.1143 H   0  0  0  0  0  0  0  0  0  0  0  0
  145.6036  140.4820  153.1967 H   0  0  0  0  0  0  0  0  0  0  0  0
  1  2  1  0  0  0  0
  1 24  1  0  0  0  0
  1 25  1  0  0  0  0
  1 26  1  0  0  0  0
  2  3  1  0  0  0  0
  3  8  1  0  0  0  0
  3  4  2  0  0  0  0
  4  5  1  0  0  0  0
  5  6  2  0  0  0  0
  5 27  1  0  0  0  0
  6  7  1  0  0  0  0
  6 28  1  0  0  0  0
  7  8  2  0  0  0  0
  7 29  1  0  0  0  0
  8  9  1  0  0  0  0
  9 10  1  0  0  0  0
  9 30  1  0  0  0  0
 10 11  2  0  0  0  0
 10 12  1  0  0  0  0
 12 13  1  0  0  0  0
 12 31  1  0  0  0  0
 13 14  1  0  0  0  0
 13 32  1  0  0  0  0
 13 33  1  0  0  0  0
 14 15  1  0  0  0  0
 14 34  1  0  0  0  0
 14 35  1  0  0  0  0
 15 23  1  0  0  0  0
 15 16  1  0  0  0  0
 15 47  1  0  0  0  0
 16 17  1  0  0  0  0
 16 36  1  0  0  0  0
 16 37  1  0  0  0  0
 17 18  1  0  0  0  0
 17 38  1  0  0  0  0
 17 39  1  0  0  0  0
 18 19  1  0  0  0  0
 18 22  1  0  0  0  0
 19 20  1  0  0  0  0
 19 21  2  0  0  0  0
 20 40  1  0  0  0  0
 20 41  1  0  0  0  0
 20 42  1  0  0  0  0
 22 23  1  0  0  0  0
 22 43  1  0  0  0  0
 22 44  1  0  0  0  0
 23 45  1  0  0  0  0
 23 46  1  0  0  0  0
M  CHG  1  15   1
M  END
> <s_m_source_file>
AV-unprocessed.smi

> <i_m_source_file_index>
827

> <i_lp_mmshare_version>
43012

> <i_f3d_flags>
0

> <s_epik_input>
W0NIM11PYzFuW2NIXVtjSF1bY0hdYzFbTkhdQyg9TylbTkhdW0NIMl1bQ0gyXU4yW0NIMl1bQ0gyXU4oQyg9TylbQ0gzXSlbQ0gyXVtDSDJdMg==

> <s_epik_cmdline>
J2VwaWtfcHl0aG9uJywgJy1waCcsICc3LjAnLCAnLXRuJywgJzgnLCAnLW1hJywgJzIwMCcsICctbWV0YWxfYmluZGluZycsICctaW1hZScsICc8aW5maWxlLm1hZT4nLCAnLW9tYWUnLCAnPG91dGZpbGUubWFlPic=

> <r_lp_tautomer_probability>
1

> <r_epik_Ionization_Penalty>
0.63011

> <r_epik_Ionization_Penalty_Charging>
0.630034

> <r_epik_Ionization_Penalty_Neutral>
7.67152e-05

> <r_epik_State_Penalty>
0.646805

> <r_epik_Charging_Adjusted_Penalty>
1.27684

> <i_epik_Tot_Q>
1

> <i_epik_Tot_abs_Q>
1

> <r_epik_Metal_State_Penalty>
0.64681

> <b_epik_Metal_Only>
0

> <s_lp_Force_Field>
OPLS_2005

> <r_lp_Energy>
42.7203

> <b_lp_Chiralities_Consistent>
1

> <s_lp_Variant>
AV-unprocessed.smi:827-2

> <Gold.Version>
5.8.1

> <Gold.Id.Protein>
6NUR|6NUR_protein|mol2

> <Gold.PLP.Fitness>
44.2916

> <Gold.PLP.PLP>
-34.0218

> <Gold.PLP.part.hbond>
-3.9637

> <Gold.PLP.part.metal>
0.0000

> <Gold.PLP.part.buried>
-3.1966

> <Gold.PLP.part.nonpolar>
-28.5998

> <Gold.PLP.part.repulsive>
0.8522

> <Gold.PLP.ligand.clash>
0.0000

> <Gold.PLP.ligand.torsion>
0.7344

> <Gold.PLP.Chemscore.Hbond>
3.8941

> <Gold.PLP.Chemscore.CHOScore>
0.0000

> <Gold.PLP.Chemscore.Metal>
0.0000

> <Gold.Chemscore.Hbonds>
donor molecule, donor type, donor heavy atom, donor atom, acceptor molecule, acceptor atom, score
      L1  H     9    30       P1  7948  0.87
      L1  H    12    31       P1  7948  1.00
      L1  H    15    47       P1 10175  1.92
      P1  H  6934  6946       L1    21  0.03

> <Gold.PLP.Chemscore.Internal.Correction>
0.0562

> <Gold.Rescore>
     Score         DG    S(hbond)    S(metal)    S(lipo)     H(rot)  DE(clash)    DE(int)     intcor
     15.93     -17.26       2.42        0.00      72.69       1.87       0.56       0.77       ----

> <Gold.Chemscore.Fitness>
15.9344

> <Gold.Chemscore.DG>
-17.2626

> <Gold.Chemscore.ZeroCoef>
-5.4800

> <Gold.Chemscore.Hbond>
2.4173

> <Gold.Chemscore.Metal>
0.0000

> <Gold.Chemscore.Lipo>
72.6865

> <Gold.Chemscore.Internal_Hbond>
0.0000

> <Gold.Chemscore.DEClash>
0.5575

> <Gold.Chemscore.DEInternal>
0.7707

> <Gold.Chemscore.Rot>
1.8732

> <Gold.Chemscore.Internal.Correction>
   9.000000E+99

> <Gold.Chemscore.Hbonds>
donor molecule, donor type, donor heavy atom, donor atom, acceptor molecule, acceptor atom, score
      L1  H     9    30       P1  7948  0.52
      L1  H    12    31       P1  7948  0.93
      L1  H    15    47       P1 10175  0.81
      P1  H  6934  6946       L1    21  0.04

> <Gold.Chemscore.Hbond.Weighted>
-8.0737

> <Gold.Chemscore.Metal.Weighted>
-0.0000

> <Gold.Chemscore.Lipo.Weighted>
-8.5043

> <Gold.Chemscore.Internal_Hbond.Weighted>
0.0000

> <Gold.Chemscore.DEClash.Weighted>
0.5575

> <Gold.Chemscore.DEInternal.Weighted>
0.7707

> <Gold.Chemscore.Rot.Weighted>
4.7955

> <Gold.Chemscore.Internal.Correction.Weighted>
   9.000000E+99

> <Gold.Protein.RotatedTorsions>
[ 6907 6896 6895 6894 ] final   56.25 input  -60.11 | X-H torsion
[ 7974 7965 7964 7962 ] final -143.94 input  175.53 | X-H torsion
[ 8008 7997 7996 7995 ] final  -35.39 input   59.86 | X-H torsion
[ 10167 10162 10161 10158 ] final  116.99 input  -65.29 | X-H torsion
[ 10718 10713 10712 10709 ] final  122.79 input   66.30 | X-H torsion
[ 10763 10752 10751 10750 ] final  123.39 input  -60.55 | X-H torsion
[ 11005 11000 10999 10996 ] final   56.48 input  -57.11 | X-H torsion

> <Gold.Protein.ActiveResidues>
 VAL166  LYS551  ARG553  GLY616  TRP617  ASP618  TYR619  PRO620  LYS621  CYS622 
 ASP623  PHE694  ASN695  SER759  ASP760  ASP761  ALA762  ILE779  LEU786  VAL792 
 PHE793  MET794  SER795  GLU796  ALA797  LYS798  CYS799  TRP800  GLU811  SER814 

> <Gold.Protein.RotatedAtoms>
  152.3618  134.6861  160.0204 H   0  0  0  0  0  0  0  0  0  0  0  0  # atno 6907 bound_to 6896
  151.7181  133.3308  159.3316 H   0  0  0  0  0  0  0  0  0  0  0  0  # atno 6908 bound_to 6896
  150.7610  134.6406  159.6280 H   0  0  0  0  0  0  0  0  0  0  0  0  # atno 6909 bound_to 6896
  144.8333  140.5773  143.5500 H   0  0  0  0  0  0  0  0  0  0  0  0  # atno 7974 bound_to 7965
  154.4097  140.1658  156.2203 H   0  0  0  0  0  0  0  0  0  0  0  0  # atno 8008 bound_to 7997
  155.9369  140.3411  155.6272 H   0  0  0  0  0  0  0  0  0  0  0  0  # atno 8009 bound_to 7997
  155.7037  140.0748  157.2390 H   0  0  0  0  0  0  0  0  0  0  0  0  # atno 8010 bound_to 7997
  139.6209  144.7101  151.2636 H   0  0  0  0  0  0  0  0  0  0  0  0  # atno 10167 bound_to 10162
  157.5715  131.1083  150.8358 H   0  0  0  0  0  0  0  0  0  0  0  0  # atno 10718 bound_to 10713
  153.6448  135.3373  155.3082 H   0  0  0  0  0  0  0  0  0  0  0  0  # atno 10763 bound_to 10752
  154.8551  135.4327  154.1966 H   0  0  0  0  0  0  0  0  0  0  0  0  # atno 10764 bound_to 10752
  153.2894  135.7016  153.7382 H   0  0  0  0  0  0  0  0  0  0  0  0  # atno 10765 bound_to 10752
  140.0526  134.5715  155.9246 H   0  0  0  0  0  0  0  0  0  0  0  0  # atno 11005 bound_to 11000
  145.4848  139.1493  143.3742 LP  0  0  0  0  0  0  0  0  0  0  0  0  # atno 17320 bound_to 7965
  146.2634  140.4985  142.8844 LP  0  0  0  0  0  0  0  0  0  0  0  0  # atno 17321 bound_to 7965
  140.7381  143.6657  150.8125 LP  0  0  0  0  0  0  0  0  0  0  0  0  # atno 17342 bound_to 10162
  140.0267  143.5485  152.2777 LP  0  0  0  0  0  0  0  0  0  0  0  0  # atno 17343 bound_to 10162
  156.8829  130.5185  149.5290 LP  0  0  0  0  0  0  0  0  0  0  0  0  # atno 17370 bound_to 10713
  156.0760  130.5782  150.9474 LP  0  0  0  0  0  0  0  0  0  0  0  0  # atno 17371 bound_to 10713
  141.1937  133.6580  156.5561 LP  0  0  0  0  0  0  0  0  0  0  0  0  # atno 17394 bound_to 11000
  140.3894  134.7454  157.4712 LP  0  0  0  0  0  0  0  0  0  0  0  0  # atno 17395 bound_to 11000

$$$$
