AV-unprocessed.smi:1880|AV-procd|sdf|7637|dock5
  -GOLD-   22720 9363D 1   1.00000     0.00000
 Structure written by MMmdl.
 37 39  0  0  0  0  0  0  0  0  2 V2000
  146.8496  137.4111  151.0287 O   0  0  0  0  0  0  0  0  0  0  0  0
  146.2600  137.9184  152.2094 C   0  0  2  0  0  0  0  0  0  0  0  0
  147.2061  138.9507  152.8436 C   0  0  0  0  0  0  0  0  0  0  0  0
  148.0228  138.3252  153.8203 O   0  0  0  0  0  0  0  0  0  0  0  0
  148.8511  139.2421  154.5127 C   0  0  0  0  0  0  0  0  0  0  0  0
  150.2155  138.6421  154.5368 C   0  0  0  0  0  0  0  0  0  0  0  0
  150.6838  137.3753  154.7517 C   0  0  0  0  0  0  0  0  0  0  0  0
  152.0997  137.4466  154.6340 C   0  0  0  0  0  0  0  0  0  0  0  0
  152.3891  138.7520  154.3552 C   0  0  0  0  0  0  0  0  0  0  0  0
  151.2505  139.4943  154.2914 O   0  0  0  0  0  0  0  0  0  0  0  0
  145.8439  136.7897  153.1738 C   0  0  0  0  0  0  0  0  0  0  0  0
  145.1007  135.7139  152.5028 N   0  0  0  0  0  0  0  0  0  0  0  0
  143.8749  135.7429  151.9131 C   0  0  0  0  0  0  0  0  0  0  0  0
  143.6172  134.4928  151.4384 N   0  3  0  0  0  0  0  0  0  0  0  0
  144.6940  133.6520  151.7289 C   0  0  0  0  0  0  0  0  0  0  0  0
  144.8975  132.3038  151.4534 C   0  0  0  0  0  0  0  0  0  0  0  0
  146.1161  131.7431  151.8892 C   0  0  0  0  0  0  0  0  0  0  0  0
  146.3637  130.4338  151.6490 F   0  0  0  0  0  0  0  0  0  0  0  0
  147.0796  132.5188  152.5681 C   0  0  0  0  0  0  0  0  0  0  0  0
  148.2375  131.9412  152.9670 F   0  0  0  0  0  0  0  0  0  0  0  0
  146.8623  133.8855  152.8409 C   0  0  0  0  0  0  0  0  0  0  0  0
  145.6527  134.4305  152.4109 C   0  0  0  0  0  0  0  0  0  0  0  0
  147.7016  137.0647  151.2435 H   0  0  0  0  0  0  0  0  0  0  0  0
  145.3607  138.4467  151.8907 H   0  0  0  0  0  0  0  0  0  0  0  0
  147.8163  139.4353  152.0793 H   0  0  0  0  0  0  0  0  0  0  0  0
  146.6147  139.7312  153.3249 H   0  0  0  0  0  0  0  0  0  0  0  0
  148.8686  140.2086  154.0068 H   0  0  0  0  0  0  0  0  0  0  0  0
  148.4855  139.3985  155.5285 H   0  0  0  0  0  0  0  0  0  0  0  0
  150.0814  136.5048  154.9655 H   0  0  0  0  0  0  0  0  0  0  0  0
  152.8154  136.6448  154.7392 H   0  0  0  0  0  0  0  0  0  0  0  0
  153.3051  139.2971  154.1803 H   0  0  0  0  0  0  0  0  0  0  0  0
  146.7048  136.3617  153.6874 H   0  0  0  0  0  0  0  0  0  0  0  0
  145.1956  137.1919  153.9534 H   0  0  0  0  0  0  0  0  0  0  0  0
  143.2235  136.6019  151.8370 H   0  0  0  0  0  0  0  0  0  0  0  0
  144.1640  131.7063  150.9322 H   0  0  0  0  0  0  0  0  0  0  0  0
  147.6101  134.4694  153.3572 H   0  0  0  0  0  0  0  0  0  0  0  0
  142.7667  134.2354  150.9534 H   0  0  0  0  0  0  0  0  0  0  0  0
  1  2  1  0  0  0  0
  1 23  1  0  0  0  0
  2  3  1  0  0  0  0
  2 11  1  0  0  0  0
  2 24  1  0  0  0  0
  3  4  1  0  0  0  0
  3 25  1  0  0  0  0
  3 26  1  0  0  0  0
  4  5  1  0  0  0  0
  5  6  1  0  0  0  0
  5 27  1  0  0  0  0
  5 28  1  0  0  0  0
  6 10  1  0  0  0  0
  6  7  2  0  0  0  0
  7  8  1  0  0  0  0
  7 29  1  0  0  0  0
  8  9  2  0  0  0  0
  8 30  1  0  0  0  0
  9 10  1  0  0  0  0
  9 31  1  0  0  0  0
 11 12  1  0  0  0  0
 11 32  1  0  0  0  0
 11 33  1  0  0  0  0
 12 22  1  0  0  0  0
 12 13  1  0  0  0  0
 13 14  2  0  0  0  0
 13 34  1  0  0  0  0
 14 15  1  0  0  0  0
 14 37  1  0  0  0  0
 15 22  2  0  0  0  0
 15 16  1  0  0  0  0
 16 17  2  0  0  0  0
 16 35  1  0  0  0  0
 17 18  1  0  0  0  0
 17 19  1  0  0  0  0
 19 20  1  0  0  0  0
 19 21  2  0  0  0  0
 21 22  1  0  0  0  0
 21 36  1  0  0  0  0
M  CHG  1  14   1
M  END
> <s_m_source_file>
AV-unprocessed.smi

> <i_m_source_file_index>
1880

> <i_lp_mmshare_version>
43012

> <i_f3d_flags>
0

> <s_epik_input>
W2NIXTFjKEYpYyhGKVtjSF1jKGMxMiluKFtjSF1uMilbQ0gyXVtDQEhdKFtPSF0pW0NIMl1PW0NIMl1jM1tjSF1bY0hdW2NIXW8z

> <s_epik_cmdline>
J2VwaWtfcHl0aG9uJywgJy1waCcsICc3LjAnLCAnLXRuJywgJzgnLCAnLW1hJywgJzIwMCcsICctbWV0YWxfYmluZGluZycsICctaW1hZScsICc8aW5maWxlLm1hZT4nLCAnLW9tYWUnLCAnPG91dGZpbGUubWFlPic=

> <r_epik_Ionization_Penalty>
2.17656

> <r_epik_Ionization_Penalty_Charging>
2.17656

> <r_epik_Ionization_Penalty_Neutral>
9.34185e-07

> <r_epik_State_Penalty>
2.31826

> <r_epik_Charging_Adjusted_Penalty>
4.49482

> <i_epik_Tot_Q>
1

> <i_epik_Tot_abs_Q>
1

> <r_epik_Metal_State_Penalty>
6.39906

> <b_epik_Metal_Only>
0

> <s_lp_Force_Field>
OPLS_2005

> <r_lp_Energy>
13.1736

> <b_lp_Chiralities_Consistent>
1

> <s_lp_Variant>
AV-unprocessed.smi:1880-3

> <Gold.Version>
5.8.1

> <Gold.Id.Protein>
6NUR|6NUR_protein|mol2

> <Gold.PLP.Fitness>
51.8868

> <Gold.PLP.PLP>
-39.4744

> <Gold.PLP.part.hbond>
-4.0000

> <Gold.PLP.part.metal>
0.0000

> <Gold.PLP.part.buried>
-2.5485

> <Gold.PLP.part.nonpolar>
-33.1948

> <Gold.PLP.part.repulsive>
0.3036

> <Gold.PLP.ligand.clash>
0.0000

> <Gold.PLP.ligand.torsion>
1.0679

> <Gold.PLP.Chemscore.Hbond>
4.0000

> <Gold.PLP.Chemscore.CHOScore>
0.8233

> <Gold.PLP.Chemscore.Metal>
0.0000

> <Gold.Chemscore.Hbonds>
donor molecule, donor type, donor heavy atom, donor atom, acceptor molecule, acceptor atom, score
      L1  H     1    23       P1  7948  1.00
      L1  H    14    37       P1 10186  0.91
      P1  H  7989  7998       L1    10  1.00
      L1  C    13    34       P1 10171  0.07

> <Gold.PLP.Chemscore.Internal.Correction>
0.0784

> <Gold.Rescore>
     Score         DG    S(hbond)    S(metal)    S(lipo)     H(rot)  DE(clash)    DE(int)     intcor
     14.34     -16.09       2.56        0.00      81.94       2.94       0.58       1.16       ----

> <Gold.Chemscore.Fitness>
14.3442

> <Gold.Chemscore.DG>
-16.0924

> <Gold.Chemscore.ZeroCoef>
-5.4800

> <Gold.Chemscore.Hbond>
2.5581

> <Gold.Chemscore.Metal>
0.0000

> <Gold.Chemscore.Lipo>
81.9384

> <Gold.Chemscore.Internal_Hbond>
0.0000

> <Gold.Chemscore.DEClash>
0.5836

> <Gold.Chemscore.DEInternal>
1.1645

> <Gold.Chemscore.Rot>
2.9369

> <Gold.Chemscore.Internal.Correction>
   9.000000E+99

> <Gold.Chemscore.Hbonds>
donor molecule, donor type, donor heavy atom, donor atom, acceptor molecule, acceptor atom, score
      L1  H     1    23       P1  7948  0.97
      L1  H    14    37       P1 10186  0.18
      P1  H  7989  7998       L1    10  0.55

> <Gold.Chemscore.Hbond.Weighted>
-8.5441

> <Gold.Chemscore.Metal.Weighted>
-0.0000

> <Gold.Chemscore.Lipo.Weighted>
-9.5868

> <Gold.Chemscore.Internal_Hbond.Weighted>
0.0000

> <Gold.Chemscore.DEClash.Weighted>
0.5836

> <Gold.Chemscore.DEInternal.Weighted>
1.1645

> <Gold.Chemscore.Rot.Weighted>
7.5185

> <Gold.Chemscore.Internal.Correction.Weighted>
   9.000000E+99

> <Gold.Protein.RotatedTorsions>
[ 6907 6896 6895 6894 ] final -136.99 input  -60.11 | X-H torsion
[ 7974 7965 7964 7962 ] final  -21.59 input  175.53 | X-H torsion
[ 8008 7997 7996 7995 ] final -169.76 input   59.86 | X-H torsion
[ 10167 10162 10161 10158 ] final   59.92 input  -65.29 | X-H torsion
[ 10718 10713 10712 10709 ] final  155.06 input   66.30 | X-H torsion
[ 10763 10752 10751 10750 ] final   82.94 input  -60.55 | X-H torsion
[ 11005 11000 10999 10996 ] final   38.70 input  -57.11 | X-H torsion

> <Gold.Protein.ActiveResidues>
 VAL166  LYS551  ARG553  GLY616  TRP617  ASP618  TYR619  PRO620  LYS621  CYS622 
 ASP623  PHE694  ASN695  SER759  ASP760  ASP761  ALA762  ILE779  LEU786  VAL792 
 PHE793  MET794  SER795  GLU796  ALA797  LYS798  CYS799  TRP800  GLU811  SER814 

> <Gold.Protein.RotatedAtoms>
  151.0169  133.5913  159.2675 H   0  0  0  0  0  0  0  0  0  0  0  0  # atno 6907 bound_to 6896
  151.3044  135.0776  159.9260 H   0  0  0  0  0  0  0  0  0  0  0  0  # atno 6908 bound_to 6896
  152.5313  133.9845  159.7876 H   0  0  0  0  0  0  0  0  0  0  0  0  # atno 6909 bound_to 6896
  146.1724  140.4362  142.8527 H   0  0  0  0  0  0  0  0  0  0  0  0  # atno 7974 bound_to 7965
  155.9093  140.1054  157.1292 H   0  0  0  0  0  0  0  0  0  0  0  0  # atno 8008 bound_to 7997
  154.4037  140.1277  156.4601 H   0  0  0  0  0  0  0  0  0  0  0  0  # atno 8009 bound_to 7997
  155.7330  140.3468  155.5070 H   0  0  0  0  0  0  0  0  0  0  0  0  # atno 8010 bound_to 7997
  140.1712  144.4274  150.6660 H   0  0  0  0  0  0  0  0  0  0  0  0  # atno 10167 bound_to 10162
  157.2233  131.0723  151.1898 H   0  0  0  0  0  0  0  0  0  0  0  0  # atno 10718 bound_to 10713
  153.1247  135.4709  154.9253 H   0  0  0  0  0  0  0  0  0  0  0  0  # atno 10763 bound_to 10752
  154.7609  135.3131  154.8382 H   0  0  0  0  0  0  0  0  0  0  0  0  # atno 10764 bound_to 10752
  153.8938  135.6882  153.4813 H   0  0  0  0  0  0  0  0  0  0  0  0  # atno 10765 bound_to 10752
  140.2100  134.3766  155.8053 H   0  0  0  0  0  0  0  0  0  0  0  0  # atno 11005 bound_to 11000
  144.8184  140.6507  143.6369 LP  0  0  0  0  0  0  0  0  0  0  0  0  # atno 17320 bound_to 7965
  145.4304  139.1550  143.4025 LP  0  0  0  0  0  0  0  0  0  0  0  0  # atno 17321 bound_to 7965
  140.6580  143.2243  151.5922 LP  0  0  0  0  0  0  0  0  0  0  0  0  # atno 17342 bound_to 10162
  139.5337  144.2842  152.1204 LP  0  0  0  0  0  0  0  0  0  0  0  0  # atno 17343 bound_to 10162
  157.3553  130.7103  149.6467 LP  0  0  0  0  0  0  0  0  0  0  0  0  # atno 17370 bound_to 10713
  155.9680  130.4241  150.4592 LP  0  0  0  0  0  0  0  0  0  0  0  0  # atno 17371 bound_to 10713
  141.2226  133.7138  156.8402 LP  0  0  0  0  0  0  0  0  0  0  0  0  # atno 17394 bound_to 11000
  140.1961  134.8931  157.3116 LP  0  0  0  0  0  0  0  0  0  0  0  0  # atno 17395 bound_to 11000

$$$$
