AV-unprocessed.smi:37|AV-procd|sdf|319|dock8
  -GOLD-   2262016143D 1   1.00000     0.00000
 Structure written by MMmdl.
 43 44  0  0  0  0  0  0  0  0  2 V2000
  145.7808  132.0287  150.5153 C   0  0  0  0  0  0  0  0  0  0  0  0
  146.6145  133.1010  151.2299 C   0  0  0  0  0  0  0  0  0  0  0  0
  147.1051  132.6337  152.5984 C   0  0  0  0  0  0  0  0  0  0  0  0
  146.3173  132.2764  153.4746 O   0  0  0  0  0  0  0  0  0  0  0  0
  148.4422  132.6723  152.7102 O   0  0  0  0  0  0  0  0  0  0  0  0
  149.0562  132.2693  153.9228 C   0  0  0  0  0  0  0  0  0  0  0  0
  149.0147  133.4296  154.9225 C   0  0  2  0  0  0  0  0  0  0  0  0
  149.7846  134.5293  154.4333 O   0  0  0  0  0  0  0  0  0  0  0  0
  150.7216  134.9214  155.3909 C   0  0  1  0  0  0  0  0  0  0  0  0
  150.8909  136.4228  155.3713 N   0  0  0  0  0  0  0  0  0  0  0  0
  150.0147  137.2387  154.6743 C   0  0  0  0  0  0  0  0  0  0  0  0
  150.1698  138.5785  154.6614 C   0  0  0  0  0  0  0  0  0  0  0  0
  149.3013  139.3460  153.9806 F   0  0  0  0  0  0  0  0  0  0  0  0
  151.2813  139.1857  155.3914 C   0  0  0  0  0  0  0  0  0  0  0  0
  151.4194  140.4077  155.3735 O   0  0  0  0  0  0  0  0  0  0  0  0
  152.1275  138.3570  156.0696 N   0  5  0  0  0  0  0  0  0  0  0  0
  151.9734  137.0006  156.0874 C   0  0  0  0  0  0  0  0  0  0  0  0
  152.7285  136.2437  156.6981 O   0  0  0  0  0  0  0  0  0  0  0  0
  150.2109  134.3959  156.7338 C   0  0  1  0  0  0  0  0  0  0  0  0
  148.7727  135.5621  157.4939 Br  0  0  0  0  0  0  0  0  0  0  0  0
  149.6298  133.0687  156.2796 C   0  0  1  0  0  0  0  0  0  0  0  0
  148.6577  132.5515  157.1791 O   0  0  0  0  0  0  0  0  0  0  0  0
  149.0313  132.0742  158.3799 C   0  0  0  0  0  0  0  0  0  0  0  0
  150.1867  131.8480  158.7397 O   0  0  0  0  0  0  0  0  0  0  0  0
  147.8466  131.8392  159.3141 C   0  0  0  0  0  0  0  0  0  0  0  0
  147.9822  132.6154  160.6311 C   0  0  0  0  0  0  0  0  0  0  0  0
  145.4187  132.4007  149.5567 H   0  0  0  0  0  0  0  0  0  0  0  0
  144.9112  131.7421  151.1080 H   0  0  0  0  0  0  0  0  0  0  0  0
  146.3665  131.1298  150.3197 H   0  0  0  0  0  0  0  0  0  0  0  0
  147.4768  133.3716  150.6201 H   0  0  0  0  0  0  0  0  0  0  0  0
  146.0207  134.0064  151.3584 H   0  0  0  0  0  0  0  0  0  0  0  0
  148.5101  131.4146  154.3247 H   0  0  0  0  0  0  0  0  0  0  0  0
  150.0857  131.9516  153.7509 H   0  0  0  0  0  0  0  0  0  0  0  0
  147.9897  133.7757  155.0656 H   0  0  0  0  0  0  0  0  0  0  0  0
  151.6895  134.5031  155.1078 H   0  0  0  0  0  0  0  0  0  0  0  0
  149.1833  136.8102  154.1350 H   0  0  0  0  0  0  0  0  0  0  0  0
  151.0141  134.3021  157.4652 H   0  0  0  0  0  0  0  0  0  0  0  0
  150.4401  132.3551  156.1189 H   0  0  0  0  0  0  0  0  0  0  0  0
  146.9303  132.1356  158.8027 H   0  0  0  0  0  0  0  0  0  0  0  0
  147.7646  130.7709  159.5160 H   0  0  0  0  0  0  0  0  0  0  0  0
  147.1060  132.4591  161.2601 H   0  0  0  0  0  0  0  0  0  0  0  0
  148.0738  133.6873  160.4524 H   0  0  0  0  0  0  0  0  0  0  0  0
  148.8558  132.2922  161.1982 H   0  0  0  0  0  0  0  0  0  0  0  0
  1  2  1  0  0  0  0
  1 27  1  0  0  0  0
  1 28  1  0  0  0  0
  1 29  1  0  0  0  0
  2  3  1  0  0  0  0
  2 30  1  0  0  0  0
  2 31  1  0  0  0  0
  3  4  2  0  0  0  0
  3  5  1  0  0  0  0
  5  6  1  0  0  0  0
  6  7  1  0  0  0  0
  6 32  1  0  0  0  0
  6 33  1  0  0  0  0
  7 21  1  0  0  0  0
  7  8  1  0  0  0  0
  7 34  1  0  0  0  0
  8  9  1  0  0  0  0
  9 10  1  0  0  0  0
  9 19  1  0  0  0  0
  9 35  1  0  0  0  0
 10 17  1  0  0  0  0
 10 11  1  0  0  0  0
 11 12  2  0  0  0  0
 11 36  1  0  0  0  0
 12 13  1  0  0  0  0
 12 14  1  0  0  0  0
 14 15  2  0  0  0  0
 14 16  1  0  0  0  0
 16 17  1  0  0  0  0
 17 18  2  0  0  0  0
 19 20  1  0  0  0  0
 19 21  1  0  0  0  0
 19 37  1  0  0  0  0
 21 22  1  0  0  0  0
 21 38  1  0  0  0  0
 22 23  1  0  0  0  0
 23 24  2  0  0  0  0
 23 25  1  0  0  0  0
 25 26  1  0  0  0  0
 25 39  1  0  0  0  0
 25 40  1  0  0  0  0
 26 41  1  0  0  0  0
 26 42  1  0  0  0  0
 26 43  1  0  0  0  0
M  CHG  1  16  -1
M  END
> <s_m_source_file>
AV-unprocessed.smi

> <i_m_source_file_index>
37

> <i_lp_mmshare_version>
43012

> <i_f3d_flags>
0

> <s_epik_input>
W0NIM11bQ0gyXUMoPU8pT1tDSDJdW0NAQEhdMU9bQ0BASF0objJbY0hdYyhGKWMoPU8pW25IXWMyPU8pW0NAQEhdKEJyKVtDQEhdMU9DKD1PKVtDSDJdW0NIM10=

> <s_epik_cmdline>
J2VwaWtfcHl0aG9uJywgJy1waCcsICc3LjAnLCAnLXRuJywgJzgnLCAnLW1hJywgJzIwMCcsICctbWV0YWxfYmluZGluZycsICctaW1hZScsICc8aW5maWxlLm1hZT4nLCAnLW9tYWUnLCAnPG91dGZpbGUubWFlPic=

> <r_epik_Ionization_Penalty>
1.08158

> <r_epik_Ionization_Penalty_Charging>
9.05154e-09

> <r_epik_Ionization_Penalty_Neutral>
1.08158

> <r_epik_State_Penalty>
1.13706

> <r_epik_Charging_Adjusted_Penalty>
1.13706

> <i_epik_Tot_Q>
-1

> <i_epik_Tot_abs_Q>
1

> <r_epik_Metal_State_Penalty>
0.00343535

> <b_epik_Metal_Only>
0

> <s_epik_Chemistry_Notes>
This compound has an ester and may undergo hydrolysis at high or low pH. This compound contains an acetal/aminal-like group ( X-CH(R)-Y where X, Y are N, S, or O) that may be acid/base labile, releasing an aldehyde.

> <s_lp_Force_Field>
OPLS_2005

> <r_lp_Energy>
34.8687

> <b_lp_Chiralities_Consistent>
1

> <s_lp_Variant>
AV-unprocessed.smi:37-17

> <Gold.Version>
5.8.1

> <Gold.Id.Protein>
6NUR|6NUR_protein|mol2

> <Gold.PLP.Fitness>
43.6246

> <Gold.PLP.PLP>
-33.0837

> <Gold.PLP.part.hbond>
-3.0000

> <Gold.PLP.part.metal>
0.0000

> <Gold.PLP.part.buried>
-2.6483

> <Gold.PLP.part.nonpolar>
-29.1446

> <Gold.PLP.part.repulsive>
1.2034

> <Gold.PLP.ligand.clash>
0.0000

> <Gold.PLP.ligand.torsion>
0.5656

> <Gold.PLP.Chemscore.Hbond>
2.7771

> <Gold.PLP.Chemscore.CHOScore>
1.0000

> <Gold.PLP.Chemscore.Metal>
0.0000

> <Gold.Chemscore.Hbonds>
donor molecule, donor type, donor heavy atom, donor atom, acceptor molecule, acceptor atom, score
      P1  H  6896  6907       L1    24  1.00
      P1  H  7989  7998       L1    15  0.90
      P1  H 10752 10765       L1    18  1.00
      L1  C    11    36       P1  7948  1.00

> <Gold.PLP.Chemscore.Internal.Correction>
0.3407

> <Gold.Rescore>
     Score         DG    S(hbond)    S(metal)    S(lipo)     H(rot)  DE(clash)    DE(int)     intcor
      9.56     -11.24       2.17        0.00      58.80       3.27       0.86       0.82       ----

> <Gold.Chemscore.Fitness>
9.5566

> <Gold.Chemscore.DG>
-11.2419

> <Gold.Chemscore.ZeroCoef>
-5.4800

> <Gold.Chemscore.Hbond>
2.1694

> <Gold.Chemscore.Metal>
0.0000

> <Gold.Chemscore.Lipo>
58.7979

> <Gold.Chemscore.Internal_Hbond>
0.0000

> <Gold.Chemscore.DEClash>
0.8626

> <Gold.Chemscore.DEInternal>
0.8227

> <Gold.Chemscore.Rot>
3.2669

> <Gold.Chemscore.Internal.Correction>
   9.000000E+99

> <Gold.Chemscore.Hbonds>
donor molecule, donor type, donor heavy atom, donor atom, acceptor molecule, acceptor atom, score
      P1  H  6896  6907       L1    24  0.84
      P1  H  7989  7998       L1    15  0.48
      P1  H 10752 10765       L1    18  0.42

> <Gold.Chemscore.Hbond.Weighted>
-7.2459

> <Gold.Chemscore.Metal.Weighted>
-0.0000

> <Gold.Chemscore.Lipo.Weighted>
-6.8794

> <Gold.Chemscore.Internal_Hbond.Weighted>
0.0000

> <Gold.Chemscore.DEClash.Weighted>
0.8626

> <Gold.Chemscore.DEInternal.Weighted>
0.8227

> <Gold.Chemscore.Rot.Weighted>
8.3634

> <Gold.Chemscore.Internal.Correction.Weighted>
   9.000000E+99

> <Gold.Protein.RotatedTorsions>
[ 6907 6896 6895 6894 ] final -150.26 input  -60.11 | X-H torsion
[ 7974 7965 7964 7962 ] final  -33.81 input  175.53 | X-H torsion
[ 8008 7997 7996 7995 ] final -101.18 input   59.86 | X-H torsion
[ 10167 10162 10161 10158 ] final -127.54 input  -65.29 | X-H torsion
[ 10718 10713 10712 10709 ] final   91.31 input   66.30 | X-H torsion
[ 10763 10752 10751 10750 ] final -112.64 input  -60.55 | X-H torsion
[ 11005 11000 10999 10996 ] final  179.80 input  -57.11 | X-H torsion

> <Gold.Protein.ActiveResidues>
 VAL166  LYS551  ARG553  GLY616  TRP617  ASP618  TYR619  PRO620  LYS621  CYS622 
 ASP623  PHE694  ASN695  SER759  ASP760  ASP761  ALA762  ILE779  LEU786  VAL792 
 PHE793  MET794  SER795  GLU796  ALA797  LYS798  CYS799  TRP800  GLU811  SER814 

> <Gold.Protein.RotatedAtoms>
  151.1960  133.4638  159.2595 H   0  0  0  0  0  0  0  0  0  0  0  0  # atno 6907 bound_to 6896
  151.1116  135.0030  159.8506 H   0  0  0  0  0  0  0  0  0  0  0  0  # atno 6908 bound_to 6896
  152.5451  134.1879  159.8715 H   0  0  0  0  0  0  0  0  0  0  0  0  # atno 6909 bound_to 6896
  146.0880  140.5962  142.8877 H   0  0  0  0  0  0  0  0  0  0  0  0  # atno 7974 bound_to 7965
  154.8390  140.0436  157.1528 H   0  0  0  0  0  0  0  0  0  0  0  0  # atno 8008 bound_to 7997
  154.9068  140.3008  155.5267 H   0  0  0  0  0  0  0  0  0  0  0  0  # atno 8009 bound_to 7997
  156.2991  140.2365  156.4103 H   0  0  0  0  0  0  0  0  0  0  0  0  # atno 8010 bound_to 7997
  139.9598  143.5963  152.2449 H   0  0  0  0  0  0  0  0  0  0  0  0  # atno 10167 bound_to 10162
  157.6960  131.0402  150.3710 H   0  0  0  0  0  0  0  0  0  0  0  0  # atno 10718 bound_to 10713
  154.8359  135.4483  154.1225 H   0  0  0  0  0  0  0  0  0  0  0  0  # atno 10763 bound_to 10752
  153.2457  135.6921  153.7740 H   0  0  0  0  0  0  0  0  0  0  0  0  # atno 10764 bound_to 10752
  153.7070  135.3362  155.3214 H   0  0  0  0  0  0  0  0  0  0  0  0  # atno 10765 bound_to 10752
  140.4102  134.6698  157.4610 H   0  0  0  0  0  0  0  0  0  0  0  0  # atno 11005 bound_to 11000
  144.7340  140.4754  143.6917 LP  0  0  0  0  0  0  0  0  0  0  0  0  # atno 17320 bound_to 7965
  145.6093  139.1511  143.3085 LP  0  0  0  0  0  0  0  0  0  0  0  0  # atno 17321 bound_to 7965
  139.6563  144.7662  151.2049 LP  0  0  0  0  0  0  0  0  0  0  0  0  # atno 17342 bound_to 10162
  140.7557  143.6081  150.8633 LP  0  0  0  0  0  0  0  0  0  0  0  0  # atno 17343 bound_to 10162
  156.4134  130.3938  149.6875 LP  0  0  0  0  0  0  0  0  0  0  0  0  # atno 17370 bound_to 10713
  156.4151  130.7741  151.2756 LP  0  0  0  0  0  0  0  0  0  0  0  0  # atno 17371 bound_to 10713
  140.0273  134.6458  155.9155 LP  0  0  0  0  0  0  0  0  0  0  0  0  # atno 17394 bound_to 11000
  141.1824  133.6549  156.5074 LP  0  0  0  0  0  0  0  0  0  0  0  0  # atno 17395 bound_to 11000

$$$$
