AV-unprocessed.smi:573|AV-procd|sdf|2970|dock8
  -GOLD-   2262023473D 1   1.00000     0.00000
 Structure written by MMmdl.
 45 47  0  0  0  0  0  0  0  0  2 V2000
  146.8484  141.4345  153.2669 C   0  0  0  0  0  0  0  0  0  0  0  0
  148.0741  140.8780  154.0093 C   0  0  1  0  0  0  0  0  0  0  0  0
  149.2459  141.1011  153.2531 O   0  0  0  0  0  0  0  0  0  0  0  0
  148.2608  141.3943  155.4541 C   0  0  0  0  0  0  0  0  0  0  0  0
  149.3855  140.7936  156.1603 N   0  0  0  0  0  0  0  0  0  0  0  0
  150.1972  141.5838  156.9825 C   0  0  0  0  0  0  0  0  0  0  0  0
  150.2644  142.9416  156.9805 N   0  3  0  0  0  0  0  0  0  0  0  0
  151.1768  143.3384  157.9616 C   0  0  0  0  0  0  0  0  0  0  0  0
  151.5873  144.6076  158.3580 C   0  0  0  0  0  0  0  0  0  0  0  0
  152.5305  144.6707  159.4045 C   0  0  0  0  0  0  0  0  0  0  0  0
  153.0288  143.5023  160.0163 C   0  0  0  0  0  0  0  0  0  0  0  0
  152.6094  142.2197  159.6067 C   0  0  0  0  0  0  0  0  0  0  0  0
  151.6792  142.1621  158.5690 C   0  0  0  0  0  0  0  0  0  0  0  0
  151.0497  141.0926  157.9180 N   0  0  0  0  0  0  0  0  0  0  0  0
  151.3434  139.7076  158.3143 C   0  0  0  0  0  0  0  0  0  0  0  0
  151.7741  138.8478  157.1155 C   0  0  1  0  0  0  0  0  0  0  0  0
  150.6206  137.9852  156.5712 C   0  0  0  0  0  0  0  0  0  0  0  0
  151.0827  137.1851  155.3479 C   0  0  0  0  0  0  0  0  0  0  0  0
  151.7083  138.1300  154.3160 C   0  0  0  0  0  0  0  0  0  0  0  0
  152.7996  138.9916  154.9710 C   0  0  0  0  0  0  0  0  0  0  0  0
  152.2547  139.7014  156.0784 O   0  0  0  0  0  0  0  0  0  0  0  0
  145.9370  141.2839  153.8456 H   0  0  0  0  0  0  0  0  0  0  0  0
  146.7151  140.9356  152.3066 H   0  0  0  0  0  0  0  0  0  0  0  0
  146.9485  142.5013  153.0670 H   0  0  0  0  0  0  0  0  0  0  0  0
  147.9652  139.7944  154.0643 H   0  0  0  0  0  0  0  0  0  0  0  0
  149.3274  140.4087  152.6152 H   0  0  0  0  0  0  0  0  0  0  0  0
  148.4689  142.4636  155.4121 H   0  0  0  0  0  0  0  0  0  0  0  0
  147.3407  141.2934  156.0310 H   0  0  0  0  0  0  0  0  0  0  0  0
  149.3861  139.7923  156.2931 H   0  0  0  0  0  0  0  0  0  0  0  0
  151.2037  145.5050  157.8952 H   0  0  0  0  0  0  0  0  0  0  0  0
  152.8765  145.6351  159.7475 H   0  0  0  0  0  0  0  0  0  0  0  0
  153.7470  143.5906  160.8185 H   0  0  0  0  0  0  0  0  0  0  0  0
  152.9934  141.3334  160.0894 H   0  0  0  0  0  0  0  0  0  0  0  0
  152.1381  139.7394  159.0605 H   0  0  0  0  0  0  0  0  0  0  0  0
  150.4724  139.2827  158.8125 H   0  0  0  0  0  0  0  0  0  0  0  0
  152.5869  138.1950  157.4373 H   0  0  0  0  0  0  0  0  0  0  0  0
  150.2574  137.3074  157.3442 H   0  0  0  0  0  0  0  0  0  0  0  0
  149.7811  138.6239  156.2939 H   0  0  0  0  0  0  0  0  0  0  0  0
  151.8169  136.4384  155.6534 H   0  0  0  0  0  0  0  0  0  0  0  0
  150.2453  136.6419  154.9092 H   0  0  0  0  0  0  0  0  0  0  0  0
  152.1247  137.5600  153.4849 H   0  0  0  0  0  0  0  0  0  0  0  0
  150.9371  138.7774  153.8972 H   0  0  0  0  0  0  0  0  0  0  0  0
  153.6402  138.3773  155.2974 H   0  0  0  0  0  0  0  0  0  0  0  0
  153.1925  139.7105  154.2519 H   0  0  0  0  0  0  0  0  0  0  0  0
  149.7227  143.5420  156.3730 H   0  0  0  0  0  0  0  0  0  0  0  0
  1  2  1  0  0  0  0
  1 22  1  0  0  0  0
  1 23  1  0  0  0  0
  1 24  1  0  0  0  0
  2  3  1  0  0  0  0
  2  4  1  0  0  0  0
  2 25  1  0  0  0  0
  3 26  1  0  0  0  0
  4  5  1  0  0  0  0
  4 27  1  0  0  0  0
  4 28  1  0  0  0  0
  5  6  1  0  0  0  0
  5 29  1  0  0  0  0
  6 14  1  0  0  0  0
  6  7  2  0  0  0  0
  7  8  1  0  0  0  0
  7 45  1  0  0  0  0
  8 13  2  0  0  0  0
  8  9  1  0  0  0  0
  9 10  2  0  0  0  0
  9 30  1  0  0  0  0
 10 11  1  0  0  0  0
 10 31  1  0  0  0  0
 11 12  2  0  0  0  0
 11 32  1  0  0  0  0
 12 13  1  0  0  0  0
 12 33  1  0  0  0  0
 13 14  1  0  0  0  0
 14 15  1  0  0  0  0
 15 16  1  0  0  0  0
 15 34  1  0  0  0  0
 15 35  1  0  0  0  0
 16 21  1  0  0  0  0
 16 17  1  0  0  0  0
 16 36  1  0  0  0  0
 17 18  1  0  0  0  0
 17 37  1  0  0  0  0
 17 38  1  0  0  0  0
 18 19  1  0  0  0  0
 18 39  1  0  0  0  0
 18 40  1  0  0  0  0
 19 20  1  0  0  0  0
 19 41  1  0  0  0  0
 19 42  1  0  0  0  0
 20 21  1  0  0  0  0
 20 43  1  0  0  0  0
 20 44  1  0  0  0  0
M  CHG  1   7   1
M  END
> <s_m_source_file>
AV-unprocessed.smi

> <i_m_source_file_index>
573

> <i_lp_mmshare_version>
43012

> <i_f3d_flags>
0

> <s_epik_input>
W0NIM11bQ0BIXShbT0hdKVtDSDJdW05IXWMobjEpbihjKGMxMilbY0hdW2NIXVtjSF1bY0hdMilbQ0gyXVtDQEBIXTNbQ0gyXVtDSDJdW0NIMl1bQ0gyXU8z

> <s_epik_cmdline>
J2VwaWtfcHl0aG9uJywgJy1waCcsICc3LjAnLCAnLXRuJywgJzgnLCAnLW1hJywgJzIwMCcsICctbWV0YWxfYmluZGluZycsICctaW1hZScsICc8aW5maWxlLm1hZT4nLCAnLW9tYWUnLCAnPG91dGZpbGUubWFlPic=

> <r_epik_Ionization_Penalty>
0.0692245

> <r_epik_Ionization_Penalty_Charging>
0.0692223

> <r_epik_Ionization_Penalty_Neutral>
2.1869e-06

> <r_epik_State_Penalty>
0.0606215

> <r_epik_Charging_Adjusted_Penalty>
0.129844

> <i_epik_Tot_Q>
1

> <i_epik_Tot_abs_Q>
1

> <r_epik_Metal_State_Penalty>
2.77811

> <b_epik_Metal_Only>
0

> <s_lp_Force_Field>
OPLS_2005

> <r_lp_Energy>
24.0167

> <b_lp_Chiralities_Consistent>
1

> <s_lp_Variant>
AV-unprocessed.smi:573-4

> <Gold.Version>
5.8.1

> <Gold.Id.Protein>
6NUR|6NUR_protein|mol2

> <Gold.PLP.Fitness>
56.5848

> <Gold.PLP.PLP>
-45.8533

> <Gold.PLP.part.hbond>
-4.1091

> <Gold.PLP.part.metal>
0.0000

> <Gold.PLP.part.buried>
-7.9267

> <Gold.PLP.part.nonpolar>
-34.5483

> <Gold.PLP.part.repulsive>
0.0558

> <Gold.PLP.ligand.clash>
0.0000

> <Gold.PLP.ligand.torsion>
0.7186

> <Gold.PLP.Chemscore.Hbond>
4.0492

> <Gold.PLP.Chemscore.CHOScore>
0.0000

> <Gold.PLP.Chemscore.Metal>
0.0000

> <Gold.Chemscore.Hbonds>
donor molecule, donor type, donor heavy atom, donor atom, acceptor molecule, acceptor atom, score
      L1  H     3    26       P1  7957  0.92
      L1  H     7    45       P1  8028  2.00
      P1  H  7989  7998       L1     3  0.01
      P1  H  7997  8009       L1    21  0.12
      P1  H  8011  8017       L1     3  1.00

> <Gold.PLP.Chemscore.Internal.Correction>
0.0209

> <Gold.Rescore>
     Score         DG    S(hbond)    S(metal)    S(lipo)     H(rot)  DE(clash)    DE(int)     intcor
     20.49     -22.36       2.25        0.00     125.41       2.07       0.02       1.85       ----

> <Gold.Chemscore.Fitness>
20.4862

> <Gold.Chemscore.DG>
-22.3594

> <Gold.Chemscore.ZeroCoef>
-5.4800

> <Gold.Chemscore.Hbond>
2.2470

> <Gold.Chemscore.Metal>
0.0000

> <Gold.Chemscore.Lipo>
125.4143

> <Gold.Chemscore.Internal_Hbond>
0.0000

> <Gold.Chemscore.DEClash>
0.0193

> <Gold.Chemscore.DEInternal>
1.8540

> <Gold.Chemscore.Rot>
2.0699

> <Gold.Chemscore.Internal.Correction>
   9.000000E+99

> <Gold.Chemscore.Hbonds>
donor molecule, donor type, donor heavy atom, donor atom, acceptor molecule, acceptor atom, score
      L1  H     3    26       P1  7957  0.83
      L1  H     7    45       P1  8028  0.99
      P1  H  8011  8017       L1     3  0.25

> <Gold.Chemscore.Hbond.Weighted>
-7.5050

> <Gold.Chemscore.Metal.Weighted>
-0.0000

> <Gold.Chemscore.Lipo.Weighted>
-14.6735

> <Gold.Chemscore.Internal_Hbond.Weighted>
0.0000

> <Gold.Chemscore.DEClash.Weighted>
0.0193

> <Gold.Chemscore.DEInternal.Weighted>
1.8540

> <Gold.Chemscore.Rot.Weighted>
5.2991

> <Gold.Chemscore.Internal.Correction.Weighted>
   9.000000E+99

> <Gold.Protein.RotatedTorsions>
[ 6907 6896 6895 6894 ] final   39.60 input  -60.11 | X-H torsion
[ 7974 7965 7964 7962 ] final    6.14 input  175.53 | X-H torsion
[ 8008 7997 7996 7995 ] final -175.48 input   59.86 | X-H torsion
[ 10167 10162 10161 10158 ] final  135.39 input  -65.29 | X-H torsion
[ 10718 10713 10712 10709 ] final  -24.68 input   66.30 | X-H torsion
[ 10763 10752 10751 10750 ] final  -92.48 input  -60.55 | X-H torsion
[ 11005 11000 10999 10996 ] final   69.48 input  -57.11 | X-H torsion

> <Gold.Protein.ActiveResidues>
 VAL166  LYS551  ARG553  GLY616  TRP617  ASP618  TYR619  PRO620  LYS621  CYS622 
 ASP623  PHE694  ASN695  SER759  ASP760  ASP761  ALA762  ILE779  LEU786  VAL792 
 PHE793  MET794  SER795  GLU796  ALA797  LYS798  CYS799  TRP800  GLU811  SER814 

> <Gold.Protein.RotatedAtoms>
  152.1716  134.8829  160.0533 H   0  0  0  0  0  0  0  0  0  0  0  0  # atno 6907 bound_to 6896
  151.9786  133.3745  159.4107 H   0  0  0  0  0  0  0  0  0  0  0  0  # atno 6908 bound_to 6896
  150.6903  134.3985  159.5152 H   0  0  0  0  0  0  0  0  0  0  0  0  # atno 6909 bound_to 6896
  146.2436  140.0279  142.8392 H   0  0  0  0  0  0  0  0  0  0  0  0  # atno 7974 bound_to 7965
  155.9830  140.1185  157.0709 H   0  0  0  0  0  0  0  0  0  0  0  0  # atno 8008 bound_to 7997
  154.4188  140.1140  156.5530 H   0  0  0  0  0  0  0  0  0  0  0  0  # atno 8009 bound_to 7997
  155.6445  140.3473  155.4728 H   0  0  0  0  0  0  0  0  0  0  0  0  # atno 8010 bound_to 7997
  139.5219  144.6519  151.5277 H   0  0  0  0  0  0  0  0  0  0  0  0  # atno 10167 bound_to 10162
  156.4744  130.4531  149.6850 H   0  0  0  0  0  0  0  0  0  0  0  0  # atno 10718 bound_to 10713
  154.6865  135.5229  153.8334 H   0  0  0  0  0  0  0  0  0  0  0  0  # atno 10763 bound_to 10752
  153.0602  135.6565  154.0491 H   0  0  0  0  0  0  0  0  0  0  0  0  # atno 10764 bound_to 10752
  154.0372  135.2980  155.3340 H   0  0  0  0  0  0  0  0  0  0  0  0  # atno 10765 bound_to 10752
  139.9651  134.6994  156.0562 H   0  0  0  0  0  0  0  0  0  0  0  0  # atno 11005 bound_to 11000
  145.1182  140.9446  143.4616 LP  0  0  0  0  0  0  0  0  0  0  0  0  # atno 17320 bound_to 7965
  145.0508  139.3183  143.5929 LP  0  0  0  0  0  0  0  0  0  0  0  0  # atno 17321 bound_to 7965
  140.6327  143.9044  150.6620 LP  0  0  0  0  0  0  0  0  0  0  0  0  # atno 17342 bound_to 10162
  140.2353  143.3705  152.1532 LP  0  0  0  0  0  0  0  0  0  0  0  0  # atno 17343 bound_to 10162
  156.3586  130.7469  151.2438 LP  0  0  0  0  0  0  0  0  0  0  0  0  # atno 17370 bound_to 10713
  157.7489  131.0357  150.4374 LP  0  0  0  0  0  0  0  0  0  0  0  0  # atno 17371 bound_to 10713
  141.1330  133.6581  156.3517 LP  0  0  0  0  0  0  0  0  0  0  0  0  # atno 17394 bound_to 11000
  140.5414  134.6117  157.5381 LP  0  0  0  0  0  0  0  0  0  0  0  0  # atno 17395 bound_to 11000

$$$$
