AV-unprocessed.smi:3091|AV-procd|sdf|11781|dock3
  -GOLD-   2272017163D 1   1.00000     0.00000
 Structure written by MMmdl.
 28 29  0  0  0  0  0  0  0  0  1 V2000
  150.1596  138.6624  152.9497 N   0  0  0  0  0  0  0  0  0  0  0  0
  151.0628  138.1497  153.9603 C   0  0  0  0  0  0  0  0  0  0  0  0
  151.4302  139.1961  154.9930 C   0  0  0  0  0  0  0  0  0  0  0  0
  151.0253  140.5367  154.8350 C   0  0  0  0  0  0  0  0  0  0  0  0
  151.3909  141.4673  155.8267 C   0  0  0  0  0  0  0  0  0  0  0  0
  152.1078  141.1395  156.9225 N   0  0  0  0  0  0  0  0  0  0  0  0
  152.4956  139.8486  157.0752 C   0  0  0  0  0  0  0  0  0  0  0  0
  153.2282  139.4944  158.1911 O   0  0  0  0  0  0  0  0  0  0  0  0
  152.7389  139.8294  159.4915 C   0  0  1  0  0  0  0  0  0  0  0  0
  153.5470  139.1291  160.5767 C   0  0  0  0  0  0  0  0  0  0  0  0
  154.6864  140.1075  160.8205 C   0  0  0  0  0  0  0  0  0  0  0  0
  154.0400  141.3670  160.7564 O   0  0  0  0  0  0  0  0  0  0  0  0
  153.0389  141.3149  159.7441 C   0  0  0  0  0  0  0  0  0  0  0  0
  152.1805  138.8469  156.1346 C   0  0  0  0  0  0  0  0  0  0  0  0
  150.6915  139.1188  152.2221 H   0  0  0  0  0  0  0  0  0  0  0  0
  149.6648  137.8979  152.5133 H   0  0  0  0  0  0  0  0  0  0  0  0
  150.5969  137.2984  154.4571 H   0  0  0  0  0  0  0  0  0  0  0  0
  151.9644  137.7797  153.4713 H   0  0  0  0  0  0  0  0  0  0  0  0
  150.4486  140.8486  153.9767 H   0  0  0  0  0  0  0  0  0  0  0  0
  151.0984  142.5031  155.7381 H   0  0  0  0  0  0  0  0  0  0  0  0
  151.6678  139.6394  159.5807 H   0  0  0  0  0  0  0  0  0  0  0  0
  152.9460  139.0349  161.4819 H   0  0  0  0  0  0  0  0  0  0  0  0
  153.8946  138.1337  160.2995 H   0  0  0  0  0  0  0  0  0  0  0  0
  155.1783  139.9545  161.7813 H   0  0  0  0  0  0  0  0  0  0  0  0
  155.4360  140.0384  160.0306 H   0  0  0  0  0  0  0  0  0  0  0  0
  153.3963  141.8116  158.8411 H   0  0  0  0  0  0  0  0  0  0  0  0
  152.1534  141.8499  160.0883 H   0  0  0  0  0  0  0  0  0  0  0  0
  152.5071  137.8288  156.2890 H   0  0  0  0  0  0  0  0  0  0  0  0
  1  2  1  0  0  0  0
  1 15  1  0  0  0  0
  1 16  1  0  0  0  0
  2  3  1  0  0  0  0
  2 17  1  0  0  0  0
  2 18  1  0  0  0  0
  3 14  1  0  0  0  0
  3  4  2  0  0  0  0
  4  5  1  0  0  0  0
  4 19  1  0  0  0  0
  5  6  2  0  0  0  0
  5 20  1  0  0  0  0
  6  7  1  0  0  0  0
  7  8  1  0  0  0  0
  7 14  2  0  0  0  0
  8  9  1  0  0  0  0
  9 13  1  0  0  0  0
  9 10  1  0  0  0  0
  9 21  1  0  0  0  0
 10 11  1  0  0  0  0
 10 22  1  0  0  0  0
 10 23  1  0  0  0  0
 11 12  1  0  0  0  0
 11 24  1  0  0  0  0
 11 25  1  0  0  0  0
 12 13  1  0  0  0  0
 13 26  1  0  0  0  0
 13 27  1  0  0  0  0
 14 28  1  0  0  0  0
M  END
> <s_m_source_file>
AV-unprocessed.smi

> <i_m_source_file_index>
3091

> <i_lp_mmshare_version>
43012

> <i_f3d_flags>
0

> <s_epik_input>
W05IMl1bQ0gyXWMxW2NIXVtjSF1uYyhbY0hdMSlPW0NAQEhdMltDSDJdW0NIMl1PW0NIMl0y

> <s_epik_cmdline>
J2VwaWtfcHl0aG9uJywgJy1waCcsICc3LjAnLCAnLXRuJywgJzgnLCAnLW1hJywgJzIwMCcsICctbWV0YWxfYmluZGluZycsICctaW1hZScsICc8aW5maWxlLm1hZT4nLCAnLW9tYWUnLCAnPG91dGZpbGUubWFlPic=

> <r_lp_tautomer_probability>
1

> <r_epik_Ionization_Penalty>
1.24495

> <r_epik_Ionization_Penalty_Charging>
0

> <r_epik_Ionization_Penalty_Neutral>
1.24495

> <r_epik_State_Penalty>
1.3141

> <r_epik_Charging_Adjusted_Penalty>
1.3141

> <i_epik_Tot_Q>
0

> <i_epik_Tot_abs_Q>
0

> <r_epik_Metal_State_Penalty>
1.31398

> <b_epik_Metal_Only>
0

> <s_lp_Force_Field>
OPLS_2005

> <r_lp_Energy>
15.3378

> <b_lp_Chiralities_Consistent>
1

> <s_lp_Variant>
AV-unprocessed.smi:3091-4

> <Gold.Version>
5.8.1

> <Gold.Id.Protein>
6NUR|6NUR_protein|mol2

> <Gold.PLP.Fitness>
40.8255

> <Gold.PLP.PLP>
-29.4872

> <Gold.PLP.part.hbond>
-3.0000

> <Gold.PLP.part.metal>
0.0000

> <Gold.PLP.part.buried>
-2.8119

> <Gold.PLP.part.nonpolar>
-23.5242

> <Gold.PLP.part.repulsive>
0.0474

> <Gold.PLP.ligand.clash>
0.0000

> <Gold.PLP.ligand.torsion>
0.2080

> <Gold.PLP.Chemscore.Hbond>
2.9120

> <Gold.PLP.Chemscore.CHOScore>
1.0000

> <Gold.PLP.Chemscore.Metal>
0.0000

> <Gold.Chemscore.Hbonds>
donor molecule, donor type, donor heavy atom, donor atom, acceptor molecule, acceptor atom, score
      L1  H     1    15       P1  7957  0.11
      L1  H     1    16       P1  7948  1.00

> <Gold.PLP.Chemscore.Internal.Correction>
0.0184

> <Gold.Rescore>
     Score         DG    S(hbond)    S(metal)    S(lipo)     H(rot)  DE(clash)    DE(int)     intcor
     17.66     -18.24       2.60        0.00      68.59       1.54       0.08       0.50       ----

> <Gold.Chemscore.Fitness>
17.6619

> <Gold.Chemscore.DG>
-18.2425

> <Gold.Chemscore.ZeroCoef>
-5.4800

> <Gold.Chemscore.Hbond>
2.6006

> <Gold.Chemscore.Metal>
0.0000

> <Gold.Chemscore.Lipo>
68.5905

> <Gold.Chemscore.Internal_Hbond>
0.0000

> <Gold.Chemscore.DEClash>
0.0785

> <Gold.Chemscore.DEInternal>
0.5021

> <Gold.Chemscore.Rot>
1.5424

> <Gold.Chemscore.Internal.Correction>
   9.000000E+99

> <Gold.Chemscore.Hbonds>
donor molecule, donor type, donor heavy atom, donor atom, acceptor molecule, acceptor atom, score
      L1  H     1    16       P1  7948  0.45

> <Gold.Chemscore.Hbond.Weighted>
-8.6861

> <Gold.Chemscore.Metal.Weighted>
-0.0000

> <Gold.Chemscore.Lipo.Weighted>
-8.0251

> <Gold.Chemscore.Internal_Hbond.Weighted>
0.0000

> <Gold.Chemscore.DEClash.Weighted>
0.0785

> <Gold.Chemscore.DEInternal.Weighted>
0.5021

> <Gold.Chemscore.Rot.Weighted>
3.9487

> <Gold.Chemscore.Internal.Correction.Weighted>
   9.000000E+99

> <Gold.Protein.RotatedTorsions>
[ 6907 6896 6895 6894 ] final   -4.52 input  -60.11 | X-H torsion
[ 7974 7965 7964 7962 ] final -136.38 input  175.53 | X-H torsion
[ 8008 7997 7996 7995 ] final  -74.09 input   59.86 | X-H torsion
[ 10167 10162 10161 10158 ] final  -65.98 input  -65.29 | X-H torsion
[ 10718 10713 10712 10709 ] final  140.29 input   66.30 | X-H torsion
[ 10763 10752 10751 10750 ] final  -90.95 input  -60.55 | X-H torsion
[ 11005 11000 10999 10996 ] final  -40.78 input  -57.11 | X-H torsion

> <Gold.Protein.ActiveResidues>
 VAL166  LYS551  ARG553  GLY616  TRP617  ASP618  TYR619  PRO620  LYS621  CYS622 
 ASP623  PHE694  ASN695  SER759  ASP760  ASP761  ALA762  ILE779  LEU786  VAL792 
 PHE793  MET794  SER795  GLU796  ALA797  LYS798  CYS799  TRP800  GLU811  SER814 

> <Gold.Protein.RotatedAtoms>
  151.4964  135.1060  159.9816 H   0  0  0  0  0  0  0  0  0  0  0  0  # atno 6907 bound_to 6896
  152.4720  133.8047  159.6982 H   0  0  0  0  0  0  0  0  0  0  0  0  # atno 6908 bound_to 6896
  150.8734  133.7410  159.2980 H   0  0  0  0  0  0  0  0  0  0  0  0  # atno 6909 bound_to 6896
  144.8932  140.6670  143.5132 H   0  0  0  0  0  0  0  0  0  0  0  0  # atno 7974 bound_to 7965
  154.5301  140.0767  156.8330 H   0  0  0  0  0  0  0  0  0  0  0  0  # atno 8008 bound_to 7997
  155.3392  140.3406  155.4221 H   0  0  0  0  0  0  0  0  0  0  0  0  # atno 8009 bound_to 7997
  156.1773  140.1640  156.8326 H   0  0  0  0  0  0  0  0  0  0  0  0  # atno 8010 bound_to 7997
  140.5690  143.2316  151.6576 H   0  0  0  0  0  0  0  0  0  0  0  0  # atno 10167 bound_to 10162
  157.4049  131.1021  151.0514 H   0  0  0  0  0  0  0  0  0  0  0  0  # atno 10718 bound_to 10713
  154.6710  135.5286  153.8139 H   0  0  0  0  0  0  0  0  0  0  0  0  # atno 10763 bound_to 10752
  153.0502  135.6529  154.0724 H   0  0  0  0  0  0  0  0  0  0  0  0  # atno 10764 bound_to 10752
  154.0623  135.2961  155.3302 H   0  0  0  0  0  0  0  0  0  0  0  0  # atno 10765 bound_to 10752
  141.0199  133.6868  156.2368 H   0  0  0  0  0  0  0  0  0  0  0  0  # atno 11005 bound_to 11000
  145.3746  139.1650  143.4313 LP  0  0  0  0  0  0  0  0  0  0  0  0  # atno 17320 bound_to 7965
  146.3066  140.3822  142.8685 LP  0  0  0  0  0  0  0  0  0  0  0  0  # atno 17321 bound_to 7965
  139.5108  144.3531  152.0633 LP  0  0  0  0  0  0  0  0  0  0  0  0  # atno 17342 bound_to 10162
  140.2666  144.4009  150.6166 LP  0  0  0  0  0  0  0  0  0  0  0  0  # atno 17343 bound_to 10162
  157.1499  130.6179  149.5579 LP  0  0  0  0  0  0  0  0  0  0  0  0  # atno 17370 bound_to 10713
  155.9834  130.4852  150.6929 LP  0  0  0  0  0  0  0  0  0  0  0  0  # atno 17371 bound_to 10713
  140.6591  134.4987  157.5582 LP  0  0  0  0  0  0  0  0  0  0  0  0  # atno 17394 bound_to 11000
  139.9140  134.8286  156.1431 LP  0  0  0  0  0  0  0  0  0  0  0  0  # atno 17395 bound_to 11000

$$$$
