AV-unprocessed.smi:34|AV-procd|sdf|230|dock6
  -GOLD-   2262015563D 1   1.00000     0.00000
 Structure written by MMmdl.
 55 59  0  0  0  0  0  0  0  0  1 V2000
  153.0630  140.1316  158.5339 O   0  0  0  0  0  0  0  0  0  0  0  0
  152.4228  140.9946  157.9324 C   0  0  0  0  0  0  0  0  0  0  0  0
  151.6503  140.6946  156.7400 N   0  0  0  0  0  0  0  0  0  0  0  0
  151.5757  139.5243  156.0643 C   0  0  0  0  0  0  0  0  0  0  0  0
  151.9693  139.4026  154.7687 N   0  0  0  0  0  0  0  0  0  0  0  0
  151.8709  138.2259  154.1427 C   0  0  0  0  0  0  0  0  0  0  0  0
  151.4106  137.0651  154.6151 N   0  0  0  0  0  0  0  0  0  0  0  0
  151.0110  137.1824  155.9141 C   0  0  0  0  0  0  0  0  0  0  0  0
  151.0621  138.3651  156.7018 C   0  0  0  0  0  0  0  0  0  0  0  0
  150.5754  138.1012  157.9757 N   0  0  0  0  0  0  0  0  0  0  0  0
  150.2594  136.8340  157.9383 C   0  0  0  0  0  0  0  0  0  0  0  0
  150.4771  136.2078  156.7277 N   0  0  0  0  0  0  0  0  0  0  0  0
  150.2375  134.7835  156.3325 C   0  0  1  0  0  0  0  0  0  0  0  0
  149.9474  134.0565  157.4900 O   0  0  0  0  0  0  0  0  0  0  0  0
  148.5342  133.9523  157.6242 C   0  0  2  0  0  0  0  0  0  0  0  0
  148.1558  132.8480  158.6169 C   0  0  0  0  0  0  0  0  0  0  0  0
  147.5505  133.4512  159.7484 O   0  0  0  0  0  0  0  0  0  0  0  0
  146.6082  134.3988  159.5881 C   0  0  0  0  0  0  0  0  0  0  0  0
  145.8430  134.4444  158.6227 O   0  0  0  0  0  0  0  0  0  0  0  0
  146.5896  135.3896  160.7029 C   0  0  0  0  0  0  0  0  0  0  0  0
  146.1885  136.7205  160.4411 C   0  0  0  0  0  0  0  0  0  0  0  0
  146.1609  137.6777  161.4739 C   0  0  0  0  0  0  0  0  0  0  0  0
  146.5324  137.3152  162.7817 C   0  0  0  0  0  0  0  0  0  0  0  0
  146.9324  135.9943  163.0556 C   0  0  0  0  0  0  0  0  0  0  0  0
  146.9621  135.0360  162.0238 C   0  0  0  0  0  0  0  0  0  0  0  0
  148.1181  133.6911  156.1794 C   0  0  2  0  0  0  0  0  0  0  0  0
  148.4455  132.4358  155.8584 F   0  0  0  0  0  0  0  0  0  0  0  0
  148.9888  134.6939  155.4327 C   0  0  2  0  0  0  0  0  0  0  0  0
  149.2672  134.2643  154.1154 O   0  0  0  0  0  0  0  0  0  0  0  0
  152.3215  142.4023  158.4428 C   0  0  0  0  0  0  0  0  0  0  0  0
  151.5770  143.3637  157.7231 C   0  0  0  0  0  0  0  0  0  0  0  0
  151.4650  144.6834  158.2025 C   0  0  0  0  0  0  0  0  0  0  0  0
  152.0892  145.0506  159.4096 C   0  0  0  0  0  0  0  0  0  0  0  0
  152.8221  144.0960  160.1394 C   0  0  0  0  0  0  0  0  0  0  0  0
  152.9355  142.7761  159.6607 C   0  0  0  0  0  0  0  0  0  0  0  0
  151.1124  141.4591  156.3590 H   0  0  0  0  0  0  0  0  0  0  0  0
  152.2083  138.2134  153.1167 H   0  0  0  0  0  0  0  0  0  0  0  0
  149.8548  136.3256  158.8015 H   0  0  0  0  0  0  0  0  0  0  0  0
  151.1696  134.4542  155.8715 H   0  0  0  0  0  0  0  0  0  0  0  0
  148.1194  134.9076  157.9519 H   0  0  0  0  0  0  0  0  0  0  0  0
  147.4449  132.1607  158.1564 H   0  0  0  0  0  0  0  0  0  0  0  0
  149.0343  132.2716  158.9103 H   0  0  0  0  0  0  0  0  0  0  0  0
  145.8976  137.0221  159.4450 H   0  0  0  0  0  0  0  0  0  0  0  0
  145.8537  138.6911  161.2617 H   0  0  0  0  0  0  0  0  0  0  0  0
  146.5106  138.0493  163.5739 H   0  0  0  0  0  0  0  0  0  0  0  0
  147.2176  135.7150  164.0592 H   0  0  0  0  0  0  0  0  0  0  0  0
  147.2729  134.0309  162.2692 H   0  0  0  0  0  0  0  0  0  0  0  0
  147.0507  133.8204  155.9990 H   0  0  0  0  0  0  0  0  0  0  0  0
  148.4853  135.6617  155.3995 H   0  0  0  0  0  0  0  0  0  0  0  0
  148.9931  134.9423  153.5163 H   0  0  0  0  0  0  0  0  0  0  0  0
  151.0913  143.0972  156.7953 H   0  0  0  0  0  0  0  0  0  0  0  0
  150.8986  145.4140  157.6439 H   0  0  0  0  0  0  0  0  0  0  0  0
  152.0025  146.0624  159.7768 H   0  0  0  0  0  0  0  0  0  0  0  0
  153.2958  144.3754  161.0690 H   0  0  0  0  0  0  0  0  0  0  0  0
  153.4942  142.0566  160.2415 H   0  0  0  0  0  0  0  0  0  0  0  0
  1  2  2  0  0  0  0
  2  3  1  0  0  0  0
  2 30  1  0  0  0  0
  3  4  1  0  0  0  0
  3 36  1  0  0  0  0
  4  9  1  0  0  0  0
  4  5  2  0  0  0  0
  5  6  1  0  0  0  0
  6  7  2  0  0  0  0
  6 37  1  0  0  0  0
  7  8  1  0  0  0  0
  8 12  1  0  0  0  0
  8  9  2  0  0  0  0
  9 10  1  0  0  0  0
 10 11  2  0  0  0  0
 11 12  1  0  0  0  0
 11 38  1  0  0  0  0
 12 13  1  0  0  0  0
 13 28  1  0  0  0  0
 13 14  1  0  0  0  0
 13 39  1  0  0  0  0
 14 15  1  0  0  0  0
 15 16  1  0  0  0  0
 15 26  1  0  0  0  0
 15 40  1  0  0  0  0
 16 17  1  0  0  0  0
 16 41  1  0  0  0  0
 16 42  1  0  0  0  0
 17 18  1  0  0  0  0
 18 19  2  0  0  0  0
 18 20  1  0  0  0  0
 20 25  1  0  0  0  0
 20 21  2  0  0  0  0
 21 22  1  0  0  0  0
 21 43  1  0  0  0  0
 22 23  2  0  0  0  0
 22 44  1  0  0  0  0
 23 24  1  0  0  0  0
 23 45  1  0  0  0  0
 24 25  2  0  0  0  0
 24 46  1  0  0  0  0
 25 47  1  0  0  0  0
 26 27  1  0  0  0  0
 26 28  1  0  0  0  0
 26 48  1  0  0  0  0
 28 29  1  0  0  0  0
 28 49  1  0  0  0  0
 29 50  1  0  0  0  0
 30 35  1  0  0  0  0
 30 31  2  0  0  0  0
 31 32  1  0  0  0  0
 31 51  1  0  0  0  0
 32 33  2  0  0  0  0
 32 52  1  0  0  0  0
 33 34  1  0  0  0  0
 33 53  1  0  0  0  0
 34 35  2  0  0  0  0
 34 54  1  0  0  0  0
 35 55  1  0  0  0  0
M  END
> <s_m_source_file>
AV-unprocessed.smi

> <i_m_source_file_index>
34

> <i_lp_mmshare_version>
43012

> <i_f3d_flags>
0

> <s_epik_input>
W2NIXTFbY0hdW2NIXVtjSF1bY0hdYzFDKD1PKVtOSF1jKG5bY0hdbjIpYyhjMjMpbltjSF1uM1tDQEBIXTRPW0NASF0oW0NAQEhdKEYpW0NASF00W09IXSlbQ0gyXU9DKD1PKWM1W2NIXVtjSF1bY0hdW2NIXVtjSF01

> <s_epik_cmdline>
J2VwaWtfcHl0aG9uJywgJy1waCcsICc3LjAnLCAnLXRuJywgJzgnLCAnLW1hJywgJzIwMCcsICctbWV0YWxfYmluZGluZycsICctaW1hZScsICc8aW5maWxlLm1hZT4nLCAnLW9tYWUnLCAnPG91dGZpbGUubWFlPic=

> <r_lp_tautomer_probability>
1

> <r_epik_Ionization_Penalty>
0.00257489

> <r_epik_Ionization_Penalty_Charging>
0

> <r_epik_Ionization_Penalty_Neutral>
0.00257489

> <r_epik_State_Penalty>
0.00519398

> <r_epik_Charging_Adjusted_Penalty>
0.00519398

> <i_epik_Tot_Q>
0

> <i_epik_Tot_abs_Q>
0

> <r_epik_Metal_State_Penalty>
0.335891

> <b_epik_Metal_Only>
0

> <s_epik_Chemistry_Notes>
This compound has an ester and may undergo hydrolysis at high or low pH. This compound contains an acetal/aminal-like group ( X-CH(R)-Y where X, Y are N, S, or O) that may be acid/base labile, releasing an aldehyde.

> <s_lp_Force_Field>
OPLS_2005

> <r_lp_Energy>
45.4918

> <b_lp_Chiralities_Consistent>
1

> <s_lp_Variant>
AV-unprocessed.smi:34-16

> <Gold.Version>
5.8.1

> <Gold.Id.Protein>
6NUR|6NUR_protein|mol2

> <Gold.PLP.Fitness>
62.8289

> <Gold.PLP.PLP>
-53.5014

> <Gold.PLP.part.hbond>
-5.0000

> <Gold.PLP.part.metal>
0.0000

> <Gold.PLP.part.buried>
-7.6377

> <Gold.PLP.part.nonpolar>
-40.8301

> <Gold.PLP.part.repulsive>
0.3593

> <Gold.PLP.ligand.clash>
0.0000

> <Gold.PLP.ligand.torsion>
2.4025

> <Gold.PLP.Chemscore.Hbond>
4.5749

> <Gold.PLP.Chemscore.CHOScore>
0.1086

> <Gold.PLP.Chemscore.Metal>
0.0000

> <Gold.Chemscore.Hbonds>
donor molecule, donor type, donor heavy atom, donor atom, acceptor molecule, acceptor atom, score
      L1  H    29    50       P1  7948  0.93
      P1  H  6896  6908       L1    14  0.76
      P1  H  7989  7998       L1     5  0.94
      P1  H  7997  8009       L1     1  0.54
      P1  H 10752 10763       L1     7  0.84

> <Gold.PLP.Chemscore.Internal.Correction>
0.0819

> <Gold.Rescore>
     Score         DG    S(hbond)    S(metal)    S(lipo)     H(rot)  DE(clash)    DE(int)     intcor
     17.52     -21.55       2.21        0.00     133.91       2.72       0.53       3.50       ----

> <Gold.Chemscore.Fitness>
17.5177

> <Gold.Chemscore.DG>
-21.5520

> <Gold.Chemscore.ZeroCoef>
-5.4800

> <Gold.Chemscore.Hbond>
2.2071

> <Gold.Chemscore.Metal>
0.0000

> <Gold.Chemscore.Lipo>
133.9083

> <Gold.Chemscore.Internal_Hbond>
0.0000

> <Gold.Chemscore.DEClash>
0.5313

> <Gold.Chemscore.DEInternal>
3.5029

> <Gold.Chemscore.Rot>
2.7215

> <Gold.Chemscore.Internal.Correction>
   9.000000E+99

> <Gold.Chemscore.Hbonds>
donor molecule, donor type, donor heavy atom, donor atom, acceptor molecule, acceptor atom, score
      L1  H    29    50       P1  7948  0.26
      P1  H  6896  6908       L1    14  0.61
      P1  H  7989  7998       L1     5  0.66
      P1  H  7997  8009       L1     1  0.07
      P1  H 10752 10763       L1     7  0.44

> <Gold.Chemscore.Hbond.Weighted>
-7.3718

> <Gold.Chemscore.Metal.Weighted>
-0.0000

> <Gold.Chemscore.Lipo.Weighted>
-15.6673

> <Gold.Chemscore.Internal_Hbond.Weighted>
0.0000

> <Gold.Chemscore.DEClash.Weighted>
0.5313

> <Gold.Chemscore.DEInternal.Weighted>
3.5029

> <Gold.Chemscore.Rot.Weighted>
6.9670

> <Gold.Chemscore.Internal.Correction.Weighted>
   9.000000E+99

> <Gold.Protein.RotatedTorsions>
[ 6907 6896 6895 6894 ] final  105.38 input  -60.11 | X-H torsion
[ 7974 7965 7964 7962 ] final   70.47 input  175.53 | X-H torsion
[ 8008 7997 7996 7995 ] final  145.14 input   59.86 | X-H torsion
[ 10167 10162 10161 10158 ] final  -25.22 input  -65.29 | X-H torsion
[ 10718 10713 10712 10709 ] final -125.86 input   66.30 | X-H torsion
[ 10763 10752 10751 10750 ] final   48.16 input  -60.55 | X-H torsion
[ 11005 11000 10999 10996 ] final -173.77 input  -57.11 | X-H torsion

> <Gold.Protein.ActiveResidues>
 VAL166  LYS551  ARG553  GLY616  TRP617  ASP618  TYR619  PRO620  LYS621  CYS622 
 ASP623  PHE694  ASN695  SER759  ASP760  ASP761  ALA762  ILE779  LEU786  VAL792 
 PHE793  MET794  SER795  GLU796  ALA797  LYS798  CYS799  TRP800  GLU811  SER814 

> <Gold.Protein.RotatedAtoms>
  152.5232  133.9537  159.7683 H   0  0  0  0  0  0  0  0  0  0  0  0  # atno 6907 bound_to 6896
  150.9842  133.6206  159.2725 H   0  0  0  0  0  0  0  0  0  0  0  0  # atno 6908 bound_to 6896
  151.3373  135.0861  159.9412 H   0  0  0  0  0  0  0  0  0  0  0  0  # atno 6909 bound_to 6896
  145.7778  139.2873  143.1283 H   0  0  0  0  0  0  0  0  0  0  0  0  # atno 7974 bound_to 7965
  156.2891  140.2217  156.5166 H   0  0  0  0  0  0  0  0  0  0  0  0  # atno 8008 bound_to 7997
  154.7563  140.0476  157.0958 H   0  0  0  0  0  0  0  0  0  0  0  0  # atno 8009 bound_to 7997
  155.0046  140.3106  155.4857 H   0  0  0  0  0  0  0  0  0  0  0  0  # atno 8010 bound_to 7997
  140.7287  143.4284  151.0841 H   0  0  0  0  0  0  0  0  0  0  0  0  # atno 10167 bound_to 10162
  156.1713  130.6669  151.0183 H   0  0  0  0  0  0  0  0  0  0  0  0  # atno 10718 bound_to 10713
  152.9794  135.5953  154.3880 H   0  0  0  0  0  0  0  0  0  0  0  0  # atno 10763 bound_to 10752
  154.3538  135.2767  155.2359 H   0  0  0  0  0  0  0  0  0  0  0  0  # atno 10764 bound_to 10752
  154.4387  135.6018  153.6170 H   0  0  0  0  0  0  0  0  0  0  0  0  # atno 10765 bound_to 10752
  140.4820  134.6066  157.4923 H   0  0  0  0  0  0  0  0  0  0  0  0  # atno 11005 bound_to 11000
  146.0105  140.8439  142.9973 LP  0  0  0  0  0  0  0  0  0  0  0  0  # atno 17320 bound_to 7965
  144.6801  140.2483  143.7335 LP  0  0  0  0  0  0  0  0  0  0  0  0  # atno 17321 bound_to 7965
  139.7938  143.8181  152.3155 LP  0  0  0  0  0  0  0  0  0  0  0  0  # atno 17342 bound_to 10162
  139.8174  144.7310  150.9617 LP  0  0  0  0  0  0  0  0  0  0  0  0  # atno 17343 bound_to 10162
  157.6804  131.0839  150.7384 LP  0  0  0  0  0  0  0  0  0  0  0  0  # atno 17370 bound_to 10713
  156.7443  130.4748  149.5470 LP  0  0  0  0  0  0  0  0  0  0  0  0  # atno 17371 bound_to 10713
  139.9821  134.7121  155.9841 LP  0  0  0  0  0  0  0  0  0  0  0  0  # atno 17394 bound_to 11000
  141.1526  133.6546  156.4062 LP  0  0  0  0  0  0  0  0  0  0  0  0  # atno 17395 bound_to 11000

$$$$
