AV-unprocessed.smi:1328|AV-procd|sdf|5480|dock1
  -GOLD-   22720 5 53D 1   1.00000     0.00000
 Structure written by MMmdl.
 38 39  0  0  0  0  0  0  0  0  1 V2000
  150.7363  141.9620  158.1640 C   0  0  0  0  0  0  0  0  0  0  0  0
  150.9520  140.9667  157.0601 C   0  0  0  0  0  0  0  0  0  0  0  0
  150.6887  141.3121  155.8111 N   0  0  0  0  0  0  0  0  0  0  0  0
  150.9899  140.1911  155.0321 O   0  0  0  0  0  0  0  0  0  0  0  0
  151.4270  139.2020  155.8523 C   0  0  0  0  0  0  0  0  0  0  0  0
  151.8058  137.9143  155.2011 C   0  0  0  0  0  0  0  0  0  0  0  0
  151.4229  139.6254  157.1537 C   0  0  0  0  0  0  0  0  0  0  0  0
  151.8252  138.8703  158.3947 C   0  0  0  0  0  0  0  0  0  0  0  0
  150.8209  137.7483  158.6544 C   0  0  0  0  0  0  0  0  0  0  0  0
  151.2027  136.5804  158.7262 O   0  0  0  0  0  0  0  0  0  0  0  0
  149.5378  138.1203  158.7743 N   0  0  0  0  0  0  0  0  0  0  0  0
  148.3977  137.2208  158.9115 C   0  0  1  0  0  0  0  0  0  0  0  0
  148.3293  136.2784  157.6980 C   0  0  0  0  0  0  0  0  0  0  0  0
  148.5335  136.4573  160.2422 C   0  0  2  0  0  0  0  0  0  0  0  0
  147.7738  135.1330  160.3063 C   0  0  0  0  0  0  0  0  0  0  0  0
  147.5646  134.9208  161.7971 C   0  0  0  0  0  0  0  0  0  0  0  0
  147.7812  136.3093  162.4065 C   0  0  0  0  0  0  0  0  0  0  0  0
  147.9306  137.1880  161.2999 O   0  0  0  0  0  0  0  0  0  0  0  0
  151.4868  141.8500  158.9466 H   0  0  0  0  0  0  0  0  0  0  0  0
  149.7562  141.8289  158.6221 H   0  0  0  0  0  0  0  0  0  0  0  0
  150.7970  142.9872  157.7974 H   0  0  0  0  0  0  0  0  0  0  0  0
  152.6816  137.4771  155.6800 H   0  0  0  0  0  0  0  0  0  0  0  0
  152.0416  138.0631  154.1473 H   0  0  0  0  0  0  0  0  0  0  0  0
  150.9898  137.1948  155.2676 H   0  0  0  0  0  0  0  0  0  0  0  0
  152.8224  138.4404  158.2931 H   0  0  0  0  0  0  0  0  0  0  0  0
  151.8658  139.5257  159.2657 H   0  0  0  0  0  0  0  0  0  0  0  0
  149.3272  139.1051  158.7018 H   0  0  0  0  0  0  0  0  0  0  0  0
  147.4804  137.8117  158.9481 H   0  0  0  0  0  0  0  0  0  0  0  0
  147.4622  135.6205  157.7554 H   0  0  0  0  0  0  0  0  0  0  0  0
  149.2192  135.6518  157.6316 H   0  0  0  0  0  0  0  0  0  0  0  0
  148.2472  136.8397  156.7667 H   0  0  0  0  0  0  0  0  0  0  0  0
  149.5857  136.2938  160.4845 H   0  0  0  0  0  0  0  0  0  0  0  0
  146.8060  135.2293  159.8121 H   0  0  0  0  0  0  0  0  0  0  0  0
  148.3135  134.3117  159.8342 H   0  0  0  0  0  0  0  0  0  0  0  0
  146.5665  134.5336  162.0046 H   0  0  0  0  0  0  0  0  0  0  0  0
  148.2902  134.2128  162.1992 H   0  0  0  0  0  0  0  0  0  0  0  0
  146.9506  136.6224  163.0397 H   0  0  0  0  0  0  0  0  0  0  0  0
  148.6921  136.3279  163.0063 H   0  0  0  0  0  0  0  0  0  0  0  0
  1  2  1  0  0  0  0
  1 19  1  0  0  0  0
  1 20  1  0  0  0  0
  1 21  1  0  0  0  0
  2  7  1  0  0  0  0
  2  3  2  0  0  0  0
  3  4  1  0  0  0  0
  4  5  1  0  0  0  0
  5  6  1  0  0  0  0
  5  7  2  0  0  0  0
  6 22  1  0  0  0  0
  6 23  1  0  0  0  0
  6 24  1  0  0  0  0
  7  8  1  0  0  0  0
  8  9  1  0  0  0  0
  8 25  1  0  0  0  0
  8 26  1  0  0  0  0
  9 10  2  0  0  0  0
  9 11  1  0  0  0  0
 11 12  1  0  0  0  0
 11 27  1  0  0  0  0
 12 13  1  0  0  0  0
 12 14  1  0  0  0  0
 12 28  1  0  0  0  0
 13 29  1  0  0  0  0
 13 30  1  0  0  0  0
 13 31  1  0  0  0  0
 14 18  1  0  0  0  0
 14 15  1  0  0  0  0
 14 32  1  0  0  0  0
 15 16  1  0  0  0  0
 15 33  1  0  0  0  0
 15 34  1  0  0  0  0
 16 17  1  0  0  0  0
 16 35  1  0  0  0  0
 16 36  1  0  0  0  0
 17 18  1  0  0  0  0
 17 37  1  0  0  0  0
 17 38  1  0  0  0  0
M  END
> <s_m_source_file>
AV-unprocessed.smi

> <i_m_source_file_index>
1328

> <i_lp_mmshare_version>
43012

> <i_f3d_flags>
0

> <s_epik_input>
W0NIM11jMW5vYyhbQ0gzXSljMVtDSDJdQyg9TylbTkhdW0NASF0oW0NIM10pW0NAQEhdMltDSDJdW0NIMl1bQ0gyXU8y

> <s_epik_cmdline>
J2VwaWtfcHl0aG9uJywgJy1waCcsICc3LjAnLCAnLXRuJywgJzgnLCAnLW1hJywgJzIwMCcsICctbWV0YWxfYmluZGluZycsICctaW1hZScsICc8aW5maWxlLm1hZT4nLCAnLW9tYWUnLCAnPG91dGZpbGUubWFlPic=

> <r_lp_tautomer_probability>
1

> <r_epik_Ionization_Penalty>
2.66156e-08

> <r_epik_Ionization_Penalty_Charging>
0

> <r_epik_Ionization_Penalty_Neutral>
2.66156e-08

> <r_epik_State_Penalty>
-0

> <r_epik_Charging_Adjusted_Penalty>
0

> <i_epik_Tot_Q>
0

> <i_epik_Tot_abs_Q>
0

> <r_epik_Metal_State_Penalty>
-0

> <b_epik_Metal_Only>
0

> <s_lp_Force_Field>
OPLS_2005

> <r_lp_Energy>
11.7374

> <b_lp_Chiralities_Consistent>
1

> <s_lp_Variant>
AV-unprocessed.smi:1328-2

> <Gold.Version>
5.8.1

> <Gold.Id.Protein>
6NUR|6NUR_protein|mol2

> <Gold.PLP.Fitness>
40.0235

> <Gold.PLP.PLP>
-30.5656

> <Gold.PLP.part.hbond>
-4.1826

> <Gold.PLP.part.metal>
0.0000

> <Gold.PLP.part.buried>
-5.3888

> <Gold.PLP.part.nonpolar>
-21.4223

> <Gold.PLP.part.repulsive>
0.3150

> <Gold.PLP.ligand.clash>
0.0000

> <Gold.PLP.ligand.torsion>
0.6898

> <Gold.PLP.Chemscore.Hbond>
3.6000

> <Gold.PLP.Chemscore.CHOScore>
0.0000

> <Gold.PLP.Chemscore.Metal>
0.0000

> <Gold.Chemscore.Hbonds>
donor molecule, donor type, donor heavy atom, donor atom, acceptor molecule, acceptor atom, score
      P1  H  6896  6908       L1    10  0.85
      P1  H  6931  6943       L1    18  1.00
      P1  H  6934  6947       L1    18  0.72
      P1  H  7989  7998       L1     4  1.00

> <Gold.PLP.Chemscore.Internal.Correction>
0.0375

> <Gold.Rescore>
     Score         DG    S(hbond)    S(metal)    S(lipo)     H(rot)  DE(clash)    DE(int)     intcor
     16.97     -18.55       2.78        0.00      65.47       1.52       0.03       1.55       ----

> <Gold.Chemscore.Fitness>
16.9694

> <Gold.Chemscore.DG>
-18.5495

> <Gold.Chemscore.ZeroCoef>
-5.4800

> <Gold.Chemscore.Hbond>
2.7814

> <Gold.Chemscore.Metal>
0.0000

> <Gold.Chemscore.Lipo>
65.4739

> <Gold.Chemscore.Internal_Hbond>
0.0000

> <Gold.Chemscore.DEClash>
0.0310

> <Gold.Chemscore.DEInternal>
1.5492

> <Gold.Chemscore.Rot>
1.5159

> <Gold.Chemscore.Internal.Correction>
   9.000000E+99

> <Gold.Chemscore.Hbonds>
donor molecule, donor type, donor heavy atom, donor atom, acceptor molecule, acceptor atom, score
      P1  H  6896  6908       L1    10  0.83
      P1  H  6931  6943       L1    18  0.20
      P1  H  6934  6947       L1    18  0.67
      P1  H  7989  7998       L1     4  0.45

> <Gold.Chemscore.Hbond.Weighted>
-9.2898

> <Gold.Chemscore.Metal.Weighted>
-0.0000

> <Gold.Chemscore.Lipo.Weighted>
-7.6604

> <Gold.Chemscore.Internal_Hbond.Weighted>
0.0000

> <Gold.Chemscore.DEClash.Weighted>
0.0310

> <Gold.Chemscore.DEInternal.Weighted>
1.5492

> <Gold.Chemscore.Rot.Weighted>
3.8807

> <Gold.Chemscore.Internal.Correction.Weighted>
   9.000000E+99

> <Gold.Protein.RotatedTorsions>
[ 6907 6896 6895 6894 ] final -145.35 input  -60.11 | X-H torsion
[ 7974 7965 7964 7962 ] final   13.90 input  175.53 | X-H torsion
[ 8008 7997 7996 7995 ] final   71.77 input   59.86 | X-H torsion
[ 10167 10162 10161 10158 ] final -170.80 input  -65.29 | X-H torsion
[ 10718 10713 10712 10709 ] final  151.55 input   66.30 | X-H torsion
[ 10763 10752 10751 10750 ] final -159.18 input  -60.55 | X-H torsion
[ 11005 11000 10999 10996 ] final  -95.03 input  -57.11 | X-H torsion

> <Gold.Protein.ActiveResidues>
 VAL166  LYS551  ARG553  GLY616  TRP617  ASP618  TYR619  PRO620  LYS621  CYS622 
 ASP623  PHE694  ASN695  SER759  ASP760  ASP761  ALA762  ILE779  LEU786  VAL792 
 PHE793  MET794  SER795  GLU796  ALA797  LYS798  CYS799  TRP800  GLU811  SER814 

> <Gold.Protein.RotatedAtoms>
  151.1266  133.5066  159.2600 H   0  0  0  0  0  0  0  0  0  0  0  0  # atno 6907 bound_to 6896
  151.1803  135.0357  159.8799 H   0  0  0  0  0  0  0  0  0  0  0  0  # atno 6908 bound_to 6896
  152.5458  134.1119  159.8415 H   0  0  0  0  0  0  0  0  0  0  0  0  # atno 6909 bound_to 6896
  146.2318  139.9121  142.8523 H   0  0  0  0  0  0  0  0  0  0  0  0  # atno 7974 bound_to 7965
  155.7589  140.3487  155.5188 H   0  0  0  0  0  0  0  0  0  0  0  0  # atno 8008 bound_to 7997
  155.8933  140.1021  157.1424 H   0  0  0  0  0  0  0  0  0  0  0  0  # atno 8009 bound_to 7997
  154.4036  140.1300  156.4330 H   0  0  0  0  0  0  0  0  0  0  0  0  # atno 8010 bound_to 7997
  139.5840  144.1359  152.1552 H   0  0  0  0  0  0  0  0  0  0  0  0  # atno 10167 bound_to 10162
  157.2692  131.0813  151.1612 H   0  0  0  0  0  0  0  0  0  0  0  0  # atno 10718 bound_to 10713
  154.7496  135.3089  154.8582 H   0  0  0  0  0  0  0  0  0  0  0  0  # atno 10763 bound_to 10752
  153.9373  135.6778  153.4749 H   0  0  0  0  0  0  0  0  0  0  0  0  # atno 10764 bound_to 10752
  153.1092  135.4874  154.8933 H   0  0  0  0  0  0  0  0  0  0  0  0  # atno 10765 bound_to 10752
  141.1453  133.7997  157.0380 H   0  0  0  0  0  0  0  0  0  0  0  0  # atno 11005 bound_to 11000
  145.2219  140.9939  143.4040 LP  0  0  0  0  0  0  0  0  0  0  0  0  # atno 17320 bound_to 7965
  144.9602  139.3987  143.6359 LP  0  0  0  0  0  0  0  0  0  0  0  0  # atno 17321 bound_to 7965
  140.0919  144.5614  150.7049 LP  0  0  0  0  0  0  0  0  0  0  0  0  # atno 17342 bound_to 10162
  140.7115  143.2508  151.4567 LP  0  0  0  0  0  0  0  0  0  0  0  0  # atno 17343 bound_to 10162
  157.3090  130.6880  149.6205 LP  0  0  0  0  0  0  0  0  0  0  0  0  # atno 17370 bound_to 10713
  155.9663  130.4369  150.5153 LP  0  0  0  0  0  0  0  0  0  0  0  0  # atno 17371 bound_to 10713
  140.0711  134.9701  157.1469 LP  0  0  0  0  0  0  0  0  0  0  0  0  # atno 17394 bound_to 11000
  140.3709  134.2391  155.7178 LP  0  0  0  0  0  0  0  0  0  0  0  0  # atno 17395 bound_to 11000

$$$$
