AV-unprocessed.smi:2322|AV-procd|sdf|9285|dock6
  -GOLD-   2272012513D 1   1.00000     0.00000
 Structure written by MMmdl.
 38 40  0  0  0  0  0  0  0  0  1 V2000
  147.7298  132.6671  152.5995 C   0  0  0  0  0  0  0  0  0  0  0  0
  148.7468  132.3402  153.5804 N   0  0  0  0  0  0  0  0  0  0  0  0
  148.9868  131.0548  153.9303 N   0  0  0  0  0  0  0  0  0  0  0  0
  149.9637  131.1728  154.8285 C   0  0  0  0  0  0  0  0  0  0  0  0
  150.3831  132.4455  155.0920 N   0  0  0  0  0  0  0  0  0  0  0  0
  149.5788  133.1222  154.2759 C   0  0  0  0  0  0  0  0  0  0  0  0
  149.5333  134.5365  154.0936 N   0  0  0  0  0  0  0  0  0  0  0  0
  149.8477  135.5510  154.9261 C   0  0  0  0  0  0  0  0  0  0  0  0
  150.2563  135.3324  156.0653 O   0  0  0  0  0  0  0  0  0  0  0  0
  149.6889  136.7915  154.4363 N   0  0  0  0  0  0  0  0  0  0  0  0
  149.9727  138.0300  155.1539 C   0  0  2  0  0  0  0  0  0  0  0  0
  149.3690  139.2184  154.3941 C   0  0  0  0  0  0  0  0  0  0  0  0
  149.7590  140.5452  155.0628 C   0  0  0  0  0  0  0  0  0  0  0  0
  151.1776  140.6588  155.1514 O   0  0  0  0  0  0  0  0  0  0  0  0
  151.8265  139.6239  155.8920 C   0  0  1  0  0  0  0  0  0  0  0  0
  151.5389  139.7289  157.3835 C   0  0  0  0  0  0  0  0  0  0  0  0
  152.2994  140.7090  158.2447 C   0  0  0  0  0  0  0  0  0  0  0  0
  152.5367  139.2254  158.4003 C   0  0  0  0  0  0  0  0  0  0  0  0
  151.4902  138.2405  155.3006 C   0  0  0  0  0  0  0  0  0  0  0  0
  148.2013  133.0803  151.7076 H   0  0  0  0  0  0  0  0  0  0  0  0
  147.0426  133.4046  153.0145 H   0  0  0  0  0  0  0  0  0  0  0  0
  147.1643  131.7766  152.3214 H   0  0  0  0  0  0  0  0  0  0  0  0
  150.3916  130.3074  155.3131 H   0  0  0  0  0  0  0  0  0  0  0  0
  149.1955  134.8287  153.1883 H   0  0  0  0  0  0  0  0  0  0  0  0
  149.3473  136.8815  153.4895 H   0  0  0  0  0  0  0  0  0  0  0  0
  149.5126  137.9829  156.1424 H   0  0  0  0  0  0  0  0  0  0  0  0
  149.7242  139.2193  153.3624 H   0  0  0  0  0  0  0  0  0  0  0  0
  148.2831  139.1274  154.3506 H   0  0  0  0  0  0  0  0  0  0  0  0
  149.3821  141.3811  154.4733 H   0  0  0  0  0  0  0  0  0  0  0  0
  149.3029  140.6330  156.0490 H   0  0  0  0  0  0  0  0  0  0  0  0
  152.8969  139.7872  155.7605 H   0  0  0  0  0  0  0  0  0  0  0  0
  150.4939  139.5887  157.6506 H   0  0  0  0  0  0  0  0  0  0  0  0
  153.0836  141.2966  157.7712 H   0  0  0  0  0  0  0  0  0  0  0  0
  151.7476  141.2166  159.0331 H   0  0  0  0  0  0  0  0  0  0  0  0
  152.1424  138.7426  159.2920 H   0  0  0  0  0  0  0  0  0  0  0  0
  153.4800  138.8265  158.0326 H   0  0  0  0  0  0  0  0  0  0  0  0
  151.9306  137.4533  155.9140 H   0  0  0  0  0  0  0  0  0  0  0  0
  151.9587  138.1598  154.3186 H   0  0  0  0  0  0  0  0  0  0  0  0
  1  2  1  0  0  0  0
  1 20  1  0  0  0  0
  1 21  1  0  0  0  0
  1 22  1  0  0  0  0
  2  6  1  0  0  0  0
  2  3  1  0  0  0  0
  3  4  2  0  0  0  0
  4  5  1  0  0  0  0
  4 23  1  0  0  0  0
  5  6  2  0  0  0  0
  6  7  1  0  0  0  0
  7  8  1  0  0  0  0
  7 24  1  0  0  0  0
  8  9  2  0  0  0  0
  8 10  1  0  0  0  0
 10 11  1  0  0  0  0
 10 25  1  0  0  0  0
 11 19  1  0  0  0  0
 11 12  1  0  0  0  0
 11 26  1  0  0  0  0
 12 13  1  0  0  0  0
 12 27  1  0  0  0  0
 12 28  1  0  0  0  0
 13 14  1  0  0  0  0
 13 29  1  0  0  0  0
 13 30  1  0  0  0  0
 14 15  1  0  0  0  0
 15 16  1  0  0  0  0
 15 19  1  0  0  0  0
 15 31  1  0  0  0  0
 16 18  1  0  0  0  0
 16 17  1  0  0  0  0
 16 32  1  0  0  0  0
 17 18  1  0  0  0  0
 17 33  1  0  0  0  0
 17 34  1  0  0  0  0
 18 35  1  0  0  0  0
 18 36  1  0  0  0  0
 19 37  1  0  0  0  0
 19 38  1  0  0  0  0
M  END
> <s_m_source_file>
AV-unprocessed.smi

> <i_m_source_file_index>
2322

> <i_lp_mmshare_version>
43012

> <i_f3d_flags>
0

> <s_epik_input>
W0NIM11uMW5bY0hdbmMxW05IXUMoPU8pW05IXVtDQEBIXTJbQ0gyXVtDSDJdT1tDQEhdKFtDSDJdMilbQ0hdM1tDSDJdW0NIMl0z

> <s_epik_cmdline>
J2VwaWtfcHl0aG9uJywgJy1waCcsICc3LjAnLCAnLXRuJywgJzgnLCAnLW1hJywgJzIwMCcsICctbWV0YWxfYmluZGluZycsICctaW1hZScsICc8aW5maWxlLm1hZT4nLCAnLW9tYWUnLCAnPG91dGZpbGUubWFlPic=

> <r_lp_tautomer_probability>
1

> <r_epik_Ionization_Penalty>
2.16399e-05

> <r_epik_Ionization_Penalty_Charging>
0

> <r_epik_Ionization_Penalty_Neutral>
2.16399e-05

> <r_epik_State_Penalty>
-0

> <r_epik_Charging_Adjusted_Penalty>
0

> <i_epik_Tot_Q>
0

> <i_epik_Tot_abs_Q>
0

> <r_epik_Metal_State_Penalty>
-0

> <b_epik_Metal_Only>
0

> <s_lp_Force_Field>
OPLS_2005

> <r_lp_Energy>
22.5256

> <b_lp_Chiralities_Consistent>
1

> <s_lp_Variant>
AV-unprocessed.smi:2322-1

> <Gold.Version>
5.8.1

> <Gold.Id.Protein>
6NUR|6NUR_protein|mol2

> <Gold.PLP.Fitness>
38.6131

> <Gold.PLP.PLP>
-31.4922

> <Gold.PLP.part.hbond>
-3.0000

> <Gold.PLP.part.metal>
0.0000

> <Gold.PLP.part.buried>
-2.6268

> <Gold.PLP.part.nonpolar>
-25.9127

> <Gold.PLP.part.repulsive>
0.2169

> <Gold.PLP.ligand.clash>
0.0000

> <Gold.PLP.ligand.torsion>
0.8399

> <Gold.PLP.Chemscore.Hbond>
2.5744

> <Gold.PLP.Chemscore.CHOScore>
0.0000

> <Gold.PLP.Chemscore.Metal>
0.0000

> <Gold.Chemscore.Hbonds>
donor molecule, donor type, donor heavy atom, donor atom, acceptor molecule, acceptor atom, score
      L1  H     7    24       P1  7948  0.60
      L1  H    10    25       P1  7948  1.00
      P1  H  7989  7998       L1    14  0.86

> <Gold.PLP.Chemscore.Internal.Correction>
1.0775

> <Gold.Rescore>
     Score         DG    S(hbond)    S(metal)    S(lipo)     H(rot)  DE(clash)    DE(int)     intcor
     12.28     -14.32       1.78        0.00      53.29       1.31       1.09       0.95       ----

> <Gold.Chemscore.Fitness>
12.2816

> <Gold.Chemscore.DG>
-14.3153

> <Gold.Chemscore.ZeroCoef>
-5.4800

> <Gold.Chemscore.Hbond>
1.7805

> <Gold.Chemscore.Metal>
0.0000

> <Gold.Chemscore.Lipo>
53.2896

> <Gold.Chemscore.Internal_Hbond>
0.0000

> <Gold.Chemscore.DEClash>
1.0856

> <Gold.Chemscore.DEInternal>
0.9480

> <Gold.Chemscore.Rot>
1.3072

> <Gold.Chemscore.Internal.Correction>
   9.000000E+99

> <Gold.Chemscore.Hbonds>
donor molecule, donor type, donor heavy atom, donor atom, acceptor molecule, acceptor atom, score
      L1  H     7    24       P1  7948  0.04
      L1  H    10    25       P1  7948  0.91
      P1  H  7989  7998       L1    14  0.32

> <Gold.Chemscore.Hbond.Weighted>
-5.9468

> <Gold.Chemscore.Metal.Weighted>
-0.0000

> <Gold.Chemscore.Lipo.Weighted>
-6.2349

> <Gold.Chemscore.Internal_Hbond.Weighted>
0.0000

> <Gold.Chemscore.DEClash.Weighted>
1.0856

> <Gold.Chemscore.DEInternal.Weighted>
0.9480

> <Gold.Chemscore.Rot.Weighted>
3.3464

> <Gold.Chemscore.Internal.Correction.Weighted>
   9.000000E+99

> <Gold.Protein.RotatedTorsions>
[ 6907 6896 6895 6894 ] final -173.82 input  -60.11 | X-H torsion
[ 7974 7965 7964 7962 ] final   54.49 input  175.53 | X-H torsion
[ 8008 7997 7996 7995 ] final  136.34 input   59.86 | X-H torsion
[ 10167 10162 10161 10158 ] final  -58.79 input  -65.29 | X-H torsion
[ 10718 10713 10712 10709 ] final  100.12 input   66.30 | X-H torsion
[ 10763 10752 10751 10750 ] final  151.98 input  -60.55 | X-H torsion
[ 11005 11000 10999 10996 ] final -146.70 input  -57.11 | X-H torsion

> <Gold.Protein.ActiveResidues>
 VAL166  LYS551  ARG553  GLY616  TRP617  ASP618  TYR619  PRO620  LYS621  CYS622 
 ASP623  PHE694  ASN695  SER759  ASP760  ASP761  ALA762  ILE779  LEU786  VAL792 
 PHE793  MET794  SER795  GLU796  ALA797  LYS798  CYS799  TRP800  GLU811  SER814 

> <Gold.Protein.RotatedAtoms>
  151.5623  133.3401  159.2973 H   0  0  0  0  0  0  0  0  0  0  0  0  # atno 6907 bound_to 6896
  150.8415  134.7712  159.6947 H   0  0  0  0  0  0  0  0  0  0  0  0  # atno 6908 bound_to 6896
  152.4482  134.5458  159.9904 H   0  0  0  0  0  0  0  0  0  0  0  0  # atno 6909 bound_to 6896
  145.9603  139.4052  143.0252 H   0  0  0  0  0  0  0  0  0  0  0  0  # atno 7974 bound_to 7965
  156.3004  140.2448  156.3729 H   0  0  0  0  0  0  0  0  0  0  0  0  # atno 8008 bound_to 7997
  154.8772  140.0414  157.1780 H   0  0  0  0  0  0  0  0  0  0  0  0  # atno 8009 bound_to 7997
  154.8733  140.2938  155.5472 H   0  0  0  0  0  0  0  0  0  0  0  0  # atno 8010 bound_to 7997
  140.6175  143.2407  151.5561 H   0  0  0  0  0  0  0  0  0  0  0  0  # atno 10167 bound_to 10162
  157.6861  131.0689  150.5052 H   0  0  0  0  0  0  0  0  0  0  0  0  # atno 10718 bound_to 10713
  154.1127  135.2838  155.3227 H   0  0  0  0  0  0  0  0  0  0  0  0  # atno 10763 bound_to 10752
  154.6479  135.5379  153.7869 H   0  0  0  0  0  0  0  0  0  0  0  0  # atno 10764 bound_to 10752
  153.0340  135.6502  154.1285 H   0  0  0  0  0  0  0  0  0  0  0  0  # atno 10765 bound_to 10752
  140.7792  134.3099  157.5051 H   0  0  0  0  0  0  0  0  0  0  0  0  # atno 11005 bound_to 11000
  145.8049  140.9753  143.0979 LP  0  0  0  0  0  0  0  0  0  0  0  0  # atno 17320 bound_to 7965
  144.6813  139.9848  143.7484 LP  0  0  0  0  0  0  0  0  0  0  0  0  # atno 17321 bound_to 7965
  139.5411  144.2646  152.1352 LP  0  0  0  0  0  0  0  0  0  0  0  0  # atno 17342 bound_to 10162
  140.1859  144.4799  150.6504 LP  0  0  0  0  0  0  0  0  0  0  0  0  # atno 17343 bound_to 10162
  156.5372  130.4199  149.6172 LP  0  0  0  0  0  0  0  0  0  0  0  0  # atno 17370 bound_to 10713
  156.3017  130.7180  151.2054 LP  0  0  0  0  0  0  0  0  0  0  0  0  # atno 17371 bound_to 10713
  139.8745  134.9308  156.3512 LP  0  0  0  0  0  0  0  0  0  0  0  0  # atno 17394 bound_to 11000
  140.9499  133.7458  156.0258 LP  0  0  0  0  0  0  0  0  0  0  0  0  # atno 17395 bound_to 11000

$$$$
