AV-unprocessed.smi:1166|AV-procd|sdf|4937|dock2
  -GOLD-   22720 3523D 1   1.00000     0.00000
 Structure written by MMmdl.
 46 47  0  0  0  0  0  0  0  0  1 V2000
  151.3791  144.6585  157.9999 C   0  0  0  0  0  0  0  0  0  0  0  0
  151.8652  144.4121  159.3537 N   0  0  0  0  0  0  0  0  0  0  0  0
  151.8080  145.4744  160.3503 C   0  0  0  0  0  0  0  0  0  0  0  0
  152.4438  143.1633  159.6772 C   0  0  0  0  0  0  0  0  0  0  0  0
  152.4209  142.0787  158.7656 C   0  0  0  0  0  0  0  0  0  0  0  0
  153.0093  140.8534  159.1334 C   0  0  0  0  0  0  0  0  0  0  0  0
  153.6165  140.7376  160.4049 C   0  0  0  0  0  0  0  0  0  0  0  0
  154.2247  139.5537  160.9037 N   0  0  0  0  0  0  0  0  0  0  0  0
  154.7886  138.5440  160.2188 C   0  0  0  0  0  0  0  0  0  0  0  0
  154.9106  138.4909  158.9953 O   0  0  0  0  0  0  0  0  0  0  0  0
  155.2304  137.5872  161.0474 N   0  0  0  0  0  0  0  0  0  0  0  0
  155.8936  136.3542  160.6346 C   0  0  1  0  0  0  0  0  0  0  0  0
  157.4177  136.5486  160.5713 C   0  0  0  0  0  0  0  0  0  0  0  0
  158.0928  135.2264  160.1906 C   0  0  0  0  0  0  0  0  0  0  0  0
  157.7035  134.0990  161.1627 C   0  0  0  0  0  0  0  0  0  0  0  0
  156.2375  133.9675  161.2873 N   0  0  0  0  0  0  0  0  0  0  0  0
  155.4033  132.6949  160.4428 S   0  0  0  0  0  0  0  0  0  0  0  0
  154.4433  131.8357  161.7560 C   0  0  0  0  0  0  0  0  0  0  0  0
  154.4503  133.3223  159.5144 O   0  0  0  0  0  0  0  0  0  0  0  0
  156.4143  131.7591  159.9270 O   0  0  0  0  0  0  0  0  0  0  0  0
  155.5310  135.2220  161.6153 C   0  0  0  0  0  0  0  0  0  0  0  0
  153.5808  141.8658  161.2473 C   0  0  0  0  0  0  0  0  0  0  0  0
  153.0192  143.0417  160.8985 N   0  0  0  0  0  0  0  0  0  0  0  0
  150.6005  143.9423  157.7360 H   0  0  0  0  0  0  0  0  0  0  0  0
  152.1924  144.5685  157.2790 H   0  0  0  0  0  0  0  0  0  0  0  0
  150.9566  145.6588  157.9037 H   0  0  0  0  0  0  0  0  0  0  0  0
  152.8103  145.7323  160.6937 H   0  0  0  0  0  0  0  0  0  0  0  0
  151.2128  145.1626  161.2088 H   0  0  0  0  0  0  0  0  0  0  0  0
  151.3545  146.3781  159.9426 H   0  0  0  0  0  0  0  0  0  0  0  0
  151.9606  142.1591  157.7927 H   0  0  0  0  0  0  0  0  0  0  0  0
  152.9678  140.0299  158.4384 H   0  0  0  0  0  0  0  0  0  0  0  0
  154.2717  139.4864  161.9100 H   0  0  0  0  0  0  0  0  0  0  0  0
  155.0931  137.7180  162.0390 H   0  0  0  0  0  0  0  0  0  0  0  0
  155.5331  136.0822  159.6423 H   0  0  0  0  0  0  0  0  0  0  0  0
  157.6761  137.3179  159.8426 H   0  0  0  0  0  0  0  0  0  0  0  0
  157.7939  136.8907  161.5365 H   0  0  0  0  0  0  0  0  0  0  0  0
  157.8173  134.9560  159.1721 H   0  0  0  0  0  0  0  0  0  0  0  0
  159.1758  135.3521  160.1886 H   0  0  0  0  0  0  0  0  0  0  0  0
  158.1446  133.1548  160.8444 H   0  0  0  0  0  0  0  0  0  0  0  0
  158.1143  134.3117  162.1502 H   0  0  0  0  0  0  0  0  0  0  0  0
  153.8712  131.0253  161.3048 H   0  0  0  0  0  0  0  0  0  0  0  0
  153.7542  132.5330  162.2292 H   0  0  0  0  0  0  0  0  0  0  0  0
  155.1201  131.4168  162.4985 H   0  0  0  0  0  0  0  0  0  0  0  0
  155.8043  135.5105  162.6311 H   0  0  0  0  0  0  0  0  0  0  0  0
  154.4539  135.0554  161.6241 H   0  0  0  0  0  0  0  0  0  0  0  0
  154.0195  141.8276  162.2337 H   0  0  0  0  0  0  0  0  0  0  0  0
  1  2  1  0  0  0  0
  1 24  1  0  0  0  0
  1 25  1  0  0  0  0
  1 26  1  0  0  0  0
  2  3  1  0  0  0  0
  2  4  1  0  0  0  0
  3 27  1  0  0  0  0
  3 28  1  0  0  0  0
  3 29  1  0  0  0  0
  4 23  1  0  0  0  0
  4  5  2  0  0  0  0
  5  6  1  0  0  0  0
  5 30  1  0  0  0  0
  6  7  2  0  0  0  0
  6 31  1  0  0  0  0
  7  8  1  0  0  0  0
  7 22  1  0  0  0  0
  8  9  1  0  0  0  0
  8 32  1  0  0  0  0
  9 10  2  0  0  0  0
  9 11  1  0  0  0  0
 11 12  1  0  0  0  0
 11 33  1  0  0  0  0
 12 21  1  0  0  0  0
 12 13  1  0  0  0  0
 12 34  1  0  0  0  0
 13 14  1  0  0  0  0
 13 35  1  0  0  0  0
 13 36  1  0  0  0  0
 14 15  1  0  0  0  0
 14 37  1  0  0  0  0
 14 38  1  0  0  0  0
 15 16  1  0  0  0  0
 15 39  1  0  0  0  0
 15 40  1  0  0  0  0
 16 17  1  0  0  0  0
 16 21  1  0  0  0  0
 17 18  1  0  0  0  0
 17 19  2  0  0  0  0
 17 20  2  0  0  0  0
 18 41  1  0  0  0  0
 18 42  1  0  0  0  0
 18 43  1  0  0  0  0
 21 44  1  0  0  0  0
 21 45  1  0  0  0  0
 22 23  2  0  0  0  0
 22 46  1  0  0  0  0
M  END
> <s_m_source_file>
AV-unprocessed.smi

> <i_m_source_file_index>
1166

> <i_lp_mmshare_version>
43012

> <i_f3d_flags>
0

> <s_epik_input>
W0NIM11OKFtDSDNdKWMxW2NIXVtjSF1jKFtjSF1uMSlbTkhdQyg9TylbTkhdW0NAQEhdMltDSDJdW0NIMl1bQ0gyXU4oW0NIMl0yKVMoPU8pKD1PKVtDSDNd

> <s_epik_cmdline>
J2VwaWtfcHl0aG9uJywgJy1waCcsICc3LjAnLCAnLXRuJywgJzgnLCAnLW1hJywgJzIwMCcsICctbWV0YWxfYmluZGluZycsICctaW1hZScsICc8aW5maWxlLm1hZT4nLCAnLW9tYWUnLCAnPG91dGZpbGUubWFlPic=

> <r_lp_tautomer_probability>
1

> <r_epik_Ionization_Penalty>
0.585334

> <r_epik_Ionization_Penalty_Charging>
0

> <r_epik_Ionization_Penalty_Neutral>
0.585334

> <r_epik_State_Penalty>
0.597345

> <r_epik_Charging_Adjusted_Penalty>
0.597345

> <i_epik_Tot_Q>
0

> <i_epik_Tot_abs_Q>
0

> <r_epik_Metal_State_Penalty>
0.29678

> <b_epik_Metal_Only>
0

> <s_lp_Force_Field>
OPLS_2005

> <r_lp_Energy>
2.0747

> <b_lp_Chiralities_Consistent>
1

> <s_lp_Variant>
AV-unprocessed.smi:1166-4

> <Gold.Version>
5.8.1

> <Gold.Id.Protein>
6NUR|6NUR_protein|mol2

> <Gold.PLP.Fitness>
38.4858

> <Gold.PLP.PLP>
-33.6012

> <Gold.PLP.part.hbond>
-2.0000

> <Gold.PLP.part.metal>
0.0000

> <Gold.PLP.part.buried>
-4.7669

> <Gold.PLP.part.nonpolar>
-26.4484

> <Gold.PLP.part.repulsive>
0.0443

> <Gold.PLP.ligand.clash>
0.0000

> <Gold.PLP.ligand.torsion>
1.5888

> <Gold.PLP.Chemscore.Hbond>
2.0000

> <Gold.PLP.Chemscore.CHOScore>
0.0000

> <Gold.PLP.Chemscore.Metal>
0.0000

> <Gold.Chemscore.Hbonds>
donor molecule, donor type, donor heavy atom, donor atom, acceptor molecule, acceptor atom, score
      P1  H  6896  6908       L1    19  1.00
      P1  H  7997  8009       L1    10  0.44

> <Gold.PLP.Chemscore.Internal.Correction>
2.0621

> <Gold.Rescore>
     Score         DG    S(hbond)    S(metal)    S(lipo)     H(rot)  DE(clash)    DE(int)     intcor
     15.43     -17.90       1.99        0.00      71.14       1.00       0.04       2.43       ----

> <Gold.Chemscore.Fitness>
15.4295

> <Gold.Chemscore.DG>
-17.9010

> <Gold.Chemscore.ZeroCoef>
-5.4800

> <Gold.Chemscore.Hbond>
1.9932

> <Gold.Chemscore.Metal>
0.0000

> <Gold.Chemscore.Lipo>
71.1442

> <Gold.Chemscore.Internal_Hbond>
0.0000

> <Gold.Chemscore.DEClash>
0.0444

> <Gold.Chemscore.DEInternal>
2.4270

> <Gold.Chemscore.Rot>
1.0000

> <Gold.Chemscore.Internal.Correction>
   9.000000E+99

> <Gold.Chemscore.Hbonds>
donor molecule, donor type, donor heavy atom, donor atom, acceptor molecule, acceptor atom, score
      P1  H  6896  6908       L1    19  0.98
      P1  H  7997  8009       L1    10  0.46

> <Gold.Chemscore.Hbond.Weighted>
-6.6572

> <Gold.Chemscore.Metal.Weighted>
-0.0000

> <Gold.Chemscore.Lipo.Weighted>
-8.3239

> <Gold.Chemscore.Internal_Hbond.Weighted>
0.0000

> <Gold.Chemscore.DEClash.Weighted>
0.0444

> <Gold.Chemscore.DEInternal.Weighted>
2.4270

> <Gold.Chemscore.Rot.Weighted>
2.5600

> <Gold.Chemscore.Internal.Correction.Weighted>
   9.000000E+99

> <Gold.Protein.RotatedTorsions>
[ 6907 6896 6895 6894 ] final  -11.22 input  -60.11 | X-H torsion
[ 7974 7965 7964 7962 ] final   62.27 input  175.53 | X-H torsion
[ 8008 7997 7996 7995 ] final  113.93 input   59.86 | X-H torsion
[ 10167 10162 10161 10158 ] final -179.37 input  -65.29 | X-H torsion
[ 10718 10713 10712 10709 ] final  -48.78 input   66.30 | X-H torsion
[ 10763 10752 10751 10750 ] final   39.80 input  -60.55 | X-H torsion
[ 11005 11000 10999 10996 ] final  -15.75 input  -57.11 | X-H torsion

> <Gold.Protein.ActiveResidues>
 VAL166  LYS551  ARG553  GLY616  TRP617  ASP618  TYR619  PRO620  LYS621  CYS622 
 ASP623  PHE694  ASN695  SER759  ASP760  ASP761  ALA762  ILE779  LEU786  VAL792 
 PHE793  MET794  SER795  GLU796  ALA797  LYS798  CYS799  TRP800  GLU811  SER814 

> <Gold.Protein.RotatedAtoms>
  151.3896  135.0953  159.9521 H   0  0  0  0  0  0  0  0  0  0  0  0  # atno 6907 bound_to 6896
  152.5084  133.8993  159.7443 H   0  0  0  0  0  0  0  0  0  0  0  0  # atno 6908 bound_to 6896
  150.9443  133.6565  159.2813 H   0  0  0  0  0  0  0  0  0  0  0  0  # atno 6909 bound_to 6896
  145.8752  139.3405  143.0739 H   0  0  0  0  0  0  0  0  0  0  0  0  # atno 7974 bound_to 7965
  156.2289  140.2969  156.0138 H   0  0  0  0  0  0  0  0  0  0  0  0  # atno 8008 bound_to 7997
  155.2279  140.0418  157.2975 H   0  0  0  0  0  0  0  0  0  0  0  0  # atno 8009 bound_to 7997
  154.5963  140.2415  155.7860 H   0  0  0  0  0  0  0  0  0  0  0  0  # atno 8010 bound_to 7997
  139.5389  144.2419  152.0854 H   0  0  0  0  0  0  0  0  0  0  0  0  # atno 10167 bound_to 10162
  156.1955  130.4154  149.9312 H   0  0  0  0  0  0  0  0  0  0  0  0  # atno 10718 bound_to 10713
  152.9956  135.6210  154.2523 H   0  0  0  0  0  0  0  0  0  0  0  0  # atno 10763 bound_to 10752
  154.2261  135.2794  155.2909 H   0  0  0  0  0  0  0  0  0  0  0  0  # atno 10764 bound_to 10752
  154.5488  135.5739  153.6962 H   0  0  0  0  0  0  0  0  0  0  0  0  # atno 10765 bound_to 10752
  140.7998  133.8223  155.9459 H   0  0  0  0  0  0  0  0  0  0  0  0  # atno 11005 bound_to 11000
  145.9089  140.9193  143.0464 LP  0  0  0  0  0  0  0  0  0  0  0  0  # atno 17320 bound_to 7965
  144.6726  140.1134  143.7454 LP  0  0  0  0  0  0  0  0  0  0  0  0  # atno 17321 bound_to 7965
  140.1894  144.4767  150.6487 LP  0  0  0  0  0  0  0  0  0  0  0  0  # atno 17342 bound_to 10162
  140.6610  143.2252  151.5857 LP  0  0  0  0  0  0  0  0  0  0  0  0  # atno 17343 bound_to 10162
  156.7038  130.8943  151.3602 LP  0  0  0  0  0  0  0  0  0  0  0  0  # atno 17370 bound_to 10713
  157.6955  130.9277  150.0632 LP  0  0  0  0  0  0  0  0  0  0  0  0  # atno 17371 bound_to 10713
  140.9306  134.2026  157.4866 LP  0  0  0  0  0  0  0  0  0  0  0  0  # atno 17394 bound_to 11000
  139.8723  134.9831  156.5184 LP  0  0  0  0  0  0  0  0  0  0  0  0  # atno 17395 bound_to 11000

$$$$
