AV-unprocessed.smi:2999|AV-procd|sdf|11418|dock9
  -GOLD-   2272016343D 1   1.00000     0.00000
 Structure written by MMmdl.
 37 39  0  0  0  0  0  0  0  0  1 V2000
  144.7331  137.5093  152.2614 O   0  0  0  0  0  0  0  0  0  0  0  0
  145.9145  137.1983  152.1066 C   0  0  0  0  0  0  0  0  0  0  0  0
  146.9373  138.0319  152.3445 N   0  0  0  0  0  0  0  0  0  0  0  0
  146.8176  139.4015  152.8360 C   0  0  0  0  0  0  0  0  0  0  0  0
  147.7357  139.6687  154.0415 C   0  0  1  0  0  0  0  0  0  0  0  0
  148.9249  138.6883  154.1423 C   0  0  0  0  0  0  0  0  0  0  0  0
  149.8171  139.0242  155.2454 N   0  0  0  0  0  0  0  0  0  0  0  0
  150.9407  138.1015  155.3071 C   0  0  0  0  0  0  0  0  0  0  0  0
  152.2313  138.5491  155.9430 C   0  0  0  0  0  0  0  0  0  0  0  0
  152.1489  138.3475  154.4410 C   0  0  0  0  0  0  0  0  0  0  0  0
  150.2754  140.3971  155.0777 C   0  0  0  0  0  0  0  0  0  0  0  0
  149.0971  141.3798  154.9831 C   0  0  0  0  0  0  0  0  0  0  0  0
  148.2443  140.9945  153.9098 O   0  0  0  0  0  0  0  0  0  0  0  0
  146.3543  136.0015  151.6803 N   0  0  0  0  0  0  0  0  0  0  0  0
  145.5916  134.8472  151.3628 C   0  0  0  0  0  0  0  0  0  0  0  0
  144.2544  134.7974  151.3783 N   0  0  0  0  0  0  0  0  0  0  0  0
  143.7728  133.5326  151.0314 C   0  0  0  0  0  0  0  0  0  0  0  0
  144.7644  132.6248  150.7528 C   0  0  0  0  0  0  0  0  0  0  0  0
  146.3517  133.3276  150.9134 S   0  0  0  0  0  0  0  0  0  0  0  0
  147.8738  137.6905  152.1844 H   0  0  0  0  0  0  0  0  0  0  0  0
  147.0079  140.1262  152.0426 H   0  0  0  0  0  0  0  0  0  0  0  0
  145.7793  139.5471  153.1350 H   0  0  0  0  0  0  0  0  0  0  0  0
  147.1418  139.6167  154.9560 H   0  0  0  0  0  0  0  0  0  0  0  0
  148.5531  137.6725  154.2780 H   0  0  0  0  0  0  0  0  0  0  0  0
  149.4792  138.6927  153.2022 H   0  0  0  0  0  0  0  0  0  0  0  0
  150.6239  137.0712  155.4628 H   0  0  0  0  0  0  0  0  0  0  0  0
  152.2903  139.5723  156.3096 H   0  0  0  0  0  0  0  0  0  0  0  0
  152.7884  137.8135  156.5193 H   0  0  0  0  0  0  0  0  0  0  0  0
  152.6498  137.4778  154.0209 H   0  0  0  0  0  0  0  0  0  0  0  0
  152.1533  139.2376  153.8146 H   0  0  0  0  0  0  0  0  0  0  0  0
  150.9161  140.6774  155.9148 H   0  0  0  0  0  0  0  0  0  0  0  0
  150.8856  140.4785  154.1768 H   0  0  0  0  0  0  0  0  0  0  0  0
  148.5332  141.4001  155.9169 H   0  0  0  0  0  0  0  0  0  0  0  0
  149.4601  142.3919  154.8048 H   0  0  0  0  0  0  0  0  0  0  0  0
  147.3542  135.8976  151.5898 H   0  0  0  0  0  0  0  0  0  0  0  0
  142.7063  133.3648  151.0090 H   0  0  0  0  0  0  0  0  0  0  0  0
  144.6576  131.5897  150.4637 H   0  0  0  0  0  0  0  0  0  0  0  0
  1  2  2  0  0  0  0
  2  3  1  0  0  0  0
  2 14  1  0  0  0  0
  3  4  1  0  0  0  0
  3 20  1  0  0  0  0
  4  5  1  0  0  0  0
  4 21  1  0  0  0  0
  4 22  1  0  0  0  0
  5 13  1  0  0  0  0
  5  6  1  0  0  0  0
  5 23  1  0  0  0  0
  6  7  1  0  0  0  0
  6 24  1  0  0  0  0
  6 25  1  0  0  0  0
  7  8  1  0  0  0  0
  7 11  1  0  0  0  0
  8 10  1  0  0  0  0
  8  9  1  0  0  0  0
  8 26  1  0  0  0  0
  9 10  1  0  0  0  0
  9 27  1  0  0  0  0
  9 28  1  0  0  0  0
 10 29  1  0  0  0  0
 10 30  1  0  0  0  0
 11 12  1  0  0  0  0
 11 31  1  0  0  0  0
 11 32  1  0  0  0  0
 12 13  1  0  0  0  0
 12 33  1  0  0  0  0
 12 34  1  0  0  0  0
 14 15  1  0  0  0  0
 14 35  1  0  0  0  0
 15 19  1  0  0  0  0
 15 16  2  0  0  0  0
 16 17  1  0  0  0  0
 17 18  2  0  0  0  0
 17 36  1  0  0  0  0
 18 19  1  0  0  0  0
 18 37  1  0  0  0  0
M  END
> <s_m_source_file>
AV-unprocessed.smi

> <i_m_source_file_index>
2999

> <i_lp_mmshare_version>
43012

> <i_f3d_flags>
0

> <s_epik_input>
czFbY0hdW2NIXW5jMVtOSF1DKD1PKVtOSF1bQ0gyXVtDQEBIXTJbQ0gyXU4oW0NIMl1bQ0gyXU8yKVtDSF0zW0NIMl1bQ0gyXTM=

> <s_epik_cmdline>
J2VwaWtfcHl0aG9uJywgJy1waCcsICc3LjAnLCAnLXRuJywgJzgnLCAnLW1hJywgJzIwMCcsICctbWV0YWxfYmluZGluZycsICctaW1hZScsICc8aW5maWxlLm1hZT4nLCAnLW9tYWUnLCAnPG91dGZpbGUubWFlPic=

> <r_lp_tautomer_probability>
0.999

> <r_epik_Ionization_Penalty>
0.0449352

> <r_epik_Ionization_Penalty_Charging>
0

> <r_epik_Ionization_Penalty_Neutral>
0.0449352

> <r_epik_State_Penalty>
0.0379856

> <r_epik_Charging_Adjusted_Penalty>
0.0379856

> <i_epik_Tot_Q>
0

> <i_epik_Tot_abs_Q>
0

> <r_epik_Metal_State_Penalty>
0.0775629

> <b_epik_Metal_Only>
0

> <s_lp_Force_Field>
OPLS_2005

> <r_lp_Energy>
30.84

> <b_lp_Chiralities_Consistent>
1

> <s_lp_Variant>
AV-unprocessed.smi:2999-2

> <Gold.Version>
5.8.1

> <Gold.Id.Protein>
6NUR|6NUR_protein|mol2

> <Gold.PLP.Fitness>
39.3571

> <Gold.PLP.PLP>
-31.8177

> <Gold.PLP.part.hbond>
-2.0000

> <Gold.PLP.part.metal>
0.0000

> <Gold.PLP.part.buried>
-5.3172

> <Gold.PLP.part.nonpolar>
-27.3440

> <Gold.PLP.part.repulsive>
2.5179

> <Gold.PLP.ligand.clash>
0.0000

> <Gold.PLP.ligand.torsion>
1.1193

> <Gold.PLP.Chemscore.Hbond>
1.9440

> <Gold.PLP.Chemscore.CHOScore>
0.9523

> <Gold.PLP.Chemscore.Metal>
0.0000

> <Gold.Chemscore.Hbonds>
donor molecule, donor type, donor heavy atom, donor atom, acceptor molecule, acceptor atom, score
      L1  H     3    20       P1  7948  0.96
      L1  H    14    35       P1  7948  1.00
      L1  C    17    36       P1 10186  0.98

> <Gold.PLP.Chemscore.Internal.Correction>
1.0890

> <Gold.Rescore>
     Score         DG    S(hbond)    S(metal)    S(lipo)     H(rot)  DE(clash)    DE(int)     intcor
     14.22     -16.60       1.95        0.00      73.21       1.55       0.08       2.29       ----

> <Gold.Chemscore.Fitness>
14.2239

> <Gold.Chemscore.DG>
-16.5958

> <Gold.Chemscore.ZeroCoef>
-5.4800

> <Gold.Chemscore.Hbond>
1.9487

> <Gold.Chemscore.Metal>
0.0000

> <Gold.Chemscore.Lipo>
73.2097

> <Gold.Chemscore.Internal_Hbond>
0.0000

> <Gold.Chemscore.DEClash>
0.0771

> <Gold.Chemscore.DEInternal>
2.2948

> <Gold.Chemscore.Rot>
1.5463

> <Gold.Chemscore.Internal.Correction>
   9.000000E+99

> <Gold.Chemscore.Hbonds>
donor molecule, donor type, donor heavy atom, donor atom, acceptor molecule, acceptor atom, score
      L1  H     3    20       P1  7948  0.92
      L1  H    14    35       P1  7948  0.99

> <Gold.Chemscore.Hbond.Weighted>
-6.5087

> <Gold.Chemscore.Metal.Weighted>
-0.0000

> <Gold.Chemscore.Lipo.Weighted>
-8.5655

> <Gold.Chemscore.Internal_Hbond.Weighted>
0.0000

> <Gold.Chemscore.DEClash.Weighted>
0.0771

> <Gold.Chemscore.DEInternal.Weighted>
2.2948

> <Gold.Chemscore.Rot.Weighted>
3.9584

> <Gold.Chemscore.Internal.Correction.Weighted>
   9.000000E+99

> <Gold.Protein.RotatedTorsions>
[ 6907 6896 6895 6894 ] final -120.83 input  -60.11 | X-H torsion
[ 7974 7965 7964 7962 ] final   -8.22 input  175.53 | X-H torsion
[ 8008 7997 7996 7995 ] final   55.84 input   59.86 | X-H torsion
[ 10167 10162 10161 10158 ] final   -7.36 input  -65.29 | X-H torsion
[ 10718 10713 10712 10709 ] final -116.37 input   66.30 | X-H torsion
[ 10763 10752 10751 10750 ] final  118.18 input  -60.55 | X-H torsion
[ 11005 11000 10999 10996 ] final -101.24 input  -57.11 | X-H torsion

> <Gold.Protein.ActiveResidues>
 VAL166  LYS551  ARG553  GLY616  TRP617  ASP618  TYR619  PRO620  LYS621  CYS622 
 ASP623  PHE694  ASN695  SER759  ASP760  ASP761  ALA762  ILE779  LEU786  VAL792 
 PHE793  MET794  SER795  GLU796  ALA797  LYS798  CYS799  TRP800  GLU811  SER814 

> <Gold.Protein.RotatedAtoms>
  150.8428  133.7908  159.3053 H   0  0  0  0  0  0  0  0  0  0  0  0  # atno 6907 bound_to 6896
  151.5604  135.1064  159.9981 H   0  0  0  0  0  0  0  0  0  0  0  0  # atno 6908 bound_to 6896
  152.4489  133.7547  159.6769 H   0  0  0  0  0  0  0  0  0  0  0  0  # atno 6909 bound_to 6896
  146.2286  140.2435  142.8344 H   0  0  0  0  0  0  0  0  0  0  0  0  # atno 7974 bound_to 7965
  155.5077  140.3476  155.4382 H   0  0  0  0  0  0  0  0  0  0  0  0  # atno 8008 bound_to 7997
  156.0870  140.1401  156.9667 H   0  0  0  0  0  0  0  0  0  0  0  0  # atno 8009 bound_to 7997
  154.4613  140.0934  156.6876 H   0  0  0  0  0  0  0  0  0  0  0  0  # atno 8010 bound_to 7997
  140.7026  143.6090  150.8723 H   0  0  0  0  0  0  0  0  0  0  0  0  # atno 10167 bound_to 10162
  156.0959  130.6131  150.9027 H   0  0  0  0  0  0  0  0  0  0  0  0  # atno 10718 bound_to 10713
  153.5637  135.3516  155.2810 H   0  0  0  0  0  0  0  0  0  0  0  0  # atno 10763 bound_to 10752
  154.8691  135.4143  154.2802 H   0  0  0  0  0  0  0  0  0  0  0  0  # atno 10764 bound_to 10752
  153.3553  135.7057  153.6825 H   0  0  0  0  0  0  0  0  0  0  0  0  # atno 10765 bound_to 10752
  141.1239  133.8462  157.1207 H   0  0  0  0  0  0  0  0  0  0  0  0  # atno 11005 bound_to 11000
  144.9466  140.8135  143.5597 LP  0  0  0  0  0  0  0  0  0  0  0  0  # atno 17320 bound_to 7965
  145.2392  139.2080  143.5002 LP  0  0  0  0  0  0  0  0  0  0  0  0  # atno 17321 bound_to 7965
  139.9813  143.5948  152.2942 LP  0  0  0  0  0  0  0  0  0  0  0  0  # atno 17342 bound_to 10162
  139.6570  144.7662  151.2036 LP  0  0  0  0  0  0  0  0  0  0  0  0  # atno 17343 bound_to 10162
  157.6119  131.0936  150.8779 LP  0  0  0  0  0  0  0  0  0  0  0  0  # atno 17370 bound_to 10713
  156.8917  130.5215  149.5286 LP  0  0  0  0  0  0  0  0  0  0  0  0  # atno 17371 bound_to 10713
  140.0219  134.9942  157.0608 LP  0  0  0  0  0  0  0  0  0  0  0  0  # atno 17394 bound_to 11000
  140.4426  134.1665  155.7175 LP  0  0  0  0  0  0  0  0  0  0  0  0  # atno 17395 bound_to 11000

$$$$
