AV-unprocessed.smi:148|AV-procd|sdf|1221|dock6
  -GOLD-   2262018413D 1   1.00000     0.00000
 Structure written by MMmdl.
 63 67  0  0  0  0  0  0  0  0  1 V2000
  141.9104  142.9217  154.7346 O   0  0  0  0  0  0  0  0  0  0  0  0
  142.3267  143.8737  155.6912 C   0  0  0  0  0  0  0  0  0  0  0  0
  143.8676  143.8769  155.8503 C   0  0  1  0  0  0  0  0  0  0  0  0
  144.4594  142.4426  155.8850 C   0  0  0  0  0  0  0  0  0  0  0  0
  145.7977  142.3901  156.4464 N   0  0  0  0  0  0  0  0  0  0  0  0
  146.1631  142.7127  157.7332 C   0  0  0  0  0  0  0  0  0  0  0  0
  147.4332  142.5759  158.0001 N   0  0  0  0  0  0  0  0  0  0  0  0
  147.9849  142.1227  156.8072 C   0  0  0  0  0  0  0  0  0  0  0  0
  149.2966  141.7580  156.3878 C   0  0  0  0  0  0  0  0  0  0  0  0
  150.4011  141.7845  157.1696 N   0  0  0  0  0  0  0  0  0  0  0  0
  150.4341  143.0440  157.9154 C   0  0  0  0  0  0  0  0  0  0  0  0
  151.7765  143.2449  158.6306 C   0  0  0  0  0  0  0  0  0  0  0  0
  152.0917  142.0396  159.5219 C   0  0  0  0  0  0  0  0  0  0  0  0
  152.0716  140.7586  158.6792 C   0  0  0  0  0  0  0  0  0  0  0  0
  150.7117  140.5746  157.9550 C   0  0  2  0  0  0  0  0  0  0  0  0
  150.6309  139.2467  157.1331 C   0  0  2  0  0  0  0  0  0  0  0  0
  150.7215  137.9663  157.9920 C   0  0  0  0  0  0  0  0  0  0  0  0
  151.6256  136.9860  157.2321 C   0  0  0  0  0  0  0  0  0  0  0  0
  151.7206  137.5371  155.8112 C   0  0  0  0  0  0  0  0  0  0  0  0
  151.6694  139.0508  156.0089 C   0  0  1  0  0  0  0  0  0  0  0  0
  151.3041  139.6989  154.8088 O   0  0  0  0  0  0  0  0  0  0  0  0
  149.4675  141.3751  155.0982 N   0  0  0  0  0  0  0  0  0  0  0  0
  148.4187  141.3189  154.2720 C   0  0  0  0  0  0  0  0  0  0  0  0
  147.1404  141.6068  154.5252 N   0  0  0  0  0  0  0  0  0  0  0  0
  146.9699  142.0129  155.8159 C   0  0  0  0  0  0  0  0  0  0  0  0
  144.5462  144.8033  154.8014 C   0  0  1  0  0  0  0  0  0  0  0  0
  144.9465  144.1670  153.4823 C   0  0  0  0  0  0  0  0  0  0  0  0
  145.2312  145.4007  152.6330 C   0  0  0  0  0  0  0  0  0  0  0  0
  144.2788  146.3727  153.0529 O   0  0  0  0  0  0  0  0  0  0  0  0
  143.7407  146.0180  154.3254 C   0  0  0  0  0  0  0  0  0  0  0  0
  142.4107  143.0521  153.9432 H   0  0  0  0  0  0  0  0  0  0  0  0
  141.9597  144.8404  155.3477 H   0  0  0  0  0  0  0  0  0  0  0  0
  141.8368  143.6694  156.6434 H   0  0  0  0  0  0  0  0  0  0  0  0
  144.0766  144.3133  156.8286 H   0  0  0  0  0  0  0  0  0  0  0  0
  143.8250  141.7724  156.4636 H   0  0  0  0  0  0  0  0  0  0  0  0
  144.5184  142.0228  154.8817 H   0  0  0  0  0  0  0  0  0  0  0  0
  145.4516  143.0504  158.4729 H   0  0  0  0  0  0  0  0  0  0  0  0
  150.2561  143.8848  157.2427 H   0  0  0  0  0  0  0  0  0  0  0  0
  149.6243  143.0481  158.6470 H   0  0  0  0  0  0  0  0  0  0  0  0
  152.5691  143.3772  157.8929 H   0  0  0  0  0  0  0  0  0  0  0  0
  151.7494  144.1572  159.2268 H   0  0  0  0  0  0  0  0  0  0  0  0
  153.0664  142.1654  159.9938 H   0  0  0  0  0  0  0  0  0  0  0  0
  151.3586  141.9675  160.3263 H   0  0  0  0  0  0  0  0  0  0  0  0
  152.8854  140.8203  157.9578 H   0  0  0  0  0  0  0  0  0  0  0  0
  152.2950  139.9087  159.3222 H   0  0  0  0  0  0  0  0  0  0  0  0
  149.9542  140.5092  158.7361 H   0  0  0  0  0  0  0  0  0  0  0  0
  149.6487  139.1785  156.6648 H   0  0  0  0  0  0  0  0  0  0  0  0
  151.1121  138.1450  158.9926 H   0  0  0  0  0  0  0  0  0  0  0  0
  149.7255  137.5411  158.1233 H   0  0  0  0  0  0  0  0  0  0  0  0
  152.6179  136.9821  157.6854 H   0  0  0  0  0  0  0  0  0  0  0  0
  151.2485  135.9633  157.2573 H   0  0  0  0  0  0  0  0  0  0  0  0
  152.6218  137.2095  155.2920 H   0  0  0  0  0  0  0  0  0  0  0  0
  150.8592  137.2004  155.2319 H   0  0  0  0  0  0  0  0  0  0  0  0
  152.6584  139.3904  156.3100 H   0  0  0  0  0  0  0  0  0  0  0  0
  150.3850  139.5429  154.6509 H   0  0  0  0  0  0  0  0  0  0  0  0
  148.6341  140.9946  153.2647 H   0  0  0  0  0  0  0  0  0  0  0  0
  145.4691  145.1854  155.2413 H   0  0  0  0  0  0  0  0  0  0  0  0
  145.8071  143.5031  153.5682 H   0  0  0  0  0  0  0  0  0  0  0  0
  144.1249  143.6103  153.0337 H   0  0  0  0  0  0  0  0  0  0  0  0
  146.2330  145.7809  152.8370 H   0  0  0  0  0  0  0  0  0  0  0  0
  145.1551  145.2014  151.5638 H   0  0  0  0  0  0  0  0  0  0  0  0
  142.6865  145.7822  154.1881 H   0  0  0  0  0  0  0  0  0  0  0  0
  143.8072  146.8530  155.0233 H   0  0  0  0  0  0  0  0  0  0  0  0
  1  2  1  0  0  0  0
  1 31  1  0  0  0  0
  2  3  1  0  0  0  0
  2 32  1  0  0  0  0
  2 33  1  0  0  0  0
  3  4  1  0  0  0  0
  3 26  1  0  0  0  0
  3 34  1  0  0  0  0
  4  5  1  0  0  0  0
  4 35  1  0  0  0  0
  4 36  1  0  0  0  0
  5 25  1  0  0  0  0
  5  6  1  0  0  0  0
  6  7  2  0  0  0  0
  6 37  1  0  0  0  0
  7  8  1  0  0  0  0
  8 25  2  0  0  0  0
  8  9  1  0  0  0  0
  9 10  1  0  0  0  0
  9 22  2  0  0  0  0
 10 15  1  0  0  0  0
 10 11  1  0  0  0  0
 11 12  1  0  0  0  0
 11 38  1  0  0  0  0
 11 39  1  0  0  0  0
 12 13  1  0  0  0  0
 12 40  1  0  0  0  0
 12 41  1  0  0  0  0
 13 14  1  0  0  0  0
 13 42  1  0  0  0  0
 13 43  1  0  0  0  0
 14 15  1  0  0  0  0
 14 44  1  0  0  0  0
 14 45  1  0  0  0  0
 15 16  1  0  0  0  0
 15 46  1  0  0  0  0
 16 20  1  0  0  0  0
 16 17  1  0  0  0  0
 16 47  1  0  0  0  0
 17 18  1  0  0  0  0
 17 48  1  0  0  0  0
 17 49  1  0  0  0  0
 18 19  1  0  0  0  0
 18 50  1  0  0  0  0
 18 51  1  0  0  0  0
 19 20  1  0  0  0  0
 19 52  1  0  0  0  0
 19 53  1  0  0  0  0
 20 21  1  0  0  0  0
 20 54  1  0  0  0  0
 21 55  1  0  0  0  0
 22 23  1  0  0  0  0
 23 24  2  0  0  0  0
 23 56  1  0  0  0  0
 24 25  1  0  0  0  0
 26 30  1  0  0  0  0
 26 27  1  0  0  0  0
 26 57  1  0  0  0  0
 27 28  1  0  0  0  0
 27 58  1  0  0  0  0
 27 59  1  0  0  0  0
 28 29  1  0  0  0  0
 28 60  1  0  0  0  0
 28 61  1  0  0  0  0
 29 30  1  0  0  0  0
 30 62  1  0  0  0  0
 30 63  1  0  0  0  0
M  END
> <s_m_source_file>
AV-unprocessed.smi

> <i_m_source_file_index>
148

> <i_lp_mmshare_version>
43012

> <i_f3d_flags>
0

> <s_epik_input>
W0NIMl0xT1tDSDJdW0NIMl1bQ0BIXTFbQ0BIXShbQ0gyXVtPSF0pW0NIMl1uKFtjSF1uMiljKGMyMyluW2NIXW5jM040W0NIMl1bQ0gyXVtDSDJdW0NIMl1bQ0BIXTRbQ0BASF01W0NIMl1bQ0gyXVtDSDJdW0NASF01W09IXQ==

> <s_epik_cmdline>
J2VwaWtfcHl0aG9uJywgJy1waCcsICc3LjAnLCAnLXRuJywgJzgnLCAnLW1hJywgJzIwMCcsICctbWV0YWxfYmluZGluZycsICctaW1hZScsICc8aW5maWxlLm1hZT4nLCAnLW9tYWUnLCAnPG91dGZpbGUubWFlPic=

> <r_lp_tautomer_probability>
1

> <r_epik_Ionization_Penalty>
0.00556303

> <r_epik_Ionization_Penalty_Charging>
0

> <r_epik_Ionization_Penalty_Neutral>
0.00556303

> <r_epik_State_Penalty>
0.00401767

> <r_epik_Charging_Adjusted_Penalty>
0.00401767

> <i_epik_Tot_Q>
0

> <i_epik_Tot_abs_Q>
0

> <r_epik_Metal_State_Penalty>
-0

> <b_epik_Metal_Only>
0

> <s_lp_Force_Field>
OPLS_2005

> <r_lp_Energy>
68.4806

> <b_lp_Chiralities_Consistent>
1

> <s_lp_Variant>
AV-unprocessed.smi:148-20

> <Gold.Version>
5.8.1

> <Gold.Id.Protein>
6NUR|6NUR_protein|mol2

> <Gold.PLP.Fitness>
47.8911

> <Gold.PLP.PLP>
-41.5427

> <Gold.PLP.part.hbond>
-4.0000

> <Gold.PLP.part.metal>
0.0000

> <Gold.PLP.part.buried>
-6.6301

> <Gold.PLP.part.nonpolar>
-32.9385

> <Gold.PLP.part.repulsive>
0.5571

> <Gold.PLP.ligand.clash>
0.0000

> <Gold.PLP.ligand.torsion>
1.5167

> <Gold.PLP.Chemscore.Hbond>
1.9920

> <Gold.PLP.Chemscore.CHOScore>
1.0000

> <Gold.PLP.Chemscore.Metal>
0.0000

> <Gold.Chemscore.Hbonds>
donor molecule, donor type, donor heavy atom, donor atom, acceptor molecule, acceptor atom, score
      L1  H     1    31       P1 10174  0.90
      P1  H  7989  7998       L1    21  1.00
      L1  C    23    56       P1  7957  1.00

> <Gold.PLP.Chemscore.Internal.Correction>
0.4057

> <Gold.Rescore>
     Score         DG    S(hbond)    S(metal)    S(lipo)     H(rot)  DE(clash)    DE(int)     intcor
      8.09     -13.28       1.49        0.00      96.80       3.32       1.36       3.82       ----

> <Gold.Chemscore.Fitness>
8.0938

> <Gold.Chemscore.DG>
-13.2774

> <Gold.Chemscore.ZeroCoef>
-5.4800

> <Gold.Chemscore.Hbond>
1.4886

> <Gold.Chemscore.Metal>
0.0000

> <Gold.Chemscore.Lipo>
96.8001

> <Gold.Chemscore.Internal_Hbond>
0.0000

> <Gold.Chemscore.DEClash>
1.3634

> <Gold.Chemscore.DEInternal>
3.8202

> <Gold.Chemscore.Rot>
3.3203

> <Gold.Chemscore.Internal.Correction>
   9.000000E+99

> <Gold.Chemscore.Hbonds>
donor molecule, donor type, donor heavy atom, donor atom, acceptor molecule, acceptor atom, score
      L1  H     1    31       P1 10174  0.88
      P1  H  7989  7998       L1    21  0.26

> <Gold.Chemscore.Hbond.Weighted>
-4.9718

> <Gold.Chemscore.Metal.Weighted>
-0.0000

> <Gold.Chemscore.Lipo.Weighted>
-11.3256

> <Gold.Chemscore.Internal_Hbond.Weighted>
0.0000

> <Gold.Chemscore.DEClash.Weighted>
1.3634

> <Gold.Chemscore.DEInternal.Weighted>
3.8202

> <Gold.Chemscore.Rot.Weighted>
8.5000

> <Gold.Chemscore.Internal.Correction.Weighted>
   9.000000E+99

> <Gold.Protein.RotatedTorsions>
[ 6907 6896 6895 6894 ] final  128.69 input  -60.11 | X-H torsion
[ 7974 7965 7964 7962 ] final -146.60 input  175.53 | X-H torsion
[ 8008 7997 7996 7995 ] final  -61.66 input   59.86 | X-H torsion
[ 10167 10162 10161 10158 ] final   98.49 input  -65.29 | X-H torsion
[ 10718 10713 10712 10709 ] final  -34.88 input   66.30 | X-H torsion
[ 10763 10752 10751 10750 ] final  -42.43 input  -60.55 | X-H torsion
[ 11005 11000 10999 10996 ] final  -56.01 input  -57.11 | X-H torsion

> <Gold.Protein.ActiveResidues>
 VAL166  LYS551  ARG553  GLY616  TRP617  ASP618  TYR619  PRO620  LYS621  CYS622 
 ASP623  PHE694  ASN695  SER759  ASP760  ASP761  ALA762  ILE779  LEU786  VAL792 
 PHE793  MET794  SER795  GLU796  ALA797  LYS798  CYS799  TRP800  GLU811  SER814 

> <Gold.Protein.RotatedAtoms>
  152.3695  133.6400  159.6075 H   0  0  0  0  0  0  0  0  0  0  0  0  # atno 6907 bound_to 6896
  150.7658  133.9293  159.3431 H   0  0  0  0  0  0  0  0  0  0  0  0  # atno 6908 bound_to 6896
  151.7118  135.0912  160.0320 H   0  0  0  0  0  0  0  0  0  0  0  0  # atno 6909 bound_to 6896
  144.8149  140.5435  143.5617 H   0  0  0  0  0  0  0  0  0  0  0  0  # atno 7974 bound_to 7965
  154.4459  140.1013  156.6465 H   0  0  0  0  0  0  0  0  0  0  0  0  # atno 8008 bound_to 7997
  155.5444  140.3484  155.4435 H   0  0  0  0  0  0  0  0  0  0  0  0  # atno 8009 bound_to 7997
  156.0574  140.1318  156.9970 H   0  0  0  0  0  0  0  0  0  0  0  0  # atno 8010 bound_to 7997
  139.7704  144.6924  151.0165 H   0  0  0  0  0  0  0  0  0  0  0  0  # atno 10167 bound_to 10162
  156.3453  130.4300  149.7751 H   0  0  0  0  0  0  0  0  0  0  0  0  # atno 10718 bound_to 10713
  153.9788  135.6719  153.4749 H   0  0  0  0  0  0  0  0  0  0  0  0  # atno 10763 bound_to 10752
  153.0758  135.4949  154.8397 H   0  0  0  0  0  0  0  0  0  0  0  0  # atno 10764 bound_to 10752
  154.7176  135.3110  154.9060 H   0  0  0  0  0  0  0  0  0  0  0  0  # atno 10765 bound_to 10752
  141.1101  133.6611  156.4556 H   0  0  0  0  0  0  0  0  0  0  0  0  # atno 11005 bound_to 11000
  145.5238  139.1476  143.3537 LP  0  0  0  0  0  0  0  0  0  0  0  0  # atno 17320 bound_to 7965
  146.2451  140.5379  142.8917 LP  0  0  0  0  0  0  0  0  0  0  0  0  # atno 17321 bound_to 7965
  140.7813  143.4595  151.0297 LP  0  0  0  0  0  0  0  0  0  0  0  0  # atno 17342 bound_to 10162
  139.8279  143.7731  152.3179 LP  0  0  0  0  0  0  0  0  0  0  0  0  # atno 17343 bound_to 10162
  156.4972  130.8112  151.3118 LP  0  0  0  0  0  0  0  0  0  0  0  0  # atno 17370 bound_to 10713
  157.7453  130.9956  150.2751 LP  0  0  0  0  0  0  0  0  0  0  0  0  # atno 17371 bound_to 10713
  140.4799  134.6674  157.5166 LP  0  0  0  0  0  0  0  0  0  0  0  0  # atno 17394 bound_to 11000
  139.9990  134.6866  155.9562 LP  0  0  0  0  0  0  0  0  0  0  0  0  # atno 17395 bound_to 11000

$$$$
