AV-unprocessed.smi:727|AV-procd|sdf|3516|dock1
  -GOLD-   22720 0513D 1   1.00000     0.00000
 Structure written by MMmdl.
 38 39  0  0  0  0  0  0  0  0  1 V2000
  151.0971  140.3096  155.5929 C   0  0  0  0  0  0  0  0  0  0  0  0
  149.8153  140.3199  154.8829 N   0  0  0  0  0  0  0  0  0  0  0  0
  149.1679  141.5573  154.7282 C   0  0  0  0  0  0  0  0  0  0  0  0
  147.9909  141.6605  154.0958 C   0  0  0  0  0  0  0  0  0  0  0  0
  147.3886  140.4610  153.5651 C   0  0  0  0  0  0  0  0  0  0  0  0
  147.9989  139.2559  153.6980 C   0  0  0  0  0  0  0  0  0  0  0  0
  147.4872  138.0359  153.2196 N   0  0  0  0  0  0  0  0  0  0  0  0
  146.2263  137.5646  153.2318 C   0  0  0  0  0  0  0  0  0  0  0  0
  145.2394  138.1501  153.6762 O   0  0  0  0  0  0  0  0  0  0  0  0
  146.1706  136.3455  152.6760 N   0  0  0  0  0  0  0  0  0  0  0  0
  144.9639  135.5399  152.5080 C   0  0  0  0  0  0  0  0  0  0  0  0
  145.0853  134.5364  151.3424 C   0  0  2  0  0  0  0  0  0  0  0  0
  143.7913  133.7029  151.2072 C   0  0  0  0  0  0  0  0  0  0  0  0
  143.9387  132.5391  150.2440 C   0  0  0  0  0  0  0  0  0  0  0  0
  145.1256  132.0817  149.8131 C   0  0  0  0  0  0  0  0  0  0  0  0
  146.4534  132.6745  150.2446 C   0  0  0  0  0  0  0  0  0  0  0  0
  146.3125  133.6066  151.4628 C   0  0  0  0  0  0  0  0  0  0  0  0
  149.2921  139.1525  154.4031 C   0  0  0  0  0  0  0  0  0  0  0  0
  149.8812  138.0797  154.5581 O   0  0  0  0  0  0  0  0  0  0  0  0
  151.4154  141.3055  155.9031 H   0  0  0  0  0  0  0  0  0  0  0  0
  151.8850  139.9019  154.9577 H   0  0  0  0  0  0  0  0  0  0  0  0
  151.0317  139.6943  156.4915 H   0  0  0  0  0  0  0  0  0  0  0  0
  149.6816  142.4078  155.1523 H   0  0  0  0  0  0  0  0  0  0  0  0
  147.5040  142.6183  153.9856 H   0  0  0  0  0  0  0  0  0  0  0  0
  146.4363  140.5710  153.0738 H   0  0  0  0  0  0  0  0  0  0  0  0
  148.1768  137.4420  152.7824 H   0  0  0  0  0  0  0  0  0  0  0  0
  147.0315  135.9423  152.3364 H   0  0  0  0  0  0  0  0  0  0  0  0
  144.7038  135.0179  153.4305 H   0  0  0  0  0  0  0  0  0  0  0  0
  144.1420  136.2289  152.3106 H   0  0  0  0  0  0  0  0  0  0  0  0
  145.2014  135.1116  150.4222 H   0  0  0  0  0  0  0  0  0  0  0  0
  143.4942  133.2971  152.1749 H   0  0  0  0  0  0  0  0  0  0  0  0
  142.9746  134.3405  150.8672 H   0  0  0  0  0  0  0  0  0  0  0  0
  143.0275  132.0636  149.9117 H   0  0  0  0  0  0  0  0  0  0  0  0
  145.1628  131.2574  149.1161 H   0  0  0  0  0  0  0  0  0  0  0  0
  147.1499  131.8679  150.4745 H   0  0  0  0  0  0  0  0  0  0  0  0
  146.8692  133.2211  149.3976 H   0  0  0  0  0  0  0  0  0  0  0  0
  147.2322  134.1810  151.5707 H   0  0  0  0  0  0  0  0  0  0  0  0
  146.2186  133.0075  152.3696 H   0  0  0  0  0  0  0  0  0  0  0  0
  1  2  1  0  0  0  0
  1 20  1  0  0  0  0
  1 21  1  0  0  0  0
  1 22  1  0  0  0  0
  2 18  1  0  0  0  0
  2  3  1  0  0  0  0
  3  4  2  0  0  0  0
  3 23  1  0  0  0  0
  4  5  1  0  0  0  0
  4 24  1  0  0  0  0
  5  6  2  0  0  0  0
  5 25  1  0  0  0  0
  6  7  1  0  0  0  0
  6 18  1  0  0  0  0
  7  8  1  0  0  0  0
  7 26  1  0  0  0  0
  8  9  2  0  0  0  0
  8 10  1  0  0  0  0
 10 11  1  0  0  0  0
 10 27  1  0  0  0  0
 11 12  1  0  0  0  0
 11 28  1  0  0  0  0
 11 29  1  0  0  0  0
 12 17  1  0  0  0  0
 12 13  1  0  0  0  0
 12 30  1  0  0  0  0
 13 14  1  0  0  0  0
 13 31  1  0  0  0  0
 13 32  1  0  0  0  0
 14 15  2  0  0  0  0
 14 33  1  0  0  0  0
 15 16  1  0  0  0  0
 15 34  1  0  0  0  0
 16 17  1  0  0  0  0
 16 35  1  0  0  0  0
 16 36  1  0  0  0  0
 17 37  1  0  0  0  0
 17 38  1  0  0  0  0
 18 19  2  0  0  0  0
M  END
> <s_m_source_file>
AV-unprocessed.smi

> <i_m_source_file_index>
727

> <i_lp_mmshare_version>
43012

> <i_f3d_flags>
0

> <s_epik_input>
W0NIM11uMVtjSF1bY0hdW2NIXWMoYzE9TylbTkhdQyg9TylbTkhdW0NIMl1bQ0BASF0yW0NIMl1bQ0hdPVtDSF1bQ0gyXVtDSDJdMg==

> <s_epik_cmdline>
J2VwaWtfcHl0aG9uJywgJy1waCcsICc3LjAnLCAnLXRuJywgJzgnLCAnLW1hJywgJzIwMCcsICctbWV0YWxfYmluZGluZycsICctaW1hZScsICc8aW5maWxlLm1hZT4nLCAnLW9tYWUnLCAnPG91dGZpbGUubWFlPic=

> <r_lp_tautomer_probability>
1

> <r_epik_Ionization_Penalty>
2.60682e-05

> <r_epik_Ionization_Penalty_Charging>
4.8094e-06

> <r_epik_Ionization_Penalty_Neutral>
2.12588e-05

> <r_epik_State_Penalty>
-0

> <r_epik_Charging_Adjusted_Penalty>
4.8094e-06

> <i_epik_Tot_Q>
0

> <i_epik_Tot_abs_Q>
0

> <r_epik_Metal_State_Penalty>
-0

> <b_epik_Metal_Only>
0

> <s_lp_Force_Field>
OPLS_2005

> <r_lp_Energy>
21.4957

> <b_lp_Chiralities_Consistent>
1

> <s_lp_Variant>
AV-unprocessed.smi:727-1

> <Gold.Version>
5.8.1

> <Gold.Id.Protein>
6NUR|6NUR_protein|mol2

> <Gold.PLP.Fitness>
45.5929

> <Gold.PLP.PLP>
-37.6574

> <Gold.PLP.part.hbond>
-2.0000

> <Gold.PLP.part.metal>
0.0000

> <Gold.PLP.part.buried>
-2.0675

> <Gold.PLP.part.nonpolar>
-34.2137

> <Gold.PLP.part.repulsive>
0.9969

> <Gold.PLP.ligand.clash>
0.0000

> <Gold.PLP.ligand.torsion>
0.5052

> <Gold.PLP.Chemscore.Hbond>
1.9760

> <Gold.PLP.Chemscore.CHOScore>
1.0000

> <Gold.PLP.Chemscore.Metal>
0.0000

> <Gold.Chemscore.Hbonds>
donor molecule, donor type, donor heavy atom, donor atom, acceptor molecule, acceptor atom, score
      L1  H     7    26       P1  7948  1.00
      L1  H    10    27       P1  7948  0.96
      L1  C     3    23       P1  8028  1.00

> <Gold.PLP.Chemscore.Internal.Correction>
0.0179

> <Gold.Rescore>
     Score         DG    S(hbond)    S(metal)    S(lipo)     H(rot)  DE(clash)    DE(int)     intcor
     18.42     -18.92       1.93        0.00      86.26       1.21       0.05       0.46       ----

> <Gold.Chemscore.Fitness>
18.4161

> <Gold.Chemscore.DG>
-18.9231

> <Gold.Chemscore.ZeroCoef>
-5.4800

> <Gold.Chemscore.Hbond>
1.9307

> <Gold.Chemscore.Metal>
0.0000

> <Gold.Chemscore.Lipo>
86.2649

> <Gold.Chemscore.Internal_Hbond>
0.0000

> <Gold.Chemscore.DEClash>
0.0471

> <Gold.Chemscore.DEInternal>
0.4600

> <Gold.Chemscore.Rot>
1.2103

> <Gold.Chemscore.Internal.Correction>
   9.000000E+99

> <Gold.Chemscore.Hbonds>
donor molecule, donor type, donor heavy atom, donor atom, acceptor molecule, acceptor atom, score
      L1  H     7    26       P1  7948  1.00
      L1  H    10    27       P1  7948  0.90

> <Gold.Chemscore.Hbond.Weighted>
-6.4486

> <Gold.Chemscore.Metal.Weighted>
-0.0000

> <Gold.Chemscore.Lipo.Weighted>
-10.0930

> <Gold.Chemscore.Internal_Hbond.Weighted>
0.0000

> <Gold.Chemscore.DEClash.Weighted>
0.0471

> <Gold.Chemscore.DEInternal.Weighted>
0.4600

> <Gold.Chemscore.Rot.Weighted>
3.0984

> <Gold.Chemscore.Internal.Correction.Weighted>
   9.000000E+99

> <Gold.Protein.RotatedTorsions>
[ 6907 6896 6895 6894 ] final   87.08 input  -60.11 | X-H torsion
[ 7974 7965 7964 7962 ] final   36.14 input  175.53 | X-H torsion
[ 8008 7997 7996 7995 ] final   88.44 input   59.86 | X-H torsion
[ 10167 10162 10161 10158 ] final -115.66 input  -65.29 | X-H torsion
[ 10718 10713 10712 10709 ] final -148.74 input   66.30 | X-H torsion
[ 10763 10752 10751 10750 ] final  -10.15 input  -60.55 | X-H torsion
[ 11005 11000 10999 10996 ] final   71.50 input  -57.11 | X-H torsion

> <Gold.Protein.ActiveResidues>
 VAL166  LYS551  ARG553  GLY616  TRP617  ASP618  TYR619  PRO620  LYS621  CYS622 
 ASP623  PHE694  ASN695  SER759  ASP760  ASP761  ALA762  ILE779  LEU786  VAL792 
 PHE793  MET794  SER795  GLU796  ALA797  LYS798  CYS799  TRP800  GLU811  SER814 

> <Gold.Protein.RotatedAtoms>
  152.5405  134.2332  159.8832 H   0  0  0  0  0  0  0  0  0  0  0  0  # atno 6907 bound_to 6896
  151.2303  133.4447  159.2611 H   0  0  0  0  0  0  0  0  0  0  0  0  # atno 6908 bound_to 6896
  151.0722  134.9819  159.8370 H   0  0  0  0  0  0  0  0  0  0  0  0  # atno 6909 bound_to 6896
  146.1233  139.6055  142.9275 H   0  0  0  0  0  0  0  0  0  0  0  0  # atno 7974 bound_to 7965
  155.9878  140.3371  155.6724 H   0  0  0  0  0  0  0  0  0  0  0  0  # atno 8008 bound_to 7997
  155.6462  140.0700  157.2620 H   0  0  0  0  0  0  0  0  0  0  0  0  # atno 8009 bound_to 7997
  154.4210  140.1734  156.1613 H   0  0  0  0  0  0  0  0  0  0  0  0  # atno 8010 bound_to 7997
  140.0876  143.4729  152.1889 H   0  0  0  0  0  0  0  0  0  0  0  0  # atno 10167 bound_to 10162
  156.4242  130.8044  151.2268 H   0  0  0  0  0  0  0  0  0  0  0  0  # atno 10718 bound_to 10713
  153.4650  135.7016  153.6027 H   0  0  0  0  0  0  0  0  0  0  0  0  # atno 10763 bound_to 10752
  153.4305  135.3804  155.2168 H   0  0  0  0  0  0  0  0  0  0  0  0  # atno 10764 bound_to 10752
  154.8726  135.3949  154.4081 H   0  0  0  0  0  0  0  0  0  0  0  0  # atno 10765 bound_to 10752
  139.9540  134.7177  156.0796 H   0  0  0  0  0  0  0  0  0  0  0  0  # atno 11005 bound_to 11000
  145.5420  141.0420  143.2325 LP  0  0  0  0  0  0  0  0  0  0  0  0  # atno 17320 bound_to 7965
  144.7618  139.6940  143.7231 LP  0  0  0  0  0  0  0  0  0  0  0  0  # atno 17321 bound_to 7965
  139.5743  144.7479  151.3807 LP  0  0  0  0  0  0  0  0  0  0  0  0  # atno 17342 bound_to 10162
  140.7045  143.7548  150.7459 LP  0  0  0  0  0  0  0  0  0  0  0  0  # atno 17343 bound_to 10162
  157.7508  131.0218  150.3767 LP  0  0  0  0  0  0  0  0  0  0  0  0  # atno 17370 bound_to 10713
  156.4091  130.3930  149.6904 LP  0  0  0  0  0  0  0  0  0  0  0  0  # atno 17371 bound_to 10713
  141.1208  133.6613  156.3210 LP  0  0  0  0  0  0  0  0  0  0  0  0  # atno 17394 bound_to 11000
  140.5653  134.5894  157.5444 LP  0  0  0  0  0  0  0  0  0  0  0  0  # atno 17395 bound_to 11000

$$$$
