AV-unprocessed.smi:72|AV-procd|sdf|744|dock8
  -GOLD-   2262017 73D 1   1.00000     0.00000
 Structure written by MMmdl.
 29 30  0  0  0  0  0  0  0  0  1 V2000
  153.1928  142.7974  160.1957 N   0  0  0  0  0  0  0  0  0  0  0  0
  152.3056  142.1555  159.3574 C   0  0  0  0  0  0  0  0  0  0  0  0
  151.4209  142.9745  158.6428 N   0  0  0  0  0  0  0  0  0  0  0  0
  150.5833  142.3768  157.8558 C   0  0  0  0  0  0  0  0  0  0  0  0
  150.5695  140.9290  157.7283 N   0  0  0  0  0  0  0  0  0  0  0  0
  149.6000  140.2002  156.8139 C   0  0  1  0  0  0  0  0  0  0  0  0
  148.4635  140.9880  156.5970 O   0  0  0  0  0  0  0  0  0  0  0  0
  148.4508  141.4776  155.2583 C   0  0  2  0  0  0  0  0  0  0  0  0
  147.0090  141.7945  154.8335 C   0  0  0  0  0  0  0  0  0  0  0  0
  146.5886  143.0104  155.4142 O   0  0  0  0  0  0  0  0  0  0  0  0
  149.0735  140.3086  154.4964 C   0  0  1  0  0  0  0  0  0  0  0  0
  149.5177  140.6628  153.2000 O   0  0  0  0  0  0  0  0  0  0  0  0
  150.1988  139.8658  155.4267 C   0  0  1  0  0  0  0  0  0  0  0  0
  151.4162  140.5436  155.1520 O   0  0  0  0  0  0  0  0  0  0  0  0
  151.5012  140.1610  158.4795 C   0  0  0  0  0  0  0  0  0  0  0  0
  151.5173  138.9345  158.3733 O   0  0  0  0  0  0  0  0  0  0  0  0
  152.3819  140.8563  159.3162 N   0  0  0  0  0  0  0  0  0  0  0  0
  149.2799  139.3168  157.3690 H   0  0  0  0  0  0  0  0  0  0  0  0
  149.0926  142.3563  155.1708 H   0  0  0  0  0  0  0  0  0  0  0  0
  148.3447  139.5010  154.4111 H   0  0  0  0  0  0  0  0  0  0  0  0
  150.3780  138.7926  155.3550 H   0  0  0  0  0  0  0  0  0  0  0  0
  153.8750  142.3103  160.7583 H   0  0  0  0  0  0  0  0  0  0  0  0
  153.2271  143.8003  160.3077 H   0  0  0  0  0  0  0  0  0  0  0  0
  149.8529  142.9155  157.2523 H   0  0  0  0  0  0  0  0  0  0  0  0
  146.9543  141.9141  153.7511 H   0  0  0  0  0  0  0  0  0  0  0  0
  146.3280  140.9876  155.1054 H   0  0  0  0  0  0  0  0  0  0  0  0
  147.2900  143.6389  155.3367 H   0  0  0  0  0  0  0  0  0  0  0  0
  149.0936  140.0966  152.5736 H   0  0  0  0  0  0  0  0  0  0  0  0
  151.8944  140.6402  155.9614 H   0  0  0  0  0  0  0  0  0  0  0  0
  1  2  1  0  0  0  0
  1 22  1  0  0  0  0
  1 23  1  0  0  0  0
  2 17  2  0  0  0  0
  2  3  1  0  0  0  0
  3  4  2  0  0  0  0
  4  5  1  0  0  0  0
  4 24  1  0  0  0  0
  5  6  1  0  0  0  0
  5 15  1  0  0  0  0
  6 18  1  0  0  0  0
  6 13  1  0  0  0  0
  6  7  1  0  0  0  0
  7  8  1  0  0  0  0
  8 19  1  0  0  0  0
  8  9  1  0  0  0  0
  8 11  1  0  0  0  0
  9 10  1  0  0  0  0
  9 25  1  0  0  0  0
  9 26  1  0  0  0  0
 10 27  1  0  0  0  0
 11 20  1  0  0  0  0
 11 12  1  0  0  0  0
 11 13  1  0  0  0  0
 12 28  1  0  0  0  0
 13 21  1  0  0  0  0
 13 14  1  0  0  0  0
 14 29  1  0  0  0  0
 15 16  2  0  0  0  0
 15 17  1  0  0  0  0
M  END
> <s_m_source_file>
AV-unprocessed.smi

> <i_m_source_file_index>
72

> <i_lp_mmshare_version>
43012

> <i_f3d_flags>
0

> <s_epik_input>
W05IMl1jMW5bY0hdbihjKD1PKW4xKVtDQEBIXTJPW0NASF0oW0NIMl1bT0hdKVtDQEBIXShbT0hdKVtDQEhdMltPSF0=

> <s_epik_cmdline>
J2VwaWtfcHl0aG9uJywgJy1waCcsICc3LjAnLCAnLXRuJywgJzgnLCAnLW1hJywgJzIwMCcsICctbWV0YWxfYmluZGluZycsICctaW1hZScsICc8aW5maWxlLm1hZT4nLCAnLW9tYWUnLCAnPG91dGZpbGUubWFlPic=

> <r_lp_tautomer_probability>
4.77166e-05

> <r_epik_Ionization_Penalty>
1.3546

> <r_epik_Ionization_Penalty_Charging>
1.46833e-10

> <r_epik_Ionization_Penalty_Neutral>
1.3546

> <r_epik_State_Penalty>
3.51908

> <r_epik_Charging_Adjusted_Penalty>
3.51908

> <i_epik_Tot_Q>
0

> <i_epik_Tot_abs_Q>
0

> <r_epik_Metal_State_Penalty>
3.44088

> <b_epik_Metal_Only>
1

> <s_epik_Chemistry_Notes>
This compound contains an acetal/aminal-like group ( X-CH(R)-Y where X, Y are N, S, or O) that may be acid/base labile, releasing an aldehyde.

> <s_lp_Force_Field>
OPLS_2005

> <r_lp_Energy>
34.5765

> <b_lp_Chiralities_Consistent>
1

> <s_lp_Variant>
AV-unprocessed.smi:72-82

> <Gold.Version>
5.8.1

> <Gold.Id.Protein>
6NUR|6NUR_protein|mol2

> <Gold.PLP.Fitness>
31.6510

> <Gold.PLP.PLP>
-22.7339

> <Gold.PLP.part.hbond>
-3.1331

> <Gold.PLP.part.metal>
0.0000

> <Gold.PLP.part.buried>
-3.6213

> <Gold.PLP.part.nonpolar>
-16.0179

> <Gold.PLP.part.repulsive>
0.1332

> <Gold.PLP.ligand.clash>
0.0000

> <Gold.PLP.ligand.torsion>
0.7684

> <Gold.PLP.Chemscore.Hbond>
2.6070

> <Gold.PLP.Chemscore.CHOScore>
0.8568

> <Gold.PLP.Chemscore.Metal>
0.0000

> <Gold.Chemscore.Hbonds>
donor molecule, donor type, donor heavy atom, donor atom, acceptor molecule, acceptor atom, score
      L1  H    10    27       P1  8028  0.35
      L1  H    12    28       P1  7957  0.38
      P1  H  7989  7998       L1    14  0.88
      P1  H  8011  8017       L1    12  1.00
      L1  C     4    24       P1  8028  0.86

> <Gold.PLP.Chemscore.Internal.Correction>
0.0623

> <Gold.Rescore>
     Score         DG    S(hbond)    S(metal)    S(lipo)     H(rot)  DE(clash)    DE(int)     intcor
      3.59      -3.95       1.79        0.00      24.53       4.06       0.12       0.24       ----

> <Gold.Chemscore.Fitness>
3.5879

> <Gold.Chemscore.DG>
-3.9459

> <Gold.Chemscore.ZeroCoef>
-5.4800

> <Gold.Chemscore.Hbond>
1.7933

> <Gold.Chemscore.Metal>
0.0000

> <Gold.Chemscore.Lipo>
24.5296

> <Gold.Chemscore.Internal_Hbond>
0.0000

> <Gold.Chemscore.DEClash>
0.1176

> <Gold.Chemscore.DEInternal>
0.2404

> <Gold.Chemscore.Rot>
4.0600

> <Gold.Chemscore.Internal.Correction>
   9.000000E+99

> <Gold.Chemscore.Hbonds>
donor molecule, donor type, donor heavy atom, donor atom, acceptor molecule, acceptor atom, score
      L1  H    10    27       P1  8028  0.01
      L1  H    12    28       P1  7957  0.36
      P1  H  7989  7998       L1    14  0.76
      P1  H  8011  8017       L1    12  0.59

> <Gold.Chemscore.Hbond.Weighted>
-5.9896

> <Gold.Chemscore.Metal.Weighted>
-0.0000

> <Gold.Chemscore.Lipo.Weighted>
-2.8700

> <Gold.Chemscore.Internal_Hbond.Weighted>
0.0000

> <Gold.Chemscore.DEClash.Weighted>
0.1176

> <Gold.Chemscore.DEInternal.Weighted>
0.2404

> <Gold.Chemscore.Rot.Weighted>
10.3936

> <Gold.Chemscore.Internal.Correction.Weighted>
   9.000000E+99

> <Gold.Protein.RotatedTorsions>
[ 6907 6896 6895 6894 ] final  -57.30 input  -60.11 | X-H torsion
[ 7974 7965 7964 7962 ] final  118.79 input  175.53 | X-H torsion
[ 8008 7997 7996 7995 ] final -169.17 input   59.86 | X-H torsion
[ 10167 10162 10161 10158 ] final -133.78 input  -65.29 | X-H torsion
[ 10718 10713 10712 10709 ] final  -14.69 input   66.30 | X-H torsion
[ 10763 10752 10751 10750 ] final   77.13 input  -60.55 | X-H torsion
[ 11005 11000 10999 10996 ] final   71.37 input  -57.11 | X-H torsion

> <Gold.Protein.ActiveResidues>
 VAL166  LYS551  ARG553  GLY616  TRP617  ASP618  TYR619  PRO620  LYS621  CYS622 
 ASP623  PHE694  ASN695  SER759  ASP760  ASP761  ALA762  ILE779  LEU786  VAL792 
 PHE793  MET794  SER795  GLU796  ALA797  LYS798  CYS799  TRP800  GLU811  SER814 

> <Gold.Protein.RotatedAtoms>
  150.8097  134.7244  159.6676 H   0  0  0  0  0  0  0  0  0  0  0  0  # atno 6907 bound_to 6896
  152.4217  134.5939  159.9991 H   0  0  0  0  0  0  0  0  0  0  0  0  # atno 6908 bound_to 6896
  151.6153  133.3306  159.3112 H   0  0  0  0  0  0  0  0  0  0  0  0  # atno 6909 bound_to 6896
  145.1510  139.3210  143.4567 H   0  0  0  0  0  0  0  0  0  0  0  0  # atno 7974 bound_to 7965
  155.9013  140.1041  157.1348 H   0  0  0  0  0  0  0  0  0  0  0  0  # atno 8008 bound_to 7997
  154.4027  140.1292  156.4504 H   0  0  0  0  0  0  0  0  0  0  0  0  # atno 8009 bound_to 7997
  155.7419  140.3466  155.5111 H   0  0  0  0  0  0  0  0  0  0  0  0  # atno 8010 bound_to 7997
  139.8947  143.6679  152.2606 H   0  0  0  0  0  0  0  0  0  0  0  0  # atno 10167 bound_to 10162
  156.6124  130.4853  149.6196 H   0  0  0  0  0  0  0  0  0  0  0  0  # atno 10718 bound_to 10713
  153.0775  135.4926  154.8435 H   0  0  0  0  0  0  0  0  0  0  0  0  # atno 10763 bound_to 10752
  154.7107  135.3019  154.9203 H   0  0  0  0  0  0  0  0  0  0  0  0  # atno 10764 bound_to 10752
  153.9897  135.6779  153.4806 H   0  0  0  0  0  0  0  0  0  0  0  0  # atno 10765 bound_to 10752
  139.9547  134.7165  156.0781 H   0  0  0  0  0  0  0  0  0  0  0  0  # atno 11005 bound_to 11000
  146.3494  140.1584  142.8591 LP  0  0  0  0  0  0  0  0  0  0  0  0  # atno 17320 bound_to 7965
  145.0431  140.8960  143.5040 LP  0  0  0  0  0  0  0  0  0  0  0  0  # atno 17321 bound_to 7965
  139.7078  144.7625  151.1163 LP  0  0  0  0  0  0  0  0  0  0  0  0  # atno 17342 bound_to 10162
  140.7719  143.5371  150.9355 LP  0  0  0  0  0  0  0  0  0  0  0  0  # atno 17343 bound_to 10162
  156.2379  130.6833  151.1527 LP  0  0  0  0  0  0  0  0  0  0  0  0  # atno 17370 bound_to 10713
  157.7250  131.0656  150.5970 LP  0  0  0  0  0  0  0  0  0  0  0  0  # atno 17371 bound_to 10713
  141.1216  133.6611  156.3230 LP  0  0  0  0  0  0  0  0  0  0  0  0  # atno 17394 bound_to 11000
  140.5637  134.5908  157.5440 LP  0  0  0  0  0  0  0  0  0  0  0  0  # atno 17395 bound_to 11000

$$$$
