AV-unprocessed.smi:2724|AV-procd|sdf|10513|dock4
  -GOLD-   2272014553D 1   1.00000     0.00000
 Structure written by MMmdl.
 26 27  0  0  0  0  0  0  0  0  2 V2000
  151.7437  142.8508  161.9086 O   0  0  0  0  0  0  0  0  0  0  0  0
  152.4441  143.7772  161.0999 C   0  0  2  0  0  0  0  0  0  0  0  0
  151.4999  144.9064  160.6582 C   0  0  0  0  0  0  0  0  0  0  0  0
  151.9520  145.2762  159.2466 C   0  0  0  0  0  0  0  0  0  0  0  0
  152.3647  143.9375  158.6396 C   0  0  0  0  0  0  0  0  0  0  0  0
  153.0436  143.1861  159.7972 C   0  0  2  0  0  0  0  0  0  0  0  0
  153.0142  141.6644  159.6668 C   0  0  0  0  0  0  0  0  0  0  0  0
  152.2599  141.0540  158.6389 C   0  0  0  0  0  0  0  0  0  0  0  0
  152.2424  139.6480  158.5283 C   0  0  0  0  0  0  0  0  0  0  0  0
  152.9808  138.8777  159.4487 C   0  0  0  0  0  0  0  0  0  0  0  0
  153.6931  139.4916  160.4182 N   0  3  0  0  0  0  0  0  0  0  0  0
  153.7344  140.8346  160.5577 C   0  0  0  0  0  0  0  0  0  0  0  0
  152.3713  142.3585  162.4155 H   0  0  0  0  0  0  0  0  0  0  0  0
  153.2522  144.1931  161.7034 H   0  0  0  0  0  0  0  0  0  0  0  0
  150.4708  144.5454  160.6121 H   0  0  0  0  0  0  0  0  0  0  0  0
  151.5176  145.7570  161.3401 H   0  0  0  0  0  0  0  0  0  0  0  0
  151.1705  145.7752  158.6730 H   0  0  0  0  0  0  0  0  0  0  0  0
  152.8126  145.9449  159.2942 H   0  0  0  0  0  0  0  0  0  0  0  0
  151.4621  143.4216  158.3119 H   0  0  0  0  0  0  0  0  0  0  0  0
  153.0131  144.0452  157.7694 H   0  0  0  0  0  0  0  0  0  0  0  0
  154.0922  143.4885  159.7781 H   0  0  0  0  0  0  0  0  0  0  0  0
  151.6981  141.6542  157.9378 H   0  0  0  0  0  0  0  0  0  0  0  0
  151.6704  139.1679  157.7476 H   0  0  0  0  0  0  0  0  0  0  0  0
  153.0247  137.7983  159.4380 H   0  0  0  0  0  0  0  0  0  0  0  0
  154.3472  141.2017  161.3681 H   0  0  0  0  0  0  0  0  0  0  0  0
  154.2240  138.9166  161.0731 H   0  0  0  0  0  0  0  0  0  0  0  0
  1  2  1  0  0  0  0
  1 13  1  0  0  0  0
  2  6  1  0  0  0  0
  2  3  1  0  0  0  0
  2 14  1  0  0  0  0
  3  4  1  0  0  0  0
  3 15  1  0  0  0  0
  3 16  1  0  0  0  0
  4  5  1  0  0  0  0
  4 17  1  0  0  0  0
  4 18  1  0  0  0  0
  5  6  1  0  0  0  0
  5 19  1  0  0  0  0
  5 20  1  0  0  0  0
  6  7  1  0  0  0  0
  6 21  1  0  0  0  0
  7 12  1  0  0  0  0
  7  8  2  0  0  0  0
  8  9  1  0  0  0  0
  8 22  1  0  0  0  0
  9 10  2  0  0  0  0
  9 23  1  0  0  0  0
 10 11  1  0  0  0  0
 10 24  1  0  0  0  0
 11 12  2  0  0  0  0
 11 26  1  0  0  0  0
 12 25  1  0  0  0  0
M  CHG  1  11   1
M  END
> <s_m_source_file>
AV-unprocessed.smi

> <i_m_source_file_index>
2724

> <i_lp_mmshare_version>
43012

> <i_f3d_flags>
0

> <s_epik_input>
W09IXVtDQEBIXTFbQ0gyXVtDSDJdW0NIMl1bQ0BIXTFjMltjSF1bY0hdW2NIXW5bY0hdMg==

> <s_epik_cmdline>
J2VwaWtfcHl0aG9uJywgJy1waCcsICc3LjAnLCAnLXRuJywgJzgnLCAnLW1hJywgJzIwMCcsICctbWV0YWxfYmluZGluZycsICctaW1hZScsICc8aW5maWxlLm1hZT4nLCAnLW9tYWUnLCAnPG91dGZpbGUubWFlPic=

> <r_epik_Ionization_Penalty>
2.09455

> <r_epik_Ionization_Penalty_Charging>
2.09455

> <r_epik_Ionization_Penalty_Neutral>
5.26757e-08

> <r_epik_State_Penalty>
2.23025

> <r_epik_Charging_Adjusted_Penalty>
4.3248

> <i_epik_Tot_Q>
1

> <i_epik_Tot_abs_Q>
1

> <r_epik_Metal_State_Penalty>
6.30911

> <b_epik_Metal_Only>
0

> <s_lp_Force_Field>
OPLS_2005

> <r_lp_Energy>
31.8011

> <b_lp_Chiralities_Consistent>
1

> <s_lp_Variant>
AV-unprocessed.smi:2724-7

> <Gold.Version>
5.8.1

> <Gold.Id.Protein>
6NUR|6NUR_protein|mol2

> <Gold.PLP.Fitness>
36.7872

> <Gold.PLP.PLP>
-34.5817

> <Gold.PLP.part.hbond>
-2.0000

> <Gold.PLP.part.metal>
0.0000

> <Gold.PLP.part.buried>
-4.3052

> <Gold.PLP.part.nonpolar>
-29.1381

> <Gold.PLP.part.repulsive>
0.0559

> <Gold.PLP.ligand.clash>
0.0000

> <Gold.PLP.ligand.torsion>
0.0722

> <Gold.PLP.Chemscore.Hbond>
0.7771

> <Gold.PLP.Chemscore.CHOScore>
0.0000

> <Gold.PLP.Chemscore.Metal>
0.0000

> <Gold.Chemscore.Hbonds>
donor molecule, donor type, donor heavy atom, donor atom, acceptor molecule, acceptor atom, score
      P1  H  6933  6945       L1     1  0.76

> <Gold.PLP.Chemscore.Internal.Correction>
0.0185

> <Gold.Rescore>
     Score         DG    S(hbond)    S(metal)    S(lipo)     H(rot)  DE(clash)    DE(int)     intcor
     15.27     -15.32       0.81        0.00      90.52       1.35       0.01       0.03       ----

> <Gold.Chemscore.Fitness>
15.2735

> <Gold.Chemscore.DG>
-15.3195

> <Gold.Chemscore.ZeroCoef>
-5.4800

> <Gold.Chemscore.Hbond>
0.8094

> <Gold.Chemscore.Metal>
0.0000

> <Gold.Chemscore.Lipo>
90.5215

> <Gold.Chemscore.Internal_Hbond>
0.0000

> <Gold.Chemscore.DEClash>
0.0126

> <Gold.Chemscore.DEInternal>
0.0334

> <Gold.Chemscore.Rot>
1.3496

> <Gold.Chemscore.Internal.Correction>
   9.000000E+99

> <Gold.Chemscore.Hbonds>
donor molecule, donor type, donor heavy atom, donor atom, acceptor molecule, acceptor atom, score
      P1  H  6933  6945       L1     1  0.22

> <Gold.Chemscore.Hbond.Weighted>
-2.7035

> <Gold.Chemscore.Metal.Weighted>
-0.0000

> <Gold.Chemscore.Lipo.Weighted>
-10.5910

> <Gold.Chemscore.Internal_Hbond.Weighted>
0.0000

> <Gold.Chemscore.DEClash.Weighted>
0.0126

> <Gold.Chemscore.DEInternal.Weighted>
0.0334

> <Gold.Chemscore.Rot.Weighted>
3.4550

> <Gold.Chemscore.Internal.Correction.Weighted>
   9.000000E+99

> <Gold.Protein.RotatedTorsions>
[ 6907 6896 6895 6894 ] final    3.93 input  -60.11 | X-H torsion
[ 7974 7965 7964 7962 ] final -153.33 input  175.53 | X-H torsion
[ 8008 7997 7996 7995 ] final -121.65 input   59.86 | X-H torsion
[ 10167 10162 10161 10158 ] final  -42.27 input  -65.29 | X-H torsion
[ 10718 10713 10712 10709 ] final -152.61 input   66.30 | X-H torsion
[ 10763 10752 10751 10750 ] final   58.12 input  -60.55 | X-H torsion
[ 11005 11000 10999 10996 ] final -163.32 input  -57.11 | X-H torsion

> <Gold.Protein.ActiveResidues>
 VAL166  LYS551  ARG553  GLY616  TRP617  ASP618  TYR619  PRO620  LYS621  CYS622 
 ASP623  PHE694  ASN695  SER759  ASP760  ASP761  ALA762  ILE779  LEU786  VAL792 
 PHE793  MET794  SER795  GLU796  ALA797  LYS798  CYS799  TRP800  GLU811  SER814 

> <Gold.Protein.RotatedAtoms>
  151.6331  135.1021  160.0125 H   0  0  0  0  0  0  0  0  0  0  0  0  # atno 6907 bound_to 6896
  152.4096  133.6938  159.6394 H   0  0  0  0  0  0  0  0  0  0  0  0  # atno 6908 bound_to 6896
  150.7987  133.8565  159.3261 H   0  0  0  0  0  0  0  0  0  0  0  0  # atno 6909 bound_to 6896
  144.7746  140.4540  143.5882 H   0  0  0  0  0  0  0  0  0  0  0  0  # atno 7974 bound_to 7965
  155.1515  140.0404  157.2822 H   0  0  0  0  0  0  0  0  0  0  0  0  # atno 8008 bound_to 7997
  154.6401  140.2545  155.7305 H   0  0  0  0  0  0  0  0  0  0  0  0  # atno 8009 bound_to 7997
  156.2528  140.2857  156.0790 H   0  0  0  0  0  0  0  0  0  0  0  0  # atno 8010 bound_to 7997
  140.6975  143.3047  151.3185 H   0  0  0  0  0  0  0  0  0  0  0  0  # atno 10167 bound_to 10162
  156.4747  130.8275  151.2504 H   0  0  0  0  0  0  0  0  0  0  0  0  # atno 10718 bound_to 10713
  152.9864  135.5617  154.5502 H   0  0  0  0  0  0  0  0  0  0  0  0  # atno 10763 bound_to 10752
  154.4940  135.2794  155.1476 H   0  0  0  0  0  0  0  0  0  0  0  0  # atno 10764 bound_to 10752
  154.2934  135.6322  153.5447 H   0  0  0  0  0  0  0  0  0  0  0  0  # atno 10765 bound_to 10752
  140.5994  134.4962  157.5203 H   0  0  0  0  0  0  0  0  0  0  0  0  # atno 11005 bound_to 11000
  145.6223  139.1525  143.3016 LP  0  0  0  0  0  0  0  0  0  0  0  0  # atno 17320 bound_to 7965
  146.1917  140.6332  142.9142 LP  0  0  0  0  0  0  0  0  0  0  0  0  # atno 17321 bound_to 7965
  139.6448  144.0471  152.2582 LP  0  0  0  0  0  0  0  0  0  0  0  0  # atno 17342 bound_to 10162
  139.9988  144.6308  150.7748 LP  0  0  0  0  0  0  0  0  0  0  0  0  # atno 17343 bound_to 10162
  157.7488  131.0064  150.3152 LP  0  0  0  0  0  0  0  0  0  0  0  0  # atno 17370 bound_to 10713
  156.3582  130.3842  149.7273 LP  0  0  0  0  0  0  0  0  0  0  0  0  # atno 17371 bound_to 10713
  139.9239  134.8095  156.1128 LP  0  0  0  0  0  0  0  0  0  0  0  0  # atno 17394 bound_to 11000
  141.0882  133.6725  156.2482 LP  0  0  0  0  0  0  0  0  0  0  0  0  # atno 17395 bound_to 11000

$$$$
