AV-unprocessed.smi:3198|AV-procd|sdf|12227|dock2
  -GOLD-   2272018 63D 1   1.00000     0.00000
 Structure written by MMmdl.
 38 39  0  0  0  0  0  0  0  0  2 V2000
  151.6278  145.0868  158.9717 C   0  0  0  0  0  0  0  0  0  0  0  0
  151.6358  143.6715  158.4341 C   0  0  0  0  0  0  0  0  0  0  0  0
  152.4231  142.6513  159.0068 C   0  0  0  0  0  0  0  0  0  0  0  0
  152.3788  141.3576  158.4495 C   0  0  0  0  0  0  0  0  0  0  0  0
  151.5526  141.1120  157.3333 C   0  0  0  0  0  0  0  0  0  0  0  0
  150.7821  142.1702  156.7940 C   0  0  0  0  0  0  0  0  0  0  0  0
  149.9323  142.0425  155.6880 N   0  0  0  0  0  0  0  0  0  0  0  0
  149.7985  140.7598  155.0152 C   0  0  0  0  0  0  0  0  0  0  0  0
  148.5285  140.0258  155.4571 C   0  0  0  0  0  0  0  0  0  0  0  0
  147.4057  140.6530  154.8604 O   0  0  0  0  0  0  0  0  0  0  0  0
  146.8867  141.7138  155.6447 C   0  0  0  0  0  0  0  0  0  0  0  0
  145.7688  142.4106  154.8590 C   0  0  2  0  0  0  0  0  0  0  0  0
  146.2608  143.1755  153.6311 C   0  0  0  0  0  0  0  0  0  0  0  0
  145.2067  144.2548  153.4337 C   0  0  0  0  0  0  0  0  0  0  0  0
  144.4216  144.2557  154.7484 C   0  0  0  0  0  0  0  0  0  0  0  0
  145.1809  143.4438  155.6328 O   0  0  0  0  0  0  0  0  0  0  0  0
  150.8565  143.3934  157.3650 N   0  3  0  0  0  0  0  0  0  0  0  0
  152.2573  145.1747  159.8578 H   0  0  0  0  0  0  0  0  0  0  0  0
  150.6150  145.3852  159.2438 H   0  0  0  0  0  0  0  0  0  0  0  0
  152.0011  145.7808  158.2183 H   0  0  0  0  0  0  0  0  0  0  0  0
  153.0530  142.8542  159.8609 H   0  0  0  0  0  0  0  0  0  0  0  0
  152.9727  140.5614  158.8736 H   0  0  0  0  0  0  0  0  0  0  0  0
  151.5201  140.1192  156.9096 H   0  0  0  0  0  0  0  0  0  0  0  0
  149.6153  142.8713  155.2059 H   0  0  0  0  0  0  0  0  0  0  0  0
  149.7905  140.9028  153.9340 H   0  0  0  0  0  0  0  0  0  0  0  0
  150.6693  140.1493  155.2561 H   0  0  0  0  0  0  0  0  0  0  0  0
  148.5791  138.9860  155.1307 H   0  0  0  0  0  0  0  0  0  0  0  0
  148.4417  140.0233  156.5451 H   0  0  0  0  0  0  0  0  0  0  0  0
  146.5114  141.3452  156.6008 H   0  0  0  0  0  0  0  0  0  0  0  0
  147.6859  142.4260  155.8560 H   0  0  0  0  0  0  0  0  0  0  0  0
  145.0011  141.6927  154.5633 H   0  0  0  0  0  0  0  0  0  0  0  0
  147.2244  143.6428  153.8396 H   0  0  0  0  0  0  0  0  0  0  0  0
  146.3812  142.5347  152.7572 H   0  0  0  0  0  0  0  0  0  0  0  0
  145.6733  145.2219  153.2427 H   0  0  0  0  0  0  0  0  0  0  0  0
  144.5498  144.0268  152.5933 H   0  0  0  0  0  0  0  0  0  0  0  0
  144.2845  145.2582  155.1544 H   0  0  0  0  0  0  0  0  0  0  0  0
  143.4367  143.8077  154.6075 H   0  0  0  0  0  0  0  0  0  0  0  0
  150.2973  144.1487  156.9682 H   0  0  0  0  0  0  0  0  0  0  0  0
  1  2  1  0  0  0  0
  1 18  1  0  0  0  0
  1 19  1  0  0  0  0
  1 20  1  0  0  0  0
  2 17  1  0  0  0  0
  2  3  2  0  0  0  0
  3  4  1  0  0  0  0
  3 21  1  0  0  0  0
  4  5  2  0  0  0  0
  4 22  1  0  0  0  0
  5  6  1  0  0  0  0
  5 23  1  0  0  0  0
  6  7  1  0  0  0  0
  6 17  2  0  0  0  0
  7  8  1  0  0  0  0
  7 24  1  0  0  0  0
  8  9  1  0  0  0  0
  8 25  1  0  0  0  0
  8 26  1  0  0  0  0
  9 10  1  0  0  0  0
  9 27  1  0  0  0  0
  9 28  1  0  0  0  0
 10 11  1  0  0  0  0
 11 12  1  0  0  0  0
 11 29  1  0  0  0  0
 11 30  1  0  0  0  0
 12 16  1  0  0  0  0
 12 13  1  0  0  0  0
 12 31  1  0  0  0  0
 13 14  1  0  0  0  0
 13 32  1  0  0  0  0
 13 33  1  0  0  0  0
 14 15  1  0  0  0  0
 14 34  1  0  0  0  0
 14 35  1  0  0  0  0
 15 16  1  0  0  0  0
 15 36  1  0  0  0  0
 15 37  1  0  0  0  0
 17 38  1  0  0  0  0
M  CHG  1  17   1
M  END
> <s_m_source_file>
AV-unprocessed.smi

> <i_m_source_file_index>
3198

> <i_lp_mmshare_version>
43012

> <i_f3d_flags>
0

> <s_epik_input>
W0NIM11jMVtjSF1bY0hdW2NIXWMobjEpW05IXVtDSDJdW0NIMl1PW0NIMl1bQ0BASF0yW0NIMl1bQ0gyXVtDSDJdTzI=

> <s_epik_cmdline>
J2VwaWtfcHl0aG9uJywgJy1waCcsICc3LjAnLCAnLXRuJywgJzgnLCAnLW1hJywgJzIwMCcsICctbWV0YWxfYmluZGluZycsICctaW1hZScsICc8aW5maWxlLm1hZT4nLCAnLW9tYWUnLCAnPG91dGZpbGUubWFlPic=

> <r_lp_tautomer_probability>
0.999994

> <r_epik_Ionization_Penalty>
0.0710016

> <r_epik_Ionization_Penalty_Charging>
0.0710012

> <r_epik_Ionization_Penalty_Neutral>
3.47026e-07

> <r_epik_State_Penalty>
0.0622974

> <r_epik_Charging_Adjusted_Penalty>
0.133299

> <i_epik_Tot_Q>
1

> <i_epik_Tot_abs_Q>
1

> <r_epik_Metal_State_Penalty>
2.79497

> <b_epik_Metal_Only>
0

> <s_lp_Force_Field>
OPLS_2005

> <r_lp_Energy>
24.6681

> <b_lp_Chiralities_Consistent>
1

> <s_lp_Variant>
AV-unprocessed.smi:3198-1

> <Gold.Version>
5.8.1

> <Gold.Id.Protein>
6NUR|6NUR_protein|mol2

> <Gold.PLP.Fitness>
45.3945

> <Gold.PLP.PLP>
-35.2069

> <Gold.PLP.part.hbond>
-2.0000

> <Gold.PLP.part.metal>
0.0000

> <Gold.PLP.part.buried>
-6.1760

> <Gold.PLP.part.nonpolar>
-27.7521

> <Gold.PLP.part.repulsive>
0.3956

> <Gold.PLP.ligand.clash>
0.0000

> <Gold.PLP.ligand.torsion>
0.3946

> <Gold.PLP.Chemscore.Hbond>
3.6480

> <Gold.PLP.Chemscore.CHOScore>
0.0000

> <Gold.PLP.Chemscore.Metal>
0.0000

> <Gold.Chemscore.Hbonds>
donor molecule, donor type, donor heavy atom, donor atom, acceptor molecule, acceptor atom, score
      L1  H     7    24       P1  8028  1.55
      L1  H    17    38       P1  8028  1.98

> <Gold.PLP.Chemscore.Internal.Correction>
0.0327

> <Gold.Rescore>
     Score         DG    S(hbond)    S(metal)    S(lipo)     H(rot)  DE(clash)    DE(int)     intcor
     16.82     -17.31       1.66        0.00      90.95       1.71       0.08       0.41       ----

> <Gold.Chemscore.Fitness>
16.8157

> <Gold.Chemscore.DG>
-17.3076

> <Gold.Chemscore.ZeroCoef>
-5.4800

> <Gold.Chemscore.Hbond>
1.6632

> <Gold.Chemscore.Metal>
0.0000

> <Gold.Chemscore.Lipo>
90.9469

> <Gold.Chemscore.Internal_Hbond>
0.0000

> <Gold.Chemscore.DEClash>
0.0783

> <Gold.Chemscore.DEInternal>
0.4137

> <Gold.Chemscore.Rot>
1.7063

> <Gold.Chemscore.Internal.Correction>
   9.000000E+99

> <Gold.Chemscore.Hbonds>
donor molecule, donor type, donor heavy atom, donor atom, acceptor molecule, acceptor atom, score
      L1  H     7    24       P1  8028  0.72
      L1  H    17    38       P1  8028  0.88

> <Gold.Chemscore.Hbond.Weighted>
-5.5550

> <Gold.Chemscore.Metal.Weighted>
-0.0000

> <Gold.Chemscore.Lipo.Weighted>
-10.6408

> <Gold.Chemscore.Internal_Hbond.Weighted>
0.0000

> <Gold.Chemscore.DEClash.Weighted>
0.0783

> <Gold.Chemscore.DEInternal.Weighted>
0.4137

> <Gold.Chemscore.Rot.Weighted>
4.3681

> <Gold.Chemscore.Internal.Correction.Weighted>
   9.000000E+99

> <Gold.Protein.RotatedTorsions>
[ 6907 6896 6895 6894 ] final   64.18 input  -60.11 | X-H torsion
[ 7974 7965 7964 7962 ] final   53.29 input  175.53 | X-H torsion
[ 8008 7997 7996 7995 ] final  108.70 input   59.86 | X-H torsion
[ 10167 10162 10161 10158 ] final -102.11 input  -65.29 | X-H torsion
[ 10718 10713 10712 10709 ] final -104.06 input   66.30 | X-H torsion
[ 10763 10752 10751 10750 ] final -172.79 input  -60.55 | X-H torsion
[ 11005 11000 10999 10996 ] final  -97.48 input  -57.11 | X-H torsion

> <Gold.Protein.ActiveResidues>
 VAL166  LYS551  ARG553  GLY616  TRP617  ASP618  TYR619  PRO620  LYS621  CYS622 
 ASP623  PHE694  ASN695  SER759  ASP760  ASP761  ALA762  ILE779  LEU786  VAL792 
 PHE793  MET794  SER795  GLU796  ALA797  LYS798  CYS799  TRP800  GLU811  SER814 

> <Gold.Protein.RotatedAtoms>
  152.4312  134.5775  159.9938 H   0  0  0  0  0  0  0  0  0  0  0  0  # atno 6907 bound_to 6896
  151.5897  133.3362  159.3033 H   0  0  0  0  0  0  0  0  0  0  0  0  # atno 6908 bound_to 6896
  150.8205  134.7445  159.6832 H   0  0  0  0  0  0  0  0  0  0  0  0  # atno 6909 bound_to 6896
  145.9727  139.4164  143.0180 H   0  0  0  0  0  0  0  0  0  0  0  0  # atno 7974 bound_to 7965
  156.1923  140.3071  155.9357 H   0  0  0  0  0  0  0  0  0  0  0  0  # atno 8008 bound_to 7997
  155.3145  140.0452  157.3053 H   0  0  0  0  0  0  0  0  0  0  0  0  # atno 8009 bound_to 7997
  154.5467  140.2278  155.8561 H   0  0  0  0  0  0  0  0  0  0  0  0  # atno 8010 bound_to 7997
  140.2341  143.3585  152.0860 H   0  0  0  0  0  0  0  0  0  0  0  0  # atno 10167 bound_to 10162
  156.0289  130.5497  150.7342 H   0  0  0  0  0  0  0  0  0  0  0  0  # atno 10718 bound_to 10713
  154.6152  135.2869  155.0387 H   0  0  0  0  0  0  0  0  0  0  0  0  # atno 10763 bound_to 10752
  154.1602  135.6489  153.4988 H   0  0  0  0  0  0  0  0  0  0  0  0  # atno 10764 bound_to 10752
  153.0212  135.5376  154.6921 H   0  0  0  0  0  0  0  0  0  0  0  0  # atno 10765 bound_to 10752
  141.1377  133.8174  157.0712 H   0  0  0  0  0  0  0  0  0  0  0  0  # atno 11005 bound_to 11000
  145.7883  140.9826  143.1062 LP  0  0  0  0  0  0  0  0  0  0  0  0  # atno 17320 bound_to 7965
  144.6841  139.9651  143.7481 LP  0  0  0  0  0  0  0  0  0  0  0  0  # atno 17321 bound_to 7965
  139.5099  144.6876  151.5846 LP  0  0  0  0  0  0  0  0  0  0  0  0  # atno 17342 bound_to 10162
  140.6163  143.9343  150.6491 LP  0  0  0  0  0  0  0  0  0  0  0  0  # atno 17343 bound_to 10162
  157.4927  131.0912  151.0408 LP  0  0  0  0  0  0  0  0  0  0  0  0  # atno 17370 bound_to 10713
  157.0810  130.5903  149.5420 LP  0  0  0  0  0  0  0  0  0  0  0  0  # atno 17371 bound_to 10713
  140.0510  134.9805  157.1136 LP  0  0  0  0  0  0  0  0  0  0  0  0  # atno 17394 bound_to 11000
  140.3990  134.2103  155.7164 LP  0  0  0  0  0  0  0  0  0  0  0  0  # atno 17395 bound_to 11000

$$$$
