AV-unprocessed.smi:2908|AV-procd|sdf|11169|dock6
  -GOLD-   2272016 63D 1   1.00000     0.00000
 Structure written by MMmdl.
 44 45  0  0  0  0  0  0  0  0  2 V2000
  150.8728  140.3524  154.6947 O   0  0  0  0  0  0  0  0  0  0  0  0
  151.0896  139.7085  155.7226 C   0  0  0  0  0  0  0  0  0  0  0  0
  150.8253  140.2034  156.9447 N   0  0  0  0  0  0  0  0  0  0  0  0
  150.2457  141.5139  157.2312 C   0  0  0  0  0  0  0  0  0  0  0  0
  151.2927  142.6447  157.1986 C   0  0  0  0  0  0  0  0  0  0  0  0
  151.6426  143.1942  158.5702 C   0  0  0  0  0  0  0  0  0  0  0  0
  152.5064  142.5138  159.4563 C   0  0  0  0  0  0  0  0  0  0  0  0
  152.8103  143.0960  160.7043 C   0  0  0  0  0  0  0  0  0  0  0  0
  152.2435  144.3427  161.0410 C   0  0  0  0  0  0  0  0  0  0  0  0
  151.3849  144.9763  160.1198 C   0  0  0  0  0  0  0  0  0  0  0  0
  151.1175  144.3865  158.9343 N   0  3  0  0  0  0  0  0  0  0  0  0
  151.6669  138.4809  155.7216 N   0  0  0  0  0  0  0  0  0  0  0  0
  152.1166  137.7309  156.9040 C   0  0  0  0  0  0  0  0  0  0  0  0
  151.0976  136.6158  157.1953 C   0  0  0  0  0  0  0  0  0  0  0  0
  150.9078  135.6702  155.9807 C   0  0  0  0  0  0  0  0  0  0  0  0
  149.8089  134.6080  156.2573 C   0  0  2  0  0  0  0  0  0  0  0  0
  149.9811  134.1168  157.5742 O   0  0  0  0  0  0  0  0  0  0  0  0
  149.7994  133.3875  155.3072 C   0  0  0  0  0  0  0  0  0  0  0  0
  148.8071  132.5624  155.6450 F   0  0  0  0  0  0  0  0  0  0  0  0
  149.5769  133.7705  154.0504 F   0  0  0  0  0  0  0  0  0  0  0  0
  150.9574  132.7288  155.3612 F   0  0  0  0  0  0  0  0  0  0  0  0
  150.6499  136.5020  154.6997 C   0  0  0  0  0  0  0  0  0  0  0  0
  151.6831  137.6305  154.5278 C   0  0  0  0  0  0  0  0  0  0  0  0
  151.0435  139.6214  157.7406 H   0  0  0  0  0  0  0  0  0  0  0  0
  149.4311  141.7328  156.5387 H   0  0  0  0  0  0  0  0  0  0  0  0
  149.7936  141.4689  158.2222 H   0  0  0  0  0  0  0  0  0  0  0  0
  152.2056  142.2826  156.7244 H   0  0  0  0  0  0  0  0  0  0  0  0
  150.9308  143.4604  156.5714 H   0  0  0  0  0  0  0  0  0  0  0  0
  152.9394  141.5632  159.1810 H   0  0  0  0  0  0  0  0  0  0  0  0
  153.4728  142.5939  161.3940 H   0  0  0  0  0  0  0  0  0  0  0  0
  152.4659  144.8070  161.9907 H   0  0  0  0  0  0  0  0  0  0  0  0
  150.9107  145.9313  160.2923 H   0  0  0  0  0  0  0  0  0  0  0  0
  153.0965  137.2956  156.7035 H   0  0  0  0  0  0  0  0  0  0  0  0
  152.2519  138.3460  157.7933 H   0  0  0  0  0  0  0  0  0  0  0  0
  151.4290  136.0521  158.0675 H   0  0  0  0  0  0  0  0  0  0  0  0
  150.1410  137.0650  157.4660 H   0  0  0  0  0  0  0  0  0  0  0  0
  151.8514  135.1431  155.8315 H   0  0  0  0  0  0  0  0  0  0  0  0
  148.8291  135.0856  156.2170 H   0  0  0  0  0  0  0  0  0  0  0  0
  149.2603  133.5388  157.7735 H   0  0  0  0  0  0  0  0  0  0  0  0
  150.6934  135.8634  153.8183 H   0  0  0  0  0  0  0  0  0  0  0  0
  149.6463  136.9289  154.7301 H   0  0  0  0  0  0  0  0  0  0  0  0
  151.4792  138.1882  153.6126 H   0  0  0  0  0  0  0  0  0  0  0  0
  152.6805  137.2082  154.3967 H   0  0  0  0  0  0  0  0  0  0  0  0
  150.5001  144.8674  158.2797 H   0  0  0  0  0  0  0  0  0  0  0  0
  1  2  2  0  0  0  0
  2  3  1  0  0  0  0
  2 12  1  0  0  0  0
  3  4  1  0  0  0  0
  3 24  1  0  0  0  0
  4  5  1  0  0  0  0
  4 25  1  0  0  0  0
  4 26  1  0  0  0  0
  5  6  1  0  0  0  0
  5 27  1  0  0  0  0
  5 28  1  0  0  0  0
  6 11  1  0  0  0  0
  6  7  2  0  0  0  0
  7  8  1  0  0  0  0
  7 29  1  0  0  0  0
  8  9  2  0  0  0  0
  8 30  1  0  0  0  0
  9 10  1  0  0  0  0
  9 31  1  0  0  0  0
 10 11  2  0  0  0  0
 10 32  1  0  0  0  0
 11 44  1  0  0  0  0
 12 23  1  0  0  0  0
 12 13  1  0  0  0  0
 13 14  1  0  0  0  0
 13 33  1  0  0  0  0
 13 34  1  0  0  0  0
 14 15  1  0  0  0  0
 14 35  1  0  0  0  0
 14 36  1  0  0  0  0
 15 16  1  0  0  0  0
 15 22  1  0  0  0  0
 15 37  1  0  0  0  0
 16 17  1  0  0  0  0
 16 18  1  0  0  0  0
 16 38  1  0  0  0  0
 17 39  1  0  0  0  0
 18 19  1  0  0  0  0
 18 20  1  0  0  0  0
 18 21  1  0  0  0  0
 22 23  1  0  0  0  0
 22 40  1  0  0  0  0
 22 41  1  0  0  0  0
 23 42  1  0  0  0  0
 23 43  1  0  0  0  0
M  CHG  1  11   1
M  END
> <s_m_source_file>
AV-unprocessed.smi

> <i_m_source_file_index>
2908

> <i_lp_mmshare_version>
43012

> <i_f3d_flags>
0

> <s_epik_input>
RkMoRikoRilbQ0BASF0oW09IXSlbQ0hdKFtDSDJdW0NIMl0xKVtDSDJdW0NIMl1OMUMoPU8pW05IXVtDSDJdW0NIMl1jMltjSF1bY0hdW2NIXVtjSF1uMg==

> <s_epik_cmdline>
J2VwaWtfcHl0aG9uJywgJy1waCcsICc3LjAnLCAnLXRuJywgJzgnLCAnLW1hJywgJzIwMCcsICctbWV0YWxfYmluZGluZycsICctaW1hZScsICc8aW5maWxlLm1hZT4nLCAnLW9tYWUnLCAnPG91dGZpbGUubWFlPic=

> <r_epik_Ionization_Penalty>
1.55054

> <r_epik_Ionization_Penalty_Charging>
1.55036

> <r_epik_Ionization_Penalty_Neutral>
0.00017404

> <r_epik_State_Penalty>
1.64453

> <r_epik_Charging_Adjusted_Penalty>
3.19489

> <i_epik_Tot_Q>
1

> <i_epik_Tot_abs_Q>
1

> <r_epik_Metal_State_Penalty>
1.68672

> <b_epik_Metal_Only>
0

> <s_lp_Force_Field>
OPLS_2005

> <r_lp_Energy>
42.7125

> <b_lp_Chiralities_Consistent>
1

> <s_lp_Variant>
AV-unprocessed.smi:2908-3

> <Gold.Version>
5.8.1

> <Gold.Id.Protein>
6NUR|6NUR_protein|mol2

> <Gold.PLP.Fitness>
46.9171

> <Gold.PLP.PLP>
-42.4594

> <Gold.PLP.part.hbond>
-1.8764

> <Gold.PLP.part.metal>
0.0000

> <Gold.PLP.part.buried>
-6.6611

> <Gold.PLP.part.nonpolar>
-34.6263

> <Gold.PLP.part.repulsive>
0.2281

> <Gold.PLP.ligand.clash>
0.0000

> <Gold.PLP.ligand.torsion>
1.0235

> <Gold.PLP.Chemscore.Hbond>
1.9913

> <Gold.PLP.Chemscore.CHOScore>
0.0000

> <Gold.PLP.Chemscore.Metal>
0.0000

> <Gold.Chemscore.Hbonds>
donor molecule, donor type, donor heavy atom, donor atom, acceptor molecule, acceptor atom, score
      P1  H  6896  6908       L1    17  0.63
      P1  H  7989  7998       L1     1  0.94

> <Gold.PLP.Chemscore.Internal.Correction>
0.5309

> <Gold.Rescore>
     Score         DG    S(hbond)    S(metal)    S(lipo)     H(rot)  DE(clash)    DE(int)     intcor
     16.35     -17.66       1.93        0.00     101.47       2.40       0.01       1.30       ----

> <Gold.Chemscore.Fitness>
16.3489

> <Gold.Chemscore.DG>
-17.6553

> <Gold.Chemscore.ZeroCoef>
-5.4800

> <Gold.Chemscore.Hbond>
1.9324

> <Gold.Chemscore.Metal>
0.0000

> <Gold.Chemscore.Lipo>
101.4673

> <Gold.Chemscore.Internal_Hbond>
0.0000

> <Gold.Chemscore.DEClash>
0.0060

> <Gold.Chemscore.DEInternal>
1.3004

> <Gold.Chemscore.Rot>
2.4026

> <Gold.Chemscore.Internal.Correction>
   9.000000E+99

> <Gold.Chemscore.Hbonds>
donor molecule, donor type, donor heavy atom, donor atom, acceptor molecule, acceptor atom, score
      P1  H  6896  6908       L1    17  0.05
      P1  H  7989  7998       L1     1  0.89

> <Gold.Chemscore.Hbond.Weighted>
-6.4544

> <Gold.Chemscore.Metal.Weighted>
-0.0000

> <Gold.Chemscore.Lipo.Weighted>
-11.8717

> <Gold.Chemscore.Internal_Hbond.Weighted>
0.0000

> <Gold.Chemscore.DEClash.Weighted>
0.0060

> <Gold.Chemscore.DEInternal.Weighted>
1.3004

> <Gold.Chemscore.Rot.Weighted>
6.1508

> <Gold.Chemscore.Internal.Correction.Weighted>
   9.000000E+99

> <Gold.Protein.RotatedTorsions>
[ 6907 6896 6895 6894 ] final  128.29 input  -60.11 | X-H torsion
[ 7974 7965 7964 7962 ] final    8.78 input  175.53 | X-H torsion
[ 8008 7997 7996 7995 ] final  -85.67 input   59.86 | X-H torsion
[ 10167 10162 10161 10158 ] final -127.41 input  -65.29 | X-H torsion
[ 10718 10713 10712 10709 ] final  134.29 input   66.30 | X-H torsion
[ 10763 10752 10751 10750 ] final -100.12 input  -60.55 | X-H torsion
[ 11005 11000 10999 10996 ] final   14.11 input  -57.11 | X-H torsion

> <Gold.Protein.ActiveResidues>
 VAL166  LYS551  ARG553  GLY616  TRP617  ASP618  TYR619  PRO620  LYS621  CYS622 
 ASP623  PHE694  ASN695  SER759  ASP760  ASP761  ALA762  ILE779  LEU786  VAL792 
 PHE793  MET794  SER795  GLU796  ALA797  LYS798  CYS799  TRP800  GLU811  SER814 

> <Gold.Protein.RotatedAtoms>
  152.3733  133.6448  159.6103 H   0  0  0  0  0  0  0  0  0  0  0  0  # atno 6907 bound_to 6896
  150.7685  133.9234  159.3414 H   0  0  0  0  0  0  0  0  0  0  0  0  # atno 6908 bound_to 6896
  151.7053  135.0924  160.0309 H   0  0  0  0  0  0  0  0  0  0  0  0  # atno 6909 bound_to 6896
  146.2412  139.9881  142.8428 H   0  0  0  0  0  0  0  0  0  0  0  0  # atno 7974 bound_to 7965
  154.6433  140.0588  156.9871 H   0  0  0  0  0  0  0  0  0  0  0  0  # atno 8008 bound_to 7997
  155.1483  140.3272  155.4418 H   0  0  0  0  0  0  0  0  0  0  0  0  # atno 8009 bound_to 7997
  156.2541  140.1952  156.6596 H   0  0  0  0  0  0  0  0  0  0  0  0  # atno 8010 bound_to 7997
  139.9611  143.5949  152.2444 H   0  0  0  0  0  0  0  0  0  0  0  0  # atno 10167 bound_to 10162
  157.4688  131.1078  150.9829 H   0  0  0  0  0  0  0  0  0  0  0  0  # atno 10718 bound_to 10713
  154.7553  135.4947  153.9364 H   0  0  0  0  0  0  0  0  0  0  0  0  # atno 10763 bound_to 10752
  153.1189  135.6727  153.9377 H   0  0  0  0  0  0  0  0  0  0  0  0  # atno 10764 bound_to 10752
  153.9115  135.3098  155.3427 H   0  0  0  0  0  0  0  0  0  0  0  0  # atno 10765 bound_to 10752
  140.4732  134.1010  155.7736 H   0  0  0  0  0  0  0  0  0  0  0  0  # atno 11005 bound_to 11000
  145.1528  140.9632  143.4422 LP  0  0  0  0  0  0  0  0  0  0  0  0  # atno 17320 bound_to 7965
  145.0189  139.3442  143.6082 LP  0  0  0  0  0  0  0  0  0  0  0  0  # atno 17321 bound_to 7965
  139.6553  144.7662  151.2068 LP  0  0  0  0  0  0  0  0  0  0  0  0  # atno 17342 bound_to 10162
  140.7553  143.6095  150.8619 LP  0  0  0  0  0  0  0  0  0  0  0  0  # atno 17343 bound_to 10162
  157.0601  130.5822  149.5384 LP  0  0  0  0  0  0  0  0  0  0  0  0  # atno 17370 bound_to 10713
  156.0063  130.5150  150.7840 LP  0  0  0  0  0  0  0  0  0  0  0  0  # atno 17371 bound_to 10713
  141.1567  133.8869  157.1958 LP  0  0  0  0  0  0  0  0  0  0  0  0  # atno 17394 bound_to 11000
  139.9872  135.0077  156.9891 LP  0  0  0  0  0  0  0  0  0  0  0  0  # atno 17395 bound_to 11000

$$$$
