AV-unprocessed.smi:2440|AV-procd|sdf|9616|dock9
  -GOLD-   2272013253D 1   1.00000     0.00000
 Structure written by MMmdl.
 52 54  0  0  0  0  0  0  0  0  2 V2000
  147.8397  132.8969  152.1221 C   0  0  0  0  0  0  0  0  0  0  0  0
  146.4652  132.9382  151.4771 C   0  0  0  0  0  0  0  0  0  0  0  0
  145.9263  131.7721  150.8916 C   0  0  0  0  0  0  0  0  0  0  0  0
  144.7161  131.7261  150.2976 N   0  0  0  0  0  0  0  0  0  0  0  0
  143.9897  132.8620  150.2624 C   0  0  0  0  0  0  0  0  0  0  0  0
  144.4286  134.0808  150.8153 C   0  0  0  0  0  0  0  0  0  0  0  0
  145.6926  134.1246  151.4518 C   0  0  0  0  0  0  0  0  0  0  0  0
  146.2367  135.3116  152.0191 N   0  0  0  0  0  0  0  0  0  0  0  0
  145.5866  136.3749  152.5228 C   0  0  0  0  0  0  0  0  0  0  0  0
  144.3638  136.4859  152.6092 O   0  0  0  0  0  0  0  0  0  0  0  0
  146.4487  137.3106  152.9475 N   0  0  0  0  0  0  0  0  0  0  0  0
  146.0893  138.5899  153.5543 C   0  0  2  0  0  0  0  0  0  0  0  0
  147.1217  139.6630  153.1630 C   0  0  0  0  0  0  0  0  0  0  0  0
  146.8633  140.9805  153.9190 C   0  0  0  0  0  0  0  0  0  0  0  0
  146.8784  140.7819  155.3973 N   0  3  2  0  0  0  0  0  0  0  0  0
  148.2290  140.5092  156.0016 C   0  0  0  0  0  0  0  0  0  0  0  0
  148.2051  140.6333  157.5495 C   0  0  0  0  0  0  0  0  0  0  0  0
  149.5870  140.4263  158.1892 C   0  0  0  0  0  0  0  0  0  0  0  0
  150.6218  141.3954  157.6109 C   0  0  0  0  0  0  0  0  0  0  0  0
  150.6978  141.2419  156.0895 C   0  0  0  0  0  0  0  0  0  0  0  0
  149.3237  141.4537  155.4344 C   0  0  0  0  0  0  0  0  0  0  0  0
  145.8049  139.8131  155.7645 C   0  0  0  0  0  0  0  0  0  0  0  0
  146.0088  138.4445  155.0855 C   0  0  0  0  0  0  0  0  0  0  0  0
  148.2807  131.9019  152.0533 H   0  0  0  0  0  0  0  0  0  0  0  0
  147.7727  133.1633  153.1773 H   0  0  0  0  0  0  0  0  0  0  0  0
  148.5138  133.5986  151.6302 H   0  0  0  0  0  0  0  0  0  0  0  0
  146.4825  130.8461  150.8967 H   0  0  0  0  0  0  0  0  0  0  0  0
  143.0299  132.8013  149.7708 H   0  0  0  0  0  0  0  0  0  0  0  0
  143.7984  134.9524  150.7282 H   0  0  0  0  0  0  0  0  0  0  0  0
  147.2424  135.3254  152.1032 H   0  0  0  0  0  0  0  0  0  0  0  0
  147.4349  137.1225  152.8405 H   0  0  0  0  0  0  0  0  0  0  0  0
  145.1134  138.9225  153.1959 H   0  0  0  0  0  0  0  0  0  0  0  0
  148.1330  139.3090  153.3659 H   0  0  0  0  0  0  0  0  0  0  0  0
  147.0744  139.8433  152.0882 H   0  0  0  0  0  0  0  0  0  0  0  0
  147.5502  141.7601  153.5974 H   0  0  0  0  0  0  0  0  0  0  0  0
  145.8787  141.3574  153.6386 H   0  0  0  0  0  0  0  0  0  0  0  0
  148.5198  139.4876  155.7570 H   0  0  0  0  0  0  0  0  0  0  0  0
  147.8169  141.6119  157.8350 H   0  0  0  0  0  0  0  0  0  0  0  0
  147.5436  139.8917  157.9938 H   0  0  0  0  0  0  0  0  0  0  0  0
  149.5192  140.5599  159.2694 H   0  0  0  0  0  0  0  0  0  0  0  0
  149.9161  139.3993  158.0255 H   0  0  0  0  0  0  0  0  0  0  0  0
  150.3547  142.4212  157.8681 H   0  0  0  0  0  0  0  0  0  0  0  0
  151.5997  141.2073  158.0551 H   0  0  0  0  0  0  0  0  0  0  0  0
  151.4164  141.9538  155.6818 H   0  0  0  0  0  0  0  0  0  0  0  0
  151.0726  140.2483  155.8403 H   0  0  0  0  0  0  0  0  0  0  0  0
  149.4630  141.2962  154.3662 H   0  0  0  0  0  0  0  0  0  0  0  0
  149.0177  142.4930  155.5628 H   0  0  0  0  0  0  0  0  0  0  0  0
  145.6953  139.7030  156.8409 H   0  0  0  0  0  0  0  0  0  0  0  0
  144.8503  140.2274  155.4370 H   0  0  0  0  0  0  0  0  0  0  0  0
  145.1842  137.7805  155.3483 H   0  0  0  0  0  0  0  0  0  0  0  0
  146.9122  137.9692  155.4693 H   0  0  0  0  0  0  0  0  0  0  0  0
  146.5929  141.6671  155.7918 H   0  0  0  0  0  0  0  0  0  0  0  0
  1  2  1  0  0  0  0
  1 24  1  0  0  0  0
  1 25  1  0  0  0  0
  1 26  1  0  0  0  0
  2  7  1  0  0  0  0
  2  3  2  0  0  0  0
  3  4  1  0  0  0  0
  3 27  1  0  0  0  0
  4  5  2  0  0  0  0
  5  6  1  0  0  0  0
  5 28  1  0  0  0  0
  6  7  2  0  0  0  0
  6 29  1  0  0  0  0
  7  8  1  0  0  0  0
  8  9  1  0  0  0  0
  8 30  1  0  0  0  0
  9 10  2  0  0  0  0
  9 11  1  0  0  0  0
 11 12  1  0  0  0  0
 11 31  1  0  0  0  0
 12 23  1  0  0  0  0
 12 13  1  0  0  0  0
 12 32  1  0  0  0  0
 13 14  1  0  0  0  0
 13 33  1  0  0  0  0
 13 34  1  0  0  0  0
 14 15  1  0  0  0  0
 14 35  1  0  0  0  0
 14 36  1  0  0  0  0
 15 16  1  0  0  0  0
 15 22  1  0  0  0  0
 15 52  1  0  0  0  0
 16 21  1  0  0  0  0
 16 17  1  0  0  0  0
 16 37  1  0  0  0  0
 17 18  1  0  0  0  0
 17 38  1  0  0  0  0
 17 39  1  0  0  0  0
 18 19  1  0  0  0  0
 18 40  1  0  0  0  0
 18 41  1  0  0  0  0
 19 20  1  0  0  0  0
 19 42  1  0  0  0  0
 19 43  1  0  0  0  0
 20 21  1  0  0  0  0
 20 44  1  0  0  0  0
 20 45  1  0  0  0  0
 21 46  1  0  0  0  0
 21 47  1  0  0  0  0
 22 23  1  0  0  0  0
 22 48  1  0  0  0  0
 22 49  1  0  0  0  0
 23 50  1  0  0  0  0
 23 51  1  0  0  0  0
M  CHG  1  15   1
M  END
> <s_m_source_file>
AV-unprocessed.smi

> <i_m_source_file_index>
2440

> <i_lp_mmshare_version>
43012

> <i_f3d_flags>
0

> <s_epik_input>
W0NIM11jMVtjSF1uW2NIXVtjSF1jMVtOSF1DKD1PKVtOSF1bQ0hdMltDSDJdW0NIMl1OKFtDSDJdW0NIMl0yKVtDSF0zW0NIMl1bQ0gyXVtDSDJdW0NIMl1bQ0gyXTM=

> <s_epik_cmdline>
J2VwaWtfcHl0aG9uJywgJy1waCcsICc3LjAnLCAnLXRuJywgJzgnLCAnLW1hJywgJzIwMCcsICctbWV0YWxfYmluZGluZycsICctaW1hZScsICc8aW5maWxlLm1hZT4nLCAnLW9tYWUnLCAnPG91dGZpbGUubWFlPic=

> <r_epik_Ionization_Penalty>
0.180356

> <r_epik_Ionization_Penalty_Charging>
0.00171891

> <r_epik_Ionization_Penalty_Neutral>
0.178637

> <r_epik_State_Penalty>
0.173134

> <r_epik_Charging_Adjusted_Penalty>
0.174853

> <i_epik_Tot_Q>
1

> <i_epik_Tot_abs_Q>
1

> <r_epik_Metal_State_Penalty>
0.131816

> <b_epik_Metal_Only>
0

> <s_lp_Force_Field>
OPLS_2005

> <r_lp_Energy>
36.8114

> <b_lp_Chiralities_Consistent>
1

> <s_lp_Variant>
AV-unprocessed.smi:2440-2

> <Gold.Version>
5.8.1

> <Gold.Id.Protein>
6NUR|6NUR_protein|mol2

> <Gold.PLP.Fitness>
44.1419

> <Gold.PLP.PLP>
-34.3928

> <Gold.PLP.part.hbond>
-2.1014

> <Gold.PLP.part.metal>
0.0000

> <Gold.PLP.part.buried>
-1.7824

> <Gold.PLP.part.nonpolar>
-31.3836

> <Gold.PLP.part.repulsive>
0.4319

> <Gold.PLP.ligand.clash>
0.0000

> <Gold.PLP.ligand.torsion>
0.6366

> <Gold.PLP.Chemscore.Hbond>
2.0000

> <Gold.PLP.Chemscore.CHOScore>
1.6591

> <Gold.PLP.Chemscore.Metal>
0.0000

> <Gold.Chemscore.Hbonds>
donor molecule, donor type, donor heavy atom, donor atom, acceptor molecule, acceptor atom, score
      L1  H     8    30       P1  7948  1.00
      L1  H    11    31       P1  7948  1.00
      L1  C     3    27       P1 10747  0.74
      L1  C     5    28       P1 10186  0.83

> <Gold.PLP.Chemscore.Internal.Correction>
0.0449

> <Gold.Rescore>
     Score         DG    S(hbond)    S(metal)    S(lipo)     H(rot)  DE(clash)    DE(int)     intcor
     18.33     -20.27       1.97        0.00      95.79       1.17       1.28       0.66       ----

> <Gold.Chemscore.Fitness>
18.3332

> <Gold.Chemscore.DG>
-20.2690

> <Gold.Chemscore.ZeroCoef>
-5.4800

> <Gold.Chemscore.Hbond>
1.9703

> <Gold.Chemscore.Metal>
0.0000

> <Gold.Chemscore.Lipo>
95.7894

> <Gold.Chemscore.Internal_Hbond>
0.0000

> <Gold.Chemscore.DEClash>
1.2763

> <Gold.Chemscore.DEInternal>
0.6595

> <Gold.Chemscore.Rot>
1.1715

> <Gold.Chemscore.Internal.Correction>
   9.000000E+99

> <Gold.Chemscore.Hbonds>
donor molecule, donor type, donor heavy atom, donor atom, acceptor molecule, acceptor atom, score
      L1  H     8    30       P1  7948  0.95
      L1  H    11    31       P1  7948  0.90

> <Gold.Chemscore.Hbond.Weighted>
-6.5808

> <Gold.Chemscore.Metal.Weighted>
-0.0000

> <Gold.Chemscore.Lipo.Weighted>
-11.2074

> <Gold.Chemscore.Internal_Hbond.Weighted>
0.0000

> <Gold.Chemscore.DEClash.Weighted>
1.2763

> <Gold.Chemscore.DEInternal.Weighted>
0.6595

> <Gold.Chemscore.Rot.Weighted>
2.9991

> <Gold.Chemscore.Internal.Correction.Weighted>
   9.000000E+99

> <Gold.Protein.RotatedTorsions>
[ 6907 6896 6895 6894 ] final  -22.87 input  -60.11 | X-H torsion
[ 7974 7965 7964 7962 ] final  -76.98 input  175.53 | X-H torsion
[ 8008 7997 7996 7995 ] final   88.98 input   59.86 | X-H torsion
[ 10167 10162 10161 10158 ] final   -4.49 input  -65.29 | X-H torsion
[ 10718 10713 10712 10709 ] final -104.16 input   66.30 | X-H torsion
[ 10763 10752 10751 10750 ] final  130.69 input  -60.55 | X-H torsion
[ 11005 11000 10999 10996 ] final -156.80 input  -57.11 | X-H torsion

> <Gold.Protein.ActiveResidues>
 VAL166  LYS551  ARG553  GLY616  TRP617  ASP618  TYR619  PRO620  LYS621  CYS622 
 ASP623  PHE694  ASN695  SER759  ASP760  ASP761  ALA762  ILE779  LEU786  VAL792 
 PHE793  MET794  SER795  GLU796  ALA797  LYS798  CYS799  TRP800  GLU811  SER814 

> <Gold.Protein.RotatedAtoms>
  151.2122  135.0486  159.8915 H   0  0  0  0  0  0  0  0  0  0  0  0  # atno 6907 bound_to 6896
  152.5423  134.0732  159.8213 H   0  0  0  0  0  0  0  0  0  0  0  0  # atno 6908 bound_to 6896
  151.0887  133.5285  159.2648 H   0  0  0  0  0  0  0  0  0  0  0  0  # atno 6909 bound_to 6896
  145.6057  140.9398  143.1217 H   0  0  0  0  0  0  0  0  0  0  0  0  # atno 7974 bound_to 7965
  155.9944  140.3365  155.6784 H   0  0  0  0  0  0  0  0  0  0  0  0  # atno 8008 bound_to 7997
  155.6376  140.0692  157.2647 H   0  0  0  0  0  0  0  0  0  0  0  0  # atno 8009 bound_to 7997
  154.4229  140.1748  156.1526 H   0  0  0  0  0  0  0  0  0  0  0  0  # atno 8010 bound_to 7997
  140.6929  143.6418  150.8429 H   0  0  0  0  0  0  0  0  0  0  0  0  # atno 10167 bound_to 10162
  156.0293  130.5502  150.7356 H   0  0  0  0  0  0  0  0  0  0  0  0  # atno 10718 bound_to 10713
  153.7622  135.3194  155.3339 H   0  0  0  0  0  0  0  0  0  0  0  0  # atno 10763 bound_to 10752
  154.8226  135.4592  154.0827 H   0  0  0  0  0  0  0  0  0  0  0  0  # atno 10764 bound_to 10752
  153.2061  135.6929  153.8255 H   0  0  0  0  0  0  0  0  0  0  0  0  # atno 10765 bound_to 10752
  140.6716  134.4241  157.5231 H   0  0  0  0  0  0  0  0  0  0  0  0  # atno 11005 bound_to 11000
  144.7291  139.7782  143.7354 LP  0  0  0  0  0  0  0  0  0  0  0  0  # atno 17320 bound_to 7965
  146.1543  139.4635  143.0029 LP  0  0  0  0  0  0  0  0  0  0  0  0  # atno 17321 bound_to 7965
  140.0133  143.5620  152.2830 LP  0  0  0  0  0  0  0  0  0  0  0  0  # atno 17342 bound_to 10162
  139.6351  144.7649  151.2454 LP  0  0  0  0  0  0  0  0  0  0  0  0  # atno 17343 bound_to 10162
  157.4938  131.0913  151.0396 LP  0  0  0  0  0  0  0  0  0  0  0  0  # atno 17370 bound_to 10713
  157.0795  130.5897  149.5418 LP  0  0  0  0  0  0  0  0  0  0  0  0  # atno 17371 bound_to 10713
  139.8980  134.8624  156.2022 LP  0  0  0  0  0  0  0  0  0  0  0  0  # atno 17394 bound_to 11000
  141.0387  133.6949  156.1559 LP  0  0  0  0  0  0  0  0  0  0  0  0  # atno 17395 bound_to 11000

$$$$
