AV-unprocessed.smi:3335|AV-procd|sdf|12840|dock3
  -GOLD-   2272019223D 1   1.00000     0.00000
 Structure written by MMmdl.
 47 48  0  0  0  0  0  0  0  0  2 V2000
  144.9661  131.6783  150.8232 C   0  0  0  0  0  0  0  0  0  0  0  0
  144.5178  133.0845  151.0972 C   0  0  0  0  0  0  0  0  0  0  0  0
  144.9831  134.2856  150.4921 C   0  0  0  0  0  0  0  0  0  0  0  0
  144.3687  135.3625  150.9526 N   0  0  0  0  0  0  0  0  0  0  0  0
  143.5000  134.8952  151.8776 N   0  0  0  0  0  0  0  0  0  0  0  0
  142.5956  135.7986  152.5862 C   0  0  1  0  0  0  0  0  0  0  0  0
  141.4840  135.0359  153.3344 C   0  0  0  0  0  0  0  0  0  0  0  0
  143.3512  136.8083  153.4923 C   0  0  1  0  0  0  0  0  0  0  0  0
  144.7331  137.2240  152.9434 C   0  0  0  0  0  0  0  0  0  0  0  0
  142.4849  137.9925  153.7196 N   0  3  0  0  0  0  0  0  0  0  0  0
  142.1147  138.3357  155.1155 C   0  0  2  0  0  0  0  0  0  0  0  0
  143.2390  137.9720  156.1046 C   0  0  0  0  0  0  0  0  0  0  0  0
  140.8191  137.5975  155.5030 C   0  0  0  0  0  0  0  0  0  0  0  0
  140.8547  136.7794  156.4240 O   0  0  0  0  0  0  0  0  0  0  0  0
  139.6744  137.8705  154.8394 N   0  0  0  0  0  0  0  0  0  0  0  0
  139.5101  138.8255  153.7424 C   0  0  0  0  0  0  0  0  0  0  0  0
  138.0024  138.9465  153.5206 C   0  0  0  0  0  0  0  0  0  0  0  0
  137.4478  137.6195  154.0172 C   0  0  0  0  0  0  0  0  0  0  0  0
  138.4016  137.2166  155.1414 C   0  0  0  0  0  0  0  0  0  0  0  0
  143.5688  133.5204  151.9772 C   0  0  0  0  0  0  0  0  0  0  0  0
  145.6482  131.6279  149.9742 H   0  0  0  0  0  0  0  0  0  0  0  0
  144.1239  131.0244  150.5962 H   0  0  0  0  0  0  0  0  0  0  0  0
  145.4861  131.2483  151.6793 H   0  0  0  0  0  0  0  0  0  0  0  0
  145.7394  134.4049  149.7304 H   0  0  0  0  0  0  0  0  0  0  0  0
  142.0809  136.3781  151.8173 H   0  0  0  0  0  0  0  0  0  0  0  0
  140.7674  135.7270  153.7786 H   0  0  0  0  0  0  0  0  0  0  0  0
  141.8753  134.4095  154.1359 H   0  0  0  0  0  0  0  0  0  0  0  0
  140.9312  134.3884  152.6529 H   0  0  0  0  0  0  0  0  0  0  0  0
  143.5014  136.3160  154.4526 H   0  0  0  0  0  0  0  0  0  0  0  0
  145.3313  136.3557  152.6691 H   0  0  0  0  0  0  0  0  0  0  0  0
  145.3128  137.7733  153.6842 H   0  0  0  0  0  0  0  0  0  0  0  0
  144.6438  137.8571  152.0603 H   0  0  0  0  0  0  0  0  0  0  0  0
  142.9558  138.7927  153.3212 H   0  0  0  0  0  0  0  0  0  0  0  0
  141.9266  139.4064  155.1580 H   0  0  0  0  0  0  0  0  0  0  0  0
  142.9255  138.1178  157.1390 H   0  0  0  0  0  0  0  0  0  0  0  0
  144.1222  138.5925  155.9565 H   0  0  0  0  0  0  0  0  0  0  0  0
  143.5412  136.9295  155.9987 H   0  0  0  0  0  0  0  0  0  0  0  0
  139.9506  139.7983  153.9625 H   0  0  0  0  0  0  0  0  0  0  0  0
  139.9914  138.4262  152.8484 H   0  0  0  0  0  0  0  0  0  0  0  0
  137.6063  139.7580  154.1325 H   0  0  0  0  0  0  0  0  0  0  0  0
  137.7412  139.1525  152.4823 H   0  0  0  0  0  0  0  0  0  0  0  0
  136.4104  137.6892  154.3463 H   0  0  0  0  0  0  0  0  0  0  0  0
  137.4956  136.8817  153.2152 H   0  0  0  0  0  0  0  0  0  0  0  0
  138.5005  136.1318  155.2052 H   0  0  0  0  0  0  0  0  0  0  0  0
  138.0351  137.5809  156.1024 H   0  0  0  0  0  0  0  0  0  0  0  0
  142.9375  132.9675  152.6573 H   0  0  0  0  0  0  0  0  0  0  0  0
  141.6246  137.8543  153.2086 H   0  0  0  0  0  0  0  0  0  0  0  0
  1  2  1  0  0  0  0
  1 21  1  0  0  0  0
  1 22  1  0  0  0  0
  1 23  1  0  0  0  0
  2 20  2  0  0  0  0
  2  3  1  0  0  0  0
  3  4  2  0  0  0  0
  3 24  1  0  0  0  0
  4  5  1  0  0  0  0
  5  6  1  0  0  0  0
  5 20  1  0  0  0  0
  6  7  1  0  0  0  0
  6  8  1  0  0  0  0
  6 25  1  0  0  0  0
  7 26  1  0  0  0  0
  7 27  1  0  0  0  0
  7 28  1  0  0  0  0
  8  9  1  0  0  0  0
  8 10  1  0  0  0  0
  8 29  1  0  0  0  0
  9 30  1  0  0  0  0
  9 31  1  0  0  0  0
  9 32  1  0  0  0  0
 10 11  1  0  0  0  0
 10 33  1  0  0  0  0
 10 47  1  0  0  0  0
 11 12  1  0  0  0  0
 11 13  1  0  0  0  0
 11 34  1  0  0  0  0
 12 35  1  0  0  0  0
 12 36  1  0  0  0  0
 12 37  1  0  0  0  0
 13 14  2  0  0  0  0
 13 15  1  0  0  0  0
 15 19  1  0  0  0  0
 15 16  1  0  0  0  0
 16 17  1  0  0  0  0
 16 38  1  0  0  0  0
 16 39  1  0  0  0  0
 17 18  1  0  0  0  0
 17 40  1  0  0  0  0
 17 41  1  0  0  0  0
 18 19  1  0  0  0  0
 18 42  1  0  0  0  0
 18 43  1  0  0  0  0
 19 44  1  0  0  0  0
 19 45  1  0  0  0  0
 20 46  1  0  0  0  0
M  CHG  1  10   1
M  END
> <s_m_source_file>
AV-unprocessed.smi

> <i_m_source_file_index>
3335

> <i_lp_mmshare_version>
43012

> <i_f3d_flags>
0

> <s_epik_input>
W0NIM11jMVtjSF1ubihbY0hdMSlbQ0BIXShbQ0gzXSlbQ0BIXShbQ0gzXSlbTkhdW0NASF0oW0NIM10pQyg9TylOMltDSDJdW0NIMl1bQ0gyXVtDSDJdMg==

> <s_epik_cmdline>
J2VwaWtfcHl0aG9uJywgJy1waCcsICc3LjAnLCAnLXRuJywgJzgnLCAnLW1hJywgJzIwMCcsICctbWV0YWxfYmluZGluZycsICctaW1hZScsICc8aW5maWxlLm1hZT4nLCAnLW9tYWUnLCAnPG91dGZpbGUubWFlPic=

> <r_lp_tautomer_probability>
1

> <r_epik_Ionization_Penalty>
0.14175

> <r_epik_Ionization_Penalty_Charging>
0.141731

> <r_epik_Ionization_Penalty_Neutral>
1.91261e-05

> <r_epik_State_Penalty>
0.131043

> <r_epik_Charging_Adjusted_Penalty>
0.272773

> <i_epik_Tot_Q>
1

> <i_epik_Tot_abs_Q>
1

> <r_epik_Metal_State_Penalty>
0.131408

> <b_epik_Metal_Only>
0

> <s_lp_Force_Field>
OPLS_2005

> <r_lp_Energy>
37.3946

> <b_lp_Chiralities_Consistent>
1

> <s_lp_Variant>
AV-unprocessed.smi:3335-4

> <Gold.Version>
5.8.1

> <Gold.Id.Protein>
6NUR|6NUR_protein|mol2

> <Gold.PLP.Fitness>
41.2088

> <Gold.PLP.PLP>
-30.8342

> <Gold.PLP.part.hbond>
-2.0000

> <Gold.PLP.part.metal>
0.0000

> <Gold.PLP.part.buried>
-5.9389

> <Gold.PLP.part.nonpolar>
-23.9099

> <Gold.PLP.part.repulsive>
0.2253

> <Gold.PLP.ligand.clash>
0.0073

> <Gold.PLP.ligand.torsion>
1.6893

> <Gold.PLP.Chemscore.Hbond>
2.4960

> <Gold.PLP.Chemscore.CHOScore>
2.0000

> <Gold.PLP.Chemscore.Metal>
0.0000

> <Gold.Chemscore.Hbonds>
donor molecule, donor type, donor heavy atom, donor atom, acceptor molecule, acceptor atom, score
      L1  H    10    33       P1 10175  2.00
      P1  H 11000 11005       L1    14  0.53
      L1  C     3    24       P1  7921  1.00
      L1  C    20    46       P1 10957  1.00

> <Gold.PLP.Chemscore.Internal.Correction>
0.2726

> <Gold.Rescore>
     Score         DG    S(hbond)    S(metal)    S(lipo)     H(rot)  DE(clash)    DE(int)     intcor
     12.18     -15.37       1.51        0.00      78.06       1.68       0.09       3.09       ----

> <Gold.Chemscore.Fitness>
12.1836

> <Gold.Chemscore.DG>
-15.3668

> <Gold.Chemscore.ZeroCoef>
-5.4800

> <Gold.Chemscore.Hbond>
1.5118

> <Gold.Chemscore.Metal>
0.0000

> <Gold.Chemscore.Lipo>
78.0563

> <Gold.Chemscore.Internal_Hbond>
0.0000

> <Gold.Chemscore.DEClash>
0.0948

> <Gold.Chemscore.DEInternal>
3.0884

> <Gold.Chemscore.Rot>
1.6778

> <Gold.Chemscore.Internal.Correction>
   9.000000E+99

> <Gold.Chemscore.Hbonds>
donor molecule, donor type, donor heavy atom, donor atom, acceptor molecule, acceptor atom, score
      L1  H    10    33       P1 10175  0.98
      P1  H 11000 11005       L1    14  0.50

> <Gold.Chemscore.Hbond.Weighted>
-5.0494

> <Gold.Chemscore.Metal.Weighted>
-0.0000

> <Gold.Chemscore.Lipo.Weighted>
-9.1326

> <Gold.Chemscore.Internal_Hbond.Weighted>
0.0000

> <Gold.Chemscore.DEClash.Weighted>
0.0948

> <Gold.Chemscore.DEInternal.Weighted>
3.0884

> <Gold.Chemscore.Rot.Weighted>
4.2952

> <Gold.Chemscore.Internal.Correction.Weighted>
   9.000000E+99

> <Gold.Protein.RotatedTorsions>
[ 6907 6896 6895 6894 ] final  -57.43 input  -60.11 | X-H torsion
[ 7974 7965 7964 7962 ] final  150.15 input  175.53 | X-H torsion
[ 8008 7997 7996 7995 ] final   17.50 input   59.86 | X-H torsion
[ 10167 10162 10161 10158 ] final -163.57 input  -65.29 | X-H torsion
[ 10718 10713 10712 10709 ] final  155.42 input   66.30 | X-H torsion
[ 10763 10752 10751 10750 ] final  123.78 input  -60.55 | X-H torsion
[ 11005 11000 10999 10996 ] final  121.35 input  -57.11 | X-H torsion

> <Gold.Protein.ActiveResidues>
 VAL166  LYS551  ARG553  GLY616  TRP617  ASP618  TYR619  PRO620  LYS621  CYS622 
 ASP623  PHE694  ASN695  SER759  ASP760  ASP761  ALA762  ILE779  LEU786  VAL792 
 PHE793  MET794  SER795  GLU796  ALA797  LYS798  CYS799  TRP800  GLU811  SER814 

> <Gold.Protein.RotatedAtoms>
  150.8086  134.7227  159.6667 H   0  0  0  0  0  0  0  0  0  0  0  0  # atno 6907 bound_to 6896
  152.4206  134.5958  159.9996 H   0  0  0  0  0  0  0  0  0  0  0  0  # atno 6908 bound_to 6896
  151.6175  133.3305  159.3117 H   0  0  0  0  0  0  0  0  0  0  0  0  # atno 6909 bound_to 6896
  144.8385  139.6371  143.6027 H   0  0  0  0  0  0  0  0  0  0  0  0  # atno 7974 bound_to 7965
  154.8924  140.2989  155.5363 H   0  0  0  0  0  0  0  0  0  0  0  0  # atno 8008 bound_to 7997
  156.3020  140.2422  156.3876 H   0  0  0  0  0  0  0  0  0  0  0  0  # atno 8009 bound_to 7997
  154.8605  140.0405  157.1651 H   0  0  0  0  0  0  0  0  0  0  0  0  # atno 8010 bound_to 7997
  139.6311  144.0437  152.2017 H   0  0  0  0  0  0  0  0  0  0  0  0  # atno 10167 bound_to 10162
  157.2185  131.0713  151.1926 H   0  0  0  0  0  0  0  0  0  0  0  0  # atno 10718 bound_to 10713
  153.6510  135.3363  155.3100 H   0  0  0  0  0  0  0  0  0  0  0  0  # atno 10763 bound_to 10752
  154.8537  135.4341  154.1904 H   0  0  0  0  0  0  0  0  0  0  0  0  # atno 10764 bound_to 10752
  153.2847  135.7012  153.7426 H   0  0  0  0  0  0  0  0  0  0  0  0  # atno 10765 bound_to 10752
  139.9222  134.9638  156.7945 H   0  0  0  0  0  0  0  0  0  0  0  0  # atno 11005 bound_to 11000
  146.2681  139.6569  142.9315 LP  0  0  0  0  0  0  0  0  0  0  0  0  # atno 17320 bound_to 7965
  145.4743  141.0437  143.2681 LP  0  0  0  0  0  0  0  0  0  0  0  0  # atno 17321 bound_to 7965
  140.0103  144.6229  150.7653 LP  0  0  0  0  0  0  0  0  0  0  0  0  # atno 17342 bound_to 10162
  140.7440  143.2854  151.3479 LP  0  0  0  0  0  0  0  0  0  0  0  0  # atno 17343 bound_to 10162
  157.3600  130.7126  149.6495 LP  0  0  0  0  0  0  0  0  0  0  0  0  # atno 17370 bound_to 10713
  155.9684  130.4228  150.4534 LP  0  0  0  0  0  0  0  0  0  0  0  0  # atno 17371 bound_to 10713
  140.6440  133.9792  155.7721 LP  0  0  0  0  0  0  0  0  0  0  0  0  # atno 17394 bound_to 11000
  141.0752  134.0145  157.3468 LP  0  0  0  0  0  0  0  0  0  0  0  0  # atno 17395 bound_to 11000

$$$$
