AV-unprocessed.smi:1763|AV-procd|sdf|7127|dock1
  -GOLD-   22720 8363D 1   1.00000     0.00000
 Structure written by MMmdl.
 42 43  0  0  0  0  0  0  0  0  1 V2000
  146.3635  134.4959  153.4879 C   0  0  0  0  0  0  0  0  0  0  0  0
  146.6394  135.7852  152.8740 N   0  0  0  0  0  0  0  0  0  0  0  0
  145.9042  136.8892  153.0713 C   0  0  0  0  0  0  0  0  0  0  0  0
  144.9057  136.9185  153.7900 O   0  0  0  0  0  0  0  0  0  0  0  0
  146.3629  138.1573  152.3415 C   0  0  0  0  0  0  0  0  0  0  0  0
  146.9323  139.2064  153.2195 N   0  0  0  0  0  0  0  0  0  0  0  0
  147.2679  140.4347  152.4835 C   0  0  0  0  0  0  0  0  0  0  0  0
  147.7877  141.5183  153.4450 C   0  0  0  0  0  0  0  0  0  0  0  0
  149.0142  141.0264  154.2306 C   0  0  0  0  0  0  0  0  0  0  0  0
  149.4192  142.0067  155.2338 N   0  0  0  0  0  0  0  0  0  0  0  0
  150.2999  141.7845  156.2204 C   0  0  0  0  0  0  0  0  0  0  0  0
  150.8756  140.7086  156.3867 O   0  0  0  0  0  0  0  0  0  0  0  0
  150.4629  142.8807  156.9818 N   0  0  0  0  0  0  0  0  0  0  0  0
  151.2903  143.0413  158.1252 C   0  0  0  0  0  0  0  0  0  0  0  0
  151.4794  144.3781  158.5437 C   0  0  0  0  0  0  0  0  0  0  0  0
  152.2800  144.6447  159.6711 C   0  0  0  0  0  0  0  0  0  0  0  0
  152.8714  143.5663  160.3530 C   0  0  0  0  0  0  0  0  0  0  0  0
  152.6329  142.2662  159.8707 C   0  0  0  0  0  0  0  0  0  0  0  0
  151.8665  142.0083  158.7897 N   0  0  0  0  0  0  0  0  0  0  0  0
  148.6677  139.6948  154.9105 C   0  0  0  0  0  0  0  0  0  0  0  0
  148.1239  138.6781  153.8917 C   0  0  0  0  0  0  0  0  0  0  0  0
  147.0625  133.7485  153.1130 H   0  0  0  0  0  0  0  0  0  0  0  0
  145.3510  134.1615  153.2574 H   0  0  0  0  0  0  0  0  0  0  0  0
  146.4739  134.5534  154.5714 H   0  0  0  0  0  0  0  0  0  0  0  0
  147.4466  135.8490  152.2702 H   0  0  0  0  0  0  0  0  0  0  0  0
  147.1091  137.8542  151.6055 H   0  0  0  0  0  0  0  0  0  0  0  0
  145.5218  138.5661  151.7783 H   0  0  0  0  0  0  0  0  0  0  0  0
  148.0136  140.2210  151.7157 H   0  0  0  0  0  0  0  0  0  0  0  0
  146.3935  140.8341  151.9699 H   0  0  0  0  0  0  0  0  0  0  0  0
  148.0387  142.4168  152.8801 H   0  0  0  0  0  0  0  0  0  0  0  0
  146.9912  141.8008  154.1353 H   0  0  0  0  0  0  0  0  0  0  0  0
  149.8399  140.8545  153.5372 H   0  0  0  0  0  0  0  0  0  0  0  0
  148.9948  142.9204  155.1718 H   0  0  0  0  0  0  0  0  0  0  0  0
  149.9284  143.6946  156.7163 H   0  0  0  0  0  0  0  0  0  0  0  0
  151.0162  145.1947  158.0090 H   0  0  0  0  0  0  0  0  0  0  0  0
  152.4363  145.6592  160.0069 H   0  0  0  0  0  0  0  0  0  0  0  0
  153.4906  143.7305  161.2225 H   0  0  0  0  0  0  0  0  0  0  0  0
  153.0671  141.4104  160.3660 H   0  0  0  0  0  0  0  0  0  0  0  0
  149.5512  139.2866  155.4029 H   0  0  0  0  0  0  0  0  0  0  0  0
  147.9244  139.8558  155.6933 H   0  0  0  0  0  0  0  0  0  0  0  0
  147.8742  137.7548  154.4163 H   0  0  0  0  0  0  0  0  0  0  0  0
  148.8941  138.4283  153.1596 H   0  0  0  0  0  0  0  0  0  0  0  0
  1  2  1  0  0  0  0
  1 22  1  0  0  0  0
  1 23  1  0  0  0  0
  1 24  1  0  0  0  0
  2  3  1  0  0  0  0
  2 25  1  0  0  0  0
  3  4  2  0  0  0  0
  3  5  1  0  0  0  0
  5  6  1  0  0  0  0
  5 26  1  0  0  0  0
  5 27  1  0  0  0  0
  6 21  1  0  0  0  0
  6  7  1  0  0  0  0
  7  8  1  0  0  0  0
  7 28  1  0  0  0  0
  7 29  1  0  0  0  0
  8  9  1  0  0  0  0
  8 30  1  0  0  0  0
  8 31  1  0  0  0  0
  9 10  1  0  0  0  0
  9 20  1  0  0  0  0
  9 32  1  0  0  0  0
 10 11  1  0  0  0  0
 10 33  1  0  0  0  0
 11 12  2  0  0  0  0
 11 13  1  0  0  0  0
 13 14  1  0  0  0  0
 13 34  1  0  0  0  0
 14 19  1  0  0  0  0
 14 15  2  0  0  0  0
 15 16  1  0  0  0  0
 15 35  1  0  0  0  0
 16 17  2  0  0  0  0
 16 36  1  0  0  0  0
 17 18  1  0  0  0  0
 17 37  1  0  0  0  0
 18 19  2  0  0  0  0
 18 38  1  0  0  0  0
 20 21  1  0  0  0  0
 20 39  1  0  0  0  0
 20 40  1  0  0  0  0
 21 41  1  0  0  0  0
 21 42  1  0  0  0  0
M  END
> <s_m_source_file>
AV-unprocessed.smi

> <i_m_source_file_index>
1763

> <i_lp_mmshare_version>
43012

> <i_f3d_flags>
0

> <s_epik_input>
W0NIM11bTkhdQyg9TylbQ0gyXU4xW0NIMl1bQ0gyXVtDSF0oW0NIMl1bQ0gyXTEpW05IXUMoPU8pW05IXWMyW2NIXVtjSF1bY0hdW2NIXW4y

> <s_epik_cmdline>
J2VwaWtfcHl0aG9uJywgJy1waCcsICc3LjAnLCAnLXRuJywgJzgnLCAnLW1hJywgJzIwMCcsICctbWV0YWxfYmluZGluZycsICctaW1hZScsICc8aW5maWxlLm1hZT4nLCAnLW9tYWUnLCAnPG91dGZpbGUubWFlPic=

> <r_epik_Ionization_Penalty>
0.164783

> <r_epik_Ionization_Penalty_Charging>
0

> <r_epik_Ionization_Penalty_Neutral>
0.164783

> <r_epik_State_Penalty>
0.154069

> <r_epik_Charging_Adjusted_Penalty>
0.154069

> <i_epik_Tot_Q>
0

> <i_epik_Tot_abs_Q>
0

> <r_epik_Metal_State_Penalty>
0.158586

> <b_epik_Metal_Only>
0

> <s_lp_Force_Field>
OPLS_2005

> <r_lp_Energy>
16.3585

> <b_lp_Chiralities_Consistent>
1

> <s_lp_Variant>
AV-unprocessed.smi:1763-1

> <Gold.Version>
5.8.1

> <Gold.Id.Protein>
6NUR|6NUR_protein|mol2

> <Gold.PLP.Fitness>
46.6638

> <Gold.PLP.PLP>
-38.3084

> <Gold.PLP.part.hbond>
-3.0000

> <Gold.PLP.part.metal>
0.0000

> <Gold.PLP.part.buried>
-4.2494

> <Gold.PLP.part.nonpolar>
-32.5522

> <Gold.PLP.part.repulsive>
0.5804

> <Gold.PLP.ligand.clash>
0.0000

> <Gold.PLP.ligand.torsion>
0.2817

> <Gold.PLP.Chemscore.Hbond>
2.9600

> <Gold.PLP.Chemscore.CHOScore>
0.0000

> <Gold.PLP.Chemscore.Metal>
0.0000

> <Gold.Chemscore.Hbonds>
donor molecule, donor type, donor heavy atom, donor atom, acceptor molecule, acceptor atom, score
      L1  H     2    25       P1  7948  1.00
      L1  H    10    33       P1  8028  1.00
      L1  H    13    34       P1  8028  1.00

> <Gold.PLP.Chemscore.Internal.Correction>
0.0388

> <Gold.Rescore>
     Score         DG    S(hbond)    S(metal)    S(lipo)     H(rot)  DE(clash)    DE(int)     intcor
     18.65     -21.88       2.90        0.00      94.71       1.70       0.41       2.82       ----

> <Gold.Chemscore.Fitness>
18.6514

> <Gold.Chemscore.DG>
-21.8811

> <Gold.Chemscore.ZeroCoef>
-5.4800

> <Gold.Chemscore.Hbond>
2.8986

> <Gold.Chemscore.Metal>
0.0000

> <Gold.Chemscore.Lipo>
94.7101

> <Gold.Chemscore.Internal_Hbond>
0.0000

> <Gold.Chemscore.DEClash>
0.4061

> <Gold.Chemscore.DEInternal>
2.8235

> <Gold.Chemscore.Rot>
1.7037

> <Gold.Chemscore.Internal.Correction>
   9.000000E+99

> <Gold.Chemscore.Hbonds>
donor molecule, donor type, donor heavy atom, donor atom, acceptor molecule, acceptor atom, score
      L1  H     2    25       P1  7948  0.97
      L1  H    10    33       P1  8028  0.97
      L1  H    13    34       P1  8028  0.99

> <Gold.Chemscore.Hbond.Weighted>
-9.6813

> <Gold.Chemscore.Metal.Weighted>
-0.0000

> <Gold.Chemscore.Lipo.Weighted>
-11.0811

> <Gold.Chemscore.Internal_Hbond.Weighted>
0.0000

> <Gold.Chemscore.DEClash.Weighted>
0.4061

> <Gold.Chemscore.DEInternal.Weighted>
2.8235

> <Gold.Chemscore.Rot.Weighted>
4.3614

> <Gold.Chemscore.Internal.Correction.Weighted>
   9.000000E+99

> <Gold.Protein.RotatedTorsions>
[ 6907 6896 6895 6894 ] final   75.75 input  -60.11 | X-H torsion
[ 7974 7965 7964 7962 ] final   79.66 input  175.53 | X-H torsion
[ 8008 7997 7996 7995 ] final  122.80 input   59.86 | X-H torsion
[ 10167 10162 10161 10158 ] final  -51.66 input  -65.29 | X-H torsion
[ 10718 10713 10712 10709 ] final   86.92 input   66.30 | X-H torsion
[ 10763 10752 10751 10750 ] final  153.67 input  -60.55 | X-H torsion
[ 11005 11000 10999 10996 ] final -156.71 input  -57.11 | X-H torsion

> <Gold.Protein.ActiveResidues>
 VAL166  LYS551  ARG553  GLY616  TRP617  ASP618  TYR619  PRO620  LYS621  CYS622 
 ASP623  PHE694  ASN695  SER759  ASP760  ASP761  ALA762  ILE779  LEU786  VAL792 
 PHE793  MET794  SER795  GLU796  ALA797  LYS798  CYS799  TRP800  GLU811  SER814 

> <Gold.Protein.RotatedAtoms>
  152.5041  134.4073  159.9436 H   0  0  0  0  0  0  0  0  0  0  0  0  # atno 6907 bound_to 6896
  151.4039  133.3742  159.2743 H   0  0  0  0  0  0  0  0  0  0  0  0  # atno 6908 bound_to 6896
  150.9341  134.8776  159.7629 H   0  0  0  0  0  0  0  0  0  0  0  0  # atno 6909 bound_to 6896
  145.6613  139.2472  143.1921 H   0  0  0  0  0  0  0  0  0  0  0  0  # atno 7974 bound_to 7965
  156.2742  140.2777  156.1526 H   0  0  0  0  0  0  0  0  0  0  0  0  # atno 8008 bound_to 7997
  155.0837  140.0388  157.2665 H   0  0  0  0  0  0  0  0  0  0  0  0  # atno 8009 bound_to 7997
  154.6943  140.2636  155.6787 H   0  0  0  0  0  0  0  0  0  0  0  0  # atno 8010 bound_to 7997
  140.6577  143.2611  151.4536 H   0  0  0  0  0  0  0  0  0  0  0  0  # atno 10167 bound_to 10162
  157.6934  131.0235  150.3046 H   0  0  0  0  0  0  0  0  0  0  0  0  # atno 10718 bound_to 10713
  154.1399  135.2821  155.3163 H   0  0  0  0  0  0  0  0  0  0  0  0  # atno 10763 bound_to 10752
  154.6294  135.5440  153.7667 H   0  0  0  0  0  0  0  0  0  0  0  0  # atno 10764 bound_to 10752
  153.0254  135.6459  154.1547 H   0  0  0  0  0  0  0  0  0  0  0  0  # atno 10765 bound_to 10752
  140.6726  134.4231  157.5231 H   0  0  0  0  0  0  0  0  0  0  0  0  # atno 11005 bound_to 11000
  146.1123  140.7413  142.9497 LP  0  0  0  0  0  0  0  0  0  0  0  0  # atno 17320 bound_to 7965
  144.7088  140.3959  143.7097 LP  0  0  0  0  0  0  0  0  0  0  0  0  # atno 17321 bound_to 7965
  139.5803  144.1725  152.1959 LP  0  0  0  0  0  0  0  0  0  0  0  0  # atno 17342 bound_to 10162
  140.1048  144.5508  150.6964 LP  0  0  0  0  0  0  0  0  0  0  0  0  # atno 17343 bound_to 10162
  156.3557  130.3838  149.7293 LP  0  0  0  0  0  0  0  0  0  0  0  0  # atno 17370 bound_to 10713
  156.4756  130.8017  151.3033 LP  0  0  0  0  0  0  0  0  0  0  0  0  # atno 17371 bound_to 10713
  139.8977  134.8631  156.2034 LP  0  0  0  0  0  0  0  0  0  0  0  0  # atno 17394 bound_to 11000
  141.0380  133.6953  156.1547 LP  0  0  0  0  0  0  0  0  0  0  0  0  # atno 17395 bound_to 11000

$$$$
