AV-unprocessed.smi:2362|AV-procd|sdf|9413|dock5
  -GOLD-   2272013 53D 1   1.00000     0.00000
 Structure written by MMmdl.
 45 46  0  0  0  0  0  0  0  0  2 V2000
  151.9989  145.6621  159.8327 C   0  0  0  0  0  0  0  0  0  0  0  0
  151.6911  144.3008  159.2446 C   0  0  0  0  0  0  0  0  0  0  0  0
  151.9311  143.1195  159.9719 C   0  0  0  0  0  0  0  0  0  0  0  0
  151.6272  141.8812  159.3740 C   0  0  0  0  0  0  0  0  0  0  0  0
  151.0907  141.8526  158.0672 C   0  0  0  0  0  0  0  0  0  0  0  0
  150.8228  140.5550  157.5543 N   0  0  0  0  0  0  0  0  0  0  0  0
  150.7015  140.1812  156.2685 C   0  0  0  0  0  0  0  0  0  0  0  0
  150.7685  140.9360  155.2982 O   0  0  0  0  0  0  0  0  0  0  0  0
  150.5062  138.8578  156.1600 N   0  0  0  0  0  0  0  0  0  0  0  0
  150.3122  138.1194  154.9107 C   0  0  2  0  0  0  0  0  0  0  0  0
  151.6830  137.7276  154.3428 C   0  0  0  0  0  0  0  0  0  0  0  0
  149.4972  138.9423  153.8854 C   0  0  0  0  0  0  0  0  0  0  0  0
  148.2820  138.2382  153.4010 N   0  3  0  0  0  0  0  0  0  0  0  0
  147.4864  137.6378  154.5026 C   0  0  0  0  0  0  0  0  0  0  0  0
  146.3325  136.7846  153.9481 C   0  0  0  0  0  0  0  0  0  0  0  0
  145.4394  137.6067  153.0098 C   0  0  0  0  0  0  0  0  0  0  0  0
  146.2894  138.2488  151.9056 C   0  0  0  0  0  0  0  0  0  0  0  0
  147.4378  139.0749  152.5075 C   0  0  0  0  0  0  0  0  0  0  0  0
  150.8649  142.9963  157.3736 N   0  0  0  0  0  0  0  0  0  0  0  0
  151.1561  144.1827  157.9474 C   0  0  0  0  0  0  0  0  0  0  0  0
  152.3645  145.5787  160.8568 H   0  0  0  0  0  0  0  0  0  0  0  0
  151.1025  146.2825  159.8404 H   0  0  0  0  0  0  0  0  0  0  0  0
  152.7609  146.1660  159.2380 H   0  0  0  0  0  0  0  0  0  0  0  0
  152.3413  143.1566  160.9704 H   0  0  0  0  0  0  0  0  0  0  0  0
  151.8057  140.9654  159.9187 H   0  0  0  0  0  0  0  0  0  0  0  0
  150.7255  139.8275  158.2472 H   0  0  0  0  0  0  0  0  0  0  0  0
  150.4654  138.3178  157.0124 H   0  0  0  0  0  0  0  0  0  0  0  0
  149.7858  137.1884  155.1257 H   0  0  0  0  0  0  0  0  0  0  0  0
  151.5749  137.1330  153.4351 H   0  0  0  0  0  0  0  0  0  0  0  0
  152.2502  137.1313  155.0585 H   0  0  0  0  0  0  0  0  0  0  0  0
  152.2787  138.6067  154.0945 H   0  0  0  0  0  0  0  0  0  0  0  0
  149.2036  139.8778  154.3643 H   0  0  0  0  0  0  0  0  0  0  0  0
  150.1188  139.2230  153.0336 H   0  0  0  0  0  0  0  0  0  0  0  0
  148.1272  137.0082  155.1210 H   0  0  0  0  0  0  0  0  0  0  0  0
  147.0985  138.4283  155.1467 H   0  0  0  0  0  0  0  0  0  0  0  0
  146.7385  135.9278  153.4084 H   0  0  0  0  0  0  0  0  0  0  0  0
  145.7388  136.3804  154.7686 H   0  0  0  0  0  0  0  0  0  0  0  0
  144.6673  136.9734  152.5717 H   0  0  0  0  0  0  0  0  0  0  0  0
  144.9238  138.3827  153.5770 H   0  0  0  0  0  0  0  0  0  0  0  0
  146.6985  137.4721  151.2576 H   0  0  0  0  0  0  0  0  0  0  0  0
  145.6649  138.8815  151.2741 H   0  0  0  0  0  0  0  0  0  0  0  0
  147.0380  139.9213  153.0681 H   0  0  0  0  0  0  0  0  0  0  0  0
  148.0383  139.4893  151.6983 H   0  0  0  0  0  0  0  0  0  0  0  0
  150.9565  145.0620  157.3522 H   0  0  0  0  0  0  0  0  0  0  0  0
  148.6126  137.4637  152.8427 H   0  0  0  0  0  0  0  0  0  0  0  0
  1  2  1  0  0  0  0
  1 21  1  0  0  0  0
  1 22  1  0  0  0  0
  1 23  1  0  0  0  0
  2 20  1  0  0  0  0
  2  3  2  0  0  0  0
  3  4  1  0  0  0  0
  3 24  1  0  0  0  0
  4  5  2  0  0  0  0
  4 25  1  0  0  0  0
  5  6  1  0  0  0  0
  5 19  1  0  0  0  0
  6  7  1  0  0  0  0
  6 26  1  0  0  0  0
  7  8  2  0  0  0  0
  7  9  1  0  0  0  0
  9 10  1  0  0  0  0
  9 27  1  0  0  0  0
 10 11  1  0  0  0  0
 10 12  1  0  0  0  0
 10 28  1  0  0  0  0
 11 29  1  0  0  0  0
 11 30  1  0  0  0  0
 11 31  1  0  0  0  0
 12 13  1  0  0  0  0
 12 32  1  0  0  0  0
 12 33  1  0  0  0  0
 13 18  1  0  0  0  0
 13 14  1  0  0  0  0
 13 45  1  0  0  0  0
 14 15  1  0  0  0  0
 14 34  1  0  0  0  0
 14 35  1  0  0  0  0
 15 16  1  0  0  0  0
 15 36  1  0  0  0  0
 15 37  1  0  0  0  0
 16 17  1  0  0  0  0
 16 38  1  0  0  0  0
 16 39  1  0  0  0  0
 17 18  1  0  0  0  0
 17 40  1  0  0  0  0
 17 41  1  0  0  0  0
 18 42  1  0  0  0  0
 18 43  1  0  0  0  0
 19 20  2  0  0  0  0
 20 44  1  0  0  0  0
M  CHG  1  13   1
M  END
> <s_m_source_file>
AV-unprocessed.smi

> <i_m_source_file_index>
2362

> <i_lp_mmshare_version>
43012

> <i_f3d_flags>
0

> <s_epik_input>
W0NIM11jMVtjSF1bY0hdYyhuW2NIXTEpW05IXUMoPU8pW05IXVtDQEhdKFtDSDNdKVtDSDJdTjJbQ0gyXVtDSDJdW0NIMl1bQ0gyXVtDSDJdMg==

> <s_epik_cmdline>
J2VwaWtfcHl0aG9uJywgJy1waCcsICc3LjAnLCAnLXRuJywgJzgnLCAnLW1hJywgJzIwMCcsICctbWV0YWxfYmluZGluZycsICctaW1hZScsICc8aW5maWxlLm1hZT4nLCAnLW9tYWUnLCAnPG91dGZpbGUubWFlPic=

> <r_epik_Ionization_Penalty>
0.00215987

> <r_epik_Ionization_Penalty_Charging>
0.00211816

> <r_epik_Ionization_Penalty_Neutral>
4.17101e-05

> <r_epik_State_Penalty>
0.00145254

> <r_epik_Charging_Adjusted_Penalty>
0.0035707

> <i_epik_Tot_Q>
1

> <i_epik_Tot_abs_Q>
1

> <r_epik_Metal_State_Penalty>
-0

> <b_epik_Metal_Only>
0

> <s_lp_Force_Field>
OPLS_2005

> <r_lp_Energy>
24.6446

> <b_lp_Chiralities_Consistent>
1

> <s_lp_Variant>
AV-unprocessed.smi:2362-1

> <Gold.Version>
5.8.1

> <Gold.Id.Protein>
6NUR|6NUR_protein|mol2

> <Gold.PLP.Fitness>
43.1110

> <Gold.PLP.PLP>
-34.8929

> <Gold.PLP.part.hbond>
-2.0000

> <Gold.PLP.part.metal>
0.0000

> <Gold.PLP.part.buried>
-2.4728

> <Gold.PLP.part.nonpolar>
-31.4604

> <Gold.PLP.part.repulsive>
0.3171

> <Gold.PLP.ligand.clash>
0.0000

> <Gold.PLP.ligand.torsion>
1.2373

> <Gold.PLP.Chemscore.Hbond>
2.7454

> <Gold.PLP.Chemscore.CHOScore>
0.8018

> <Gold.PLP.Chemscore.Metal>
0.0000

> <Gold.Chemscore.Hbonds>
donor molecule, donor type, donor heavy atom, donor atom, acceptor molecule, acceptor atom, score
      L1  H    13    45       P1  7948  2.00
      P1  H  7989  7998       L1     8  0.75
      L1  C    20    44       P1  8028  0.48

> <Gold.PLP.Chemscore.Internal.Correction>
0.0511

> <Gold.Rescore>
     Score         DG    S(hbond)    S(metal)    S(lipo)     H(rot)  DE(clash)    DE(int)     intcor
     15.29     -19.50       1.79        0.00     100.28       1.44       0.36       3.85       ----

> <Gold.Chemscore.Fitness>
15.2852

> <Gold.Chemscore.DG>
-19.4996

> <Gold.Chemscore.ZeroCoef>
-5.4800

> <Gold.Chemscore.Hbond>
1.7888

> <Gold.Chemscore.Metal>
0.0000

> <Gold.Chemscore.Lipo>
100.2793

> <Gold.Chemscore.Internal_Hbond>
0.0000

> <Gold.Chemscore.DEClash>
0.3646

> <Gold.Chemscore.DEInternal>
3.8498

> <Gold.Chemscore.Rot>
1.4404

> <Gold.Chemscore.Internal.Correction>
   9.000000E+99

> <Gold.Chemscore.Hbonds>
donor molecule, donor type, donor heavy atom, donor atom, acceptor molecule, acceptor atom, score
      L1  H    13    45       P1  7948  0.98
      P1  H  7989  7998       L1     8  0.72

> <Gold.Chemscore.Hbond.Weighted>
-5.9745

> <Gold.Chemscore.Metal.Weighted>
-0.0000

> <Gold.Chemscore.Lipo.Weighted>
-11.7327

> <Gold.Chemscore.Internal_Hbond.Weighted>
0.0000

> <Gold.Chemscore.DEClash.Weighted>
0.3646

> <Gold.Chemscore.DEInternal.Weighted>
3.8498

> <Gold.Chemscore.Rot.Weighted>
3.6875

> <Gold.Chemscore.Internal.Correction.Weighted>
   9.000000E+99

> <Gold.Protein.RotatedTorsions>
[ 6907 6896 6895 6894 ] final  -47.45 input  -60.11 | X-H torsion
[ 7974 7965 7964 7962 ] final   -9.82 input  175.53 | X-H torsion
[ 8008 7997 7996 7995 ] final  106.52 input   59.86 | X-H torsion
[ 10167 10162 10161 10158 ] final  161.34 input  -65.29 | X-H torsion
[ 10718 10713 10712 10709 ] final   31.04 input   66.30 | X-H torsion
[ 10763 10752 10751 10750 ] final -166.38 input  -60.55 | X-H torsion
[ 11005 11000 10999 10996 ] final  -77.51 input  -57.11 | X-H torsion

> <Gold.Protein.ActiveResidues>
 VAL166  LYS551  ARG553  GLY616  TRP617  ASP618  TYR619  PRO620  LYS621  CYS622 
 ASP623  PHE694  ASN695  SER759  ASP760  ASP761  ALA762  ILE779  LEU786  VAL792 
 PHE793  MET794  SER795  GLU796  ALA797  LYS798  CYS799  TRP800  GLU811  SER814 

> <Gold.Protein.RotatedAtoms>
  150.9007  134.8419  159.7357 H   0  0  0  0  0  0  0  0  0  0  0  0  # atno 6907 bound_to 6896
  152.4890  134.4507  159.9583 H   0  0  0  0  0  0  0  0  0  0  0  0  # atno 6908 bound_to 6896
  151.4559  133.3566  159.2837 H   0  0  0  0  0  0  0  0  0  0  0  0  # atno 6909 bound_to 6896
  146.2240  140.2673  142.8355 H   0  0  0  0  0  0  0  0  0  0  0  0  # atno 7974 bound_to 7965
  156.1749  140.3111  155.9042 H   0  0  0  0  0  0  0  0  0  0  0  0  # atno 8008 bound_to 7997
  155.3508  140.0471  157.3063 H   0  0  0  0  0  0  0  0  0  0  0  0  # atno 8009 bound_to 7997
  154.5280  140.2221  155.8865 H   0  0  0  0  0  0  0  0  0  0  0  0  # atno 8010 bound_to 7997
  139.4848  144.4546  151.8785 H   0  0  0  0  0  0  0  0  0  0  0  0  # atno 10167 bound_to 10162
  157.2674  130.7191  149.6486 H   0  0  0  0  0  0  0  0  0  0  0  0  # atno 10718 bound_to 10713
  154.6838  135.2959  154.9575 H   0  0  0  0  0  0  0  0  0  0  0  0  # atno 10763 bound_to 10752
  154.0561  135.6638  153.4810 H   0  0  0  0  0  0  0  0  0  0  0  0  # atno 10764 bound_to 10752
  153.0565  135.5141  154.7895 H   0  0  0  0  0  0  0  0  0  0  0  0  # atno 10765 bound_to 10752
  141.1660  133.7025  156.7832 H   0  0  0  0  0  0  0  0  0  0  0  0  # atno 11005 bound_to 11000
  144.9294  140.7958  143.5698 LP  0  0  0  0  0  0  0  0  0  0  0  0  # atno 17320 bound_to 7965
  145.2615  139.1990  143.4889 LP  0  0  0  0  0  0  0  0  0  0  0  0  # atno 17321 bound_to 7965
  140.4004  144.2500  150.5893 LP  0  0  0  0  0  0  0  0  0  0  0  0  # atno 17342 bound_to 10162
  140.5062  143.2303  151.8604 LP  0  0  0  0  0  0  0  0  0  0  0  0  # atno 17343 bound_to 10162
  155.9663  130.4378  150.5192 LP  0  0  0  0  0  0  0  0  0  0  0  0  # atno 17370 bound_to 10713
  157.3109  131.0663  151.2001 LP  0  0  0  0  0  0  0  0  0  0  0  0  # atno 17371 bound_to 10713
  140.2379  134.8636  157.3544 LP  0  0  0  0  0  0  0  0  0  0  0  0  # atno 17394 bound_to 11000
  140.1825  134.4472  155.7763 LP  0  0  0  0  0  0  0  0  0  0  0  0  # atno 17395 bound_to 11000

$$$$
