AV-unprocessed.smi:2172|AV-procd|sdf|8834|dock9
  -GOLD-   2272012 23D 1   1.00000     0.00000
 Structure written by MMmdl.
 36 38  0  0  0  0  0  0  0  0  1 V2000
  152.8937  139.4838  156.2331 O   0  0  0  0  0  0  0  0  0  0  0  0
  152.2782  139.2695  157.4847 C   0  0  0  0  0  0  0  0  0  0  0  0
  152.2348  140.5028  158.3356 C   0  0  0  0  0  0  0  0  0  0  0  0
  152.7085  140.5073  159.5825 N   0  0  0  0  0  0  0  0  0  0  0  0
  152.4976  141.8111  159.9845 C   0  0  0  0  0  0  0  0  0  0  0  0
  152.7882  142.4522  161.2101 C   0  0  0  0  0  0  0  0  0  0  0  0
  152.4847  143.8176  161.3911 C   0  0  0  0  0  0  0  0  0  0  0  0
  151.8896  144.5602  160.3508 C   0  0  0  0  0  0  0  0  0  0  0  0
  151.5909  143.9402  159.1223 C   0  0  0  0  0  0  0  0  0  0  0  0
  151.8915  142.5756  158.9481 C   0  0  0  0  0  0  0  0  0  0  0  0
  151.7243  141.6819  157.8943 N   0  0  0  0  0  0  0  0  0  0  0  0
  151.1344  141.9931  156.5971 C   0  0  0  0  0  0  0  0  0  0  0  0
  150.1733  140.8954  156.0957 C   0  0  2  0  0  0  0  0  0  0  0  0
  150.7501  140.2018  155.0066 O   0  0  0  0  0  0  0  0  0  0  0  0
  148.8080  141.4733  155.7564 C   0  0  0  0  0  0  0  0  0  0  0  0
  148.4296  141.6369  154.4065 C   0  0  0  0  0  0  0  0  0  0  0  0
  147.1642  142.1640  154.0823 C   0  0  0  0  0  0  0  0  0  0  0  0
  146.2688  142.5286  155.1063 C   0  0  0  0  0  0  0  0  0  0  0  0
  144.7193  143.1751  154.7085 Cl  0  0  0  0  0  0  0  0  0  0  0  0
  146.6388  142.3628  156.4550 C   0  0  0  0  0  0  0  0  0  0  0  0
  147.9037  141.8350  156.7793 C   0  0  0  0  0  0  0  0  0  0  0  0
  152.2866  139.2334  155.5540 H   0  0  0  0  0  0  0  0  0  0  0  0
  151.2611  138.9164  157.3111 H   0  0  0  0  0  0  0  0  0  0  0  0
  152.7945  138.4715  158.0177 H   0  0  0  0  0  0  0  0  0  0  0  0
  153.2467  141.8925  162.0118 H   0  0  0  0  0  0  0  0  0  0  0  0
  152.7114  144.2974  162.3319 H   0  0  0  0  0  0  0  0  0  0  0  0
  151.6624  145.6062  160.4966 H   0  0  0  0  0  0  0  0  0  0  0  0
  151.1361  144.5074  158.3239 H   0  0  0  0  0  0  0  0  0  0  0  0
  150.5983  142.9380  156.6934 H   0  0  0  0  0  0  0  0  0  0  0  0
  151.9199  142.1652  155.8628 H   0  0  0  0  0  0  0  0  0  0  0  0
  150.0358  140.1564  156.8855 H   0  0  0  0  0  0  0  0  0  0  0  0
  150.3588  139.3432  154.9564 H   0  0  0  0  0  0  0  0  0  0  0  0
  149.1082  141.3574  153.6141 H   0  0  0  0  0  0  0  0  0  0  0  0
  146.8816  142.2876  153.0471 H   0  0  0  0  0  0  0  0  0  0  0  0
  145.9532  142.6394  157.2424 H   0  0  0  0  0  0  0  0  0  0  0  0
  148.1759  141.7074  157.8169 H   0  0  0  0  0  0  0  0  0  0  0  0
  1  2  1  0  0  0  0
  1 22  1  0  0  0  0
  2  3  1  0  0  0  0
  2 23  1  0  0  0  0
  2 24  1  0  0  0  0
  3 11  1  0  0  0  0
  3  4  2  0  0  0  0
  4  5  1  0  0  0  0
  5 10  2  0  0  0  0
  5  6  1  0  0  0  0
  6  7  2  0  0  0  0
  6 25  1  0  0  0  0
  7  8  1  0  0  0  0
  7 26  1  0  0  0  0
  8  9  2  0  0  0  0
  8 27  1  0  0  0  0
  9 10  1  0  0  0  0
  9 28  1  0  0  0  0
 10 11  1  0  0  0  0
 11 12  1  0  0  0  0
 12 13  1  0  0  0  0
 12 29  1  0  0  0  0
 12 30  1  0  0  0  0
 13 14  1  0  0  0  0
 13 15  1  0  0  0  0
 13 31  1  0  0  0  0
 14 32  1  0  0  0  0
 15 21  1  0  0  0  0
 15 16  2  0  0  0  0
 16 17  1  0  0  0  0
 16 33  1  0  0  0  0
 17 18  2  0  0  0  0
 17 34  1  0  0  0  0
 18 19  1  0  0  0  0
 18 20  1  0  0  0  0
 20 21  2  0  0  0  0
 20 35  1  0  0  0  0
 21 36  1  0  0  0  0
M  END
> <s_m_source_file>
AV-unprocessed.smi

> <i_m_source_file_index>
2172

> <i_lp_mmshare_version>
43012

> <i_f3d_flags>
0

> <s_epik_input>
W2NIXTFbY0hdW2NIXVtjSF1jKGMxMiluKGMobjIpW0NIMl1bT0hdKVtDSDJdW0NASF0oW09IXSljM1tjSF1bY0hdYyhDbClbY0hdW2NIXTM=

> <s_epik_cmdline>
J2VwaWtfcHl0aG9uJywgJy1waCcsICc3LjAnLCAnLXRuJywgJzgnLCAnLW1hJywgJzIwMCcsICctbWV0YWxfYmluZGluZycsICctaW1hZScsICc8aW5maWxlLm1hZT4nLCAnLW9tYWUnLCAnPG91dGZpbGUubWFlPic=

> <r_epik_Ionization_Penalty>
0.0634726

> <r_epik_Ionization_Penalty_Charging>
0

> <r_epik_Ionization_Penalty_Neutral>
0.0634726

> <r_epik_State_Penalty>
0.0551572

> <r_epik_Charging_Adjusted_Penalty>
0.0551572

> <i_epik_Tot_Q>
0

> <i_epik_Tot_abs_Q>
0

> <r_epik_Metal_State_Penalty>
5.78034e-05

> <b_epik_Metal_Only>
0

> <s_lp_Force_Field>
OPLS_2005

> <r_lp_Energy>
12.889

> <b_lp_Chiralities_Consistent>
1

> <s_lp_Variant>
AV-unprocessed.smi:2172-1

> <Gold.Version>
5.8.1

> <Gold.Id.Protein>
6NUR|6NUR_protein|mol2

> <Gold.PLP.Fitness>
50.7790

> <Gold.PLP.PLP>
-47.6083

> <Gold.PLP.part.hbond>
-2.0000

> <Gold.PLP.part.metal>
0.0000

> <Gold.PLP.part.buried>
-6.4875

> <Gold.PLP.part.nonpolar>
-38.7061

> <Gold.PLP.part.repulsive>
0.0000

> <Gold.PLP.ligand.clash>
0.0000

> <Gold.PLP.ligand.torsion>
1.4358

> <Gold.PLP.Chemscore.Hbond>
2.0000

> <Gold.PLP.Chemscore.CHOScore>
0.0000

> <Gold.PLP.Chemscore.Metal>
0.0000

> <Gold.Chemscore.Hbonds>
donor molecule, donor type, donor heavy atom, donor atom, acceptor molecule, acceptor atom, score
      P1  H  7989  7998       L1    14  1.00
      P1  H  7997  8008       L1     1  1.00

> <Gold.PLP.Chemscore.Internal.Correction>
0.0423

> <Gold.Rescore>
     Score         DG    S(hbond)    S(metal)    S(lipo)     H(rot)  DE(clash)    DE(int)     intcor
     17.11     -18.63       1.91        0.00     115.27       2.62       0.28       1.24       ----

> <Gold.Chemscore.Fitness>
17.1089

> <Gold.Chemscore.DG>
-18.6336

> <Gold.Chemscore.ZeroCoef>
-5.4800

> <Gold.Chemscore.Hbond>
1.9110

> <Gold.Chemscore.Metal>
0.0000

> <Gold.Chemscore.Lipo>
115.2682

> <Gold.Chemscore.Internal_Hbond>
0.0000

> <Gold.Chemscore.DEClash>
0.2818

> <Gold.Chemscore.DEInternal>
1.2429

> <Gold.Chemscore.Rot>
2.6232

> <Gold.Chemscore.Internal.Correction>
   9.000000E+99

> <Gold.Chemscore.Hbonds>
donor molecule, donor type, donor heavy atom, donor atom, acceptor molecule, acceptor atom, score
      P1  H  7989  7998       L1    14  0.96
      P1  H  7997  8008       L1     1  0.96

> <Gold.Chemscore.Hbond.Weighted>
-6.3827

> <Gold.Chemscore.Metal.Weighted>
-0.0000

> <Gold.Chemscore.Lipo.Weighted>
-13.4864

> <Gold.Chemscore.Internal_Hbond.Weighted>
0.0000

> <Gold.Chemscore.DEClash.Weighted>
0.2818

> <Gold.Chemscore.DEInternal.Weighted>
1.2429

> <Gold.Chemscore.Rot.Weighted>
6.7154

> <Gold.Chemscore.Internal.Correction.Weighted>
   9.000000E+99

> <Gold.Protein.RotatedTorsions>
[ 6907 6896 6895 6894 ] final  -56.92 input  -60.11 | X-H torsion
[ 7974 7965 7964 7962 ] final -153.74 input  175.53 | X-H torsion
[ 8008 7997 7996 7995 ] final  -31.32 input   59.86 | X-H torsion
[ 10167 10162 10161 10158 ] final  -73.36 input  -65.29 | X-H torsion
[ 10718 10713 10712 10709 ] final  -78.56 input   66.30 | X-H torsion
[ 10763 10752 10751 10750 ] final   82.88 input  -60.55 | X-H torsion
[ 11005 11000 10999 10996 ] final   59.09 input  -57.11 | X-H torsion

> <Gold.Protein.ActiveResidues>
 VAL166  LYS551  ARG553  GLY616  TRP617  ASP618  TYR619  PRO620  LYS621  CYS622 
 ASP623  PHE694  ASN695  SER759  ASP760  ASP761  ALA762  ILE779  LEU786  VAL792 
 PHE793  MET794  SER795  GLU796  ALA797  LYS798  CYS799  TRP800  GLU811  SER814 

> <Gold.Protein.RotatedAtoms>
  150.8128  134.7293  159.6703 H   0  0  0  0  0  0  0  0  0  0  0  0  # atno 6907 bound_to 6896
  152.4248  134.5886  159.9977 H   0  0  0  0  0  0  0  0  0  0  0  0  # atno 6908 bound_to 6896
  151.6091  133.3312  159.3099 H   0  0  0  0  0  0  0  0  0  0  0  0  # atno 6909 bound_to 6896
  144.7725  140.4484  143.5897 H   0  0  0  0  0  0  0  0  0  0  0  0  # atno 7974 bound_to 7965
  154.4218  140.1767  156.1548 H   0  0  0  0  0  0  0  0  0  0  0  0  # atno 8008 bound_to 7997
  155.9886  140.3371  155.6706 H   0  0  0  0  0  0  0  0  0  0  0  0  # atno 8009 bound_to 7997
  155.6403  140.0679  157.2611 H   0  0  0  0  0  0  0  0  0  0  0  0  # atno 8010 bound_to 7997
  140.5117  143.2344  151.7582 H   0  0  0  0  0  0  0  0  0  0  0  0  # atno 10167 bound_to 10162
  156.0114  130.4521  150.3515 H   0  0  0  0  0  0  0  0  0  0  0  0  # atno 10718 bound_to 10713
  153.1242  135.4712  154.9244 H   0  0  0  0  0  0  0  0  0  0  0  0  # atno 10763 bound_to 10752
  154.7604  135.3130  154.8392 H   0  0  0  0  0  0  0  0  0  0  0  0  # atno 10764 bound_to 10752
  153.8949  135.6881  153.4812 H   0  0  0  0  0  0  0  0  0  0  0  0  # atno 10765 bound_to 10752
  140.0330  134.5985  155.9482 H   0  0  0  0  0  0  0  0  0  0  0  0  # atno 11005 bound_to 11000
  145.6282  139.1533  143.2984 LP  0  0  0  0  0  0  0  0  0  0  0  0  # atno 17320 bound_to 7965
  146.1882  140.6387  142.9158 LP  0  0  0  0  0  0  0  0  0  0  0  0  # atno 17321 bound_to 7965
  139.4898  144.4381  151.9795 LP  0  0  0  0  0  0  0  0  0  0  0  0  # atno 17342 bound_to 10162
  140.3474  144.3130  150.5955 LP  0  0  0  0  0  0  0  0  0  0  0  0  # atno 17343 bound_to 10162
  157.1607  131.0344  151.2842 LP  0  0  0  0  0  0  0  0  0  0  0  0  # atno 17370 bound_to 10713
  157.4314  130.7492  149.6993 LP  0  0  0  0  0  0  0  0  0  0  0  0  # atno 17371 bound_to 10713
  141.1841  133.6552  156.5145 LP  0  0  0  0  0  0  0  0  0  0  0  0  # atno 17394 bound_to 11000
  140.4195  134.7200  157.4881 LP  0  0  0  0  0  0  0  0  0  0  0  0  # atno 17395 bound_to 11000

$$$$
