AV-unprocessed.smi:54|AV-procd|sdf|543|dock6
  -GOLD-   2262016433D 1   1.00000     0.00000
 Structure written by MMmdl.
 44 46  0  0  0  0  0  0  0  0  1 V2000
  148.2346  134.0201  155.9279 C   0  0  0  0  0  0  0  0  0  0  0  0
  149.7503  134.0339  155.6729 C   0  0  0  0  0  0  0  0  0  0  0  0
  150.5086  133.2760  156.7748 C   0  0  0  0  0  0  0  0  0  0  0  0
  150.2638  135.4734  155.5548 C   0  0  0  0  0  0  0  0  0  0  0  0
  150.8229  135.8856  154.5376 O   0  0  0  0  0  0  0  0  0  0  0  0
  150.0383  136.3115  156.7196 N   0  0  0  0  0  0  0  0  0  0  0  0
  150.3814  137.6110  156.8782 C   0  0  0  0  0  0  0  0  0  0  0  0
  149.5507  138.6159  156.6407 N   0  0  0  0  0  0  0  0  0  0  0  0
  150.0770  139.8572  156.8698 C   0  0  0  0  0  0  0  0  0  0  0  0
  151.3565  140.1402  157.2984 C   0  0  0  0  0  0  0  0  0  0  0  0
  151.5302  141.5141  157.4112 N   0  0  0  0  0  0  0  0  0  0  0  0
  150.3762  142.0087  157.0587 C   0  0  0  0  0  0  0  0  0  0  0  0
  149.4287  141.0660  156.7272 N   0  0  0  0  0  0  0  0  0  0  0  0
  148.0088  141.2444  156.2678 C   0  0  2  0  0  0  0  0  0  0  0  0
  147.3849  139.9977  156.2605 O   0  0  0  0  0  0  0  0  0  0  0  0
  147.4273  139.3961  154.9600 C   0  0  1  0  0  0  0  0  0  0  0  0
  145.9877  139.0076  154.5826 C   0  0  0  0  0  0  0  0  0  0  0  0
  145.1415  140.1337  154.6742 O   0  0  0  0  0  0  0  0  0  0  0  0
  148.0189  140.4621  154.0142 C   0  0  2  0  0  0  0  0  0  0  0  0
  149.3570  140.1251  153.6933 O   0  0  0  0  0  0  0  0  0  0  0  0
  147.9201  141.7492  154.8234 C   0  0  2  0  0  0  0  0  0  0  0  0
  148.8710  142.7327  154.4549 O   0  0  0  0  0  0  0  0  0  0  0  0
  152.2720  139.0647  157.5485 C   0  0  0  0  0  0  0  0  0  0  0  0
  153.4393  139.1300  157.9279 O   0  0  0  0  0  0  0  0  0  0  0  0
  151.6923  137.8115  157.3106 N   0  0  0  0  0  0  0  0  0  0  0  0
  147.5633  141.9133  157.0051 H   0  0  0  0  0  0  0  0  0  0  0  0
  148.0555  138.5039  154.9742 H   0  0  0  0  0  0  0  0  0  0  0  0
  147.4686  140.5473  153.0766 H   0  0  0  0  0  0  0  0  0  0  0  0
  146.9219  142.1702  154.6968 H   0  0  0  0  0  0  0  0  0  0  0  0
  147.6959  134.5580  155.1467 H   0  0  0  0  0  0  0  0  0  0  0  0
  147.9839  134.4818  156.8840 H   0  0  0  0  0  0  0  0  0  0  0  0
  147.8516  132.9994  155.9443 H   0  0  0  0  0  0  0  0  0  0  0  0
  149.9380  133.5264  154.7253 H   0  0  0  0  0  0  0  0  0  0  0  0
  151.5854  133.2979  156.6031 H   0  0  0  0  0  0  0  0  0  0  0  0
  150.2046  132.2293  156.8071 H   0  0  0  0  0  0  0  0  0  0  0  0
  150.3198  133.7044  157.7603 H   0  0  0  0  0  0  0  0  0  0  0  0
  149.5569  135.8734  157.4910 H   0  0  0  0  0  0  0  0  0  0  0  0
  150.1945  143.0725  157.0360 H   0  0  0  0  0  0  0  0  0  0  0  0
  145.9401  138.5755  153.5826 H   0  0  0  0  0  0  0  0  0  0  0  0
  145.6028  138.2604  155.2770 H   0  0  0  0  0  0  0  0  0  0  0  0
  144.6550  140.2111  153.8677 H   0  0  0  0  0  0  0  0  0  0  0  0
  149.5081  140.3434  152.7860 H   0  0  0  0  0  0  0  0  0  0  0  0
  148.9402  143.3598  155.1589 H   0  0  0  0  0  0  0  0  0  0  0  0
  152.2798  137.0063  157.4711 H   0  0  0  0  0  0  0  0  0  0  0  0
  1  2  1  0  0  0  0
  1 30  1  0  0  0  0
  1 31  1  0  0  0  0
  1 32  1  0  0  0  0
  2  3  1  0  0  0  0
  2  4  1  0  0  0  0
  2 33  1  0  0  0  0
  3 34  1  0  0  0  0
  3 35  1  0  0  0  0
  3 36  1  0  0  0  0
  4  5  2  0  0  0  0
  4  6  1  0  0  0  0
  6 37  1  0  0  0  0
  6  7  1  0  0  0  0
  7 25  1  0  0  0  0
  7  8  2  0  0  0  0
  8  9  1  0  0  0  0
  9 13  1  0  0  0  0
  9 10  2  0  0  0  0
 10 11  1  0  0  0  0
 10 23  1  0  0  0  0
 11 12  2  0  0  0  0
 12 13  1  0  0  0  0
 12 38  1  0  0  0  0
 13 14  1  0  0  0  0
 14 26  1  0  0  0  0
 14 21  1  0  0  0  0
 14 15  1  0  0  0  0
 15 16  1  0  0  0  0
 16 27  1  0  0  0  0
 16 17  1  0  0  0  0
 16 19  1  0  0  0  0
 17 18  1  0  0  0  0
 17 39  1  0  0  0  0
 17 40  1  0  0  0  0
 18 41  1  0  0  0  0
 19 28  1  0  0  0  0
 19 20  1  0  0  0  0
 19 21  1  0  0  0  0
 20 42  1  0  0  0  0
 21 29  1  0  0  0  0
 21 22  1  0  0  0  0
 22 43  1  0  0  0  0
 23 24  2  0  0  0  0
 23 25  1  0  0  0  0
 25 44  1  0  0  0  0
M  END
> <s_m_source_file>
AV-unprocessed.smi

> <i_m_source_file_index>
54

> <i_lp_mmshare_version>
43012

> <i_f3d_flags>
0

> <s_epik_input>
W0NIM11bQ0hdKFtDSDNdKUMoPU8pW05IXWMobjEpW25IXWMoPU8pYyhjMTIpbltjSF1uMltDQEBIXTNPW0NASF0oW0NIMl1bT0hdKVtDQEBIXShbT0hdKVtDQEhdM1tPSF0=

> <s_epik_cmdline>
J2VwaWtfcHl0aG9uJywgJy1waCcsICc3LjAnLCAnLXRuJywgJzgnLCAnLW1hJywgJzIwMCcsICctbWV0YWxfYmluZGluZycsICctaW1hZScsICc8aW5maWxlLm1hZT4nLCAnLW9tYWUnLCAnPG91dGZpbGUubWFlPic=

> <r_lp_tautomer_probability>
0.85571

> <r_epik_Ionization_Penalty>
0.0316551

> <r_epik_Ionization_Penalty_Charging>
0.0316043

> <r_epik_Ionization_Penalty_Neutral>
5.07097e-05

> <r_epik_State_Penalty>
3.15494e-07

> <r_epik_Charging_Adjusted_Penalty>
0.0316047

> <i_epik_Tot_Q>
0

> <i_epik_Tot_abs_Q>
0

> <r_epik_Metal_State_Penalty>
0.421206

> <b_epik_Metal_Only>
0

> <s_epik_Chemistry_Notes>
This compound contains an acetal/aminal-like group ( X-CH(R)-Y where X, Y are N, S, or O) that may be acid/base labile, releasing an aldehyde.

> <s_lp_Force_Field>
OPLS_2005

> <r_lp_Energy>
46.2687

> <b_lp_Chiralities_Consistent>
1

> <s_lp_Variant>
AV-unprocessed.smi:54-15

> <Gold.Version>
5.8.1

> <Gold.Id.Protein>
6NUR|6NUR_protein|mol2

> <Gold.PLP.Fitness>
41.5192

> <Gold.PLP.PLP>
-25.4103

> <Gold.PLP.part.hbond>
-6.6059

> <Gold.PLP.part.metal>
0.0000

> <Gold.PLP.part.buried>
-4.9116

> <Gold.PLP.part.nonpolar>
-16.2168

> <Gold.PLP.part.repulsive>
1.1445

> <Gold.PLP.ligand.clash>
0.0000

> <Gold.PLP.ligand.torsion>
1.0395

> <Gold.PLP.Chemscore.Hbond>
5.0147

> <Gold.PLP.Chemscore.CHOScore>
1.0000

> <Gold.PLP.Chemscore.Metal>
0.0000

> <Gold.Chemscore.Hbonds>
donor molecule, donor type, donor heavy atom, donor atom, acceptor molecule, acceptor atom, score
      L1  H    18    41       P1 10175  1.00
      L1  H    20    42       P1  7957  1.00
      L1  H    22    43       P1  8028  0.76
      P1  H  7997  8010       L1    24  1.00
      P1  H 10752 10765       L1     5  0.71
      L1  C    12    38       P1  8028  1.00

> <Gold.PLP.Chemscore.Internal.Correction>
0.1439

> <Gold.Rescore>
     Score         DG    S(hbond)    S(metal)    S(lipo)     H(rot)  DE(clash)    DE(int)     intcor
     11.89     -16.25       5.14        0.00      33.94       4.05       0.02       4.34       ----

> <Gold.Chemscore.Fitness>
11.8926

> <Gold.Chemscore.DG>
-16.2522

> <Gold.Chemscore.ZeroCoef>
-5.4800

> <Gold.Chemscore.Hbond>
5.1401

> <Gold.Chemscore.Metal>
0.0000

> <Gold.Chemscore.Lipo>
33.9372

> <Gold.Chemscore.Internal_Hbond>
0.0000

> <Gold.Chemscore.DEClash>
0.0202

> <Gold.Chemscore.DEInternal>
4.3394

> <Gold.Chemscore.Rot>
4.0493

> <Gold.Chemscore.Internal.Correction>
   9.000000E+99

> <Gold.Chemscore.Hbonds>
donor molecule, donor type, donor heavy atom, donor atom, acceptor molecule, acceptor atom, score
      L1  H    18    41       P1 10175  1.00
      L1  H    20    42       P1  7957  0.98
      L1  H    22    43       P1  8028  0.72
      P1  H  7997  8010       L1    24  1.00
      P1  H  8011  8017       L1    22  0.02
      P1  H 10752 10765       L1     5  0.54

> <Gold.Chemscore.Hbond.Weighted>
-17.1678

> <Gold.Chemscore.Metal.Weighted>
-0.0000

> <Gold.Chemscore.Lipo.Weighted>
-3.9706

> <Gold.Chemscore.Internal_Hbond.Weighted>
0.0000

> <Gold.Chemscore.DEClash.Weighted>
0.0202

> <Gold.Chemscore.DEInternal.Weighted>
4.3394

> <Gold.Chemscore.Rot.Weighted>
10.3662

> <Gold.Chemscore.Internal.Correction.Weighted>
   9.000000E+99

> <Gold.Protein.RotatedTorsions>
[ 6907 6896 6895 6894 ] final  115.86 input  -60.11 | X-H torsion
[ 7974 7965 7964 7962 ] final  -81.45 input  175.53 | X-H torsion
[ 8008 7997 7996 7995 ] final   25.44 input   59.86 | X-H torsion
[ 10167 10162 10161 10158 ] final  -53.46 input  -65.29 | X-H torsion
[ 10718 10713 10712 10709 ] final -150.56 input   66.30 | X-H torsion
[ 10763 10752 10751 10750 ] final -176.11 input  -60.55 | X-H torsion
[ 11005 11000 10999 10996 ] final   76.43 input  -57.11 | X-H torsion

> <Gold.Protein.ActiveResidues>
 VAL166  LYS551  ARG553  GLY616  TRP617  ASP618  TYR619  PRO620  LYS621  CYS622 
 ASP623  PHE694  ASN695  SER759  ASP760  ASP761  ALA762  ILE779  LEU786  VAL792 
 PHE793  MET794  SER795  GLU796  ALA797  LYS798  CYS799  TRP800  GLU811  SER814 

> <Gold.Protein.RotatedAtoms>
  152.4715  133.8040  159.6967 H   0  0  0  0  0  0  0  0  0  0  0  0  # atno 6907 bound_to 6896
  150.8706  133.7501  159.2969 H   0  0  0  0  0  0  0  0  0  0  0  0  # atno 6908 bound_to 6896
  151.5037  135.1066  159.9888 H   0  0  0  0  0  0  0  0  0  0  0  0  # atno 6909 bound_to 6896
  145.5464  140.9503  143.1523 H   0  0  0  0  0  0  0  0  0  0  0  0  # atno 7974 bound_to 7965
  155.0117  140.3137  155.4827 H   0  0  0  0  0  0  0  0  0  0  0  0  # atno 8008 bound_to 7997
  156.2908  140.2213  156.5173 H   0  0  0  0  0  0  0  0  0  0  0  0  # atno 8009 bound_to 7997
  154.7529  140.0465  157.0896 H   0  0  0  0  0  0  0  0  0  0  0  0  # atno 8010 bound_to 7997
  140.6484  143.2550  151.4795 H   0  0  0  0  0  0  0  0  0  0  0  0  # atno 10167 bound_to 10162
  156.4477  130.8153  151.2383 H   0  0  0  0  0  0  0  0  0  0  0  0  # atno 10718 bound_to 10713
  154.5763  135.2832  155.0777 H   0  0  0  0  0  0  0  0  0  0  0  0  # atno 10763 bound_to 10752
  154.2130  135.6404  153.5125 H   0  0  0  0  0  0  0  0  0  0  0  0  # atno 10764 bound_to 10752
  153.0073  135.5496  154.6403 H   0  0  0  0  0  0  0  0  0  0  0  0  # atno 10765 bound_to 10752
  139.9298  134.7600  156.1395 H   0  0  0  0  0  0  0  0  0  0  0  0  # atno 11005 bound_to 11000
  144.7551  139.7095  143.7257 LP  0  0  0  0  0  0  0  0  0  0  0  0  # atno 17320 bound_to 7965
  146.1946  139.5206  142.9783 LP  0  0  0  0  0  0  0  0  0  0  0  0  # atno 17321 bound_to 7965
  139.5696  144.1960  152.1817 LP  0  0  0  0  0  0  0  0  0  0  0  0  # atno 17342 bound_to 10162
  140.1252  144.5338  150.6837 LP  0  0  0  0  0  0  0  0  0  0  0  0  # atno 17343 bound_to 10162
  157.7504  131.0148  150.3478 LP  0  0  0  0  0  0  0  0  0  0  0  0  # atno 17370 bound_to 10713
  156.3849  130.3887  149.7073 LP  0  0  0  0  0  0  0  0  0  0  0  0  # atno 17371 bound_to 10713
  141.0880  133.6726  156.2478 LP  0  0  0  0  0  0  0  0  0  0  0  0  # atno 17394 bound_to 11000
  140.6233  134.5339  157.5550 LP  0  0  0  0  0  0  0  0  0  0  0  0  # atno 17395 bound_to 11000

$$$$
