AV-unprocessed.smi:2023|AV-procd|sdf|8189|dock6
  -GOLD-   2272010443D 1   1.00000     0.00000
 Structure written by MMmdl.
 35 36  0  0  0  0  0  0  0  0  1 V2000
  152.6789  139.8686  154.7102 O   0  0  0  0  0  0  0  0  0  0  0  0
  151.7026  138.7970  154.9580 S   0  0  0  0  0  0  0  0  0  0  0  0
  151.9456  137.4270  154.4810 O   0  0  0  0  0  0  0  0  0  0  0  0
  151.3715  138.7178  156.6497 N   0  0  0  0  0  0  0  0  0  0  0  0
  151.8913  139.7668  157.5290 C   0  0  0  0  0  0  0  0  0  0  0  0
  150.8956  140.9334  157.6445 C   0  0  0  0  0  0  0  0  0  0  0  0
  151.5447  142.2327  158.0860 C   0  0  0  0  0  0  0  0  0  0  0  0
  152.3330  142.2890  159.2540 C   0  0  0  0  0  0  0  0  0  0  0  0
  152.8926  143.5228  159.6367 C   0  0  0  0  0  0  0  0  0  0  0  0
  152.6430  144.6504  158.8295 C   0  0  0  0  0  0  0  0  0  0  0  0
  151.8957  144.6077  157.7055 N   0  0  0  0  0  0  0  0  0  0  0  0
  151.3598  143.4209  157.3479 C   0  0  0  0  0  0  0  0  0  0  0  0
  150.1560  139.3244  154.3874 N   0  0  0  0  0  0  0  0  0  0  0  0
  149.7327  140.6754  154.7921 C   0  0  0  0  0  0  0  0  0  0  0  0
  148.4529  141.1036  154.0559 C   0  0  0  0  0  0  0  0  0  0  0  0
  147.4353  140.1320  154.2396 O   0  0  0  0  0  0  0  0  0  0  0  0
  147.8112  138.8800  153.6881 C   0  0  0  0  0  0  0  0  0  0  0  0
  149.0594  138.3387  154.4034 C   0  0  0  0  0  0  0  0  0  0  0  0
  151.5078  137.7806  157.0275 H   0  0  0  0  0  0  0  0  0  0  0  0
  152.0762  139.3353  158.5128 H   0  0  0  0  0  0  0  0  0  0  0  0
  152.8528  140.1205  157.1545 H   0  0  0  0  0  0  0  0  0  0  0  0
  150.3914  141.0874  156.6895 H   0  0  0  0  0  0  0  0  0  0  0  0
  150.1147  140.6759  158.3609 H   0  0  0  0  0  0  0  0  0  0  0  0
  152.4990  141.4053  159.8522 H   0  0  0  0  0  0  0  0  0  0  0  0
  153.4966  143.6039  160.5282 H   0  0  0  0  0  0  0  0  0  0  0  0
  153.0561  145.6128  159.0931 H   0  0  0  0  0  0  0  0  0  0  0  0
  150.7589  143.4213  156.4503 H   0  0  0  0  0  0  0  0  0  0  0  0
  149.5657  140.6836  155.8698 H   0  0  0  0  0  0  0  0  0  0  0  0
  150.5315  141.3883  154.5868 H   0  0  0  0  0  0  0  0  0  0  0  0
  148.1011  142.0596  154.4442 H   0  0  0  0  0  0  0  0  0  0  0  0
  148.6478  141.2477  152.9919 H   0  0  0  0  0  0  0  0  0  0  0  0
  146.9829  138.1811  153.8045 H   0  0  0  0  0  0  0  0  0  0  0  0
  147.9920  138.9800  152.6167 H   0  0  0  0  0  0  0  0  0  0  0  0
  149.3800  137.4142  153.9250 H   0  0  0  0  0  0  0  0  0  0  0  0
  148.8197  138.0946  155.4391 H   0  0  0  0  0  0  0  0  0  0  0  0
  1  2  2  0  0  0  0
  2  3  2  0  0  0  0
  2  4  1  0  0  0  0
  2 13  1  0  0  0  0
  4  5  1  0  0  0  0
  4 19  1  0  0  0  0
  5  6  1  0  0  0  0
  5 20  1  0  0  0  0
  5 21  1  0  0  0  0
  6  7  1  0  0  0  0
  6 22  1  0  0  0  0
  6 23  1  0  0  0  0
  7 12  1  0  0  0  0
  7  8  2  0  0  0  0
  8  9  1  0  0  0  0
  8 24  1  0  0  0  0
  9 10  2  0  0  0  0
  9 25  1  0  0  0  0
 10 11  1  0  0  0  0
 10 26  1  0  0  0  0
 11 12  2  0  0  0  0
 12 27  1  0  0  0  0
 13 18  1  0  0  0  0
 13 14  1  0  0  0  0
 14 15  1  0  0  0  0
 14 28  1  0  0  0  0
 14 29  1  0  0  0  0
 15 16  1  0  0  0  0
 15 30  1  0  0  0  0
 15 31  1  0  0  0  0
 16 17  1  0  0  0  0
 17 18  1  0  0  0  0
 17 32  1  0  0  0  0
 17 33  1  0  0  0  0
 18 34  1  0  0  0  0
 18 35  1  0  0  0  0
M  END
> <s_m_source_file>
AV-unprocessed.smi

> <i_m_source_file_index>
2023

> <i_lp_mmshare_version>
43012

> <i_f3d_flags>
0

> <s_epik_input>
W0NIMl0xW0NIMl1PW0NIMl1bQ0gyXU4xUyg9TykoPU8pW05IXVtDSDJdW0NIMl1jMltjSF1bY0hdW2NIXW5bY0hdMg==

> <s_epik_cmdline>
J2VwaWtfcHl0aG9uJywgJy1waCcsICc3LjAnLCAnLXRuJywgJzgnLCAnLW1hJywgJzIwMCcsICctbWV0YWxfYmluZGluZycsICctaW1hZScsICc8aW5maWxlLm1hZT4nLCAnLW9tYWUnLCAnPG91dGZpbGUubWFlPic=

> <r_epik_Ionization_Penalty>
0.0861056

> <r_epik_Ionization_Penalty_Charging>
0

> <r_epik_Ionization_Penalty_Neutral>
0.0861056

> <r_epik_State_Penalty>
0.0574425

> <r_epik_Charging_Adjusted_Penalty>
0.0574425

> <i_epik_Tot_Q>
0

> <i_epik_Tot_abs_Q>
0

> <r_epik_Metal_State_Penalty>
0.317425

> <b_epik_Metal_Only>
0

> <s_lp_Force_Field>
OPLS_2005

> <r_lp_Energy>
8.68862

> <b_lp_Chiralities_Consistent>
1

> <s_lp_Variant>
AV-unprocessed.smi:2023-1

> <Gold.Version>
5.8.1

> <Gold.Id.Protein>
6NUR|6NUR_protein|mol2

> <Gold.PLP.Fitness>
44.6103

> <Gold.PLP.PLP>
-35.9149

> <Gold.PLP.part.hbond>
-3.1981

> <Gold.PLP.part.metal>
0.0000

> <Gold.PLP.part.buried>
-4.5597

> <Gold.PLP.part.nonpolar>
-29.2393

> <Gold.PLP.part.repulsive>
0.5106

> <Gold.PLP.ligand.clash>
0.0000

> <Gold.PLP.ligand.torsion>
0.9484

> <Gold.PLP.Chemscore.Hbond>
2.2840

> <Gold.PLP.Chemscore.CHOScore>
1.0000

> <Gold.PLP.Chemscore.Metal>
0.0000

> <Gold.Chemscore.Hbonds>
donor molecule, donor type, donor heavy atom, donor atom, acceptor molecule, acceptor atom, score
      P1  H  7989  7998       L1     1  0.46
      P1  H  7997  8009       L1     1  0.70
      P1  H 10752 10765       L1     3  0.90
      L1  C    12    27       P1  8028  1.00

> <Gold.PLP.Chemscore.Internal.Correction>
0.7404

> <Gold.Rescore>
     Score         DG    S(hbond)    S(metal)    S(lipo)     H(rot)  DE(clash)    DE(int)     intcor
     17.19     -18.28       1.95        0.00      93.83       1.84       0.10       1.00       ----

> <Gold.Chemscore.Fitness>
17.1865

> <Gold.Chemscore.DG>
-18.2823

> <Gold.Chemscore.ZeroCoef>
-5.4800

> <Gold.Chemscore.Hbond>
1.9549

> <Gold.Chemscore.Metal>
0.0000

> <Gold.Chemscore.Lipo>
93.8325

> <Gold.Chemscore.Internal_Hbond>
0.0000

> <Gold.Chemscore.DEClash>
0.0966

> <Gold.Chemscore.DEInternal>
0.9991

> <Gold.Chemscore.Rot>
1.8382

> <Gold.Chemscore.Internal.Correction>
   9.000000E+99

> <Gold.Chemscore.Hbonds>
donor molecule, donor type, donor heavy atom, donor atom, acceptor molecule, acceptor atom, score
      P1  H  7989  7998       L1     1  0.10
      P1  H  7997  8009       L1     1  0.71
      P1  H 10752 10765       L1     3  0.81

> <Gold.Chemscore.Hbond.Weighted>
-6.5295

> <Gold.Chemscore.Metal.Weighted>
-0.0000

> <Gold.Chemscore.Lipo.Weighted>
-10.9784

> <Gold.Chemscore.Internal_Hbond.Weighted>
0.0000

> <Gold.Chemscore.DEClash.Weighted>
0.0966

> <Gold.Chemscore.DEInternal.Weighted>
0.9991

> <Gold.Chemscore.Rot.Weighted>
4.7057

> <Gold.Chemscore.Internal.Correction.Weighted>
   9.000000E+99

> <Gold.Protein.RotatedTorsions>
[ 6907 6896 6895 6894 ] final  151.67 input  -60.11 | X-H torsion
[ 7974 7965 7964 7962 ] final -152.51 input  175.53 | X-H torsion
[ 8008 7997 7996 7995 ] final -133.39 input   59.86 | X-H torsion
[ 10167 10162 10161 10158 ] final  -18.15 input  -65.29 | X-H torsion
[ 10718 10713 10712 10709 ] final  144.83 input   66.30 | X-H torsion
[ 10763 10752 10751 10750 ] final  169.06 input  -60.55 | X-H torsion
[ 11005 11000 10999 10996 ] final  123.62 input  -57.11 | X-H torsion

> <Gold.Protein.ActiveResidues>
 VAL166  LYS551  ARG553  GLY616  TRP617  ASP618  TYR619  PRO620  LYS621  CYS622 
 ASP623  PHE694  ASN695  SER759  ASP760  ASP761  ALA762  ILE779  LEU786  VAL792 
 PHE793  MET794  SER795  GLU796  ALA797  LYS798  CYS799  TRP800  GLU811  SER814 

> <Gold.Protein.RotatedAtoms>
  152.0974  133.4232  159.4571 H   0  0  0  0  0  0  0  0  0  0  0  0  # atno 6907 bound_to 6896
  150.6863  134.2800  159.4632 H   0  0  0  0  0  0  0  0  0  0  0  0  # atno 6908 bound_to 6896
  152.0657  134.9565  160.0625 H   0  0  0  0  0  0  0  0  0  0  0  0  # atno 6909 bound_to 6896
  144.7790  140.4652  143.5852 H   0  0  0  0  0  0  0  0  0  0  0  0  # atno 7974 bound_to 7965
  155.3447  140.0474  157.3045 H   0  0  0  0  0  0  0  0  0  0  0  0  # atno 8008 bound_to 7997
  154.5258  140.2240  155.8856 H   0  0  0  0  0  0  0  0  0  0  0  0  # atno 8009 bound_to 7997
  156.1738  140.3090  155.9028 H   0  0  0  0  0  0  0  0  0  0  0  0  # atno 8010 bound_to 7997
  140.7255  143.4944  150.9949 H   0  0  0  0  0  0  0  0  0  0  0  0  # atno 10167 bound_to 10162
  157.3525  131.0953  151.0987 H   0  0  0  0  0  0  0  0  0  0  0  0  # atno 10718 bound_to 10713
  154.3776  135.2753  155.2230 H   0  0  0  0  0  0  0  0  0  0  0  0  # atno 10763 bound_to 10752
  154.4350  135.5968  153.6096 H   0  0  0  0  0  0  0  0  0  0  0  0  # atno 10764 bound_to 10752
  152.9836  135.6005  154.4015 H   0  0  0  0  0  0  0  0  0  0  0  0  # atno 10765 bound_to 10752
  139.9321  134.9641  156.8286 H   0  0  0  0  0  0  0  0  0  0  0  0  # atno 11005 bound_to 11000
  145.6103  139.1512  143.3079 LP  0  0  0  0  0  0  0  0  0  0  0  0  # atno 17320 bound_to 7965
  146.1987  140.6219  142.9112 LP  0  0  0  0  0  0  0  0  0  0  0  0  # atno 17321 bound_to 7965
  139.8650  143.7265  152.3171 LP  0  0  0  0  0  0  0  0  0  0  0  0  # atno 17342 bound_to 10162
  139.7494  144.7538  151.0530 LP  0  0  0  0  0  0  0  0  0  0  0  0  # atno 17343 bound_to 10162
  157.2157  130.6458  149.5791 LP  0  0  0  0  0  0  0  0  0  0  0  0  # atno 17370 bound_to 10713
  155.9724  130.4645  150.6221 LP  0  0  0  0  0  0  0  0  0  0  0  0  # atno 17371 bound_to 10713
  140.6175  134.0025  155.7603 LP  0  0  0  0  0  0  0  0  0  0  0  0  # atno 17394 bound_to 11000
  141.0915  133.9909  157.3229 LP  0  0  0  0  0  0  0  0  0  0  0  0  # atno 17395 bound_to 11000

$$$$
