AV-unprocessed.smi:2198|AV-procd|sdf|8911|dock5
  -GOLD-   2272012123D 1   1.00000     0.00000
 Structure written by MMmdl.
 43 44  0  0  0  0  0  0  0  0  1 V2000
  149.8898  142.8611  157.7054 C   0  0  0  0  0  0  0  0  0  0  0  0
  150.0309  141.6738  156.7765 C   0  0  0  0  0  0  0  0  0  0  0  0
  149.1805  141.3782  155.8490 N   0  0  0  0  0  0  0  0  0  0  0  0
  149.4206  140.2526  155.0487 C   0  0  0  0  0  0  0  0  0  0  0  0
  148.3782  139.9726  153.9798 C   0  0  0  0  0  0  0  0  0  0  0  0
  150.5241  139.4688  155.2281 C   0  0  0  0  0  0  0  0  0  0  0  0
  150.8152  138.2396  154.3684 C   0  0  0  0  0  0  0  0  0  0  0  0
  150.9792  136.9192  155.1251 C   0  0  0  0  0  0  0  0  0  0  0  0
  151.7440  136.8420  156.0868 O   0  0  0  0  0  0  0  0  0  0  0  0
  150.2526  135.8854  154.6747 N   0  0  0  0  0  0  0  0  0  0  0  0
  150.2599  134.5337  155.2315 C   0  0  2  0  0  0  0  0  0  0  0  0
  149.4770  133.5758  154.3132 C   0  0  0  0  0  0  0  0  0  0  0  0
  147.9621  133.8408  154.3547 C   0  0  0  0  0  0  0  0  0  0  0  0
  147.4260  133.7915  155.7938 C   0  0  0  0  0  0  0  0  0  0  0  0
  148.1737  134.7778  156.7111 C   0  0  1  0  0  0  0  0  0  0  0  0
  147.6359  134.7230  158.1480 C   0  0  0  0  0  0  0  0  0  0  0  0
  149.6926  134.5096  156.6679 C   0  0  0  0  0  0  0  0  0  0  0  0
  151.4877  139.8148  156.2908 C   0  0  0  0  0  0  0  0  0  0  0  0
  152.5135  139.1821  156.5362 O   0  0  0  0  0  0  0  0  0  0  0  0
  151.1755  140.9144  157.0126 N   0  0  0  0  0  0  0  0  0  0  0  0
  151.8050  141.1935  157.7509 H   0  0  0  0  0  0  0  0  0  0  0  0
  149.8881  143.7880  157.1319 H   0  0  0  0  0  0  0  0  0  0  0  0
  150.7070  142.9078  158.4265 H   0  0  0  0  0  0  0  0  0  0  0  0
  148.9519  142.7969  158.2571 H   0  0  0  0  0  0  0  0  0  0  0  0
  147.8896  139.0155  154.1631 H   0  0  0  0  0  0  0  0  0  0  0  0
  148.8370  139.9449  152.9914 H   0  0  0  0  0  0  0  0  0  0  0  0
  147.6070  140.7439  153.9670 H   0  0  0  0  0  0  0  0  0  0  0  0
  150.0372  138.1038  153.6166 H   0  0  0  0  0  0  0  0  0  0  0  0
  151.7232  138.4298  153.7952 H   0  0  0  0  0  0  0  0  0  0  0  0
  149.6498  136.0441  153.8805 H   0  0  0  0  0  0  0  0  0  0  0  0
  151.2949  134.1882  155.2619 H   0  0  0  0  0  0  0  0  0  0  0  0
  149.8427  133.6509  153.2884 H   0  0  0  0  0  0  0  0  0  0  0  0
  149.6649  132.5483  154.6273 H   0  0  0  0  0  0  0  0  0  0  0  0
  147.7441  134.8154  153.9161 H   0  0  0  0  0  0  0  0  0  0  0  0
  147.4411  133.1059  153.7404 H   0  0  0  0  0  0  0  0  0  0  0  0
  146.3592  134.0174  155.7931 H   0  0  0  0  0  0  0  0  0  0  0  0
  147.5259  132.7773  156.1832 H   0  0  0  0  0  0  0  0  0  0  0  0
  147.9957  135.7870  156.3369 H   0  0  0  0  0  0  0  0  0  0  0  0
  147.7797  133.7358  158.5882 H   0  0  0  0  0  0  0  0  0  0  0  0
  146.5695  134.9481  158.1770 H   0  0  0  0  0  0  0  0  0  0  0  0
  148.1429  135.4487  158.7846 H   0  0  0  0  0  0  0  0  0  0  0  0
  149.8951  133.5326  157.1088 H   0  0  0  0  0  0  0  0  0  0  0  0
  150.2189  135.2329  157.2922 H   0  0  0  0  0  0  0  0  0  0  0  0
  1  2  1  0  0  0  0
  1 22  1  0  0  0  0
  1 23  1  0  0  0  0
  1 24  1  0  0  0  0
  2 20  1  0  0  0  0
  2  3  2  0  0  0  0
  3  4  1  0  0  0  0
  4  5  1  0  0  0  0
  4  6  2  0  0  0  0
  5 25  1  0  0  0  0
  5 26  1  0  0  0  0
  5 27  1  0  0  0  0
  6  7  1  0  0  0  0
  6 18  1  0  0  0  0
  7  8  1  0  0  0  0
  7 28  1  0  0  0  0
  7 29  1  0  0  0  0
  8  9  2  0  0  0  0
  8 10  1  0  0  0  0
 10 11  1  0  0  0  0
 10 30  1  0  0  0  0
 11 17  1  0  0  0  0
 11 12  1  0  0  0  0
 11 31  1  0  0  0  0
 12 13  1  0  0  0  0
 12 32  1  0  0  0  0
 12 33  1  0  0  0  0
 13 14  1  0  0  0  0
 13 34  1  0  0  0  0
 13 35  1  0  0  0  0
 14 15  1  0  0  0  0
 14 36  1  0  0  0  0
 14 37  1  0  0  0  0
 15 16  1  0  0  0  0
 15 17  1  0  0  0  0
 15 38  1  0  0  0  0
 16 39  1  0  0  0  0
 16 40  1  0  0  0  0
 16 41  1  0  0  0  0
 17 42  1  0  0  0  0
 17 43  1  0  0  0  0
 18 19  2  0  0  0  0
 18 20  1  0  0  0  0
 20 21  1  0  0  0  0
M  END
> <s_m_source_file>
AV-unprocessed.smi

> <i_m_source_file_index>
2198

> <i_lp_mmshare_version>
43012

> <i_f3d_flags>
0

> <s_epik_input>
W0NIM11jMW5jKFtDSDNdKWMoYyg9TylbbkhdMSlbQ0gyXUMoPU8pW05IXVtDQEBIXTJbQ0gyXVtDSDJdW0NIMl1bQ0BASF0oW0NIM10pW0NIMl0y

> <s_epik_cmdline>
J2VwaWtfcHl0aG9uJywgJy1waCcsICc3LjAnLCAnLXRuJywgJzgnLCAnLW1hJywgJzIwMCcsICctbWV0YWxfYmluZGluZycsICctaW1hZScsICc8aW5maWxlLm1hZT4nLCAnLW9tYWUnLCAnPG91dGZpbGUubWFlPic=

> <r_lp_tautomer_probability>
0.839158

> <r_epik_Ionization_Penalty>
0.000372587

> <r_epik_Ionization_Penalty_Charging>
0.000337977

> <r_epik_Ionization_Penalty_Neutral>
3.46101e-05

> <r_epik_State_Penalty>
0.09125

> <r_epik_Charging_Adjusted_Penalty>
0.091588

> <i_epik_Tot_Q>
0

> <i_epik_Tot_abs_Q>
0

> <r_epik_Metal_State_Penalty>
0.25197

> <b_epik_Metal_Only>
0

> <s_lp_Force_Field>
OPLS_2005

> <r_lp_Energy>
10.2455

> <b_lp_Chiralities_Consistent>
1

> <s_lp_Variant>
AV-unprocessed.smi:2198-1

> <Gold.Version>
5.8.1

> <Gold.Id.Protein>
6NUR|6NUR_protein|mol2

> <Gold.PLP.Fitness>
39.8305

> <Gold.PLP.PLP>
-31.2349

> <Gold.PLP.part.hbond>
-3.9250

> <Gold.PLP.part.metal>
0.0000

> <Gold.PLP.part.buried>
-1.1106

> <Gold.PLP.part.nonpolar>
-26.3748

> <Gold.PLP.part.repulsive>
0.3429

> <Gold.PLP.ligand.clash>
0.0000

> <Gold.PLP.ligand.torsion>
0.1465

> <Gold.PLP.Chemscore.Hbond>
2.9600

> <Gold.PLP.Chemscore.CHOScore>
0.0000

> <Gold.PLP.Chemscore.Metal>
0.0000

> <Gold.Chemscore.Hbonds>
donor molecule, donor type, donor heavy atom, donor atom, acceptor molecule, acceptor atom, score
      L1  H    10    30       P1  7948  0.80
      P1  H  7997  8010       L1    19  0.94
      P1  H 10752 10763       L1     9  0.13

> <Gold.PLP.Chemscore.Internal.Correction>
0.0087

> <Gold.Rescore>
     Score         DG    S(hbond)    S(metal)    S(lipo)     H(rot)  DE(clash)    DE(int)     intcor
     14.74     -16.34       2.34        0.00      58.32       1.48       0.05       1.56       ----

> <Gold.Chemscore.Fitness>
14.7390

> <Gold.Chemscore.DG>
-16.3447

> <Gold.Chemscore.ZeroCoef>
-5.4800

> <Gold.Chemscore.Hbond>
2.3446

> <Gold.Chemscore.Metal>
0.0000

> <Gold.Chemscore.Lipo>
58.3162

> <Gold.Chemscore.Internal_Hbond>
0.0000

> <Gold.Chemscore.DEClash>
0.0456

> <Gold.Chemscore.DEInternal>
1.5601

> <Gold.Chemscore.Rot>
1.4801

> <Gold.Chemscore.Internal.Correction>
   9.000000E+99

> <Gold.Chemscore.Hbonds>
donor molecule, donor type, donor heavy atom, donor atom, acceptor molecule, acceptor atom, score
      L1  H    10    30       P1  7948  0.31
      P1  H  7997  8010       L1    19  0.89

> <Gold.Chemscore.Hbond.Weighted>
-7.8308

> <Gold.Chemscore.Metal.Weighted>
-0.0000

> <Gold.Chemscore.Lipo.Weighted>
-6.8230

> <Gold.Chemscore.Internal_Hbond.Weighted>
0.0000

> <Gold.Chemscore.DEClash.Weighted>
0.0456

> <Gold.Chemscore.DEInternal.Weighted>
1.5601

> <Gold.Chemscore.Rot.Weighted>
3.7891

> <Gold.Chemscore.Internal.Correction.Weighted>
   9.000000E+99

> <Gold.Protein.RotatedTorsions>
[ 6907 6896 6895 6894 ] final  -19.69 input  -60.11 | X-H torsion
[ 7974 7965 7964 7962 ] final  169.10 input  175.53 | X-H torsion
[ 8008 7997 7996 7995 ] final   63.15 input   59.86 | X-H torsion
[ 10167 10162 10161 10158 ] final  -86.10 input  -65.29 | X-H torsion
[ 10718 10713 10712 10709 ] final  -60.17 input   66.30 | X-H torsion
[ 10763 10752 10751 10750 ] final   68.94 input  -60.55 | X-H torsion
[ 11005 11000 10999 10996 ] final  143.73 input  -57.11 | X-H torsion

> <Gold.Protein.ActiveResidues>
 VAL166  LYS551  ARG553  GLY616  TRP617  ASP618  TYR619  PRO620  LYS621  CYS622 
 ASP623  PHE694  ASN695  SER759  ASP760  ASP761  ALA762  ILE779  LEU786  VAL792 
 PHE793  MET794  SER795  GLU796  ALA797  LYS798  CYS799  TRP800  GLU811  SER814 

> <Gold.Protein.RotatedAtoms>
  151.2594  135.0649  159.9092 H   0  0  0  0  0  0  0  0  0  0  0  0  # atno 6907 bound_to 6896
  152.5368  134.0247  159.8008 H   0  0  0  0  0  0  0  0  0  0  0  0  # atno 6908 bound_to 6896
  151.0468  133.5609  159.2677 H   0  0  0  0  0  0  0  0  0  0  0  0  # atno 6909 bound_to 6896
  144.7366  139.9005  143.6409 H   0  0  0  0  0  0  0  0  0  0  0  0  # atno 7974 bound_to 7965
  155.6256  140.3496  155.4666 H   0  0  0  0  0  0  0  0  0  0  0  0  # atno 8008 bound_to 7997
  156.0044  140.1220  157.0539 H   0  0  0  0  0  0  0  0  0  0  0  0  # atno 8009 bound_to 7997
  154.4259  140.1094  156.5728 H   0  0  0  0  0  0  0  0  0  0  0  0  # atno 8010 bound_to 7997
  140.3974  143.2678  151.9187 H   0  0  0  0  0  0  0  0  0  0  0  0  # atno 10167 bound_to 10162
  156.1009  130.4186  150.0817 H   0  0  0  0  0  0  0  0  0  0  0  0  # atno 10718 bound_to 10713
  153.0261  135.5229  154.7211 H   0  0  0  0  0  0  0  0  0  0  0  0  # atno 10763 bound_to 10752
  154.6266  135.2895  155.0267 H   0  0  0  0  0  0  0  0  0  0  0  0  # atno 10764 bound_to 10752
  154.1234  135.6604  153.4960 H   0  0  0  0  0  0  0  0  0  0  0  0  # atno 10765 bound_to 10752
  140.0577  134.9222  157.1129 H   0  0  0  0  0  0  0  0  0  0  0  0  # atno 11005 bound_to 11000
  146.1075  139.4077  143.0308 LP  0  0  0  0  0  0  0  0  0  0  0  0  # atno 17320 bound_to 7965
  145.7490  140.9979  143.1260 LP  0  0  0  0  0  0  0  0  0  0  0  0  # atno 17321 bound_to 7965
  139.4786  144.5668  151.8152 LP  0  0  0  0  0  0  0  0  0  0  0  0  # atno 17342 bound_to 10162
  140.4776  144.1496  150.5927 LP  0  0  0  0  0  0  0  0  0  0  0  0  # atno 17343 bound_to 10162
  156.8805  130.9555  151.3600 LP  0  0  0  0  0  0  0  0  0  0  0  0  # atno 17370 bound_to 10713
  157.6179  130.8632  149.9059 LP  0  0  0  0  0  0  0  0  0  0  0  0  # atno 17371 bound_to 10713
  140.3819  134.2278  155.7170 LP  0  0  0  0  0  0  0  0  0  0  0  0  # atno 17394 bound_to 11000
  141.1959  133.8094  157.0694 LP  0  0  0  0  0  0  0  0  0  0  0  0  # atno 17395 bound_to 11000

$$$$
