AV-unprocessed.smi:2148|AV-procd|sdf|8749|dock3
  -GOLD-   2272011523D 1   1.00000     0.00000
 Structure written by MMmdl.
 44 45  0  0  0  0  0  0  0  0  1 V2000
  149.0515  131.1925  153.8135 C   0  0  0  0  0  0  0  0  0  0  0  0
  149.8979  132.2467  155.0214 S   0  0  0  0  0  0  0  0  0  0  0  0
  149.6055  133.8900  154.3003 C   0  0  1  0  0  0  0  0  0  0  0  0
  148.1251  134.0735  153.9177 C   0  0  0  0  0  0  0  0  0  0  0  0
  150.1155  134.9994  155.2315 C   0  0  0  0  0  0  0  0  0  0  0  0
  150.4023  134.7459  156.4016 O   0  0  0  0  0  0  0  0  0  0  0  0
  150.1922  136.2241  154.6771 N   0  0  0  0  0  0  0  0  0  0  0  0
  150.6185  137.4464  155.2641 C   0  0  0  0  0  0  0  0  0  0  0  0
  151.2808  138.4836  154.5650 C   0  0  0  0  0  0  0  0  0  0  0  0
  151.6386  139.6536  155.2616 C   0  0  0  0  0  0  0  0  0  0  0  0
  151.3174  139.7544  156.6346 C   0  0  0  0  0  0  0  0  0  0  0  0
  151.6484  140.8898  157.3854 N   0  0  0  0  0  0  0  0  0  0  0  0
  152.4060  140.5847  158.5900 C   0  0  0  0  0  0  0  0  0  0  0  0
  152.8864  141.8882  159.2537 C   0  0  2  0  0  0  0  0  0  0  0  0
  153.5882  141.6247  160.5901 C   0  0  0  0  0  0  0  0  0  0  0  0
  151.7654  142.7384  159.5019 O   0  0  0  0  0  0  0  0  0  0  0  0
  150.9886  143.0638  158.3453 C   0  0  1  0  0  0  0  0  0  0  0  0
  151.7231  144.0392  157.4080 C   0  0  0  0  0  0  0  0  0  0  0  0
  150.5194  141.7735  157.6446 C   0  0  0  0  0  0  0  0  0  0  0  0
  150.6700  138.7757  157.3023 N   0  0  0  0  0  0  0  0  0  0  0  0
  150.3295  137.6571  156.6282 C   0  0  0  0  0  0  0  0  0  0  0  0
  149.1623  130.1446  154.0916 H   0  0  0  0  0  0  0  0  0  0  0  0
  149.4782  131.3314  152.8201 H   0  0  0  0  0  0  0  0  0  0  0  0
  147.9879  131.4255  153.7727 H   0  0  0  0  0  0  0  0  0  0  0  0
  150.1984  133.9538  153.3868 H   0  0  0  0  0  0  0  0  0  0  0  0
  147.9362  135.0732  153.5244 H   0  0  0  0  0  0  0  0  0  0  0  0
  147.4694  133.9222  154.7762 H   0  0  0  0  0  0  0  0  0  0  0  0
  147.8256  133.3648  153.1461 H   0  0  0  0  0  0  0  0  0  0  0  0
  149.8564  136.2965  153.7276 H   0  0  0  0  0  0  0  0  0  0  0  0
  151.5093  138.4152  153.5132 H   0  0  0  0  0  0  0  0  0  0  0  0
  152.1445  140.4562  154.7454 H   0  0  0  0  0  0  0  0  0  0  0  0
  151.7809  140.0195  159.2828 H   0  0  0  0  0  0  0  0  0  0  0  0
  153.2603  139.9546  158.3384 H   0  0  0  0  0  0  0  0  0  0  0  0
  153.5924  142.3954  158.5958 H   0  0  0  0  0  0  0  0  0  0  0  0
  154.4637  140.9895  160.4542 H   0  0  0  0  0  0  0  0  0  0  0  0
  152.9209  141.1291  161.2958 H   0  0  0  0  0  0  0  0  0  0  0  0
  153.9219  142.5574  161.0455 H   0  0  0  0  0  0  0  0  0  0  0  0
  150.1025  143.5841  158.7102 H   0  0  0  0  0  0  0  0  0  0  0  0
  151.0672  144.3646  156.6003 H   0  0  0  0  0  0  0  0  0  0  0  0
  152.6022  143.5892  156.9476 H   0  0  0  0  0  0  0  0  0  0  0  0
  152.0464  144.9289  157.9486 H   0  0  0  0  0  0  0  0  0  0  0  0
  150.0067  142.0111  156.7115 H   0  0  0  0  0  0  0  0  0  0  0  0
  149.7984  141.2600  158.2822 H   0  0  0  0  0  0  0  0  0  0  0  0
  149.8121  136.9015  157.2014 H   0  0  0  0  0  0  0  0  0  0  0  0
  1  2  1  0  0  0  0
  1 22  1  0  0  0  0
  1 23  1  0  0  0  0
  1 24  1  0  0  0  0
  2  3  1  0  0  0  0
  3  4  1  0  0  0  0
  3  5  1  0  0  0  0
  3 25  1  0  0  0  0
  4 26  1  0  0  0  0
  4 27  1  0  0  0  0
  4 28  1  0  0  0  0
  5  6  2  0  0  0  0
  5  7  1  0  0  0  0
  7  8  1  0  0  0  0
  7 29  1  0  0  0  0
  8 21  1  0  0  0  0
  8  9  2  0  0  0  0
  9 10  1  0  0  0  0
  9 30  1  0  0  0  0
 10 11  2  0  0  0  0
 10 31  1  0  0  0  0
 11 12  1  0  0  0  0
 11 20  1  0  0  0  0
 12 19  1  0  0  0  0
 12 13  1  0  0  0  0
 13 14  1  0  0  0  0
 13 32  1  0  0  0  0
 13 33  1  0  0  0  0
 14 15  1  0  0  0  0
 14 16  1  0  0  0  0
 14 34  1  0  0  0  0
 15 35  1  0  0  0  0
 15 36  1  0  0  0  0
 15 37  1  0  0  0  0
 16 17  1  0  0  0  0
 17 18  1  0  0  0  0
 17 19  1  0  0  0  0
 17 38  1  0  0  0  0
 18 39  1  0  0  0  0
 18 40  1  0  0  0  0
 18 41  1  0  0  0  0
 19 42  1  0  0  0  0
 19 43  1  0  0  0  0
 20 21  2  0  0  0  0
 21 44  1  0  0  0  0
M  END
> <s_m_source_file>
AV-unprocessed.smi

> <i_m_source_file_index>
2148

> <i_lp_mmshare_version>
43012

> <i_f3d_flags>
0

> <s_epik_input>
W0NIM11TW0NASF0oW0NIM10pQyg9TylbTkhdYzFbY0hdW2NIXWMobltjSF0xKU4yW0NIMl1bQ0BASF0oW0NIM10pT1tDQEBIXShbQ0gzXSlbQ0gyXTI=

> <s_epik_cmdline>
J2VwaWtfcHl0aG9uJywgJy1waCcsICc3LjAnLCAnLXRuJywgJzgnLCAnLW1hJywgJzIwMCcsICctbWV0YWxfYmluZGluZycsICctaW1hZScsICc8aW5maWxlLm1hZT4nLCAnLW9tYWUnLCAnPG91dGZpbGUubWFlPic=

> <r_lp_tautomer_probability>
1

> <r_epik_Ionization_Penalty>
0.000646494

> <r_epik_Ionization_Penalty_Charging>
0

> <r_epik_Ionization_Penalty_Neutral>
0.000646494

> <r_epik_State_Penalty>
0.000408447

> <r_epik_Charging_Adjusted_Penalty>
0.000408447

> <i_epik_Tot_Q>
0

> <i_epik_Tot_abs_Q>
0

> <r_epik_Metal_State_Penalty>
-0

> <b_epik_Metal_Only>
0

> <s_lp_Force_Field>
OPLS_2005

> <r_lp_Energy>
27.0114

> <b_lp_Chiralities_Consistent>
1

> <s_lp_Variant>
AV-unprocessed.smi:2148-4

> <Gold.Version>
5.8.1

> <Gold.Id.Protein>
6NUR|6NUR_protein|mol2

> <Gold.PLP.Fitness>
39.4327

> <Gold.PLP.PLP>
-37.7599

> <Gold.PLP.part.hbond>
-0.9896

> <Gold.PLP.part.metal>
0.0000

> <Gold.PLP.part.buried>
-3.5580

> <Gold.PLP.part.nonpolar>
-33.7029

> <Gold.PLP.part.repulsive>
0.0615

> <Gold.PLP.ligand.clash>
0.0000

> <Gold.PLP.ligand.torsion>
0.7422

> <Gold.PLP.Chemscore.Hbond>
1.0000

> <Gold.PLP.Chemscore.CHOScore>
0.0000

> <Gold.PLP.Chemscore.Metal>
0.0000

> <Gold.Chemscore.Hbonds>
donor molecule, donor type, donor heavy atom, donor atom, acceptor molecule, acceptor atom, score
      L1  H     7    29       P1  7948  0.99

> <Gold.PLP.Chemscore.Internal.Correction>
0.1572

> <Gold.Rescore>
     Score         DG    S(hbond)    S(metal)    S(lipo)     H(rot)  DE(clash)    DE(int)     intcor
     14.33     -16.52       0.84        0.00      98.01       1.27       0.06       2.12       ----

> <Gold.Chemscore.Fitness>
14.3304

> <Gold.Chemscore.DG>
-16.5175

> <Gold.Chemscore.ZeroCoef>
-5.4800

> <Gold.Chemscore.Hbond>
0.8417

> <Gold.Chemscore.Metal>
0.0000

> <Gold.Chemscore.Lipo>
98.0060

> <Gold.Chemscore.Internal_Hbond>
0.0000

> <Gold.Chemscore.DEClash>
0.0623

> <Gold.Chemscore.DEInternal>
2.1248

> <Gold.Chemscore.Rot>
1.2659

> <Gold.Chemscore.Internal.Correction>
   9.000000E+99

> <Gold.Chemscore.Hbonds>
donor molecule, donor type, donor heavy atom, donor atom, acceptor molecule, acceptor atom, score
      L1  H     7    29       P1  7948  0.24

> <Gold.Chemscore.Hbond.Weighted>
-2.8114

> <Gold.Chemscore.Metal.Weighted>
-0.0000

> <Gold.Chemscore.Lipo.Weighted>
-11.4667

> <Gold.Chemscore.Internal_Hbond.Weighted>
0.0000

> <Gold.Chemscore.DEClash.Weighted>
0.0623

> <Gold.Chemscore.DEInternal.Weighted>
2.1248

> <Gold.Chemscore.Rot.Weighted>
3.2406

> <Gold.Chemscore.Internal.Correction.Weighted>
   9.000000E+99

> <Gold.Protein.RotatedTorsions>
[ 6907 6896 6895 6894 ] final  -72.25 input  -60.11 | X-H torsion
[ 7974 7965 7964 7962 ] final   -3.40 input  175.53 | X-H torsion
[ 8008 7997 7996 7995 ] final   53.89 input   59.86 | X-H torsion
[ 10167 10162 10161 10158 ] final   11.76 input  -65.29 | X-H torsion
[ 10718 10713 10712 10709 ] final  -33.06 input   66.30 | X-H torsion
[ 10763 10752 10751 10750 ] final -160.38 input  -60.55 | X-H torsion
[ 11005 11000 10999 10996 ] final  162.90 input  -57.11 | X-H torsion

> <Gold.Protein.ActiveResidues>
 VAL166  LYS551  ARG553  GLY616  TRP617  ASP618  TYR619  PRO620  LYS621  CYS622 
 ASP623  PHE694  ASN695  SER759  ASP760  ASP761  ALA762  ILE779  LEU786  VAL792 
 PHE793  MET794  SER795  GLU796  ALA797  LYS798  CYS799  TRP800  GLU811  SER814 

> <Gold.Protein.RotatedAtoms>
  150.7178  134.5190  159.5644 H   0  0  0  0  0  0  0  0  0  0  0  0  # atno 6907 bound_to 6896
  152.2750  134.7889  160.0416 H   0  0  0  0  0  0  0  0  0  0  0  0  # atno 6908 bound_to 6896
  151.8555  133.3412  159.3724 H   0  0  0  0  0  0  0  0  0  0  0  0  # atno 6909 bound_to 6896
  146.2390  140.1715  142.8332 H   0  0  0  0  0  0  0  0  0  0  0  0  # atno 7974 bound_to 7965
  155.4758  140.3467  155.4332 H   0  0  0  0  0  0  0  0  0  0  0  0  # atno 8008 bound_to 7997
  156.1071  140.1451  156.9418 H   0  0  0  0  0  0  0  0  0  0  0  0  # atno 8009 bound_to 7997
  154.4732  140.0894  156.7174 H   0  0  0  0  0  0  0  0  0  0  0  0  # atno 8010 bound_to 7997
  140.6111  143.8405  150.7067 H   0  0  0  0  0  0  0  0  0  0  0  0  # atno 10167 bound_to 10162
  156.3672  130.4333  149.7574 H   0  0  0  0  0  0  0  0  0  0  0  0  # atno 10718 bound_to 10713
  154.7395  135.3065  154.8753 H   0  0  0  0  0  0  0  0  0  0  0  0  # atno 10763 bound_to 10752
  153.9572  135.6757  153.4749 H   0  0  0  0  0  0  0  0  0  0  0  0  # atno 10764 bound_to 10752
  153.0995  135.4919  154.8764 H   0  0  0  0  0  0  0  0  0  0  0  0  # atno 10765 bound_to 10752
  140.2304  134.8128  157.3311 H   0  0  0  0  0  0  0  0  0  0  0  0  # atno 11005 bound_to 11000
  145.0007  140.8629  143.5283 LP  0  0  0  0  0  0  0  0  0  0  0  0  # atno 17320 bound_to 7965
  145.1734  139.2391  143.5330 LP  0  0  0  0  0  0  0  0  0  0  0  0  # atno 17321 bound_to 7965
  140.1973  143.3987  152.1818 LP  0  0  0  0  0  0  0  0  0  0  0  0  # atno 17342 bound_to 10162
  139.5362  144.7212  151.4885 LP  0  0  0  0  0  0  0  0  0  0  0  0  # atno 17343 bound_to 10162
  156.4716  130.7999  151.3017 LP  0  0  0  0  0  0  0  0  0  0  0  0  # atno 17370 bound_to 10713
  157.7480  131.0034  150.3037 LP  0  0  0  0  0  0  0  0  0  0  0  0  # atno 17371 bound_to 10713
  140.1756  134.4553  155.7803 LP  0  0  0  0  0  0  0  0  0  0  0  0  # atno 17394 bound_to 11000
  141.2218  133.6961  156.7782 LP  0  0  0  0  0  0  0  0  0  0  0  0  # atno 17395 bound_to 11000

$$$$
