AV-unprocessed.smi:3056|AV-procd|sdf|11659|dock1
  -GOLD-   2272017 63D 1   1.00000     0.00000
 Structure written by MMmdl.
 47 48  0  0  0  0  0  0  0  0  1 V2000
  151.1322  143.1610  158.2365 C   0  0  0  0  0  0  0  0  0  0  0  0
  151.0842  141.9355  157.3703 C   0  0  0  0  0  0  0  0  0  0  0  0
  151.6468  140.6543  157.6328 C   0  0  0  0  0  0  0  0  0  0  0  0
  151.4334  139.7893  156.6555 N   0  0  0  0  0  0  0  0  0  0  0  0
  150.7224  140.4817  155.7366 N   0  0  0  0  0  0  0  0  0  0  0  0
  150.3252  139.8533  154.4817 C   0  0  2  0  0  0  0  0  0  0  0  0
  148.7927  139.9160  154.3275 C   0  0  0  0  0  0  0  0  0  0  0  0
  150.8960  138.4116  154.3505 C   0  0  1  0  0  0  0  0  0  0  0  0
  152.4339  138.3826  154.2998 C   0  0  0  0  0  0  0  0  0  0  0  0
  150.5170  137.6084  155.5158 N   0  0  0  0  0  0  0  0  0  0  0  0
  151.1451  136.2753  155.5885 C   0  0  0  0  0  0  0  0  0  0  0  0
  150.3948  135.2316  156.4405 C   0  0  0  0  0  0  0  0  0  0  0  0
  150.1456  135.4878  157.6199 O   0  0  0  0  0  0  0  0  0  0  0  0
  150.0145  134.0658  155.8639 N   0  0  0  0  0  0  0  0  0  0  0  0
  149.2584  133.0307  156.5745 C   0  0  0  0  0  0  0  0  0  0  0  0
  147.8713  132.9108  155.9198 C   0  0  0  0  0  0  0  0  0  0  0  0
  148.0215  132.6009  154.5362 O   0  0  0  0  0  0  0  0  0  0  0  0
  148.7777  133.5737  153.8166 C   0  0  2  0  0  0  0  0  0  0  0  0
  148.8460  133.1376  152.3489 C   0  0  0  0  0  0  0  0  0  0  0  0
  150.1769  133.7011  154.4523 C   0  0  0  0  0  0  0  0  0  0  0  0
  150.4980  141.7796  156.1463 C   0  0  0  0  0  0  0  0  0  0  0  0
  151.7670  143.0158  159.1107 H   0  0  0  0  0  0  0  0  0  0  0  0
  150.1420  143.4347  158.6007 H   0  0  0  0  0  0  0  0  0  0  0  0
  151.5256  144.0209  157.6940 H   0  0  0  0  0  0  0  0  0  0  0  0
  152.2062  140.3305  158.4982 H   0  0  0  0  0  0  0  0  0  0  0  0
  150.7491  140.4589  153.6788 H   0  0  0  0  0  0  0  0  0  0  0  0
  148.4785  139.6418  153.3207 H   0  0  0  0  0  0  0  0  0  0  0  0
  148.4229  140.9256  154.5103 H   0  0  0  0  0  0  0  0  0  0  0  0
  148.2912  139.2468  155.0273 H   0  0  0  0  0  0  0  0  0  0  0  0
  150.5278  137.9602  153.4282 H   0  0  0  0  0  0  0  0  0  0  0  0
  152.8144  138.8574  153.3957 H   0  0  0  0  0  0  0  0  0  0  0  0
  152.8095  137.3585  154.2970 H   0  0  0  0  0  0  0  0  0  0  0  0
  152.8725  138.8940  155.1575 H   0  0  0  0  0  0  0  0  0  0  0  0
  149.5104  137.5561  155.5737 H   0  0  0  0  0  0  0  0  0  0  0  0
  151.2191  135.8827  154.5741 H   0  0  0  0  0  0  0  0  0  0  0  0
  152.1627  136.3864  155.9572 H   0  0  0  0  0  0  0  0  0  0  0  0
  149.7908  132.0810  156.5062 H   0  0  0  0  0  0  0  0  0  0  0  0
  149.1468  133.2377  157.6396 H   0  0  0  0  0  0  0  0  0  0  0  0
  147.2935  132.1202  156.3984 H   0  0  0  0  0  0  0  0  0  0  0  0
  147.3049  133.8363  156.0359 H   0  0  0  0  0  0  0  0  0  0  0  0
  148.2624  134.5343  153.8709 H   0  0  0  0  0  0  0  0  0  0  0  0
  149.4076  133.8561  151.7516 H   0  0  0  0  0  0  0  0  0  0  0  0
  147.8472  133.0579  151.9195 H   0  0  0  0  0  0  0  0  0  0  0  0
  149.3309  132.1662  152.2480 H   0  0  0  0  0  0  0  0  0  0  0  0
  150.7685  134.4112  153.8778 H   0  0  0  0  0  0  0  0  0  0  0  0
  150.7098  132.7508  154.3890 H   0  0  0  0  0  0  0  0  0  0  0  0
  149.9521  142.4822  155.5340 H   0  0  0  0  0  0  0  0  0  0  0  0
  1  2  1  0  0  0  0
  1 22  1  0  0  0  0
  1 23  1  0  0  0  0
  1 24  1  0  0  0  0
  2 21  2  0  0  0  0
  2  3  1  0  0  0  0
  3  4  2  0  0  0  0
  3 25  1  0  0  0  0
  4  5  1  0  0  0  0
  5  6  1  0  0  0  0
  5 21  1  0  0  0  0
  6  7  1  0  0  0  0
  6  8  1  0  0  0  0
  6 26  1  0  0  0  0
  7 27  1  0  0  0  0
  7 28  1  0  0  0  0
  7 29  1  0  0  0  0
  8  9  1  0  0  0  0
  8 10  1  0  0  0  0
  8 30  1  0  0  0  0
  9 31  1  0  0  0  0
  9 32  1  0  0  0  0
  9 33  1  0  0  0  0
 10 11  1  0  0  0  0
 10 34  1  0  0  0  0
 11 12  1  0  0  0  0
 11 35  1  0  0  0  0
 11 36  1  0  0  0  0
 12 13  2  0  0  0  0
 12 14  1  0  0  0  0
 14 20  1  0  0  0  0
 14 15  1  0  0  0  0
 15 16  1  0  0  0  0
 15 37  1  0  0  0  0
 15 38  1  0  0  0  0
 16 17  1  0  0  0  0
 16 39  1  0  0  0  0
 16 40  1  0  0  0  0
 17 18  1  0  0  0  0
 18 19  1  0  0  0  0
 18 20  1  0  0  0  0
 18 41  1  0  0  0  0
 19 42  1  0  0  0  0
 19 43  1  0  0  0  0
 19 44  1  0  0  0  0
 20 45  1  0  0  0  0
 20 46  1  0  0  0  0
 21 47  1  0  0  0  0
M  END
> <s_m_source_file>
AV-unprocessed.smi

> <i_m_source_file_index>
3056

> <i_lp_mmshare_version>
43012

> <i_f3d_flags>
0

> <s_epik_input>
W0NIM11jMVtjSF1ubihbY0hdMSlbQ0BIXShbQ0gzXSlbQ0BIXShbQ0gzXSlbTkhdW0NIMl1DKD1PKU4yW0NIMl1bQ0gyXU9bQ0BASF0oW0NIM10pW0NIMl0y

> <s_epik_cmdline>
J2VwaWtfcHl0aG9uJywgJy1waCcsICc3LjAnLCAnLXRuJywgJzgnLCAnLW1hJywgJzIwMCcsICctbWV0YWxfYmluZGluZycsICctaW1hZScsICc8aW5maWxlLm1hZT4nLCAnLW9tYWUnLCAnPG91dGZpbGUubWFlPic=

> <r_lp_tautomer_probability>
1

> <r_epik_Ionization_Penalty>
0.667689

> <r_epik_Ionization_Penalty_Charging>
0

> <r_epik_Ionization_Penalty_Neutral>
0.667689

> <r_epik_State_Penalty>
0.684601

> <r_epik_Charging_Adjusted_Penalty>
0.684601

> <i_epik_Tot_Q>
0

> <i_epik_Tot_abs_Q>
0

> <r_epik_Metal_State_Penalty>
0.681448

> <b_epik_Metal_Only>
0

> <s_lp_Force_Field>
OPLS_2005

> <r_lp_Energy>
30.5855

> <b_lp_Chiralities_Consistent>
1

> <s_lp_Variant>
AV-unprocessed.smi:3056-15

> <Gold.Version>
5.8.1

> <Gold.Id.Protein>
6NUR|6NUR_protein|mol2

> <Gold.PLP.Fitness>
40.8600

> <Gold.PLP.PLP>
-35.4510

> <Gold.PLP.part.hbond>
-1.0000

> <Gold.PLP.part.metal>
0.0000

> <Gold.PLP.part.buried>
-3.6958

> <Gold.PLP.part.nonpolar>
-31.8667

> <Gold.PLP.part.repulsive>
0.0000

> <Gold.PLP.ligand.clash>
0.0000

> <Gold.PLP.ligand.torsion>
0.2540

> <Gold.PLP.Chemscore.Hbond>
0.8800

> <Gold.PLP.Chemscore.CHOScore>
1.0000

> <Gold.PLP.Chemscore.Metal>
0.0000

> <Gold.Chemscore.Hbonds>
donor molecule, donor type, donor heavy atom, donor atom, acceptor molecule, acceptor atom, score
      P1  H  6896  6908       L1    13  0.47
      L1  C    21    47       P1  8028  1.00

> <Gold.PLP.Chemscore.Internal.Correction>
0.2770

> <Gold.Rescore>
     Score         DG    S(hbond)    S(metal)    S(lipo)     H(rot)  DE(clash)    DE(int)     intcor
     12.96     -14.27       0.88        0.00      86.68       1.68       0.01       1.30       ----

> <Gold.Chemscore.Fitness>
12.9605

> <Gold.Chemscore.DG>
-14.2711

> <Gold.Chemscore.ZeroCoef>
-5.4800

> <Gold.Chemscore.Hbond>
0.8827

> <Gold.Chemscore.Metal>
0.0000

> <Gold.Chemscore.Lipo>
86.6829

> <Gold.Chemscore.Internal_Hbond>
0.0000

> <Gold.Chemscore.DEClash>
0.0106

> <Gold.Chemscore.DEInternal>
1.3000

> <Gold.Chemscore.Rot>
1.6793

> <Gold.Chemscore.Internal.Correction>
   9.000000E+99

> <Gold.Chemscore.Hbonds>
donor molecule, donor type, donor heavy atom, donor atom, acceptor molecule, acceptor atom, score
      P1  H  6896  6908       L1    13  0.46

> <Gold.Chemscore.Hbond.Weighted>
-2.9483

> <Gold.Chemscore.Metal.Weighted>
-0.0000

> <Gold.Chemscore.Lipo.Weighted>
-10.1419

> <Gold.Chemscore.Internal_Hbond.Weighted>
0.0000

> <Gold.Chemscore.DEClash.Weighted>
0.0106

> <Gold.Chemscore.DEInternal.Weighted>
1.3000

> <Gold.Chemscore.Rot.Weighted>
4.2990

> <Gold.Chemscore.Internal.Correction.Weighted>
   9.000000E+99

> <Gold.Protein.RotatedTorsions>
[ 6907 6896 6895 6894 ] final  169.36 input  -60.11 | X-H torsion
[ 7974 7965 7964 7962 ] final  -36.16 input  175.53 | X-H torsion
[ 8008 7997 7996 7995 ] final  169.90 input   59.86 | X-H torsion
[ 10167 10162 10161 10158 ] final -161.75 input  -65.29 | X-H torsion
[ 10718 10713 10712 10709 ] final   20.93 input   66.30 | X-H torsion
[ 10763 10752 10751 10750 ] final -150.53 input  -60.55 | X-H torsion
[ 11005 11000 10999 10996 ] final   61.28 input  -57.11 | X-H torsion

> <Gold.Protein.ActiveResidues>
 VAL166  LYS551  ARG553  GLY616  TRP617  ASP618  TYR619  PRO620  LYS621  CYS622 
 ASP623  PHE694  ASN695  SER759  ASP760  ASP761  ALA762  ILE779  LEU786  VAL792 
 PHE793  MET794  SER795  GLU796  ALA797  LYS798  CYS799  TRP800  GLU811  SER814 

> <Gold.Protein.RotatedAtoms>
  151.8331  133.3411  159.3619 H   0  0  0  0  0  0  0  0  0  0  0  0  # atno 6907 bound_to 6896
  150.7258  134.5463  159.5782 H   0  0  0  0  0  0  0  0  0  0  0  0  # atno 6908 bound_to 6896
  152.2921  134.7710  160.0427 H   0  0  0  0  0  0  0  0  0  0  0  0  # atno 6909 bound_to 6896
  146.0685  140.6245  142.8963 H   0  0  0  0  0  0  0  0  0  0  0  0  # atno 7974 bound_to 7965
  156.1415  140.1552  156.8913 H   0  0  0  0  0  0  0  0  0  0  0  0  # atno 8008 bound_to 7997
  154.4991  140.0830  156.7799 H   0  0  0  0  0  0  0  0  0  0  0  0  # atno 8009 bound_to 7997
  155.4069  140.3417  155.4263 H   0  0  0  0  0  0  0  0  0  0  0  0  # atno 8010 bound_to 7997
  139.6442  144.0203  152.2115 H   0  0  0  0  0  0  0  0  0  0  0  0  # atno 10167 bound_to 10162
  157.1314  130.6592  149.5953 H   0  0  0  0  0  0  0  0  0  0  0  0  # atno 10718 bound_to 10713
  154.8113  135.3282  154.7297 H   0  0  0  0  0  0  0  0  0  0  0  0  # atno 10763 bound_to 10752
  153.7946  135.6908  153.4870 H   0  0  0  0  0  0  0  0  0  0  0  0  # atno 10764 bound_to 10752
  153.1894  135.4556  155.0076 H   0  0  0  0  0  0  0  0  0  0  0  0  # atno 10765 bound_to 10752
  140.0172  134.6207  155.9692 H   0  0  0  0  0  0  0  0  0  0  0  0  # atno 11005 bound_to 11000
  144.7217  140.4395  143.7003 LP  0  0  0  0  0  0  0  0  0  0  0  0  # atno 17320 bound_to 7965
  145.6434  139.1553  143.2903 LP  0  0  0  0  0  0  0  0  0  0  0  0  # atno 17321 bound_to 7965
  139.9900  144.6368  150.7823 LP  0  0  0  0  0  0  0  0  0  0  0  0  # atno 17342 bound_to 10162
  140.7506  143.2959  151.3207 LP  0  0  0  0  0  0  0  0  0  0  0  0  # atno 17343 bound_to 10162
  155.9807  130.4809  150.6787 LP  0  0  0  0  0  0  0  0  0  0  0  0  # atno 17370 bound_to 10713
  157.4389  131.0858  151.0964 LP  0  0  0  0  0  0  0  0  0  0  0  0  # atno 17371 bound_to 10713
  141.1750  133.6540  156.4796 LP  0  0  0  0  0  0  0  0  0  0  0  0  # atno 17394 bound_to 11000
  140.4450  134.6981  157.5011 LP  0  0  0  0  0  0  0  0  0  0  0  0  # atno 17395 bound_to 11000

$$$$
