AV-unprocessed.smi:1222|AV-procd|sdf|5121|dock2
  -GOLD-   22720 4183D 1   1.00000     0.00000
 Structure written by MMmdl.
 37 39  0  0  0  0  0  0  0  0  2 V2000
  145.8737  138.7359  153.6386 O   0  0  0  0  0  0  0  0  0  0  0  0
  146.8003  138.0071  153.2829 C   0  0  0  0  0  0  0  0  0  0  0  0
  148.1027  138.2227  153.5383 N   0  0  0  0  0  0  0  0  0  0  0  0
  148.6896  139.3003  154.2525 C   0  0  0  0  0  0  0  0  0  0  0  0
  148.0312  140.4019  154.6317 N   0  0  0  0  0  0  0  0  0  0  0  0
  148.8565  141.2959  155.3185 C   0  0  0  0  0  0  0  0  0  0  0  0
  150.1497  140.8558  155.4543 C   0  0  0  0  0  0  0  0  0  0  0  0
  150.3836  139.2916  154.7204 S   0  0  0  0  0  0  0  0  0  0  0  0
  146.6218  136.8786  152.5804 N   0  0  0  0  0  0  0  0  0  0  0  0
  145.3297  136.3651  152.1343 C   0  0  2  0  0  0  0  0  0  0  0  0
  144.9389  135.0978  152.9187 C   0  0  0  0  0  0  0  0  0  0  0  0
  143.6254  134.4955  152.3847 C   0  0  0  0  0  0  0  0  0  0  0  0
  143.6861  134.2225  150.9257 N   0  3  2  0  0  0  0  0  0  0  0  0
  144.4988  133.0310  150.5857 C   0  0  0  0  0  0  0  0  0  0  0  0
  144.1637  132.4310  149.2401 C   0  0  0  0  0  0  0  0  0  0  0  0
  143.6955  131.7537  150.5086 C   0  0  0  0  0  0  0  0  0  0  0  0
  144.0574  135.4313  150.1455 C   0  0  0  0  0  0  0  0  0  0  0  0
  145.3820  136.0507  150.6302 C   0  0  0  0  0  0  0  0  0  0  0  0
  148.7513  137.5370  153.1811 H   0  0  0  0  0  0  0  0  0  0  0  0
  148.4399  142.2259  155.6766 H   0  0  0  0  0  0  0  0  0  0  0  0
  150.9751  141.3552  155.9391 H   0  0  0  0  0  0  0  0  0  0  0  0
  147.4387  136.3407  152.3303 H   0  0  0  0  0  0  0  0  0  0  0  0
  144.5686  137.1314  152.2953 H   0  0  0  0  0  0  0  0  0  0  0  0
  145.7385  134.3587  152.8563 H   0  0  0  0  0  0  0  0  0  0  0  0
  144.8240  135.3319  153.9776 H   0  0  0  0  0  0  0  0  0  0  0  0
  143.3791  133.5808  152.9252 H   0  0  0  0  0  0  0  0  0  0  0  0
  142.8061  135.1912  152.5700 H   0  0  0  0  0  0  0  0  0  0  0  0
  145.5232  133.0131  150.9527 H   0  0  0  0  0  0  0  0  0  0  0  0
  143.4113  132.9240  148.6272 H   0  0  0  0  0  0  0  0  0  0  0  0
  144.9709  131.9529  148.6890 H   0  0  0  0  0  0  0  0  0  0  0  0
  144.1940  130.8293  150.7932 H   0  0  0  0  0  0  0  0  0  0  0  0
  142.6321  131.7974  150.7373 H   0  0  0  0  0  0  0  0  0  0  0  0
  144.1172  135.1868  149.0844 H   0  0  0  0  0  0  0  0  0  0  0  0
  143.2559  136.1641  150.2460 H   0  0  0  0  0  0  0  0  0  0  0  0
  145.5861  136.9621  150.0669 H   0  0  0  0  0  0  0  0  0  0  0  0
  146.2080  135.3703  150.4182 H   0  0  0  0  0  0  0  0  0  0  0  0
  142.7441  133.9880  150.6462 H   0  0  0  0  0  0  0  0  0  0  0  0
  1  2  2  0  0  0  0
  2  3  1  0  0  0  0
  2  9  1  0  0  0  0
  3  4  1  0  0  0  0
  3 19  1  0  0  0  0
  4  8  1  0  0  0  0
  4  5  2  0  0  0  0
  5  6  1  0  0  0  0
  6  7  2  0  0  0  0
  6 20  1  0  0  0  0
  7  8  1  0  0  0  0
  7 21  1  0  0  0  0
  9 10  1  0  0  0  0
  9 22  1  0  0  0  0
 10 18  1  0  0  0  0
 10 11  1  0  0  0  0
 10 23  1  0  0  0  0
 11 12  1  0  0  0  0
 11 24  1  0  0  0  0
 11 25  1  0  0  0  0
 12 13  1  0  0  0  0
 12 26  1  0  0  0  0
 12 27  1  0  0  0  0
 13 14  1  0  0  0  0
 13 17  1  0  0  0  0
 13 37  1  0  0  0  0
 14 16  1  0  0  0  0
 14 15  1  0  0  0  0
 14 28  1  0  0  0  0
 15 16  1  0  0  0  0
 15 29  1  0  0  0  0
 15 30  1  0  0  0  0
 16 31  1  0  0  0  0
 16 32  1  0  0  0  0
 17 18  1  0  0  0  0
 17 33  1  0  0  0  0
 17 34  1  0  0  0  0
 18 35  1  0  0  0  0
 18 36  1  0  0  0  0
M  CHG  1  13   1
M  END
> <s_m_source_file>
AV-unprocessed.smi

> <i_m_source_file_index>
1222

> <i_lp_mmshare_version>
43012

> <i_f3d_flags>
0

> <s_epik_input>
czFbY0hdW2NIXW5jMVtOSF1DKD1PKVtOSF1bQ0hdMltDSDJdW0NIMl1OKFtDSDJdW0NIMl0yKVtDSF0zW0NIMl1bQ0gyXTM=

> <s_epik_cmdline>
J2VwaWtfcHl0aG9uJywgJy1waCcsICc3LjAnLCAnLXRuJywgJzgnLCAnLW1hJywgJzIwMCcsICctbWV0YWxfYmluZGluZycsICctaW1hZScsICc8aW5maWxlLm1hZT4nLCAnLW9tYWUnLCAnPG91dGZpbGUubWFlPic=

> <r_lp_tautomer_probability>
0.999

> <r_epik_Ionization_Penalty>
0.124652

> <r_epik_Ionization_Penalty_Charging>
0.124514

> <r_epik_Ionization_Penalty_Neutral>
0.000138693

> <r_epik_State_Penalty>
0.113992

> <r_epik_Charging_Adjusted_Penalty>
0.238505

> <i_epik_Tot_Q>
1

> <i_epik_Tot_abs_Q>
1

> <r_epik_Metal_State_Penalty>
0.160715

> <b_epik_Metal_Only>
0

> <s_lp_Force_Field>
OPLS_2005

> <r_lp_Energy>
26.0033

> <b_lp_Chiralities_Consistent>
1

> <s_lp_Variant>
AV-unprocessed.smi:1222-2

> <Gold.Version>
5.8.1

> <Gold.Id.Protein>
6NUR|6NUR_protein|mol2

> <Gold.PLP.Fitness>
43.2519

> <Gold.PLP.PLP>
-29.0125

> <Gold.PLP.part.hbond>
-3.1767

> <Gold.PLP.part.metal>
0.0000

> <Gold.PLP.part.buried>
1.0060

> <Gold.PLP.part.nonpolar>
-28.7392

> <Gold.PLP.part.repulsive>
1.7509

> <Gold.PLP.ligand.clash>
0.0000

> <Gold.PLP.ligand.torsion>
0.7614

> <Gold.PLP.Chemscore.Hbond>
3.8305

> <Gold.PLP.Chemscore.CHOScore>
1.0000

> <Gold.PLP.Chemscore.Metal>
0.0000

> <Gold.Chemscore.Hbonds>
donor molecule, donor type, donor heavy atom, donor atom, acceptor molecule, acceptor atom, score
      L1  H     3    19       P1  7948  0.86
      L1  H     9    22       P1  7948  1.00
      L1  H    13    37       P1 10186  1.69
      L1  C     6    20       P1  8028  1.00

> <Gold.PLP.Chemscore.Internal.Correction>
1.2706

> <Gold.Rescore>
     Score         DG    S(hbond)    S(metal)    S(lipo)     H(rot)  DE(clash)    DE(int)     intcor
     17.86     -21.09       2.77        0.00      81.98       1.26       1.12       2.12       ----

> <Gold.Chemscore.Fitness>
17.8572

> <Gold.Chemscore.DG>
-21.0902

> <Gold.Chemscore.ZeroCoef>
-5.4800

> <Gold.Chemscore.Hbond>
2.7684

> <Gold.Chemscore.Metal>
0.0000

> <Gold.Chemscore.Lipo>
81.9801

> <Gold.Chemscore.Internal_Hbond>
0.0000

> <Gold.Chemscore.DEClash>
1.1181

> <Gold.Chemscore.DEInternal>
2.1150

> <Gold.Chemscore.Rot>
1.2609

> <Gold.Chemscore.Internal.Correction>
   9.000000E+99

> <Gold.Chemscore.Hbonds>
donor molecule, donor type, donor heavy atom, donor atom, acceptor molecule, acceptor atom, score
      L1  H     3    19       P1  7948  0.85
      L1  H     9    22       P1  7948  0.94
      L1  H    13    37       P1 10186  0.64

> <Gold.Chemscore.Hbond.Weighted>
-9.2464

> <Gold.Chemscore.Metal.Weighted>
-0.0000

> <Gold.Chemscore.Lipo.Weighted>
-9.5917

> <Gold.Chemscore.Internal_Hbond.Weighted>
0.0000

> <Gold.Chemscore.DEClash.Weighted>
1.1181

> <Gold.Chemscore.DEInternal.Weighted>
2.1150

> <Gold.Chemscore.Rot.Weighted>
3.2279

> <Gold.Chemscore.Internal.Correction.Weighted>
   9.000000E+99

> <Gold.Protein.RotatedTorsions>
[ 6907 6896 6895 6894 ] final   83.71 input  -60.11 | X-H torsion
[ 7974 7965 7964 7962 ] final  -30.67 input  175.53 | X-H torsion
[ 8008 7997 7996 7995 ] final  156.12 input   59.86 | X-H torsion
[ 10167 10162 10161 10158 ] final  -15.56 input  -65.29 | X-H torsion
[ 10718 10713 10712 10709 ] final  164.09 input   66.30 | X-H torsion
[ 10763 10752 10751 10750 ] final  -24.22 input  -60.55 | X-H torsion
[ 11005 11000 10999 10996 ] final  -25.80 input  -57.11 | X-H torsion

> <Gold.Protein.ActiveResidues>
 VAL166  LYS551  ARG553  GLY616  TRP617  ASP618  TYR619  PRO620  LYS621  CYS622 
 ASP623  PHE694  ASN695  SER759  ASP760  ASP761  ALA762  ILE779  LEU786  VAL792 
 PHE793  MET794  SER795  GLU796  ALA797  LYS798  CYS799  TRP800  GLU811  SER814 

> <Gold.Protein.RotatedAtoms>
  152.5334  134.2853  159.9022 H   0  0  0  0  0  0  0  0  0  0  0  0  # atno 6907 bound_to 6896
  151.2806  133.4205  159.2634 H   0  0  0  0  0  0  0  0  0  0  0  0  # atno 6908 bound_to 6896
  151.0287  134.9538  159.8156 H   0  0  0  0  0  0  0  0  0  0  0  0  # atno 6909 bound_to 6896
  146.1126  140.5569  142.8771 H   0  0  0  0  0  0  0  0  0  0  0  0  # atno 7974 bound_to 7965
  156.2440  140.1921  156.6906 H   0  0  0  0  0  0  0  0  0  0  0  0  # atno 8008 bound_to 7997
  154.6254  140.0603  156.9693 H   0  0  0  0  0  0  0  0  0  0  0  0  # atno 8009 bound_to 7997
  155.1794  140.3275  155.4380 H   0  0  0  0  0  0  0  0  0  0  0  0  # atno 8010 bound_to 7997
  140.7220  143.5205  150.9639 H   0  0  0  0  0  0  0  0  0  0  0  0  # atno 10167 bound_to 10162
  157.0992  131.0438  151.2505 H   0  0  0  0  0  0  0  0  0  0  0  0  # atno 10718 bound_to 10713
  153.6803  135.6967  153.5120 H   0  0  0  0  0  0  0  0  0  0  0  0  # atno 10763 bound_to 10752
  153.2490  135.4281  155.0777 H   0  0  0  0  0  0  0  0  0  0  0  0  # atno 10764 bound_to 10752
  154.8402  135.3526  154.6346 H   0  0  0  0  0  0  0  0  0  0  0  0  # atno 10765 bound_to 10752
  140.8970  133.7549  156.0495 H   0  0  0  0  0  0  0  0  0  0  0  0  # atno 11005 bound_to 11000
  144.7524  140.5225  143.6792 LP  0  0  0  0  0  0  0  0  0  0  0  0  # atno 17320 bound_to 7965
  145.5633  139.1480  143.3329 LP  0  0  0  0  0  0  0  0  0  0  0  0  # atno 17321 bound_to 7965
  139.8922  143.6938  152.3143 LP  0  0  0  0  0  0  0  0  0  0  0  0  # atno 17342 bound_to 10162
  139.7258  144.7593  151.0881 LP  0  0  0  0  0  0  0  0  0  0  0  0  # atno 17343 bound_to 10162
  157.4655  130.7678  149.7275 LP  0  0  0  0  0  0  0  0  0  0  0  0  # atno 17370 bound_to 10713
  155.9878  130.3964  150.3149 LP  0  0  0  0  0  0  0  0  0  0  0  0  # atno 17371 bound_to 10713
  140.8276  134.3216  157.5360 LP  0  0  0  0  0  0  0  0  0  0  0  0  # atno 17394 bound_to 11000
  139.8737  134.9345  156.3609 LP  0  0  0  0  0  0  0  0  0  0  0  0  # atno 17395 bound_to 11000

$$$$
