AV-unprocessed.smi:524|AV-procd|sdf|2806|dock2
  -GOLD-   2262023283D 1   1.00000     0.00000
 Structure written by MMmdl.
 42 44  0  0  0  0  0  0  0  0  2 V2000
  156.2614  138.2891  159.0649 C   0  0  0  0  0  0  0  0  0  0  0  0
  155.0319  138.9866  159.1435 O   0  0  0  0  0  0  0  0  0  0  0  0
  154.4648  138.9502  160.4430 C   0  0  0  0  0  0  0  0  0  0  0  0
  153.0513  139.5466  160.4032 C   0  0  0  0  0  0  0  0  0  0  0  0
  152.5672  139.7167  159.0336 N   0  0  0  0  0  0  0  0  0  0  0  0
  152.2653  140.8680  158.3694 C   0  0  0  0  0  0  0  0  0  0  0  0
  152.4255  142.1351  158.9362 N   0  0  0  0  0  0  0  0  0  0  0  0
  151.8794  143.3552  158.3419 C   0  0  0  0  0  0  0  0  0  0  0  0
  151.1278  144.2060  159.3818 C   0  0  0  0  0  0  0  0  0  0  0  0
  152.0452  144.5651  160.5586 C   0  0  0  0  0  0  0  0  0  0  0  0
  152.7000  143.2945  161.1169 C   0  0  0  0  0  0  0  0  0  0  0  0
  153.3780  142.4995  159.9863 C   0  0  0  0  0  0  0  0  0  0  0  0
  151.7663  140.6857  157.1447 N   0  0  0  0  0  0  0  0  0  0  0  0
  151.7747  139.3075  157.0031 C   0  0  0  0  0  0  0  0  0  0  0  0
  152.2425  138.7012  158.1266 C   0  0  0  0  0  0  0  0  0  0  0  0
  152.3327  137.2324  158.2894 C   0  0  0  0  0  0  0  0  0  0  0  0
  152.7363  136.7315  159.3370 O   0  0  0  0  0  0  0  0  0  0  0  0
  151.9193  136.5607  157.1683 N   0  5  0  0  0  0  0  0  0  0  0  0
  151.4478  137.1350  156.0076 C   0  0  0  0  0  0  0  0  0  0  0  0
  151.0932  136.4553  155.0435 O   0  0  0  0  0  0  0  0  0  0  0  0
  151.3637  138.4988  155.9084 N   0  0  0  0  0  0  0  0  0  0  0  0
  150.8564  139.1368  154.6903 C   0  0  0  0  0  0  0  0  0  0  0  0
  156.6549  138.3561  158.0507 H   0  0  0  0  0  0  0  0  0  0  0  0
  156.1311  137.2335  159.3067 H   0  0  0  0  0  0  0  0  0  0  0  0
  157.0015  138.7165  159.7423 H   0  0  0  0  0  0  0  0  0  0  0  0
  154.4195  137.9205  160.8007 H   0  0  0  0  0  0  0  0  0  0  0  0
  155.0904  139.5103  161.1397 H   0  0  0  0  0  0  0  0  0  0  0  0
  152.3785  138.9145  160.9717 H   0  0  0  0  0  0  0  0  0  0  0  0
  153.0248  140.5066  160.9163 H   0  0  0  0  0  0  0  0  0  0  0  0
  152.6892  143.9316  157.8928 H   0  0  0  0  0  0  0  0  0  0  0  0
  151.1987  143.0930  157.5312 H   0  0  0  0  0  0  0  0  0  0  0  0
  150.7446  145.1142  158.9159 H   0  0  0  0  0  0  0  0  0  0  0  0
  150.2605  143.6551  159.7466 H   0  0  0  0  0  0  0  0  0  0  0  0
  152.8184  145.2566  160.2214 H   0  0  0  0  0  0  0  0  0  0  0  0
  151.4820  145.0787  161.3382 H   0  0  0  0  0  0  0  0  0  0  0  0
  153.4318  143.5560  161.8816 H   0  0  0  0  0  0  0  0  0  0  0  0
  151.9448  142.6785  161.6058 H   0  0  0  0  0  0  0  0  0  0  0  0
  153.8735  141.6119  160.3781 H   0  0  0  0  0  0  0  0  0  0  0  0
  154.1716  143.1013  159.5417 H   0  0  0  0  0  0  0  0  0  0  0  0
  151.4462  138.8349  153.8235 H   0  0  0  0  0  0  0  0  0  0  0  0
  150.8887  140.2249  154.7400 H   0  0  0  0  0  0  0  0  0  0  0  0
  149.8193  138.8484  154.5146 H   0  0  0  0  0  0  0  0  0  0  0  0
  1  2  1  0  0  0  0
  1 23  1  0  0  0  0
  1 24  1  0  0  0  0
  1 25  1  0  0  0  0
  2  3  1  0  0  0  0
  3  4  1  0  0  0  0
  3 26  1  0  0  0  0
  3 27  1  0  0  0  0
  4  5  1  0  0  0  0
  4 28  1  0  0  0  0
  4 29  1  0  0  0  0
  5 15  1  0  0  0  0
  5  6  1  0  0  0  0
  6  7  1  0  0  0  0
  6 13  2  0  0  0  0
  7 12  1  0  0  0  0
  7  8  1  0  0  0  0
  8  9  1  0  0  0  0
  8 30  1  0  0  0  0
  8 31  1  0  0  0  0
  9 10  1  0  0  0  0
  9 32  1  0  0  0  0
  9 33  1  0  0  0  0
 10 11  1  0  0  0  0
 10 34  1  0  0  0  0
 10 35  1  0  0  0  0
 11 12  1  0  0  0  0
 11 36  1  0  0  0  0
 11 37  1  0  0  0  0
 12 38  1  0  0  0  0
 12 39  1  0  0  0  0
 13 14  1  0  0  0  0
 14 21  1  0  0  0  0
 14 15  2  0  0  0  0
 15 16  1  0  0  0  0
 16 17  2  0  0  0  0
 16 18  1  0  0  0  0
 18 19  1  0  0  0  0
 19 20  2  0  0  0  0
 19 21  1  0  0  0  0
 21 22  1  0  0  0  0
 22 40  1  0  0  0  0
 22 41  1  0  0  0  0
 22 42  1  0  0  0  0
M  CHG  1  18  -1
M  END
> <s_m_source_file>
AV-unprocessed.smi

> <i_m_source_file_index>
524

> <i_lp_mmshare_version>
43012

> <i_f3d_flags>
0

> <s_epik_input>
W0NIM11uMWMoPU8pW25IXWMoPU8pYyhjMTIpbihbQ0gyXVtDSDJdT1tDSDNdKWMobjIpTjNbQ0gyXVtDSDJdW0NIMl1bQ0gyXVtDSDJdMw==

> <s_epik_cmdline>
J2VwaWtfcHl0aG9uJywgJy1waCcsICc3LjAnLCAnLXRuJywgJzgnLCAnLW1hJywgJzIwMCcsICctbWV0YWxfYmluZGluZycsICctaW1hZScsICc8aW5maWxlLm1hZT4nLCAnLW9tYWUnLCAnPG91dGZpbGUubWFlPic=

> <r_lp_tautomer_probability>
1

> <r_epik_Ionization_Penalty>
5.09461

> <r_epik_Ionization_Penalty_Charging>
0.078064

> <r_epik_Ionization_Penalty_Neutral>
5.01654

> <r_epik_State_Penalty>
5.01281

> <r_epik_Charging_Adjusted_Penalty>
5.09087

> <i_epik_Tot_Q>
-1

> <i_epik_Tot_abs_Q>
1

> <r_epik_Metal_State_Penalty>
1.12909

> <b_epik_Metal_Only>
1

> <s_lp_Force_Field>
OPLS_2005

> <r_lp_Energy>
41.0117

> <b_lp_Chiralities_Consistent>
1

> <s_lp_Variant>
AV-unprocessed.smi:524-2

> <Gold.Version>
5.8.1

> <Gold.Id.Protein>
6NUR|6NUR_protein|mol2

> <Gold.PLP.Fitness>
45.0836

> <Gold.PLP.PLP>
-36.8711

> <Gold.PLP.part.hbond>
-3.0000

> <Gold.PLP.part.metal>
0.0000

> <Gold.PLP.part.buried>
-4.7002

> <Gold.PLP.part.nonpolar>
-30.6657

> <Gold.PLP.part.repulsive>
0.1523

> <Gold.PLP.ligand.clash>
0.0007

> <Gold.PLP.ligand.torsion>
0.5645

> <Gold.PLP.Chemscore.Hbond>
2.9833

> <Gold.PLP.Chemscore.CHOScore>
0.0000

> <Gold.PLP.Chemscore.Metal>
0.0000

> <Gold.Chemscore.Hbonds>
donor molecule, donor type, donor heavy atom, donor atom, acceptor molecule, acceptor atom, score
      P1  H  6896  6908       L1    17  1.00
      P1  H  7997  8008       L1     2  0.80
      P1  H 10752 10764       L1    20  0.68

> <Gold.PLP.Chemscore.Internal.Correction>
0.3923

> <Gold.Rescore>
     Score         DG    S(hbond)    S(metal)    S(lipo)     H(rot)  DE(clash)    DE(int)     intcor
     16.51     -17.47       1.58        0.00      89.35       1.46       0.00       0.95       ----

> <Gold.Chemscore.Fitness>
16.5134

> <Gold.Chemscore.DG>
-17.4693

> <Gold.Chemscore.ZeroCoef>
-5.4800

> <Gold.Chemscore.Hbond>
1.5817

> <Gold.Chemscore.Metal>
0.0000

> <Gold.Chemscore.Lipo>
89.3507

> <Gold.Chemscore.Internal_Hbond>
0.0000

> <Gold.Chemscore.DEClash>
0.0025

> <Gold.Chemscore.DEInternal>
0.9533

> <Gold.Chemscore.Rot>
1.4639

> <Gold.Chemscore.Internal.Correction>
   9.000000E+99

> <Gold.Chemscore.Hbonds>
donor molecule, donor type, donor heavy atom, donor atom, acceptor molecule, acceptor atom, score
      P1  H  6896  6908       L1    17  0.95
      P1  H  7997  8008       L1     2  0.16
      P1  H 10752 10764       L1    20  0.30

> <Gold.Chemscore.Hbond.Weighted>
-5.2828

> <Gold.Chemscore.Metal.Weighted>
-0.0000

> <Gold.Chemscore.Lipo.Weighted>
-10.4540

> <Gold.Chemscore.Internal_Hbond.Weighted>
0.0000

> <Gold.Chemscore.DEClash.Weighted>
0.0025

> <Gold.Chemscore.DEInternal.Weighted>
0.9533

> <Gold.Chemscore.Rot.Weighted>
3.7475

> <Gold.Chemscore.Internal.Correction.Weighted>
   9.000000E+99

> <Gold.Protein.RotatedTorsions>
[ 6907 6896 6895 6894 ] final  -99.21 input  -60.11 | X-H torsion
[ 7974 7965 7964 7962 ] final -174.97 input  175.53 | X-H torsion
[ 8008 7997 7996 7995 ] final -121.94 input   59.86 | X-H torsion
[ 10167 10162 10161 10158 ] final   64.03 input  -65.29 | X-H torsion
[ 10718 10713 10712 10709 ] final  -27.97 input   66.30 | X-H torsion
[ 10763 10752 10751 10750 ] final  -80.15 input  -60.55 | X-H torsion
[ 11005 11000 10999 10996 ] final  104.64 input  -57.11 | X-H torsion

> <Gold.Protein.ActiveResidues>
 VAL166  LYS551  ARG553  GLY616  TRP617  ASP618  TYR619  PRO620  LYS621  CYS622 
 ASP623  PHE694  ASN695  SER759  ASP760  ASP761  ALA762  ILE779  LEU786  VAL792 
 PHE793  MET794  SER795  GLU796  ALA797  LYS798  CYS799  TRP800  GLU811  SER814 

> <Gold.Protein.RotatedAtoms>
  150.7072  134.1076  159.3988 H   0  0  0  0  0  0  0  0  0  0  0  0  # atno 6907 bound_to 6896
  151.9062  135.0355  160.0520 H   0  0  0  0  0  0  0  0  0  0  0  0  # atno 6908 bound_to 6896
  152.2373  133.5071  159.5287 H   0  0  0  0  0  0  0  0  0  0  0  0  # atno 6909 bound_to 6896
  144.7129  140.1391  143.6393 H   0  0  0  0  0  0  0  0  0  0  0  0  # atno 7974 bound_to 7965
  155.1561  140.0405  157.2832 H   0  0  0  0  0  0  0  0  0  0  0  0  # atno 8008 bound_to 7997
  154.6369  140.2537  155.7340 H   0  0  0  0  0  0  0  0  0  0  0  0  # atno 8009 bound_to 7997
  156.2513  140.2863  156.0746 H   0  0  0  0  0  0  0  0  0  0  0  0  # atno 8010 bound_to 7997
  140.1266  144.4682  150.6889 H   0  0  0  0  0  0  0  0  0  0  0  0  # atno 10167 bound_to 10162
  156.4312  130.4445  149.7116 H   0  0  0  0  0  0  0  0  0  0  0  0  # atno 10718 bound_to 10713
  154.5476  135.5671  153.6894 H   0  0  0  0  0  0  0  0  0  0  0  0  # atno 10763 bound_to 10752
  152.9980  135.6243  154.2417 H   0  0  0  0  0  0  0  0  0  0  0  0  # atno 10764 bound_to 10752
  154.2351  135.2864  155.2855 H   0  0  0  0  0  0  0  0  0  0  0  0  # atno 10765 bound_to 10752
  139.8794  134.9307  156.5392 H   0  0  0  0  0  0  0  0  0  0  0  0  # atno 11005 bound_to 11000
  145.9218  139.2550  143.1377 LP  0  0  0  0  0  0  0  0  0  0  0  0  # atno 17320 bound_to 7965
  145.9612  140.8834  143.0209 LP  0  0  0  0  0  0  0  0  0  0  0  0  # atno 17321 bound_to 7965
  140.6841  143.2341  151.5306 LP  0  0  0  0  0  0  0  0  0  0  0  0  # atno 17342 bound_to 10162
  139.5541  144.2320  152.1582 LP  0  0  0  0  0  0  0  0  0  0  0  0  # atno 17343 bound_to 10162
  156.4018  130.7678  151.2687 LP  0  0  0  0  0  0  0  0  0  0  0  0  # atno 17370 bound_to 10713
  157.7508  131.0237  150.3847 LP  0  0  0  0  0  0  0  0  0  0  0  0  # atno 17371 bound_to 10713
  140.8323  133.8269  155.8996 LP  0  0  0  0  0  0  0  0  0  0  0  0  # atno 17394 bound_to 11000
  140.9317  134.2014  157.4859 LP  0  0  0  0  0  0  0  0  0  0  0  0  # atno 17395 bound_to 11000

$$$$
