AV-unprocessed.smi:519|AV-procd|sdf|2795|dock2
  -GOLD-   2262023273D 1   1.00000     0.00000
 Structure written by MMmdl.
 36 38  0  0  0  0  0  0  0  0  1 V2000
  151.7760  136.3876  155.3871 O   0  0  0  0  0  0  0  0  0  0  0  0
  151.9164  137.7819  155.5724 C   0  0  0  0  0  0  0  0  0  0  0  0
  150.7630  138.5877  155.0455 C   0  0  0  0  0  0  0  0  0  0  0  0
  149.7691  138.0569  154.3292 N   0  0  0  0  0  0  0  0  0  0  0  0
  148.9568  139.1450  154.0786 C   0  0  0  0  0  0  0  0  0  0  0  0
  147.7423  139.2387  153.3619 C   0  0  0  0  0  0  0  0  0  0  0  0
  147.0815  140.4781  153.2368 C   0  0  0  0  0  0  0  0  0  0  0  0
  147.6230  141.6384  153.8270 C   0  0  0  0  0  0  0  0  0  0  0  0
  148.8310  141.5663  154.5466 C   0  0  0  0  0  0  0  0  0  0  0  0
  149.4883  140.3274  154.6658 C   0  0  0  0  0  0  0  0  0  0  0  0
  150.6673  139.9200  155.2826 N   0  0  0  0  0  0  0  0  0  0  0  0
  151.5922  140.7697  156.0192 C   0  0  0  0  0  0  0  0  0  0  0  0
  150.9628  141.3351  157.3010 C   0  0  0  0  0  0  0  0  0  0  0  0
  151.9923  141.7371  158.1954 O   0  0  0  0  0  0  0  0  0  0  0  0
  151.9095  142.9835  158.7802 C   0  0  0  0  0  0  0  0  0  0  0  0
  151.2879  144.1028  158.1696 C   0  0  0  0  0  0  0  0  0  0  0  0
  151.2453  145.3460  158.8300 C   0  0  0  0  0  0  0  0  0  0  0  0
  151.8224  145.4891  160.1047 C   0  0  0  0  0  0  0  0  0  0  0  0
  152.4408  144.3854  160.7199 C   0  0  0  0  0  0  0  0  0  0  0  0
  152.4827  143.1399  160.0626 C   0  0  0  0  0  0  0  0  0  0  0  0
  153.2446  141.8008  160.8441 Cl  0  0  0  0  0  0  0  0  0  0  0  0
  151.6300  135.9853  156.2293 H   0  0  0  0  0  0  0  0  0  0  0  0
  152.0287  137.9799  156.6387 H   0  0  0  0  0  0  0  0  0  0  0  0
  152.8351  138.1018  155.0807 H   0  0  0  0  0  0  0  0  0  0  0  0
  147.3196  138.3554  152.9066 H   0  0  0  0  0  0  0  0  0  0  0  0
  146.1552  140.5390  152.6847 H   0  0  0  0  0  0  0  0  0  0  0  0
  147.1122  142.5847  153.7247 H   0  0  0  0  0  0  0  0  0  0  0  0
  149.2510  142.4545  154.9948 H   0  0  0  0  0  0  0  0  0  0  0  0
  152.4778  140.1835  156.2672 H   0  0  0  0  0  0  0  0  0  0  0  0
  151.9344  141.5784  155.3738 H   0  0  0  0  0  0  0  0  0  0  0  0
  150.3312  142.1876  157.0478 H   0  0  0  0  0  0  0  0  0  0  0  0
  150.3339  140.5760  157.7684 H   0  0  0  0  0  0  0  0  0  0  0  0
  150.8355  144.0351  157.1921 H   0  0  0  0  0  0  0  0  0  0  0  0
  150.7689  146.1916  158.3560 H   0  0  0  0  0  0  0  0  0  0  0  0
  151.7905  146.4433  160.6099 H   0  0  0  0  0  0  0  0  0  0  0  0
  152.8838  144.4950  161.6988 H   0  0  0  0  0  0  0  0  0  0  0  0
  1  2  1  0  0  0  0
  1 22  1  0  0  0  0
  2  3  1  0  0  0  0
  2 23  1  0  0  0  0
  2 24  1  0  0  0  0
  3 11  1  0  0  0  0
  3  4  2  0  0  0  0
  4  5  1  0  0  0  0
  5 10  2  0  0  0  0
  5  6  1  0  0  0  0
  6  7  2  0  0  0  0
  6 25  1  0  0  0  0
  7  8  1  0  0  0  0
  7 26  1  0  0  0  0
  8  9  2  0  0  0  0
  8 27  1  0  0  0  0
  9 10  1  0  0  0  0
  9 28  1  0  0  0  0
 10 11  1  0  0  0  0
 11 12  1  0  0  0  0
 12 13  1  0  0  0  0
 12 29  1  0  0  0  0
 12 30  1  0  0  0  0
 13 14  1  0  0  0  0
 13 31  1  0  0  0  0
 13 32  1  0  0  0  0
 14 15  1  0  0  0  0
 15 20  1  0  0  0  0
 15 16  2  0  0  0  0
 16 17  1  0  0  0  0
 16 33  1  0  0  0  0
 17 18  2  0  0  0  0
 17 34  1  0  0  0  0
 18 19  1  0  0  0  0
 18 35  1  0  0  0  0
 19 20  2  0  0  0  0
 19 36  1  0  0  0  0
 20 21  1  0  0  0  0
M  END
> <s_m_source_file>
AV-unprocessed.smi

> <i_m_source_file_index>
519

> <i_lp_mmshare_version>
43012

> <i_f3d_flags>
0

> <s_epik_input>
W2NIXTFbY0hdW2NIXVtjSF1jKGMxMiluKGMobjIpW0NIMl1bT0hdKVtDSDJdW0NIMl1PYzNbY0hdW2NIXVtjSF1bY0hdYzNDbA==

> <s_epik_cmdline>
J2VwaWtfcHl0aG9uJywgJy1waCcsICc3LjAnLCAnLXRuJywgJzgnLCAnLW1hJywgJzIwMCcsICctbWV0YWxfYmluZGluZycsICctaW1hZScsICc8aW5maWxlLm1hZT4nLCAnLW9tYWUnLCAnPG91dGZpbGUubWFlPic=

> <r_lp_tautomer_probability>
1

> <r_epik_Ionization_Penalty>
0.045213

> <r_epik_Ionization_Penalty_Charging>
0

> <r_epik_Ionization_Penalty_Neutral>
0.045213

> <r_epik_State_Penalty>
0.0382996

> <r_epik_Charging_Adjusted_Penalty>
0.0382996

> <i_epik_Tot_Q>
0

> <i_epik_Tot_abs_Q>
0

> <r_epik_Metal_State_Penalty>
3.95633e-05

> <b_epik_Metal_Only>
0

> <s_lp_Force_Field>
OPLS_2005

> <r_lp_Energy>
15.9183

> <b_lp_Chiralities_Consistent>
1

> <s_lp_Variant>
AV-unprocessed.smi:519-1

> <Gold.Version>
5.8.1

> <Gold.Id.Protein>
6NUR|6NUR_protein|mol2

> <Gold.PLP.Fitness>
52.3717

> <Gold.PLP.PLP>
-51.1228

> <Gold.PLP.part.hbond>
-1.0000

> <Gold.PLP.part.metal>
0.0000

> <Gold.PLP.part.buried>
-3.6260

> <Gold.PLP.part.nonpolar>
-46.0397

> <Gold.PLP.part.repulsive>
0.2313

> <Gold.PLP.ligand.clash>
0.0000

> <Gold.PLP.ligand.torsion>
0.9002

> <Gold.PLP.Chemscore.Hbond>
1.0000

> <Gold.PLP.Chemscore.CHOScore>
0.0000

> <Gold.PLP.Chemscore.Metal>
0.0000

> <Gold.Chemscore.Hbonds>
donor molecule, donor type, donor heavy atom, donor atom, acceptor molecule, acceptor atom, score
      P1  H 10752 10764       L1     1  1.00

> <Gold.PLP.Chemscore.Internal.Correction>
0.0492

> <Gold.Rescore>
     Score         DG    S(hbond)    S(metal)    S(lipo)     H(rot)  DE(clash)    DE(int)     intcor
     18.01     -18.96       0.85        0.00     138.60       2.17       0.16       0.79       ----

> <Gold.Chemscore.Fitness>
18.0087

> <Gold.Chemscore.DG>
-18.9629

> <Gold.Chemscore.ZeroCoef>
-5.4800

> <Gold.Chemscore.Hbond>
0.8478

> <Gold.Chemscore.Metal>
0.0000

> <Gold.Chemscore.Lipo>
138.5953

> <Gold.Chemscore.Internal_Hbond>
0.0000

> <Gold.Chemscore.DEClash>
0.1593

> <Gold.Chemscore.DEInternal>
0.7950

> <Gold.Chemscore.Rot>
2.1735

> <Gold.Chemscore.Internal.Correction>
   9.000000E+99

> <Gold.Chemscore.Hbonds>
donor molecule, donor type, donor heavy atom, donor atom, acceptor molecule, acceptor atom, score
      P1  H 10752 10764       L1     1  0.77

> <Gold.Chemscore.Hbond.Weighted>
-2.8315

> <Gold.Chemscore.Metal.Weighted>
-0.0000

> <Gold.Chemscore.Lipo.Weighted>
-16.2156

> <Gold.Chemscore.Internal_Hbond.Weighted>
0.0000

> <Gold.Chemscore.DEClash.Weighted>
0.1593

> <Gold.Chemscore.DEInternal.Weighted>
0.7950

> <Gold.Chemscore.Rot.Weighted>
5.5642

> <Gold.Chemscore.Internal.Correction.Weighted>
   9.000000E+99

> <Gold.Protein.RotatedTorsions>
[ 6907 6896 6895 6894 ] final  -34.92 input  -60.11 | X-H torsion
[ 7974 7965 7964 7962 ] final  -78.95 input  175.53 | X-H torsion
[ 8008 7997 7996 7995 ] final   18.07 input   59.86 | X-H torsion
[ 10167 10162 10161 10158 ] final -177.53 input  -65.29 | X-H torsion
[ 10718 10713 10712 10709 ] final   84.42 input   66.30 | X-H torsion
[ 10763 10752 10751 10750 ] final  -64.64 input  -60.55 | X-H torsion
[ 11005 11000 10999 10996 ] final -176.76 input  -57.11 | X-H torsion

> <Gold.Protein.ActiveResidues>
 VAL166  LYS551  ARG553  GLY616  TRP617  ASP618  TYR619  PRO620  LYS621  CYS622 
 ASP623  PHE694  ASN695  SER759  ASP760  ASP761  ALA762  ILE779  LEU786  VAL792 
 PHE793  MET794  SER795  GLU796  ALA797  LYS798  CYS799  TRP800  GLU811  SER814 

> <Gold.Protein.RotatedAtoms>
  151.0464  134.9642  159.8188 H   0  0  0  0  0  0  0  0  0  0  0  0  # atno 6907 bound_to 6896
  152.5373  134.2593  159.8939 H   0  0  0  0  0  0  0  0  0  0  0  0  # atno 6908 bound_to 6896
  151.2607  133.4261  159.2650 H   0  0  0  0  0  0  0  0  0  0  0  0  # atno 6909 bound_to 6896
  145.5796  140.9451  143.1351 H   0  0  0  0  0  0  0  0  0  0  0  0  # atno 7974 bound_to 7965
  154.9007  140.3000  155.5319 H   0  0  0  0  0  0  0  0  0  0  0  0  # atno 8008 bound_to 7997
  156.3018  140.2407  156.3969 H   0  0  0  0  0  0  0  0  0  0  0  0  # atno 8009 bound_to 7997
  154.8524  140.0409  157.1602 H   0  0  0  0  0  0  0  0  0  0  0  0  # atno 8010 bound_to 7997
  139.5476  144.2195  152.1017 H   0  0  0  0  0  0  0  0  0  0  0  0  # atno 10167 bound_to 10162
  157.6898  131.0132  150.2671 H   0  0  0  0  0  0  0  0  0  0  0  0  # atno 10718 bound_to 10713
  154.3331  135.6172  153.5561 H   0  0  0  0  0  0  0  0  0  0  0  0  # atno 10763 bound_to 10752
  152.9810  135.5751  154.4939 H   0  0  0  0  0  0  0  0  0  0  0  0  # atno 10764 bound_to 10752
  154.4629  135.2856  155.1677 H   0  0  0  0  0  0  0  0  0  0  0  0  # atno 10765 bound_to 10752
  140.4485  134.6365  157.4790 H   0  0  0  0  0  0  0  0  0  0  0  0  # atno 11005 bound_to 11000
  144.7400  139.7476  143.7314 LP  0  0  0  0  0  0  0  0  0  0  0  0  # atno 17320 bound_to 7965
  146.1725  139.4882  142.9918 LP  0  0  0  0  0  0  0  0  0  0  0  0  # atno 17321 bound_to 7965
  140.1684  144.4959  150.6593 LP  0  0  0  0  0  0  0  0  0  0  0  0  # atno 17342 bound_to 10162
  140.6729  143.2293  151.5581 LP  0  0  0  0  0  0  0  0  0  0  0  0  # atno 17343 bound_to 10162
  156.3240  130.3790  149.7550 LP  0  0  0  0  0  0  0  0  0  0  0  0  # atno 17370 bound_to 10713
  156.5111  130.8172  151.3169 LP  0  0  0  0  0  0  0  0  0  0  0  0  # atno 17371 bound_to 10713
  140.0022  134.6818  155.9512 LP  0  0  0  0  0  0  0  0  0  0  0  0  # atno 17394 bound_to 11000
  141.1674  133.6537  156.4529 LP  0  0  0  0  0  0  0  0  0  0  0  0  # atno 17395 bound_to 11000

$$$$
