AV-unprocessed.smi:1974|AV-procd|sdf|7981|dock10
  -GOLD-   2272010163D 1   1.00000     0.00000
 Structure written by MMmdl.
 34 35  0  0  0  0  0  0  0  0  1 V2000
  154.1322  140.4497  160.1670 C   0  0  0  0  0  0  0  0  0  0  0  0
  152.9317  141.3977  160.0222 C   0  0  1  0  0  0  0  0  0  0  0  0
  153.2276  142.7796  160.6363 C   0  0  0  0  0  0  0  0  0  0  0  0
  152.3209  143.8050  160.1502 N   0  0  0  0  0  0  0  0  0  0  0  0
  152.5021  144.6767  159.0972 C   0  0  0  0  0  0  0  0  0  0  0  0
  151.3868  145.4611  159.0230 C   0  0  0  0  0  0  0  0  0  0  0  0
  150.5687  144.9870  160.0864 C   0  0  0  0  0  0  0  0  0  0  0  0
  151.1302  143.9954  160.7591 N   0  0  0  0  0  0  0  0  0  0  0  0
  152.5791  141.5399  158.6112 N   0  0  0  0  0  0  0  0  0  0  0  0
  151.4621  141.0709  158.0355 C   0  0  0  0  0  0  0  0  0  0  0  0
  150.5873  140.4619  158.6529 O   0  0  0  0  0  0  0  0  0  0  0  0
  151.3087  141.3576  156.5365 C   0  0  0  0  0  0  0  0  0  0  0  0
  151.0494  140.1526  155.7462 N   0  0  0  0  0  0  0  0  0  0  0  0
  149.7265  139.9496  155.1687 C   0  0  0  0  0  0  0  0  0  0  0  0
  149.8328  138.8311  154.1299 C   0  0  0  0  0  0  0  0  0  0  0  0
  151.2783  137.8347  154.5434 S   0  0  0  0  0  0  0  0  0  0  0  0
  151.9752  139.1318  155.5711 C   0  0  0  0  0  0  0  0  0  0  0  0
  153.1153  139.0664  156.0278 O   0  0  0  0  0  0  0  0  0  0  0  0
  154.4024  140.3167  161.2149 H   0  0  0  0  0  0  0  0  0  0  0  0
  155.0082  140.8350  159.6439 H   0  0  0  0  0  0  0  0  0  0  0  0
  153.9083  139.4630  159.7596 H   0  0  0  0  0  0  0  0  0  0  0  0
  152.0889  140.9625  160.5629 H   0  0  0  0  0  0  0  0  0  0  0  0
  153.1271  142.7353  161.7215 H   0  0  0  0  0  0  0  0  0  0  0  0
  154.2562  143.0823  160.4325 H   0  0  0  0  0  0  0  0  0  0  0  0
  153.4003  144.6674  158.4973 H   0  0  0  0  0  0  0  0  0  0  0  0
  151.1862  146.2532  158.3169 H   0  0  0  0  0  0  0  0  0  0  0  0
  149.5902  145.3316  160.3874 H   0  0  0  0  0  0  0  0  0  0  0  0
  153.2351  142.0411  158.0296 H   0  0  0  0  0  0  0  0  0  0  0  0
  150.4952  142.0719  156.4052 H   0  0  0  0  0  0  0  0  0  0  0  0
  152.2096  141.8457  156.1601 H   0  0  0  0  0  0  0  0  0  0  0  0
  149.0436  139.6592  155.9681 H   0  0  0  0  0  0  0  0  0  0  0  0
  149.3395  140.8651  154.7197 H   0  0  0  0  0  0  0  0  0  0  0  0
  148.9311  138.2200  154.0879 H   0  0  0  0  0  0  0  0  0  0  0  0
  149.9922  139.2578  153.1392 H   0  0  0  0  0  0  0  0  0  0  0  0
  1  2  1  0  0  0  0
  1 19  1  0  0  0  0
  1 20  1  0  0  0  0
  1 21  1  0  0  0  0
  2  3  1  0  0  0  0
  2  9  1  0  0  0  0
  2 22  1  0  0  0  0
  3  4  1  0  0  0  0
  3 23  1  0  0  0  0
  3 24  1  0  0  0  0
  4  8  1  0  0  0  0
  4  5  1  0  0  0  0
  5  6  2  0  0  0  0
  5 25  1  0  0  0  0
  6  7  1  0  0  0  0
  6 26  1  0  0  0  0
  7  8  2  0  0  0  0
  7 27  1  0  0  0  0
  9 10  1  0  0  0  0
  9 28  1  0  0  0  0
 10 11  2  0  0  0  0
 10 12  1  0  0  0  0
 12 13  1  0  0  0  0
 12 29  1  0  0  0  0
 12 30  1  0  0  0  0
 13 17  1  0  0  0  0
 13 14  1  0  0  0  0
 14 15  1  0  0  0  0
 14 31  1  0  0  0  0
 14 32  1  0  0  0  0
 15 16  1  0  0  0  0
 15 33  1  0  0  0  0
 15 34  1  0  0  0  0
 16 17  1  0  0  0  0
 17 18  2  0  0  0  0
M  END
> <s_m_source_file>
AV-unprocessed.smi

> <i_m_source_file_index>
1974

> <i_lp_mmshare_version>
43012

> <i_f3d_flags>
0

> <s_epik_input>
bjFbY0hdW2NIXVtjSF1uMVtDSDJdW0NAQEhdKFtDSDNdKVtOSF1DKD1PKVtDSDJdTjJbQ0gyXVtDSDJdU0MyPU8=

> <s_epik_cmdline>
J2VwaWtfcHl0aG9uJywgJy1waCcsICc3LjAnLCAnLXRuJywgJzgnLCAnLW1hJywgJzIwMCcsICctbWV0YWxfYmluZGluZycsICctaW1hZScsICc8aW5maWxlLm1hZT4nLCAnLW9tYWUnLCAnPG91dGZpbGUubWFlPic=

> <r_lp_tautomer_probability>
1

> <r_epik_Ionization_Penalty>
0.000283364

> <r_epik_Ionization_Penalty_Charging>
0

> <r_epik_Ionization_Penalty_Neutral>
0.000283364

> <r_epik_State_Penalty>
-0

> <r_epik_Charging_Adjusted_Penalty>
0

> <i_epik_Tot_Q>
0

> <i_epik_Tot_abs_Q>
0

> <r_epik_Metal_State_Penalty>
-0

> <b_epik_Metal_Only>
0

> <s_lp_Force_Field>
OPLS_2005

> <r_lp_Energy>
3.37474

> <b_lp_Chiralities_Consistent>
1

> <s_lp_Variant>
AV-unprocessed.smi:1974-2

> <Gold.Version>
5.8.1

> <Gold.Id.Protein>
6NUR|6NUR_protein|mol2

> <Gold.PLP.Fitness>
46.7499

> <Gold.PLP.PLP>
-45.1577

> <Gold.PLP.part.hbond>
-1.7514

> <Gold.PLP.part.metal>
0.0000

> <Gold.PLP.part.buried>
-5.4444

> <Gold.PLP.part.nonpolar>
-38.8270

> <Gold.PLP.part.repulsive>
0.2266

> <Gold.PLP.ligand.clash>
0.0000

> <Gold.PLP.ligand.torsion>
0.7136

> <Gold.PLP.Chemscore.Hbond>
0.9920

> <Gold.PLP.Chemscore.CHOScore>
0.0000

> <Gold.PLP.Chemscore.Metal>
0.0000

> <Gold.Chemscore.Hbonds>
donor molecule, donor type, donor heavy atom, donor atom, acceptor molecule, acceptor atom, score
      P1  H  7997  8008       L1    18  0.93

> <Gold.PLP.Chemscore.Internal.Correction>
0.0435

> <Gold.Rescore>
     Score         DG    S(hbond)    S(metal)    S(lipo)     H(rot)  DE(clash)    DE(int)     intcor
     13.64     -14.35       1.00        0.00      91.95       2.04       0.08       0.63       ----

> <Gold.Chemscore.Fitness>
13.6390

> <Gold.Chemscore.DG>
-14.3499

> <Gold.Chemscore.ZeroCoef>
-5.4800

> <Gold.Chemscore.Hbond>
0.9987

> <Gold.Chemscore.Metal>
0.0000

> <Gold.Chemscore.Lipo>
91.9489

> <Gold.Chemscore.Internal_Hbond>
0.0000

> <Gold.Chemscore.DEClash>
0.0762

> <Gold.Chemscore.DEInternal>
0.6348

> <Gold.Chemscore.Rot>
2.0405

> <Gold.Chemscore.Internal.Correction>
   9.000000E+99

> <Gold.Chemscore.Hbonds>
donor molecule, donor type, donor heavy atom, donor atom, acceptor molecule, acceptor atom, score
      P1  H  7997  8008       L1    18  0.90

> <Gold.Chemscore.Hbond.Weighted>
-3.3357

> <Gold.Chemscore.Metal.Weighted>
-0.0000

> <Gold.Chemscore.Lipo.Weighted>
-10.7580

> <Gold.Chemscore.Internal_Hbond.Weighted>
0.0000

> <Gold.Chemscore.DEClash.Weighted>
0.0762

> <Gold.Chemscore.DEInternal.Weighted>
0.6348

> <Gold.Chemscore.Rot.Weighted>
5.2237

> <Gold.Chemscore.Internal.Correction.Weighted>
   9.000000E+99

> <Gold.Protein.RotatedTorsions>
[ 6907 6896 6895 6894 ] final  170.91 input  -60.11 | X-H torsion
[ 7974 7965 7964 7962 ] final  -21.52 input  175.53 | X-H torsion
[ 8008 7997 7996 7995 ] final  -19.32 input   59.86 | X-H torsion
[ 10167 10162 10161 10158 ] final  106.34 input  -65.29 | X-H torsion
[ 10718 10713 10712 10709 ] final   62.03 input   66.30 | X-H torsion
[ 10763 10752 10751 10750 ] final  -18.63 input  -60.55 | X-H torsion
[ 11005 11000 10999 10996 ] final  134.46 input  -57.11 | X-H torsion

> <Gold.Protein.ActiveResidues>
 VAL166  LYS551  ARG553  GLY616  TRP617  ASP618  TYR619  PRO620  LYS621  CYS622 
 ASP623  PHE694  ASN695  SER759  ASP760  ASP761  ALA762  ILE779  LEU786  VAL792 
 PHE793  MET794  SER795  GLU796  ALA797  LYS798  CYS799  TRP800  GLU811  SER814 

> <Gold.Protein.RotatedAtoms>
  151.8086  133.3379  159.3548 H   0  0  0  0  0  0  0  0  0  0  0  0  # atno 6907 bound_to 6896
  150.7334  134.5685  159.5888 H   0  0  0  0  0  0  0  0  0  0  0  0  # atno 6908 bound_to 6896
  152.3091  134.7520  160.0392 H   0  0  0  0  0  0  0  0  0  0  0  0  # atno 6909 bound_to 6896
  146.1728  140.4352  142.8525 H   0  0  0  0  0  0  0  0  0  0  0  0  # atno 7974 bound_to 7965
  154.4845  140.2092  155.9687 H   0  0  0  0  0  0  0  0  0  0  0  0  # atno 8008 bound_to 7997
  156.1215  140.3212  155.8184 H   0  0  0  0  0  0  0  0  0  0  0  0  # atno 8009 bound_to 7997
  155.4459  140.0513  157.2996 H   0  0  0  0  0  0  0  0  0  0  0  0  # atno 8010 bound_to 7997
  139.7017  144.7093  151.1174 H   0  0  0  0  0  0  0  0  0  0  0  0  # atno 10167 bound_to 10162
  157.5871  130.9027  149.9536 H   0  0  0  0  0  0  0  0  0  0  0  0  # atno 10718 bound_to 10713
  153.5923  135.7002  153.5418 H   0  0  0  0  0  0  0  0  0  0  0  0  # atno 10763 bound_to 10752
  153.3167  135.4085  155.1382 H   0  0  0  0  0  0  0  0  0  0  0  0  # atno 10764 bound_to 10752
  154.8598  135.3685  154.5455 H   0  0  0  0  0  0  0  0  0  0  0  0  # atno 10765 bound_to 10752
  139.9916  134.9513  156.9869 H   0  0  0  0  0  0  0  0  0  0  0  0  # atno 11005 bound_to 11000
  144.8189  140.6517  143.6366 LP  0  0  0  0  0  0  0  0  0  0  0  0  # atno 17320 bound_to 7965
  145.4293  139.1551  143.4031 LP  0  0  0  0  0  0  0  0  0  0  0  0  # atno 17321 bound_to 7965
  140.7711  143.5414  150.9308 LP  0  0  0  0  0  0  0  0  0  0  0  0  # atno 17342 bound_to 10162
  139.9096  143.6736  152.3117 LP  0  0  0  0  0  0  0  0  0  0  0  0  # atno 17343 bound_to 10162
  156.0921  130.3662  150.0375 LP  0  0  0  0  0  0  0  0  0  0  0  0  # atno 17370 bound_to 10713
  156.8504  130.9457  151.3626 LP  0  0  0  0  0  0  0  0  0  0  0  0  # atno 17371 bound_to 10713
  140.4897  134.1205  155.7230 LP  0  0  0  0  0  0  0  0  0  0  0  0  # atno 17394 bound_to 11000
  141.1570  133.8863  157.1949 LP  0  0  0  0  0  0  0  0  0  0  0  0  # atno 17395 bound_to 11000

$$$$
