AV-unprocessed.smi:1269|AV-procd|sdf|5330|dock6
  -GOLD-   22720 4463D 1   1.00000     0.00000
 Structure written by MMmdl.
 44 45  0  0  0  0  0  0  0  0  2 V2000
  136.5727  136.8971  155.4443 C   0  0  0  0  0  0  0  0  0  0  0  0
  136.9728  137.9376  154.5593 O   0  0  0  0  0  0  0  0  0  0  0  0
  138.3004  138.0096  154.1906 C   0  0  0  0  0  0  0  0  0  0  0  0
  139.1256  136.8910  154.4200 C   0  0  0  0  0  0  0  0  0  0  0  0
  140.4824  136.9563  154.0504 C   0  0  0  0  0  0  0  0  0  0  0  0
  140.9740  138.1430  153.4539 C   0  0  0  0  0  0  0  0  0  0  0  0
  142.3206  138.3521  153.0445 N   0  0  0  0  0  0  0  0  0  0  0  0
  143.3190  137.4622  152.9121 C   0  0  0  0  0  0  0  0  0  0  0  0
  143.2276  136.2498  153.0978 O   0  0  0  0  0  0  0  0  0  0  0  0
  144.4605  138.0668  152.5498 N   0  0  0  0  0  0  0  0  0  0  0  0
  145.7433  137.4063  152.3008 C   0  0  1  0  0  0  0  0  0  0  0  0
  145.5067  136.1722  151.4196 C   0  0  0  0  0  0  0  0  0  0  0  0
  146.7595  138.3730  151.6492 C   0  0  0  0  0  0  0  0  0  0  0  0
  147.4500  139.2440  152.6339 N   0  3  0  0  0  0  0  0  0  0  0  0
  146.7892  140.5569  152.8302 C   0  0  0  0  0  0  0  0  0  0  0  0
  147.6145  141.4251  153.7940 C   0  0  0  0  0  0  0  0  0  0  0  0
  147.7748  140.7408  155.0310 O   0  0  0  0  0  0  0  0  0  0  0  0
  148.4714  139.5105  154.8744 C   0  0  0  0  0  0  0  0  0  0  0  0
  147.6799  138.5810  153.9384 C   0  0  0  0  0  0  0  0  0  0  0  0
  140.0654  139.2069  153.2727 C   0  0  0  0  0  0  0  0  0  0  0  0
  138.7644  139.1514  153.6263 N   0  0  0  0  0  0  0  0  0  0  0  0
  135.5028  136.9783  155.6358 H   0  0  0  0  0  0  0  0  0  0  0  0
  137.0867  136.9694  156.4039 H   0  0  0  0  0  0  0  0  0  0  0  0
  136.7571  135.9127  155.0118 H   0  0  0  0  0  0  0  0  0  0  0  0
  138.7245  135.9977  154.8758 H   0  0  0  0  0  0  0  0  0  0  0  0
  141.1073  136.0996  154.2437 H   0  0  0  0  0  0  0  0  0  0  0  0
  142.5483  139.3066  152.8062 H   0  0  0  0  0  0  0  0  0  0  0  0
  144.4385  139.0675  152.4163 H   0  0  0  0  0  0  0  0  0  0  0  0
  146.1483  137.0438  153.2466 H   0  0  0  0  0  0  0  0  0  0  0  0
  146.4378  135.6331  151.2418 H   0  0  0  0  0  0  0  0  0  0  0  0
  145.0922  136.4480  150.4492 H   0  0  0  0  0  0  0  0  0  0  0  0
  144.8120  135.4776  151.8931 H   0  0  0  0  0  0  0  0  0  0  0  0
  147.4997  137.8221  151.0670 H   0  0  0  0  0  0  0  0  0  0  0  0
  146.2203  138.9992  150.9366 H   0  0  0  0  0  0  0  0  0  0  0  0
  146.6805  141.0751  151.8779 H   0  0  0  0  0  0  0  0  0  0  0  0
  145.7847  140.4079  153.2292 H   0  0  0  0  0  0  0  0  0  0  0  0
  148.5894  141.6640  153.3656 H   0  0  0  0  0  0  0  0  0  0  0  0
  147.1060  142.3718  153.9769 H   0  0  0  0  0  0  0  0  0  0  0  0
  149.4736  139.6946  154.4834 H   0  0  0  0  0  0  0  0  0  0  0  0
  148.5917  139.0452  155.8529 H   0  0  0  0  0  0  0  0  0  0  0  0
  146.7225  138.3171  154.3904 H   0  0  0  0  0  0  0  0  0  0  0  0
  148.2343  137.6534  153.7916 H   0  0  0  0  0  0  0  0  0  0  0  0
  140.3918  140.1362  152.8291 H   0  0  0  0  0  0  0  0  0  0  0  0
  148.3653  139.4331  152.2502 H   0  0  0  0  0  0  0  0  0  0  0  0
  1  2  1  0  0  0  0
  1 22  1  0  0  0  0
  1 23  1  0  0  0  0
  1 24  1  0  0  0  0
  2  3  1  0  0  0  0
  3 21  1  0  0  0  0
  3  4  2  0  0  0  0
  4  5  1  0  0  0  0
  4 25  1  0  0  0  0
  5  6  2  0  0  0  0
  5 26  1  0  0  0  0
  6  7  1  0  0  0  0
  6 20  1  0  0  0  0
  7  8  1  0  0  0  0
  7 27  1  0  0  0  0
  8  9  2  0  0  0  0
  8 10  1  0  0  0  0
 10 11  1  0  0  0  0
 10 28  1  0  0  0  0
 11 12  1  0  0  0  0
 11 13  1  0  0  0  0
 11 29  1  0  0  0  0
 12 30  1  0  0  0  0
 12 31  1  0  0  0  0
 12 32  1  0  0  0  0
 13 14  1  0  0  0  0
 13 33  1  0  0  0  0
 13 34  1  0  0  0  0
 14 19  1  0  0  0  0
 14 15  1  0  0  0  0
 14 44  1  0  0  0  0
 15 16  1  0  0  0  0
 15 35  1  0  0  0  0
 15 36  1  0  0  0  0
 16 17  1  0  0  0  0
 16 37  1  0  0  0  0
 16 38  1  0  0  0  0
 17 18  1  0  0  0  0
 18 19  1  0  0  0  0
 18 39  1  0  0  0  0
 18 40  1  0  0  0  0
 19 41  1  0  0  0  0
 19 42  1  0  0  0  0
 20 21  2  0  0  0  0
 20 43  1  0  0  0  0
M  CHG  1  14   1
M  END
> <s_m_source_file>
AV-unprocessed.smi

> <i_m_source_file_index>
1269

> <i_lp_mmshare_version>
43012

> <i_f3d_flags>
0

> <s_epik_input>
W0NIM11PYzFbY0hdW2NIXWMoW2NIXW4xKVtOSF1DKD1PKVtOSF1bQ0BIXShbQ0gzXSlbQ0gyXU4yW0NIMl1bQ0gyXU9bQ0gyXVtDSDJdMg==

> <s_epik_cmdline>
J2VwaWtfcHl0aG9uJywgJy1waCcsICc3LjAnLCAnLXRuJywgJzgnLCAnLW1hJywgJzIwMCcsICctbWV0YWxfYmluZGluZycsICctaW1hZScsICc8aW5maWxlLm1hZT4nLCAnLW9tYWUnLCAnPG91dGZpbGUubWFlPic=

> <r_lp_tautomer_probability>
1

> <r_epik_Ionization_Penalty>
0.602604

> <r_epik_Ionization_Penalty_Charging>
0.602531

> <r_epik_Ionization_Penalty_Neutral>
7.37831e-05

> <r_epik_State_Penalty>
0.617039

> <r_epik_Charging_Adjusted_Penalty>
1.21957

> <i_epik_Tot_Q>
1

> <i_epik_Tot_abs_Q>
1

> <r_epik_Metal_State_Penalty>
0.617045

> <b_epik_Metal_Only>
0

> <s_lp_Force_Field>
OPLS_2005

> <r_lp_Energy>
25.4329

> <b_lp_Chiralities_Consistent>
1

> <s_lp_Variant>
AV-unprocessed.smi:1269-4

> <Gold.Version>
5.8.1

> <Gold.Id.Protein>
6NUR|6NUR_protein|mol2

> <Gold.PLP.Fitness>
43.9525

> <Gold.PLP.PLP>
-34.1445

> <Gold.PLP.part.hbond>
-3.8766

> <Gold.PLP.part.metal>
0.0000

> <Gold.PLP.part.buried>
-0.0559

> <Gold.PLP.part.nonpolar>
-31.6589

> <Gold.PLP.part.repulsive>
0.4186

> <Gold.PLP.ligand.clash>
0.0000

> <Gold.PLP.ligand.torsion>
0.9880

> <Gold.PLP.Chemscore.Hbond>
3.0000

> <Gold.PLP.Chemscore.CHOScore>
0.9015

> <Gold.PLP.Chemscore.Metal>
0.0000

> <Gold.Chemscore.Hbonds>
donor molecule, donor type, donor heavy atom, donor atom, acceptor molecule, acceptor atom, score
      L1  H     7    27       P1 10175  1.00
      L1  H    10    28       P1 10175  1.00
      L1  H    14    44       P1  7957  1.00
      L1  C    20    43       P1 10160  0.84

> <Gold.PLP.Chemscore.Internal.Correction>
0.0796

> <Gold.Rescore>
     Score         DG    S(hbond)    S(metal)    S(lipo)     H(rot)  DE(clash)    DE(int)     intcor
     16.08     -19.55       2.93        0.00      75.45       1.78       0.20       3.26       ----

> <Gold.Chemscore.Fitness>
16.0835

> <Gold.Chemscore.DG>
-19.5473

> <Gold.Chemscore.ZeroCoef>
-5.4800

> <Gold.Chemscore.Hbond>
2.9331

> <Gold.Chemscore.Metal>
0.0000

> <Gold.Chemscore.Lipo>
75.4512

> <Gold.Chemscore.Internal_Hbond>
0.0000

> <Gold.Chemscore.DEClash>
0.1996

> <Gold.Chemscore.DEInternal>
3.2642

> <Gold.Chemscore.Rot>
1.7801

> <Gold.Chemscore.Internal.Correction>
   9.000000E+99

> <Gold.Chemscore.Hbonds>
donor molecule, donor type, donor heavy atom, donor atom, acceptor molecule, acceptor atom, score
      L1  H     7    27       P1 10175  0.93
      L1  H    10    28       P1 10175  0.93
      L1  H    14    44       P1  7957  0.99

> <Gold.Chemscore.Hbond.Weighted>
-9.7966

> <Gold.Chemscore.Metal.Weighted>
-0.0000

> <Gold.Chemscore.Lipo.Weighted>
-8.8278

> <Gold.Chemscore.Internal_Hbond.Weighted>
0.0000

> <Gold.Chemscore.DEClash.Weighted>
0.1996

> <Gold.Chemscore.DEInternal.Weighted>
3.2642

> <Gold.Chemscore.Rot.Weighted>
4.5570

> <Gold.Chemscore.Internal.Correction.Weighted>
   9.000000E+99

> <Gold.Protein.RotatedTorsions>
[ 6907 6896 6895 6894 ] final  144.24 input  -60.11 | X-H torsion
[ 7974 7965 7964 7962 ] final -173.40 input  175.53 | X-H torsion
[ 8008 7997 7996 7995 ] final  171.40 input   59.86 | X-H torsion
[ 10167 10162 10161 10158 ] final  122.00 input  -65.29 | X-H torsion
[ 10718 10713 10712 10709 ] final   84.31 input   66.30 | X-H torsion
[ 10763 10752 10751 10750 ] final   -0.93 input  -60.55 | X-H torsion
[ 11005 11000 10999 10996 ] final   83.50 input  -57.11 | X-H torsion

> <Gold.Protein.ActiveResidues>
 VAL166  LYS551  ARG553  GLY616  TRP617  ASP618  TYR619  PRO620  LYS621  CYS622 
 ASP623  PHE694  ASN695  SER759  ASP760  ASP761  ALA762  ILE779  LEU786  VAL792 
 PHE793  MET794  SER795  GLU796  ALA797  LYS798  CYS799  TRP800  GLU811  SER814 

> <Gold.Protein.RotatedAtoms>
  152.1961  133.4807  159.5033 H   0  0  0  0  0  0  0  0  0  0  0  0  # atno 6907 bound_to 6896
  150.6960  134.1650  159.4199 H   0  0  0  0  0  0  0  0  0  0  0  0  # atno 6908 bound_to 6896
  151.9566  135.0143  160.0596 H   0  0  0  0  0  0  0  0  0  0  0  0  # atno 6909 bound_to 6896
  144.7138  140.1628  143.6374 H   0  0  0  0  0  0  0  0  0  0  0  0  # atno 7974 bound_to 7965
  156.1275  140.1513  156.9115 H   0  0  0  0  0  0  0  0  0  0  0  0  # atno 8008 bound_to 7997
  154.4882  140.0859  156.7576 H   0  0  0  0  0  0  0  0  0  0  0  0  # atno 8009 bound_to 7997
  155.4317  140.3427  155.4283 H   0  0  0  0  0  0  0  0  0  0  0  0  # atno 8010 bound_to 7997
  139.5885  144.7016  151.3349 H   0  0  0  0  0  0  0  0  0  0  0  0  # atno 10167 bound_to 10162
  157.6895  131.0127  150.2653 H   0  0  0  0  0  0  0  0  0  0  0  0  # atno 10718 bound_to 10713
  153.3383  135.6979  153.6889 H   0  0  0  0  0  0  0  0  0  0  0  0  # atno 10763 bound_to 10752
  153.5664  135.3525  155.2820 H   0  0  0  0  0  0  0  0  0  0  0  0  # atno 10764 bound_to 10752
  154.8631  135.4261  154.2589 H   0  0  0  0  0  0  0  0  0  0  0  0  # atno 10765 bound_to 10752
  139.9029  134.8149  156.2318 H   0  0  0  0  0  0  0  0  0  0  0  0  # atno 11005 bound_to 11000
  145.9015  139.2433  143.1491 LP  0  0  0  0  0  0  0  0  0  0  0  0  # atno 17320 bound_to 7965
  145.9806  140.8685  143.0116 LP  0  0  0  0  0  0  0  0  0  0  0  0  # atno 17321 bound_to 7965
  140.7152  143.7284  150.7642 LP  0  0  0  0  0  0  0  0  0  0  0  0  # atno 17342 bound_to 10162
  140.0834  143.4946  152.2518 LP  0  0  0  0  0  0  0  0  0  0  0  0  # atno 17343 bound_to 10162
  156.3225  130.3788  149.7562 LP  0  0  0  0  0  0  0  0  0  0  0  0  # atno 17370 bound_to 10713
  156.5128  130.8180  151.3175 LP  0  0  0  0  0  0  0  0  0  0  0  0  # atno 17371 bound_to 10713
  141.0341  133.6973  156.1481 LP  0  0  0  0  0  0  0  0  0  0  0  0  # atno 17394 bound_to 11000
  140.7053  134.4520  157.5584 LP  0  0  0  0  0  0  0  0  0  0  0  0  # atno 17395 bound_to 11000

$$$$
