AV-unprocessed.smi:2276|AV-procd|sdf|9175|dock9
  -GOLD-   2272012393D 1   1.00000     0.00000
 Structure written by MMmdl.
 53 54  0  0  0  0  0  0  0  0  2 V2000
  152.1956  145.6283  160.4656 C   0  0  0  0  0  0  0  0  0  0  0  0
  152.1665  144.3265  159.6924 C   0  0  0  0  0  0  0  0  0  0  0  0
  153.0032  143.2528  160.0522 C   0  0  0  0  0  0  0  0  0  0  0  0
  152.9295  142.0689  159.2924 C   0  0  0  0  0  0  0  0  0  0  0  0
  153.7973  140.8734  159.6251 C   0  0  0  0  0  0  0  0  0  0  0  0
  152.0981  141.9202  158.2389 N   0  0  0  0  0  0  0  0  0  0  0  0
  151.2874  142.9475  157.8836 C   0  0  0  0  0  0  0  0  0  0  0  0
  150.3779  142.8926  156.7942 N   0  0  0  0  0  0  0  0  0  0  0  0
  150.0336  141.8249  156.0527 C   0  0  0  0  0  0  0  0  0  0  0  0
  150.4632  140.6813  156.2059 O   0  0  0  0  0  0  0  0  0  0  0  0
  149.1535  142.1597  155.0978 N   0  0  0  0  0  0  0  0  0  0  0  0
  148.5817  141.2368  154.1209 C   0  0  0  0  0  0  0  0  0  0  0  0
  148.0634  139.9258  154.7553 C   0  0  1  0  0  0  0  0  0  0  0  0
  146.6319  140.1273  155.2808 C   0  0  0  0  0  0  0  0  0  0  0  0
  148.1355  138.7358  153.7697 C   0  0  0  0  0  0  0  0  0  0  0  0
  149.3870  137.9485  153.9072 N   0  3  0  0  0  0  0  0  0  0  0  0
  149.3473  136.9598  155.0143 C   0  0  0  0  0  0  0  0  0  0  0  0
  150.6456  136.1262  155.0430 C   0  0  0  0  0  0  0  0  0  0  0  0
  151.8397  136.9646  155.1621 N   0  0  0  0  0  0  0  0  0  0  0  0
  151.9902  137.5633  156.4838 C   0  0  0  0  0  0  0  0  0  0  0  0
  151.8692  137.9485  154.0787 C   0  0  0  0  0  0  0  0  0  0  0  0
  150.5879  138.8079  154.0375 C   0  0  0  0  0  0  0  0  0  0  0  0
  151.2989  144.1695  158.5926 C   0  0  0  0  0  0  0  0  0  0  0  0
  152.7589  145.5251  161.3936 H   0  0  0  0  0  0  0  0  0  0  0  0
  151.1826  145.9436  160.7167 H   0  0  0  0  0  0  0  0  0  0  0  0
  152.6617  146.4112  159.8672 H   0  0  0  0  0  0  0  0  0  0  0  0
  153.6822  143.3341  160.8885 H   0  0  0  0  0  0  0  0  0  0  0  0
  154.4583  141.0855  160.4657 H   0  0  0  0  0  0  0  0  0  0  0  0
  154.4138  140.6013  158.7679 H   0  0  0  0  0  0  0  0  0  0  0  0
  153.1764  140.0166  159.8880 H   0  0  0  0  0  0  0  0  0  0  0  0
  149.9408  143.7692  156.5517 H   0  0  0  0  0  0  0  0  0  0  0  0
  148.8480  143.1207  155.0488 H   0  0  0  0  0  0  0  0  0  0  0  0
  147.7771  141.7423  153.5841 H   0  0  0  0  0  0  0  0  0  0  0  0
  149.3500  141.0136  153.3798 H   0  0  0  0  0  0  0  0  0  0  0  0
  148.6937  139.7135  155.6180 H   0  0  0  0  0  0  0  0  0  0  0  0
  145.9358  140.3364  154.4679 H   0  0  0  0  0  0  0  0  0  0  0  0
  146.5852  140.9628  155.9800 H   0  0  0  0  0  0  0  0  0  0  0  0
  146.2712  139.2446  155.8092 H   0  0  0  0  0  0  0  0  0  0  0  0
  147.2741  138.0913  153.9513 H   0  0  0  0  0  0  0  0  0  0  0  0
  148.0480  139.0680  152.7346 H   0  0  0  0  0  0  0  0  0  0  0  0
  149.1879  137.4677  155.9661 H   0  0  0  0  0  0  0  0  0  0  0  0
  148.5034  136.2837  154.8828 H   0  0  0  0  0  0  0  0  0  0  0  0
  150.6189  135.4079  155.8633 H   0  0  0  0  0  0  0  0  0  0  0  0
  150.7226  135.5422  154.1248 H   0  0  0  0  0  0  0  0  0  0  0  0
  152.9268  138.1187  156.5410 H   0  0  0  0  0  0  0  0  0  0  0  0
  152.0209  136.7864  157.2484 H   0  0  0  0  0  0  0  0  0  0  0  0
  151.1781  138.2461  156.7306 H   0  0  0  0  0  0  0  0  0  0  0  0
  152.7504  138.5828  154.1834 H   0  0  0  0  0  0  0  0  0  0  0  0
  151.9820  137.4183  153.1318 H   0  0  0  0  0  0  0  0  0  0  0  0
  150.6442  139.4827  153.1825 H   0  0  0  0  0  0  0  0  0  0  0  0
  150.5044  139.4367  154.9248 H   0  0  0  0  0  0  0  0  0  0  0  0
  150.6487  144.9814  158.2995 H   0  0  0  0  0  0  0  0  0  0  0  0
  149.5020  137.4305  153.0477 H   0  0  0  0  0  0  0  0  0  0  0  0
  1  2  1  0  0  0  0
  1 24  1  0  0  0  0
  1 25  1  0  0  0  0
  1 26  1  0  0  0  0
  2 23  1  0  0  0  0
  2  3  2  0  0  0  0
  3  4  1  0  0  0  0
  3 27  1  0  0  0  0
  4  5  1  0  0  0  0
  4  6  2  0  0  0  0
  5 28  1  0  0  0  0
  5 29  1  0  0  0  0
  5 30  1  0  0  0  0
  6  7  1  0  0  0  0
  7  8  1  0  0  0  0
  7 23  2  0  0  0  0
  8  9  1  0  0  0  0
  8 31  1  0  0  0  0
  9 10  2  0  0  0  0
  9 11  1  0  0  0  0
 11 12  1  0  0  0  0
 11 32  1  0  0  0  0
 12 13  1  0  0  0  0
 12 33  1  0  0  0  0
 12 34  1  0  0  0  0
 13 14  1  0  0  0  0
 13 15  1  0  0  0  0
 13 35  1  0  0  0  0
 14 36  1  0  0  0  0
 14 37  1  0  0  0  0
 14 38  1  0  0  0  0
 15 16  1  0  0  0  0
 15 39  1  0  0  0  0
 15 40  1  0  0  0  0
 16 22  1  0  0  0  0
 16 17  1  0  0  0  0
 16 53  1  0  0  0  0
 17 18  1  0  0  0  0
 17 41  1  0  0  0  0
 17 42  1  0  0  0  0
 18 19  1  0  0  0  0
 18 43  1  0  0  0  0
 18 44  1  0  0  0  0
 19 20  1  0  0  0  0
 19 21  1  0  0  0  0
 20 45  1  0  0  0  0
 20 46  1  0  0  0  0
 20 47  1  0  0  0  0
 21 22  1  0  0  0  0
 21 48  1  0  0  0  0
 21 49  1  0  0  0  0
 22 50  1  0  0  0  0
 22 51  1  0  0  0  0
 23 52  1  0  0  0  0
M  CHG  1  16   1
M  END
> <s_m_source_file>
AV-unprocessed.smi

> <i_m_source_file_index>
2276

> <i_lp_mmshare_version>
43012

> <i_f3d_flags>
0

> <s_epik_input>
W0NIM11jMVtjSF1jKFtDSDNdKW5jKFtjSF0xKVtOSF1DKD1PKVtOSF1bQ0gyXVtDQEhdKFtDSDNdKVtDSDJdTjJbQ0gyXVtDSDJdTihbQ0gzXSlbQ0gyXVtDSDJdMg==

> <s_epik_cmdline>
J2VwaWtfcHl0aG9uJywgJy1waCcsICc3LjAnLCAnLXRuJywgJzgnLCAnLW1hJywgJzIwMCcsICctbWV0YWxfYmluZGluZycsICctaW1hZScsICc8aW5maWxlLm1hZT4nLCAnLW9tYWUnLCAnPG91dGZpbGUubWFlPic=

> <r_epik_Ionization_Penalty>
0.0485334

> <r_epik_Ionization_Penalty_Charging>
0.0462531

> <r_epik_Ionization_Penalty_Neutral>
0.00228028

> <r_epik_State_Penalty>
0.692588

> <r_epik_Charging_Adjusted_Penalty>
0.738841

> <i_epik_Tot_Q>
1

> <i_epik_Tot_abs_Q>
1

> <r_epik_Metal_State_Penalty>
0.692605

> <b_epik_Metal_Only>
0

> <s_lp_Force_Field>
OPLS_2005

> <r_lp_Energy>
21.6891

> <b_lp_Chiralities_Consistent>
1

> <s_lp_Variant>
AV-unprocessed.smi:2276-4

> <Gold.Version>
5.8.1

> <Gold.Id.Protein>
6NUR|6NUR_protein|mol2

> <Gold.PLP.Fitness>
57.9732

> <Gold.PLP.PLP>
-45.0270

> <Gold.PLP.part.hbond>
-4.0000

> <Gold.PLP.part.metal>
0.0000

> <Gold.PLP.part.buried>
-6.6763

> <Gold.PLP.part.nonpolar>
-35.7034

> <Gold.PLP.part.repulsive>
0.3716

> <Gold.PLP.ligand.clash>
0.0000

> <Gold.PLP.ligand.torsion>
1.0566

> <Gold.PLP.Chemscore.Hbond>
4.9920

> <Gold.PLP.Chemscore.CHOScore>
0.0000

> <Gold.PLP.Chemscore.Metal>
0.0000

> <Gold.Chemscore.Hbonds>
donor molecule, donor type, donor heavy atom, donor atom, acceptor molecule, acceptor atom, score
      L1  H     8    31       P1  8028  1.00
      L1  H    11    32       P1  8028  1.00
      L1  H    16    53       P1  7948  2.00
      P1  H 10752 10764       L1    19  0.66

> <Gold.PLP.Chemscore.Internal.Correction>
0.0834

> <Gold.Rescore>
     Score         DG    S(hbond)    S(metal)    S(lipo)     H(rot)  DE(clash)    DE(int)     intcor
     20.48     -25.37       3.05        0.00     118.67       1.63       0.25       4.64       ----

> <Gold.Chemscore.Fitness>
20.4798

> <Gold.Chemscore.DG>
-25.3699

> <Gold.Chemscore.ZeroCoef>
-5.4800

> <Gold.Chemscore.Hbond>
3.0461

> <Gold.Chemscore.Metal>
0.0000

> <Gold.Chemscore.Lipo>
118.6682

> <Gold.Chemscore.Internal_Hbond>
0.0000

> <Gold.Chemscore.DEClash>
0.2525

> <Gold.Chemscore.DEInternal>
4.6377

> <Gold.Chemscore.Rot>
1.6282

> <Gold.Chemscore.Internal.Correction>
   9.000000E+99

> <Gold.Chemscore.Hbonds>
donor molecule, donor type, donor heavy atom, donor atom, acceptor molecule, acceptor atom, score
      L1  H     8    31       P1  8028  0.97
      L1  H    11    32       P1  8028  0.95
      L1  H    16    53       P1  7948  0.83
      P1  H 10752 10764       L1    19  0.05

> <Gold.Chemscore.Hbond.Weighted>
-10.1739

> <Gold.Chemscore.Metal.Weighted>
-0.0000

> <Gold.Chemscore.Lipo.Weighted>
-13.8842

> <Gold.Chemscore.Internal_Hbond.Weighted>
0.0000

> <Gold.Chemscore.DEClash.Weighted>
0.2525

> <Gold.Chemscore.DEInternal.Weighted>
4.6377

> <Gold.Chemscore.Rot.Weighted>
4.1682

> <Gold.Chemscore.Internal.Correction.Weighted>
   9.000000E+99

> <Gold.Protein.RotatedTorsions>
[ 6907 6896 6895 6894 ] final -142.89 input  -60.11 | X-H torsion
[ 7974 7965 7964 7962 ] final  -95.65 input  175.53 | X-H torsion
[ 8008 7997 7996 7995 ] final   53.51 input   59.86 | X-H torsion
[ 10167 10162 10161 10158 ] final  -24.41 input  -65.29 | X-H torsion
[ 10718 10713 10712 10709 ] final  103.59 input   66.30 | X-H torsion
[ 10763 10752 10751 10750 ] final  -42.88 input  -60.55 | X-H torsion
[ 11005 11000 10999 10996 ] final  -71.45 input  -57.11 | X-H torsion

> <Gold.Protein.ActiveResidues>
 VAL166  LYS551  ARG553  GLY616  TRP617  ASP618  TYR619  PRO620  LYS621  CYS622 
 ASP623  PHE694  ASN695  SER759  ASP760  ASP761  ALA762  ILE779  LEU786  VAL792 
 PHE793  MET794  SER795  GLU796  ALA797  LYS798  CYS799  TRP800  GLU811  SER814 

> <Gold.Protein.RotatedAtoms>
  151.0931  133.5300  159.2613 H   0  0  0  0  0  0  0  0  0  0  0  0  # atno 6907 bound_to 6896
  151.2160  135.0499  159.8940 H   0  0  0  0  0  0  0  0  0  0  0  0  # atno 6908 bound_to 6896
  152.5436  134.0740  159.8260 H   0  0  0  0  0  0  0  0  0  0  0  0  # atno 6909 bound_to 6896
  145.3573  140.9486  143.2520 H   0  0  0  0  0  0  0  0  0  0  0  0  # atno 7974 bound_to 7965
  155.4695  140.3464  155.4324 H   0  0  0  0  0  0  0  0  0  0  0  0  # atno 8008 bound_to 7997
  156.1110  140.1461  156.9368 H   0  0  0  0  0  0  0  0  0  0  0  0  # atno 8009 bound_to 7997
  154.4756  140.0886  156.7232 H   0  0  0  0  0  0  0  0  0  0  0  0  # atno 8010 bound_to 7997
  140.7288  143.4356  151.0735 H   0  0  0  0  0  0  0  0  0  0  0  0  # atno 10167 bound_to 10162
  157.6767  131.0783  150.5578 H   0  0  0  0  0  0  0  0  0  0  0  0  # atno 10718 bound_to 10713
  153.9863  135.6711  153.4752 H   0  0  0  0  0  0  0  0  0  0  0  0  # atno 10763 bound_to 10752
  153.0725  135.4966  154.8332 H   0  0  0  0  0  0  0  0  0  0  0  0  # atno 10764 bound_to 10752
  154.7135  135.3102  154.9122 H   0  0  0  0  0  0  0  0  0  0  0  0  # atno 10765 bound_to 10752
  141.1592  133.6818  156.6908 H   0  0  0  0  0  0  0  0  0  0  0  0  # atno 11005 bound_to 11000
  144.8672  139.5090  143.6784 LP  0  0  0  0  0  0  0  0  0  0  0  0  # atno 17320 bound_to 7965
  146.2942  139.7229  142.9138 LP  0  0  0  0  0  0  0  0  0  0  0  0  # atno 17321 bound_to 7965
  139.8017  143.8074  152.3163 LP  0  0  0  0  0  0  0  0  0  0  0  0  # atno 17342 bound_to 10162
  139.8093  144.7342  150.9719 LP  0  0  0  0  0  0  0  0  0  0  0  0  # atno 17343 bound_to 10162
  156.5882  130.4322  149.5948 LP  0  0  0  0  0  0  0  0  0  0  0  0  # atno 17370 bound_to 10713
  156.2605  130.6960  151.1727 LP  0  0  0  0  0  0  0  0  0  0  0  0  # atno 17371 bound_to 10713
  140.3032  134.8147  157.4115 LP  0  0  0  0  0  0  0  0  0  0  0  0  # atno 17394 bound_to 11000
  140.1244  134.5177  155.8157 LP  0  0  0  0  0  0  0  0  0  0  0  0  # atno 17395 bound_to 11000

$$$$
