AV-unprocessed.smi:113|AV-procd|sdf|1104|dock2
  -GOLD-   2262018213D 1   1.00000     0.00000
 Structure written by MMmdl.
 53 56  0  0  0  0  0  0  0  0  2 V2000
  151.2972  144.4307  158.7738 C   0  0  0  0  0  0  0  0  0  0  0  0
  151.9169  143.0585  158.9302 C   0  0  0  0  0  0  0  0  0  0  0  0
  151.5910  141.9864  158.0776 C   0  0  0  0  0  0  0  0  0  0  0  0
  152.2009  140.7213  158.2659 C   0  0  0  0  0  0  0  0  0  0  0  0
  151.8659  139.5388  157.3501 C   0  0  0  0  0  0  0  0  0  0  0  0
  150.4541  139.2642  157.1211 N   0  0  0  0  0  0  0  0  0  0  0  0
  149.7474  140.1329  156.2538 C   0  0  0  0  0  0  0  0  0  0  0  0
  150.3057  141.0808  155.6972 O   0  0  0  0  0  0  0  0  0  0  0  0
  148.3318  139.8074  156.0641 C   0  0  0  0  0  0  0  0  0  0  0  0
  147.4967  140.7237  155.1834 C   0  0  0  0  0  0  0  0  0  0  0  0
  147.8053  138.7186  156.6739 C   0  0  0  0  0  0  0  0  0  0  0  0
  148.5315  137.8606  157.4823 N   0  0  0  0  0  0  0  0  0  0  0  0
  147.8812  136.6525  158.1184 C   0  0  1  0  0  0  0  0  0  0  0  0
  148.6109  135.3690  157.7183 C   0  0  0  0  0  0  0  0  0  0  0  0
  148.5543  134.5759  159.0074 C   0  0  1  0  0  0  0  0  0  0  0  0
  149.6048  133.6325  159.0637 O   0  0  0  0  0  0  0  0  0  0  0  0
  148.6921  135.6797  160.0601 C   0  0  2  0  0  0  0  0  0  0  0  0
  148.1275  135.3271  161.4448 C   0  0  0  0  0  0  0  0  0  0  0  0
  148.3454  136.3866  162.3519 O   0  0  0  0  0  0  0  0  0  0  0  0
  147.9549  136.7701  159.5100 O   0  0  0  0  0  0  0  0  0  0  0  0
  149.8915  138.1260  157.7419 C   0  0  0  0  0  0  0  0  0  0  0  0
  150.5572  137.3873  158.4712 O   0  0  0  0  0  0  0  0  0  0  0  0
  153.1390  140.5764  159.3249 C   0  0  0  0  0  0  0  0  0  0  0  0
  153.8045  139.3537  159.5828 C   0  0  0  0  0  0  0  0  0  0  0  0
  154.7236  139.2491  160.6454 C   0  0  0  0  0  0  0  0  0  0  0  0
  154.9920  140.3618  161.4639 C   0  0  0  0  0  0  0  0  0  0  0  0
  154.3421  141.5858  161.2198 C   0  0  0  0  0  0  0  0  0  0  0  0
  153.4233  141.6931  160.1569 C   0  0  0  0  0  0  0  0  0  0  0  0
  152.8068  142.8715  159.9260 N   0  3  0  0  0  0  0  0  0  0  0  0
  150.8545  144.5483  157.7841 H   0  0  0  0  0  0  0  0  0  0  0  0
  152.0489  145.2102  158.9023 H   0  0  0  0  0  0  0  0  0  0  0  0
  150.5154  144.5789  159.5188 H   0  0  0  0  0  0  0  0  0  0  0  0
  150.8750  142.1502  157.2862 H   0  0  0  0  0  0  0  0  0  0  0  0
  152.3391  139.6748  156.3766 H   0  0  0  0  0  0  0  0  0  0  0  0
  152.3096  138.6204  157.7380 H   0  0  0  0  0  0  0  0  0  0  0  0
  146.4678  140.3741  155.0937 H   0  0  0  0  0  0  0  0  0  0  0  0
  147.9178  140.7782  154.1788 H   0  0  0  0  0  0  0  0  0  0  0  0
  147.4710  141.7316  155.5994 H   0  0  0  0  0  0  0  0  0  0  0  0
  146.7565  138.5153  156.5196 H   0  0  0  0  0  0  0  0  0  0  0  0
  146.8258  136.6581  157.8435 H   0  0  0  0  0  0  0  0  0  0  0  0
  148.1224  134.8811  156.8744 H   0  0  0  0  0  0  0  0  0  0  0  0
  149.6429  135.6019  157.4488 H   0  0  0  0  0  0  0  0  0  0  0  0
  147.5896  134.0741  159.0958 H   0  0  0  0  0  0  0  0  0  0  0  0
  149.2693  132.8287  159.4309 H   0  0  0  0  0  0  0  0  0  0  0  0
  149.7340  135.9935  160.1437 H   0  0  0  0  0  0  0  0  0  0  0  0
  147.0527  135.1571  161.3768 H   0  0  0  0  0  0  0  0  0  0  0  0
  148.5751  134.4111  161.8317 H   0  0  0  0  0  0  0  0  0  0  0  0
  148.2401  136.0560  163.2313 H   0  0  0  0  0  0  0  0  0  0  0  0
  153.6262  138.4789  158.9762 H   0  0  0  0  0  0  0  0  0  0  0  0
  155.2244  138.3103  160.8329 H   0  0  0  0  0  0  0  0  0  0  0  0
  155.6973  140.2767  162.2779 H   0  0  0  0  0  0  0  0  0  0  0  0
  154.5530  142.4373  161.8508 H   0  0  0  0  0  0  0  0  0  0  0  0
  153.0264  143.6607  160.5334 H   0  0  0  0  0  0  0  0  0  0  0  0
  1  2  1  0  0  0  0
  1 30  1  0  0  0  0
  1 31  1  0  0  0  0
  1 32  1  0  0  0  0
  2 29  1  0  0  0  0
  2  3  2  0  0  0  0
  3  4  1  0  0  0  0
  3 33  1  0  0  0  0
  4  5  1  0  0  0  0
  4 23  2  0  0  0  0
  5  6  1  0  0  0  0
  5 34  1  0  0  0  0
  5 35  1  0  0  0  0
  6 21  1  0  0  0  0
  6  7  1  0  0  0  0
  7  8  2  0  0  0  0
  7  9  1  0  0  0  0
  9 10  1  0  0  0  0
  9 11  2  0  0  0  0
 10 36  1  0  0  0  0
 10 37  1  0  0  0  0
 10 38  1  0  0  0  0
 11 12  1  0  0  0  0
 11 39  1  0  0  0  0
 12 13  1  0  0  0  0
 12 21  1  0  0  0  0
 13 20  1  0  0  0  0
 13 14  1  0  0  0  0
 13 40  1  0  0  0  0
 14 15  1  0  0  0  0
 14 41  1  0  0  0  0
 14 42  1  0  0  0  0
 15 16  1  0  0  0  0
 15 17  1  0  0  0  0
 15 43  1  0  0  0  0
 16 44  1  0  0  0  0
 17 18  1  0  0  0  0
 17 20  1  0  0  0  0
 17 45  1  0  0  0  0
 18 19  1  0  0  0  0
 18 46  1  0  0  0  0
 18 47  1  0  0  0  0
 19 48  1  0  0  0  0
 21 22  2  0  0  0  0
 23 28  1  0  0  0  0
 23 24  1  0  0  0  0
 24 25  2  0  0  0  0
 24 49  1  0  0  0  0
 25 26  1  0  0  0  0
 25 50  1  0  0  0  0
 26 27  2  0  0  0  0
 26 51  1  0  0  0  0
 27 28  1  0  0  0  0
 27 52  1  0  0  0  0
 28 29  2  0  0  0  0
 29 53  1  0  0  0  0
M  CHG  1  29   1
M  END
> <s_m_source_file>
AV-unprocessed.smi

> <i_m_source_file_index>
113

> <i_lp_mmshare_version>
43012

> <i_f3d_flags>
0

> <s_epik_input>
W2NIXTFbY0hdW2NIXVtjSF1jKGMxMiluYyhbQ0gzXSlbY0hdYzJbQ0gyXW4zYyg9TyljKFtDSDNdKVtjSF1uKGMzPU8pW0NAQEhdNFtDSDJdW0NAQEhdKFtPSF0pW0NASF0oTzQpW0NIMl1bT0hd

> <s_epik_cmdline>
J2VwaWtfcHl0aG9uJywgJy1waCcsICc3LjAnLCAnLXRuJywgJzgnLCAnLW1hJywgJzIwMCcsICctbWV0YWxfYmluZGluZycsICctaW1hZScsICc8aW5maWxlLm1hZT4nLCAnLW9tYWUnLCAnPG91dGZpbGUubWFlPic=

> <r_lp_tautomer_probability>
1

> <r_epik_Ionization_Penalty>
0.705471

> <r_epik_Ionization_Penalty_Charging>
0.70547

> <r_epik_Ionization_Penalty_Neutral>
1.19947e-07

> <r_epik_State_Penalty>
0.728574

> <r_epik_Charging_Adjusted_Penalty>
1.43404

> <i_epik_Tot_Q>
1

> <i_epik_Tot_abs_Q>
1

> <r_epik_Metal_State_Penalty>
4.61665

> <b_epik_Metal_Only>
0

> <s_epik_Chemistry_Notes>
This compound contains an acetal/aminal-like group ( X-CH(R)-Y where X, Y are N, S, or O) that may be acid/base labile, releasing an aldehyde.

> <s_lp_Force_Field>
OPLS_2005

> <r_lp_Energy>
41.2196

> <b_lp_Chiralities_Consistent>
1

> <s_lp_Variant>
AV-unprocessed.smi:113-14

> <Gold.Version>
5.8.1

> <Gold.Id.Protein>
6NUR|6NUR_protein|mol2

> <Gold.PLP.Fitness>
51.8725

> <Gold.PLP.PLP>
-42.8826

> <Gold.PLP.part.hbond>
-4.6007

> <Gold.PLP.part.metal>
0.0000

> <Gold.PLP.part.buried>
-4.9211

> <Gold.PLP.part.nonpolar>
-32.4968

> <Gold.PLP.part.repulsive>
0.1084

> <Gold.PLP.ligand.clash>
0.0000

> <Gold.PLP.ligand.torsion>
0.2955

> <Gold.PLP.Chemscore.Hbond>
3.1760

> <Gold.PLP.Chemscore.CHOScore>
0.0000

> <Gold.PLP.Chemscore.Metal>
0.0000

> <Gold.Chemscore.Hbonds>
donor molecule, donor type, donor heavy atom, donor atom, acceptor molecule, acceptor atom, score
      P1  H  6896  6908       L1    16  0.10
      P1  H  6931  6943       L1    19  1.00

> <Gold.PLP.Chemscore.Internal.Correction>
0.0528

> <Gold.Rescore>
     Score         DG    S(hbond)    S(metal)    S(lipo)     H(rot)  DE(clash)    DE(int)     intcor
     17.43     -21.69       3.16        0.00     114.27       3.01       0.04       4.22       ----

> <Gold.Chemscore.Fitness>
17.4300

> <Gold.Chemscore.DG>
-21.6872

> <Gold.Chemscore.ZeroCoef>
-5.4800

> <Gold.Chemscore.Hbond>
3.1581

> <Gold.Chemscore.Metal>
0.0000

> <Gold.Chemscore.Lipo>
114.2728

> <Gold.Chemscore.Internal_Hbond>
0.0000

> <Gold.Chemscore.DEClash>
0.0414

> <Gold.Chemscore.DEInternal>
4.2158

> <Gold.Chemscore.Rot>
3.0120

> <Gold.Chemscore.Internal.Correction>
   9.000000E+99

> <Gold.Chemscore.Hbonds>
donor molecule, donor type, donor heavy atom, donor atom, acceptor molecule, acceptor atom, score
      P1  H  6896  6908       L1    16  0.11
      P1  H  6931  6943       L1    19  0.94

> <Gold.Chemscore.Hbond.Weighted>
-10.5481

> <Gold.Chemscore.Metal.Weighted>
-0.0000

> <Gold.Chemscore.Lipo.Weighted>
-13.3699

> <Gold.Chemscore.Internal_Hbond.Weighted>
0.0000

> <Gold.Chemscore.DEClash.Weighted>
0.0414

> <Gold.Chemscore.DEInternal.Weighted>
4.2158

> <Gold.Chemscore.Rot.Weighted>
7.7108

> <Gold.Chemscore.Internal.Correction.Weighted>
   9.000000E+99

> <Gold.Protein.RotatedTorsions>
[ 6907 6896 6895 6894 ] final  139.25 input  -60.11 | X-H torsion
[ 7974 7965 7964 7962 ] final  127.51 input  175.53 | X-H torsion
[ 8008 7997 7996 7995 ] final  -80.24 input   59.86 | X-H torsion
[ 10167 10162 10161 10158 ] final    4.56 input  -65.29 | X-H torsion
[ 10718 10713 10712 10709 ] final  -33.80 input   66.30 | X-H torsion
[ 10763 10752 10751 10750 ] final -117.91 input  -60.55 | X-H torsion
[ 11005 11000 10999 10996 ] final  -58.45 input  -57.11 | X-H torsion

> <Gold.Protein.ActiveResidues>
 VAL166  LYS551  ARG553  GLY616  TRP617  ASP618  TYR619  PRO620  LYS621  CYS622 
 ASP623  PHE694  ASN695  SER759  ASP760  ASP761  ALA762  ILE779  LEU786  VAL792 
 PHE793  MET794  SER795  GLU796  ALA797  LYS798  CYS799  TRP800  GLU811  SER814 

> <Gold.Protein.RotatedAtoms>
  152.2571  133.5264  159.5359 H   0  0  0  0  0  0  0  0  0  0  0  0  # atno 6907 bound_to 6896
  150.7112  134.0881  159.3931 H   0  0  0  0  0  0  0  0  0  0  0  0  # atno 6908 bound_to 6896
  151.8800  135.0457  160.0538 H   0  0  0  0  0  0  0  0  0  0  0  0  # atno 6909 bound_to 6896
  145.0498  139.3892  143.5060 H   0  0  0  0  0  0  0  0  0  0  0  0  # atno 7974 bound_to 7965
  154.5864  140.0666  156.9177 H   0  0  0  0  0  0  0  0  0  0  0  0  # atno 8008 bound_to 7997
  155.2372  140.3342  155.4278 H   0  0  0  0  0  0  0  0  0  0  0  0  # atno 8009 bound_to 7997
  156.2225  140.1805  156.7426 H   0  0  0  0  0  0  0  0  0  0  0  0  # atno 8010 bound_to 7997
  140.6528  143.7501  150.7604 H   0  0  0  0  0  0  0  0  0  0  0  0  # atno 10167 bound_to 10162
  156.3582  130.4319  149.7646 H   0  0  0  0  0  0  0  0  0  0  0  0  # atno 10718 bound_to 10713
  154.8570  135.4293  154.2054 H   0  0  0  0  0  0  0  0  0  0  0  0  # atno 10763 bound_to 10752
  153.3091  135.6974  153.7137 H   0  0  0  0  0  0  0  0  0  0  0  0  # atno 10764 bound_to 10752
  153.6237  135.3497  155.2993 H   0  0  0  0  0  0  0  0  0  0  0  0  # atno 10765 bound_to 10752
  141.1208  133.6612  156.4922 H   0  0  0  0  0  0  0  0  0  0  0  0  # atno 11005 bound_to 11000
  146.3517  140.0142  142.8664 LP  0  0  0  0  0  0  0  0  0  0  0  0  # atno 17320 bound_to 7965
  145.1541  140.9639  143.4415 LP  0  0  0  0  0  0  0  0  0  0  0  0  # atno 17321 bound_to 7965
  140.1155  143.4660  152.2344 LP  0  0  0  0  0  0  0  0  0  0  0  0  # atno 17342 bound_to 10162
  139.5746  144.7481  151.3799 LP  0  0  0  0  0  0  0  0  0  0  0  0  # atno 17343 bound_to 10162
  156.4820  130.8045  151.3059 LP  0  0  0  0  0  0  0  0  0  0  0  0  # atno 17370 bound_to 10713
  157.7470  131.0003  150.2920 LP  0  0  0  0  0  0  0  0  0  0  0  0  # atno 17371 bound_to 10713
  140.4513  134.6926  157.5041 LP  0  0  0  0  0  0  0  0  0  0  0  0  # atno 17394 bound_to 11000
  140.0163  134.6613  155.9304 LP  0  0  0  0  0  0  0  0  0  0  0  0  # atno 17395 bound_to 11000

$$$$
