AV-unprocessed.smi:2254|AV-procd|sdf|9123|dock9
  -GOLD-   2272012323D 1   1.00000     0.00000
 Structure written by MMmdl.
 41 42  0  0  0  0  0  0  0  0  1 V2000
  160.6046  144.6103  167.6328 C   0  0  0  0  0  0  0  0  0  0  0  0
  159.6381  144.1672  166.5485 C   0  0  0  0  0  0  0  0  0  0  0  0
  159.1840  142.8487  166.6461 N   0  0  0  0  0  0  0  0  0  0  0  0
  158.3683  142.3803  165.7589 C   0  0  0  0  0  0  0  0  0  0  0  0
  157.9183  143.1643  164.6848 N   0  0  0  0  0  0  0  0  0  0  0  0
  156.9975  142.5108  163.7415 C   0  0  0  0  0  0  0  0  0  0  0  0
  157.6140  141.2361  163.1194 C   0  0  2  0  0  0  0  0  0  0  0  0
  158.3970  141.6042  162.0018 O   0  0  0  0  0  0  0  0  0  0  0  0
  156.5421  140.2533  162.6249 C   0  0  0  0  0  0  0  0  0  0  0  0
  155.8808  140.8371  161.5154 O   0  0  0  0  0  0  0  0  0  0  0  0
  154.5483  140.3813  161.3532 C   0  0  0  0  0  0  0  0  0  0  0  0
  153.5990  141.5069  160.9854 C   0  0  0  0  0  0  0  0  0  0  0  0
  153.3811  142.5847  161.8716 C   0  0  0  0  0  0  0  0  0  0  0  0
  152.4861  143.6161  161.5267 C   0  0  0  0  0  0  0  0  0  0  0  0
  151.7994  143.5724  160.2979 C   0  0  0  0  0  0  0  0  0  0  0  0
  150.7018  144.8353  159.8763 Cl  0  0  0  0  0  0  0  0  0  0  0  0
  152.0068  142.4949  159.4148 C   0  0  0  0  0  0  0  0  0  0  0  0
  152.9023  141.4635  159.7594 C   0  0  0  0  0  0  0  0  0  0  0  0
  158.2935  144.4668  164.5266 C   0  0  0  0  0  0  0  0  0  0  0  0
  157.8696  145.1540  163.5951 O   0  0  0  0  0  0  0  0  0  0  0  0
  159.2286  144.9834  165.5390 C   0  0  0  0  0  0  0  0  0  0  0  0
  159.6914  146.4264  165.3805 C   0  0  0  0  0  0  0  0  0  0  0  0
  160.1867  145.4422  168.2001 H   0  0  0  0  0  0  0  0  0  0  0  0
  161.5515  144.9267  167.1946 H   0  0  0  0  0  0  0  0  0  0  0  0
  160.8152  143.8005  168.3324 H   0  0  0  0  0  0  0  0  0  0  0  0
  157.9811  141.3604  165.7911 H   0  0  0  0  0  0  0  0  0  0  0  0
  156.0856  142.2537  164.2839 H   0  0  0  0  0  0  0  0  0  0  0  0
  156.6485  143.1937  162.9637 H   0  0  0  0  0  0  0  0  0  0  0  0
  158.2573  140.7184  163.8323 H   0  0  0  0  0  0  0  0  0  0  0  0
  158.5237  140.8412  161.4588 H   0  0  0  0  0  0  0  0  0  0  0  0
  156.9909  139.2977  162.3479 H   0  0  0  0  0  0  0  0  0  0  0  0
  155.8147  140.0606  163.4154 H   0  0  0  0  0  0  0  0  0  0  0  0
  154.5165  139.6175  160.5743 H   0  0  0  0  0  0  0  0  0  0  0  0
  154.1964  139.9215  162.2778 H   0  0  0  0  0  0  0  0  0  0  0  0
  153.8980  142.6279  162.8191 H   0  0  0  0  0  0  0  0  0  0  0  0
  152.3264  144.4391  162.2077 H   0  0  0  0  0  0  0  0  0  0  0  0
  151.4789  142.4573  158.4733 H   0  0  0  0  0  0  0  0  0  0  0  0
  153.0534  140.6388  159.0782 H   0  0  0  0  0  0  0  0  0  0  0  0
  160.2344  146.5448  164.4422 H   0  0  0  0  0  0  0  0  0  0  0  0
  160.3458  146.7593  166.1843 H   0  0  0  0  0  0  0  0  0  0  0  0
  158.8321  147.0974  165.3602 H   0  0  0  0  0  0  0  0  0  0  0  0
  1  2  1  0  0  0  0
  1 23  1  0  0  0  0
  1 24  1  0  0  0  0
  1 25  1  0  0  0  0
  2 21  2  0  0  0  0
  2  3  1  0  0  0  0
  3  4  2  0  0  0  0
  4  5  1  0  0  0  0
  4 26  1  0  0  0  0
  5  6  1  0  0  0  0
  5 19  1  0  0  0  0
  6  7  1  0  0  0  0
  6 27  1  0  0  0  0
  6 28  1  0  0  0  0
  7  8  1  0  0  0  0
  7  9  1  0  0  0  0
  7 29  1  0  0  0  0
  8 30  1  0  0  0  0
  9 10  1  0  0  0  0
  9 31  1  0  0  0  0
  9 32  1  0  0  0  0
 10 11  1  0  0  0  0
 11 12  1  0  0  0  0
 11 33  1  0  0  0  0
 11 34  1  0  0  0  0
 12 18  1  0  0  0  0
 12 13  2  0  0  0  0
 13 14  1  0  0  0  0
 13 35  1  0  0  0  0
 14 15  2  0  0  0  0
 14 36  1  0  0  0  0
 15 16  1  0  0  0  0
 15 17  1  0  0  0  0
 17 18  2  0  0  0  0
 17 37  1  0  0  0  0
 18 38  1  0  0  0  0
 19 20  2  0  0  0  0
 19 21  1  0  0  0  0
 21 22  1  0  0  0  0
 22 39  1  0  0  0  0
 22 40  1  0  0  0  0
 22 41  1  0  0  0  0
M  END
> <s_m_source_file>
AV-unprocessed.smi

> <i_m_source_file_index>
2254

> <i_lp_mmshare_version>
43012

> <i_f3d_flags>
0

> <s_epik_input>
W0NIM11jMW5bY0hdbihjKD1PKWMxW0NIM10pW0NIMl1bQ0BIXShbT0hdKVtDSDJdT1tDSDJdYzJbY0hdW2NIXWMoQ2wpW2NIXVtjSF0y

> <s_epik_cmdline>
J2VwaWtfcHl0aG9uJywgJy1waCcsICc3LjAnLCAnLXRuJywgJzgnLCAnLW1hJywgJzIwMCcsICctbWV0YWxfYmluZGluZycsICctaW1hZScsICc8aW5maWxlLm1hZT4nLCAnLW9tYWUnLCAnPG91dGZpbGUubWFlPic=

> <r_lp_tautomer_probability>
1

> <r_epik_Ionization_Penalty>
5.36e-05

> <r_epik_Ionization_Penalty_Charging>
1.17753e-07

> <r_epik_Ionization_Penalty_Neutral>
5.34822e-05

> <r_epik_State_Penalty>
-0

> <r_epik_Charging_Adjusted_Penalty>
1.17753e-07

> <i_epik_Tot_Q>
0

> <i_epik_Tot_abs_Q>
0

> <r_epik_Metal_State_Penalty>
-0

> <b_epik_Metal_Only>
0

> <s_lp_Force_Field>
OPLS_2005

> <r_lp_Energy>
20.9698

> <b_lp_Chiralities_Consistent>
1

> <s_lp_Variant>
AV-unprocessed.smi:2254-1

> <Gold.Version>
5.8.1

> <Gold.Id.Protein>
6NUR|6NUR_protein|mol2

> <Gold.PLP.Fitness>
52.8322

> <Gold.PLP.PLP>
-54.2922

> <Gold.PLP.part.hbond>
-2.7442

> <Gold.PLP.part.metal>
0.0000

> <Gold.PLP.part.buried>
-6.6716

> <Gold.PLP.part.nonpolar>
-43.6659

> <Gold.PLP.part.repulsive>
0.1382

> <Gold.PLP.ligand.clash>
0.0000

> <Gold.PLP.ligand.torsion>
0.7663

> <Gold.PLP.Chemscore.Hbond>
0.0000

> <Gold.PLP.Chemscore.CHOScore>
0.0000

> <Gold.PLP.Chemscore.Metal>
0.0000

> <Gold.PLP.Chemscore.Internal.Correction>
0.0726

> <Gold.Rescore>
     Score         DG    S(hbond)    S(metal)    S(lipo)     H(rot)  DE(clash)    DE(int)     intcor
     12.09     -13.39       0.00        0.00     122.62       2.52       0.28       1.02       ----

> <Gold.Chemscore.Fitness>
12.0900

> <Gold.Chemscore.DG>
-13.3852

> <Gold.Chemscore.ZeroCoef>
-5.4800

> <Gold.Chemscore.Hbond>
0.0000

> <Gold.Chemscore.Metal>
0.0000

> <Gold.Chemscore.Lipo>
122.6202

> <Gold.Chemscore.Internal_Hbond>
0.0000

> <Gold.Chemscore.DEClash>
0.2779

> <Gold.Chemscore.DEInternal>
1.0172

> <Gold.Chemscore.Rot>
2.5162

> <Gold.Chemscore.Internal.Correction>
   9.000000E+99

> <Gold.Chemscore.Hbond.Weighted>
-0.0000

> <Gold.Chemscore.Metal.Weighted>
-0.0000

> <Gold.Chemscore.Lipo.Weighted>
-14.3466

> <Gold.Chemscore.Internal_Hbond.Weighted>
0.0000

> <Gold.Chemscore.DEClash.Weighted>
0.2779

> <Gold.Chemscore.DEInternal.Weighted>
1.0172

> <Gold.Chemscore.Rot.Weighted>
6.4414

> <Gold.Chemscore.Internal.Correction.Weighted>
   9.000000E+99

> <Gold.Protein.RotatedTorsions>
[ 6907 6896 6895 6894 ] final  109.73 input  -60.11 | X-H torsion
[ 7974 7965 7964 7962 ] final  103.93 input  175.53 | X-H torsion
[ 8008 7997 7996 7995 ] final    7.81 input   59.86 | X-H torsion
[ 10167 10162 10161 10158 ] final  155.65 input  -65.29 | X-H torsion
[ 10718 10713 10712 10709 ] final  168.54 input   66.30 | X-H torsion
[ 10763 10752 10751 10750 ] final -118.68 input  -60.55 | X-H torsion
[ 11005 11000 10999 10996 ] final  -50.39 input  -57.11 | X-H torsion

> <Gold.Protein.ActiveResidues>
 VAL166  LYS551  ARG553  GLY616  TRP617  ASP618  TYR619  PRO620  LYS621  CYS622 
 ASP623  PHE694  ASN695  SER759  ASP760  ASP761  ALA762  ILE779  LEU786  VAL792 
 PHE793  MET794  SER795  GLU796  ALA797  LYS798  CYS799  TRP800  GLU811  SER814 

> <Gold.Protein.RotatedAtoms>
  152.5053  133.8901  159.7389 H   0  0  0  0  0  0  0  0  0  0  0  0  # atno 6907 bound_to 6896
  150.9342  133.6722  159.2811 H   0  0  0  0  0  0  0  0  0  0  0  0  # atno 6908 bound_to 6896
  151.4056  135.0982  159.9622 H   0  0  0  0  0  0  0  0  0  0  0  0  # atno 6909 bound_to 6896
  145.3395  139.2466  143.3617 H   0  0  0  0  0  0  0  0  0  0  0  0  # atno 7974 bound_to 7965
  154.7587  140.2780  155.6232 H   0  0  0  0  0  0  0  0  0  0  0  0  # atno 8008 bound_to 7997
  156.2911  140.2664  156.2286 H   0  0  0  0  0  0  0  0  0  0  0  0  # atno 8009 bound_to 7997
  155.0045  140.0372  157.2364 H   0  0  0  0  0  0  0  0  0  0  0  0  # atno 8010 bound_to 7997
  139.4821  144.5080  151.8068 H   0  0  0  0  0  0  0  0  0  0  0  0  # atno 10167 bound_to 10162
  157.0356  131.0272  151.2730 H   0  0  0  0  0  0  0  0  0  0  0  0  # atno 10718 bound_to 10713
  154.8595  135.4265  154.2178 H   0  0  0  0  0  0  0  0  0  0  0  0  # atno 10763 bound_to 10752
  153.3189  135.6981  153.7054 H   0  0  0  0  0  0  0  0  0  0  0  0  # atno 10764 bound_to 10752
  153.6117  135.3518  155.2954 H   0  0  0  0  0  0  0  0  0  0  0  0  # atno 10765 bound_to 10752
  141.0813  133.6653  156.3724 H   0  0  0  0  0  0  0  0  0  0  0  0  # atno 11005 bound_to 11000
  146.3013  140.3989  142.8703 LP  0  0  0  0  0  0  0  0  0  0  0  0  # atno 17320 bound_to 7965
  144.8801  140.7389  143.5992 LP  0  0  0  0  0  0  0  0  0  0  0  0  # atno 17321 bound_to 7965
  140.4580  144.1762  150.5903 LP  0  0  0  0  0  0  0  0  0  0  0  0  # atno 17342 bound_to 10162
  140.4515  143.2485  151.9341 LP  0  0  0  0  0  0  0  0  0  0  0  0  # atno 17343 bound_to 10162
  157.5144  130.7959  149.7740 LP  0  0  0  0  0  0  0  0  0  0  0  0  # atno 17370 bound_to 10713
  156.0055  130.3858  150.2448 LP  0  0  0  0  0  0  0  0  0  0  0  0  # atno 17371 bound_to 10713
  140.5462  134.6072  157.5394 LP  0  0  0  0  0  0  0  0  0  0  0  0  # atno 17394 bound_to 11000
  139.9627  134.7425  156.0203 LP  0  0  0  0  0  0  0  0  0  0  0  0  # atno 17395 bound_to 11000

$$$$
