AV-unprocessed.smi:389|AV-procd|sdf|2476|dock6
  -GOLD-   2262022413D 1   1.00000     0.00000
 Structure written by MMmdl.
 34 34  0  0  0  0  0  0  0  0  1 V2000
  152.6340  143.0118  160.1401 C   0  0  0  0  0  0  0  0  0  0  0  0
  152.6068  143.6922  158.7633 C   0  0  0  0  0  0  0  0  0  0  0  0
  152.2737  145.1863  158.9072 C   0  0  0  0  0  0  0  0  0  0  0  0
  151.6313  142.9618  157.8125 C   0  0  0  0  0  0  0  0  0  0  0  0
  151.8545  141.4406  157.6779 C   0  0  0  0  0  0  0  0  0  0  0  0
  150.9931  140.8406  156.6648 N   0  0  0  0  0  0  0  0  0  0  0  0
  151.4022  139.9962  155.7062 C   0  0  0  0  0  0  0  0  0  0  0  0
  152.5572  139.5764  155.6239 O   0  0  0  0  0  0  0  0  0  0  0  0
  150.3389  139.5554  154.6911 C   0  0  0  0  0  0  0  0  0  0  0  0
  149.0821  140.3054  154.8306 N   0  0  0  0  0  0  0  0  0  0  0  0
  148.7507  141.2971  153.9182 C   0  0  0  0  0  0  0  0  0  0  0  0
  147.6159  142.0320  153.9959 C   0  0  0  0  0  0  0  0  0  0  0  0
  146.6620  141.8070  155.0766 C   0  0  0  0  0  0  0  0  0  0  0  0
  145.6080  142.4200  155.2313 O   0  0  0  0  0  0  0  0  0  0  0  0
  147.0315  140.8025  155.9750 N   0  0  0  0  0  0  0  0  0  0  0  0
  148.1992  140.0416  155.9015 C   0  0  0  0  0  0  0  0  0  0  0  0
  148.4308  139.1802  156.7497 O   0  0  0  0  0  0  0  0  0  0  0  0
  146.4027  140.6131  156.7420 H   0  0  0  0  0  0  0  0  0  0  0  0
  151.6550  143.0458  160.6191 H   0  0  0  0  0  0  0  0  0  0  0  0
  153.3479  143.4987  160.8054 H   0  0  0  0  0  0  0  0  0  0  0  0
  152.9282  141.9651  160.0559 H   0  0  0  0  0  0  0  0  0  0  0  0
  153.6154  143.6130  158.3566 H   0  0  0  0  0  0  0  0  0  0  0  0
  151.2620  145.3318  159.2870 H   0  0  0  0  0  0  0  0  0  0  0  0
  152.3517  145.7086  157.9540 H   0  0  0  0  0  0  0  0  0  0  0  0
  152.9607  145.6756  159.5980 H   0  0  0  0  0  0  0  0  0  0  0  0
  150.6102  143.1304  158.1574 H   0  0  0  0  0  0  0  0  0  0  0  0
  151.6823  143.4161  156.8224 H   0  0  0  0  0  0  0  0  0  0  0  0
  152.8997  141.2371  157.4400 H   0  0  0  0  0  0  0  0  0  0  0  0
  151.6616  140.9438  158.6285 H   0  0  0  0  0  0  0  0  0  0  0  0
  150.0241  141.1247  156.6641 H   0  0  0  0  0  0  0  0  0  0  0  0
  150.7538  139.6828  153.6903 H   0  0  0  0  0  0  0  0  0  0  0  0
  150.1424  138.4856  154.7899 H   0  0  0  0  0  0  0  0  0  0  0  0
  149.4291  141.5022  153.1024 H   0  0  0  0  0  0  0  0  0  0  0  0
  147.4137  142.7919  153.2550 H   0  0  0  0  0  0  0  0  0  0  0  0
  1  2  1  0  0  0  0
  1 19  1  0  0  0  0
  1 20  1  0  0  0  0
  1 21  1  0  0  0  0
  2  3  1  0  0  0  0
  2  4  1  0  0  0  0
  2 22  1  0  0  0  0
  3 23  1  0  0  0  0
  3 24  1  0  0  0  0
  3 25  1  0  0  0  0
  4  5  1  0  0  0  0
  4 26  1  0  0  0  0
  4 27  1  0  0  0  0
  5  6  1  0  0  0  0
  5 28  1  0  0  0  0
  5 29  1  0  0  0  0
  6  7  1  0  0  0  0
  6 30  1  0  0  0  0
  7  8  2  0  0  0  0
  7  9  1  0  0  0  0
  9 10  1  0  0  0  0
  9 31  1  0  0  0  0
  9 32  1  0  0  0  0
 10 16  1  0  0  0  0
 10 11  1  0  0  0  0
 11 12  2  0  0  0  0
 11 33  1  0  0  0  0
 12 13  1  0  0  0  0
 12 34  1  0  0  0  0
 13 14  2  0  0  0  0
 13 15  1  0  0  0  0
 15 18  1  0  0  0  0
 15 16  1  0  0  0  0
 16 17  2  0  0  0  0
M  END
> <s_m_source_file>
AV-unprocessed.smi

> <i_m_source_file_index>
389

> <i_lp_mmshare_version>
43012

> <i_f3d_flags>
0

> <s_epik_input>
W0NIM11bQ0hdKFtDSDNdKVtDSDJdW0NIMl1bTkhdQyg9TylbQ0gyXW4xW2NIXVtjSF1jKD1PKVtuSF1jMT1P

> <s_epik_cmdline>
J2VwaWtfcHl0aG9uJywgJy1waCcsICc3LjAnLCAnLXRuJywgJzgnLCAnLW1hJywgJzIwMCcsICctbWV0YWxfYmluZGluZycsICctaW1hZScsICc8aW5maWxlLm1hZT4nLCAnLW9tYWUnLCAnPG91dGZpbGUubWFlPic=

> <r_lp_tautomer_probability>
0.999537

> <r_epik_Ionization_Penalty>
0.00305319

> <r_epik_Ionization_Penalty_Charging>
0.00305317

> <r_epik_Ionization_Penalty_Neutral>
2.06703e-08

> <r_epik_State_Penalty>
0.00214626

> <r_epik_Charging_Adjusted_Penalty>
0.00519944

> <i_epik_Tot_Q>
0

> <i_epik_Tot_abs_Q>
0

> <r_epik_Metal_State_Penalty>
0.361976

> <b_epik_Metal_Only>
0

> <s_lp_Force_Field>
OPLS_2005

> <r_lp_Energy>
4.98151

> <b_lp_Chiralities_Consistent>
1

> <s_lp_Variant>
AV-unprocessed.smi:389-1

> <Gold.Version>
5.8.1

> <Gold.Id.Protein>
6NUR|6NUR_protein|mol2

> <Gold.PLP.Fitness>
39.8485

> <Gold.PLP.PLP>
-34.8465

> <Gold.PLP.part.hbond>
-1.0000

> <Gold.PLP.part.metal>
0.0000

> <Gold.PLP.part.buried>
-3.1002

> <Gold.PLP.part.nonpolar>
-30.1159

> <Gold.PLP.part.repulsive>
0.2361

> <Gold.PLP.ligand.clash>
0.0000

> <Gold.PLP.ligand.torsion>
0.3500

> <Gold.PLP.Chemscore.Hbond>
1.0000

> <Gold.PLP.Chemscore.CHOScore>
0.8946

> <Gold.PLP.Chemscore.Metal>
0.0000

> <Gold.Chemscore.Hbonds>
donor molecule, donor type, donor heavy atom, donor atom, acceptor molecule, acceptor atom, score
      P1  H  7997  8008       L1     8  1.00
      L1  C    11    33       P1  7957  0.86

> <Gold.PLP.Chemscore.Internal.Correction>
0.0183

> <Gold.Rescore>
     Score         DG    S(hbond)    S(metal)    S(lipo)     H(rot)  DE(clash)    DE(int)     intcor
     12.06     -12.42       1.00        0.00      79.77       2.24       0.01       0.34       ----

> <Gold.Chemscore.Fitness>
12.0604

> <Gold.Chemscore.DG>
-12.4151

> <Gold.Chemscore.ZeroCoef>
-5.4800

> <Gold.Chemscore.Hbond>
1.0000

> <Gold.Chemscore.Metal>
0.0000

> <Gold.Chemscore.Lipo>
79.7698

> <Gold.Chemscore.Internal_Hbond>
0.0000

> <Gold.Chemscore.DEClash>
0.0147

> <Gold.Chemscore.DEInternal>
0.3400

> <Gold.Chemscore.Rot>
2.2414

> <Gold.Chemscore.Internal.Correction>
   9.000000E+99

> <Gold.Chemscore.Hbonds>
donor molecule, donor type, donor heavy atom, donor atom, acceptor molecule, acceptor atom, score
      P1  H  7997  8008       L1     8  0.99

> <Gold.Chemscore.Hbond.Weighted>
-3.3400

> <Gold.Chemscore.Metal.Weighted>
-0.0000

> <Gold.Chemscore.Lipo.Weighted>
-9.3331

> <Gold.Chemscore.Internal_Hbond.Weighted>
0.0000

> <Gold.Chemscore.DEClash.Weighted>
0.0147

> <Gold.Chemscore.DEInternal.Weighted>
0.3400

> <Gold.Chemscore.Rot.Weighted>
5.7380

> <Gold.Chemscore.Internal.Correction.Weighted>
   9.000000E+99

> <Gold.Protein.RotatedTorsions>
[ 6907 6896 6895 6894 ] final   89.51 input  -60.11 | X-H torsion
[ 7974 7965 7964 7962 ] final  -92.95 input  175.53 | X-H torsion
[ 8008 7997 7996 7995 ] final  -30.09 input   59.86 | X-H torsion
[ 10167 10162 10161 10158 ] final   54.75 input  -65.29 | X-H torsion
[ 10718 10713 10712 10709 ] final  134.60 input   66.30 | X-H torsion
[ 10763 10752 10751 10750 ] final   73.99 input  -60.55 | X-H torsion
[ 11005 11000 10999 10996 ] final   28.26 input  -57.11 | X-H torsion

> <Gold.Protein.ActiveResidues>
 VAL166  LYS551  ARG553  GLY616  TRP617  ASP618  TYR619  PRO620  LYS621  CYS622 
 ASP623  PHE694  ASN695  SER759  ASP760  ASP761  ALA762  ILE779  LEU786  VAL792 
 PHE793  MET794  SER795  GLU796  ALA797  LYS798  CYS799  TRP800  GLU811  SER814 

> <Gold.Protein.RotatedAtoms>
  152.5437  134.1956  159.8691 H   0  0  0  0  0  0  0  0  0  0  0  0  # atno 6907 bound_to 6896
  151.1948  133.4639  159.2603 H   0  0  0  0  0  0  0  0  0  0  0  0  # atno 6908 bound_to 6896
  151.1047  135.0005  159.8521 H   0  0  0  0  0  0  0  0  0  0  0  0  # atno 6909 bound_to 6896
  145.3930  140.9530  143.2330 H   0  0  0  0  0  0  0  0  0  0  0  0  # atno 7974 bound_to 7965
  154.4264  140.1800  156.1352 H   0  0  0  0  0  0  0  0  0  0  0  0  # atno 8008 bound_to 7997
  156.0036  140.3357  155.6845 H   0  0  0  0  0  0  0  0  0  0  0  0  # atno 8009 bound_to 7997
  155.6209  140.0659  157.2669 H   0  0  0  0  0  0  0  0  0  0  0  0  # atno 8010 bound_to 7997
  140.2268  144.3730  150.6429 H   0  0  0  0  0  0  0  0  0  0  0  0  # atno 10167 bound_to 10162
  157.4656  131.1076  150.9866 H   0  0  0  0  0  0  0  0  0  0  0  0  # atno 10718 bound_to 10713
  153.0557  135.5042  154.7975 H   0  0  0  0  0  0  0  0  0  0  0  0  # atno 10763 bound_to 10752
  154.6803  135.2967  154.9624 H   0  0  0  0  0  0  0  0  0  0  0  0  # atno 10764 bound_to 10752
  154.0413  135.6716  153.4843 H   0  0  0  0  0  0  0  0  0  0  0  0  # atno 10765 bound_to 10752
  140.3175  134.2581  155.7723 H   0  0  0  0  0  0  0  0  0  0  0  0  # atno 11005 bound_to 11000
  144.8427  139.5446  143.6893 LP  0  0  0  0  0  0  0  0  0  0  0  0  # atno 17320 bound_to 7965
  146.2788  139.6824  142.9243 LP  0  0  0  0  0  0  0  0  0  0  0  0  # atno 17321 bound_to 7965
  140.6215  143.2177  151.6685 LP  0  0  0  0  0  0  0  0  0  0  0  0  # atno 17342 bound_to 10162
  139.5124  144.3476  152.0682 LP  0  0  0  0  0  0  0  0  0  0  0  0  # atno 17343 bound_to 10162
  157.0648  130.5840  149.5392 LP  0  0  0  0  0  0  0  0  0  0  0  0  # atno 17370 bound_to 10713
  156.0049  130.5134  150.7794 LP  0  0  0  0  0  0  0  0  0  0  0  0  # atno 17371 bound_to 10713
  141.2094  133.7749  156.9997 LP  0  0  0  0  0  0  0  0  0  0  0  0  # atno 17394 bound_to 11000
  140.0971  134.9558  157.1866 LP  0  0  0  0  0  0  0  0  0  0  0  0  # atno 17395 bound_to 11000

$$$$
