AV-unprocessed.smi:198|AV-procd|sdf|1555|dock9
  -GOLD-   2262019423D 1   1.00000     0.00000
 Structure written by MMmdl.
 59 63  0  0  0  0  0  0  0  0  2 V2000
  143.7508  132.3873  149.5666 C   0  0  0  0  0  0  0  0  0  0  0  0
  143.6660  133.5447  150.4827 N   0  3  2  0  0  0  0  0  0  0  0  0
  144.6599  134.5963  150.1567 C   0  0  0  0  0  0  0  0  0  0  0  0
  144.4431  135.8437  151.0256 C   0  0  0  0  0  0  0  0  0  0  0  0
  144.5003  135.4868  152.5266 C   0  0  2  0  0  0  0  0  0  0  0  0
  143.5157  134.3399  152.8568 C   0  0  1  0  0  0  0  0  0  0  0  0
  142.0521  134.8278  152.8787 C   0  0  0  0  0  0  0  0  0  0  0  0
  141.9034  136.0282  153.8239 C   0  0  0  0  0  0  0  0  0  0  0  0
  142.8838  137.1511  153.4518 C   0  0  0  0  0  0  0  0  0  0  0  0
  144.2587  136.6471  153.3938 N   0  0  0  0  0  0  0  0  0  0  0  0
  145.2639  137.5603  153.4434 C   0  0  0  0  0  0  0  0  0  0  0  0
  145.8640  137.9649  152.2918 N   0  0  0  0  0  0  0  0  0  0  0  0
  146.8667  138.8472  152.3256 C   0  0  0  0  0  0  0  0  0  0  0  0
  147.4211  139.4390  153.3847 N   0  0  0  0  0  0  0  0  0  0  0  0
  146.8231  139.0412  154.5439 C   0  0  0  0  0  0  0  0  0  0  0  0
  145.7438  138.1197  154.6618 C   0  0  0  0  0  0  0  0  0  0  0  0
  145.3822  137.9862  155.9973 N   0  0  0  0  0  0  0  0  0  0  0  0
  146.2020  138.7793  156.6313 C   0  0  0  0  0  0  0  0  0  0  0  0
  147.1221  139.4277  155.8390 N   0  0  0  0  0  0  0  0  0  0  0  0
  148.1057  140.3789  156.2679 C   0  0  0  0  0  0  0  0  0  0  0  0
  149.0883  141.0031  155.2703 C   0  0  0  0  0  0  0  0  0  0  0  0
  150.2080  140.9640  156.3355 C   0  0  0  0  0  0  0  0  0  0  0  0
  151.5846  140.4606  155.8621 C   0  0  0  0  0  0  0  0  0  0  0  0
  151.5170  139.2049  155.2155 O   0  0  0  0  0  0  0  0  0  0  0  0
  150.4967  142.2893  157.0715 C   0  0  0  0  0  0  0  0  0  0  0  0
  151.0655  143.2820  156.2418 O   0  0  0  0  0  0  0  0  0  0  0  0
  149.3256  139.9423  157.0885 C   0  0  0  0  0  0  0  0  0  0  0  0
  143.7281  133.1404  151.9102 C   0  0  0  0  0  0  0  0  0  0  0  0
  144.7157  131.8863  149.6570 H   0  0  0  0  0  0  0  0  0  0  0  0
  143.6257  132.7056  148.5313 H   0  0  0  0  0  0  0  0  0  0  0  0
  142.9666  131.6625  149.7879 H   0  0  0  0  0  0  0  0  0  0  0  0
  145.6686  134.2062  150.3017 H   0  0  0  0  0  0  0  0  0  0  0  0
  144.5731  134.8689  149.1041 H   0  0  0  0  0  0  0  0  0  0  0  0
  145.2050  136.5865  150.7869 H   0  0  0  0  0  0  0  0  0  0  0  0
  143.4854  136.2977  150.7711 H   0  0  0  0  0  0  0  0  0  0  0  0
  145.4993  135.1015  152.7252 H   0  0  0  0  0  0  0  0  0  0  0  0
  143.7450  133.9943  153.8663 H   0  0  0  0  0  0  0  0  0  0  0  0
  141.7262  135.1099  151.8773 H   0  0  0  0  0  0  0  0  0  0  0  0
  141.3918  134.0223  153.2017 H   0  0  0  0  0  0  0  0  0  0  0  0
  140.8797  136.4027  153.7970 H   0  0  0  0  0  0  0  0  0  0  0  0
  142.0898  135.7092  154.8503 H   0  0  0  0  0  0  0  0  0  0  0  0
  142.6096  137.5863  152.4904 H   0  0  0  0  0  0  0  0  0  0  0  0
  142.8097  137.9474  154.1940 H   0  0  0  0  0  0  0  0  0  0  0  0
  147.2877  139.1147  151.3677 H   0  0  0  0  0  0  0  0  0  0  0  0
  146.1594  138.9087  157.7031 H   0  0  0  0  0  0  0  0  0  0  0  0
  147.5509  141.1569  156.7937 H   0  0  0  0  0  0  0  0  0  0  0  0
  149.2738  140.3516  154.4153 H   0  0  0  0  0  0  0  0  0  0  0  0
  148.8093  142.0029  154.9366 H   0  0  0  0  0  0  0  0  0  0  0  0
  152.0374  141.1679  155.1665 H   0  0  0  0  0  0  0  0  0  0  0  0
  152.2717  140.3635  156.7034 H   0  0  0  0  0  0  0  0  0  0  0  0
  150.6221  138.9024  155.2388 H   0  0  0  0  0  0  0  0  0  0  0  0
  149.5807  142.7018  157.4958 H   0  0  0  0  0  0  0  0  0  0  0  0
  151.1807  142.1264  157.9052 H   0  0  0  0  0  0  0  0  0  0  0  0
  150.4178  143.9529  156.0878 H   0  0  0  0  0  0  0  0  0  0  0  0
  149.2300  140.1231  158.1596 H   0  0  0  0  0  0  0  0  0  0  0  0
  149.6038  138.9049  156.8981 H   0  0  0  0  0  0  0  0  0  0  0  0
  142.9784  132.3736  152.1107 H   0  0  0  0  0  0  0  0  0  0  0  0
  144.6999  132.6844  152.1074 H   0  0  0  0  0  0  0  0  0  0  0  0
  142.7546  133.9561  150.3400 H   0  0  0  0  0  0  0  0  0  0  0  0
  1  2  1  0  0  0  0
  1 29  1  0  0  0  0
  1 30  1  0  0  0  0
  1 31  1  0  0  0  0
  2 28  1  0  0  0  0
  2  3  1  0  0  0  0
  2 59  1  0  0  0  0
  3  4  1  0  0  0  0
  3 32  1  0  0  0  0
  3 33  1  0  0  0  0
  4  5  1  0  0  0  0
  4 34  1  0  0  0  0
  4 35  1  0  0  0  0
  5 10  1  0  0  0  0
  5  6  1  0  0  0  0
  5 36  1  0  0  0  0
  6  7  1  0  0  0  0
  6 28  1  0  0  0  0
  6 37  1  0  0  0  0
  7  8  1  0  0  0  0
  7 38  1  0  0  0  0
  7 39  1  0  0  0  0
  8  9  1  0  0  0  0
  8 40  1  0  0  0  0
  8 41  1  0  0  0  0
  9 10  1  0  0  0  0
  9 42  1  0  0  0  0
  9 43  1  0  0  0  0
 10 11  1  0  0  0  0
 11 16  1  0  0  0  0
 11 12  2  0  0  0  0
 12 13  1  0  0  0  0
 13 14  2  0  0  0  0
 13 44  1  0  0  0  0
 14 15  1  0  0  0  0
 15 19  1  0  0  0  0
 15 16  2  0  0  0  0
 16 17  1  0  0  0  0
 17 18  2  0  0  0  0
 18 19  1  0  0  0  0
 18 45  1  0  0  0  0
 19 20  1  0  0  0  0
 20 27  1  0  0  0  0
 20 21  1  0  0  0  0
 20 46  1  0  0  0  0
 21 22  1  0  0  0  0
 21 47  1  0  0  0  0
 21 48  1  0  0  0  0
 22 23  1  0  0  0  0
 22 25  1  0  0  0  0
 22 27  1  0  0  0  0
 23 24  1  0  0  0  0
 23 49  1  0  0  0  0
 23 50  1  0  0  0  0
 24 51  1  0  0  0  0
 25 26  1  0  0  0  0
 25 52  1  0  0  0  0
 25 53  1  0  0  0  0
 26 54  1  0  0  0  0
 27 55  1  0  0  0  0
 27 56  1  0  0  0  0
 28 57  1  0  0  0  0
 28 58  1  0  0  0  0
M  CHG  1   2   1
M  END
> <s_m_source_file>
AV-unprocessed.smi

> <i_m_source_file_index>
198

> <i_lp_mmshare_version>
43012

> <i_f3d_flags>
0

> <s_epik_input>
W0NIMl0xW0NIMl1OKFtDSDNdKVtDSDJdW0NAQEhdKFtDQEhdMTIpW0NIMl1bQ0gyXVtDSDJdTjJjKG5bY0hdbjMpYyhjMzQpbltjSF1uNFtDSF0oW0NIMl01KVtDSDJdQzUoW0NIMl1bT0hdKVtDSDJdW09IXQ==

> <s_epik_cmdline>
J2VwaWtfcHl0aG9uJywgJy1waCcsICc3LjAnLCAnLXRuJywgJzgnLCAnLW1hJywgJzIwMCcsICctbWV0YWxfYmluZGluZycsICctaW1hZScsICc8aW5maWxlLm1hZT4nLCAnLW9tYWUnLCAnPG91dGZpbGUubWFlPic=

> <r_lp_tautomer_probability>
1

> <r_epik_Ionization_Penalty>
0.00239938

> <r_epik_Ionization_Penalty_Charging>
0.00138697

> <r_epik_Ionization_Penalty_Neutral>
0.00101241

> <r_epik_State_Penalty>
-0

> <r_epik_Charging_Adjusted_Penalty>
0.00138697

> <i_epik_Tot_Q>
1

> <i_epik_Tot_abs_Q>
1

> <r_epik_Metal_State_Penalty>
-0

> <b_epik_Metal_Only>
0

> <s_lp_Force_Field>
OPLS_2005

> <r_lp_Energy>
59.0053

> <b_lp_Chiralities_Consistent>
1

> <s_lp_Variant>
AV-unprocessed.smi:198-4

> <Gold.Version>
5.8.1

> <Gold.Id.Protein>
6NUR|6NUR_protein|mol2

> <Gold.PLP.Fitness>
46.6002

> <Gold.PLP.PLP>
-35.3498

> <Gold.PLP.part.hbond>
-2.0000

> <Gold.PLP.part.metal>
0.0000

> <Gold.PLP.part.buried>
-4.2329

> <Gold.PLP.part.nonpolar>
-30.6828

> <Gold.PLP.part.repulsive>
0.6099

> <Gold.PLP.ligand.clash>
0.0000

> <Gold.PLP.ligand.torsion>
0.6912

> <Gold.PLP.Chemscore.Hbond>
3.0000

> <Gold.PLP.Chemscore.CHOScore>
0.9085

> <Gold.PLP.Chemscore.Metal>
0.0000

> <Gold.Chemscore.Hbonds>
donor molecule, donor type, donor heavy atom, donor atom, acceptor molecule, acceptor atom, score
      L1  H     2    59       P1 10186  2.00
      L1  H    26    54       P1  8028  1.00
      L1  C    13    44       P1  7957  0.86

> <Gold.PLP.Chemscore.Internal.Correction>
0.9074

> <Gold.Rescore>
     Score         DG    S(hbond)    S(metal)    S(lipo)     H(rot)  DE(clash)    DE(int)     intcor
     10.16     -13.57       1.94        0.00      81.00       3.08       0.25       3.16       ----

> <Gold.Chemscore.Fitness>
10.1620

> <Gold.Chemscore.DG>
-13.5679

> <Gold.Chemscore.ZeroCoef>
-5.4800

> <Gold.Chemscore.Hbond>
1.9432

> <Gold.Chemscore.Metal>
0.0000

> <Gold.Chemscore.Lipo>
81.0049

> <Gold.Chemscore.Internal_Hbond>
0.0000

> <Gold.Chemscore.DEClash>
0.2474

> <Gold.Chemscore.DEInternal>
3.1585

> <Gold.Chemscore.Rot>
3.0781

> <Gold.Chemscore.Internal.Correction>
   9.000000E+99

> <Gold.Chemscore.Hbonds>
donor molecule, donor type, donor heavy atom, donor atom, acceptor molecule, acceptor atom, score
      L1  H     2    59       P1 10186  0.94
      L1  H    26    54       P1  8028  1.00

> <Gold.Chemscore.Hbond.Weighted>
-6.4903

> <Gold.Chemscore.Metal.Weighted>
-0.0000

> <Gold.Chemscore.Lipo.Weighted>
-9.4776

> <Gold.Chemscore.Internal_Hbond.Weighted>
0.0000

> <Gold.Chemscore.DEClash.Weighted>
0.2474

> <Gold.Chemscore.DEInternal.Weighted>
3.1585

> <Gold.Chemscore.Rot.Weighted>
7.8800

> <Gold.Chemscore.Internal.Correction.Weighted>
   9.000000E+99

> <Gold.Protein.RotatedTorsions>
[ 6907 6896 6895 6894 ] final  155.27 input  -60.11 | X-H torsion
[ 7974 7965 7964 7962 ] final -146.12 input  175.53 | X-H torsion
[ 8008 7997 7996 7995 ] final   77.76 input   59.86 | X-H torsion
[ 10167 10162 10161 10158 ] final  -43.18 input  -65.29 | X-H torsion
[ 10718 10713 10712 10709 ] final  -69.98 input   66.30 | X-H torsion
[ 10763 10752 10751 10750 ] final   -3.77 input  -60.55 | X-H torsion
[ 11005 11000 10999 10996 ] final -151.75 input  -57.11 | X-H torsion

> <Gold.Protein.ActiveResidues>
 VAL166  LYS551  ARG553  GLY616  TRP617  ASP618  TYR619  PRO620  LYS621  CYS622 
 ASP623  PHE694  ASN695  SER759  ASP760  ASP761  ALA762  ILE779  LEU786  VAL792 
 PHE793  MET794  SER795  GLU796  ALA797  LYS798  CYS799  TRP800  GLU811  SER814 

> <Gold.Protein.RotatedAtoms>
  152.0465  133.4000  159.4358 H   0  0  0  0  0  0  0  0  0  0  0  0  # atno 6907 bound_to 6896
  150.6872  134.3356  159.4855 H   0  0  0  0  0  0  0  0  0  0  0  0  # atno 6908 bound_to 6896
  152.1161  134.9239  160.0615 H   0  0  0  0  0  0  0  0  0  0  0  0  # atno 6909 bound_to 6896
  144.8181  140.5496  143.5597 H   0  0  0  0  0  0  0  0  0  0  0  0  # atno 7974 bound_to 7965
  155.8461  140.3460  155.5663 H   0  0  0  0  0  0  0  0  0  0  0  0  # atno 8008 bound_to 7997
  155.8088  140.0896  157.1935 H   0  0  0  0  0  0  0  0  0  0  0  0  # atno 8009 bound_to 7997
  154.4006  140.1451  156.3349 H   0  0  0  0  0  0  0  0  0  0  0  0  # atno 8010 bound_to 7997
  140.6943  143.2997  151.3315 H   0  0  0  0  0  0  0  0  0  0  0  0  # atno 10167 bound_to 10162
  156.0429  130.4323  150.2228 H   0  0  0  0  0  0  0  0  0  0  0  0  # atno 10718 bound_to 10713
  153.3759  135.6996  153.6602 H   0  0  0  0  0  0  0  0  0  0  0  0  # atno 10763 bound_to 10752
  153.5233  135.3607  155.2643 H   0  0  0  0  0  0  0  0  0  0  0  0  # atno 10764 bound_to 10752
  154.8687  135.4163  154.3046 H   0  0  0  0  0  0  0  0  0  0  0  0  # atno 10765 bound_to 10752
  140.7262  134.3672  157.5175 H   0  0  0  0  0  0  0  0  0  0  0  0  # atno 11005 bound_to 11000
  145.5169  139.1477  143.3574 LP  0  0  0  0  0  0  0  0  0  0  0  0  # atno 17320 bound_to 7965
  146.2485  140.5309  142.8903 LP  0  0  0  0  0  0  0  0  0  0  0  0  # atno 17321 bound_to 7965
  139.6380  144.0593  152.2531 LP  0  0  0  0  0  0  0  0  0  0  0  0  # atno 17342 bound_to 10162
  140.0089  144.6238  150.7664 LP  0  0  0  0  0  0  0  0  0  0  0  0  # atno 17343 bound_to 10162
  157.0321  131.0010  151.3309 LP  0  0  0  0  0  0  0  0  0  0  0  0  # atno 17370 bound_to 10713
  157.5270  130.8034  149.7873 LP  0  0  0  0  0  0  0  0  0  0  0  0  # atno 17371 bound_to 10713
  139.8836  134.8988  156.2752 LP  0  0  0  0  0  0  0  0  0  0  0  0  # atno 17394 bound_to 11000
  140.9961  133.7179  156.0887 LP  0  0  0  0  0  0  0  0  0  0  0  0  # atno 17395 bound_to 11000

$$$$
