AV-unprocessed.smi:2354|AV-procd|sdf|9384|dock5
  -GOLD-   2272013 13D 1   1.00000     0.00000
 Structure written by MMmdl.
 44 45  0  0  0  0  0  0  0  0  2 V2000
  146.9881  133.0993  151.9709 C   0  0  0  0  0  0  0  0  0  0  0  0
  145.7198  133.2445  151.2227 N   0  3  0  0  0  0  0  0  0  0  0  0
  145.7629  132.5195  149.9325 C   0  0  0  0  0  0  0  0  0  0  0  0
  145.2912  134.6632  151.0893 C   0  0  0  0  0  0  0  0  0  0  0  0
  144.5818  135.2104  152.3581 C   0  0  0  0  0  0  0  0  0  0  0  0
  145.5148  135.1642  153.6053 C   0  0  0  0  0  0  0  0  0  0  0  0
  146.6723  136.0519  153.5046 N   0  0  0  0  0  0  0  0  0  0  0  0
  146.7711  137.2692  154.0587 C   0  0  0  0  0  0  0  0  0  0  0  0
  145.8684  137.7947  154.7099 O   0  0  0  0  0  0  0  0  0  0  0  0
  147.9630  137.8296  153.7902 N   0  0  0  0  0  0  0  0  0  0  0  0
  148.4240  139.1254  154.1421 C   0  0  0  0  0  0  0  0  0  0  0  0
  147.5201  140.2069  154.2873 C   0  0  0  0  0  0  0  0  0  0  0  0
  148.0377  141.4583  154.6624 C   0  0  0  0  0  0  0  0  0  0  0  0
  149.4233  141.5448  154.8784 C   0  0  0  0  0  0  0  0  0  0  0  0
  150.2445  140.4814  154.7447 N   0  0  0  0  0  0  0  0  0  0  0  0
  149.7459  139.2925  154.3896 N   0  0  0  0  0  0  0  0  0  0  0  0
  144.0568  136.6374  152.0980 C   0  0  0  0  0  0  0  0  0  0  0  0
  142.9128  136.8598  153.0920 C   0  0  0  0  0  0  0  0  0  0  0  0
  142.3797  135.4627  153.4314 C   0  0  0  0  0  0  0  0  0  0  0  0
  143.2626  134.4738  152.6592 C   0  0  0  0  0  0  0  0  0  0  0  0
  147.8118  133.5800  151.4416 H   0  0  0  0  0  0  0  0  0  0  0  0
  147.2369  132.0465  152.1081 H   0  0  0  0  0  0  0  0  0  0  0  0
  146.9057  133.5490  152.9608 H   0  0  0  0  0  0  0  0  0  0  0  0
  146.5160  132.9473  149.2695 H   0  0  0  0  0  0  0  0  0  0  0  0
  144.8011  132.5545  149.4228 H   0  0  0  0  0  0  0  0  0  0  0  0
  146.0091  131.4690  150.0912 H   0  0  0  0  0  0  0  0  0  0  0  0
  146.1599  135.2916  150.8857 H   0  0  0  0  0  0  0  0  0  0  0  0
  144.6554  134.7765  150.2094 H   0  0  0  0  0  0  0  0  0  0  0  0
  144.9552  135.3758  154.5177 H   0  0  0  0  0  0  0  0  0  0  0  0
  145.8996  134.1535  153.7427 H   0  0  0  0  0  0  0  0  0  0  0  0
  147.4666  135.7066  152.9862 H   0  0  0  0  0  0  0  0  0  0  0  0
  148.5671  137.3146  153.1672 H   0  0  0  0  0  0  0  0  0  0  0  0
  146.4574  140.0966  154.1336 H   0  0  0  0  0  0  0  0  0  0  0  0
  147.3958  142.3183  154.7845 H   0  0  0  0  0  0  0  0  0  0  0  0
  149.8806  142.4786  155.1697 H   0  0  0  0  0  0  0  0  0  0  0  0
  144.8226  137.4090  152.1664 H   0  0  0  0  0  0  0  0  0  0  0  0
  143.6484  136.6991  151.0880 H   0  0  0  0  0  0  0  0  0  0  0  0
  143.2888  137.3427  153.9951 H   0  0  0  0  0  0  0  0  0  0  0  0
  142.1391  137.5055  152.6752 H   0  0  0  0  0  0  0  0  0  0  0  0
  142.4587  135.2864  154.5049 H   0  0  0  0  0  0  0  0  0  0  0  0
  141.3291  135.3509  153.1604 H   0  0  0  0  0  0  0  0  0  0  0  0
  142.7571  134.2242  151.7252 H   0  0  0  0  0  0  0  0  0  0  0  0
  143.4099  133.5409  153.2049 H   0  0  0  0  0  0  0  0  0  0  0  0
  145.0155  132.7903  151.7866 H   0  0  0  0  0  0  0  0  0  0  0  0
  1  2  1  0  0  0  0
  1 21  1  0  0  0  0
  1 22  1  0  0  0  0
  1 23  1  0  0  0  0
  2  3  1  0  0  0  0
  2  4  1  0  0  0  0
  2 44  1  0  0  0  0
  3 24  1  0  0  0  0
  3 25  1  0  0  0  0
  3 26  1  0  0  0  0
  4  5  1  0  0  0  0
  4 27  1  0  0  0  0
  4 28  1  0  0  0  0
  5 20  1  0  0  0  0
  5  6  1  0  0  0  0
  5 17  1  0  0  0  0
  6  7  1  0  0  0  0
  6 29  1  0  0  0  0
  6 30  1  0  0  0  0
  7  8  1  0  0  0  0
  7 31  1  0  0  0  0
  8  9  2  0  0  0  0
  8 10  1  0  0  0  0
 10 11  1  0  0  0  0
 10 32  1  0  0  0  0
 11 16  1  0  0  0  0
 11 12  2  0  0  0  0
 12 13  1  0  0  0  0
 12 33  1  0  0  0  0
 13 14  2  0  0  0  0
 13 34  1  0  0  0  0
 14 15  1  0  0  0  0
 14 35  1  0  0  0  0
 15 16  2  0  0  0  0
 17 18  1  0  0  0  0
 17 36  1  0  0  0  0
 17 37  1  0  0  0  0
 18 19  1  0  0  0  0
 18 38  1  0  0  0  0
 18 39  1  0  0  0  0
 19 20  1  0  0  0  0
 19 40  1  0  0  0  0
 19 41  1  0  0  0  0
 20 42  1  0  0  0  0
 20 43  1  0  0  0  0
M  CHG  1   2   1
M  END
> <s_m_source_file>
AV-unprocessed.smi

> <i_m_source_file_index>
2354

> <i_lp_mmshare_version>
43012

> <i_f3d_flags>
0

> <s_epik_input>
W0NIMl0xW0NIMl1bQ0gyXVtDSDJdQzEoW0NIMl1OKFtDSDNdKVtDSDNdKVtDSDJdW05IXUMoPU8pW05IXWMyW2NIXVtjSF1bY0hdbm4y

> <s_epik_cmdline>
J2VwaWtfcHl0aG9uJywgJy1waCcsICc3LjAnLCAnLXRuJywgJzgnLCAnLW1hJywgJzIwMCcsICctbWV0YWxfYmluZGluZycsICctaW1hZScsICc8aW5maWxlLm1hZT4nLCAnLW9tYWUnLCAnPG91dGZpbGUubWFlPic=

> <r_lp_tautomer_probability>
1

> <r_epik_Ionization_Penalty>
0.0045793

> <r_epik_Ionization_Penalty_Charging>
0.000516438

> <r_epik_Ionization_Penalty_Neutral>
0.00406287

> <r_epik_State_Penalty>
-0

> <r_epik_Charging_Adjusted_Penalty>
0.000516438

> <i_epik_Tot_Q>
1

> <i_epik_Tot_abs_Q>
1

> <r_epik_Metal_State_Penalty>
-0

> <b_epik_Metal_Only>
0

> <s_lp_Force_Field>
OPLS_2005

> <r_lp_Energy>
45.7912

> <b_lp_Chiralities_Consistent>
1

> <s_lp_Variant>
AV-unprocessed.smi:2354-1

> <Gold.Version>
5.8.1

> <Gold.Id.Protein>
6NUR|6NUR_protein|mol2

> <Gold.PLP.Fitness>
41.2059

> <Gold.PLP.PLP>
-30.5525

> <Gold.PLP.part.hbond>
-3.0000

> <Gold.PLP.part.metal>
0.0000

> <Gold.PLP.part.buried>
-3.4502

> <Gold.PLP.part.nonpolar>
-24.1095

> <Gold.PLP.part.repulsive>
0.3780

> <Gold.PLP.ligand.clash>
0.0000

> <Gold.PLP.ligand.torsion>
0.6657

> <Gold.PLP.Chemscore.Hbond>
2.8560

> <Gold.PLP.Chemscore.CHOScore>
1.0000

> <Gold.PLP.Chemscore.Metal>
0.0000

> <Gold.Chemscore.Hbonds>
donor molecule, donor type, donor heavy atom, donor atom, acceptor molecule, acceptor atom, score
      L1  H     7    31       P1  7948  0.90
      L1  H    10    32       P1  7948  1.00
      P1  H  7989  7998       L1    15  0.98
      L1  C    14    35       P1  8028  1.00

> <Gold.PLP.Chemscore.Internal.Correction>
0.4168

> <Gold.Rescore>
     Score         DG    S(hbond)    S(metal)    S(lipo)     H(rot)  DE(clash)    DE(int)     intcor
     14.75     -16.81       2.56        0.00      63.20       1.81       0.06       2.00       ----

> <Gold.Chemscore.Fitness>
14.7518

> <Gold.Chemscore.DG>
-16.8077

> <Gold.Chemscore.ZeroCoef>
-5.4800

> <Gold.Chemscore.Hbond>
2.5633

> <Gold.Chemscore.Metal>
0.0000

> <Gold.Chemscore.Lipo>
63.2034

> <Gold.Chemscore.Internal_Hbond>
0.0000

> <Gold.Chemscore.DEClash>
0.0609

> <Gold.Chemscore.DEInternal>
1.9950

> <Gold.Chemscore.Rot>
1.8080

> <Gold.Chemscore.Internal.Correction>
   9.000000E+99

> <Gold.Chemscore.Hbonds>
donor molecule, donor type, donor heavy atom, donor atom, acceptor molecule, acceptor atom, score
      L1  H     7    31       P1  7948  0.88
      L1  H    10    32       P1  7948  0.99
      P1  H  7989  7998       L1    15  0.41

> <Gold.Chemscore.Hbond.Weighted>
-8.5615

> <Gold.Chemscore.Metal.Weighted>
-0.0000

> <Gold.Chemscore.Lipo.Weighted>
-7.3948

> <Gold.Chemscore.Internal_Hbond.Weighted>
0.0000

> <Gold.Chemscore.DEClash.Weighted>
0.0609

> <Gold.Chemscore.DEInternal.Weighted>
1.9950

> <Gold.Chemscore.Rot.Weighted>
4.6286

> <Gold.Chemscore.Internal.Correction.Weighted>
   9.000000E+99

> <Gold.Protein.RotatedTorsions>
[ 6907 6896 6895 6894 ] final   50.67 input  -60.11 | X-H torsion
[ 7974 7965 7964 7962 ] final   69.20 input  175.53 | X-H torsion
[ 8008 7997 7996 7995 ] final  143.10 input   59.86 | X-H torsion
[ 10167 10162 10161 10158 ] final  -38.05 input  -65.29 | X-H torsion
[ 10718 10713 10712 10709 ] final  175.89 input   66.30 | X-H torsion
[ 10763 10752 10751 10750 ] final   94.13 input  -60.55 | X-H torsion
[ 11005 11000 10999 10996 ] final   78.78 input  -57.11 | X-H torsion

> <Gold.Protein.ActiveResidues>
 VAL166  LYS551  ARG553  GLY616  TRP617  ASP618  TYR619  PRO620  LYS621  CYS622 
 ASP623  PHE694  ASN695  SER759  ASP760  ASP761  ALA762  ILE779  LEU786  VAL792 
 PHE793  MET794  SER795  GLU796  ALA797  LYS798  CYS799  TRP800  GLU811  SER814 

> <Gold.Protein.RotatedAtoms>
  152.3044  134.7573  160.0350 H   0  0  0  0  0  0  0  0  0  0  0  0  # atno 6907 bound_to 6896
  151.8075  133.3372  159.3553 H   0  0  0  0  0  0  0  0  0  0  0  0  # atno 6908 bound_to 6896
  150.7289  134.5625  159.5894 H   0  0  0  0  0  0  0  0  0  0  0  0  # atno 6909 bound_to 6896
  145.7933  139.2945  143.1197 H   0  0  0  0  0  0  0  0  0  0  0  0  # atno 7974 bound_to 7965
  156.2937  140.2271  156.4835 H   0  0  0  0  0  0  0  0  0  0  0  0  # atno 8008 bound_to 7997
  154.7832  140.0459  157.1165 H   0  0  0  0  0  0  0  0  0  0  0  0  # atno 8009 bound_to 7997
  154.9733  140.3069  155.4981 H   0  0  0  0  0  0  0  0  0  0  0  0  # atno 8010 bound_to 7997
  140.7102  143.3302  151.2587 H   0  0  0  0  0  0  0  0  0  0  0  0  # atno 10167 bound_to 10162
  156.9281  130.9962  151.2992 H   0  0  0  0  0  0  0  0  0  0  0  0  # atno 10718 bound_to 10713
  153.2381  135.4301  155.0668 H   0  0  0  0  0  0  0  0  0  0  0  0  # atno 10763 bound_to 10752
  154.8328  135.3396  154.6689 H   0  0  0  0  0  0  0  0  0  0  0  0  # atno 10764 bound_to 10752
  153.7114  135.7022  153.5093 H   0  0  0  0  0  0  0  0  0  0  0  0  # atno 10765 bound_to 10752
  139.9199  134.7790  156.1694 H   0  0  0  0  0  0  0  0  0  0  0  0  # atno 11005 bound_to 11000
  145.9954  140.8566  143.0045 LP  0  0  0  0  0  0  0  0  0  0  0  0  # atno 17320 bound_to 7965
  144.6779  140.2276  143.7359 LP  0  0  0  0  0  0  0  0  0  0  0  0  # atno 17321 bound_to 7965
  139.6782  143.9901  152.2793 LP  0  0  0  0  0  0  0  0  0  0  0  0  # atno 17342 bound_to 10162
  139.9522  144.6613  150.8161 LP  0  0  0  0  0  0  0  0  0  0  0  0  # atno 17343 bound_to 10162
  157.5864  130.8413  149.8596 LP  0  0  0  0  0  0  0  0  0  0  0  0  # atno 17370 bound_to 10713
  156.0459  130.3728  150.1318 LP  0  0  0  0  0  0  0  0  0  0  0  0  # atno 17371 bound_to 10713
  141.0710  133.6797  156.2140 LP  0  0  0  0  0  0  0  0  0  0  0  0  # atno 17394 bound_to 11000
  140.6507  134.5070  157.5577 LP  0  0  0  0  0  0  0  0  0  0  0  0  # atno 17395 bound_to 11000

$$$$
