AV-unprocessed.smi:2268|AV-procd|sdf|9150|dock8
  -GOLD-   2272012353D 1   1.00000     0.00000
 Structure written by MMmdl.
 37 38  0  0  0  0  0  0  0  0  1 V2000
  153.8567  141.4479  161.2283 C   0  0  0  0  0  0  0  0  0  0  0  0
  153.0565  142.1737  160.1605 C   0  0  0  0  0  0  0  0  0  0  0  0
  152.9431  143.5787  160.2429 C   0  0  0  0  0  0  0  0  0  0  0  0
  152.2007  144.2950  159.2868 C   0  0  0  0  0  0  0  0  0  0  0  0
  152.0993  145.6422  159.3770 F   0  0  0  0  0  0  0  0  0  0  0  0
  151.5611  143.6092  158.2400 C   0  0  0  0  0  0  0  0  0  0  0  0
  151.6694  142.2094  158.1491 C   0  0  0  0  0  0  0  0  0  0  0  0
  152.4210  141.4770  159.0977 C   0  0  0  0  0  0  0  0  0  0  0  0
  152.5088  139.9565  158.9626 C   0  0  2  0  0  0  0  0  0  0  0  0
  153.8297  139.5380  158.6752 O   0  0  0  0  0  0  0  0  0  0  0  0
  151.5759  139.4495  157.8398 C   0  0  0  0  0  0  0  0  0  0  0  0
  150.4471  138.6569  158.3586 N   0  0  0  0  0  0  0  0  0  0  0  0
  150.7773  137.5853  159.2050 C   0  0  0  0  0  0  0  0  0  0  0  0
  149.8701  136.8231  159.7226 N   0  0  0  0  0  0  0  0  0  0  0  0
  148.5206  137.0590  159.4460 C   0  0  0  0  0  0  0  0  0  0  0  0
  147.5391  136.1081  160.1080 C   0  0  0  0  0  0  0  0  0  0  0  0
  148.1334  138.0811  158.6350 C   0  0  0  0  0  0  0  0  0  0  0  0
  146.6791  138.3872  158.2994 C   0  0  0  0  0  0  0  0  0  0  0  0
  149.1551  138.9559  158.0373 C   0  0  0  0  0  0  0  0  0  0  0  0
  148.8741  139.8998  157.2969 O   0  0  0  0  0  0  0  0  0  0  0  0
  154.2030  142.1337  162.0020 H   0  0  0  0  0  0  0  0  0  0  0  0
  154.7338  140.9689  160.7926 H   0  0  0  0  0  0  0  0  0  0  0  0
  153.2452  140.6874  161.7129 H   0  0  0  0  0  0  0  0  0  0  0  0
  153.4251  144.1171  161.0458 H   0  0  0  0  0  0  0  0  0  0  0  0
  150.9862  144.1557  157.5071 H   0  0  0  0  0  0  0  0  0  0  0  0
  151.1661  141.6980  157.3416 H   0  0  0  0  0  0  0  0  0  0  0  0
  152.2429  139.4869  159.9081 H   0  0  0  0  0  0  0  0  0  0  0  0
  153.8495  138.5932  158.6720 H   0  0  0  0  0  0  0  0  0  0  0  0
  151.1692  140.3068  157.2995 H   0  0  0  0  0  0  0  0  0  0  0  0
  152.1494  138.9049  157.0868 H   0  0  0  0  0  0  0  0  0  0  0  0
  151.8431  137.4475  159.3952 H   0  0  0  0  0  0  0  0  0  0  0  0
  146.9582  135.5734  159.3563 H   0  0  0  0  0  0  0  0  0  0  0  0
  146.8537  136.6562  160.7548 H   0  0  0  0  0  0  0  0  0  0  0  0
  148.0551  135.3679  160.7207 H   0  0  0  0  0  0  0  0  0  0  0  0
  146.4230  139.3962  158.6239 H   0  0  0  0  0  0  0  0  0  0  0  0
  145.9760  137.7028  158.7711 H   0  0  0  0  0  0  0  0  0  0  0  0
  146.5214  138.3282  157.2219 H   0  0  0  0  0  0  0  0  0  0  0  0
  1  2  1  0  0  0  0
  1 21  1  0  0  0  0
  1 22  1  0  0  0  0
  1 23  1  0  0  0  0
  2  8  1  0  0  0  0
  2  3  2  0  0  0  0
  3  4  1  0  0  0  0
  3 24  1  0  0  0  0
  4  5  1  0  0  0  0
  4  6  2  0  0  0  0
  6  7  1  0  0  0  0
  6 25  1  0  0  0  0
  7  8  2  0  0  0  0
  7 26  1  0  0  0  0
  8  9  1  0  0  0  0
  9 10  1  0  0  0  0
  9 11  1  0  0  0  0
  9 27  1  0  0  0  0
 10 28  1  0  0  0  0
 11 12  1  0  0  0  0
 11 29  1  0  0  0  0
 11 30  1  0  0  0  0
 12 19  1  0  0  0  0
 12 13  1  0  0  0  0
 13 14  2  0  0  0  0
 13 31  1  0  0  0  0
 14 15  1  0  0  0  0
 15 16  1  0  0  0  0
 15 17  2  0  0  0  0
 16 32  1  0  0  0  0
 16 33  1  0  0  0  0
 16 34  1  0  0  0  0
 17 18  1  0  0  0  0
 17 19  1  0  0  0  0
 18 35  1  0  0  0  0
 18 36  1  0  0  0  0
 18 37  1  0  0  0  0
 19 20  2  0  0  0  0
M  END
> <s_m_source_file>
AV-unprocessed.smi

> <i_m_source_file_index>
2268

> <i_lp_mmshare_version>
43012

> <i_f3d_flags>
0

> <s_epik_input>
W0NIM11jMVtjSF1jKEYpW2NIXVtjSF1jMVtDQEhdKFtPSF0pW0NIMl1uMltjSF1uYyhbQ0gzXSljKFtDSDNdKWMyPU8=

> <s_epik_cmdline>
J2VwaWtfcHl0aG9uJywgJy1waCcsICc3LjAnLCAnLXRuJywgJzgnLCAnLW1hJywgJzIwMCcsICctbWV0YWxfYmluZGluZycsICctaW1hZScsICc8aW5maWxlLm1hZT4nLCAnLW9tYWUnLCAnPG91dGZpbGUubWFlPic=

> <r_lp_tautomer_probability>
1

> <r_epik_Ionization_Penalty>
5.07449e-05

> <r_epik_Ionization_Penalty_Charging>
7.56727e-08

> <r_epik_Ionization_Penalty_Neutral>
5.06692e-05

> <r_epik_State_Penalty>
-0

> <r_epik_Charging_Adjusted_Penalty>
7.56727e-08

> <i_epik_Tot_Q>
0

> <i_epik_Tot_abs_Q>
0

> <r_epik_Metal_State_Penalty>
-0

> <b_epik_Metal_Only>
0

> <s_lp_Force_Field>
OPLS_2005

> <r_lp_Energy>
19.9067

> <b_lp_Chiralities_Consistent>
1

> <s_lp_Variant>
AV-unprocessed.smi:2268-1

> <Gold.Version>
5.8.1

> <Gold.Id.Protein>
6NUR|6NUR_protein|mol2

> <Gold.PLP.Fitness>
45.5906

> <Gold.PLP.PLP>
-41.3246

> <Gold.PLP.part.hbond>
-2.0000

> <Gold.PLP.part.metal>
0.0000

> <Gold.PLP.part.buried>
-5.2557

> <Gold.PLP.part.nonpolar>
-33.9645

> <Gold.PLP.part.repulsive>
0.0000

> <Gold.PLP.ligand.clash>
0.0000

> <Gold.PLP.ligand.torsion>
0.8587

> <Gold.PLP.Chemscore.Hbond>
1.9920

> <Gold.PLP.Chemscore.CHOScore>
0.0000

> <Gold.PLP.Chemscore.Metal>
0.0000

> <Gold.Chemscore.Hbonds>
donor molecule, donor type, donor heavy atom, donor atom, acceptor molecule, acceptor atom, score
      P1  H  6896  6909       L1    14  0.50
      P1  H  7997  8009       L1    10  1.00

> <Gold.PLP.Chemscore.Internal.Correction>
0.0074

> <Gold.Rescore>
     Score         DG    S(hbond)    S(metal)    S(lipo)     H(rot)  DE(clash)    DE(int)     intcor
     16.69     -17.81       1.83        0.00      96.46       1.98       0.14       0.98       ----

> <Gold.Chemscore.Fitness>
16.6869

> <Gold.Chemscore.DG>
-17.8113

> <Gold.Chemscore.ZeroCoef>
-5.4800

> <Gold.Chemscore.Hbond>
1.8325

> <Gold.Chemscore.Metal>
0.0000

> <Gold.Chemscore.Lipo>
96.4568

> <Gold.Chemscore.Internal_Hbond>
0.0000

> <Gold.Chemscore.DEClash>
0.1399

> <Gold.Chemscore.DEInternal>
0.9846

> <Gold.Chemscore.Rot>
1.9823

> <Gold.Chemscore.Internal.Correction>
   9.000000E+99

> <Gold.Chemscore.Hbonds>
donor molecule, donor type, donor heavy atom, donor atom, acceptor molecule, acceptor atom, score
      P1  H  6896  6909       L1    14  0.21
      P1  H  7997  8009       L1    10  0.45

> <Gold.Chemscore.Hbond.Weighted>
-6.1207

> <Gold.Chemscore.Metal.Weighted>
-0.0000

> <Gold.Chemscore.Lipo.Weighted>
-11.2854

> <Gold.Chemscore.Internal_Hbond.Weighted>
0.0000

> <Gold.Chemscore.DEClash.Weighted>
0.1399

> <Gold.Chemscore.DEInternal.Weighted>
0.9846

> <Gold.Chemscore.Rot.Weighted>
5.0748

> <Gold.Chemscore.Internal.Correction.Weighted>
   9.000000E+99

> <Gold.Protein.RotatedTorsions>
[ 6907 6896 6895 6894 ] final   62.90 input  -60.11 | X-H torsion
[ 7974 7965 7964 7962 ] final -166.16 input  175.53 | X-H torsion
[ 8008 7997 7996 7995 ] final  129.17 input   59.86 | X-H torsion
[ 10167 10162 10161 10158 ] final  121.45 input  -65.29 | X-H torsion
[ 10718 10713 10712 10709 ] final  -13.87 input   66.30 | X-H torsion
[ 10763 10752 10751 10750 ] final  150.83 input  -60.55 | X-H torsion
[ 11005 11000 10999 10996 ] final  114.66 input  -57.11 | X-H torsion

> <Gold.Protein.ActiveResidues>
 VAL166  LYS551  ARG553  GLY616  TRP617  ASP618  TYR619  PRO620  LYS621  CYS622 
 ASP623  PHE694  ASN695  SER759  ASP760  ASP761  ALA762  ILE779  LEU786  VAL792 
 PHE793  MET794  SER795  GLU796  ALA797  LYS798  CYS799  TRP800  GLU811  SER814 

> <Gold.Protein.RotatedAtoms>
  152.4210  134.5955  159.9985 H   0  0  0  0  0  0  0  0  0  0  0  0  # atno 6907 bound_to 6896
  151.6105  133.3342  159.3074 H   0  0  0  0  0  0  0  0  0  0  0  0  # atno 6908 bound_to 6896
  150.8098  134.7284  159.6743 H   0  0  0  0  0  0  0  0  0  0  0  0  # atno 6909 bound_to 6896
  144.7252  140.2708  143.6251 H   0  0  0  0  0  0  0  0  0  0  0  0  # atno 7974 bound_to 7965
  156.2931  140.2627  156.2556 H   0  0  0  0  0  0  0  0  0  0  0  0  # atno 8008 bound_to 7997
  154.9840  140.0389  157.2308 H   0  0  0  0  0  0  0  0  0  0  0  0  # atno 8009 bound_to 7997
  154.7746  140.2784  155.6115 H   0  0  0  0  0  0  0  0  0  0  0  0  # atno 8010 bound_to 7997
  139.5919  144.7028  151.3270 H   0  0  0  0  0  0  0  0  0  0  0  0  # atno 10167 bound_to 10162
  156.6240  130.4883  149.6154 H   0  0  0  0  0  0  0  0  0  0  0  0  # atno 10718 bound_to 10713
  154.0940  135.2850  155.3266 H   0  0  0  0  0  0  0  0  0  0  0  0  # atno 10763 bound_to 10752
  154.6601  135.5338  153.8010 H   0  0  0  0  0  0  0  0  0  0  0  0  # atno 10764 bound_to 10752
  153.0403  135.6531  154.1107 H   0  0  0  0  0  0  0  0  0  0  0  0  # atno 10765 bound_to 10752
  139.8987  134.9571  156.6925 H   0  0  0  0  0  0  0  0  0  0  0  0  # atno 11005 bound_to 11000
  145.8045  139.1978  143.2029 LP  0  0  0  0  0  0  0  0  0  0  0  0  # atno 17320 bound_to 7965
  146.0648  140.7932  142.9717 LP  0  0  0  0  0  0  0  0  0  0  0  0  # atno 17321 bound_to 7965
  140.7180  143.7214  150.7693 LP  0  0  0  0  0  0  0  0  0  0  0  0  # atno 17342 bound_to 10162
  140.0772  143.5004  152.2549 LP  0  0  0  0  0  0  0  0  0  0  0  0  # atno 17343 bound_to 10162
  156.2288  130.6782  151.1443 LP  0  0  0  0  0  0  0  0  0  0  0  0  # atno 17370 bound_to 10713
  157.7219  131.0676  150.6098 LP  0  0  0  0  0  0  0  0  0  0  0  0  # atno 17371 bound_to 10713
  140.7213  133.9138  155.8149 LP  0  0  0  0  0  0  0  0  0  0  0  0  # atno 17394 bound_to 11000
  141.0225  134.0869  157.4105 LP  0  0  0  0  0  0  0  0  0  0  0  0  # atno 17395 bound_to 11000

$$$$
