AV-unprocessed.smi:234|AV-procd|sdf|1793|dock3
  -GOLD-   2262020353D 1   1.00000     0.00000
 Structure written by MMmdl.
 59 62  0  0  0  0  0  0  0  0  1 V2000
  148.9213  128.5311  152.9139 C   0  0  0  0  0  0  0  0  0  0  0  0
  147.9192  129.6814  153.0299 C   0  0  0  0  0  0  0  0  0  0  0  0
  148.5914  130.8264  153.5286 O   0  0  0  0  0  0  0  0  0  0  0  0
  148.5595  130.9177  154.9480 C   0  0  2  0  0  0  0  0  0  0  0  0
  148.4609  132.3680  155.4307 C   0  0  0  0  0  0  0  0  0  0  0  0
  149.9957  132.3874  155.3935 C   0  0  1  0  0  0  0  0  0  0  0  0
  150.6158  133.1352  156.4929 N   0  0  0  0  0  0  0  0  0  0  0  0
  152.0686  133.0836  156.6183 C   0  0  0  0  0  0  0  0  0  0  0  0
  150.1191  134.3619  156.7914 C   0  0  0  0  0  0  0  0  0  0  0  0
  149.3780  134.5454  157.9169 N   0  0  0  0  0  0  0  0  0  0  0  0
  148.8795  135.7511  158.2047 C   0  0  0  0  0  0  0  0  0  0  0  0
  148.9974  136.8888  157.5175 N   0  0  0  0  0  0  0  0  0  0  0  0
  149.7373  136.7093  156.3859 C   0  0  0  0  0  0  0  0  0  0  0  0
  150.3232  135.4884  155.9481 C   0  0  0  0  0  0  0  0  0  0  0  0
  150.9991  135.6882  154.7508 N   0  0  0  0  0  0  0  0  0  0  0  0
  150.8254  136.9566  154.4967 C   0  0  0  0  0  0  0  0  0  0  0  0
  150.0906  137.6490  155.4332 N   0  0  0  0  0  0  0  0  0  0  0  0
  149.7616  139.0661  155.4070 C   0  0  0  0  0  0  0  0  0  0  0  0
  150.9230  139.9789  155.8729 C   0  0  1  0  0  0  0  0  0  0  0  0
  152.0190  139.7887  154.9936 O   0  0  0  0  0  0  0  0  0  0  0  0
  150.5396  141.4626  155.8415 C   0  0  0  0  0  0  0  0  0  0  0  0
  150.5031  141.8691  157.3102 C   0  0  0  0  0  0  0  0  0  0  0  0
  151.5032  141.0506  157.8896 O   0  0  0  0  0  0  0  0  0  0  0  0
  151.3343  139.7476  157.3507 C   0  0  2  0  0  0  0  0  0  0  0  0
  152.5839  138.8888  157.6070 C   0  0  0  0  0  0  0  0  0  0  0  0
  149.9711  130.8446  155.5845 C   0  0  0  0  0  0  0  0  0  0  0  0
  149.9792  130.3029  157.0237 C   0  0  0  0  0  0  0  0  0  0  0  0
  151.0143  130.0376  154.8065 C   0  0  0  0  0  0  0  0  0  0  0  0
  148.4378  127.6302  152.5356 H   0  0  0  0  0  0  0  0  0  0  0  0
  149.3583  128.2944  153.8844 H   0  0  0  0  0  0  0  0  0  0  0  0
  149.7334  128.7870  152.2330 H   0  0  0  0  0  0  0  0  0  0  0  0
  147.4792  129.8887  152.0539 H   0  0  0  0  0  0  0  0  0  0  0  0
  147.1082  129.4008  153.7035 H   0  0  0  0  0  0  0  0  0  0  0  0
  147.8401  130.2377  155.4077 H   0  0  0  0  0  0  0  0  0  0  0  0
  147.9839  133.0612  154.7376 H   0  0  0  0  0  0  0  0  0  0  0  0
  148.0414  132.4541  156.4345 H   0  0  0  0  0  0  0  0  0  0  0  0
  150.3700  132.6699  154.4078 H   0  0  0  0  0  0  0  0  0  0  0  0
  152.5234  134.0693  156.5059 H   0  0  0  0  0  0  0  0  0  0  0  0
  152.5075  132.4357  155.8603 H   0  0  0  0  0  0  0  0  0  0  0  0
  152.3442  132.6910  157.5971 H   0  0  0  0  0  0  0  0  0  0  0  0
  148.3039  135.8129  159.1166 H   0  0  0  0  0  0  0  0  0  0  0  0
  151.2404  137.4290  153.6179 H   0  0  0  0  0  0  0  0  0  0  0  0
  149.4584  139.3264  154.3919 H   0  0  0  0  0  0  0  0  0  0  0  0
  148.8846  139.2253  156.0359 H   0  0  0  0  0  0  0  0  0  0  0  0
  152.1092  138.8626  154.8275 H   0  0  0  0  0  0  0  0  0  0  0  0
  151.3006  142.0550  155.3305 H   0  0  0  0  0  0  0  0  0  0  0  0
  149.5904  141.6558  155.3404 H   0  0  0  0  0  0  0  0  0  0  0  0
  150.7108  142.9288  157.4604 H   0  0  0  0  0  0  0  0  0  0  0  0
  149.5340  141.6394  157.7565 H   0  0  0  0  0  0  0  0  0  0  0  0
  150.4964  139.3071  157.8920 H   0  0  0  0  0  0  0  0  0  0  0  0
  152.4745  137.8932  157.1766 H   0  0  0  0  0  0  0  0  0  0  0  0
  152.7535  138.7675  158.6769 H   0  0  0  0  0  0  0  0  0  0  0  0
  153.4796  139.3440  157.1835 H   0  0  0  0  0  0  0  0  0  0  0  0
  150.9701  130.3621  157.4743 H   0  0  0  0  0  0  0  0  0  0  0  0
  149.6720  129.2570  157.0539 H   0  0  0  0  0  0  0  0  0  0  0  0
  149.2992  130.8534  157.6742 H   0  0  0  0  0  0  0  0  0  0  0  0
  151.9894  130.0574  155.2934 H   0  0  0  0  0  0  0  0  0  0  0  0
  151.1552  130.4266  153.7977 H   0  0  0  0  0  0  0  0  0  0  0  0
  150.7170  128.9929  154.7117 H   0  0  0  0  0  0  0  0  0  0  0  0
  1  2  1  0  0  0  0
  1 29  1  0  0  0  0
  1 30  1  0  0  0  0
  1 31  1  0  0  0  0
  2  3  1  0  0  0  0
  2 32  1  0  0  0  0
  2 33  1  0  0  0  0
  3  4  1  0  0  0  0
  4 26  1  0  0  0  0
  4  5  1  0  0  0  0
  4 34  1  0  0  0  0
  5  6  1  0  0  0  0
  5 35  1  0  0  0  0
  5 36  1  0  0  0  0
  6  7  1  0  0  0  0
  6 26  1  0  0  0  0
  6 37  1  0  0  0  0
  7  8  1  0  0  0  0
  7  9  1  0  0  0  0
  8 38  1  0  0  0  0
  8 39  1  0  0  0  0
  8 40  1  0  0  0  0
  9 14  1  0  0  0  0
  9 10  2  0  0  0  0
 10 11  1  0  0  0  0
 11 12  2  0  0  0  0
 11 41  1  0  0  0  0
 12 13  1  0  0  0  0
 13 17  1  0  0  0  0
 13 14  2  0  0  0  0
 14 15  1  0  0  0  0
 15 16  2  0  0  0  0
 16 17  1  0  0  0  0
 16 42  1  0  0  0  0
 17 18  1  0  0  0  0
 18 19  1  0  0  0  0
 18 43  1  0  0  0  0
 18 44  1  0  0  0  0
 19 24  1  0  0  0  0
 19 20  1  0  0  0  0
 19 21  1  0  0  0  0
 20 45  1  0  0  0  0
 21 22  1  0  0  0  0
 21 46  1  0  0  0  0
 21 47  1  0  0  0  0
 22 23  1  0  0  0  0
 22 48  1  0  0  0  0
 22 49  1  0  0  0  0
 23 24  1  0  0  0  0
 24 25  1  0  0  0  0
 24 50  1  0  0  0  0
 25 51  1  0  0  0  0
 25 52  1  0  0  0  0
 25 53  1  0  0  0  0
 26 27  1  0  0  0  0
 26 28  1  0  0  0  0
 27 54  1  0  0  0  0
 27 55  1  0  0  0  0
 27 56  1  0  0  0  0
 28 57  1  0  0  0  0
 28 58  1  0  0  0  0
 28 59  1  0  0  0  0
M  END
> <s_m_source_file>
AV-unprocessed.smi

> <i_m_source_file_index>
234

> <i_lp_mmshare_version>
43012

> <i_f3d_flags>
0

> <s_epik_input>
W0NIM11bQ0gyXU9bQ0BASF0oQzEoW0NIM10pW0NIM10pW0NIMl1bQ0BIXTFOKFtDSDNdKWMobltjSF1uMiljKGMyMyluW2NIXW4zW0NIMl1bQ0BAXTQoW09IXSlbQ0gyXVtDSDJdT1tDQEhdNFtDSDNd

> <s_epik_cmdline>
J2VwaWtfcHl0aG9uJywgJy1waCcsICc3LjAnLCAnLXRuJywgJzgnLCAnLW1hJywgJzIwMCcsICctbWV0YWxfYmluZGluZycsICctaW1hZScsICc8aW5maWxlLm1hZT4nLCAnLW9tYWUnLCAnPG91dGZpbGUubWFlPic=

> <r_lp_tautomer_probability>
1

> <r_epik_Ionization_Penalty>
0.00349132

> <r_epik_Ionization_Penalty_Charging>
0

> <r_epik_Ionization_Penalty_Neutral>
0.00349132

> <r_epik_State_Penalty>
0.00242418

> <r_epik_Charging_Adjusted_Penalty>
0.00242418

> <i_epik_Tot_Q>
0

> <i_epik_Tot_abs_Q>
0

> <r_epik_Metal_State_Penalty>
-0

> <b_epik_Metal_Only>
0

> <s_lp_Force_Field>
OPLS_2005

> <r_lp_Energy>
48.0221

> <b_lp_Chiralities_Consistent>
1

> <s_lp_Variant>
AV-unprocessed.smi:234-9

> <Gold.Version>
5.8.1

> <Gold.Id.Protein>
6NUR|6NUR_protein|mol2

> <Gold.PLP.Fitness>
39.9089

> <Gold.PLP.PLP>
-31.0225

> <Gold.PLP.part.hbond>
-3.0000

> <Gold.PLP.part.metal>
0.0000

> <Gold.PLP.part.buried>
-3.9922

> <Gold.PLP.part.nonpolar>
-24.9298

> <Gold.PLP.part.repulsive>
0.2636

> <Gold.PLP.ligand.clash>
0.0000

> <Gold.PLP.ligand.torsion>
1.6271

> <Gold.PLP.Chemscore.Hbond>
2.8800

> <Gold.PLP.Chemscore.CHOScore>
0.6954

> <Gold.PLP.Chemscore.Metal>
0.0000

> <Gold.Chemscore.Hbonds>
donor molecule, donor type, donor heavy atom, donor atom, acceptor molecule, acceptor atom, score
      P1  H  6896  6909       L1    10  1.00
      P1  H  7989  7998       L1    20  0.88
      P1  H 10752 10763       L1    15  1.00
      L1  C    16    42       P1  7949  0.63

> <Gold.PLP.Chemscore.Internal.Correction>
1.4144

> <Gold.Rescore>
     Score         DG    S(hbond)    S(metal)    S(lipo)     H(rot)  DE(clash)    DE(int)     intcor
     11.73     -13.55       1.73        0.00      76.99       2.62       0.22       1.60       ----

> <Gold.Chemscore.Fitness>
11.7344

> <Gold.Chemscore.DG>
-13.5520

> <Gold.Chemscore.ZeroCoef>
-5.4800

> <Gold.Chemscore.Hbond>
1.7294

> <Gold.Chemscore.Metal>
0.0000

> <Gold.Chemscore.Lipo>
76.9896

> <Gold.Chemscore.Internal_Hbond>
0.0000

> <Gold.Chemscore.DEClash>
0.2160

> <Gold.Chemscore.DEInternal>
1.6016

> <Gold.Chemscore.Rot>
2.6219

> <Gold.Chemscore.Internal.Correction>
   9.000000E+99

> <Gold.Chemscore.Hbonds>
donor molecule, donor type, donor heavy atom, donor atom, acceptor molecule, acceptor atom, score
      P1  H  6896  6909       L1    10  0.19
      P1  H  7989  7998       L1    20  0.44
      P1  H 10752 10763       L1    15  0.29

> <Gold.Chemscore.Hbond.Weighted>
-5.7763

> <Gold.Chemscore.Metal.Weighted>
-0.0000

> <Gold.Chemscore.Lipo.Weighted>
-9.0078

> <Gold.Chemscore.Internal_Hbond.Weighted>
0.0000

> <Gold.Chemscore.DEClash.Weighted>
0.2160

> <Gold.Chemscore.DEInternal.Weighted>
1.6016

> <Gold.Chemscore.Rot.Weighted>
6.7121

> <Gold.Chemscore.Internal.Correction.Weighted>
   9.000000E+99

> <Gold.Protein.RotatedTorsions>
[ 6907 6896 6895 6894 ] final    9.01 input  -60.11 | X-H torsion
[ 7974 7965 7964 7962 ] final  -61.18 input  175.53 | X-H torsion
[ 8008 7997 7996 7995 ] final   67.15 input   59.86 | X-H torsion
[ 10167 10162 10161 10158 ] final   60.43 input  -65.29 | X-H torsion
[ 10718 10713 10712 10709 ] final  110.26 input   66.30 | X-H torsion
[ 10763 10752 10751 10750 ] final   62.01 input  -60.55 | X-H torsion
[ 11005 11000 10999 10996 ] final  -81.18 input  -57.11 | X-H torsion

> <Gold.Protein.ActiveResidues>
 VAL166  LYS551  ARG553  GLY616  TRP617  ASP618  TYR619  PRO620  LYS621  CYS622 
 ASP623  PHE694  ASN695  SER759  ASP760  ASP761  ALA762  ILE779  LEU786  VAL792 
 PHE793  MET794  SER795  GLU796  ALA797  LYS798  CYS799  TRP800  GLU811  SER814 

> <Gold.Protein.RotatedAtoms>
  151.7153  135.0905  160.0274 H   0  0  0  0  0  0  0  0  0  0  0  0  # atno 6907 bound_to 6896
  152.3636  133.6324  159.6042 H   0  0  0  0  0  0  0  0  0  0  0  0  # atno 6908 bound_to 6896
  150.7622  133.9300  159.3465 H   0  0  0  0  0  0  0  0  0  0  0  0  # atno 6909 bound_to 6896
  145.8065  140.8624  143.0204 H   0  0  0  0  0  0  0  0  0  0  0  0  # atno 7974 bound_to 7965
  155.6884  140.3496  155.4884 H   0  0  0  0  0  0  0  0  0  0  0  0  # atno 8008 bound_to 7997
  155.9545  140.1125  157.0971 H   0  0  0  0  0  0  0  0  0  0  0  0  # atno 8009 bound_to 7997
  154.4129  140.1187  156.5083 H   0  0  0  0  0  0  0  0  0  0  0  0  # atno 8010 bound_to 7997
  140.1657  144.4326  150.6686 H   0  0  0  0  0  0  0  0  0  0  0  0  # atno 10167 bound_to 10162
  157.6503  131.0929  150.6575 H   0  0  0  0  0  0  0  0  0  0  0  0  # atno 10718 bound_to 10713
  152.9968  135.5480  154.6124 H   0  0  0  0  0  0  0  0  0  0  0  0  # atno 10763 bound_to 10752
  154.5442  135.2822  155.1070 H   0  0  0  0  0  0  0  0  0  0  0  0  # atno 10764 bound_to 10752
  154.2335  135.6429  153.5236 H   0  0  0  0  0  0  0  0  0  0  0  0  # atno 10765 bound_to 10752
  141.1667  133.7184  156.8384 H   0  0  0  0  0  0  0  0  0  0  0  0  # atno 11005 bound_to 11000
  144.6762  140.0334  143.7482 LP  0  0  0  0  0  0  0  0  0  0  0  0  # atno 17320 bound_to 7965
  145.9822  139.2950  143.1035 LP  0  0  0  0  0  0  0  0  0  0  0  0  # atno 17321 bound_to 7965
  140.6614  143.2253  151.5846 LP  0  0  0  0  0  0  0  0  0  0  0  0  # atno 17342 bound_to 10162
  139.5360  144.2779  152.1253 LP  0  0  0  0  0  0  0  0  0  0  0  0  # atno 17343 bound_to 10162
  156.6887  130.4588  149.5606 LP  0  0  0  0  0  0  0  0  0  0  0  0  # atno 17370 bound_to 10713
  156.1877  130.6540  151.1025 LP  0  0  0  0  0  0  0  0  0  0  0  0  # atno 17371 bound_to 10713
  140.2000  134.8903  157.3159 LP  0  0  0  0  0  0  0  0  0  0  0  0  # atno 17394 bound_to 11000
  140.2197  134.4038  155.7572 LP  0  0  0  0  0  0  0  0  0  0  0  0  # atno 17395 bound_to 11000

$$$$
