AV-unprocessed.smi:54|AV-procd|sdf|553|dock2
  -GOLD-   2262016453D 1   1.00000     0.00000
 Structure written by MMmdl.
 43 45  0  0  0  0  0  0  0  0  2 V2000
  152.6515  143.0379  161.1092 C   0  0  0  0  0  0  0  0  0  0  0  0
  152.6702  143.1112  159.5734 C   0  0  0  0  0  0  0  0  0  0  0  0
  151.5378  144.0080  159.0455 C   0  0  0  0  0  0  0  0  0  0  0  0
  152.5802  141.7039  158.9675 C   0  0  0  0  0  0  0  0  0  0  0  0
  152.9732  140.7395  159.6274 O   0  0  0  0  0  0  0  0  0  0  0  0
  152.0504  141.6343  157.7269 N   0  0  0  0  0  0  0  0  0  0  0  0
  151.8663  140.5005  156.9300 C   0  0  0  0  0  0  0  0  0  0  0  0
  150.7237  140.3194  156.3062 N   0  0  0  0  0  0  0  0  0  0  0  0
  150.6996  139.1447  155.5775 C   0  0  0  0  0  0  0  0  0  0  0  0
  151.6969  138.2140  155.4640 C   0  0  0  0  0  0  0  0  0  0  0  0
  151.3164  137.1543  154.6497 N   0  0  0  0  0  0  0  0  0  0  0  0
  150.0769  137.4993  154.3067 C   0  0  0  0  0  0  0  0  0  0  0  0
  149.6340  138.6643  154.8182 N   0  0  0  0  0  0  0  0  0  0  0  0
  148.2756  139.2564  154.6027 C   0  0  2  0  0  0  0  0  0  0  0  0
  147.6288  138.5835  153.5714 O   0  0  0  0  0  0  0  0  0  0  0  0
  146.7131  139.4671  152.9298 C   0  0  2  0  0  0  0  0  0  0  0  0
  146.7999  139.2653  151.4057 C   0  0  0  0  0  0  0  0  0  0  0  0
  146.4973  137.9379  151.0258 O   0  0  0  0  0  0  0  0  0  0  0  0
  147.0195  140.8923  153.4352 C   0  0  1  0  0  0  0  0  0  0  0  0
  145.9906  141.3089  154.3132 O   0  0  0  0  0  0  0  0  0  0  0  0
  148.3243  140.7372  154.2056 C   0  0  2  0  0  0  0  0  0  0  0  0
  149.4367  141.0629  153.3936 O   0  0  0  0  0  0  0  0  0  0  0  0
  152.9515  138.4794  156.2077 C   0  0  0  0  0  0  0  0  0  0  0  0
  153.8727  137.6682  156.1357 O   0  0  0  0  0  0  0  0  0  0  0  0
  152.9724  139.6377  156.9332 N   0  5  0  0  0  0  0  0  0  0  0  0
  147.7370  139.0886  155.5365 H   0  0  0  0  0  0  0  0  0  0  0  0
  145.7141  139.1627  153.2468 H   0  0  0  0  0  0  0  0  0  0  0  0
  147.0913  141.6282  152.6330 H   0  0  0  0  0  0  0  0  0  0  0  0
  148.3671  141.3591  155.1010 H   0  0  0  0  0  0  0  0  0  0  0  0
  153.4532  142.4007  161.4850 H   0  0  0  0  0  0  0  0  0  0  0  0
  151.7069  142.6384  161.4806 H   0  0  0  0  0  0  0  0  0  0  0  0
  152.7870  144.0268  161.5478 H   0  0  0  0  0  0  0  0  0  0  0  0
  153.6190  143.5575  159.2705 H   0  0  0  0  0  0  0  0  0  0  0  0
  151.5401  144.0495  157.9555 H   0  0  0  0  0  0  0  0  0  0  0  0
  151.6475  145.0292  159.4115 H   0  0  0  0  0  0  0  0  0  0  0  0
  150.5584  143.6480  159.3631 H   0  0  0  0  0  0  0  0  0  0  0  0
  151.6813  142.5008  157.3642 H   0  0  0  0  0  0  0  0  0  0  0  0
  149.4655  136.8793  153.6678 H   0  0  0  0  0  0  0  0  0  0  0  0
  146.1332  139.9572  150.8914 H   0  0  0  0  0  0  0  0  0  0  0  0
  147.8108  139.4852  151.0619 H   0  0  0  0  0  0  0  0  0  0  0  0
  145.6516  137.9322  150.6037 H   0  0  0  0  0  0  0  0  0  0  0  0
  145.1600  141.1719  153.8844 H   0  0  0  0  0  0  0  0  0  0  0  0
  149.5574  140.3666  152.7643 H   0  0  0  0  0  0  0  0  0  0  0  0
  1  2  1  0  0  0  0
  1 30  1  0  0  0  0
  1 31  1  0  0  0  0
  1 32  1  0  0  0  0
  2  3  1  0  0  0  0
  2  4  1  0  0  0  0
  2 33  1  0  0  0  0
  3 34  1  0  0  0  0
  3 35  1  0  0  0  0
  3 36  1  0  0  0  0
  4  5  2  0  0  0  0
  4  6  1  0  0  0  0
  6 37  1  0  0  0  0
  6  7  1  0  0  0  0
  7 25  1  0  0  0  0
  7  8  2  0  0  0  0
  8  9  1  0  0  0  0
  9 13  1  0  0  0  0
  9 10  2  0  0  0  0
 10 11  1  0  0  0  0
 10 23  1  0  0  0  0
 11 12  2  0  0  0  0
 12 13  1  0  0  0  0
 12 38  1  0  0  0  0
 13 14  1  0  0  0  0
 14 26  1  0  0  0  0
 14 21  1  0  0  0  0
 14 15  1  0  0  0  0
 15 16  1  0  0  0  0
 16 27  1  0  0  0  0
 16 17  1  0  0  0  0
 16 19  1  0  0  0  0
 17 18  1  0  0  0  0
 17 39  1  0  0  0  0
 17 40  1  0  0  0  0
 18 41  1  0  0  0  0
 19 28  1  0  0  0  0
 19 20  1  0  0  0  0
 19 21  1  0  0  0  0
 20 42  1  0  0  0  0
 21 29  1  0  0  0  0
 21 22  1  0  0  0  0
 22 43  1  0  0  0  0
 23 24  2  0  0  0  0
 23 25  1  0  0  0  0
M  CHG  1  25  -1
M  END
> <s_m_source_file>
AV-unprocessed.smi

> <i_m_source_file_index>
54

> <i_lp_mmshare_version>
43012

> <i_f3d_flags>
0

> <s_epik_input>
W0NIM11bQ0hdKFtDSDNdKUMoPU8pW05IXWMobjEpW25IXWMoPU8pYyhjMTIpbltjSF1uMltDQEBIXTNPW0NASF0oW0NIMl1bT0hdKVtDQEBIXShbT0hdKVtDQEhdM1tPSF0=

> <s_epik_cmdline>
J2VwaWtfcHl0aG9uJywgJy1waCcsICc3LjAnLCAnLXRuJywgJzgnLCAnLW1hJywgJzIwMCcsICctbWV0YWxfYmluZGluZycsICctaW1hZScsICc8aW5maWxlLm1hZT4nLCAnLW9tYWUnLCAnPG91dGZpbGUubWFlPic=

> <r_lp_tautomer_probability>
0.85571

> <r_epik_Ionization_Penalty>
1.75936

> <r_epik_Ionization_Penalty_Charging>
4.55893e-11

> <r_epik_Ionization_Penalty_Neutral>
1.75936

> <r_epik_State_Penalty>
1.72072

> <r_epik_Charging_Adjusted_Penalty>
1.72072

> <i_epik_Tot_Q>
-1

> <i_epik_Tot_abs_Q>
1

> <r_epik_Metal_State_Penalty>
0.400338

> <b_epik_Metal_Only>
1

> <s_epik_Chemistry_Notes>
This compound contains an acetal/aminal-like group ( X-CH(R)-Y where X, Y are N, S, or O) that may be acid/base labile, releasing an aldehyde.

> <s_lp_Force_Field>
OPLS_2005

> <r_lp_Energy>
60.6136

> <b_lp_Chiralities_Consistent>
1

> <s_lp_Variant>
AV-unprocessed.smi:54-25

> <Gold.Version>
5.8.1

> <Gold.Id.Protein>
6NUR|6NUR_protein|mol2

> <Gold.PLP.Fitness>
62.6657

> <Gold.PLP.PLP>
-43.2110

> <Gold.PLP.part.hbond>
-9.6561

> <Gold.PLP.part.metal>
0.0000

> <Gold.PLP.part.buried>
-0.2624

> <Gold.PLP.part.nonpolar>
-35.3841

> <Gold.PLP.part.repulsive>
0.4521

> <Gold.PLP.ligand.clash>
0.0000

> <Gold.PLP.ligand.torsion>
1.3519

> <Gold.PLP.Chemscore.Hbond>
6.5565

> <Gold.PLP.Chemscore.CHOScore>
0.8069

> <Gold.PLP.Chemscore.Metal>
0.0000

> <Gold.Chemscore.Hbonds>
donor molecule, donor type, donor heavy atom, donor atom, acceptor molecule, acceptor atom, score
      L1  H    18    41       P1 10171  0.96
      L1  H    20    42       P1 10175  0.73
      L1  H    22    43       P1  7957  0.86
      P1  H  7954  7966       L1    18  0.50
      P1  H  7989  7998       L1    22  0.01
      P1  H  7997  8010       L1    25  2.00
      P1  H  8011  8017       L1    22  0.90
      P1  H 10752 10764       L1    11  0.52
      L1  C    12    38       P1  7948  0.82

> <Gold.PLP.Chemscore.Internal.Correction>
0.0685

> <Gold.Rescore>
     Score         DG    S(hbond)    S(metal)    S(lipo)     H(rot)  DE(clash)    DE(int)     intcor
     14.18     -18.73       4.41        0.00      75.35       4.02       2.07       2.48       ----

> <Gold.Chemscore.Fitness>
14.1814

> <Gold.Chemscore.DG>
-18.7315

> <Gold.Chemscore.ZeroCoef>
-5.4800

> <Gold.Chemscore.Hbond>
4.4087

> <Gold.Chemscore.Metal>
0.0000

> <Gold.Chemscore.Lipo>
75.3468

> <Gold.Chemscore.Internal_Hbond>
0.0000

> <Gold.Chemscore.DEClash>
2.0746

> <Gold.Chemscore.DEInternal>
2.4755

> <Gold.Chemscore.Rot>
4.0192

> <Gold.Chemscore.Internal.Correction>
   9.000000E+99

> <Gold.Chemscore.Hbonds>
donor molecule, donor type, donor heavy atom, donor atom, acceptor molecule, acceptor atom, score
      L1  H    18    41       P1 10171  0.91
      L1  H    20    42       P1 10175  0.47
      L1  H    22    43       P1  7957  0.84
      P1  H  7954  7966       L1    18  0.02
      P1  H  7997  8010       L1    25  0.32
      P1  H  8011  8017       L1    22  0.18
      P1  H 10752 10764       L1    11  0.43

> <Gold.Chemscore.Hbond.Weighted>
-14.7252

> <Gold.Chemscore.Metal.Weighted>
-0.0000

> <Gold.Chemscore.Lipo.Weighted>
-8.8156

> <Gold.Chemscore.Internal_Hbond.Weighted>
0.0000

> <Gold.Chemscore.DEClash.Weighted>
2.0746

> <Gold.Chemscore.DEInternal.Weighted>
2.4755

> <Gold.Chemscore.Rot.Weighted>
10.2893

> <Gold.Chemscore.Internal.Correction.Weighted>
   9.000000E+99

> <Gold.Protein.RotatedTorsions>
[ 6907 6896 6895 6894 ] final -154.36 input  -60.11 | X-H torsion
[ 7974 7965 7964 7962 ] final -138.79 input  175.53 | X-H torsion
[ 8008 7997 7996 7995 ] final   45.26 input   59.86 | X-H torsion
[ 10167 10162 10161 10158 ] final  -43.87 input  -65.29 | X-H torsion
[ 10718 10713 10712 10709 ] final  -24.09 input   66.30 | X-H torsion
[ 10763 10752 10751 10750 ] final  -68.01 input  -60.55 | X-H torsion
[ 11005 11000 10999 10996 ] final  147.90 input  -57.11 | X-H torsion

> <Gold.Protein.ActiveResidues>
 VAL166  LYS551  ARG553  GLY616  TRP617  ASP618  TYR619  PRO620  LYS621  CYS622 
 ASP623  PHE694  ASN695  SER759  ASP760  ASP761  ALA762  ILE779  LEU786  VAL792 
 PHE793  MET794  SER795  GLU796  ALA797  LYS798  CYS799  TRP800  GLU811  SER814 

> <Gold.Protein.RotatedAtoms>
  151.2564  133.4324  159.2613 H   0  0  0  0  0  0  0  0  0  0  0  0  # atno 6907 bound_to 6896
  151.0570  134.9712  159.8251 H   0  0  0  0  0  0  0  0  0  0  0  0  # atno 6908 bound_to 6896
  152.5392  134.2516  159.8953 H   0  0  0  0  0  0  0  0  0  0  0  0  # atno 6909 bound_to 6896
  144.8730  140.6395  143.5255 H   0  0  0  0  0  0  0  0  0  0  0  0  # atno 7974 bound_to 7965
  155.3329  140.3403  155.4239 H   0  0  0  0  0  0  0  0  0  0  0  0  # atno 8008 bound_to 7997
  156.1852  140.1678  156.8234 H   0  0  0  0  0  0  0  0  0  0  0  0  # atno 8009 bound_to 7997
  154.5379  140.0731  156.8442 H   0  0  0  0  0  0  0  0  0  0  0  0  # atno 8010 bound_to 7997
  140.6918  143.2960  151.3414 H   0  0  0  0  0  0  0  0  0  0  0  0  # atno 10167 bound_to 10162
  156.4824  130.4548  149.6804 H   0  0  0  0  0  0  0  0  0  0  0  0  # atno 10718 bound_to 10713
  154.3828  135.6070  153.5800 H   0  0  0  0  0  0  0  0  0  0  0  0  # atno 10763 bound_to 10752
  152.9788  135.5865  154.4390 H   0  0  0  0  0  0  0  0  0  0  0  0  # atno 10764 bound_to 10752
  154.4162  135.2845  155.1983 H   0  0  0  0  0  0  0  0  0  0  0  0  # atno 10765 bound_to 10752
  140.0914  134.9038  157.1657 H   0  0  0  0  0  0  0  0  0  0  0  0  # atno 11005 bound_to 11000
  145.4095  139.1582  143.4133 LP  0  0  0  0  0  0  0  0  0  0  0  0  # atno 17320 bound_to 7965
  146.2943  140.4198  142.8727 LP  0  0  0  0  0  0  0  0  0  0  0  0  # atno 17321 bound_to 7965
  139.6329  144.0686  152.2491 LP  0  0  0  0  0  0  0  0  0  0  0  0  # atno 17342 bound_to 10162
  140.0167  144.6184  150.7601 LP  0  0  0  0  0  0  0  0  0  0  0  0  # atno 17343 bound_to 10162
  156.3509  130.7431  151.2390 LP  0  0  0  0  0  0  0  0  0  0  0  0  # atno 17370 bound_to 10713
  157.7482  131.0377  150.4470 LP  0  0  0  0  0  0  0  0  0  0  0  0  # atno 17371 bound_to 10713
  140.3347  134.2771  155.7222 LP  0  0  0  0  0  0  0  0  0  0  0  0  # atno 17394 bound_to 11000
  141.2079  133.7793  157.0091 LP  0  0  0  0  0  0  0  0  0  0  0  0  # atno 17395 bound_to 11000

$$$$
