AV-unprocessed.smi:1116|AV-procd|sdf|4810|dock2
  -GOLD-   22720 3363D 1   1.00000     0.00000
 Structure written by MMmdl.
 35 36  0  0  0  0  0  0  0  0  2 V2000
  151.7935  145.4277  159.3898 C   0  0  0  0  0  0  0  0  0  0  0  0
  152.2246  144.1534  160.0311 C   0  0  0  0  0  0  0  0  0  0  0  0
  152.6721  143.0970  159.3477 N   0  0  0  0  0  0  0  0  0  0  0  0
  153.0098  142.0225  160.1764 C   0  0  0  0  0  0  0  0  0  0  0  0
  153.5267  140.7506  159.5763 C   0  0  0  0  0  0  0  0  0  0  0  0
  152.3997  139.8879  158.9837 C   0  0  0  0  0  0  0  0  0  0  0  0
  152.5498  139.7186  157.5432 N   0  0  0  0  0  0  0  0  0  0  0  0
  151.6626  140.1237  156.6216 C   0  0  0  0  0  0  0  0  0  0  0  0
  150.6114  140.6993  156.9041 O   0  0  0  0  0  0  0  0  0  0  0  0
  152.0290  139.8430  155.1620 C   0  0  0  0  0  0  0  0  0  0  0  0
  152.4098  138.3715  154.9096 C   0  0  0  0  0  0  0  0  0  0  0  0
  151.1944  137.4948  154.5418 C   0  0  1  0  0  0  0  0  0  0  0  0
  151.4740  136.0839  154.7468 N   0  5  0  0  0  0  0  0  0  0  0  0
  150.5703  135.5906  155.6263 C   0  0  0  0  0  0  0  0  0  0  0  0
  150.4761  134.4372  156.0403 O   0  0  0  0  0  0  0  0  0  0  0  0
  149.7323  136.5502  156.0319 N   0  0  0  0  0  0  0  0  0  0  0  0
  150.0154  137.7203  155.4690 C   0  0  0  0  0  0  0  0  0  0  0  0
  149.4426  138.7944  155.6476 O   0  0  0  0  0  0  0  0  0  0  0  0
  152.8124  142.2848  161.5094 C   0  0  0  0  0  0  0  0  0  0  0  0
  152.1929  143.8924  161.7705 S   0  0  0  0  0  0  0  0  0  0  0  0
  151.8144  145.3376  158.3031 H   0  0  0  0  0  0  0  0  0  0  0  0
  152.4599  146.2375  159.6865 H   0  0  0  0  0  0  0  0  0  0  0  0
  150.7785  145.6761  159.6998 H   0  0  0  0  0  0  0  0  0  0  0  0
  154.2596  140.9829  158.8028 H   0  0  0  0  0  0  0  0  0  0  0  0
  154.0635  140.1755  160.3320 H   0  0  0  0  0  0  0  0  0  0  0  0
  152.4109  138.8984  159.4417 H   0  0  0  0  0  0  0  0  0  0  0  0
  151.4239  140.3226  159.2073 H   0  0  0  0  0  0  0  0  0  0  0  0
  153.3855  139.2520  157.2212 H   0  0  0  0  0  0  0  0  0  0  0  0
  151.1809  140.1198  154.5351 H   0  0  0  0  0  0  0  0  0  0  0  0
  152.8563  140.4919  154.8706 H   0  0  0  0  0  0  0  0  0  0  0  0
  153.1656  138.3119  154.1237 H   0  0  0  0  0  0  0  0  0  0  0  0
  152.8793  137.9706  155.8097 H   0  0  0  0  0  0  0  0  0  0  0  0
  150.8722  137.7125  153.5225 H   0  0  0  0  0  0  0  0  0  0  0  0
  148.9837  136.4047  156.6925 H   0  0  0  0  0  0  0  0  0  0  0  0
  152.9923  141.6321  162.3507 H   0  0  0  0  0  0  0  0  0  0  0  0
  1  2  1  0  0  0  0
  1 21  1  0  0  0  0
  1 22  1  0  0  0  0
  1 23  1  0  0  0  0
  2 20  1  0  0  0  0
  2  3  2  0  0  0  0
  3  4  1  0  0  0  0
  4  5  1  0  0  0  0
  4 19  2  0  0  0  0
  5  6  1  0  0  0  0
  5 24  1  0  0  0  0
  5 25  1  0  0  0  0
  6  7  1  0  0  0  0
  6 26  1  0  0  0  0
  6 27  1  0  0  0  0
  7  8  1  0  0  0  0
  7 28  1  0  0  0  0
  8  9  2  0  0  0  0
  8 10  1  0  0  0  0
 10 11  1  0  0  0  0
 10 29  1  0  0  0  0
 10 30  1  0  0  0  0
 11 12  1  0  0  0  0
 11 31  1  0  0  0  0
 11 32  1  0  0  0  0
 12 17  1  0  0  0  0
 12 13  1  0  0  0  0
 12 33  1  0  0  0  0
 13 14  1  0  0  0  0
 14 15  2  0  0  0  0
 14 16  1  0  0  0  0
 16 17  1  0  0  0  0
 16 34  1  0  0  0  0
 17 18  2  0  0  0  0
 19 20  1  0  0  0  0
 19 35  1  0  0  0  0
M  CHG  1  13  -1
M  END
> <s_m_source_file>
AV-unprocessed.smi

> <i_m_source_file_index>
1116

> <i_lp_mmshare_version>
43012

> <i_f3d_flags>
0

> <s_epik_input>
W0NIM11jMW5jKFtjSF1zMSlbQ0gyXVtDSDJdW05IXUMoPU8pW0NIMl1bQ0gyXVtDQEBIXTJbTkhdQyg9TylbTkhdQzI9Tw==

> <s_epik_cmdline>
J2VwaWtfcHl0aG9uJywgJy1waCcsICc3LjAnLCAnLXRuJywgJzgnLCAnLW1hJywgJzIwMCcsICctbWV0YWxfYmluZGluZycsICctaW1hZScsICc8aW5maWxlLm1hZT4nLCAnLW9tYWUnLCAnPG91dGZpbGUubWFlPic=

> <r_lp_tautomer_probability>
1

> <r_epik_Ionization_Penalty>
5.7962

> <r_epik_Ionization_Penalty_Charging>
5.79516

> <r_epik_Ionization_Penalty_Neutral>
0.00104588

> <r_epik_State_Penalty>
5.80096

> <r_epik_Charging_Adjusted_Penalty>
11.5961

> <i_epik_Tot_Q>
-1

> <i_epik_Tot_abs_Q>
1

> <r_epik_Metal_State_Penalty>
2.1448

> <b_epik_Metal_Only>
1

> <s_lp_Force_Field>
OPLS_2005

> <r_lp_Energy>
5.74046

> <b_lp_Chiralities_Consistent>
1

> <s_lp_Variant>
AV-unprocessed.smi:1116-4

> <Gold.Version>
5.8.1

> <Gold.Id.Protein>
6NUR|6NUR_protein|mol2

> <Gold.PLP.Fitness>
44.4145

> <Gold.PLP.PLP>
-40.3790

> <Gold.PLP.part.hbond>
-1.0000

> <Gold.PLP.part.metal>
0.0000

> <Gold.PLP.part.buried>
-3.3741

> <Gold.PLP.part.nonpolar>
-36.5059

> <Gold.PLP.part.repulsive>
0.6686

> <Gold.PLP.ligand.clash>
0.0000

> <Gold.PLP.ligand.torsion>
1.0062

> <Gold.PLP.Chemscore.Hbond>
2.0000

> <Gold.PLP.Chemscore.CHOScore>
0.0000

> <Gold.PLP.Chemscore.Metal>
0.0000

> <Gold.Chemscore.Hbonds>
donor molecule, donor type, donor heavy atom, donor atom, acceptor molecule, acceptor atom, score
      P1  H 10752 10764       L1    13  2.00

> <Gold.PLP.Chemscore.Internal.Correction>
0.0479

> <Gold.Rescore>
     Score         DG    S(hbond)    S(metal)    S(lipo)     H(rot)  DE(clash)    DE(int)     intcor
      7.53     -13.09       0.99        0.00      97.25       2.77       0.03       5.53       ----

> <Gold.Chemscore.Fitness>
7.5301

> <Gold.Chemscore.DG>
-13.0884

> <Gold.Chemscore.ZeroCoef>
-5.4800

> <Gold.Chemscore.Hbond>
0.9937

> <Gold.Chemscore.Metal>
0.0000

> <Gold.Chemscore.Lipo>
97.2499

> <Gold.Chemscore.Internal_Hbond>
0.0000

> <Gold.Chemscore.DEClash>
0.0275

> <Gold.Chemscore.DEInternal>
5.5308

> <Gold.Chemscore.Rot>
2.7691

> <Gold.Chemscore.Internal.Correction>
   9.000000E+99

> <Gold.Chemscore.Hbonds>
donor molecule, donor type, donor heavy atom, donor atom, acceptor molecule, acceptor atom, score
      P1  H 10752 10764       L1    13  0.89

> <Gold.Chemscore.Hbond.Weighted>
-3.3191

> <Gold.Chemscore.Metal.Weighted>
-0.0000

> <Gold.Chemscore.Lipo.Weighted>
-11.3782

> <Gold.Chemscore.Internal_Hbond.Weighted>
0.0000

> <Gold.Chemscore.DEClash.Weighted>
0.0275

> <Gold.Chemscore.DEInternal.Weighted>
5.5308

> <Gold.Chemscore.Rot.Weighted>
7.0889

> <Gold.Chemscore.Internal.Correction.Weighted>
   9.000000E+99

> <Gold.Protein.RotatedTorsions>
[ 6907 6896 6895 6894 ] final -152.43 input  -60.11 | X-H torsion
[ 7974 7965 7964 7962 ] final   47.24 input  175.53 | X-H torsion
[ 8008 7997 7996 7995 ] final -126.63 input   59.86 | X-H torsion
[ 10167 10162 10161 10158 ] final  108.63 input  -65.29 | X-H torsion
[ 10718 10713 10712 10709 ] final -178.66 input   66.30 | X-H torsion
[ 10763 10752 10751 10750 ] final  -65.72 input  -60.55 | X-H torsion
[ 11005 11000 10999 10996 ] final  124.95 input  -57.11 | X-H torsion

> <Gold.Protein.ActiveResidues>
 VAL166  LYS551  ARG553  GLY616  TRP617  ASP618  TYR619  PRO620  LYS621  CYS622 
 ASP623  PHE694  ASN695  SER759  ASP760  ASP761  ALA762  ILE779  LEU786  VAL792 
 PHE793  MET794  SER795  GLU796  ALA797  LYS798  CYS799  TRP800  GLU811  SER814 

> <Gold.Protein.RotatedAtoms>
  151.2276  133.4468  159.2602 H   0  0  0  0  0  0  0  0  0  0  0  0  # atno 6907 bound_to 6896
  151.0825  134.9867  159.8373 H   0  0  0  0  0  0  0  0  0  0  0  0  # atno 6908 bound_to 6896
  152.5426  134.2215  159.8842 H   0  0  0  0  0  0  0  0  0  0  0  0  # atno 6909 bound_to 6896
  146.0316  139.4771  142.9834 H   0  0  0  0  0  0  0  0  0  0  0  0  # atno 7974 bound_to 7965
  155.2329  140.0426  157.2964 H   0  0  0  0  0  0  0  0  0  0  0  0  # atno 8008 bound_to 7997
  154.5877  140.2418  155.7934 H   0  0  0  0  0  0  0  0  0  0  0  0  # atno 8009 bound_to 7997
  156.2237  140.2961  156.0024 H   0  0  0  0  0  0  0  0  0  0  0  0  # atno 8010 bound_to 7997
  139.6831  144.7116  151.1481 H   0  0  0  0  0  0  0  0  0  0  0  0  # atno 10167 bound_to 10162
  156.8476  130.9708  151.3095 H   0  0  0  0  0  0  0  0  0  0  0  0  # atno 10718 bound_to 10713
  154.3492  135.6140  153.5634 H   0  0  0  0  0  0  0  0  0  0  0  0  # atno 10763 bound_to 10752
  152.9799  135.5788  154.4763 H   0  0  0  0  0  0  0  0  0  0  0  0  # atno 10764 bound_to 10752
  154.4481  135.2852  155.1777 H   0  0  0  0  0  0  0  0  0  0  0  0  # atno 10765 bound_to 10752
  139.9383  134.9638  156.8485 H   0  0  0  0  0  0  0  0  0  0  0  0  # atno 11005 bound_to 11000
  145.7031  141.0130  143.1493 LP  0  0  0  0  0  0  0  0  0  0  0  0  # atno 17320 bound_to 7965
  144.7033  139.8668  143.7437 LP  0  0  0  0  0  0  0  0  0  0  0  0  # atno 17321 bound_to 7965
  140.7659  143.5670  150.9037 LP  0  0  0  0  0  0  0  0  0  0  0  0  # atno 17342 bound_to 10162
  139.9343  143.6456  152.3069 LP  0  0  0  0  0  0  0  0  0  0  0  0  # atno 17343 bound_to 10162
  157.6321  130.8737  149.9292 LP  0  0  0  0  0  0  0  0  0  0  0  0  # atno 17370 bound_to 10713
  156.0846  130.3669  150.0513 LP  0  0  0  0  0  0  0  0  0  0  0  0  # atno 17371 bound_to 10713
  140.6018  134.0164  155.7540 LP  0  0  0  0  0  0  0  0  0  0  0  0  # atno 17394 bound_to 11000
  141.1006  133.9774  157.3085 LP  0  0  0  0  0  0  0  0  0  0  0  0  # atno 17395 bound_to 11000

$$$$
