AV-unprocessed.smi:1786|AV-procd|sdf|7203|dock1
  -GOLD-   22720 8443D 1   1.00000     0.00000
 Structure written by MMmdl.
 44 45  0  0  0  0  0  0  0  0  2 V2000
  146.4443  131.8561  152.2352 C   0  0  0  0  0  0  0  0  0  0  0  0
  146.9965  133.2322  151.8044 C   0  0  1  0  0  0  0  0  0  0  0  0
  145.9239  134.1083  151.1234 C   0  0  0  0  0  0  0  0  0  0  0  0
  144.8997  134.6539  152.1292 C   0  0  0  0  0  0  0  0  0  0  0  0
  145.6199  135.3901  153.2655 C   0  0  0  0  0  0  0  0  0  0  0  0
  146.6815  134.4942  153.9244 C   0  0  0  0  0  0  0  0  0  0  0  0
  147.6515  133.9838  152.9171 N   0  3  1  0  0  0  0  0  0  0  0  0
  148.8132  133.2758  153.5136 C   0  0  0  0  0  0  0  0  0  0  0  0
  149.3870  134.0234  154.7319 C   0  0  0  0  0  0  0  0  0  0  0  0
  150.0727  135.2477  154.3360 N   0  0  0  0  0  0  0  0  0  0  0  0
  150.4192  136.2386  155.1716 C   0  0  0  0  0  0  0  0  0  0  0  0
  150.1635  136.2208  156.3763 O   0  0  0  0  0  0  0  0  0  0  0  0
  151.1429  137.4350  154.5374 C   0  0  0  0  0  0  0  0  0  0  0  0
  150.4562  138.7175  154.7640 N   0  0  0  0  0  0  0  0  0  0  0  0
  149.1348  138.8321  154.2879 C   0  0  0  0  0  0  0  0  0  0  0  0
  148.4197  139.9575  154.4423 C   0  0  0  0  0  0  0  0  0  0  0  0
  149.0394  141.0727  155.1179 C   0  0  0  0  0  0  0  0  0  0  0  0
  150.3013  140.9727  155.5808 C   0  0  0  0  0  0  0  0  0  0  0  0
  151.0856  139.7433  155.4167 C   0  0  0  0  0  0  0  0  0  0  0  0
  152.2374  139.6407  155.8401 O   0  0  0  0  0  0  0  0  0  0  0  0
  145.9988  131.3389  151.3851 H   0  0  0  0  0  0  0  0  0  0  0  0
  145.6752  131.9377  153.0022 H   0  0  0  0  0  0  0  0  0  0  0  0
  147.2300  131.2079  152.6227 H   0  0  0  0  0  0  0  0  0  0  0  0
  147.7653  133.0436  151.0534 H   0  0  0  0  0  0  0  0  0  0  0  0
  146.4114  134.9471  150.6245 H   0  0  0  0  0  0  0  0  0  0  0  0
  145.4158  133.5458  150.3392 H   0  0  0  0  0  0  0  0  0  0  0  0
  144.2040  135.3276  151.6281 H   0  0  0  0  0  0  0  0  0  0  0  0
  144.3004  133.8390  152.5356 H   0  0  0  0  0  0  0  0  0  0  0  0
  146.0947  136.2908  152.8740 H   0  0  0  0  0  0  0  0  0  0  0  0
  144.8969  135.7218  154.0114 H   0  0  0  0  0  0  0  0  0  0  0  0
  147.2005  135.0752  154.6861 H   0  0  0  0  0  0  0  0  0  0  0  0
  146.2064  133.6621  154.4448 H   0  0  0  0  0  0  0  0  0  0  0  0
  148.5314  132.2569  153.7832 H   0  0  0  0  0  0  0  0  0  0  0  0
  149.5994  133.1903  152.7621 H   0  0  0  0  0  0  0  0  0  0  0  0
  148.5945  134.2560  155.4456 H   0  0  0  0  0  0  0  0  0  0  0  0
  150.1097  133.4047  155.2625 H   0  0  0  0  0  0  0  0  0  0  0  0
  150.3167  135.3424  153.3603 H   0  0  0  0  0  0  0  0  0  0  0  0
  152.1645  137.4875  154.9191 H   0  0  0  0  0  0  0  0  0  0  0  0
  151.2479  137.2398  153.4694 H   0  0  0  0  0  0  0  0  0  0  0  0
  148.7424  137.9518  153.7998 H   0  0  0  0  0  0  0  0  0  0  0  0
  147.4065  140.0258  154.0741 H   0  0  0  0  0  0  0  0  0  0  0  0
  148.4882  141.9915  155.2538 H   0  0  0  0  0  0  0  0  0  0  0  0
  150.7481  141.8171  156.0848 H   0  0  0  0  0  0  0  0  0  0  0  0
  148.0421  134.8037  152.4748 H   0  0  0  0  0  0  0  0  0  0  0  0
  1  2  1  0  0  0  0
  1 21  1  0  0  0  0
  1 22  1  0  0  0  0
  1 23  1  0  0  0  0
  2  7  1  0  0  0  0
  2  3  1  0  0  0  0
  2 24  1  0  0  0  0
  3  4  1  0  0  0  0
  3 25  1  0  0  0  0
  3 26  1  0  0  0  0
  4  5  1  0  0  0  0
  4 27  1  0  0  0  0
  4 28  1  0  0  0  0
  5  6  1  0  0  0  0
  5 29  1  0  0  0  0
  5 30  1  0  0  0  0
  6  7  1  0  0  0  0
  6 31  1  0  0  0  0
  6 32  1  0  0  0  0
  7  8  1  0  0  0  0
  7 44  1  0  0  0  0
  8  9  1  0  0  0  0
  8 33  1  0  0  0  0
  8 34  1  0  0  0  0
  9 10  1  0  0  0  0
  9 35  1  0  0  0  0
  9 36  1  0  0  0  0
 10 11  1  0  0  0  0
 10 37  1  0  0  0  0
 11 12  2  0  0  0  0
 11 13  1  0  0  0  0
 13 14  1  0  0  0  0
 13 38  1  0  0  0  0
 13 39  1  0  0  0  0
 14 19  1  0  0  0  0
 14 15  1  0  0  0  0
 15 16  2  0  0  0  0
 15 40  1  0  0  0  0
 16 17  1  0  0  0  0
 16 41  1  0  0  0  0
 17 18  2  0  0  0  0
 17 42  1  0  0  0  0
 18 19  1  0  0  0  0
 18 43  1  0  0  0  0
 19 20  2  0  0  0  0
M  CHG  1   7   1
M  END
> <s_m_source_file>
AV-unprocessed.smi

> <i_m_source_file_index>
1786

> <i_lp_mmshare_version>
43012

> <i_f3d_flags>
0

> <s_epik_input>
W0NIM11bQ0BASF0xW0NIMl1bQ0gyXVtDSDJdW0NIMl1OMVtDSDJdW0NIMl1bTkhdQyg9TylbQ0gyXW4yW2NIXVtjSF1bY0hdW2NIXWMyPU8=

> <s_epik_cmdline>
J2VwaWtfcHl0aG9uJywgJy1waCcsICc3LjAnLCAnLXRuJywgJzgnLCAnLW1hJywgJzIwMCcsICctbWV0YWxfYmluZGluZycsICctaW1hZScsICc8aW5maWxlLm1hZT4nLCAnLW9tYWUnLCAnPG91dGZpbGUubWFlPic=

> <r_lp_tautomer_probability>
1

> <r_epik_Ionization_Penalty>
0.00237247

> <r_epik_Ionization_Penalty_Charging>
0.00237238

> <r_epik_Ionization_Penalty_Neutral>
8.2065e-08

> <r_epik_State_Penalty>
0.00163922

> <r_epik_Charging_Adjusted_Penalty>
0.0040116

> <i_epik_Tot_Q>
1

> <i_epik_Tot_abs_Q>
1

> <r_epik_Metal_State_Penalty>
-0

> <b_epik_Metal_Only>
0

> <s_lp_Force_Field>
OPLS_2005

> <r_lp_Energy>
28.482

> <b_lp_Chiralities_Consistent>
1

> <s_lp_Variant>
AV-unprocessed.smi:1786-2

> <Gold.Version>
5.8.1

> <Gold.Id.Protein>
6NUR|6NUR_protein|mol2

> <Gold.PLP.Fitness>
49.8454

> <Gold.PLP.PLP>
-38.0704

> <Gold.PLP.part.hbond>
-3.5558

> <Gold.PLP.part.metal>
0.0000

> <Gold.PLP.part.buried>
-2.8726

> <Gold.PLP.part.nonpolar>
-32.8270

> <Gold.PLP.part.repulsive>
0.0828

> <Gold.PLP.ligand.clash>
0.0000

> <Gold.PLP.ligand.torsion>
0.2027

> <Gold.PLP.Chemscore.Hbond>
3.0317

> <Gold.PLP.Chemscore.CHOScore>
0.9963

> <Gold.PLP.Chemscore.Metal>
0.0000

> <Gold.Chemscore.Hbonds>
donor molecule, donor type, donor heavy atom, donor atom, acceptor molecule, acceptor atom, score
      L1  H     7    44       P1  7948  2.00
      P1  H  7997  8010       L1    20  0.59
      L1  C    15    40       P1  7948  0.87

> <Gold.PLP.Chemscore.Internal.Correction>
0.0965

> <Gold.Rescore>
     Score         DG    S(hbond)    S(metal)    S(lipo)     H(rot)  DE(clash)    DE(int)     intcor
     15.44     -15.67       1.94        0.00      72.32       1.86       0.05       0.18       ----

> <Gold.Chemscore.Fitness>
15.4402

> <Gold.Chemscore.DG>
-15.6673

> <Gold.Chemscore.ZeroCoef>
-5.4800

> <Gold.Chemscore.Hbond>
1.9413

> <Gold.Chemscore.Metal>
0.0000

> <Gold.Chemscore.Lipo>
72.3191

> <Gold.Chemscore.Internal_Hbond>
0.0000

> <Gold.Chemscore.DEClash>
0.0465

> <Gold.Chemscore.DEInternal>
0.1806

> <Gold.Chemscore.Rot>
1.8586

> <Gold.Chemscore.Internal.Correction>
   9.000000E+99

> <Gold.Chemscore.Hbonds>
donor molecule, donor type, donor heavy atom, donor atom, acceptor molecule, acceptor atom, score
      L1  H     7    44       P1  7948  0.65
      P1  H  7997  8010       L1    20  0.58

> <Gold.Chemscore.Hbond.Weighted>
-6.4841

> <Gold.Chemscore.Metal.Weighted>
-0.0000

> <Gold.Chemscore.Lipo.Weighted>
-8.4613

> <Gold.Chemscore.Internal_Hbond.Weighted>
0.0000

> <Gold.Chemscore.DEClash.Weighted>
0.0465

> <Gold.Chemscore.DEInternal.Weighted>
0.1806

> <Gold.Chemscore.Rot.Weighted>
4.7581

> <Gold.Chemscore.Internal.Correction.Weighted>
   9.000000E+99

> <Gold.Protein.RotatedTorsions>
[ 6907 6896 6895 6894 ] final  110.29 input  -60.11 | X-H torsion
[ 7974 7965 7964 7962 ] final -177.52 input  175.53 | X-H torsion
[ 8008 7997 7996 7995 ] final   82.18 input   59.86 | X-H torsion
[ 10167 10162 10161 10158 ] final -109.21 input  -65.29 | X-H torsion
[ 10718 10713 10712 10709 ] final  -63.86 input   66.30 | X-H torsion
[ 10763 10752 10751 10750 ] final -143.81 input  -60.55 | X-H torsion
[ 11005 11000 10999 10996 ] final  128.83 input  -57.11 | X-H torsion

> <Gold.Protein.ActiveResidues>
 VAL166  LYS551  ARG553  GLY616  TRP617  ASP618  TYR619  PRO620  LYS621  CYS622 
 ASP623  PHE694  ASN695  SER759  ASP760  ASP761  ALA762  ILE779  LEU786  VAL792 
 PHE793  MET794  SER795  GLU796  ALA797  LYS798  CYS799  TRP800  GLU811  SER814 

> <Gold.Protein.RotatedAtoms>
  152.5027  133.8821  159.7351 H   0  0  0  0  0  0  0  0  0  0  0  0  # atno 6907 bound_to 6896
  150.9281  133.6791  159.2823 H   0  0  0  0  0  0  0  0  0  0  0  0  # atno 6908 bound_to 6896
  151.4144  135.0994  159.9647 H   0  0  0  0  0  0  0  0  0  0  0  0  # atno 6909 bound_to 6896
  144.7128  140.1007  143.6416 H   0  0  0  0  0  0  0  0  0  0  0  0  # atno 7974 bound_to 7965
  155.9071  140.3430  155.6070 H   0  0  0  0  0  0  0  0  0  0  0  0  # atno 8008 bound_to 7997
  155.7432  140.0810  157.2255 H   0  0  0  0  0  0  0  0  0  0  0  0  # atno 8009 bound_to 7997
  154.4051  140.1567  156.2627 H   0  0  0  0  0  0  0  0  0  0  0  0  # atno 8010 bound_to 7997
  140.1578  143.4145  152.1448 H   0  0  0  0  0  0  0  0  0  0  0  0  # atno 10167 bound_to 10162
  156.0764  130.4226  150.1338 H   0  0  0  0  0  0  0  0  0  0  0  0  # atno 10718 bound_to 10713
  154.8454  135.3457  154.6247 H   0  0  0  0  0  0  0  0  0  0  0  0  # atno 10763 bound_to 10752
  153.6856  135.6978  153.5109 H   0  0  0  0  0  0  0  0  0  0  0  0  # atno 10764 bound_to 10752
  153.2635  135.4315  155.0873 H   0  0  0  0  0  0  0  0  0  0  0  0  # atno 10765 bound_to 10752
  139.9582  134.9608  156.9059 H   0  0  0  0  0  0  0  0  0  0  0  0  # atno 11005 bound_to 11000
  145.9540  139.2754  143.1195 LP  0  0  0  0  0  0  0  0  0  0  0  0  # atno 17320 bound_to 7965
  145.9292  140.9060  143.0365 LP  0  0  0  0  0  0  0  0  0  0  0  0  # atno 17321 bound_to 7965
  139.5395  144.7243  151.4780 LP  0  0  0  0  0  0  0  0  0  0  0  0  # atno 17342 bound_to 10162
  140.6662  143.8393  150.6945 LP  0  0  0  0  0  0  0  0  0  0  0  0  # atno 17343 bound_to 10162
  156.9378  130.9734  151.3521 LP  0  0  0  0  0  0  0  0  0  0  0  0  # atno 17370 bound_to 10713
  157.5862  130.8411  149.8593 LP  0  0  0  0  0  0  0  0  0  0  0  0  # atno 17371 bound_to 10713
  140.5561  134.0580  155.7384 LP  0  0  0  0  0  0  0  0  0  0  0  0  # atno 17394 bound_to 11000
  141.1256  133.9389  157.2642 LP  0  0  0  0  0  0  0  0  0  0  0  0  # atno 17395 bound_to 11000

$$$$
