AV-unprocessed.smi:2212|AV-procd|sdf|8952|dock1
  -GOLD-   2272012163D 1   1.00000     0.00000
 Structure written by MMmdl.
 32 33  0  0  0  0  0  0  0  0  2 V2000
  148.1529  132.8554  153.5468 C   0  0  0  0  0  0  0  0  0  0  0  0
  147.6668  133.5026  152.3773 O   0  0  0  0  0  0  0  0  0  0  0  0
  146.2722  133.8264  152.3521 C   0  0  0  0  0  0  0  0  0  0  0  0
  145.9045  134.8656  153.4221 C   0  0  0  0  0  0  0  0  0  0  0  0
  146.7097  136.0771  153.2971 N   0  0  0  0  0  0  0  0  0  0  0  0
  146.4300  137.2576  153.8680 C   0  0  0  0  0  0  0  0  0  0  0  0
  145.4624  137.4465  154.6060 O   0  0  0  0  0  0  0  0  0  0  0  0
  147.3324  138.1941  153.5305 N   0  0  0  0  0  0  0  0  0  0  0  0
  147.3379  139.5568  153.9227 C   0  0  0  0  0  0  0  0  0  0  0  0
  146.3314  140.4280  153.8201 N   0  3  0  0  0  0  0  0  0  0  0  0
  146.7421  141.6423  154.3091 C   0  0  0  0  0  0  0  0  0  0  0  0
  148.0434  141.4598  154.7101 C   0  0  0  0  0  0  0  0  0  0  0  0
  148.4306  140.1554  154.4730 O   0  0  0  0  0  0  0  0  0  0  0  0
  145.9068  134.1230  150.8849 C   0  0  0  0  0  0  0  0  0  0  0  0
  145.5866  132.6402  150.6919 C   0  0  0  0  0  0  0  0  0  0  0  0
  145.4130  132.5520  152.2092 C   0  0  0  0  0  0  0  0  0  0  0  0
  149.1824  132.5407  153.3769 H   0  0  0  0  0  0  0  0  0  0  0  0
  147.5750  131.9679  153.8017 H   0  0  0  0  0  0  0  0  0  0  0  0
  148.1587  133.5266  154.4054 H   0  0  0  0  0  0  0  0  0  0  0  0
  144.8433  135.1131  153.3634 H   0  0  0  0  0  0  0  0  0  0  0  0
  146.0461  134.4612  154.4240 H   0  0  0  0  0  0  0  0  0  0  0  0
  147.5242  136.0131  152.7039 H   0  0  0  0  0  0  0  0  0  0  0  0
  145.4051  140.2569  153.4478 H   0  0  0  0  0  0  0  0  0  0  0  0
  146.0811  142.4970  154.3220 H   0  0  0  0  0  0  0  0  0  0  0  0
  148.7852  142.1089  155.1525 H   0  0  0  0  0  0  0  0  0  0  0  0
  145.0198  134.7507  150.7870 H   0  0  0  0  0  0  0  0  0  0  0  0
  146.7271  134.4978  150.2716 H   0  0  0  0  0  0  0  0  0  0  0  0
  144.6837  132.4385  150.1153 H   0  0  0  0  0  0  0  0  0  0  0  0
  146.4396  132.0651  150.3280 H   0  0  0  0  0  0  0  0  0  0  0  0
  145.8191  131.6433  152.6520 H   0  0  0  0  0  0  0  0  0  0  0  0
  144.3775  132.7083  152.5161 H   0  0  0  0  0  0  0  0  0  0  0  0
  148.0861  137.9066  152.9237 H   0  0  0  0  0  0  0  0  0  0  0  0
  1  2  1  0  0  0  0
  1 17  1  0  0  0  0
  1 18  1  0  0  0  0
  1 19  1  0  0  0  0
  2  3  1  0  0  0  0
  3 16  1  0  0  0  0
  3  4  1  0  0  0  0
  3 14  1  0  0  0  0
  4  5  1  0  0  0  0
  4 20  1  0  0  0  0
  4 21  1  0  0  0  0
  5 22  1  0  0  0  0
  5  6  1  0  0  0  0
  6  8  1  0  0  0  0
  6  7  2  0  0  0  0
  8  9  1  0  0  0  0
  8 32  1  0  0  0  0
  9 13  1  0  0  0  0
  9 10  2  0  0  0  0
 10 23  1  0  0  0  0
 10 11  1  0  0  0  0
 11 24  1  0  0  0  0
 11 12  2  0  0  0  0
 12 25  1  0  0  0  0
 12 13  1  0  0  0  0
 14 15  1  0  0  0  0
 14 26  1  0  0  0  0
 14 27  1  0  0  0  0
 15 16  1  0  0  0  0
 15 28  1  0  0  0  0
 15 29  1  0  0  0  0
 16 30  1  0  0  0  0
 16 31  1  0  0  0  0
M  CHG  1  10   1
M  END
> <s_m_source_file>
AV-unprocessed.smi

> <i_m_source_file_index>
2212

> <i_lp_mmshare_version>
43012

> <i_f3d_flags>
0

> <s_epik_input>
W0NIMl0xW0NIMl1bQ0gyXUMxKE9bQ0gzXSlbQ0gyXVtOSF1DKD1PKVtOSF1jMm5bY0hdW2NIXW8y

> <s_epik_cmdline>
J2VwaWtfcHl0aG9uJywgJy1waCcsICc3LjAnLCAnLXRuJywgJzgnLCAnLW1hJywgJzIwMCcsICctbWV0YWxfYmluZGluZycsICctaW1hZScsICc8aW5maWxlLm1hZT4nLCAnLW9tYWUnLCAnPG91dGZpbGUubWFlPic=

> <r_epik_Ionization_Penalty>
6.73843

> <r_epik_Ionization_Penalty_Charging>
6.66704

> <r_epik_Ionization_Penalty_Neutral>
0.0713889

> <r_epik_State_Penalty>
1.94951

> <r_epik_Charging_Adjusted_Penalty>
8.61656

> <i_epik_Tot_Q>
1

> <i_epik_Tot_abs_Q>
1

> <r_epik_Metal_State_Penalty>
1.97013

> <b_epik_Metal_Only>
0

> <s_lp_Force_Field>
OPLS_2005

> <r_lp_Energy>
24.3681

> <b_lp_Chiralities_Consistent>
1

> <s_lp_Variant>
AV-unprocessed.smi:2212-2

> <Gold.Version>
5.8.1

> <Gold.Id.Protein>
6NUR|6NUR_protein|mol2

> <Gold.PLP.Fitness>
37.1951

> <Gold.PLP.PLP>
-24.3875

> <Gold.PLP.part.hbond>
-3.0000

> <Gold.PLP.part.metal>
0.0000

> <Gold.PLP.part.buried>
-4.6354

> <Gold.PLP.part.nonpolar>
-17.2453

> <Gold.PLP.part.repulsive>
1.7109

> <Gold.PLP.ligand.clash>
0.0000

> <Gold.PLP.ligand.torsion>
0.7060

> <Gold.PLP.Chemscore.Hbond>
3.7301

> <Gold.PLP.Chemscore.CHOScore>
0.8959

> <Gold.PLP.Chemscore.Metal>
0.0000

> <Gold.Chemscore.Hbonds>
donor molecule, donor type, donor heavy atom, donor atom, acceptor molecule, acceptor atom, score
      L1  H     5    22       P1  7948  1.00
      L1  H     8    32       P1  7948  0.64
      L1  H    10    23       P1 10175  2.00
      L1  C    12    25       P1  8028  0.70

> <Gold.PLP.Chemscore.Internal.Correction>
0.3417

> <Gold.Rescore>
     Score         DG    S(hbond)    S(metal)    S(lipo)     H(rot)  DE(clash)    DE(int)     intcor
     15.63     -16.60       2.92        0.00      47.98       1.67       0.40       0.57       ----

> <Gold.Chemscore.Fitness>
15.6262

> <Gold.Chemscore.DG>
-16.5976

> <Gold.Chemscore.ZeroCoef>
-5.4800

> <Gold.Chemscore.Hbond>
2.9241

> <Gold.Chemscore.Metal>
0.0000

> <Gold.Chemscore.Lipo>
47.9798

> <Gold.Chemscore.Internal_Hbond>
0.0000

> <Gold.Chemscore.DEClash>
0.4025

> <Gold.Chemscore.DEInternal>
0.5689

> <Gold.Chemscore.Rot>
1.6650

> <Gold.Chemscore.Internal.Correction>
   9.000000E+99

> <Gold.Chemscore.Hbonds>
donor molecule, donor type, donor heavy atom, donor atom, acceptor molecule, acceptor atom, score
      L1  H     5    22       P1  7948  1.00
      L1  H     8    32       P1  7948  0.62
      L1  H    10    23       P1 10175  0.96

> <Gold.Chemscore.Hbond.Weighted>
-9.7665

> <Gold.Chemscore.Metal.Weighted>
-0.0000

> <Gold.Chemscore.Lipo.Weighted>
-5.6136

> <Gold.Chemscore.Internal_Hbond.Weighted>
0.0000

> <Gold.Chemscore.DEClash.Weighted>
0.4025

> <Gold.Chemscore.DEInternal.Weighted>
0.5689

> <Gold.Chemscore.Rot.Weighted>
4.2625

> <Gold.Chemscore.Internal.Correction.Weighted>
   9.000000E+99

> <Gold.Protein.RotatedTorsions>
[ 6907 6896 6895 6894 ] final  -51.14 input  -60.11 | X-H torsion
[ 7974 7965 7964 7962 ] final  -50.57 input  175.53 | X-H torsion
[ 8008 7997 7996 7995 ] final   93.21 input   59.86 | X-H torsion
[ 10167 10162 10161 10158 ] final   15.59 input  -65.29 | X-H torsion
[ 10718 10713 10712 10709 ] final  162.93 input   66.30 | X-H torsion
[ 10763 10752 10751 10750 ] final -165.16 input  -60.55 | X-H torsion
[ 11005 11000 10999 10996 ] final  -84.38 input  -57.11 | X-H torsion

> <Gold.Protein.ActiveResidues>
 VAL166  LYS551  ARG553  GLY616  TRP617  ASP618  TYR619  PRO620  LYS621  CYS622 
 ASP623  PHE694  ASN695  SER759  ASP760  ASP761  ALA762  ILE779  LEU786  VAL792 
 PHE793  MET794  SER795  GLU796  ALA797  LYS798  CYS799  TRP800  GLU811  SER814 

> <Gold.Protein.RotatedAtoms>
  150.8639  134.7998  159.7103 H   0  0  0  0  0  0  0  0  0  0  0  0  # atno 6907 bound_to 6896
  152.4667  134.5055  159.9747 H   0  0  0  0  0  0  0  0  0  0  0  0  # atno 6908 bound_to 6896
  151.5154  133.3438  159.2928 H   0  0  0  0  0  0  0  0  0  0  0  0  # atno 6909 bound_to 6896
  145.9283  140.7772  142.9612 H   0  0  0  0  0  0  0  0  0  0  0  0  # atno 7974 bound_to 7965
  156.0442  140.3316  155.7277 H   0  0  0  0  0  0  0  0  0  0  0  0  # atno 8008 bound_to 7997
  155.5699  140.0627  157.2826 H   0  0  0  0  0  0  0  0  0  0  0  0  # atno 8009 bound_to 7997
  154.4406  140.1862  156.0857 H   0  0  0  0  0  0  0  0  0  0  0  0  # atno 8010 bound_to 7997
  140.5857  143.8895  150.6828 H   0  0  0  0  0  0  0  0  0  0  0  0  # atno 10167 bound_to 10162
  157.1157  131.0479  151.2437 H   0  0  0  0  0  0  0  0  0  0  0  0  # atno 10718 bound_to 10713
  154.6959  135.2979  154.9412 H   0  0  0  0  0  0  0  0  0  0  0  0  # atno 10763 bound_to 10752
  154.0360  135.6664  153.4789 H   0  0  0  0  0  0  0  0  0  0  0  0  # atno 10764 bound_to 10752
  153.0645  135.5096  154.8076 H   0  0  0  0  0  0  0  0  0  0  0  0  # atno 10765 bound_to 10752
  141.1651  133.7343  156.8860 H   0  0  0  0  0  0  0  0  0  0  0  0  # atno 11005 bound_to 11000
  144.6761  140.2087  143.7379 LP  0  0  0  0  0  0  0  0  0  0  0  0  # atno 17320 bound_to 7965
  145.8459  139.2152  143.1800 LP  0  0  0  0  0  0  0  0  0  0  0  0  # atno 17321 bound_to 7965
  140.2405  143.3667  152.1490 LP  0  0  0  0  0  0  0  0  0  0  0  0  # atno 17342 bound_to 10162
  139.5196  144.7021  151.5461 LP  0  0  0  0  0  0  0  0  0  0  0  0  # atno 17343 bound_to 10162
  157.4521  130.7604  149.7160 LP  0  0  0  0  0  0  0  0  0  0  0  0  # atno 17370 bound_to 10713
  155.9840  130.3995  150.3334 LP  0  0  0  0  0  0  0  0  0  0  0  0  # atno 17371 bound_to 10713
  140.1682  134.9118  157.2800 LP  0  0  0  0  0  0  0  0  0  0  0  0  # atno 17394 bound_to 11000
  140.2532  134.3658  155.7434 LP  0  0  0  0  0  0  0  0  0  0  0  0  # atno 17395 bound_to 11000

$$$$
