AV-unprocessed.smi:2482|AV-procd|sdf|9776|dock3
  -GOLD-   2272013413D 1   1.00000     0.00000
 Structure written by MMmdl.
 35 36  0  0  0  0  0  0  0  0  2 V2000
  149.1434  141.4787  154.6118 C   0  0  0  0  0  0  0  0  0  0  0  0
  149.7659  140.0969  154.7231 C   0  0  0  0  0  0  0  0  0  0  0  0
  151.1169  140.0920  154.7031 N   0  0  0  0  0  0  0  0  0  0  0  0
  151.7550  138.9076  154.7934 C   0  0  0  0  0  0  0  0  0  0  0  0
  151.0847  137.6765  154.9157 C   0  0  0  0  0  0  0  0  0  0  0  0
  149.6711  137.6770  154.9520 C   0  0  0  0  0  0  0  0  0  0  0  0
  148.9067  136.4832  155.0455 N   0  0  0  0  0  0  0  0  0  0  0  0
  149.3414  135.2127  154.9624 C   0  0  0  0  0  0  0  0  0  0  0  0
  150.5146  134.8946  154.7660 O   0  0  0  0  0  0  0  0  0  0  0  0
  148.2634  134.1260  155.1492 C   0  0  1  0  0  0  0  0  0  0  0  0
  147.0730  134.2242  154.1653 C   0  0  0  0  0  0  0  0  0  0  0  0
  147.4838  133.8528  152.7905 N   0  3  2  0  0  0  0  0  0  0  0  0
  146.3888  134.0000  151.8083 C   0  0  0  0  0  0  0  0  0  0  0  0
  148.0919  132.5033  152.7725 C   0  0  0  0  0  0  0  0  0  0  0  0
  149.2695  132.4337  153.7583 C   0  0  0  0  0  0  0  0  0  0  0  0
  148.8326  132.8145  155.0637 O   0  0  0  0  0  0  0  0  0  0  0  0
  148.9932  138.9135  154.8386 C   0  0  0  0  0  0  0  0  0  0  0  0
  147.2608  138.9581  154.8570 Cl  0  0  0  0  0  0  0  0  0  0  0  0
  148.0560  141.4672  154.6558 H   0  0  0  0  0  0  0  0  0  0  0  0
  149.4321  141.9433  153.6686 H   0  0  0  0  0  0  0  0  0  0  0  0
  149.4990  142.1137  155.4235 H   0  0  0  0  0  0  0  0  0  0  0  0
  152.8341  138.9416  154.7605 H   0  0  0  0  0  0  0  0  0  0  0  0
  151.6571  136.7624  154.9645 H   0  0  0  0  0  0  0  0  0  0  0  0
  147.9404  136.6067  155.3125 H   0  0  0  0  0  0  0  0  0  0  0  0
  147.8796  134.2458  156.1628 H   0  0  0  0  0  0  0  0  0  0  0  0
  146.2733  133.5582  154.4932 H   0  0  0  0  0  0  0  0  0  0  0  0
  146.6533  135.2314  154.1684 H   0  0  0  0  0  0  0  0  0  0  0  0
  145.5592  133.3314  152.0420 H   0  0  0  0  0  0  0  0  0  0  0  0
  146.7411  133.7708  150.8020 H   0  0  0  0  0  0  0  0  0  0  0  0
  146.0130  135.0237  151.8039 H   0  0  0  0  0  0  0  0  0  0  0  0
  147.3392  131.7589  153.0368 H   0  0  0  0  0  0  0  0  0  0  0  0
  148.4385  132.2666  151.7660 H   0  0  0  0  0  0  0  0  0  0  0  0
  149.6565  131.4156  153.8050 H   0  0  0  0  0  0  0  0  0  0  0  0
  150.0950  133.0620  153.4214 H   0  0  0  0  0  0  0  0  0  0  0  0
  148.2066  134.5040  152.5172 H   0  0  0  0  0  0  0  0  0  0  0  0
  1  2  1  0  0  0  0
  1 19  1  0  0  0  0
  1 20  1  0  0  0  0
  1 21  1  0  0  0  0
  2 17  1  0  0  0  0
  2  3  2  0  0  0  0
  3  4  1  0  0  0  0
  4  5  2  0  0  0  0
  4 22  1  0  0  0  0
  5  6  1  0  0  0  0
  5 23  1  0  0  0  0
  6  7  1  0  0  0  0
  6 17  2  0  0  0  0
  7  8  1  0  0  0  0
  7 24  1  0  0  0  0
  8  9  2  0  0  0  0
  8 10  1  0  0  0  0
 10 16  1  0  0  0  0
 10 11  1  0  0  0  0
 10 25  1  0  0  0  0
 11 12  1  0  0  0  0
 11 26  1  0  0  0  0
 11 27  1  0  0  0  0
 12 13  1  0  0  0  0
 12 14  1  0  0  0  0
 12 35  1  0  0  0  0
 13 28  1  0  0  0  0
 13 29  1  0  0  0  0
 13 30  1  0  0  0  0
 14 15  1  0  0  0  0
 14 31  1  0  0  0  0
 14 32  1  0  0  0  0
 15 16  1  0  0  0  0
 15 33  1  0  0  0  0
 15 34  1  0  0  0  0
 17 18  1  0  0  0  0
M  CHG  1  12   1
M  END
> <s_m_source_file>
AV-unprocessed.smi

> <i_m_source_file_index>
2482

> <i_lp_mmshare_version>
43012

> <i_f3d_flags>
0

> <s_epik_input>
W0NIM11jMW5bY0hdW2NIXWMoYzFDbClbTkhdQyg9TylbQ0BASF0yW0NIMl1OKFtDSDNdKVtDSDJdW0NIMl1PMg==

> <s_epik_cmdline>
J2VwaWtfcHl0aG9uJywgJy1waCcsICc3LjAnLCAnLXRuJywgJzgnLCAnLW1hJywgJzIwMCcsICctbWV0YWxfYmluZGluZycsICctaW1hZScsICc8aW5maWxlLm1hZT4nLCAnLW9tYWUnLCAnPG91dGZpbGUubWFlPic=

> <r_epik_Ionization_Penalty>
0.314226

> <r_epik_Ionization_Penalty_Charging>
0.314023

> <r_epik_Ionization_Penalty_Neutral>
0.00020299

> <r_epik_State_Penalty>
0.308208

> <r_epik_Charging_Adjusted_Penalty>
0.62223

> <i_epik_Tot_Q>
1

> <i_epik_Tot_abs_Q>
1

> <r_epik_Metal_State_Penalty>
0.314444

> <b_epik_Metal_Only>
0

> <s_lp_Force_Field>
OPLS_2005

> <r_lp_Energy>
21.5381

> <b_lp_Chiralities_Consistent>
1

> <s_lp_Variant>
AV-unprocessed.smi:2482-2

> <Gold.Version>
5.8.1

> <Gold.Id.Protein>
6NUR|6NUR_protein|mol2

> <Gold.PLP.Fitness>
36.1054

> <Gold.PLP.PLP>
-27.1803

> <Gold.PLP.part.hbond>
-2.3519

> <Gold.PLP.part.metal>
0.0000

> <Gold.PLP.part.buried>
-3.0122

> <Gold.PLP.part.nonpolar>
-22.7184

> <Gold.PLP.part.repulsive>
0.2456

> <Gold.PLP.ligand.clash>
0.0000

> <Gold.PLP.ligand.torsion>
0.0337

> <Gold.PLP.Chemscore.Hbond>
2.9913

> <Gold.PLP.Chemscore.CHOScore>
0.0000

> <Gold.PLP.Chemscore.Metal>
0.0000

> <Gold.Chemscore.Hbonds>
donor molecule, donor type, donor heavy atom, donor atom, acceptor molecule, acceptor atom, score
      L1  H    12    35       P1  7948  2.00
      P1  H  7989  7998       L1     3  0.98

> <Gold.PLP.Chemscore.Internal.Correction>
0.0188

> <Gold.Rescore>
     Score         DG    S(hbond)    S(metal)    S(lipo)     H(rot)  DE(clash)    DE(int)     intcor
     13.84     -15.73       1.60        0.00      63.77       1.00       0.01       1.89       ----

> <Gold.Chemscore.Fitness>
13.8365

> <Gold.Chemscore.DG>
-15.7307

> <Gold.Chemscore.ZeroCoef>
-5.4800

> <Gold.Chemscore.Hbond>
1.6018

> <Gold.Chemscore.Metal>
0.0000

> <Gold.Chemscore.Lipo>
63.7661

> <Gold.Chemscore.Internal_Hbond>
0.0000

> <Gold.Chemscore.DEClash>
0.0077

> <Gold.Chemscore.DEInternal>
1.8864

> <Gold.Chemscore.Rot>
1.0000

> <Gold.Chemscore.Internal.Correction>
   9.000000E+99

> <Gold.Chemscore.Hbonds>
donor molecule, donor type, donor heavy atom, donor atom, acceptor molecule, acceptor atom, score
      L1  H    12    35       P1  7948  0.25
      P1  H  7989  7998       L1     3  0.54

> <Gold.Chemscore.Hbond.Weighted>
-5.3500

> <Gold.Chemscore.Metal.Weighted>
-0.0000

> <Gold.Chemscore.Lipo.Weighted>
-7.4606

> <Gold.Chemscore.Internal_Hbond.Weighted>
0.0000

> <Gold.Chemscore.DEClash.Weighted>
0.0077

> <Gold.Chemscore.DEInternal.Weighted>
1.8864

> <Gold.Chemscore.Rot.Weighted>
2.5600

> <Gold.Chemscore.Internal.Correction.Weighted>
   9.000000E+99

> <Gold.Protein.RotatedTorsions>
[ 6907 6896 6895 6894 ] final  130.31 input  -60.11 | X-H torsion
[ 7974 7965 7964 7962 ] final   75.78 input  175.53 | X-H torsion
[ 8008 7997 7996 7995 ] final  118.88 input   59.86 | X-H torsion
[ 10167 10162 10161 10158 ] final  -70.07 input  -65.29 | X-H torsion
[ 10718 10713 10712 10709 ] final   68.92 input   66.30 | X-H torsion
[ 10763 10752 10751 10750 ] final  127.90 input  -60.55 | X-H torsion
[ 11005 11000 10999 10996 ] final  -37.30 input  -57.11 | X-H torsion

> <Gold.Protein.ActiveResidues>
 VAL166  LYS551  ARG553  GLY616  TRP617  ASP618  TYR619  PRO620  LYS621  CYS622 
 ASP623  PHE694  ASN695  SER759  ASP760  ASP761  ALA762  ILE779  LEU786  VAL792 
 PHE793  MET794  SER795  GLU796  ALA797  LYS798  CYS799  TRP800  GLU811  SER814 

> <Gold.Protein.RotatedAtoms>
  152.3539  133.6213  159.5964 H   0  0  0  0  0  0  0  0  0  0  0  0  # atno 6907 bound_to 6896
  150.7555  133.9531  159.3501 H   0  0  0  0  0  0  0  0  0  0  0  0  # atno 6908 bound_to 6896
  151.7379  135.0861  160.0362 H   0  0  0  0  0  0  0  0  0  0  0  0  # atno 6909 bound_to 6896
  145.7112  139.2615  143.1649 H   0  0  0  0  0  0  0  0  0  0  0  0  # atno 7974 bound_to 7965
  156.2568  140.2865  156.0904 H   0  0  0  0  0  0  0  0  0  0  0  0  # atno 8008 bound_to 7997
  155.1469  140.0396  157.2829 H   0  0  0  0  0  0  0  0  0  0  0  0  # atno 8009 bound_to 7997
  154.6489  140.2540  155.7243 H   0  0  0  0  0  0  0  0  0  0  0  0  # atno 8010 bound_to 7997
  140.5381  143.2316  151.7139 H   0  0  0  0  0  0  0  0  0  0  0  0  # atno 10167 bound_to 10162
  157.6316  130.9398  150.0442 H   0  0  0  0  0  0  0  0  0  0  0  0  # atno 10718 bound_to 10713
  153.7169  135.3259  155.3258 H   0  0  0  0  0  0  0  0  0  0  0  0  # atno 10763 bound_to 10752
  154.8368  135.4490  154.1257 H   0  0  0  0  0  0  0  0  0  0  0  0  # atno 10764 bound_to 10752
  153.2366  135.6966  153.7909 H   0  0  0  0  0  0  0  0  0  0  0  0  # atno 10765 bound_to 10752
  140.9941  133.6989  156.1903 H   0  0  0  0  0  0  0  0  0  0  0  0  # atno 11005 bound_to 11000
  146.0711  140.7868  142.9688 LP  0  0  0  0  0  0  0  0  0  0  0  0  # atno 17320 bound_to 7965
  144.6941  140.3343  143.7210 LP  0  0  0  0  0  0  0  0  0  0  0  0  # atno 17321 bound_to 7965
  139.4978  144.4011  152.0181 LP  0  0  0  0  0  0  0  0  0  0  0  0  # atno 17342 bound_to 10162
  140.3118  144.3530  150.6032 LP  0  0  0  0  0  0  0  0  0  0  0  0  # atno 17343 bound_to 10162
  156.1524  130.3642  149.9418 LP  0  0  0  0  0  0  0  0  0  0  0  0  # atno 17370 bound_to 10713
  156.7435  130.9088  151.3633 LP  0  0  0  0  0  0  0  0  0  0  0  0  # atno 17371 bound_to 10713
  140.6994  134.4581  157.5586 LP  0  0  0  0  0  0  0  0  0  0  0  0  # atno 17394 bound_to 11000
  139.9006  134.8565  156.1912 LP  0  0  0  0  0  0  0  0  0  0  0  0  # atno 17395 bound_to 11000

$$$$
