AV-unprocessed.smi:2809|AV-procd|sdf|10826|dock9
  -GOLD-   2272015263D 1   1.00000     0.00000
 Structure written by MMmdl.
 44 45  0  0  0  0  0  0  0  0  1 V2000
  152.5329  144.1208  162.0660 C   0  0  0  0  0  0  0  0  0  0  0  0
  152.2729  144.1741  160.5567 C   0  0  0  0  0  0  0  0  0  0  0  0
  152.4404  142.8192  159.8952 C   0  0  0  0  0  0  0  0  0  0  0  0
  153.4655  141.9472  160.3121 C   0  0  0  0  0  0  0  0  0  0  0  0
  153.6201  140.6918  159.6936 C   0  0  0  0  0  0  0  0  0  0  0  0
  152.7587  140.2877  158.6533 C   0  0  0  0  0  0  0  0  0  0  0  0
  152.9875  139.0461  158.1010 O   0  0  0  0  0  0  0  0  0  0  0  0
  152.0912  138.5746  157.1020 C   0  0  0  0  0  0  0  0  0  0  0  0
  152.7786  138.6184  155.7271 C   0  0  1  0  0  0  0  0  0  0  0  0
  154.0404  137.9955  155.8616 O   0  0  0  0  0  0  0  0  0  0  0  0
  151.9550  137.9343  154.6132 C   0  0  0  0  0  0  0  0  0  0  0  0
  150.5061  138.0402  154.8525 N   0  0  0  0  0  0  0  0  0  0  0  0
  149.8534  136.8605  155.2457 C   0  0  0  0  0  0  0  0  0  0  0  0
  148.5815  136.8323  155.4762 N   0  0  0  0  0  0  0  0  0  0  0  0
  147.8208  137.9961  155.3305 C   0  0  0  0  0  0  0  0  0  0  0  0
  146.3373  137.8507  155.6200 C   0  0  0  0  0  0  0  0  0  0  0  0
  148.3921  139.1710  154.9489 C   0  0  0  0  0  0  0  0  0  0  0  0
  147.6131  140.4677  154.7675 C   0  0  0  0  0  0  0  0  0  0  0  0
  149.8387  139.2178  154.6811 C   0  0  0  0  0  0  0  0  0  0  0  0
  150.4192  140.2439  154.3216 O   0  0  0  0  0  0  0  0  0  0  0  0
  151.7251  141.1666  158.2421 C   0  0  0  0  0  0  0  0  0  0  0  0
  151.5700  142.4228  158.8601 C   0  0  0  0  0  0  0  0  0  0  0  0
  152.4055  145.1054  162.5163 H   0  0  0  0  0  0  0  0  0  0  0  0
  153.5484  143.7861  162.2794 H   0  0  0  0  0  0  0  0  0  0  0  0
  151.8430  143.4367  162.5609 H   0  0  0  0  0  0  0  0  0  0  0  0
  151.2638  144.5423  160.3678 H   0  0  0  0  0  0  0  0  0  0  0  0
  152.9519  144.8887  160.0900 H   0  0  0  0  0  0  0  0  0  0  0  0
  154.1368  142.2379  161.1070 H   0  0  0  0  0  0  0  0  0  0  0  0
  154.4105  140.0319  160.0203 H   0  0  0  0  0  0  0  0  0  0  0  0
  151.8199  137.5422  157.3288 H   0  0  0  0  0  0  0  0  0  0  0  0
  151.1716  139.1625  157.0828 H   0  0  0  0  0  0  0  0  0  0  0  0
  152.9568  139.6648  155.4769 H   0  0  0  0  0  0  0  0  0  0  0  0
  154.1952  137.8304  156.7793 H   0  0  0  0  0  0  0  0  0  0  0  0
  152.2378  138.3243  153.6331 H   0  0  0  0  0  0  0  0  0  0  0  0
  152.2215  136.8766  154.5670 H   0  0  0  0  0  0  0  0  0  0  0  0
  150.4904  135.9790  155.3372 H   0  0  0  0  0  0  0  0  0  0  0  0
  146.0449  138.4965  156.4481 H   0  0  0  0  0  0  0  0  0  0  0  0
  146.0834  136.8251  155.8911 H   0  0  0  0  0  0  0  0  0  0  0  0
  145.7487  138.1193  154.7423 H   0  0  0  0  0  0  0  0  0  0  0  0
  147.6633  140.7921  153.7278 H   0  0  0  0  0  0  0  0  0  0  0  0
  148.0405  141.2550  155.3895 H   0  0  0  0  0  0  0  0  0  0  0  0
  146.5614  140.3775  155.0343 H   0  0  0  0  0  0  0  0  0  0  0  0
  151.0370  140.9011  157.4542 H   0  0  0  0  0  0  0  0  0  0  0  0
  150.7783  143.0823  158.5359 H   0  0  0  0  0  0  0  0  0  0  0  0
  1  2  1  0  0  0  0
  1 23  1  0  0  0  0
  1 24  1  0  0  0  0
  1 25  1  0  0  0  0
  2  3  1  0  0  0  0
  2 26  1  0  0  0  0
  2 27  1  0  0  0  0
  3 22  1  0  0  0  0
  3  4  2  0  0  0  0
  4  5  1  0  0  0  0
  4 28  1  0  0  0  0
  5  6  2  0  0  0  0
  5 29  1  0  0  0  0
  6  7  1  0  0  0  0
  6 21  1  0  0  0  0
  7  8  1  0  0  0  0
  8  9  1  0  0  0  0
  8 30  1  0  0  0  0
  8 31  1  0  0  0  0
  9 10  1  0  0  0  0
  9 11  1  0  0  0  0
  9 32  1  0  0  0  0
 10 33  1  0  0  0  0
 11 12  1  0  0  0  0
 11 34  1  0  0  0  0
 11 35  1  0  0  0  0
 12 19  1  0  0  0  0
 12 13  1  0  0  0  0
 13 14  2  0  0  0  0
 13 36  1  0  0  0  0
 14 15  1  0  0  0  0
 15 16  1  0  0  0  0
 15 17  2  0  0  0  0
 16 37  1  0  0  0  0
 16 38  1  0  0  0  0
 16 39  1  0  0  0  0
 17 18  1  0  0  0  0
 17 19  1  0  0  0  0
 18 40  1  0  0  0  0
 18 41  1  0  0  0  0
 18 42  1  0  0  0  0
 19 20  2  0  0  0  0
 21 22  2  0  0  0  0
 21 43  1  0  0  0  0
 22 44  1  0  0  0  0
M  END
> <s_m_source_file>
AV-unprocessed.smi

> <i_m_source_file_index>
2809

> <i_lp_mmshare_version>
43012

> <i_f3d_flags>
0

> <s_epik_input>
W0NIM11bQ0gyXWMxW2NIXVtjSF1jKFtjSF1bY0hdMSlPW0NIMl1bQ0BIXShbT0hdKVtDSDJdbjJbY0hdbmMoW0NIM10pYyhbQ0gzXSljMj1P

> <s_epik_cmdline>
J2VwaWtfcHl0aG9uJywgJy1waCcsICc3LjAnLCAnLXRuJywgJzgnLCAnLW1hJywgJzIwMCcsICctbWV0YWxfYmluZGluZycsICctaW1hZScsICc8aW5maWxlLm1hZT4nLCAnLW9tYWUnLCAnPG91dGZpbGUubWFlPic=

> <r_lp_tautomer_probability>
1

> <r_epik_Ionization_Penalty>
3.74127e-05

> <r_epik_Ionization_Penalty_Charging>
8.43242e-08

> <r_epik_Ionization_Penalty_Neutral>
3.73284e-05

> <r_epik_State_Penalty>
-0

> <r_epik_Charging_Adjusted_Penalty>
8.43242e-08

> <i_epik_Tot_Q>
0

> <i_epik_Tot_abs_Q>
0

> <r_epik_Metal_State_Penalty>
-0

> <b_epik_Metal_Only>
0

> <s_lp_Force_Field>
OPLS_2005

> <r_lp_Energy>
23.3526

> <b_lp_Chiralities_Consistent>
1

> <s_lp_Variant>
AV-unprocessed.smi:2809-2

> <Gold.Version>
5.8.1

> <Gold.Id.Protein>
6NUR|6NUR_protein|mol2

> <Gold.PLP.Fitness>
42.8282

> <Gold.PLP.PLP>
-41.2304

> <Gold.PLP.part.hbond>
-3.1590

> <Gold.PLP.part.metal>
0.0000

> <Gold.PLP.part.buried>
-4.4815

> <Gold.PLP.part.nonpolar>
-33.9400

> <Gold.PLP.part.repulsive>
0.2316

> <Gold.PLP.ligand.clash>
0.0000

> <Gold.PLP.ligand.torsion>
1.1989

> <Gold.PLP.Chemscore.Hbond>
1.3131

> <Gold.PLP.Chemscore.CHOScore>
0.0000

> <Gold.PLP.Chemscore.Metal>
0.0000

> <Gold.Chemscore.Hbonds>
donor molecule, donor type, donor heavy atom, donor atom, acceptor molecule, acceptor atom, score
      P1  H  7989  7998       L1    20  1.00
      P1  H  7997  8009       L1     7  0.15

> <Gold.PLP.Chemscore.Internal.Correction>
0.0562

> <Gold.Rescore>
     Score         DG    S(hbond)    S(metal)    S(lipo)     H(rot)  DE(clash)    DE(int)     intcor
     13.76     -14.97       0.96        0.00     107.72       2.47       0.04       1.16       ----

> <Gold.Chemscore.Fitness>
13.7628

> <Gold.Chemscore.DG>
-14.9664

> <Gold.Chemscore.ZeroCoef>
-5.4800

> <Gold.Chemscore.Hbond>
0.9567

> <Gold.Chemscore.Metal>
0.0000

> <Gold.Chemscore.Lipo>
107.7194

> <Gold.Chemscore.Internal_Hbond>
0.0000

> <Gold.Chemscore.DEClash>
0.0424

> <Gold.Chemscore.DEInternal>
1.1612

> <Gold.Chemscore.Rot>
2.4657

> <Gold.Chemscore.Internal.Correction>
   9.000000E+99

> <Gold.Chemscore.Hbonds>
donor molecule, donor type, donor heavy atom, donor atom, acceptor molecule, acceptor atom, score
      P1  H  7989  7998       L1    20  0.95

> <Gold.Chemscore.Hbond.Weighted>
-3.1953

> <Gold.Chemscore.Metal.Weighted>
-0.0000

> <Gold.Chemscore.Lipo.Weighted>
-12.6032

> <Gold.Chemscore.Internal_Hbond.Weighted>
0.0000

> <Gold.Chemscore.DEClash.Weighted>
0.0424

> <Gold.Chemscore.DEInternal.Weighted>
1.1612

> <Gold.Chemscore.Rot.Weighted>
6.3121

> <Gold.Chemscore.Internal.Correction.Weighted>
   9.000000E+99

> <Gold.Protein.RotatedTorsions>
[ 6907 6896 6895 6894 ] final -139.22 input  -60.11 | X-H torsion
[ 7974 7965 7964 7962 ] final -159.53 input  175.53 | X-H torsion
[ 8008 7997 7996 7995 ] final  176.49 input   59.86 | X-H torsion
[ 10167 10162 10161 10158 ] final    1.26 input  -65.29 | X-H torsion
[ 10718 10713 10712 10709 ] final  149.06 input   66.30 | X-H torsion
[ 10763 10752 10751 10750 ] final -164.90 input  -60.55 | X-H torsion
[ 11005 11000 10999 10996 ] final  177.32 input  -57.11 | X-H torsion

> <Gold.Protein.ActiveResidues>
 VAL166  LYS551  ARG553  GLY616  TRP617  ASP618  TYR619  PRO620  LYS621  CYS622 
 ASP623  PHE694  ASN695  SER759  ASP760  ASP761  ALA762  ILE779  LEU786  VAL792 
 PHE793  MET794  SER795  GLU796  ALA797  LYS798  CYS799  TRP800  GLU811  SER814 

> <Gold.Protein.RotatedAtoms>
  151.0450  133.5673  159.2647 H   0  0  0  0  0  0  0  0  0  0  0  0  # atno 6907 bound_to 6896
  151.2706  135.0682  159.9142 H   0  0  0  0  0  0  0  0  0  0  0  0  # atno 6908 bound_to 6896
  152.5371  134.0181  159.8023 H   0  0  0  0  0  0  0  0  0  0  0  0  # atno 6909 bound_to 6896
  144.7461  140.3671  143.6084 H   0  0  0  0  0  0  0  0  0  0  0  0  # atno 7974 bound_to 7965
  156.0759  140.1382  156.9772 H   0  0  0  0  0  0  0  0  0  0  0  0  # atno 8008 bound_to 7997
  154.4557  140.0962  156.6801 H   0  0  0  0  0  0  0  0  0  0  0  0  # atno 8009 bound_to 7997
  155.5154  140.3455  155.4398 H   0  0  0  0  0  0  0  0  0  0  0  0  # atno 8010 bound_to 7997
  140.6691  143.7098  150.7886 H   0  0  0  0  0  0  0  0  0  0  0  0  # atno 10167 bound_to 10162
  157.3008  131.0870  151.1391 H   0  0  0  0  0  0  0  0  0  0  0  0  # atno 10718 bound_to 10713
  154.6984  135.2983  154.9377 H   0  0  0  0  0  0  0  0  0  0  0  0  # atno 10763 bound_to 10752
  154.0317  135.6669  153.4785 H   0  0  0  0  0  0  0  0  0  0  0  0  # atno 10764 bound_to 10752
  153.0663  135.5086  154.8114 H   0  0  0  0  0  0  0  0  0  0  0  0  # atno 10765 bound_to 10752
  140.3828  134.6931  157.4461 H   0  0  0  0  0  0  0  0  0  0  0  0  # atno 11005 bound_to 11000
  145.7116  139.1686  143.2535 LP  0  0  0  0  0  0  0  0  0  0  0  0  # atno 17320 bound_to 7965
  146.1343  140.7144  142.9397 LP  0  0  0  0  0  0  0  0  0  0  0  0  # atno 17321 bound_to 7965
  140.0781  143.4996  152.2545 LP  0  0  0  0  0  0  0  0  0  0  0  0  # atno 17342 bound_to 10162
  139.5951  144.7564  151.3305 LP  0  0  0  0  0  0  0  0  0  0  0  0  # atno 17343 bound_to 10162
  157.2751  130.6723  149.6038 LP  0  0  0  0  0  0  0  0  0  0  0  0  # atno 17370 bound_to 10713
  155.9671  130.4467  150.5551 LP  0  0  0  0  0  0  0  0  0  0  0  0  # atno 17371 bound_to 10713
  140.0466  134.6191  155.8914 LP  0  0  0  0  0  0  0  0  0  0  0  0  # atno 17394 bound_to 11000
  141.1918  133.6573  156.5471 LP  0  0  0  0  0  0  0  0  0  0  0  0  # atno 17395 bound_to 11000

$$$$
