AV-unprocessed.smi:3322|AV-procd|sdf|12774|dock4
  -GOLD-   2272019113D 1   1.00000     0.00000
 Structure written by MMmdl.
 39 40  0  0  0  0  0  0  0  0  2 V2000
  148.1622  141.1548  153.9068 C   0  0  0  0  0  0  0  0  0  0  0  0
  149.1863  140.5191  154.8621 C   0  0  1  0  0  0  0  0  0  0  0  0
  149.4263  141.4410  155.9982 N   0  3  0  0  0  0  0  0  0  0  0  0
  150.7537  141.3184  156.6381 C   0  0  0  0  0  0  0  0  0  0  0  0
  150.6614  141.5801  158.1476 C   0  0  0  0  0  0  0  0  0  0  0  0
  151.4382  142.7405  158.5373 N   0  0  0  0  0  0  0  0  0  0  0  0
  151.6060  143.9289  157.8584 C   0  0  0  0  0  0  0  0  0  0  0  0
  152.4208  144.7184  158.6182 C   0  0  0  0  0  0  0  0  0  0  0  0
  152.7052  143.9141  159.7572 C   0  0  0  0  0  0  0  0  0  0  0  0
  152.1154  142.7303  159.7055 N   0  0  0  0  0  0  0  0  0  0  0  0
  148.6875  139.1370  155.3394 C   0  0  0  0  0  0  0  0  0  0  0  0
  147.5693  139.0731  155.8542 O   0  0  0  0  0  0  0  0  0  0  0  0
  149.4661  138.0369  155.1828 N   0  0  0  0  0  0  0  0  0  0  0  0
  149.1778  136.6782  155.6575 C   0  0  0  0  0  0  0  0  0  0  0  0
  150.2570  136.2751  156.6798 C   0  0  0  0  0  0  0  0  0  0  0  0
  151.5472  136.3658  156.0830 O   0  0  0  0  0  0  0  0  0  0  0  0
  151.8456  137.6725  155.6002 C   0  0  0  0  0  0  0  0  0  0  0  0
  150.7927  138.0857  154.5574 C   0  0  0  0  0  0  0  0  0  0  0  0
  147.9802  140.5310  153.0316 H   0  0  0  0  0  0  0  0  0  0  0  0
  148.5139  142.1218  153.5457 H   0  0  0  0  0  0  0  0  0  0  0  0
  147.2028  141.3162  154.4003 H   0  0  0  0  0  0  0  0  0  0  0  0
  150.1405  140.4185  154.3458 H   0  0  0  0  0  0  0  0  0  0  0  0
  149.3407  142.3874  155.6562 H   0  0  0  0  0  0  0  0  0  0  0  0
  151.1581  140.3205  156.4640 H   0  0  0  0  0  0  0  0  0  0  0  0
  151.4398  142.0288  156.1751 H   0  0  0  0  0  0  0  0  0  0  0  0
  149.6248  141.7386  158.4491 H   0  0  0  0  0  0  0  0  0  0  0  0
  151.0263  140.7163  158.7052 H   0  0  0  0  0  0  0  0  0  0  0  0
  151.1368  144.1134  156.9029 H   0  0  0  0  0  0  0  0  0  0  0  0
  152.7623  145.7181  158.3941 H   0  0  0  0  0  0  0  0  0  0  0  0
  153.3181  144.1536  160.6138 H   0  0  0  0  0  0  0  0  0  0  0  0
  148.1998  136.5622  156.1179 H   0  0  0  0  0  0  0  0  0  0  0  0
  149.1915  135.9925  154.8091 H   0  0  0  0  0  0  0  0  0  0  0  0
  150.2121  136.9113  157.5651 H   0  0  0  0  0  0  0  0  0  0  0  0
  150.0958  135.2504  157.0145 H   0  0  0  0  0  0  0  0  0  0  0  0
  151.8733  138.3814  156.4294 H   0  0  0  0  0  0  0  0  0  0  0  0
  152.8393  137.6648  155.1521 H   0  0  0  0  0  0  0  0  0  0  0  0
  150.8164  137.4001  153.7090 H   0  0  0  0  0  0  0  0  0  0  0  0
  151.0430  139.0682  154.1556 H   0  0  0  0  0  0  0  0  0  0  0  0
  148.7093  141.2827  156.6920 H   0  0  0  0  0  0  0  0  0  0  0  0
  1  2  1  0  0  0  0
  1 19  1  0  0  0  0
  1 20  1  0  0  0  0
  1 21  1  0  0  0  0
  2  3  1  0  0  0  0
  2 11  1  0  0  0  0
  2 22  1  0  0  0  0
  3  4  1  0  0  0  0
  3 23  1  0  0  0  0
  3 39  1  0  0  0  0
  4  5  1  0  0  0  0
  4 24  1  0  0  0  0
  4 25  1  0  0  0  0
  5  6  1  0  0  0  0
  5 26  1  0  0  0  0
  5 27  1  0  0  0  0
  6 10  1  0  0  0  0
  6  7  1  0  0  0  0
  7  8  2  0  0  0  0
  7 28  1  0  0  0  0
  8  9  1  0  0  0  0
  8 29  1  0  0  0  0
  9 10  2  0  0  0  0
  9 30  1  0  0  0  0
 11 12  2  0  0  0  0
 11 13  1  0  0  0  0
 13 18  1  0  0  0  0
 13 14  1  0  0  0  0
 14 15  1  0  0  0  0
 14 31  1  0  0  0  0
 14 32  1  0  0  0  0
 15 16  1  0  0  0  0
 15 33  1  0  0  0  0
 15 34  1  0  0  0  0
 16 17  1  0  0  0  0
 17 18  1  0  0  0  0
 17 35  1  0  0  0  0
 17 36  1  0  0  0  0
 18 37  1  0  0  0  0
 18 38  1  0  0  0  0
M  CHG  1   3   1
M  END
> <s_m_source_file>
AV-unprocessed.smi

> <i_m_source_file_index>
3322

> <i_lp_mmshare_version>
43012

> <i_f3d_flags>
0

> <s_epik_input>
W0NIMl0xW0NIMl1PW0NIMl1bQ0gyXU4xQyg9TylbQ0BIXShbQ0gzXSlbTkhdW0NIMl1bQ0gyXW4yW2NIXVtjSF1bY0hdbjI=

> <s_epik_cmdline>
J2VwaWtfcHl0aG9uJywgJy1waCcsICc3LjAnLCAnLXRuJywgJzgnLCAnLW1hJywgJzIwMCcsICctbWV0YWxfYmluZGluZycsICctaW1hZScsICc8aW5maWxlLm1hZT4nLCAnLW9tYWUnLCAnPG91dGZpbGUubWFlPic=

> <r_lp_tautomer_probability>
1

> <r_epik_Ionization_Penalty>
0.3254

> <r_epik_Ionization_Penalty_Charging>
0.325398

> <r_epik_Ionization_Penalty_Neutral>
2.29478e-06

> <r_epik_State_Penalty>
0.320187

> <r_epik_Charging_Adjusted_Penalty>
0.645585

> <i_epik_Tot_Q>
1

> <i_epik_Tot_abs_Q>
1

> <r_epik_Metal_State_Penalty>
0.320558

> <b_epik_Metal_Only>
0

> <s_lp_Force_Field>
OPLS_2005

> <r_lp_Energy>
25.7531

> <b_lp_Chiralities_Consistent>
1

> <s_lp_Variant>
AV-unprocessed.smi:3322-2

> <Gold.Version>
5.8.1

> <Gold.Id.Protein>
6NUR|6NUR_protein|mol2

> <Gold.PLP.Fitness>
47.0414

> <Gold.PLP.PLP>
-37.6188

> <Gold.PLP.part.hbond>
-2.0000

> <Gold.PLP.part.metal>
0.0000

> <Gold.PLP.part.buried>
-5.3525

> <Gold.PLP.part.nonpolar>
-31.0437

> <Gold.PLP.part.repulsive>
0.1679

> <Gold.PLP.ligand.clash>
0.0000

> <Gold.PLP.ligand.torsion>
1.2977

> <Gold.PLP.Chemscore.Hbond>
3.0000

> <Gold.PLP.Chemscore.CHOScore>
1.0000

> <Gold.PLP.Chemscore.Metal>
0.0000

> <Gold.Chemscore.Hbonds>
donor molecule, donor type, donor heavy atom, donor atom, acceptor molecule, acceptor atom, score
      L1  H     3    23       P1  8028  0.29
      P1  H 10752 10765       L1    16  0.34
      L1  C     7    28       P1  8028  0.79

> <Gold.PLP.Chemscore.Internal.Correction>
0.0180

> <Gold.Rescore>
     Score         DG    S(hbond)    S(metal)    S(lipo)     H(rot)  DE(clash)    DE(int)     intcor
     17.01     -18.23       1.97        0.00      94.49       1.91       0.07       1.15       ----

> <Gold.Chemscore.Fitness>
17.0117

> <Gold.Chemscore.DG>
-18.2326

> <Gold.Chemscore.ZeroCoef>
-5.4800

> <Gold.Chemscore.Hbond>
1.9718

> <Gold.Chemscore.Metal>
0.0000

> <Gold.Chemscore.Lipo>
94.4876

> <Gold.Chemscore.Internal_Hbond>
0.0000

> <Gold.Chemscore.DEClash>
0.0668

> <Gold.Chemscore.DEInternal>
1.1541

> <Gold.Chemscore.Rot>
1.9095

> <Gold.Chemscore.Internal.Correction>
   9.000000E+99

> <Gold.Chemscore.Hbonds>
donor molecule, donor type, donor heavy atom, donor atom, acceptor molecule, acceptor atom, score
      L1  H     3    23       P1  8028  0.16
      P1  H 10752 10765       L1    16  0.01

> <Gold.Chemscore.Hbond.Weighted>
-6.5859

> <Gold.Chemscore.Metal.Weighted>
-0.0000

> <Gold.Chemscore.Lipo.Weighted>
-11.0550

> <Gold.Chemscore.Internal_Hbond.Weighted>
0.0000

> <Gold.Chemscore.DEClash.Weighted>
0.0668

> <Gold.Chemscore.DEInternal.Weighted>
1.1541

> <Gold.Chemscore.Rot.Weighted>
4.8884

> <Gold.Chemscore.Internal.Correction.Weighted>
   9.000000E+99

> <Gold.Protein.RotatedTorsions>
[ 6907 6896 6895 6894 ] final  169.55 input  -60.11 | X-H torsion
[ 7974 7965 7964 7962 ] final  -51.51 input  175.53 | X-H torsion
[ 8008 7997 7996 7995 ] final  102.97 input   59.86 | X-H torsion
[ 10167 10162 10161 10158 ] final  -83.74 input  -65.29 | X-H torsion
[ 10718 10713 10712 10709 ] final -101.73 input   66.30 | X-H torsion
[ 10763 10752 10751 10750 ] final -173.60 input  -60.55 | X-H torsion
[ 11005 11000 10999 10996 ] final  126.30 input  -57.11 | X-H torsion

> <Gold.Protein.ActiveResidues>
 VAL166  LYS551  ARG553  GLY616  TRP617  ASP618  TYR619  PRO620  LYS621  CYS622 
 ASP623  PHE694  ASN695  SER759  ASP760  ASP761  ALA762  ILE779  LEU786  VAL792 
 PHE793  MET794  SER795  GLU796  ALA797  LYS798  CYS799  TRP800  GLU811  SER814 

> <Gold.Protein.RotatedAtoms>
  151.8302  133.3407  159.3610 H   0  0  0  0  0  0  0  0  0  0  0  0  # atno 6907 bound_to 6896
  150.7267  134.5490  159.5794 H   0  0  0  0  0  0  0  0  0  0  0  0  # atno 6908 bound_to 6896
  152.2941  134.7688  160.0423 H   0  0  0  0  0  0  0  0  0  0  0  0  # atno 6909 bound_to 6896
  145.9182  140.7856  142.9661 H   0  0  0  0  0  0  0  0  0  0  0  0  # atno 7974 bound_to 7965
  156.1442  140.3172  155.8543 H   0  0  0  0  0  0  0  0  0  0  0  0  # atno 8008 bound_to 7997
  155.4097  140.0505  157.3049 H   0  0  0  0  0  0  0  0  0  0  0  0  # atno 8009 bound_to 7997
  154.5002  140.2126  155.9375 H   0  0  0  0  0  0  0  0  0  0  0  0  # atno 8010 bound_to 7997
  140.4198  143.2589  151.8905 H   0  0  0  0  0  0  0  0  0  0  0  0  # atno 10167 bound_to 10162
  156.0204  130.5387  150.7006 H   0  0  0  0  0  0  0  0  0  0  0  0  # atno 10718 bound_to 10713
  154.6060  135.2859  155.0484 H   0  0  0  0  0  0  0  0  0  0  0  0  # atno 10763 bound_to 10752
  154.1732  135.6469  153.5018 H   0  0  0  0  0  0  0  0  0  0  0  0  # atno 10764 bound_to 10752
  153.0175  135.5406  154.6796 H   0  0  0  0  0  0  0  0  0  0  0  0  # atno 10765 bound_to 10752
  139.9449  134.9631  156.8687 H   0  0  0  0  0  0  0  0  0  0  0  0  # atno 11005 bound_to 11000
  144.6750  140.1933  143.7394 LP  0  0  0  0  0  0  0  0  0  0  0  0  # atno 17320 bound_to 7965
  145.8584  139.2210  143.1731 LP  0  0  0  0  0  0  0  0  0  0  0  0  # atno 17321 bound_to 7965
  139.4782  144.5449  151.8472 LP  0  0  0  0  0  0  0  0  0  0  0  0  # atno 17342 bound_to 10162
  140.4546  144.1807  150.5900 LP  0  0  0  0  0  0  0  0  0  0  0  0  # atno 17343 bound_to 10162
  157.4667  131.0889  151.0687 LP  0  0  0  0  0  0  0  0  0  0  0  0  # atno 17370 bound_to 10713
  157.1159  130.6041  149.5493 LP  0  0  0  0  0  0  0  0  0  0  0  0  # atno 17371 bound_to 10713
  140.5858  134.0308  155.7481 LP  0  0  0  0  0  0  0  0  0  0  0  0  # atno 17394 bound_to 11000
  141.1097  133.9637  157.2933 LP  0  0  0  0  0  0  0  0  0  0  0  0  # atno 17395 bound_to 11000

$$$$
