AV-unprocessed.smi:2160|AV-procd|sdf|8798|dock3
  -GOLD-   2272011583D 1   1.00000     0.00000
 Structure written by MMmdl.
 43 45  0  0  0  0  0  0  0  0  1 V2000
  155.9145  144.3323  168.0751 C   0  0  0  0  0  0  0  0  0  0  0  0
  156.0547  142.9211  168.1488 O   0  0  0  0  0  0  0  0  0  0  0  0
  155.9699  142.1999  166.9772 C   0  0  0  0  0  0  0  0  0  0  0  0
  155.6520  142.7637  165.7158 C   0  0  0  0  0  0  0  0  0  0  0  0
  155.5793  141.9500  164.5687 C   0  0  0  0  0  0  0  0  0  0  0  0
  155.8157  140.5639  164.6635 C   0  0  0  0  0  0  0  0  0  0  0  0
  155.7155  139.6831  163.4343 C   0  0  0  0  0  0  0  0  0  0  0  0
  156.7178  140.0104  162.4867 O   0  0  0  0  0  0  0  0  0  0  0  0
  156.5866  139.3001  161.2664 C   0  0  0  0  0  0  0  0  0  0  0  0
  155.5869  140.0211  160.3417 C   0  0  1  0  0  0  0  0  0  0  0  0
  155.5746  139.3872  159.0802 O   0  0  0  0  0  0  0  0  0  0  0  0
  154.1458  140.1390  160.8851 C   0  0  0  0  0  0  0  0  0  0  0  0
  153.3084  141.0227  160.0918 N   0  0  0  0  0  0  0  0  0  0  0  0
  152.7871  140.7704  158.8758 C   0  0  0  0  0  0  0  0  0  0  0  0
  152.0522  141.7273  158.3167 N   0  0  0  0  0  0  0  0  0  0  0  0
  152.0913  142.7133  159.2876 C   0  0  0  0  0  0  0  0  0  0  0  0
  151.5067  143.9999  159.3121 C   0  0  0  0  0  0  0  0  0  0  0  0
  151.6832  144.8446  160.4277 C   0  0  0  0  0  0  0  0  0  0  0  0
  152.4434  144.4162  161.5350 C   0  0  0  0  0  0  0  0  0  0  0  0
  153.0372  143.1399  161.5327 C   0  0  0  0  0  0  0  0  0  0  0  0
  152.8624  142.3007  160.4160 C   0  0  0  0  0  0  0  0  0  0  0  0
  156.1434  139.9997  165.9121 C   0  0  0  0  0  0  0  0  0  0  0  0
  156.2179  140.8143  167.0580 C   0  0  0  0  0  0  0  0  0  0  0  0
  155.9886  144.7541  169.0773 H   0  0  0  0  0  0  0  0  0  0  0  0
  154.9423  144.6157  167.6699 H   0  0  0  0  0  0  0  0  0  0  0  0
  156.7035  144.7801  167.4700 H   0  0  0  0  0  0  0  0  0  0  0  0
  155.4549  143.8186  165.6016 H   0  0  0  0  0  0  0  0  0  0  0  0
  155.3276  142.3951  163.6172 H   0  0  0  0  0  0  0  0  0  0  0  0
  155.8116  138.6384  163.7348 H   0  0  0  0  0  0  0  0  0  0  0  0
  154.7285  139.8035  162.9863 H   0  0  0  0  0  0  0  0  0  0  0  0
  157.5579  139.2643  160.7705 H   0  0  0  0  0  0  0  0  0  0  0  0
  156.2854  138.2672  161.4473 H   0  0  0  0  0  0  0  0  0  0  0  0
  155.9705  141.0272  160.1681 H   0  0  0  0  0  0  0  0  0  0  0  0
  155.9550  138.5273  159.1759 H   0  0  0  0  0  0  0  0  0  0  0  0
  153.6732  139.1566  160.9253 H   0  0  0  0  0  0  0  0  0  0  0  0
  154.1634  140.5140  161.9090 H   0  0  0  0  0  0  0  0  0  0  0  0
  152.9665  139.8339  158.3681 H   0  0  0  0  0  0  0  0  0  0  0  0
  150.9209  144.3379  158.4703 H   0  0  0  0  0  0  0  0  0  0  0  0
  151.2327  145.8262  160.4342 H   0  0  0  0  0  0  0  0  0  0  0  0
  152.5771  145.0707  162.3841 H   0  0  0  0  0  0  0  0  0  0  0  0
  153.6286  142.8159  162.3760 H   0  0  0  0  0  0  0  0  0  0  0  0
  156.3307  138.9391  165.9954 H   0  0  0  0  0  0  0  0  0  0  0  0
  156.4643  140.3697  168.0109 H   0  0  0  0  0  0  0  0  0  0  0  0
  1  2  1  0  0  0  0
  1 24  1  0  0  0  0
  1 25  1  0  0  0  0
  1 26  1  0  0  0  0
  2  3  1  0  0  0  0
  3 23  1  0  0  0  0
  3  4  2  0  0  0  0
  4  5  1  0  0  0  0
  4 27  1  0  0  0  0
  5  6  2  0  0  0  0
  5 28  1  0  0  0  0
  6  7  1  0  0  0  0
  6 22  1  0  0  0  0
  7  8  1  0  0  0  0
  7 29  1  0  0  0  0
  7 30  1  0  0  0  0
  8  9  1  0  0  0  0
  9 10  1  0  0  0  0
  9 31  1  0  0  0  0
  9 32  1  0  0  0  0
 10 11  1  0  0  0  0
 10 12  1  0  0  0  0
 10 33  1  0  0  0  0
 11 34  1  0  0  0  0
 12 13  1  0  0  0  0
 12 35  1  0  0  0  0
 12 36  1  0  0  0  0
 13 21  1  0  0  0  0
 13 14  1  0  0  0  0
 14 15  2  0  0  0  0
 14 37  1  0  0  0  0
 15 16  1  0  0  0  0
 16 21  2  0  0  0  0
 16 17  1  0  0  0  0
 17 18  2  0  0  0  0
 17 38  1  0  0  0  0
 18 19  1  0  0  0  0
 18 39  1  0  0  0  0
 19 20  2  0  0  0  0
 19 40  1  0  0  0  0
 20 21  1  0  0  0  0
 20 41  1  0  0  0  0
 22 23  2  0  0  0  0
 22 42  1  0  0  0  0
 23 43  1  0  0  0  0
M  END
> <s_m_source_file>
AV-unprocessed.smi

> <i_m_source_file_index>
2160

> <i_lp_mmshare_version>
43012

> <i_f3d_flags>
0

> <s_epik_input>
W0NIM11PYzFbY0hdW2NIXWMoW2NIXVtjSF0xKVtDSDJdT1tDSDJdW0NASF0oW09IXSlbQ0gyXW4oW2NIXW4yKWMoYzIzKVtjSF1bY0hdW2NIXVtjSF0z

> <s_epik_cmdline>
J2VwaWtfcHl0aG9uJywgJy1waCcsICc3LjAnLCAnLXRuJywgJzgnLCAnLW1hJywgJzIwMCcsICctbWV0YWxfYmluZGluZycsICctaW1hZScsICc8aW5maWxlLm1hZT4nLCAnLW9tYWUnLCAnPG91dGZpbGUubWFlPic=

> <r_lp_tautomer_probability>
1

> <r_epik_Ionization_Penalty>
0.0713119

> <r_epik_Ionization_Penalty_Charging>
0

> <r_epik_Ionization_Penalty_Neutral>
0.0713119

> <r_epik_State_Penalty>
0.06259

> <r_epik_Charging_Adjusted_Penalty>
0.06259

> <i_epik_Tot_Q>
0

> <i_epik_Tot_abs_Q>
0

> <r_epik_Metal_State_Penalty>
6.60119e-05

> <b_epik_Metal_Only>
0

> <s_lp_Force_Field>
OPLS_2005

> <r_lp_Energy>
17.5376

> <b_lp_Chiralities_Consistent>
1

> <s_lp_Variant>
AV-unprocessed.smi:2160-2

> <Gold.Version>
5.8.1

> <Gold.Id.Protein>
6NUR|6NUR_protein|mol2

> <Gold.PLP.Fitness>
54.8362

> <Gold.PLP.PLP>
-52.4196

> <Gold.PLP.part.hbond>
-2.0000

> <Gold.PLP.part.metal>
0.0000

> <Gold.PLP.part.buried>
-5.6056

> <Gold.PLP.part.nonpolar>
-43.8774

> <Gold.PLP.part.repulsive>
0.1085

> <Gold.PLP.ligand.clash>
0.0000

> <Gold.PLP.ligand.torsion>
0.3954

> <Gold.PLP.Chemscore.Hbond>
1.0000

> <Gold.PLP.Chemscore.CHOScore>
0.0000

> <Gold.PLP.Chemscore.Metal>
0.0000

> <Gold.Chemscore.Hbonds>
donor molecule, donor type, donor heavy atom, donor atom, acceptor molecule, acceptor atom, score
      P1  H  7997  8010       L1    11  1.00

> <Gold.PLP.Chemscore.Internal.Correction>
0.2073

> <Gold.Rescore>
     Score         DG    S(hbond)    S(metal)    S(lipo)     H(rot)  DE(clash)    DE(int)     intcor
     16.87     -18.41       0.92        0.00     141.71       2.63       0.26       1.27       ----

> <Gold.Chemscore.Fitness>
16.8721

> <Gold.Chemscore.DG>
-18.4097

> <Gold.Chemscore.ZeroCoef>
-5.4800

> <Gold.Chemscore.Hbond>
0.9236

> <Gold.Chemscore.Metal>
0.0000

> <Gold.Chemscore.Lipo>
141.7054

> <Gold.Chemscore.Internal_Hbond>
0.0000

> <Gold.Chemscore.DEClash>
0.2636

> <Gold.Chemscore.DEInternal>
1.2740

> <Gold.Chemscore.Rot>
2.6308

> <Gold.Chemscore.Internal.Correction>
   9.000000E+99

> <Gold.Chemscore.Hbonds>
donor molecule, donor type, donor heavy atom, donor atom, acceptor molecule, acceptor atom, score
      P1  H  7997  8010       L1    11  0.88

> <Gold.Chemscore.Hbond.Weighted>
-3.0849

> <Gold.Chemscore.Metal.Weighted>
-0.0000

> <Gold.Chemscore.Lipo.Weighted>
-16.5795

> <Gold.Chemscore.Internal_Hbond.Weighted>
0.0000

> <Gold.Chemscore.DEClash.Weighted>
0.2636

> <Gold.Chemscore.DEInternal.Weighted>
1.2740

> <Gold.Chemscore.Rot.Weighted>
6.7347

> <Gold.Chemscore.Internal.Correction.Weighted>
   9.000000E+99

> <Gold.Protein.RotatedTorsions>
[ 6907 6896 6895 6894 ] final   29.05 input  -60.11 | X-H torsion
[ 7974 7965 7964 7962 ] final  -65.30 input  175.53 | X-H torsion
[ 8008 7997 7996 7995 ] final  -28.44 input   59.86 | X-H torsion
[ 10167 10162 10161 10158 ] final  -54.13 input  -65.29 | X-H torsion
[ 10718 10713 10712 10709 ] final   -9.85 input   66.30 | X-H torsion
[ 10763 10752 10751 10750 ] final  -20.82 input  -60.55 | X-H torsion
[ 11005 11000 10999 10996 ] final   27.15 input  -57.11 | X-H torsion

> <Gold.Protein.ActiveResidues>
 VAL166  LYS551  ARG553  GLY616  TRP617  ASP618  TYR619  PRO620  LYS621  CYS622 
 ASP623  PHE694  ASN695  SER759  ASP760  ASP761  ALA762  ILE779  LEU786  VAL792 
 PHE793  MET794  SER795  GLU796  ALA797  LYS798  CYS799  TRP800  GLU811  SER814 

> <Gold.Protein.RotatedAtoms>
  152.0259  134.9796  160.0571 H   0  0  0  0  0  0  0  0  0  0  0  0  # atno 6907 bound_to 6896
  152.1291  133.4393  159.4720 H   0  0  0  0  0  0  0  0  0  0  0  0  # atno 6908 bound_to 6896
  150.6855  134.2360  159.4497 H   0  0  0  0  0  0  0  0  0  0  0  0  # atno 6909 bound_to 6896
  145.7560  140.8885  143.0455 H   0  0  0  0  0  0  0  0  0  0  0  0  # atno 7974 bound_to 7965
  154.4332  140.1845  156.1090 H   0  0  0  0  0  0  0  0  0  0  0  0  # atno 8008 bound_to 7997
  156.0232  140.3338  155.7035 H   0  0  0  0  0  0  0  0  0  0  0  0  # atno 8009 bound_to 7997
  155.5946  140.0634  157.2740 H   0  0  0  0  0  0  0  0  0  0  0  0  # atno 8010 bound_to 7997
  140.6447  143.2528  151.4892 H   0  0  0  0  0  0  0  0  0  0  0  0  # atno 10167 bound_to 10162
  156.6821  130.5040  149.5968 H   0  0  0  0  0  0  0  0  0  0  0  0  # atno 10718 bound_to 10713
  153.6265  135.6990  153.5291 H   0  0  0  0  0  0  0  0  0  0  0  0  # atno 10763 bound_to 10752
  153.2895  135.4161  155.1153 H   0  0  0  0  0  0  0  0  0  0  0  0  # atno 10764 bound_to 10752
  154.8532  135.3622  154.5807 H   0  0  0  0  0  0  0  0  0  0  0  0  # atno 10765 bound_to 10752
  140.3294  134.2455  155.7704 H   0  0  0  0  0  0  0  0  0  0  0  0  # atno 11005 bound_to 11000
  144.6840  139.9657  143.7481 LP  0  0  0  0  0  0  0  0  0  0  0  0  # atno 17320 bound_to 7965
  146.0311  139.3335  143.0755 LP  0  0  0  0  0  0  0  0  0  0  0  0  # atno 17321 bound_to 7965
  139.5657  144.2047  152.1762 LP  0  0  0  0  0  0  0  0  0  0  0  0  # atno 17342 bound_to 10162
  140.1328  144.5272  150.6792 LP  0  0  0  0  0  0  0  0  0  0  0  0  # atno 17343 bound_to 10162
  156.1860  130.6529  151.1007 LP  0  0  0  0  0  0  0  0  0  0  0  0  # atno 17370 bound_to 10713
  157.7040  131.0764  150.6728 LP  0  0  0  0  0  0  0  0  0  0  0  0  # atno 17371 bound_to 10713
  141.2067  133.7825  157.0161 LP  0  0  0  0  0  0  0  0  0  0  0  0  # atno 17394 bound_to 11000
  140.0874  134.9613  157.1721 LP  0  0  0  0  0  0  0  0  0  0  0  0  # atno 17395 bound_to 11000

$$$$
