AV-unprocessed.smi:633|AV-procd|sdf|3131|dock3
  -GOLD-   22720 0 53D 1   1.00000     0.00000
 Structure written by MMmdl.
 53 56  0  0  0  0  0  0  0  0  1 V2000
  151.1188  144.7902  158.4356 C   0  0  0  0  0  0  0  0  0  0  0  0
  151.9331  143.4982  158.3125 C   0  0  2  0  0  0  0  0  0  0  0  0
  151.1366  142.3744  157.6230 C   0  0  0  0  0  0  0  0  0  0  0  0
  151.9035  141.1306  157.6253 N   0  0  0  0  0  0  0  0  0  0  0  0
  151.4410  140.0655  156.8228 C   0  0  0  0  0  0  0  0  0  0  0  0
  152.0138  139.8373  155.5501 C   0  0  0  0  0  0  0  0  0  0  0  0
  151.5474  138.7664  154.7644 C   0  0  0  0  0  0  0  0  0  0  0  0
  150.5176  137.9397  155.2724 C   0  0  0  0  0  0  0  0  0  0  0  0
  149.9505  136.8295  154.5862 N   0  0  0  0  0  0  0  0  0  0  0  0
  149.5575  135.6382  155.0704 C   0  0  0  0  0  0  0  0  0  0  0  0
  149.6146  135.2913  156.2494 O   0  0  0  0  0  0  0  0  0  0  0  0
  149.0775  134.8560  154.0929 N   0  0  0  0  0  0  0  0  0  0  0  0
  148.5816  133.4933  154.2608 C   0  0  0  0  0  0  0  0  0  0  0  0
  149.6317  132.4511  153.9139 C   0  0  0  0  0  0  0  0  0  0  0  0
  149.5037  131.0190  154.3773 C   0  0  0  0  0  0  0  0  0  0  0  0
  150.5767  131.9099  154.9606 C   0  0  0  0  0  0  0  0  0  0  0  0
  147.3144  133.2563  153.4600 C   0  0  0  0  0  0  0  0  0  0  0  0
  147.0886  131.9550  152.7284 C   0  0  0  0  0  0  0  0  0  0  0  0
  147.3304  133.2288  151.9497 C   0  0  0  0  0  0  0  0  0  0  0  0
  150.0000  138.2560  156.5446 C   0  0  0  0  0  0  0  0  0  0  0  0
  150.4423  139.2833  157.3000 N   0  0  0  0  0  0  0  0  0  0  0  0
  152.3819  140.7512  158.9518 C   0  0  0  0  0  0  0  0  0  0  0  0
  153.1377  141.9222  159.6082 C   0  0  2  0  0  0  0  0  0  0  0  0
  153.5449  141.6073  161.0516 C   0  0  0  0  0  0  0  0  0  0  0  0
  152.2991  143.0743  159.6228 O   0  0  0  0  0  0  0  0  0  0  0  0
  150.8232  145.1626  157.4545 H   0  0  0  0  0  0  0  0  0  0  0  0
  151.6999  145.5714  158.9262 H   0  0  0  0  0  0  0  0  0  0  0  0
  150.2128  144.6312  159.0210 H   0  0  0  0  0  0  0  0  0  0  0  0
  152.8375  143.7125  157.7400 H   0  0  0  0  0  0  0  0  0  0  0  0
  150.1887  142.2136  158.1386 H   0  0  0  0  0  0  0  0  0  0  0  0
  150.9051  142.6697  156.5986 H   0  0  0  0  0  0  0  0  0  0  0  0
  152.7918  140.4781  155.1624 H   0  0  0  0  0  0  0  0  0  0  0  0
  151.9863  138.6170  153.7913 H   0  0  0  0  0  0  0  0  0  0  0  0
  149.7984  136.9717  153.5982 H   0  0  0  0  0  0  0  0  0  0  0  0
  149.0645  135.2271  153.1543 H   0  0  0  0  0  0  0  0  0  0  0  0
  148.3167  133.3509  155.3106 H   0  0  0  0  0  0  0  0  0  0  0  0
  150.0575  132.5833  152.9206 H   0  0  0  0  0  0  0  0  0  0  0  0
  148.6662  130.7621  155.0226 H   0  0  0  0  0  0  0  0  0  0  0  0
  149.8173  130.2384  153.6873 H   0  0  0  0  0  0  0  0  0  0  0  0
  151.6058  131.7253  154.6593 H   0  0  0  0  0  0  0  0  0  0  0  0
  150.4450  132.2449  155.9875 H   0  0  0  0  0  0  0  0  0  0  0  0
  146.4287  133.7010  153.9103 H   0  0  0  0  0  0  0  0  0  0  0  0
  147.8892  131.2181  152.7480 H   0  0  0  0  0  0  0  0  0  0  0  0
  146.0797  131.5477  152.7289 H   0  0  0  0  0  0  0  0  0  0  0  0
  146.4823  133.6705  151.4307 H   0  0  0  0  0  0  0  0  0  0  0  0
  148.2896  133.3312  151.4462 H   0  0  0  0  0  0  0  0  0  0  0  0
  149.2055  137.6642  156.9758 H   0  0  0  0  0  0  0  0  0  0  0  0
  151.5244  140.4670  159.5634 H   0  0  0  0  0  0  0  0  0  0  0  0
  153.0392  139.8837  158.9075 H   0  0  0  0  0  0  0  0  0  0  0  0
  154.0396  142.1437  159.0348 H   0  0  0  0  0  0  0  0  0  0  0  0
  154.2006  140.7372  161.0938 H   0  0  0  0  0  0  0  0  0  0  0  0
  152.6720  141.3997  161.6711 H   0  0  0  0  0  0  0  0  0  0  0  0
  154.0777  142.4473  161.4977 H   0  0  0  0  0  0  0  0  0  0  0  0
  1  2  1  0  0  0  0
  1 26  1  0  0  0  0
  1 27  1  0  0  0  0
  1 28  1  0  0  0  0
  2 25  1  0  0  0  0
  2  3  1  0  0  0  0
  2 29  1  0  0  0  0
  3  4  1  0  0  0  0
  3 30  1  0  0  0  0
  3 31  1  0  0  0  0
  4  5  1  0  0  0  0
  4 22  1  0  0  0  0
  5 21  1  0  0  0  0
  5  6  2  0  0  0  0
  6  7  1  0  0  0  0
  6 32  1  0  0  0  0
  7  8  2  0  0  0  0
  7 33  1  0  0  0  0
  8  9  1  0  0  0  0
  8 20  1  0  0  0  0
  9 10  1  0  0  0  0
  9 34  1  0  0  0  0
 10 11  2  0  0  0  0
 10 12  1  0  0  0  0
 12 13  1  0  0  0  0
 12 35  1  0  0  0  0
 13 14  1  0  0  0  0
 13 17  1  0  0  0  0
 13 36  1  0  0  0  0
 14 16  1  0  0  0  0
 14 15  1  0  0  0  0
 14 37  1  0  0  0  0
 15 16  1  0  0  0  0
 15 38  1  0  0  0  0
 15 39  1  0  0  0  0
 16 40  1  0  0  0  0
 16 41  1  0  0  0  0
 17 19  1  0  0  0  0
 17 18  1  0  0  0  0
 17 42  1  0  0  0  0
 18 19  1  0  0  0  0
 18 43  1  0  0  0  0
 18 44  1  0  0  0  0
 19 45  1  0  0  0  0
 19 46  1  0  0  0  0
 20 21  2  0  0  0  0
 20 47  1  0  0  0  0
 22 23  1  0  0  0  0
 22 48  1  0  0  0  0
 22 49  1  0  0  0  0
 23 24  1  0  0  0  0
 23 25  1  0  0  0  0
 23 50  1  0  0  0  0
 24 51  1  0  0  0  0
 24 52  1  0  0  0  0
 24 53  1  0  0  0  0
M  END
> <s_m_source_file>
AV-unprocessed.smi

> <i_m_source_file_index>
633

> <i_lp_mmshare_version>
43012

> <i_f3d_flags>
0

> <s_epik_input>
W0NIM11bQ0BASF0xW0NIMl1OKFtDSDJdW0NASF0oTzEpW0NIM10pYzJbY0hdW2NIXWMoW2NIXW4yKVtOSF1DKD1PKVtOSF1bQ0hdKFtDSF0zW0NIMl1bQ0gyXTMpW0NIXTRbQ0gyXVtDSDJdNA==

> <s_epik_cmdline>
J2VwaWtfcHl0aG9uJywgJy1waCcsICc3LjAnLCAnLXRuJywgJzgnLCAnLW1hJywgJzIwMCcsICctbWV0YWxfYmluZGluZycsICctaW1hZScsICc8aW5maWxlLm1hZT4nLCAnLW9tYWUnLCAnPG91dGZpbGUubWFlPic=

> <r_lp_tautomer_probability>
1

> <r_epik_Ionization_Penalty>
0.00291159

> <r_epik_Ionization_Penalty_Charging>
0

> <r_epik_Ionization_Penalty_Neutral>
0.00291159

> <r_epik_State_Penalty>
0.00200877

> <r_epik_Charging_Adjusted_Penalty>
0.00200877

> <i_epik_Tot_Q>
0

> <i_epik_Tot_abs_Q>
0

> <r_epik_Metal_State_Penalty>
-0

> <b_epik_Metal_Only>
0

> <s_lp_Force_Field>
OPLS_2005

> <r_lp_Energy>
40.0006

> <b_lp_Chiralities_Consistent>
1

> <s_lp_Variant>
AV-unprocessed.smi:633-2

> <Gold.Version>
5.8.1

> <Gold.Id.Protein>
6NUR|6NUR_protein|mol2

> <Gold.PLP.Fitness>
51.0979

> <Gold.PLP.PLP>
-46.9529

> <Gold.PLP.part.hbond>
-2.0000

> <Gold.PLP.part.metal>
0.0000

> <Gold.PLP.part.buried>
-5.4567

> <Gold.PLP.part.nonpolar>
-39.9162

> <Gold.PLP.part.repulsive>
0.0661

> <Gold.PLP.ligand.clash>
0.0000

> <Gold.PLP.ligand.torsion>
2.0650

> <Gold.PLP.Chemscore.Hbond>
1.9357

> <Gold.PLP.Chemscore.CHOScore>
0.0000

> <Gold.PLP.Chemscore.Metal>
0.0000

> <Gold.Chemscore.Hbonds>
donor molecule, donor type, donor heavy atom, donor atom, acceptor molecule, acceptor atom, score
      L1  H     9    34       P1  7948  0.94
      L1  H    12    35       P1  7948  1.00

> <Gold.PLP.Chemscore.Internal.Correction>
2.4677

> <Gold.Rescore>
     Score         DG    S(hbond)    S(metal)    S(lipo)     H(rot)  DE(clash)    DE(int)     intcor
     18.37     -21.52       1.74        0.00     118.04       1.40       0.00       3.15       ----

> <Gold.Chemscore.Fitness>
18.3715

> <Gold.Chemscore.DG>
-21.5226

> <Gold.Chemscore.ZeroCoef>
-5.4800

> <Gold.Chemscore.Hbond>
1.7429

> <Gold.Chemscore.Metal>
0.0000

> <Gold.Chemscore.Lipo>
118.0427

> <Gold.Chemscore.Internal_Hbond>
0.0000

> <Gold.Chemscore.DEClash>
0.0000

> <Gold.Chemscore.DEInternal>
3.1511

> <Gold.Chemscore.Rot>
1.4022

> <Gold.Chemscore.Internal.Correction>
   9.000000E+99

> <Gold.Chemscore.Hbonds>
donor molecule, donor type, donor heavy atom, donor atom, acceptor molecule, acceptor atom, score
      L1  H     9    34       P1  7948  0.46
      L1  H    12    35       P1  7948  0.25

> <Gold.Chemscore.Hbond.Weighted>
-5.8213

> <Gold.Chemscore.Metal.Weighted>
-0.0000

> <Gold.Chemscore.Lipo.Weighted>
-13.8110

> <Gold.Chemscore.Internal_Hbond.Weighted>
0.0000

> <Gold.Chemscore.DEClash.Weighted>
0.0000

> <Gold.Chemscore.DEInternal.Weighted>
3.1511

> <Gold.Chemscore.Rot.Weighted>
3.5897

> <Gold.Chemscore.Internal.Correction.Weighted>
   9.000000E+99

> <Gold.Protein.RotatedTorsions>
[ 6907 6896 6895 6894 ] final   20.67 input  -60.11 | X-H torsion
[ 7974 7965 7964 7962 ] final -152.43 input  175.53 | X-H torsion
[ 8008 7997 7996 7995 ] final  -39.58 input   59.86 | X-H torsion
[ 10167 10162 10161 10158 ] final  153.12 input  -65.29 | X-H torsion
[ 10718 10713 10712 10709 ] final -144.37 input   66.30 | X-H torsion
[ 10763 10752 10751 10750 ] final -155.39 input  -60.55 | X-H torsion
[ 11005 11000 10999 10996 ] final  -98.52 input  -57.11 | X-H torsion

> <Gold.Protein.ActiveResidues>
 VAL166  LYS551  ARG553  GLY616  TRP617  ASP618  TYR619  PRO620  LYS621  CYS622 
 ASP623  PHE694  ASN695  SER759  ASP760  ASP761  ALA762  ILE779  LEU786  VAL792 
 PHE793  MET794  SER795  GLU796  ALA797  LYS798  CYS799  TRP800  GLU811  SER814 

> <Gold.Protein.RotatedAtoms>
  151.9000  135.0382  160.0505 H   0  0  0  0  0  0  0  0  0  0  0  0  # atno 6907 bound_to 6896
  152.2366  133.5096  159.5254 H   0  0  0  0  0  0  0  0  0  0  0  0  # atno 6908 bound_to 6896
  150.7041  134.1062  159.4026 H   0  0  0  0  0  0  0  0  0  0  0  0  # atno 6909 bound_to 6896
  144.7794  140.4663  143.5850 H   0  0  0  0  0  0  0  0  0  0  0  0  # atno 7974 bound_to 7965
  154.4021  140.1548  156.2886 H   0  0  0  0  0  0  0  0  0  0  0  0  # atno 8008 bound_to 7997
  155.8805  140.3444  155.5863 H   0  0  0  0  0  0  0  0  0  0  0  0  # atno 8009 bound_to 7997
  155.7672  140.0825  157.2116 H   0  0  0  0  0  0  0  0  0  0  0  0  # atno 8010 bound_to 7997
  139.4829  144.5300  151.7738 H   0  0  0  0  0  0  0  0  0  0  0  0  # atno 10167 bound_to 10162
  156.3693  130.7779  151.1958 H   0  0  0  0  0  0  0  0  0  0  0  0  # atno 10718 bound_to 10713
  154.7791  135.3169  154.8029 H   0  0  0  0  0  0  0  0  0  0  0  0  # atno 10763 bound_to 10752
  153.8745  135.6841  153.4776 H   0  0  0  0  0  0  0  0  0  0  0  0  # atno 10764 bound_to 10752
  153.1422  135.4734  154.9450 H   0  0  0  0  0  0  0  0  0  0  0  0  # atno 10765 bound_to 10752
  141.1342  133.8251  157.0850 H   0  0  0  0  0  0  0  0  0  0  0  0  # atno 11005 bound_to 11000
  145.6092  139.1511  143.3085 LP  0  0  0  0  0  0  0  0  0  0  0  0  # atno 17320 bound_to 7965
  146.1994  140.6209  142.9109 LP  0  0  0  0  0  0  0  0  0  0  0  0  # atno 17321 bound_to 7965
  140.4825  144.1428  150.5935 LP  0  0  0  0  0  0  0  0  0  0  0  0  # atno 17342 bound_to 10162
  140.4261  143.2589  151.9654 LP  0  0  0  0  0  0  0  0  0  0  0  0  # atno 17343 bound_to 10162
  157.7482  131.0377  150.4467 LP  0  0  0  0  0  0  0  0  0  0  0  0  # atno 17370 bound_to 10713
  156.4692  130.4049  149.6529 LP  0  0  0  0  0  0  0  0  0  0  0  0  # atno 17371 bound_to 10713
  140.0428  134.9846  157.0993 LP  0  0  0  0  0  0  0  0  0  0  0  0  # atno 17394 bound_to 11000
  140.4109  134.1982  155.7163 LP  0  0  0  0  0  0  0  0  0  0  0  0  # atno 17395 bound_to 11000

$$$$
