AV-unprocessed.smi:153|AV-procd|sdf|1264|dock3
  -GOLD-   2262018513D 1   1.00000     0.00000
 Structure written by MMmdl.
 59 62  0  0  0  0  0  0  0  0  1 V2000
  144.6857  134.4184  162.8407 C   0  0  0  0  0  0  0  0  0  0  0  0
  145.9823  134.3619  162.0093 C   0  0  2  0  0  0  0  0  0  0  0  0
  147.0759  134.4216  162.9193 O   0  0  0  0  0  0  0  0  0  0  0  0
  147.5234  135.7659  163.0744 C   0  0  0  0  0  0  0  0  0  0  0  0
  146.8116  136.5902  161.9983 C   0  0  0  0  0  0  0  0  0  0  0  0
  146.2137  135.5514  161.0532 C   0  0  2  0  0  0  0  0  0  0  0  0
  144.9973  136.0417  160.5204 O   0  0  0  0  0  0  0  0  0  0  0  0
  147.1140  135.2092  159.8332 C   0  0  0  0  0  0  0  0  0  0  0  0
  148.0860  136.2347  159.4883 N   0  0  0  0  0  0  0  0  0  0  0  0
  149.2147  136.5722  160.1987 C   0  0  0  0  0  0  0  0  0  0  0  0
  149.9102  137.5550  159.6988 N   0  0  0  0  0  0  0  0  0  0  0  0
  149.2190  137.9198  158.5483 C   0  0  0  0  0  0  0  0  0  0  0  0
  149.3999  138.9214  157.5482 C   0  0  0  0  0  0  0  0  0  0  0  0
  150.3814  139.8644  157.5884 N   0  0  0  0  0  0  0  0  0  0  0  0
  151.7053  139.5020  157.0888 C   0  0  0  0  0  0  0  0  0  0  0  0
  149.9720  141.2643  157.4610 C   0  0  0  0  0  0  0  0  0  0  0  0
  151.0372  142.1661  156.7942 C   0  0  1  0  0  0  0  0  0  0  0  0
  150.6226  142.6047  155.5150 O   0  0  0  0  0  0  0  0  0  0  0  0
  151.4021  143.4051  157.6429 C   0  0  0  0  0  0  0  0  0  0  0  0
  151.7069  143.1695  159.0588 N   0  0  0  0  0  0  0  0  0  0  0  0
  152.0086  144.3960  159.7959 C   0  0  0  0  0  0  0  0  0  0  0  0
  152.3543  144.1141  161.2683 C   0  0  0  0  0  0  0  0  0  0  0  0
  153.4398  143.1961  161.3409 O   0  0  0  0  0  0  0  0  0  0  0  0
  153.1632  141.9676  160.6770 C   0  0  0  0  0  0  0  0  0  0  0  0
  152.8276  142.2456  159.2015 C   0  0  0  0  0  0  0  0  0  0  0  0
  148.5082  138.9362  156.5207 N   0  0  0  0  0  0  0  0  0  0  0  0
  147.4972  138.0646  156.4837 C   0  0  0  0  0  0  0  0  0  0  0  0
  147.1894  137.1078  157.3597 N   0  0  0  0  0  0  0  0  0  0  0  0
  148.0869  137.0707  158.3850 C   0  0  0  0  0  0  0  0  0  0  0  0
  143.8030  134.3379  162.2062 H   0  0  0  0  0  0  0  0  0  0  0  0
  144.6062  135.3453  163.4087 H   0  0  0  0  0  0  0  0  0  0  0  0
  144.6491  133.5931  163.5519 H   0  0  0  0  0  0  0  0  0  0  0  0
  146.0001  133.4142  161.4707 H   0  0  0  0  0  0  0  0  0  0  0  0
  147.2880  136.1324  164.0739 H   0  0  0  0  0  0  0  0  0  0  0  0
  148.6061  135.7991  162.9539 H   0  0  0  0  0  0  0  0  0  0  0  0
  146.0196  137.1710  162.4740 H   0  0  0  0  0  0  0  0  0  0  0  0
  147.4703  137.3013  161.5003 H   0  0  0  0  0  0  0  0  0  0  0  0
  144.9715  136.9781  160.6449 H   0  0  0  0  0  0  0  0  0  0  0  0
  147.6580  134.2825  160.0211 H   0  0  0  0  0  0  0  0  0  0  0  0
  146.4962  135.0214  158.9540 H   0  0  0  0  0  0  0  0  0  0  0  0
  149.4991  136.0770  161.1155 H   0  0  0  0  0  0  0  0  0  0  0  0
  152.0459  138.5664  157.5341 H   0  0  0  0  0  0  0  0  0  0  0  0
  152.4347  140.2718  157.3411 H   0  0  0  0  0  0  0  0  0  0  0  0
  151.6956  139.3873  156.0044 H   0  0  0  0  0  0  0  0  0  0  0  0
  149.0102  141.3636  156.9642 H   0  0  0  0  0  0  0  0  0  0  0  0
  149.7976  141.6332  158.4722 H   0  0  0  0  0  0  0  0  0  0  0  0
  151.9522  141.5924  156.6439 H   0  0  0  0  0  0  0  0  0  0  0  0
  150.0292  143.3314  155.6271 H   0  0  0  0  0  0  0  0  0  0  0  0
  152.2899  143.8395  157.1814 H   0  0  0  0  0  0  0  0  0  0  0  0
  150.6266  144.1667  157.5456 H   0  0  0  0  0  0  0  0  0  0  0  0
  152.8400  144.9196  159.3214 H   0  0  0  0  0  0  0  0  0  0  0  0
  151.1559  145.0730  159.7740 H   0  0  0  0  0  0  0  0  0  0  0  0
  152.6334  145.0380  161.7750 H   0  0  0  0  0  0  0  0  0  0  0  0
  151.4895  143.7082  161.7956 H   0  0  0  0  0  0  0  0  0  0  0  0
  154.0350  141.3179  160.7520 H   0  0  0  0  0  0  0  0  0  0  0  0
  152.3369  141.4551  161.1718 H   0  0  0  0  0  0  0  0  0  0  0  0
  152.5961  141.3031  158.7042 H   0  0  0  0  0  0  0  0  0  0  0  0
  153.7088  142.6523  158.7031 H   0  0  0  0  0  0  0  0  0  0  0  0
  146.8339  138.1539  155.6362 H   0  0  0  0  0  0  0  0  0  0  0  0
  1  2  1  0  0  0  0
  1 30  1  0  0  0  0
  1 31  1  0  0  0  0
  1 32  1  0  0  0  0
  2  6  1  0  0  0  0
  2  3  1  0  0  0  0
  2 33  1  0  0  0  0
  3  4  1  0  0  0  0
  4  5  1  0  0  0  0
  4 34  1  0  0  0  0
  4 35  1  0  0  0  0
  5  6  1  0  0  0  0
  5 36  1  0  0  0  0
  5 37  1  0  0  0  0
  6  7  1  0  0  0  0
  6  8  1  0  0  0  0
  7 38  1  0  0  0  0
  8  9  1  0  0  0  0
  8 39  1  0  0  0  0
  8 40  1  0  0  0  0
  9 29  1  0  0  0  0
  9 10  1  0  0  0  0
 10 11  2  0  0  0  0
 10 41  1  0  0  0  0
 11 12  1  0  0  0  0
 12 29  2  0  0  0  0
 12 13  1  0  0  0  0
 13 14  1  0  0  0  0
 13 26  2  0  0  0  0
 14 15  1  0  0  0  0
 14 16  1  0  0  0  0
 15 42  1  0  0  0  0
 15 43  1  0  0  0  0
 15 44  1  0  0  0  0
 16 17  1  0  0  0  0
 16 45  1  0  0  0  0
 16 46  1  0  0  0  0
 17 18  1  0  0  0  0
 17 19  1  0  0  0  0
 17 47  1  0  0  0  0
 18 48  1  0  0  0  0
 19 20  1  0  0  0  0
 19 49  1  0  0  0  0
 19 50  1  0  0  0  0
 20 25  1  0  0  0  0
 20 21  1  0  0  0  0
 21 22  1  0  0  0  0
 21 51  1  0  0  0  0
 21 52  1  0  0  0  0
 22 23  1  0  0  0  0
 22 53  1  0  0  0  0
 22 54  1  0  0  0  0
 23 24  1  0  0  0  0
 24 25  1  0  0  0  0
 24 55  1  0  0  0  0
 24 56  1  0  0  0  0
 25 57  1  0  0  0  0
 25 58  1  0  0  0  0
 26 27  1  0  0  0  0
 27 28  2  0  0  0  0
 27 59  1  0  0  0  0
 28 29  1  0  0  0  0
M  END
> <s_m_source_file>
AV-unprocessed.smi

> <i_m_source_file_index>
153

> <i_lp_mmshare_version>
43012

> <i_f3d_flags>
0

> <s_epik_input>
W0NIMl0xW0NIMl1PW0NAQEhdKFtDSDNdKVtDQEBdMShbT0hdKVtDSDJdbihbY0hdbjIpYyhjMjMpbltjSF1uYzNOKFtDSDNdKVtDSDJdW0NASF0oW09IXSlbQ0gyXU40W0NIMl1bQ0gyXU9bQ0gyXVtDSDJdNA==

> <s_epik_cmdline>
J2VwaWtfcHl0aG9uJywgJy1waCcsICc3LjAnLCAnLXRuJywgJzgnLCAnLW1hJywgJzIwMCcsICctbWV0YWxfYmluZGluZycsICctaW1hZScsICc8aW5maWxlLm1hZT4nLCAnLW9tYWUnLCAnPG91dGZpbGUubWFlPic=

> <r_lp_tautomer_probability>
1

> <r_epik_Ionization_Penalty>
0.424123

> <r_epik_Ionization_Penalty_Charging>
0

> <r_epik_Ionization_Penalty_Neutral>
0.424123

> <r_epik_State_Penalty>
0.421495

> <r_epik_Charging_Adjusted_Penalty>
0.421495

> <i_epik_Tot_Q>
0

> <i_epik_Tot_abs_Q>
0

> <r_epik_Metal_State_Penalty>
0.421223

> <b_epik_Metal_Only>
0

> <s_lp_Force_Field>
OPLS_2005

> <r_lp_Energy>
59.2103

> <b_lp_Chiralities_Consistent>
1

> <s_lp_Variant>
AV-unprocessed.smi:153-15

> <Gold.Version>
5.8.1

> <Gold.Id.Protein>
6NUR|6NUR_protein|mol2

> <Gold.PLP.Fitness>
43.1508

> <Gold.PLP.PLP>
-45.5070

> <Gold.PLP.part.hbond>
-2.4574

> <Gold.PLP.part.metal>
0.0000

> <Gold.PLP.part.buried>
-5.5254

> <Gold.PLP.part.nonpolar>
-38.1615

> <Gold.PLP.part.repulsive>
0.0470

> <Gold.PLP.ligand.clash>
0.0000

> <Gold.PLP.ligand.torsion>
3.0952

> <Gold.PLP.Chemscore.Hbond>
1.0000

> <Gold.PLP.Chemscore.CHOScore>
0.0000

> <Gold.PLP.Chemscore.Metal>
0.0000

> <Gold.Chemscore.Hbonds>
donor molecule, donor type, donor heavy atom, donor atom, acceptor molecule, acceptor atom, score
      L1  H    18    48       P1  8028  1.00

> <Gold.PLP.Chemscore.Internal.Correction>
0.8341

> <Gold.Rescore>
     Score         DG    S(hbond)    S(metal)    S(lipo)     H(rot)  DE(clash)    DE(int)     intcor
      9.39     -13.57       0.99        0.00     117.77       3.52       0.13       4.06       ----

> <Gold.Chemscore.Fitness>
9.3864

> <Gold.Chemscore.DG>
-13.5749

> <Gold.Chemscore.ZeroCoef>
-5.4800

> <Gold.Chemscore.Hbond>
0.9939

> <Gold.Chemscore.Metal>
0.0000

> <Gold.Chemscore.Lipo>
117.7687

> <Gold.Chemscore.Internal_Hbond>
0.0000

> <Gold.Chemscore.DEClash>
0.1272

> <Gold.Chemscore.DEInternal>
4.0614

> <Gold.Chemscore.Rot>
3.5170

> <Gold.Chemscore.Internal.Correction>
   9.000000E+99

> <Gold.Chemscore.Hbonds>
donor molecule, donor type, donor heavy atom, donor atom, acceptor molecule, acceptor atom, score
      L1  H    18    48       P1  8028  1.00

> <Gold.Chemscore.Hbond.Weighted>
-3.3196

> <Gold.Chemscore.Metal.Weighted>
-0.0000

> <Gold.Chemscore.Lipo.Weighted>
-13.7789

> <Gold.Chemscore.Internal_Hbond.Weighted>
0.0000

> <Gold.Chemscore.DEClash.Weighted>
0.1272

> <Gold.Chemscore.DEInternal.Weighted>
4.0614

> <Gold.Chemscore.Rot.Weighted>
9.0036

> <Gold.Chemscore.Internal.Correction.Weighted>
   9.000000E+99

> <Gold.Protein.RotatedTorsions>
[ 6907 6896 6895 6894 ] final  -40.41 input  -60.11 | X-H torsion
[ 7974 7965 7964 7962 ] final   96.27 input  175.53 | X-H torsion
[ 8008 7997 7996 7995 ] final -111.10 input   59.86 | X-H torsion
[ 10167 10162 10161 10158 ] final  168.94 input  -65.29 | X-H torsion
[ 10718 10713 10712 10709 ] final   87.35 input   66.30 | X-H torsion
[ 10763 10752 10751 10750 ] final   15.29 input  -60.55 | X-H torsion
[ 11005 11000 10999 10996 ] final  122.36 input  -57.11 | X-H torsion

> <Gold.Protein.ActiveResidues>
 VAL166  LYS551  ARG553  GLY616  TRP617  ASP618  TYR619  PRO620  LYS621  CYS622 
 ASP623  PHE694  ASN695  SER759  ASP760  ASP761  ALA762  ILE779  LEU786  VAL792 
 PHE793  MET794  SER795  GLU796  ALA797  LYS798  CYS799  TRP800  GLU811  SER814 

> <Gold.Protein.RotatedAtoms>
  150.9788  134.9147  159.7831 H   0  0  0  0  0  0  0  0  0  0  0  0  # atno 6907 bound_to 6896
  152.5215  134.3439  159.9237 H   0  0  0  0  0  0  0  0  0  0  0  0  # atno 6908 bound_to 6896
  151.3447  133.3908  159.2709 H   0  0  0  0  0  0  0  0  0  0  0  0  # atno 6909 bound_to 6896
  145.4411  139.2301  143.3092 H   0  0  0  0  0  0  0  0  0  0  0  0  # atno 7974 bound_to 7965
  154.9846  140.0396  157.2293 H   0  0  0  0  0  0  0  0  0  0  0  0  # atno 8008 bound_to 7997
  154.7683  140.2797  155.6136 H   0  0  0  0  0  0  0  0  0  0  0  0  # atno 8009 bound_to 7997
  156.2916  140.2615  156.2479 H   0  0  0  0  0  0  0  0  0  0  0  0  # atno 8010 bound_to 7997
  139.4980  144.3760  151.9674 H   0  0  0  0  0  0  0  0  0  0  0  0  # atno 10167 bound_to 10162
  157.6939  131.0252  150.3109 H   0  0  0  0  0  0  0  0  0  0  0  0  # atno 10718 bound_to 10713
  153.1539  135.6783  153.8841 H   0  0  0  0  0  0  0  0  0  0  0  0  # atno 10763 bound_to 10752
  153.8258  135.3124  155.3415 H   0  0  0  0  0  0  0  0  0  0  0  0  # atno 10764 bound_to 10752
  154.7883  135.4849  154.0082 H   0  0  0  0  0  0  0  0  0  0  0  0  # atno 10765 bound_to 10752
  139.9265  134.9641  156.8097 H   0  0  0  0  0  0  0  0  0  0  0  0  # atno 11005 bound_to 11000
  146.2556  140.5159  142.8875 LP  0  0  0  0  0  0  0  0  0  0  0  0  # atno 17320 bound_to 7965
  144.8121  140.6404  143.6408 LP  0  0  0  0  0  0  0  0  0  0  0  0  # atno 17321 bound_to 7965
  140.3196  144.3443  150.6013 LP  0  0  0  0  0  0  0  0  0  0  0  0  # atno 17342 bound_to 10162
  140.5733  143.2179  151.7560 LP  0  0  0  0  0  0  0  0  0  0  0  0  # atno 17343 bound_to 10162
  156.3611  130.3847  149.7251 LP  0  0  0  0  0  0  0  0  0  0  0  0  # atno 17370 bound_to 10713
  156.4696  130.7990  151.3009 LP  0  0  0  0  0  0  0  0  0  0  0  0  # atno 17371 bound_to 10713
  140.6322  133.9895  155.7667 LP  0  0  0  0  0  0  0  0  0  0  0  0  # atno 17394 bound_to 11000
  141.0826  134.0040  157.3363 LP  0  0  0  0  0  0  0  0  0  0  0  0  # atno 17395 bound_to 11000

$$$$
