AV-unprocessed.smi:1157|AV-procd|sdf|4910|dock4
  -GOLD-   22720 3483D 1   1.00000     0.00000
 Structure written by MMmdl.
 55 57  0  0  0  0  0  0  0  0  4 V2000
  156.3733  134.4774  163.4558 C   0  0  0  0  0  0  0  0  0  0  0  0
  154.8462  134.6936  163.2402 C   0  0  0  0  0  0  0  0  0  0  0  0
  154.5158  136.0503  163.9302 C   0  0  0  0  0  0  0  0  0  0  0  0
  154.5056  134.7562  161.6991 C   0  0  0  0  0  0  0  0  0  0  0  0
  154.8583  136.0519  161.1082 N   0  5  0  0  0  0  0  0  0  0  0  0
  153.9685  137.0104  160.7359 C   0  0  0  0  0  0  0  0  0  0  0  0
  152.8102  136.8489  160.3359 O   0  0  0  0  0  0  0  0  0  0  0  0
  154.4912  138.2464  160.8289 N   0  0  0  0  0  0  0  0  0  0  0  0
  153.9032  139.4953  160.4927 C   0  0  0  0  0  0  0  0  0  0  0  0
  154.2684  140.6215  161.2590 C   0  0  0  0  0  0  0  0  0  0  0  0
  153.7042  141.8802  160.9674 C   0  0  0  0  0  0  0  0  0  0  0  0
  152.7643  141.9996  159.9169 C   0  0  0  0  0  0  0  0  0  0  0  0
  152.1702  143.2250  159.5607 N   0  0  0  0  0  0  0  0  0  0  0  0
  152.2745  144.4029  160.4065 C   0  0  0  0  0  0  0  0  0  0  0  0
  151.6115  145.5159  159.5962 C   0  0  0  0  0  0  0  0  0  0  0  0
  151.9264  145.1276  158.1510 C   0  0  0  0  0  0  0  0  0  0  0  0
  151.9471  143.5942  158.1703 C   0  0  0  0  0  0  0  0  0  0  0  0
  152.4297  140.8885  159.2185 N   0  3  0  0  0  0  0  0  0  0  0  0
  152.9468  139.6650  159.4639 C   0  0  0  0  0  0  0  0  0  0  0  0
  154.0989  133.5900  163.9703 N   0  3  0  0  0  0  0  0  0  0  0  0
  154.2284  132.1980  163.4395 C   0  0  0  0  0  0  0  0  0  0  0  0
  153.1937  131.2719  164.0988 C   0  0  0  0  0  0  0  0  0  0  0  0
  153.3602  131.2912  165.5095 O   0  0  0  0  0  0  0  0  0  0  0  0
  153.1478  132.5893  166.0458 C   0  0  0  0  0  0  0  0  0  0  0  0
  154.1798  133.5689  165.4636 C   0  0  0  0  0  0  0  0  0  0  0  0
  156.9616  135.3451  163.1510 H   0  0  0  0  0  0  0  0  0  0  0  0
  156.7789  133.6265  162.9056 H   0  0  0  0  0  0  0  0  0  0  0  0
  156.5964  134.3142  164.5109 H   0  0  0  0  0  0  0  0  0  0  0  0
  155.1842  136.8518  163.6093 H   0  0  0  0  0  0  0  0  0  0  0  0
  154.6308  135.9732  165.0120 H   0  0  0  0  0  0  0  0  0  0  0  0
  153.5019  136.4057  163.7379 H   0  0  0  0  0  0  0  0  0  0  0  0
  155.0402  133.9542  161.1905 H   0  0  0  0  0  0  0  0  0  0  0  0
  153.4506  134.5148  161.5660 H   0  0  0  0  0  0  0  0  0  0  0  0
  155.4661  138.2802  161.0893 H   0  0  0  0  0  0  0  0  0  0  0  0
  154.9867  140.5266  162.0604 H   0  0  0  0  0  0  0  0  0  0  0  0
  154.0060  142.7385  161.5488 H   0  0  0  0  0  0  0  0  0  0  0  0
  151.7818  144.2559  161.3682 H   0  0  0  0  0  0  0  0  0  0  0  0
  153.3263  144.6305  160.5856 H   0  0  0  0  0  0  0  0  0  0  0  0
  150.5323  145.4965  159.7549 H   0  0  0  0  0  0  0  0  0  0  0  0
  151.9742  146.5090  159.8625 H   0  0  0  0  0  0  0  0  0  0  0  0
  151.2096  145.5324  157.4361 H   0  0  0  0  0  0  0  0  0  0  0  0
  152.9148  145.5029  157.8820 H   0  0  0  0  0  0  0  0  0  0  0  0
  152.7229  143.2056  157.5094 H   0  0  0  0  0  0  0  0  0  0  0  0
  150.9865  143.1905  157.8485 H   0  0  0  0  0  0  0  0  0  0  0  0
  152.5674  138.8749  158.8333 H   0  0  0  0  0  0  0  0  0  0  0  0
  154.0700  132.1581  162.3639 H   0  0  0  0  0  0  0  0  0  0  0  0
  155.2290  131.8078  163.6300 H   0  0  0  0  0  0  0  0  0  0  0  0
  152.1781  131.5711  163.8341 H   0  0  0  0  0  0  0  0  0  0  0  0
  153.3261  130.2496  163.7439 H   0  0  0  0  0  0  0  0  0  0  0  0
  152.1304  132.9231  165.8353 H   0  0  0  0  0  0  0  0  0  0  0  0
  153.2476  132.5412  167.1302 H   0  0  0  0  0  0  0  0  0  0  0  0
  155.1771  133.2697  165.7880 H   0  0  0  0  0  0  0  0  0  0  0  0
  153.9858  134.5494  165.8933 H   0  0  0  0  0  0  0  0  0  0  0  0
  153.1338  133.8245  163.7884 H   0  0  0  0  0  0  0  0  0  0  0  0
  151.7483  140.9776  158.4649 H   0  0  0  0  0  0  0  0  0  0  0  0
  1  2  1  0  0  0  0
  1 26  1  0  0  0  0
  1 27  1  0  0  0  0
  1 28  1  0  0  0  0
  2  3  1  0  0  0  0
  2  4  1  0  0  0  0
  2 20  1  0  0  0  0
  3 29  1  0  0  0  0
  3 30  1  0  0  0  0
  3 31  1  0  0  0  0
  4  5  1  0  0  0  0
  4 32  1  0  0  0  0
  4 33  1  0  0  0  0
  5  6  1  0  0  0  0
  6  7  2  0  0  0  0
  6  8  1  0  0  0  0
  8  9  1  0  0  0  0
  8 34  1  0  0  0  0
  9 19  1  0  0  0  0
  9 10  2  0  0  0  0
 10 11  1  0  0  0  0
 10 35  1  0  0  0  0
 11 12  2  0  0  0  0
 11 36  1  0  0  0  0
 12 13  1  0  0  0  0
 12 18  1  0  0  0  0
 13 17  1  0  0  0  0
 13 14  1  0  0  0  0
 14 15  1  0  0  0  0
 14 37  1  0  0  0  0
 14 38  1  0  0  0  0
 15 16  1  0  0  0  0
 15 39  1  0  0  0  0
 15 40  1  0  0  0  0
 16 17  1  0  0  0  0
 16 41  1  0  0  0  0
 16 42  1  0  0  0  0
 17 43  1  0  0  0  0
 17 44  1  0  0  0  0
 18 19  2  0  0  0  0
 18 55  1  0  0  0  0
 19 45  1  0  0  0  0
 20 25  1  0  0  0  0
 20 21  1  0  0  0  0
 20 54  1  0  0  0  0
 21 22  1  0  0  0  0
 21 46  1  0  0  0  0
 21 47  1  0  0  0  0
 22 23  1  0  0  0  0
 22 48  1  0  0  0  0
 22 49  1  0  0  0  0
 23 24  1  0  0  0  0
 24 25  1  0  0  0  0
 24 50  1  0  0  0  0
 24 51  1  0  0  0  0
 25 52  1  0  0  0  0
 25 53  1  0  0  0  0
M  CHG  1   5  -1
M  CHG  1  18   1
M  CHG  1  20   1
M  END
> <s_m_source_file>
AV-unprocessed.smi

> <i_m_source_file_index>
1157

> <i_lp_mmshare_version>
43012

> <i_f3d_flags>
0

> <s_epik_input>
W0NIMl0xW0NIMl1PW0NIMl1bQ0gyXU4xQyhbQ0gzXSkoW0NIM10pW0NIMl1bTkhdQyg9TylbTkhdYzJbY0hdW2NIXWMobltjSF0yKU4zW0NIMl1bQ0gyXVtDSDJdW0NIMl0z

> <s_epik_cmdline>
J2VwaWtfcHl0aG9uJywgJy1waCcsICc3LjAnLCAnLXRuJywgJzgnLCAnLW1hJywgJzIwMCcsICctbWV0YWxfYmluZGluZycsICctaW1hZScsICc8aW5maWxlLm1hZT4nLCAnLW9tYWUnLCAnPG91dGZpbGUubWFlPic=

> <r_lp_tautomer_probability>
0.999994

> <r_epik_Ionization_Penalty>
8.57565

> <r_epik_Ionization_Penalty_Charging>
8.57565

> <r_epik_Ionization_Penalty_Neutral>
3.57932e-06

> <r_epik_State_Penalty>
8.56988

> <r_epik_Charging_Adjusted_Penalty>
17.1455

> <i_epik_Tot_Q>
1

> <i_epik_Tot_abs_Q>
3

> <r_epik_Metal_State_Penalty>
4.56714

> <b_epik_Metal_Only>
1

> <s_lp_Force_Field>
OPLS_2005

> <r_lp_Energy>
57.9076

> <b_lp_Chiralities_Consistent>
1

> <s_lp_Variant>
AV-unprocessed.smi:1157-5

> <Gold.Version>
5.8.1

> <Gold.Id.Protein>
6NUR|6NUR_protein|mol2

> <Gold.PLP.Fitness>
53.3456

> <Gold.PLP.PLP>
-52.4397

> <Gold.PLP.part.hbond>
-0.8811

> <Gold.PLP.part.metal>
0.0000

> <Gold.PLP.part.buried>
-7.2665

> <Gold.PLP.part.nonpolar>
-45.6056

> <Gold.PLP.part.repulsive>
0.1916

> <Gold.PLP.ligand.clash>
0.0000

> <Gold.PLP.ligand.torsion>
1.1609

> <Gold.PLP.Chemscore.Hbond>
0.9425

> <Gold.PLP.Chemscore.CHOScore>
0.0000

> <Gold.PLP.Chemscore.Metal>
0.0000

> <Gold.Chemscore.Hbonds>
donor molecule, donor type, donor heavy atom, donor atom, acceptor molecule, acceptor atom, score
      P1  H  6896  6908       L1     7  1.00

> <Gold.PLP.Chemscore.Internal.Correction>
0.4001

> <Gold.Rescore>
     Score         DG    S(hbond)    S(metal)    S(lipo)     H(rot)  DE(clash)    DE(int)     intcor
     18.01     -20.56       0.98        0.00     132.03       1.42       0.15       2.41       ----

> <Gold.Chemscore.Fitness>
18.0088

> <Gold.Chemscore.DG>
-20.5638

> <Gold.Chemscore.ZeroCoef>
-5.4800

> <Gold.Chemscore.Hbond>
0.9827

> <Gold.Chemscore.Metal>
0.0000

> <Gold.Chemscore.Lipo>
132.0314

> <Gold.Chemscore.Internal_Hbond>
0.0000

> <Gold.Chemscore.DEClash>
0.1488

> <Gold.Chemscore.DEInternal>
2.4062

> <Gold.Chemscore.Rot>
1.4243

> <Gold.Chemscore.Internal.Correction>
   9.000000E+99

> <Gold.Chemscore.Hbonds>
donor molecule, donor type, donor heavy atom, donor atom, acceptor molecule, acceptor atom, score
      P1  H  6896  6908       L1     7  0.96

> <Gold.Chemscore.Hbond.Weighted>
-3.2823

> <Gold.Chemscore.Metal.Weighted>
-0.0000

> <Gold.Chemscore.Lipo.Weighted>
-15.4477

> <Gold.Chemscore.Internal_Hbond.Weighted>
0.0000

> <Gold.Chemscore.DEClash.Weighted>
0.1488

> <Gold.Chemscore.DEInternal.Weighted>
2.4062

> <Gold.Chemscore.Rot.Weighted>
3.6462

> <Gold.Chemscore.Internal.Correction.Weighted>
   9.000000E+99

> <Gold.Protein.RotatedTorsions>
[ 6907 6896 6895 6894 ] final  -90.83 input  -60.11 | X-H torsion
[ 7974 7965 7964 7962 ] final   30.21 input  175.53 | X-H torsion
[ 8008 7997 7996 7995 ] final  142.52 input   59.86 | X-H torsion
[ 10167 10162 10161 10158 ] final -178.20 input  -65.29 | X-H torsion
[ 10718 10713 10712 10709 ] final   77.07 input   66.30 | X-H torsion
[ 10763 10752 10751 10750 ] final   81.28 input  -60.55 | X-H torsion
[ 11005 11000 10999 10996 ] final  -61.78 input  -57.11 | X-H torsion

> <Gold.Protein.ActiveResidues>
 VAL166  LYS551  ARG553  GLY616  TRP617  ASP618  TYR619  PRO620  LYS621  CYS622 
 ASP623  PHE694  ASN695  SER759  ASP760  ASP761  ALA762  ILE779  LEU786  VAL792 
 PHE793  MET794  SER795  GLU796  ALA797  LYS798  CYS799  TRP800  GLU811  SER814 

> <Gold.Protein.RotatedAtoms>
  150.6886  134.2371  159.4457 H   0  0  0  0  0  0  0  0  0  0  0  0  # atno 6907 bound_to 6896
  152.0318  134.9761  160.0582 H   0  0  0  0  0  0  0  0  0  0  0  0  # atno 6908 bound_to 6896
  152.1297  133.4366  159.4752 H   0  0  0  0  0  0  0  0  0  0  0  0  # atno 6909 bound_to 6896
  146.1625  139.6819  142.9023 H   0  0  0  0  0  0  0  0  0  0  0  0  # atno 7974 bound_to 7965
  156.2948  140.2286  156.4741 H   0  0  0  0  0  0  0  0  0  0  0  0  # atno 8008 bound_to 7997
  154.7909  140.0454  157.1221 H   0  0  0  0  0  0  0  0  0  0  0  0  # atno 8009 bound_to 7997
  154.9646  140.3058  155.5019 H   0  0  0  0  0  0  0  0  0  0  0  0  # atno 8010 bound_to 7997
  139.5443  144.2277  152.0958 H   0  0  0  0  0  0  0  0  0  0  0  0  # atno 10167 bound_to 10162
  157.6697  130.9804  150.1588 H   0  0  0  0  0  0  0  0  0  0  0  0  # atno 10718 bound_to 10713
  153.1104  135.4771  154.9025 H   0  0  0  0  0  0  0  0  0  0  0  0  # atno 10763 bound_to 10752
  154.7474  135.3097  154.8621 H   0  0  0  0  0  0  0  0  0  0  0  0  # atno 10764 bound_to 10752
  153.9212  135.6855  153.4801 H   0  0  0  0  0  0  0  0  0  0  0  0  # atno 10765 bound_to 10752
  141.1336  133.6633  156.5427 H   0  0  0  0  0  0  0  0  0  0  0  0  # atno 11005 bound_to 11000
  145.4551  141.0430  143.2783 LP  0  0  0  0  0  0  0  0  0  0  0  0  # atno 17320 bound_to 7965
  144.8047  139.6074  143.7056 LP  0  0  0  0  0  0  0  0  0  0  0  0  # atno 17321 bound_to 7965
  140.1761  144.4890  150.6553 LP  0  0  0  0  0  0  0  0  0  0  0  0  # atno 17342 bound_to 10162
  140.6686  143.2277  151.5682 LP  0  0  0  0  0  0  0  0  0  0  0  0  # atno 17343 bound_to 10162
  156.2369  130.3687  149.8381 LP  0  0  0  0  0  0  0  0  0  0  0  0  # atno 17370 bound_to 10713
  156.6191  130.8619  151.3471 LP  0  0  0  0  0  0  0  0  0  0  0  0  # atno 17371 bound_to 10713
  140.4126  134.7258  157.4845 LP  0  0  0  0  0  0  0  0  0  0  0  0  # atno 17394 bound_to 11000
  140.0416  134.6259  155.8973 LP  0  0  0  0  0  0  0  0  0  0  0  0  # atno 17395 bound_to 11000

$$$$
