AV-unprocessed.smi:2513|AV-procd|sdf|9891|dock3
  -GOLD-   2272013523D 1   1.00000     0.00000
 Structure written by MMmdl.
 35 36  0  0  0  0  0  0  0  0  1 V2000
  147.9179  132.1244  153.2290 C   0  0  0  0  0  0  0  0  0  0  0  0
  147.4059  133.3510  152.7291 O   0  0  0  0  0  0  0  0  0  0  0  0
  146.3427  133.3053  151.8484 C   0  0  0  0  0  0  0  0  0  0  0  0
  145.7686  132.0980  151.3744 C   0  0  0  0  0  0  0  0  0  0  0  0
  144.6884  132.1531  150.4769 C   0  0  0  0  0  0  0  0  0  0  0  0
  144.2164  133.4158  150.0833 C   0  0  0  0  0  0  0  0  0  0  0  0
  144.7514  134.5702  150.5264 N   0  0  0  0  0  0  0  0  0  0  0  0
  145.7950  134.5327  151.3922 C   0  0  0  0  0  0  0  0  0  0  0  0
  146.4156  135.7058  151.9047 N   0  0  0  0  0  0  0  0  0  0  0  0
  145.8364  136.7837  152.4618 C   0  0  0  0  0  0  0  0  0  0  0  0
  144.6259  136.9386  152.6261 O   0  0  0  0  0  0  0  0  0  0  0  0
  146.7537  137.6907  152.8277 N   0  0  0  0  0  0  0  0  0  0  0  0
  146.4626  138.9733  153.4612 C   0  0  2  0  0  0  0  0  0  0  0  0
  147.0669  140.1135  152.6282 C   0  0  0  0  0  0  0  0  0  0  0  0
  146.8851  141.4491  153.3579 C   0  0  0  0  0  0  0  0  0  0  0  0
  147.4265  141.3547  154.7931 C   0  0  0  0  0  0  0  0  0  0  0  0
  146.7808  140.2908  155.4844 O   0  0  0  0  0  0  0  0  0  0  0  0
  147.0230  139.0156  154.8985 C   0  0  0  0  0  0  0  0  0  0  0  0
  148.7460  132.3305  153.9072 H   0  0  0  0  0  0  0  0  0  0  0  0
  148.2997  131.4939  152.4247 H   0  0  0  0  0  0  0  0  0  0  0  0
  147.1609  131.5758  153.7910 H   0  0  0  0  0  0  0  0  0  0  0  0
  146.1349  131.1300  151.6801 H   0  0  0  0  0  0  0  0  0  0  0  0
  144.2333  131.2493  150.0994 H   0  0  0  0  0  0  0  0  0  0  0  0
  143.3887  133.5023  149.3948 H   0  0  0  0  0  0  0  0  0  0  0  0
  147.4225  135.7219  151.8372 H   0  0  0  0  0  0  0  0  0  0  0  0
  147.7258  137.4803  152.6553 H   0  0  0  0  0  0  0  0  0  0  0  0
  145.3810  139.1160  153.5010 H   0  0  0  0  0  0  0  0  0  0  0  0
  148.1307  139.9329  152.4658 H   0  0  0  0  0  0  0  0  0  0  0  0
  146.6013  140.1562  151.6427 H   0  0  0  0  0  0  0  0  0  0  0  0
  147.3915  142.2474  152.8149 H   0  0  0  0  0  0  0  0  0  0  0  0
  145.8266  141.7107  153.3852 H   0  0  0  0  0  0  0  0  0  0  0  0
  148.5066  141.2000  154.7926 H   0  0  0  0  0  0  0  0  0  0  0  0
  147.2389  142.2867  155.3264 H   0  0  0  0  0  0  0  0  0  0  0  0
  146.5424  138.2572  155.5173 H   0  0  0  0  0  0  0  0  0  0  0  0
  148.0930  138.8010  154.9088 H   0  0  0  0  0  0  0  0  0  0  0  0
  1  2  1  0  0  0  0
  1 19  1  0  0  0  0
  1 20  1  0  0  0  0
  1 21  1  0  0  0  0
  2  3  1  0  0  0  0
  3  8  1  0  0  0  0
  3  4  2  0  0  0  0
  4  5  1  0  0  0  0
  4 22  1  0  0  0  0
  5  6  2  0  0  0  0
  5 23  1  0  0  0  0
  6  7  1  0  0  0  0
  6 24  1  0  0  0  0
  7  8  2  0  0  0  0
  8  9  1  0  0  0  0
  9 10  1  0  0  0  0
  9 25  1  0  0  0  0
 10 11  2  0  0  0  0
 10 12  1  0  0  0  0
 12 13  1  0  0  0  0
 12 26  1  0  0  0  0
 13 18  1  0  0  0  0
 13 14  1  0  0  0  0
 13 27  1  0  0  0  0
 14 15  1  0  0  0  0
 14 28  1  0  0  0  0
 14 29  1  0  0  0  0
 15 16  1  0  0  0  0
 15 30  1  0  0  0  0
 15 31  1  0  0  0  0
 16 17  1  0  0  0  0
 16 32  1  0  0  0  0
 16 33  1  0  0  0  0
 17 18  1  0  0  0  0
 18 34  1  0  0  0  0
 18 35  1  0  0  0  0
M  END
> <s_m_source_file>
AV-unprocessed.smi

> <i_m_source_file_index>
2513

> <i_lp_mmshare_version>
43012

> <i_f3d_flags>
0

> <s_epik_input>
W0NIM11PYzFbY0hdW2NIXVtjSF1uYzFbTkhdQyg9TylbTkhdW0NAQEhdMltDSDJdW0NIMl1bQ0gyXU9bQ0gyXTI=

> <s_epik_cmdline>
J2VwaWtfcHl0aG9uJywgJy1waCcsICc3LjAnLCAnLXRuJywgJzgnLCAnLW1hJywgJzIwMCcsICctbWV0YWxfYmluZGluZycsICctaW1hZScsICc8aW5maWxlLm1hZT4nLCAnLW9tYWUnLCAnPG91dGZpbGUubWFlPic=

> <r_lp_tautomer_probability>
1

> <r_epik_Ionization_Penalty>
3.98976e-05

> <r_epik_Ionization_Penalty_Charging>
0

> <r_epik_Ionization_Penalty_Neutral>
3.98976e-05

> <r_epik_State_Penalty>
-0

> <r_epik_Charging_Adjusted_Penalty>
0

> <i_epik_Tot_Q>
0

> <i_epik_Tot_abs_Q>
0

> <r_epik_Metal_State_Penalty>
-0

> <b_epik_Metal_Only>
0

> <s_lp_Force_Field>
OPLS_2005

> <r_lp_Energy>
12.9865

> <b_lp_Chiralities_Consistent>
1

> <s_lp_Variant>
AV-unprocessed.smi:2513-1

> <Gold.Version>
5.8.1

> <Gold.Id.Protein>
6NUR|6NUR_protein|mol2

> <Gold.PLP.Fitness>
34.5105

> <Gold.PLP.PLP>
-26.6940

> <Gold.PLP.part.hbond>
-2.0000

> <Gold.PLP.part.metal>
0.0000

> <Gold.PLP.part.buried>
-4.3004

> <Gold.PLP.part.nonpolar>
-21.2270

> <Gold.PLP.part.repulsive>
0.6755

> <Gold.PLP.ligand.clash>
0.0000

> <Gold.PLP.ligand.torsion>
0.4633

> <Gold.PLP.Chemscore.Hbond>
1.9120

> <Gold.PLP.Chemscore.CHOScore>
1.0000

> <Gold.PLP.Chemscore.Metal>
0.0000

> <Gold.Chemscore.Hbonds>
donor molecule, donor type, donor heavy atom, donor atom, acceptor molecule, acceptor atom, score
      L1  H     9    25       P1  7948  1.00
      L1  H    12    26       P1  7948  0.91
      L1  C     6    24       P1 10186  0.94

> <Gold.PLP.Chemscore.Internal.Correction>
0.0072

> <Gold.Rescore>
     Score         DG    S(hbond)    S(metal)    S(lipo)     H(rot)  DE(clash)    DE(int)     intcor
     16.08     -16.74       1.95        0.00      68.12       1.25       0.19       0.47       ----

> <Gold.Chemscore.Fitness>
16.0800

> <Gold.Chemscore.DG>
-16.7376

> <Gold.Chemscore.ZeroCoef>
-5.4800

> <Gold.Chemscore.Hbond>
1.9456

> <Gold.Chemscore.Metal>
0.0000

> <Gold.Chemscore.Lipo>
68.1185

> <Gold.Chemscore.Internal_Hbond>
0.0000

> <Gold.Chemscore.DEClash>
0.1878

> <Gold.Chemscore.DEInternal>
0.4698

> <Gold.Chemscore.Rot>
1.2542

> <Gold.Chemscore.Internal.Correction>
   9.000000E+99

> <Gold.Chemscore.Hbonds>
donor molecule, donor type, donor heavy atom, donor atom, acceptor molecule, acceptor atom, score
      L1  H     9    25       P1  7948  0.97
      L1  H    12    26       P1  7948  0.88

> <Gold.Chemscore.Hbond.Weighted>
-6.4984

> <Gold.Chemscore.Metal.Weighted>
-0.0000

> <Gold.Chemscore.Lipo.Weighted>
-7.9699

> <Gold.Chemscore.Internal_Hbond.Weighted>
0.0000

> <Gold.Chemscore.DEClash.Weighted>
0.1878

> <Gold.Chemscore.DEInternal.Weighted>
0.4698

> <Gold.Chemscore.Rot.Weighted>
3.2107

> <Gold.Chemscore.Internal.Correction.Weighted>
   9.000000E+99

> <Gold.Protein.RotatedTorsions>
[ 6907 6896 6895 6894 ] final  158.96 input  -60.11 | X-H torsion
[ 7974 7965 7964 7962 ] final  -28.62 input  175.53 | X-H torsion
[ 8008 7997 7996 7995 ] final  117.93 input   59.86 | X-H torsion
[ 10167 10162 10161 10158 ] final -155.37 input  -65.29 | X-H torsion
[ 10718 10713 10712 10709 ] final  -79.05 input   66.30 | X-H torsion
[ 10763 10752 10751 10750 ] final  -74.87 input  -60.55 | X-H torsion
[ 11005 11000 10999 10996 ] final   86.70 input  -57.11 | X-H torsion

> <Gold.Protein.ActiveResidues>
 VAL166  LYS551  ARG553  GLY616  TRP617  ASP618  TYR619  PRO620  LYS621  CYS622 
 ASP623  PHE694  ASN695  SER759  ASP760  ASP761  ALA762  ILE779  LEU786  VAL792 
 PHE793  MET794  SER795  GLU796  ALA797  LYS798  CYS799  TRP800  GLU811  SER814 

> <Gold.Protein.RotatedAtoms>
  151.9926  133.3796  159.4150 H   0  0  0  0  0  0  0  0  0  0  0  0  # atno 6907 bound_to 6896
  150.6920  134.3920  159.5090 H   0  0  0  0  0  0  0  0  0  0  0  0  # atno 6908 bound_to 6896
  152.1656  134.8876  160.0589 H   0  0  0  0  0  0  0  0  0  0  0  0  # atno 6909 bound_to 6896
  146.1275  140.5307  142.8708 H   0  0  0  0  0  0  0  0  0  0  0  0  # atno 7974 bound_to 7965
  156.2520  140.2886  156.0755 H   0  0  0  0  0  0  0  0  0  0  0  0  # atno 8008 bound_to 7997
  155.1624  140.0400  157.2863 H   0  0  0  0  0  0  0  0  0  0  0  0  # atno 8009 bound_to 7997
  154.6383  140.2516  155.7358 H   0  0  0  0  0  0  0  0  0  0  0  0  # atno 8010 bound_to 7997
  139.6936  143.9379  152.2397 H   0  0  0  0  0  0  0  0  0  0  0  0  # atno 10167 bound_to 10162
  156.0102  130.4535  150.3589 H   0  0  0  0  0  0  0  0  0  0  0  0  # atno 10718 bound_to 10713
  154.4790  135.5850  153.6375 H   0  0  0  0  0  0  0  0  0  0  0  0  # atno 10763 bound_to 10752
  152.9845  135.6085  154.3271 H   0  0  0  0  0  0  0  0  0  0  0  0  # atno 10764 bound_to 10752
  154.3160  135.2844  155.2522 H   0  0  0  0  0  0  0  0  0  0  0  0  # atno 10765 bound_to 10752
  139.8938  134.8372  156.2756 H   0  0  0  0  0  0  0  0  0  0  0  0  # atno 11005 bound_to 11000
  144.7657  140.5524  143.6705 LP  0  0  0  0  0  0  0  0  0  0  0  0  # atno 17320 bound_to 7965
  145.5334  139.1475  143.3487 LP  0  0  0  0  0  0  0  0  0  0  0  0  # atno 17321 bound_to 7965
  139.9202  144.6804  150.8470 LP  0  0  0  0  0  0  0  0  0  0  0  0  # atno 17342 bound_to 10162
  140.7690  143.3380  151.2267 LP  0  0  0  0  0  0  0  0  0  0  0  0  # atno 17343 bound_to 10162
  157.1679  131.0361  151.2810 LP  0  0  0  0  0  0  0  0  0  0  0  0  # atno 17370 bound_to 10713
  157.4255  130.7461  149.6947 LP  0  0  0  0  0  0  0  0  0  0  0  0  # atno 17371 bound_to 10713
  141.0072  133.7117  156.1053 LP  0  0  0  0  0  0  0  0  0  0  0  0  # atno 17394 bound_to 11000
  140.7417  134.4142  157.5554 LP  0  0  0  0  0  0  0  0  0  0  0  0  # atno 17395 bound_to 11000

$$$$
