AV-unprocessed.smi:1683|AV-procd|sdf|6749|dock4
  -GOLD-   22720 7503D 1   1.00000     0.00000
 Structure written by MMmdl.
 37 38  0  0  0  0  0  0  0  0  2 V2000
  143.3388  140.8147  157.5990 O   0  0  0  0  0  0  0  0  0  0  0  0
  143.7999  140.7674  156.4584 C   0  0  0  0  0  0  0  0  0  0  0  0
  145.1064  140.8891  156.1836 N   0  0  0  0  0  0  0  0  0  0  0  0
  146.1532  141.1143  157.1753 C   0  0  0  0  0  0  0  0  0  0  0  0
  147.3671  141.8603  156.5876 C   0  0  2  0  0  0  0  0  0  0  0  0
  148.1231  141.0709  155.5212 C   0  0  0  0  0  0  0  0  0  0  0  0
  149.5315  141.6799  155.5174 C   0  0  0  0  0  0  0  0  0  0  0  0
  149.6669  142.4600  156.7719 N   0  3  2  0  0  0  0  0  0  0  0  0
  150.9522  142.2915  157.4927 C   0  0  0  0  0  0  0  0  0  0  0  0
  151.3853  143.5671  158.2364 C   0  0  0  0  0  0  0  0  0  0  0  0
  151.8118  144.4643  157.3488 F   0  0  0  0  0  0  0  0  0  0  0  0
  150.3712  144.0972  158.9191 F   0  0  0  0  0  0  0  0  0  0  0  0
  152.3823  143.2892  159.0762 F   0  0  0  0  0  0  0  0  0  0  0  0
  148.4722  142.1814  157.5938 C   0  0  0  0  0  0  0  0  0  0  0  0
  143.0790  140.5852  155.3400 N   0  0  0  0  0  0  0  0  0  0  0  0
  141.6738  140.4242  155.2389 C   0  0  0  0  0  0  0  0  0  0  0  0
  140.8402  139.9219  156.2750 C   0  0  0  0  0  0  0  0  0  0  0  0
  139.5706  139.8816  155.8973 N   0  0  0  0  0  0  0  0  0  0  0  0
  139.5855  140.3523  154.6299 N   0  0  0  0  0  0  0  0  0  0  0  0
  140.8440  140.6947  154.1870 C   0  0  0  0  0  0  0  0  0  0  0  0
  138.7381  140.4327  154.0859 H   0  0  0  0  0  0  0  0  0  0  0  0
  145.3952  140.8430  155.2172 H   0  0  0  0  0  0  0  0  0  0  0  0
  145.7208  141.6883  157.9953 H   0  0  0  0  0  0  0  0  0  0  0  0
  146.4672  140.1596  157.6009 H   0  0  0  0  0  0  0  0  0  0  0  0
  147.0327  142.7962  156.1361 H   0  0  0  0  0  0  0  0  0  0  0  0
  148.1838  140.0196  155.8068 H   0  0  0  0  0  0  0  0  0  0  0  0
  147.6419  141.1205  154.5438 H   0  0  0  0  0  0  0  0  0  0  0  0
  150.2827  140.8933  155.4350 H   0  0  0  0  0  0  0  0  0  0  0  0
  149.6640  142.3546  154.6709 H   0  0  0  0  0  0  0  0  0  0  0  0
  150.8297  141.4937  158.2270 H   0  0  0  0  0  0  0  0  0  0  0  0
  151.7297  141.9590  156.8031 H   0  0  0  0  0  0  0  0  0  0  0  0
  148.2232  143.0281  158.2345 H   0  0  0  0  0  0  0  0  0  0  0  0
  148.6583  141.3160  158.2328 H   0  0  0  0  0  0  0  0  0  0  0  0
  143.5863  140.5646  154.4675 H   0  0  0  0  0  0  0  0  0  0  0  0
  141.1087  139.5920  157.2678 H   0  0  0  0  0  0  0  0  0  0  0  0
  141.0216  141.0851  153.1959 H   0  0  0  0  0  0  0  0  0  0  0  0
  149.5986  143.4333  156.5098 H   0  0  0  0  0  0  0  0  0  0  0  0
  1  2  2  0  0  0  0
  2  3  1  0  0  0  0
  2 15  1  0  0  0  0
  3  4  1  0  0  0  0
  3 22  1  0  0  0  0
  4  5  1  0  0  0  0
  4 23  1  0  0  0  0
  4 24  1  0  0  0  0
  5 14  1  0  0  0  0
  5  6  1  0  0  0  0
  5 25  1  0  0  0  0
  6  7  1  0  0  0  0
  6 26  1  0  0  0  0
  6 27  1  0  0  0  0
  7  8  1  0  0  0  0
  7 28  1  0  0  0  0
  7 29  1  0  0  0  0
  8  9  1  0  0  0  0
  8 14  1  0  0  0  0
  8 37  1  0  0  0  0
  9 10  1  0  0  0  0
  9 30  1  0  0  0  0
  9 31  1  0  0  0  0
 10 11  1  0  0  0  0
 10 12  1  0  0  0  0
 10 13  1  0  0  0  0
 14 32  1  0  0  0  0
 14 33  1  0  0  0  0
 15 16  1  0  0  0  0
 15 34  1  0  0  0  0
 16 20  2  0  0  0  0
 16 17  1  0  0  0  0
 17 18  2  0  0  0  0
 17 35  1  0  0  0  0
 18 19  1  0  0  0  0
 19 21  1  0  0  0  0
 19 20  1  0  0  0  0
 20 36  1  0  0  0  0
M  CHG  1   8   1
M  END
> <s_m_source_file>
AV-unprocessed.smi

> <i_m_source_file_index>
1683

> <i_lp_mmshare_version>
43012

> <i_f3d_flags>
0

> <s_epik_input>
W2NIXTFbbkhdbltjSF1jMVtOSF1DKD1PKVtOSF1bQ0gyXVtDQEBIXTJbQ0gyXVtDSDJdTihbQ0gyXTIpW0NIMl1DKEYpKEYpRg==

> <s_epik_cmdline>
J2VwaWtfcHl0aG9uJywgJy1waCcsICc3LjAnLCAnLXRuJywgJzgnLCAnLW1hJywgJzIwMCcsICctbWV0YWxfYmluZGluZycsICctaW1hZScsICc8aW5maWxlLm1hZT4nLCAnLW9tYWUnLCAnPG91dGZpbGUubWFlPic=

> <r_lp_tautomer_probability>
0.5

> <r_epik_Ionization_Penalty>
0.641865

> <r_epik_Ionization_Penalty_Charging>
0.64182

> <r_epik_Ionization_Penalty_Neutral>
4.50685e-05

> <r_epik_State_Penalty>
0.65957

> <r_epik_Charging_Adjusted_Penalty>
1.30139

> <i_epik_Tot_Q>
1

> <i_epik_Tot_abs_Q>
1

> <r_epik_Metal_State_Penalty>
0.659571

> <b_epik_Metal_Only>
0

> <s_lp_Force_Field>
OPLS_2005

> <r_lp_Energy>
30.3314

> <b_lp_Chiralities_Consistent>
1

> <s_lp_Variant>
AV-unprocessed.smi:1683-3

> <Gold.Version>
5.8.1

> <Gold.Id.Protein>
6NUR|6NUR_protein|mol2

> <Gold.PLP.Fitness>
38.8020

> <Gold.PLP.PLP>
-24.9932

> <Gold.PLP.part.hbond>
-2.0000

> <Gold.PLP.part.metal>
0.0000

> <Gold.PLP.part.buried>
-0.7092

> <Gold.PLP.part.nonpolar>
-21.2135

> <Gold.PLP.part.repulsive>
0.0268

> <Gold.PLP.ligand.clash>
0.0000

> <Gold.PLP.ligand.torsion>
0.8343

> <Gold.PLP.Chemscore.Hbond>
3.0000

> <Gold.PLP.Chemscore.CHOScore>
1.9915

> <Gold.PLP.Chemscore.Metal>
0.0000

> <Gold.Chemscore.Hbonds>
donor molecule, donor type, donor heavy atom, donor atom, acceptor molecule, acceptor atom, score
      L1  H     8    37       P1  8028  2.00
      L1  H    15    34       P1 10175  1.00
      L1  C    20    36       P1 10160  1.00
      L1  C    20    36       P1 10174  0.62

> <Gold.PLP.Chemscore.Internal.Correction>
0.5029

> <Gold.Rescore>
     Score         DG    S(hbond)    S(metal)    S(lipo)     H(rot)  DE(clash)    DE(int)     intcor
     10.24     -12.32       1.93        0.00      42.96       1.81       0.07       2.01       ----

> <Gold.Chemscore.Fitness>
10.2427

> <Gold.Chemscore.DG>
-12.3170

> <Gold.Chemscore.ZeroCoef>
-5.4800

> <Gold.Chemscore.Hbond>
1.9308

> <Gold.Chemscore.Metal>
0.0000

> <Gold.Chemscore.Lipo>
42.9554

> <Gold.Chemscore.Internal_Hbond>
0.0000

> <Gold.Chemscore.DEClash>
0.0675

> <Gold.Chemscore.DEInternal>
2.0069

> <Gold.Chemscore.Rot>
1.8116

> <Gold.Chemscore.Internal.Correction>
   9.000000E+99

> <Gold.Chemscore.Hbonds>
donor molecule, donor type, donor heavy atom, donor atom, acceptor molecule, acceptor atom, score
      L1  H     8    37       P1  8028  0.97
      L1  H    15    34       P1 10175  0.93

> <Gold.Chemscore.Hbond.Weighted>
-6.4490

> <Gold.Chemscore.Metal.Weighted>
-0.0000

> <Gold.Chemscore.Lipo.Weighted>
-5.0258

> <Gold.Chemscore.Internal_Hbond.Weighted>
0.0000

> <Gold.Chemscore.DEClash.Weighted>
0.0675

> <Gold.Chemscore.DEInternal.Weighted>
2.0069

> <Gold.Chemscore.Rot.Weighted>
4.6378

> <Gold.Chemscore.Internal.Correction.Weighted>
   9.000000E+99

> <Gold.Protein.RotatedTorsions>
[ 6907 6896 6895 6894 ] final  -81.46 input  -60.11 | X-H torsion
[ 7974 7965 7964 7962 ] final  125.02 input  175.53 | X-H torsion
[ 8008 7997 7996 7995 ] final -175.90 input   59.86 | X-H torsion
[ 10167 10162 10161 10158 ] final  108.53 input  -65.29 | X-H torsion
[ 10718 10713 10712 10709 ] final -105.56 input   66.30 | X-H torsion
[ 10763 10752 10751 10750 ] final   57.92 input  -60.55 | X-H torsion
[ 11005 11000 10999 10996 ] final   98.71 input  -57.11 | X-H torsion

> <Gold.Protein.ActiveResidues>
 VAL166  LYS551  ARG553  GLY616  TRP617  ASP618  TYR619  PRO620  LYS621  CYS622 
 ASP623  PHE694  ASN695  SER759  ASP760  ASP761  ALA762  ILE779  LEU786  VAL792 
 PHE793  MET794  SER795  GLU796  ALA797  LYS798  CYS799  TRP800  GLU811  SER814 

> <Gold.Protein.RotatedAtoms>
  150.6912  134.3815  159.5035 H   0  0  0  0  0  0  0  0  0  0  0  0  # atno 6907 bound_to 6896
  152.1616  134.8904  160.0550 H   0  0  0  0  0  0  0  0  0  0  0  0  # atno 6908 bound_to 6896
  151.9964  133.3774  159.4201 H   0  0  0  0  0  0  0  0  0  0  0  0  # atno 6909 bound_to 6896
  145.0778  139.3681  143.4925 H   0  0  0  0  0  0  0  0  0  0  0  0  # atno 7974 bound_to 7965
  155.9883  140.1195  157.0662 H   0  0  0  0  0  0  0  0  0  0  0  0  # atno 8008 bound_to 7997
  154.4203  140.1131  156.5598 H   0  0  0  0  0  0  0  0  0  0  0  0  # atno 8009 bound_to 7997
  155.6378  140.3473  155.4706 H   0  0  0  0  0  0  0  0  0  0  0  0  # atno 8010 bound_to 7997
  139.6839  144.7115  151.1467 H   0  0  0  0  0  0  0  0  0  0  0  0  # atno 10167 bound_to 10162
  156.0351  130.5569  150.7556 H   0  0  0  0  0  0  0  0  0  0  0  0  # atno 10718 bound_to 10713
  152.9860  135.5625  154.5468 H   0  0  0  0  0  0  0  0  0  0  0  0  # atno 10763 bound_to 10752
  154.4913  135.2793  155.1497 H   0  0  0  0  0  0  0  0  0  0  0  0  # atno 10764 bound_to 10752
  154.2965  135.6316  153.5460 H   0  0  0  0  0  0  0  0  0  0  0  0  # atno 10765 bound_to 10752
  139.8772  134.9062  156.4496 H   0  0  0  0  0  0  0  0  0  0  0  0  # atno 11005 bound_to 11000
  146.3530  140.0553  142.8633 LP  0  0  0  0  0  0  0  0  0  0  0  0  # atno 17320 bound_to 7965
  145.1215  140.9465  143.4597 LP  0  0  0  0  0  0  0  0  0  0  0  0  # atno 17321 bound_to 7965
  140.7661  143.5659  150.9049 LP  0  0  0  0  0  0  0  0  0  0  0  0  # atno 17342 bound_to 10162
  139.9332  143.6468  152.3071 LP  0  0  0  0  0  0  0  0  0  0  0  0  # atno 17343 bound_to 10162
  157.5089  131.0924  151.0223 LP  0  0  0  0  0  0  0  0  0  0  0  0  # atno 17370 bound_to 10713
  157.0583  130.5815  149.5381 LP  0  0  0  0  0  0  0  0  0  0  0  0  # atno 17371 bound_to 10713
  140.8941  133.7827  155.9605 LP  0  0  0  0  0  0  0  0  0  0  0  0  # atno 17394 bound_to 11000
  140.8722  134.2713  157.5185 LP  0  0  0  0  0  0  0  0  0  0  0  0  # atno 17395 bound_to 11000

$$$$
