AV-unprocessed.smi:3018|AV-procd|sdf|11481|dock8
  -GOLD-   2272016423D 1   1.00000     0.00000
 Structure written by MMmdl.
 44 45  0  0  0  0  0  0  0  0  2 V2000
  151.8729  139.1208  155.2076 C   0  0  0  0  0  0  0  0  0  0  0  0
  151.5107  140.0834  156.3457 C   0  0  0  0  0  0  0  0  0  0  0  0
  150.7576  141.3313  155.8476 C   0  0  2  0  0  0  0  0  0  0  0  0
  150.4119  142.1185  156.9853 O   0  0  0  0  0  0  0  0  0  0  0  0
  151.4897  142.7735  157.6489 C   0  0  0  0  0  0  0  0  0  0  0  0
  151.5718  142.2932  159.1117 C   0  0  0  0  0  0  0  0  0  0  0  0
  152.6371  143.0739  159.8977 C   0  0  0  0  0  0  0  0  0  0  0  0
  152.3914  144.5896  159.8235 C   0  0  0  0  0  0  0  0  0  0  0  0
  152.2965  145.0703  158.3667 C   0  0  0  0  0  0  0  0  0  0  0  0
  151.2257  144.2874  157.5907 C   0  0  0  0  0  0  0  0  0  0  0  0
  149.4783  140.9611  155.0807 C   0  0  0  0  0  0  0  0  0  0  0  0
  149.1631  139.7813  154.9223 O   0  0  0  0  0  0  0  0  0  0  0  0
  148.7410  141.9855  154.6299 N   0  0  0  0  0  0  0  0  0  0  0  0
  147.4399  141.8570  153.9848 C   0  0  0  0  0  0  0  0  0  0  0  0
  146.2978  142.2151  154.9519 C   0  0  0  0  0  0  0  0  0  0  0  0
  145.3384  143.2510  154.3908 C   0  0  0  0  0  0  0  0  0  0  0  0
  144.3379  143.8153  154.9603 N   0  0  0  0  0  0  0  0  0  0  0  0
  143.8067  144.7028  153.9687 N   0  5  0  0  0  0  0  0  0  0  0  0
  144.5776  144.5697  152.8617 C   0  0  0  0  0  0  0  0  0  0  0  0
  144.4723  145.1422  151.7793 O   0  0  0  0  0  0  0  0  0  0  0  0
  145.5316  143.6782  153.1087 N   0  0  0  0  0  0  0  0  0  0  0  0
  146.2551  143.3655  152.4786 H   0  0  0  0  0  0  0  0  0  0  0  0
  152.4008  138.2473  155.5907 H   0  0  0  0  0  0  0  0  0  0  0  0
  152.5177  139.6031  154.4726 H   0  0  0  0  0  0  0  0  0  0  0  0
  150.9799  138.7699  154.6897 H   0  0  0  0  0  0  0  0  0  0  0  0
  150.8980  139.5481  157.0726 H   0  0  0  0  0  0  0  0  0  0  0  0
  152.4205  140.3798  156.8695 H   0  0  0  0  0  0  0  0  0  0  0  0
  151.4219  141.8873  155.1841 H   0  0  0  0  0  0  0  0  0  0  0  0
  152.4391  142.5798  157.1484 H   0  0  0  0  0  0  0  0  0  0  0  0
  150.6005  142.4185  159.5919 H   0  0  0  0  0  0  0  0  0  0  0  0
  151.8003  141.2286  159.1531 H   0  0  0  0  0  0  0  0  0  0  0  0
  152.6441  142.7491  160.9386 H   0  0  0  0  0  0  0  0  0  0  0  0
  153.6241  142.8430  159.4968 H   0  0  0  0  0  0  0  0  0  0  0  0
  151.4678  144.8355  160.3490 H   0  0  0  0  0  0  0  0  0  0  0  0
  153.1921  145.1211  160.3385 H   0  0  0  0  0  0  0  0  0  0  0  0
  152.0717  146.1367  158.3399 H   0  0  0  0  0  0  0  0  0  0  0  0
  153.2629  144.9484  157.8776 H   0  0  0  0  0  0  0  0  0  0  0  0
  151.2055  144.6198  156.5522 H   0  0  0  0  0  0  0  0  0  0  0  0
  150.2413  144.5067  158.0064 H   0  0  0  0  0  0  0  0  0  0  0  0
  149.0724  142.9224  154.8083 H   0  0  0  0  0  0  0  0  0  0  0  0
  147.4134  142.5214  153.1206 H   0  0  0  0  0  0  0  0  0  0  0  0
  147.3019  140.8418  153.6075 H   0  0  0  0  0  0  0  0  0  0  0  0
  145.7466  141.3127  155.2204 H   0  0  0  0  0  0  0  0  0  0  0  0
  146.7157  142.6029  155.8811 H   0  0  0  0  0  0  0  0  0  0  0  0
  1  2  1  0  0  0  0
  1 23  1  0  0  0  0
  1 24  1  0  0  0  0
  1 25  1  0  0  0  0
  2  3  1  0  0  0  0
  2 26  1  0  0  0  0
  2 27  1  0  0  0  0
  3  4  1  0  0  0  0
  3 11  1  0  0  0  0
  3 28  1  0  0  0  0
  4  5  1  0  0  0  0
  5 10  1  0  0  0  0
  5  6  1  0  0  0  0
  5 29  1  0  0  0  0
  6  7  1  0  0  0  0
  6 30  1  0  0  0  0
  6 31  1  0  0  0  0
  7  8  1  0  0  0  0
  7 32  1  0  0  0  0
  7 33  1  0  0  0  0
  8  9  1  0  0  0  0
  8 34  1  0  0  0  0
  8 35  1  0  0  0  0
  9 10  1  0  0  0  0
  9 36  1  0  0  0  0
  9 37  1  0  0  0  0
 10 38  1  0  0  0  0
 10 39  1  0  0  0  0
 11 12  2  0  0  0  0
 11 13  1  0  0  0  0
 13 14  1  0  0  0  0
 13 40  1  0  0  0  0
 14 15  1  0  0  0  0
 14 41  1  0  0  0  0
 14 42  1  0  0  0  0
 15 16  1  0  0  0  0
 15 43  1  0  0  0  0
 15 44  1  0  0  0  0
 16 21  1  0  0  0  0
 16 17  2  0  0  0  0
 17 18  1  0  0  0  0
 18 19  1  0  0  0  0
 19 20  2  0  0  0  0
 19 21  1  0  0  0  0
 21 22  1  0  0  0  0
M  CHG  1  18  -1
M  END
> <s_m_source_file>
AV-unprocessed.smi

> <i_m_source_file_index>
3018

> <i_lp_mmshare_version>
43012

> <i_f3d_flags>
0

> <s_epik_input>
W0NIMl0xW0NIMl1bQ0gyXVtDSDJdW0NIMl1bQ0hdMU9bQ0BASF0oW0NIMl1bQ0gzXSlDKD1PKVtOSF1bQ0gyXVtDSDJdYzJuW25IXWMoPU8pW25IXTI=

> <s_epik_cmdline>
J2VwaWtfcHl0aG9uJywgJy1waCcsICc3LjAnLCAnLXRuJywgJzgnLCAnLW1hJywgJzIwMCcsICctbWV0YWxfYmluZGluZycsICctaW1hZScsICc8aW5maWxlLm1hZT4nLCAnLW9tYWUnLCAnPG91dGZpbGUubWFlPic=

> <r_lp_tautomer_probability>
1

> <r_epik_Ionization_Penalty>
14.1812

> <r_epik_Ionization_Penalty_Charging>
13.7758

> <r_epik_Ionization_Penalty_Neutral>
0.405355

> <r_epik_State_Penalty>
4.92413

> <r_epik_Charging_Adjusted_Penalty>
18.7

> <i_epik_Tot_Q>
-1

> <i_epik_Tot_abs_Q>
1

> <r_epik_Metal_State_Penalty>
1.32654

> <b_epik_Metal_Only>
1

> <s_lp_Force_Field>
OPLS_2005

> <r_lp_Energy>
19.863

> <b_lp_Chiralities_Consistent>
1

> <s_lp_Variant>
AV-unprocessed.smi:3018-3

> <Gold.Version>
5.8.1

> <Gold.Id.Protein>
6NUR|6NUR_protein|mol2

> <Gold.PLP.Fitness>
49.2867

> <Gold.PLP.PLP>
-48.7543

> <Gold.PLP.part.hbond>
-2.0000

> <Gold.PLP.part.metal>
0.0000

> <Gold.PLP.part.buried>
-8.1482

> <Gold.PLP.part.nonpolar>
-40.5315

> <Gold.PLP.part.repulsive>
0.9824

> <Gold.PLP.ligand.clash>
0.0000

> <Gold.PLP.ligand.torsion>
1.3161

> <Gold.PLP.Chemscore.Hbond>
1.0000

> <Gold.PLP.Chemscore.CHOScore>
0.0000

> <Gold.PLP.Chemscore.Metal>
0.0000

> <Gold.Chemscore.Hbonds>
donor molecule, donor type, donor heavy atom, donor atom, acceptor molecule, acceptor atom, score
      L1  H    13    40       P1  8028  1.00

> <Gold.PLP.Chemscore.Internal.Correction>
0.1646

> <Gold.Rescore>
     Score         DG    S(hbond)    S(metal)    S(lipo)     H(rot)  DE(clash)    DE(int)     intcor
      8.86     -13.17       0.97        0.00     103.24       2.98       1.64       2.68       ----

> <Gold.Chemscore.Fitness>
8.8613

> <Gold.Chemscore.DG>
-13.1743

> <Gold.Chemscore.ZeroCoef>
-5.4800

> <Gold.Chemscore.Hbond>
0.9693

> <Gold.Chemscore.Metal>
0.0000

> <Gold.Chemscore.Lipo>
103.2360

> <Gold.Chemscore.Internal_Hbond>
0.0000

> <Gold.Chemscore.DEClash>
1.6363

> <Gold.Chemscore.DEInternal>
2.6768

> <Gold.Chemscore.Rot>
2.9772

> <Gold.Chemscore.Internal.Correction>
   9.000000E+99

> <Gold.Chemscore.Hbonds>
donor molecule, donor type, donor heavy atom, donor atom, acceptor molecule, acceptor atom, score
      L1  H    13    40       P1  8028  0.94

> <Gold.Chemscore.Hbond.Weighted>
-3.2373

> <Gold.Chemscore.Metal.Weighted>
-0.0000

> <Gold.Chemscore.Lipo.Weighted>
-12.0786

> <Gold.Chemscore.Internal_Hbond.Weighted>
0.0000

> <Gold.Chemscore.DEClash.Weighted>
1.6363

> <Gold.Chemscore.DEInternal.Weighted>
2.6768

> <Gold.Chemscore.Rot.Weighted>
7.6216

> <Gold.Chemscore.Internal.Correction.Weighted>
   9.000000E+99

> <Gold.Protein.RotatedTorsions>
[ 6907 6896 6895 6894 ] final  -40.27 input  -60.11 | X-H torsion
[ 7974 7965 7964 7962 ] final -141.10 input  175.53 | X-H torsion
[ 8008 7997 7996 7995 ] final  102.51 input   59.86 | X-H torsion
[ 10167 10162 10161 10158 ] final  178.35 input  -65.29 | X-H torsion
[ 10718 10713 10712 10709 ] final  -16.96 input   66.30 | X-H torsion
[ 10763 10752 10751 10750 ] final   50.89 input  -60.55 | X-H torsion
[ 11005 11000 10999 10996 ] final  -72.39 input  -57.11 | X-H torsion

> <Gold.Protein.ActiveResidues>
 VAL166  LYS551  ARG553  GLY616  TRP617  ASP618  TYR619  PRO620  LYS621  CYS622 
 ASP623  PHE694  ASN695  SER759  ASP760  ASP761  ALA762  ILE779  LEU786  VAL792 
 PHE793  MET794  SER795  GLU796  ALA797  LYS798  CYS799  TRP800  GLU811  SER814 

> <Gold.Protein.RotatedAtoms>
  150.9804  134.9160  159.7840 H   0  0  0  0  0  0  0  0  0  0  0  0  # atno 6907 bound_to 6896
  152.5220  134.3418  159.9230 H   0  0  0  0  0  0  0  0  0  0  0  0  # atno 6908 bound_to 6896
  151.3425  133.3915  159.2707 H   0  0  0  0  0  0  0  0  0  0  0  0  # atno 6909 bound_to 6896
  144.8545  140.6120  143.5368 H   0  0  0  0  0  0  0  0  0  0  0  0  # atno 7974 bound_to 7965
  156.1400  140.3180  155.8480 H   0  0  0  0  0  0  0  0  0  0  0  0  # atno 8008 bound_to 7997
  155.4173  140.0510  157.3045 H   0  0  0  0  0  0  0  0  0  0  0  0  # atno 8009 bound_to 7997
  154.4968  140.2114  155.9442 H   0  0  0  0  0  0  0  0  0  0  0  0  # atno 8010 bound_to 7997
  139.5290  144.2690  152.0643 H   0  0  0  0  0  0  0  0  0  0  0  0  # atno 10167 bound_to 10162
  156.5802  130.4772  149.6324 H   0  0  0  0  0  0  0  0  0  0  0  0  # atno 10718 bound_to 10713
  152.9784  135.5864  154.4326 H   0  0  0  0  0  0  0  0  0  0  0  0  # atno 10763 bound_to 10752
  154.3937  135.2768  155.2141 H   0  0  0  0  0  0  0  0  0  0  0  0  # atno 10764 bound_to 10752
  154.4002  135.6105  153.5947 H   0  0  0  0  0  0  0  0  0  0  0  0  # atno 10765 bound_to 10752
  141.1608  133.6845  156.7052 H   0  0  0  0  0  0  0  0  0  0  0  0  # atno 11005 bound_to 11000
  145.4433  139.1533  143.3958 LP  0  0  0  0  0  0  0  0  0  0  0  0  # atno 17320 bound_to 7965
  146.2812  140.4556  142.8775 LP  0  0  0  0  0  0  0  0  0  0  0  0  # atno 17321 bound_to 7965
  140.2151  144.4523  150.6367 LP  0  0  0  0  0  0  0  0  0  0  0  0  # atno 17342 bound_to 10162
  140.6455  143.2212  151.6195 LP  0  0  0  0  0  0  0  0  0  0  0  0  # atno 17343 bound_to 10162
  156.2638  130.6978  151.1755 LP  0  0  0  0  0  0  0  0  0  0  0  0  # atno 17370 bound_to 10713
  157.7328  131.0596  150.5608 LP  0  0  0  0  0  0  0  0  0  0  0  0  # atno 17371 bound_to 10713
  140.2928  134.8226  157.4032 LP  0  0  0  0  0  0  0  0  0  0  0  0  # atno 17394 bound_to 11000
  140.1331  134.5069  155.8090 LP  0  0  0  0  0  0  0  0  0  0  0  0  # atno 17395 bound_to 11000

$$$$
