AV-unprocessed.smi:273|AV-procd|sdf|2056|dock1
  -GOLD-   2262021293D 1   1.00000     0.00000
 Structure written by MMmdl.
 59 62  0  0  0  0  0  0  0  0  1 V2000
  151.6880  143.8250  159.5749 C   0  0  0  0  0  0  0  0  0  0  0  0
  152.1288  144.0801  158.1304 C   0  0  0  0  0  0  0  0  0  0  0  0
  151.2736  143.3561  157.2008 N   0  0  0  0  0  0  0  0  0  0  0  0
  151.0352  142.0361  157.2501 C   0  0  0  0  0  0  0  0  0  0  0  0
  151.5308  141.3095  158.1118 O   0  0  0  0  0  0  0  0  0  0  0  0
  150.0895  141.4305  156.1936 C   0  0  0  0  0  0  0  0  0  0  0  0
  148.7493  140.9947  156.8253 C   0  0  0  0  0  0  0  0  0  0  0  0
  147.7941  140.4116  155.7716 C   0  0  0  0  0  0  0  0  0  0  0  0
  148.4310  139.3249  155.0297 N   0  0  0  0  0  0  0  0  0  0  0  0
  147.5678  138.5455  154.3299 C   0  0  0  0  0  0  0  0  0  0  0  0
  146.8472  139.0778  153.3061 N   0  0  0  0  0  0  0  0  0  0  0  0
  145.9821  138.3217  152.6238 C   0  0  0  0  0  0  0  0  0  0  0  0
  145.6859  137.0320  152.7948 N   0  0  0  0  0  0  0  0  0  0  0  0
  146.4121  136.4902  153.8135 C   0  0  0  0  0  0  0  0  0  0  0  0
  147.3669  137.1671  154.6235 C   0  0  0  0  0  0  0  0  0  0  0  0
  147.9121  136.2835  155.5485 N   0  0  0  0  0  0  0  0  0  0  0  0
  147.3067  135.1529  155.3062 C   0  0  0  0  0  0  0  0  0  0  0  0
  146.3841  135.1907  154.2854 N   0  0  0  0  0  0  0  0  0  0  0  0
  145.5639  134.0915  153.8087 C   0  0  0  0  0  0  0  0  0  0  0  0
  144.8689  134.3943  152.4581 C   0  0  2  0  0  0  0  0  0  0  0  0
  143.4303  134.9380  152.6360 C   0  0  0  0  0  0  0  0  0  0  0  0
  142.4799  133.8924  152.6487 O   0  0  0  0  0  0  0  0  0  0  0  0
  144.9271  133.1763  151.5022 C   0  0  1  0  0  0  0  0  0  0  0  0
  144.3418  133.4170  150.1215 C   0  0  0  0  0  0  0  0  0  0  0  0
  144.9568  132.2865  149.3026 C   0  0  0  0  0  0  0  0  0  0  0  0
  146.2208  132.0168  149.8989 O   0  0  0  0  0  0  0  0  0  0  0  0
  146.3436  132.7321  151.1236 C   0  0  0  0  0  0  0  0  0  0  0  0
  149.6961  139.6800  154.3860 C   0  0  0  0  0  0  0  0  0  0  0  0
  150.6953  140.2412  155.4099 C   0  0  0  0  0  0  0  0  0  0  0  0
  152.3323  144.3557  160.2762 H   0  0  0  0  0  0  0  0  0  0  0  0
  151.7330  142.7633  159.8200 H   0  0  0  0  0  0  0  0  0  0  0  0
  150.6654  144.1658  159.7401 H   0  0  0  0  0  0  0  0  0  0  0  0
  152.0887  145.1489  157.9144 H   0  0  0  0  0  0  0  0  0  0  0  0
  153.1630  143.7602  157.9937 H   0  0  0  0  0  0  0  0  0  0  0  0
  150.8316  143.8930  156.4688 H   0  0  0  0  0  0  0  0  0  0  0  0
  149.8821  142.2296  155.4804 H   0  0  0  0  0  0  0  0  0  0  0  0
  148.9303  140.2470  157.5994 H   0  0  0  0  0  0  0  0  0  0  0  0
  148.2621  141.8376  157.3174 H   0  0  0  0  0  0  0  0  0  0  0  0
  146.8809  140.0774  156.2629 H   0  0  0  0  0  0  0  0  0  0  0  0
  147.5003  141.1907  155.0668 H   0  0  0  0  0  0  0  0  0  0  0  0
  145.4485  138.8226  151.8293 H   0  0  0  0  0  0  0  0  0  0  0  0
  147.5113  134.2567  155.8738 H   0  0  0  0  0  0  0  0  0  0  0  0
  146.2062  133.2147  153.7239 H   0  0  0  0  0  0  0  0  0  0  0  0
  144.8219  133.8563  154.5727 H   0  0  0  0  0  0  0  0  0  0  0  0
  145.4383  135.1959  151.9851 H   0  0  0  0  0  0  0  0  0  0  0  0
  143.3383  135.5058  153.5619 H   0  0  0  0  0  0  0  0  0  0  0  0
  143.1753  135.6327  151.8362 H   0  0  0  0  0  0  0  0  0  0  0  0
  142.4965  133.4814  153.4996 H   0  0  0  0  0  0  0  0  0  0  0  0
  144.4092  132.3291  151.9550 H   0  0  0  0  0  0  0  0  0  0  0  0
  143.2517  133.3950  150.1049 H   0  0  0  0  0  0  0  0  0  0  0  0
  144.6703  134.3813  149.7309 H   0  0  0  0  0  0  0  0  0  0  0  0
  144.3425  131.3880  149.3718 H   0  0  0  0  0  0  0  0  0  0  0  0
  145.0605  132.5462  148.2489 H   0  0  0  0  0  0  0  0  0  0  0  0
  146.9869  133.5964  150.9516 H   0  0  0  0  0  0  0  0  0  0  0  0
  146.8086  132.1135  151.8915 H   0  0  0  0  0  0  0  0  0  0  0  0
  150.1291  138.8032  153.9023 H   0  0  0  0  0  0  0  0  0  0  0  0
  149.5090  140.4197  153.6060 H   0  0  0  0  0  0  0  0  0  0  0  0
  151.6019  140.5461  154.8856 H   0  0  0  0  0  0  0  0  0  0  0  0
  150.9831  139.4463  156.1002 H   0  0  0  0  0  0  0  0  0  0  0  0
  1  2  1  0  0  0  0
  1 30  1  0  0  0  0
  1 31  1  0  0  0  0
  1 32  1  0  0  0  0
  2  3  1  0  0  0  0
  2 33  1  0  0  0  0
  2 34  1  0  0  0  0
  3  4  1  0  0  0  0
  3 35  1  0  0  0  0
  4  5  2  0  0  0  0
  4  6  1  0  0  0  0
  6 29  1  0  0  0  0
  6  7  1  0  0  0  0
  6 36  1  0  0  0  0
  7  8  1  0  0  0  0
  7 37  1  0  0  0  0
  7 38  1  0  0  0  0
  8  9  1  0  0  0  0
  8 39  1  0  0  0  0
  8 40  1  0  0  0  0
  9 10  1  0  0  0  0
  9 28  1  0  0  0  0
 10 15  1  0  0  0  0
 10 11  2  0  0  0  0
 11 12  1  0  0  0  0
 12 13  2  0  0  0  0
 12 41  1  0  0  0  0
 13 14  1  0  0  0  0
 14 18  1  0  0  0  0
 14 15  2  0  0  0  0
 15 16  1  0  0  0  0
 16 17  2  0  0  0  0
 17 18  1  0  0  0  0
 17 42  1  0  0  0  0
 18 19  1  0  0  0  0
 19 20  1  0  0  0  0
 19 43  1  0  0  0  0
 19 44  1  0  0  0  0
 20 21  1  0  0  0  0
 20 23  1  0  0  0  0
 20 45  1  0  0  0  0
 21 22  1  0  0  0  0
 21 46  1  0  0  0  0
 21 47  1  0  0  0  0
 22 48  1  0  0  0  0
 23 27  1  0  0  0  0
 23 24  1  0  0  0  0
 23 49  1  0  0  0  0
 24 25  1  0  0  0  0
 24 50  1  0  0  0  0
 24 51  1  0  0  0  0
 25 26  1  0  0  0  0
 25 52  1  0  0  0  0
 25 53  1  0  0  0  0
 26 27  1  0  0  0  0
 27 54  1  0  0  0  0
 27 55  1  0  0  0  0
 28 29  1  0  0  0  0
 28 56  1  0  0  0  0
 28 57  1  0  0  0  0
 29 58  1  0  0  0  0
 29 59  1  0  0  0  0
M  END
> <s_m_source_file>
AV-unprocessed.smi

> <i_m_source_file_index>
273

> <i_lp_mmshare_version>
43012

> <i_f3d_flags>
0

> <s_epik_input>
W0NIM11bQ0gyXVtOSF1DKD1PKVtDSF0xW0NIMl1bQ0gyXU4oW0NIMl1bQ0gyXTEpYyhuW2NIXW4yKWMoYzIzKW5bY0hdbjNbQ0gyXVtDQEhdKFtDSDJdW09IXSlbQ0BASF00W0NIMl1bQ0gyXU9bQ0gyXTQ=

> <s_epik_cmdline>
J2VwaWtfcHl0aG9uJywgJy1waCcsICc3LjAnLCAnLXRuJywgJzgnLCAnLW1hJywgJzIwMCcsICctbWV0YWxfYmluZGluZycsICctaW1hZScsICc8aW5maWxlLm1hZT4nLCAnLW9tYWUnLCAnPG91dGZpbGUubWFlPic=

> <r_lp_tautomer_probability>
1

> <r_epik_Ionization_Penalty>
0.00226556

> <r_epik_Ionization_Penalty_Charging>
0

> <r_epik_Ionization_Penalty_Neutral>
0.00226556

> <r_epik_State_Penalty>
0.00139883

> <r_epik_Charging_Adjusted_Penalty>
0.00139883

> <i_epik_Tot_Q>
0

> <i_epik_Tot_abs_Q>
0

> <r_epik_Metal_State_Penalty>
-0

> <b_epik_Metal_Only>
0

> <s_lp_Force_Field>
OPLS_2005

> <r_lp_Energy>
43.2491

> <b_lp_Chiralities_Consistent>
1

> <s_lp_Variant>
AV-unprocessed.smi:273-3

> <Gold.Version>
5.8.1

> <Gold.Id.Protein>
6NUR|6NUR_protein|mol2

> <Gold.PLP.Fitness>
48.1191

> <Gold.PLP.PLP>
-38.8195

> <Gold.PLP.part.hbond>
-2.0000

> <Gold.PLP.part.metal>
0.0000

> <Gold.PLP.part.buried>
-4.9142

> <Gold.PLP.part.nonpolar>
-33.5430

> <Gold.PLP.part.repulsive>
0.7463

> <Gold.PLP.ligand.clash>
0.0000

> <Gold.PLP.ligand.torsion>
1.3633

> <Gold.PLP.Chemscore.Hbond>
1.9520

> <Gold.PLP.Chemscore.CHOScore>
1.8519

> <Gold.PLP.Chemscore.Metal>
0.0000

> <Gold.Chemscore.Hbonds>
donor molecule, donor type, donor heavy atom, donor atom, acceptor molecule, acceptor atom, score
      L1  H     3    35       P1  8028  0.44
      L1  H    22    48       P1 10957  0.73
      L1  C    12    41       P1 10171  0.93
      L1  C    12    41       P1 10175  0.78

> <Gold.PLP.Chemscore.Internal.Correction>
0.6148

> <Gold.Rescore>
     Score         DG    S(hbond)    S(metal)    S(lipo)     H(rot)  DE(clash)    DE(int)     intcor
     10.51     -14.61       1.96        0.00      92.55       3.22       0.04       4.05       ----

> <Gold.Chemscore.Fitness>
10.5138

> <Gold.Chemscore.DG>
-14.6051

> <Gold.Chemscore.ZeroCoef>
-5.4800

> <Gold.Chemscore.Hbond>
1.9614

> <Gold.Chemscore.Metal>
0.0000

> <Gold.Chemscore.Lipo>
92.5502

> <Gold.Chemscore.Internal_Hbond>
0.0000

> <Gold.Chemscore.DEClash>
0.0442

> <Gold.Chemscore.DEInternal>
4.0470

> <Gold.Chemscore.Rot>
3.2244

> <Gold.Chemscore.Internal.Correction>
   9.000000E+99

> <Gold.Chemscore.Hbonds>
donor molecule, donor type, donor heavy atom, donor atom, acceptor molecule, acceptor atom, score
      L1  H     3    35       P1  8028  0.43
      L1  H    22    48       P1 10957  0.70

> <Gold.Chemscore.Hbond.Weighted>
-6.5512

> <Gold.Chemscore.Metal.Weighted>
-0.0000

> <Gold.Chemscore.Lipo.Weighted>
-10.8284

> <Gold.Chemscore.Internal_Hbond.Weighted>
0.0000

> <Gold.Chemscore.DEClash.Weighted>
0.0442

> <Gold.Chemscore.DEInternal.Weighted>
4.0470

> <Gold.Chemscore.Rot.Weighted>
8.2545

> <Gold.Chemscore.Internal.Correction.Weighted>
   9.000000E+99

> <Gold.Protein.RotatedTorsions>
[ 6907 6896 6895 6894 ] final -107.16 input  -60.11 | X-H torsion
[ 7974 7965 7964 7962 ] final  -28.44 input  175.53 | X-H torsion
[ 8008 7997 7996 7995 ] final  -75.82 input   59.86 | X-H torsion
[ 10167 10162 10161 10158 ] final -169.60 input  -65.29 | X-H torsion
[ 10718 10713 10712 10709 ] final  154.60 input   66.30 | X-H torsion
[ 10763 10752 10751 10750 ] final   27.68 input  -60.55 | X-H torsion
[ 11005 11000 10999 10996 ] final   23.52 input  -57.11 | X-H torsion

> <Gold.Protein.ActiveResidues>
 VAL166  LYS551  ARG553  GLY616  TRP617  ASP618  TYR619  PRO620  LYS621  CYS622 
 ASP623  PHE694  ASN695  SER759  ASP760  ASP761  ALA762  ILE779  LEU786  VAL792 
 PHE793  MET794  SER795  GLU796  ALA797  LYS798  CYS799  TRP800  GLU811  SER814 

> <Gold.Protein.RotatedAtoms>
  150.7429  133.9868  159.3593 H   0  0  0  0  0  0  0  0  0  0  0  0  # atno 6907 bound_to 6896
  151.7813  135.0759  160.0383 H   0  0  0  0  0  0  0  0  0  0  0  0  # atno 6908 bound_to 6896
  152.3272  133.5881  159.5821 H   0  0  0  0  0  0  0  0  0  0  0  0  # atno 6909 bound_to 6896
  146.1287  140.5283  142.8703 H   0  0  0  0  0  0  0  0  0  0  0  0  # atno 7974 bound_to 7965
  154.5450  140.0737  156.8574 H   0  0  0  0  0  0  0  0  0  0  0  0  # atno 8008 bound_to 7997
  155.3105  140.3390  155.4226 H   0  0  0  0  0  0  0  0  0  0  0  0  # atno 8009 bound_to 7997
  156.1910  140.1686  156.8078 H   0  0  0  0  0  0  0  0  0  0  0  0  # atno 8010 bound_to 7997
  139.5913  144.1208  152.1637 H   0  0  0  0  0  0  0  0  0  0  0  0  # atno 10167 bound_to 10162
  157.2294  131.0736  151.1862 H   0  0  0  0  0  0  0  0  0  0  0  0  # atno 10718 bound_to 10713
  153.0540  135.6531  154.0623 H   0  0  0  0  0  0  0  0  0  0  0  0  # atno 10763 bound_to 10752
  154.0305  135.2912  155.3370 H   0  0  0  0  0  0  0  0  0  0  0  0  # atno 10764 bound_to 10752
  154.6845  135.5307  153.8374 H   0  0  0  0  0  0  0  0  0  0  0  0  # atno 10765 bound_to 10752
  140.3687  134.2046  155.7668 H   0  0  0  0  0  0  0  0  0  0  0  0  # atno 11005 bound_to 11000
  144.7669  140.5550  143.6697 LP  0  0  0  0  0  0  0  0  0  0  0  0  # atno 17320 bound_to 7965
  145.5307  139.1475  143.3501 LP  0  0  0  0  0  0  0  0  0  0  0  0  # atno 17321 bound_to 7965
  140.0783  144.5722  150.7141 LP  0  0  0  0  0  0  0  0  0  0  0  0  # atno 17342 bound_to 10162
  140.7175  143.2558  151.4387 LP  0  0  0  0  0  0  0  0  0  0  0  0  # atno 17343 bound_to 10162
  157.3494  130.7074  149.6431 LP  0  0  0  0  0  0  0  0  0  0  0  0  # atno 17370 bound_to 10713
  155.9676  130.4257  150.4665 LP  0  0  0  0  0  0  0  0  0  0  0  0  # atno 17371 bound_to 10713
  141.1961  133.8089  157.0685 LP  0  0  0  0  0  0  0  0  0  0  0  0  # atno 17394 bound_to 11000
  140.0569  134.9776  157.1236 LP  0  0  0  0  0  0  0  0  0  0  0  0  # atno 17395 bound_to 11000

$$$$
