AV-unprocessed.smi:1239|AV-procd|sdf|5185|dock2
  -GOLD-   22720 4263D 1   1.00000     0.00000
 Structure written by MMmdl.
 48 49  0  0  0  0  0  0  0  0  2 V2000
  147.2156  142.6297  153.8939 C   0  0  0  0  0  0  0  0  0  0  0  0
  147.7500  141.1893  153.7224 C   0  0  2  0  0  0  0  0  0  0  0  0
  146.8838  140.2497  154.5988 C   0  0  0  0  0  0  0  0  0  0  0  0
  145.9458  139.4712  153.7930 N   0  0  0  0  0  0  0  0  0  0  0  0
  146.0952  138.1831  153.4555 C   0  0  0  0  0  0  0  0  0  0  0  0
  147.0550  137.4962  153.8038 O   0  0  0  0  0  0  0  0  0  0  0  0
  145.0760  137.7619  152.6862 N   0  0  0  0  0  0  0  0  0  0  0  0
  144.8617  136.4778  152.1126 C   0  0  0  0  0  0  0  0  0  0  0  0
  145.9938  135.6723  151.8684 C   0  0  0  0  0  0  0  0  0  0  0  0
  145.8376  134.3935  151.2950 C   0  0  0  0  0  0  0  0  0  0  0  0
  144.5436  133.9247  150.9601 C   0  0  0  0  0  0  0  0  0  0  0  0
  144.3040  132.6578  150.3853 N   0  0  0  0  0  0  0  0  0  0  0  0
  144.8228  131.4580  151.0328 C   0  0  0  0  0  0  0  0  0  0  0  0
  143.5609  132.5569  149.1359 C   0  0  0  0  0  0  0  0  0  0  0  0
  143.4875  134.7383  151.2033 N   0  3  0  0  0  0  0  0  0  0  0  0
  143.5914  135.9688  151.7502 C   0  0  0  0  0  0  0  0  0  0  0  0
  149.2057  141.0677  153.9581 N   0  0  0  0  0  0  0  0  0  0  0  0
  149.6102  141.5973  155.2641 C   0  0  0  0  0  0  0  0  0  0  0  0
  151.1199  141.4497  155.5212 C   0  0  0  0  0  0  0  0  0  0  0  0
  151.4932  140.0827  155.4089 O   0  0  0  0  0  0  0  0  0  0  0  0
  151.1815  139.5440  154.1309 C   0  0  0  0  0  0  0  0  0  0  0  0
  149.6726  139.6812  153.8646 C   0  0  0  0  0  0  0  0  0  0  0  0
  146.1280  142.6591  153.8210 H   0  0  0  0  0  0  0  0  0  0  0  0
  147.5883  143.3011  153.1211 H   0  0  0  0  0  0  0  0  0  0  0  0
  147.4906  143.0459  154.8636 H   0  0  0  0  0  0  0  0  0  0  0  0
  147.5548  140.9076  152.6864 H   0  0  0  0  0  0  0  0  0  0  0  0
  147.5413  139.5920  155.1699 H   0  0  0  0  0  0  0  0  0  0  0  0
  146.3259  140.8053  155.3519 H   0  0  0  0  0  0  0  0  0  0  0  0
  145.1290  139.9616  153.4586 H   0  0  0  0  0  0  0  0  0  0  0  0
  144.3891  138.4620  152.4468 H   0  0  0  0  0  0  0  0  0  0  0  0
  146.9818  136.0279  152.1225 H   0  0  0  0  0  0  0  0  0  0  0  0
  146.7173  133.7919  151.1222 H   0  0  0  0  0  0  0  0  0  0  0  0
  144.3968  131.3464  152.0305 H   0  0  0  0  0  0  0  0  0  0  0  0
  145.9084  131.5093  151.1223 H   0  0  0  0  0  0  0  0  0  0  0  0
  144.5772  130.5612  150.4638 H   0  0  0  0  0  0  0  0  0  0  0  0
  144.0841  133.0808  148.3353 H   0  0  0  0  0  0  0  0  0  0  0  0
  142.5660  132.9895  149.2453 H   0  0  0  0  0  0  0  0  0  0  0  0
  143.4386  131.5177  148.8301 H   0  0  0  0  0  0  0  0  0  0  0  0
  142.6528  136.4891  151.8631 H   0  0  0  0  0  0  0  0  0  0  0  0
  149.3698  142.6565  155.3390 H   0  0  0  0  0  0  0  0  0  0  0  0
  149.0571  141.0904  156.0563 H   0  0  0  0  0  0  0  0  0  0  0  0
  151.6929  142.0513  154.8139 H   0  0  0  0  0  0  0  0  0  0  0  0
  151.3704  141.8053  156.5207 H   0  0  0  0  0  0  0  0  0  0  0  0
  151.7587  140.0574  153.3601 H   0  0  0  0  0  0  0  0  0  0  0  0
  151.4765  138.4949  154.1058 H   0  0  0  0  0  0  0  0  0  0  0  0
  149.1232  139.0578  154.5718 H   0  0  0  0  0  0  0  0  0  0  0  0
  149.4782  139.2782  152.8718 H   0  0  0  0  0  0  0  0  0  0  0  0
  142.5561  134.4031  150.9568 H   0  0  0  0  0  0  0  0  0  0  0  0
  1  2  1  0  0  0  0
  1 23  1  0  0  0  0
  1 24  1  0  0  0  0
  1 25  1  0  0  0  0
  2  3  1  0  0  0  0
  2 17  1  0  0  0  0
  2 26  1  0  0  0  0
  3  4  1  0  0  0  0
  3 27  1  0  0  0  0
  3 28  1  0  0  0  0
  4  5  1  0  0  0  0
  4 29  1  0  0  0  0
  5  6  2  0  0  0  0
  5  7  1  0  0  0  0
  7  8  1  0  0  0  0
  7 30  1  0  0  0  0
  8 16  1  0  0  0  0
  8  9  2  0  0  0  0
  9 10  1  0  0  0  0
  9 31  1  0  0  0  0
 10 11  2  0  0  0  0
 10 32  1  0  0  0  0
 11 12  1  0  0  0  0
 11 15  1  0  0  0  0
 12 13  1  0  0  0  0
 12 14  1  0  0  0  0
 13 33  1  0  0  0  0
 13 34  1  0  0  0  0
 13 35  1  0  0  0  0
 14 36  1  0  0  0  0
 14 37  1  0  0  0  0
 14 38  1  0  0  0  0
 15 16  2  0  0  0  0
 15 48  1  0  0  0  0
 16 39  1  0  0  0  0
 17 22  1  0  0  0  0
 17 18  1  0  0  0  0
 18 19  1  0  0  0  0
 18 40  1  0  0  0  0
 18 41  1  0  0  0  0
 19 20  1  0  0  0  0
 19 42  1  0  0  0  0
 19 43  1  0  0  0  0
 20 21  1  0  0  0  0
 21 22  1  0  0  0  0
 21 44  1  0  0  0  0
 21 45  1  0  0  0  0
 22 46  1  0  0  0  0
 22 47  1  0  0  0  0
M  CHG  1  15   1
M  END
> <s_m_source_file>
AV-unprocessed.smi

> <i_m_source_file_index>
1239

> <i_lp_mmshare_version>
43012

> <i_f3d_flags>
0

> <s_epik_input>
W0NIMl0xW0NIMl1PW0NIMl1bQ0gyXU4xW0NASF0oW0NIM10pW0NIMl1bTkhdQyg9TylbTkhdYzJbY0hdW2NIXWMoTihbQ0gzXSlbQ0gzXSluW2NIXTI=

> <s_epik_cmdline>
J2VwaWtfcHl0aG9uJywgJy1waCcsICc3LjAnLCAnLXRuJywgJzgnLCAnLW1hJywgJzIwMCcsICctbWV0YWxfYmluZGluZycsICctaW1hZScsICc8aW5maWxlLm1hZT4nLCAnLW9tYWUnLCAnPG91dGZpbGUubWFlPic=

> <r_lp_tautomer_probability>
0.999994

> <r_epik_Ionization_Penalty>
0.528791

> <r_epik_Ionization_Penalty_Charging>
0.26278

> <r_epik_Ionization_Penalty_Neutral>
0.26601

> <r_epik_State_Penalty>
0.520375

> <r_epik_Charging_Adjusted_Penalty>
0.783156

> <i_epik_Tot_Q>
1

> <i_epik_Tot_abs_Q>
1

> <r_epik_Metal_State_Penalty>
0.806531

> <b_epik_Metal_Only>
0

> <s_lp_Force_Field>
OPLS_2005

> <r_lp_Energy>
44.5879

> <b_lp_Chiralities_Consistent>
1

> <s_lp_Variant>
AV-unprocessed.smi:1239-1

> <Gold.Version>
5.8.1

> <Gold.Id.Protein>
6NUR|6NUR_protein|mol2

> <Gold.PLP.Fitness>
46.3421

> <Gold.PLP.PLP>
-38.8637

> <Gold.PLP.part.hbond>
-3.5385

> <Gold.PLP.part.metal>
0.0000

> <Gold.PLP.part.buried>
-2.8597

> <Gold.PLP.part.nonpolar>
-33.2097

> <Gold.PLP.part.repulsive>
0.2700

> <Gold.PLP.ligand.clash>
0.0000

> <Gold.PLP.ligand.torsion>
1.9639

> <Gold.PLP.Chemscore.Hbond>
3.7638

> <Gold.PLP.Chemscore.CHOScore>
0.0000

> <Gold.PLP.Chemscore.Metal>
0.0000

> <Gold.Chemscore.Hbonds>
donor molecule, donor type, donor heavy atom, donor atom, acceptor molecule, acceptor atom, score
      L1  H     4    29       P1 10175  1.00
      L1  H     7    30       P1 10175  0.81
      L1  H    15    48       P1 10186  1.41
      P1  H  8011  8017       L1    17  0.43

> <Gold.PLP.Chemscore.Internal.Correction>
0.1150

> <Gold.Rescore>
     Score         DG    S(hbond)    S(metal)    S(lipo)     H(rot)  DE(clash)    DE(int)     intcor
     15.66     -19.03       2.07        0.00      88.58       1.46       1.00       2.37       ----

> <Gold.Chemscore.Fitness>
15.6577

> <Gold.Chemscore.DG>
-19.0272

> <Gold.Chemscore.ZeroCoef>
-5.4800

> <Gold.Chemscore.Hbond>
2.0725

> <Gold.Chemscore.Metal>
0.0000

> <Gold.Chemscore.Lipo>
88.5780

> <Gold.Chemscore.Internal_Hbond>
0.0000

> <Gold.Chemscore.DEClash>
0.9968

> <Gold.Chemscore.DEInternal>
2.3727

> <Gold.Chemscore.Rot>
1.4604

> <Gold.Chemscore.Internal.Correction>
   9.000000E+99

> <Gold.Chemscore.Hbonds>
donor molecule, donor type, donor heavy atom, donor atom, acceptor molecule, acceptor atom, score
      L1  H     4    29       P1 10175  1.00
      L1  H     7    30       P1 10175  0.76
      L1  H    15    48       P1 10186  0.11
      P1  H  8011  8017       L1    17  0.05

> <Gold.Chemscore.Hbond.Weighted>
-6.9221

> <Gold.Chemscore.Metal.Weighted>
-0.0000

> <Gold.Chemscore.Lipo.Weighted>
-10.3636

> <Gold.Chemscore.Internal_Hbond.Weighted>
0.0000

> <Gold.Chemscore.DEClash.Weighted>
0.9968

> <Gold.Chemscore.DEInternal.Weighted>
2.3727

> <Gold.Chemscore.Rot.Weighted>
3.7385

> <Gold.Chemscore.Internal.Correction.Weighted>
   9.000000E+99

> <Gold.Protein.RotatedTorsions>
[ 6907 6896 6895 6894 ] final -164.79 input  -60.11 | X-H torsion
[ 7974 7965 7964 7962 ] final   20.85 input  175.53 | X-H torsion
[ 8008 7997 7996 7995 ] final   12.72 input   59.86 | X-H torsion
[ 10167 10162 10161 10158 ] final  -43.87 input  -65.29 | X-H torsion
[ 10718 10713 10712 10709 ] final  179.68 input   66.30 | X-H torsion
[ 10763 10752 10751 10750 ] final -100.72 input  -60.55 | X-H torsion
[ 11005 11000 10999 10996 ] final  156.63 input  -57.11 | X-H torsion

> <Gold.Protein.ActiveResidues>
 VAL166  LYS551  ARG553  GLY616  TRP617  ASP618  TYR619  PRO620  LYS621  CYS622 
 ASP623  PHE694  ASN695  SER759  ASP760  ASP761  ALA762  ILE779  LEU786  VAL792 
 PHE793  MET794  SER795  GLU796  ALA797  LYS798  CYS799  TRP800  GLU811  SER814 

> <Gold.Protein.RotatedAtoms>
  151.4174  133.3708  159.2751 H   0  0  0  0  0  0  0  0  0  0  0  0  # atno 6907 bound_to 6896
  150.9318  134.8734  159.7567 H   0  0  0  0  0  0  0  0  0  0  0  0  # atno 6908 bound_to 6896
  152.5032  134.4119  159.9503 H   0  0  0  0  0  0  0  0  0  0  0  0  # atno 6909 bound_to 6896
  146.2095  139.8111  142.8700 H   0  0  0  0  0  0  0  0  0  0  0  0  # atno 7974 bound_to 7965
  154.8245  140.2889  155.5764 H   0  0  0  0  0  0  0  0  0  0  0  0  # atno 8008 bound_to 7997
  156.3000  140.2544  156.3090 H   0  0  0  0  0  0  0  0  0  0  0  0  # atno 8009 bound_to 7997
  154.9300  140.0383  157.2032 H   0  0  0  0  0  0  0  0  0  0  0  0  # atno 8010 bound_to 7997
  140.6918  143.2960  151.3414 H   0  0  0  0  0  0  0  0  0  0  0  0  # atno 10167 bound_to 10162
  156.8721  130.9787  151.3072 H   0  0  0  0  0  0  0  0  0  0  0  0  # atno 10718 bound_to 10713
  154.7601  135.4924  153.9448 H   0  0  0  0  0  0  0  0  0  0  0  0  # atno 10763 bound_to 10752
  153.1241  135.6738  153.9294 H   0  0  0  0  0  0  0  0  0  0  0  0  # atno 10764 bound_to 10752
  153.9017  135.3109  155.3427 H   0  0  0  0  0  0  0  0  0  0  0  0  # atno 10765 bound_to 10752
  140.1693  134.8554  157.2670 H   0  0  0  0  0  0  0  0  0  0  0  0  # atno 11005 bound_to 11000
  145.3195  141.0240  143.3508 LP  0  0  0  0  0  0  0  0  0  0  0  0  # atno 17320 bound_to 7965
  144.8877  139.4817  143.6693 LP  0  0  0  0  0  0  0  0  0  0  0  0  # atno 17321 bound_to 7965
  139.6329  144.0687  152.2491 LP  0  0  0  0  0  0  0  0  0  0  0  0  # atno 17342 bound_to 10162
  140.0167  144.6183  150.7601 LP  0  0  0  0  0  0  0  0  0  0  0  0  # atno 17343 bound_to 10162
  157.6189  130.8640  149.9076 LP  0  0  0  0  0  0  0  0  0  0  0  0  # atno 17370 bound_to 10713
  156.0721  130.3684  150.0754 LP  0  0  0  0  0  0  0  0  0  0  0  0  # atno 17371 bound_to 10713
  140.2396  134.3811  155.7486 LP  0  0  0  0  0  0  0  0  0  0  0  0  # atno 17394 bound_to 11000
  141.2216  133.7258  156.8769 LP  0  0  0  0  0  0  0  0  0  0  0  0  # atno 17395 bound_to 11000

$$$$
