AV-unprocessed.smi:2810|AV-procd|sdf|10827|dock1
  -GOLD-   2272015263D 1   1.00000     0.00000
 Structure written by MMmdl.
 39 40  0  0  0  0  0  0  0  0  1 V2000
  152.1326  145.0388  158.8772 C   0  0  0  0  0  0  0  0  0  0  0  0
  152.2005  143.5310  158.7608 C   0  0  0  0  0  0  0  0  0  0  0  0
  151.5946  142.8471  157.6869 C   0  0  0  0  0  0  0  0  0  0  0  0
  151.7114  141.4356  157.6869 C   0  0  0  0  0  0  0  0  0  0  0  0
  151.1597  140.6183  156.6796 N   0  0  0  0  0  0  0  0  0  0  0  0
  152.1974  139.9196  155.9244 C   0  0  0  0  0  0  0  0  0  0  0  0
  151.5773  138.8664  154.9950 C   0  0  0  0  0  0  0  0  0  0  0  0
  150.6185  139.4924  154.1532 O   0  0  0  0  0  0  0  0  0  0  0  0
  149.5476  140.0485  154.9066 C   0  0  0  0  0  0  0  0  0  0  0  0
  150.0674  141.1550  155.8543 C   0  0  1  0  0  0  0  0  0  0  0  0
  148.8685  141.7093  156.6459 C   0  0  0  0  0  0  0  0  0  0  0  0
  147.8656  142.2342  155.9377 N   0  0  0  0  0  0  0  0  0  0  0  0
  148.8417  141.6545  157.8742 O   0  0  0  0  0  0  0  0  0  0  0  0
  152.3909  140.7999  158.6687 N   0  0  0  0  0  0  0  0  0  0  0  0
  152.9270  141.5467  159.6398 C   0  0  0  0  0  0  0  0  0  0  0  0
  153.6784  140.8103  160.7410 C   0  0  0  0  0  0  0  0  0  0  0  0
  153.8976  141.6951  161.9779 C   0  0  0  0  0  0  0  0  0  0  0  0
  154.9753  140.1702  160.2223 C   0  0  0  0  0  0  0  0  0  0  0  0
  152.8659  142.8781  159.7372 N   0  0  0  0  0  0  0  0  0  0  0  0
  151.7234  145.4853  157.9707 H   0  0  0  0  0  0  0  0  0  0  0  0
  153.1268  145.4550  159.0421 H   0  0  0  0  0  0  0  0  0  0  0  0
  151.4962  145.3230  159.7156 H   0  0  0  0  0  0  0  0  0  0  0  0
  151.0714  143.3856  156.9115 H   0  0  0  0  0  0  0  0  0  0  0  0
  152.7635  140.6453  155.3379 H   0  0  0  0  0  0  0  0  0  0  0  0
  152.9063  139.4302  156.5940 H   0  0  0  0  0  0  0  0  0  0  0  0
  152.3495  138.4097  154.3757 H   0  0  0  0  0  0  0  0  0  0  0  0
  151.1118  138.0631  155.5687 H   0  0  0  0  0  0  0  0  0  0  0  0
  148.8173  140.4581  154.2074 H   0  0  0  0  0  0  0  0  0  0  0  0
  149.0408  139.2560  155.4613 H   0  0  0  0  0  0  0  0  0  0  0  0
  150.4787  141.9538  155.2347 H   0  0  0  0  0  0  0  0  0  0  0  0
  147.0558  142.6089  156.4098 H   0  0  0  0  0  0  0  0  0  0  0  0
  147.9212  142.2519  154.9297 H   0  0  0  0  0  0  0  0  0  0  0  0
  153.0426  139.9853  161.0671 H   0  0  0  0  0  0  0  0  0  0  0  0
  152.9492  142.0715  162.3620 H   0  0  0  0  0  0  0  0  0  0  0  0
  154.5285  142.5542  161.7473 H   0  0  0  0  0  0  0  0  0  0  0  0
  154.3802  141.1355  162.7792 H   0  0  0  0  0  0  0  0  0  0  0  0
  154.7722  139.4915  159.3933 H   0  0  0  0  0  0  0  0  0  0  0  0
  155.4702  139.5960  161.0059 H   0  0  0  0  0  0  0  0  0  0  0  0
  155.6793  140.9250  159.8704 H   0  0  0  0  0  0  0  0  0  0  0  0
  1  2  1  0  0  0  0
  1 20  1  0  0  0  0
  1 21  1  0  0  0  0
  1 22  1  0  0  0  0
  2 19  1  0  0  0  0
  2  3  2  0  0  0  0
  3  4  1  0  0  0  0
  3 23  1  0  0  0  0
  4  5  1  0  0  0  0
  4 14  2  0  0  0  0
  5 10  1  0  0  0  0
  5  6  1  0  0  0  0
  6  7  1  0  0  0  0
  6 24  1  0  0  0  0
  6 25  1  0  0  0  0
  7  8  1  0  0  0  0
  7 26  1  0  0  0  0
  7 27  1  0  0  0  0
  8  9  1  0  0  0  0
  9 10  1  0  0  0  0
  9 28  1  0  0  0  0
  9 29  1  0  0  0  0
 10 11  1  0  0  0  0
 10 30  1  0  0  0  0
 11 12  1  0  0  0  0
 11 13  2  0  0  0  0
 12 31  1  0  0  0  0
 12 32  1  0  0  0  0
 14 15  1  0  0  0  0
 15 16  1  0  0  0  0
 15 19  2  0  0  0  0
 16 17  1  0  0  0  0
 16 18  1  0  0  0  0
 16 33  1  0  0  0  0
 17 34  1  0  0  0  0
 17 35  1  0  0  0  0
 17 36  1  0  0  0  0
 18 37  1  0  0  0  0
 18 38  1  0  0  0  0
 18 39  1  0  0  0  0
M  END
> <s_m_source_file>
AV-unprocessed.smi

> <i_m_source_file_index>
2810

> <i_lp_mmshare_version>
43012

> <i_f3d_flags>
0

> <s_epik_input>
W0NIM11bQ0hdKFtDSDNdKWMobjEpbmMoW2NIXWMxW0NIM10pTjJbQ0gyXVtDSDJdT1tDSDJdW0NASF0yQyg9TylbTkgyXQ==

> <s_epik_cmdline>
J2VwaWtfcHl0aG9uJywgJy1waCcsICc3LjAnLCAnLXRuJywgJzgnLCAnLW1hJywgJzIwMCcsICctbWV0YWxfYmluZGluZycsICctaW1hZScsICc8aW5maWxlLm1hZT4nLCAnLW9tYWUnLCAnPG91dGZpbGUubWFlPic=

> <r_lp_tautomer_probability>
1

> <r_epik_Ionization_Penalty>
0.00607782

> <r_epik_Ionization_Penalty_Charging>
0

> <r_epik_Ionization_Penalty_Neutral>
0.00607782

> <r_epik_State_Penalty>
0.00441345

> <r_epik_Charging_Adjusted_Penalty>
0.00441345

> <i_epik_Tot_Q>
0

> <i_epik_Tot_abs_Q>
0

> <r_epik_Metal_State_Penalty>
-0

> <b_epik_Metal_Only>
0

> <s_lp_Force_Field>
OPLS_2005

> <r_lp_Energy>
6.57668

> <b_lp_Chiralities_Consistent>
1

> <s_lp_Variant>
AV-unprocessed.smi:2810-1

> <Gold.Version>
5.8.1

> <Gold.Id.Protein>
6NUR|6NUR_protein|mol2

> <Gold.PLP.Fitness>
41.1624

> <Gold.PLP.PLP>
-38.9933

> <Gold.PLP.part.hbond>
-2.0000

> <Gold.PLP.part.metal>
0.0000

> <Gold.PLP.part.buried>
-3.7023

> <Gold.PLP.part.nonpolar>
-32.3442

> <Gold.PLP.part.repulsive>
0.3226

> <Gold.PLP.ligand.clash>
0.0000

> <Gold.PLP.ligand.torsion>
0.5823

> <Gold.PLP.Chemscore.Hbond>
1.0000

> <Gold.PLP.Chemscore.CHOScore>
0.0000

> <Gold.PLP.Chemscore.Metal>
0.0000

> <Gold.Chemscore.Hbonds>
donor molecule, donor type, donor heavy atom, donor atom, acceptor molecule, acceptor atom, score
      P1  H  7989  7998       L1     8  1.00

> <Gold.PLP.Chemscore.Internal.Correction>
0.3336

> <Gold.Rescore>
     Score         DG    S(hbond)    S(metal)    S(lipo)     H(rot)  DE(clash)    DE(int)     intcor
      9.99     -12.94       0.39        0.00      90.05       1.71       0.10       2.85       ----

> <Gold.Chemscore.Fitness>
9.9898

> <Gold.Chemscore.DG>
-12.9435

> <Gold.Chemscore.ZeroCoef>
-5.4800

> <Gold.Chemscore.Hbond>
0.3922

> <Gold.Chemscore.Metal>
0.0000

> <Gold.Chemscore.Lipo>
90.0468

> <Gold.Chemscore.Internal_Hbond>
0.0000

> <Gold.Chemscore.DEClash>
0.1004

> <Gold.Chemscore.DEInternal>
2.8533

> <Gold.Chemscore.Rot>
1.7117

> <Gold.Chemscore.Internal.Correction>
   9.000000E+99

> <Gold.Chemscore.Hbonds>
donor molecule, donor type, donor heavy atom, donor atom, acceptor molecule, acceptor atom, score
      P1  H  7989  7998       L1     8  0.18

> <Gold.Chemscore.Hbond.Weighted>
-1.3101

> <Gold.Chemscore.Metal.Weighted>
-0.0000

> <Gold.Chemscore.Lipo.Weighted>
-10.5355

> <Gold.Chemscore.Internal_Hbond.Weighted>
0.0000

> <Gold.Chemscore.DEClash.Weighted>
0.1004

> <Gold.Chemscore.DEInternal.Weighted>
2.8533

> <Gold.Chemscore.Rot.Weighted>
4.3820

> <Gold.Chemscore.Internal.Correction.Weighted>
   9.000000E+99

> <Gold.Protein.RotatedTorsions>
[ 6907 6896 6895 6894 ] final -110.40 input  -60.11 | X-H torsion
[ 7974 7965 7964 7962 ] final  -66.28 input  175.53 | X-H torsion
[ 8008 7997 7996 7995 ] final  -70.51 input   59.86 | X-H torsion
[ 10167 10162 10161 10158 ] final   30.27 input  -65.29 | X-H torsion
[ 10718 10713 10712 10709 ] final -170.12 input   66.30 | X-H torsion
[ 10763 10752 10751 10750 ] final -177.88 input  -60.55 | X-H torsion
[ 11005 11000 10999 10996 ] final   14.16 input  -57.11 | X-H torsion

> <Gold.Protein.ActiveResidues>
 VAL166  LYS551  ARG553  GLY616  TRP617  ASP618  TYR619  PRO620  LYS621  CYS622 
 ASP623  PHE694  ASN695  SER759  ASP760  ASP761  ALA762  ILE779  LEU786  VAL792 
 PHE793  MET794  SER795  GLU796  ALA797  LYS798  CYS799  TRP800  GLU811  SER814 

> <Gold.Protein.RotatedAtoms>
  150.7622  133.9388  159.3449 H   0  0  0  0  0  0  0  0  0  0  0  0  # atno 6907 bound_to 6896
  151.7294  135.0876  160.0307 H   0  0  0  0  0  0  0  0  0  0  0  0  # atno 6908 bound_to 6896
  152.3599  133.6246  159.6043 H   0  0  0  0  0  0  0  0  0  0  0  0  # atno 6909 bound_to 6896
  145.7438  140.8941  143.0516 H   0  0  0  0  0  0  0  0  0  0  0  0  # atno 7974 bound_to 7965
  154.5017  140.0833  156.7811 H   0  0  0  0  0  0  0  0  0  0  0  0  # atno 8008 bound_to 7997
  155.3987  140.3436  155.4237 H   0  0  0  0  0  0  0  0  0  0  0  0  # atno 8009 bound_to 7997
  156.1465  140.1545  156.8826 H   0  0  0  0  0  0  0  0  0  0  0  0  # atno 8010 bound_to 7997
  140.4693  144.0787  150.6233 H   0  0  0  0  0  0  0  0  0  0  0  0  # atno 10167 bound_to 10162
  156.7215  130.9272  151.3098 H   0  0  0  0  0  0  0  0  0  0  0  0  # atno 10718 bound_to 10713
  154.5547  135.2815  155.0976 H   0  0  0  0  0  0  0  0  0  0  0  0  # atno 10763 bound_to 10752
  154.2408  135.6357  153.5210 H   0  0  0  0  0  0  0  0  0  0  0  0  # atno 10764 bound_to 10752
  153.0012  135.5559  154.6123 H   0  0  0  0  0  0  0  0  0  0  0  0  # atno 10765 bound_to 10752
  140.4726  134.1016  155.7735 H   0  0  0  0  0  0  0  0  0  0  0  0  # atno 11005 bound_to 11000
  144.6864  139.9497  143.7477 LP  0  0  0  0  0  0  0  0  0  0  0  0  # atno 17320 bound_to 7965
  146.0422  139.3432  143.0690 LP  0  0  0  0  0  0  0  0  0  0  0  0  # atno 17321 bound_to 7965
  140.3997  143.2710  151.9962 LP  0  0  0  0  0  0  0  0  0  0  0  0  # atno 17342 bound_to 10162
  139.4816  144.6008  151.7609 LP  0  0  0  0  0  0  0  0  0  0  0  0  # atno 17343 bound_to 10162
  157.6896  130.9220  150.0478 LP  0  0  0  0  0  0  0  0  0  0  0  0  # atno 17370 bound_to 10713
  156.1591  130.3643  149.9325 LP  0  0  0  0  0  0  0  0  0  0  0  0  # atno 17371 bound_to 10713
  141.1570  133.8865  157.1952 LP  0  0  0  0  0  0  0  0  0  0  0  0  # atno 17394 bound_to 11000
  139.9876  135.0076  156.9899 LP  0  0  0  0  0  0  0  0  0  0  0  0  # atno 17395 bound_to 11000

$$$$
