AV-unprocessed.smi:2440|AV-procd|sdf|9616|dock4
  -GOLD-   2272013253D 1   1.00000     0.00000
 Structure written by MMmdl.
 52 54  0  0  0  0  0  0  0  0  2 V2000
  146.8566  137.0055  162.5923 C   0  0  0  0  0  0  0  0  0  0  0  0
  147.1500  135.6584  161.9551 C   0  0  0  0  0  0  0  0  0  0  0  0
  146.8147  134.4685  162.6369 C   0  0  0  0  0  0  0  0  0  0  0  0
  147.0440  133.2348  162.1418 N   0  0  0  0  0  0  0  0  0  0  0  0
  147.6294  133.1426  160.9303 C   0  0  0  0  0  0  0  0  0  0  0  0
  148.0046  134.2624  160.1629 C   0  0  0  0  0  0  0  0  0  0  0  0
  147.7501  135.5571  160.6765 C   0  0  0  0  0  0  0  0  0  0  0  0
  148.1130  136.7508  159.9909 N   0  0  0  0  0  0  0  0  0  0  0  0
  149.2295  137.0078  159.2878 C   0  0  0  0  0  0  0  0  0  0  0  0
  150.1434  136.2084  159.0862 O   0  0  0  0  0  0  0  0  0  0  0  0
  149.2181  138.2593  158.8050 N   0  0  0  0  0  0  0  0  0  0  0  0
  150.2673  138.8705  157.9930 C   0  0  2  0  0  0  0  0  0  0  0  0
  151.4794  139.2155  158.8776 C   0  0  0  0  0  0  0  0  0  0  0  0
  152.5346  140.0099  158.0841 C   0  0  0  0  0  0  0  0  0  0  0  0
  151.9639  141.2589  157.5017 N   0  3  2  0  0  0  0  0  0  0  0  0
  151.6470  142.3493  158.4888 C   0  0  0  0  0  0  0  0  0  0  0  0
  151.3173  143.6917  157.7808 C   0  0  0  0  0  0  0  0  0  0  0  0
  151.0556  144.8413  158.7665 C   0  0  0  0  0  0  0  0  0  0  0  0
  152.2362  145.0391  159.7212 C   0  0  0  0  0  0  0  0  0  0  0  0
  152.5347  143.7374  160.4699 C   0  0  0  0  0  0  0  0  0  0  0  0
  152.8061  142.5793  159.4966 C   0  0  0  0  0  0  0  0  0  0  0  0
  150.8554  140.8946  156.5719 C   0  0  0  0  0  0  0  0  0  0  0  0
  149.7271  140.1319  157.2936 C   0  0  0  0  0  0  0  0  0  0  0  0
  146.3882  136.8886  163.5701 H   0  0  0  0  0  0  0  0  0  0  0  0
  146.1810  137.5850  161.9625 H   0  0  0  0  0  0  0  0  0  0  0  0
  147.7776  137.5736  162.7260 H   0  0  0  0  0  0  0  0  0  0  0  0
  146.3498  134.5047  163.6112 H   0  0  0  0  0  0  0  0  0  0  0  0
  147.8126  132.1439  160.5620 H   0  0  0  0  0  0  0  0  0  0  0  0
  148.4883  134.1066  159.2110 H   0  0  0  0  0  0  0  0  0  0  0  0
  147.4102  137.4752  159.9886 H   0  0  0  0  0  0  0  0  0  0  0  0
  148.4179  138.8368  159.0186 H   0  0  0  0  0  0  0  0  0  0  0  0
  150.6068  138.1770  157.2214 H   0  0  0  0  0  0  0  0  0  0  0  0
  151.1620  139.7864  159.7509 H   0  0  0  0  0  0  0  0  0  0  0  0
  151.9262  138.2978  159.2622 H   0  0  0  0  0  0  0  0  0  0  0  0
  153.4200  140.1992  158.6869 H   0  0  0  0  0  0  0  0  0  0  0  0
  152.8960  139.3887  157.2634 H   0  0  0  0  0  0  0  0  0  0  0  0
  150.7684  142.0546  159.0626 H   0  0  0  0  0  0  0  0  0  0  0  0
  152.1347  143.9667  157.1127 H   0  0  0  0  0  0  0  0  0  0  0  0
  150.4247  143.6028  157.1642 H   0  0  0  0  0  0  0  0  0  0  0  0
  150.8660  145.7643  158.2177 H   0  0  0  0  0  0  0  0  0  0  0  0
  150.1519  144.6327  159.3406 H   0  0  0  0  0  0  0  0  0  0  0  0
  153.1172  145.3565  159.1619 H   0  0  0  0  0  0  0  0  0  0  0  0
  152.0138  145.8363  160.4312 H   0  0  0  0  0  0  0  0  0  0  0  0
  153.3934  143.8779  161.1274 H   0  0  0  0  0  0  0  0  0  0  0  0
  151.6915  143.4840  161.1138 H   0  0  0  0  0  0  0  0  0  0  0  0
  152.9758  141.6947  160.1082 H   0  0  0  0  0  0  0  0  0  0  0  0
  153.7337  142.7711  158.9552 H   0  0  0  0  0  0  0  0  0  0  0  0
  150.4640  141.7555  156.0348 H   0  0  0  0  0  0  0  0  0  0  0  0
  151.2671  140.2536  155.7911 H   0  0  0  0  0  0  0  0  0  0  0  0
  148.9577  139.8510  156.5729 H   0  0  0  0  0  0  0  0  0  0  0  0
  149.2382  140.7862  158.0162 H   0  0  0  0  0  0  0  0  0  0  0  0
  152.6936  141.6430  156.9181 H   0  0  0  0  0  0  0  0  0  0  0  0
  1  2  1  0  0  0  0
  1 24  1  0  0  0  0
  1 25  1  0  0  0  0
  1 26  1  0  0  0  0
  2  7  1  0  0  0  0
  2  3  2  0  0  0  0
  3  4  1  0  0  0  0
  3 27  1  0  0  0  0
  4  5  2  0  0  0  0
  5  6  1  0  0  0  0
  5 28  1  0  0  0  0
  6  7  2  0  0  0  0
  6 29  1  0  0  0  0
  7  8  1  0  0  0  0
  8  9  1  0  0  0  0
  8 30  1  0  0  0  0
  9 10  2  0  0  0  0
  9 11  1  0  0  0  0
 11 12  1  0  0  0  0
 11 31  1  0  0  0  0
 12 23  1  0  0  0  0
 12 13  1  0  0  0  0
 12 32  1  0  0  0  0
 13 14  1  0  0  0  0
 13 33  1  0  0  0  0
 13 34  1  0  0  0  0
 14 15  1  0  0  0  0
 14 35  1  0  0  0  0
 14 36  1  0  0  0  0
 15 16  1  0  0  0  0
 15 22  1  0  0  0  0
 15 52  1  0  0  0  0
 16 21  1  0  0  0  0
 16 17  1  0  0  0  0
 16 37  1  0  0  0  0
 17 18  1  0  0  0  0
 17 38  1  0  0  0  0
 17 39  1  0  0  0  0
 18 19  1  0  0  0  0
 18 40  1  0  0  0  0
 18 41  1  0  0  0  0
 19 20  1  0  0  0  0
 19 42  1  0  0  0  0
 19 43  1  0  0  0  0
 20 21  1  0  0  0  0
 20 44  1  0  0  0  0
 20 45  1  0  0  0  0
 21 46  1  0  0  0  0
 21 47  1  0  0  0  0
 22 23  1  0  0  0  0
 22 48  1  0  0  0  0
 22 49  1  0  0  0  0
 23 50  1  0  0  0  0
 23 51  1  0  0  0  0
M  CHG  1  15   1
M  END
> <s_m_source_file>
AV-unprocessed.smi

> <i_m_source_file_index>
2440

> <i_lp_mmshare_version>
43012

> <i_f3d_flags>
0

> <s_epik_input>
W0NIM11jMVtjSF1uW2NIXVtjSF1jMVtOSF1DKD1PKVtOSF1bQ0hdMltDSDJdW0NIMl1OKFtDSDJdW0NIMl0yKVtDSF0zW0NIMl1bQ0gyXVtDSDJdW0NIMl1bQ0gyXTM=

> <s_epik_cmdline>
J2VwaWtfcHl0aG9uJywgJy1waCcsICc3LjAnLCAnLXRuJywgJzgnLCAnLW1hJywgJzIwMCcsICctbWV0YWxfYmluZGluZycsICctaW1hZScsICc8aW5maWxlLm1hZT4nLCAnLW9tYWUnLCAnPG91dGZpbGUubWFlPic=

> <r_epik_Ionization_Penalty>
0.180356

> <r_epik_Ionization_Penalty_Charging>
0.00171891

> <r_epik_Ionization_Penalty_Neutral>
0.178637

> <r_epik_State_Penalty>
0.173134

> <r_epik_Charging_Adjusted_Penalty>
0.174853

> <i_epik_Tot_Q>
1

> <i_epik_Tot_abs_Q>
1

> <r_epik_Metal_State_Penalty>
0.131816

> <b_epik_Metal_Only>
0

> <s_lp_Force_Field>
OPLS_2005

> <r_lp_Energy>
36.8114

> <b_lp_Chiralities_Consistent>
1

> <s_lp_Variant>
AV-unprocessed.smi:2440-2

> <Gold.Version>
5.8.1

> <Gold.Id.Protein>
6NUR|6NUR_protein|mol2

> <Gold.PLP.Fitness>
47.5660

> <Gold.PLP.PLP>
-45.7217

> <Gold.PLP.part.hbond>
-1.0000

> <Gold.PLP.part.metal>
0.0000

> <Gold.PLP.part.buried>
-4.8817

> <Gold.PLP.part.nonpolar>
-39.5763

> <Gold.PLP.part.repulsive>
0.5027

> <Gold.PLP.ligand.clash>
0.0000

> <Gold.PLP.ligand.torsion>
0.6003

> <Gold.PLP.Chemscore.Hbond>
1.0000

> <Gold.PLP.Chemscore.CHOScore>
0.0000

> <Gold.PLP.Chemscore.Metal>
0.0000

> <Gold.Chemscore.Hbonds>
donor molecule, donor type, donor heavy atom, donor atom, acceptor molecule, acceptor atom, score
      P1  H  6896  6909       L1    10  1.00

> <Gold.PLP.Chemscore.Internal.Correction>
0.0449

> <Gold.Rescore>
     Score         DG    S(hbond)    S(metal)    S(lipo)     H(rot)  DE(clash)    DE(int)     intcor
     20.70     -21.84       0.98        0.00     137.36       1.17       0.02       1.13       ----

> <Gold.Chemscore.Fitness>
20.6955

> <Gold.Chemscore.DG>
-21.8417

> <Gold.Chemscore.ZeroCoef>
-5.4800

> <Gold.Chemscore.Hbond>
0.9849

> <Gold.Chemscore.Metal>
0.0000

> <Gold.Chemscore.Lipo>
137.3622

> <Gold.Chemscore.Internal_Hbond>
0.0000

> <Gold.Chemscore.DEClash>
0.0203

> <Gold.Chemscore.DEInternal>
1.1259

> <Gold.Chemscore.Rot>
1.1715

> <Gold.Chemscore.Internal.Correction>
   9.000000E+99

> <Gold.Chemscore.Hbonds>
donor molecule, donor type, donor heavy atom, donor atom, acceptor molecule, acceptor atom, score
      P1  H  6896  6909       L1    10  0.96

> <Gold.Chemscore.Hbond.Weighted>
-3.2894

> <Gold.Chemscore.Metal.Weighted>
-0.0000

> <Gold.Chemscore.Lipo.Weighted>
-16.0714

> <Gold.Chemscore.Internal_Hbond.Weighted>
0.0000

> <Gold.Chemscore.DEClash.Weighted>
0.0203

> <Gold.Chemscore.DEInternal.Weighted>
1.1259

> <Gold.Chemscore.Rot.Weighted>
2.9991

> <Gold.Chemscore.Internal.Correction.Weighted>
   9.000000E+99

> <Gold.Protein.RotatedTorsions>
[ 6907 6896 6895 6894 ] final   59.37 input  -60.11 | X-H torsion
[ 7974 7965 7964 7962 ] final  -13.62 input  175.53 | X-H torsion
[ 8008 7997 7996 7995 ] final   52.07 input   59.86 | X-H torsion
[ 10167 10162 10161 10158 ] final -175.15 input  -65.29 | X-H torsion
[ 10718 10713 10712 10709 ] final   37.21 input   66.30 | X-H torsion
[ 10763 10752 10751 10750 ] final  -26.69 input  -60.55 | X-H torsion
[ 11005 11000 10999 10996 ] final   40.53 input  -57.11 | X-H torsion

> <Gold.Protein.ActiveResidues>
 VAL166  LYS551  ARG553  GLY616  TRP617  ASP618  TYR619  PRO620  LYS621  CYS622 
 ASP623  PHE694  ASN695  SER759  ASP760  ASP761  ALA762  ILE779  LEU786  VAL792 
 PHE793  MET794  SER795  GLU796  ALA797  LYS798  CYS799  TRP800  GLU811  SER814 

> <Gold.Protein.RotatedAtoms>
  152.3908  134.6444  160.0107 H   0  0  0  0  0  0  0  0  0  0  0  0  # atno 6907 bound_to 6896
  151.6678  133.3309  159.3197 H   0  0  0  0  0  0  0  0  0  0  0  0  # atno 6908 bound_to 6896
  150.7825  134.6825  159.6496 H   0  0  0  0  0  0  0  0  0  0  0  0  # atno 6909 bound_to 6896
  146.2107  140.3230  142.8392 H   0  0  0  0  0  0  0  0  0  0  0  0  # atno 7974 bound_to 7965
  155.4458  140.3456  155.4295 H   0  0  0  0  0  0  0  0  0  0  0  0  # atno 8008 bound_to 7997
  156.1251  140.1498  156.9178 H   0  0  0  0  0  0  0  0  0  0  0  0  # atno 8009 bound_to 7997
  154.4852  140.0857  156.7449 H   0  0  0  0  0  0  0  0  0  0  0  0  # atno 8010 bound_to 7997
  139.5596  144.1903  152.1216 H   0  0  0  0  0  0  0  0  0  0  0  0  # atno 10167 bound_to 10162
  157.3441  130.7563  149.6932 H   0  0  0  0  0  0  0  0  0  0  0  0  # atno 10718 bound_to 10713
  153.7200  135.6945  153.5015 H   0  0  0  0  0  0  0  0  0  0  0  0  # atno 10763 bound_to 10752
  153.2211  135.4369  155.0489 H   0  0  0  0  0  0  0  0  0  0  0  0  # atno 10764 bound_to 10752
  154.8287  135.3460  154.6734 H   0  0  0  0  0  0  0  0  0  0  0  0  # atno 10765 bound_to 10752
  140.1921  134.3973  155.8141 H   0  0  0  0  0  0  0  0  0  0  0  0  # atno 11005 bound_to 11000
  144.8906  140.7519  143.5929 LP  0  0  0  0  0  0  0  0  0  0  0  0  # atno 17320 bound_to 7965
  145.3153  139.1805  143.4617 LP  0  0  0  0  0  0  0  0  0  0  0  0  # atno 17321 bound_to 7965
  140.1414  144.5198  150.6742 LP  0  0  0  0  0  0  0  0  0  0  0  0  # atno 17342 bound_to 10162
  140.6874  143.2357  151.5224 LP  0  0  0  0  0  0  0  0  0  0  0  0  # atno 17343 bound_to 10162
  155.9712  130.4159  150.4205 LP  0  0  0  0  0  0  0  0  0  0  0  0  # atno 17370 bound_to 10713
  157.2257  131.0492  151.2521 LP  0  0  0  0  0  0  0  0  0  0  0  0  # atno 17371 bound_to 10713
  141.2226  133.7052  156.8114 LP  0  0  0  0  0  0  0  0  0  0  0  0  # atno 17394 bound_to 11000
  140.2147  134.8801  157.3313 LP  0  0  0  0  0  0  0  0  0  0  0  0  # atno 17395 bound_to 11000

$$$$
