AV-unprocessed.smi:3351|AV-procd|sdf|12947|dock2
  -GOLD-   2272019383D 1   1.00000     0.00000
 Structure written by MMmdl.
 35 36  0  0  0  0  0  0  0  0  2 V2000
  150.6206  139.3587  155.5205 C   0  0  0  0  0  0  0  0  0  0  0  0
  150.0232  140.7486  155.7779 C   0  0  2  0  0  0  0  0  0  0  0  0
  149.5961  141.4269  154.4574 C   0  0  0  0  0  0  0  0  0  0  0  0
  148.1406  141.5353  154.3094 N   0  0  0  0  0  0  0  0  0  0  0  0
  147.2941  142.3651  154.9985 C   0  0  0  0  0  0  0  0  0  0  0  0
  146.0292  142.1015  154.5405 C   0  0  0  0  0  0  0  0  0  0  0  0
  146.1583  141.1310  153.5833 N   0  3  0  0  0  0  0  0  0  0  0  0
  147.4436  140.7921  153.4401 C   0  0  0  0  0  0  0  0  0  0  0  0
  151.0068  141.5620  156.4924 N   0  0  0  0  0  0  0  0  0  0  0  0
  150.8722  142.0368  157.7410 C   0  0  0  0  0  0  0  0  0  0  0  0
  149.8892  141.8116  158.4485 O   0  0  0  0  0  0  0  0  0  0  0  0
  152.0293  142.8923  158.2688 C   0  0  0  0  0  0  0  0  0  0  0  0
  152.4896  142.4526  159.5864 N   0  0  0  0  0  0  0  0  0  0  0  0
  152.0847  143.2021  160.7682 C   0  0  0  0  0  0  0  0  0  0  0  0
  152.9912  142.7793  161.9262 C   0  0  0  0  0  0  0  0  0  0  0  0
  153.6511  141.1456  161.5381 S   0  0  0  0  0  0  0  0  0  0  0  0
  153.2547  141.3127  159.7954 C   0  0  0  0  0  0  0  0  0  0  0  0
  153.6393  140.5025  158.9540 O   0  0  0  0  0  0  0  0  0  0  0  0
  149.9035  138.7109  155.0156 H   0  0  0  0  0  0  0  0  0  0  0  0
  150.9001  138.8719  156.4556 H   0  0  0  0  0  0  0  0  0  0  0  0
  151.5123  139.4179  154.8955 H   0  0  0  0  0  0  0  0  0  0  0  0
  149.1404  140.6062  156.4039 H   0  0  0  0  0  0  0  0  0  0  0  0
  150.0205  142.4292  154.3820 H   0  0  0  0  0  0  0  0  0  0  0  0
  149.9682  140.8618  153.6015 H   0  0  0  0  0  0  0  0  0  0  0  0
  147.6427  143.0546  155.7540 H   0  0  0  0  0  0  0  0  0  0  0  0
  145.0728  142.5200  154.8183 H   0  0  0  0  0  0  0  0  0  0  0  0
  147.8387  140.0538  152.7654 H   0  0  0  0  0  0  0  0  0  0  0  0
  151.8540  141.7907  155.9923 H   0  0  0  0  0  0  0  0  0  0  0  0
  152.8503  142.8459  157.5523 H   0  0  0  0  0  0  0  0  0  0  0  0
  151.7266  143.9396  158.3238 H   0  0  0  0  0  0  0  0  0  0  0  0
  152.1428  144.2776  160.5955 H   0  0  0  0  0  0  0  0  0  0  0  0
  151.0456  142.9577  160.9917 H   0  0  0  0  0  0  0  0  0  0  0  0
  153.8310  143.4692  162.0127 H   0  0  0  0  0  0  0  0  0  0  0  0
  152.4650  142.7750  162.8810 H   0  0  0  0  0  0  0  0  0  0  0  0
  145.3930  140.7246  153.0598 H   0  0  0  0  0  0  0  0  0  0  0  0
  1  2  1  0  0  0  0
  1 19  1  0  0  0  0
  1 20  1  0  0  0  0
  1 21  1  0  0  0  0
  2  3  1  0  0  0  0
  2  9  1  0  0  0  0
  2 22  1  0  0  0  0
  3  4  1  0  0  0  0
  3 23  1  0  0  0  0
  3 24  1  0  0  0  0
  4  8  1  0  0  0  0
  4  5  1  0  0  0  0
  5  6  2  0  0  0  0
  5 25  1  0  0  0  0
  6  7  1  0  0  0  0
  6 26  1  0  0  0  0
  7  8  2  0  0  0  0
  7 35  1  0  0  0  0
  8 27  1  0  0  0  0
  9 10  1  0  0  0  0
  9 28  1  0  0  0  0
 10 11  2  0  0  0  0
 10 12  1  0  0  0  0
 12 13  1  0  0  0  0
 12 29  1  0  0  0  0
 12 30  1  0  0  0  0
 13 17  1  0  0  0  0
 13 14  1  0  0  0  0
 14 15  1  0  0  0  0
 14 31  1  0  0  0  0
 14 32  1  0  0  0  0
 15 16  1  0  0  0  0
 15 33  1  0  0  0  0
 15 34  1  0  0  0  0
 16 17  1  0  0  0  0
 17 18  2  0  0  0  0
M  CHG  1   7   1
M  END
> <s_m_source_file>
AV-unprocessed.smi

> <i_m_source_file_index>
3351

> <i_lp_mmshare_version>
43012

> <i_f3d_flags>
0

> <s_epik_input>
W2NIXTFuW2NIXVtjSF1uMVtDSDJdW0NAQEhdKFtDSDNdKVtOSF1DKD1PKVtDSDJdTjJbQ0gyXVtDSDJdU0MyPU8=

> <s_epik_cmdline>
J2VwaWtfcHl0aG9uJywgJy1waCcsICc3LjAnLCAnLXRuJywgJzgnLCAnLW1hJywgJzIwMCcsICctbWV0YWxfYmluZGluZycsICctaW1hZScsICc8aW5maWxlLm1hZT4nLCAnLW9tYWUnLCAnPG91dGZpbGUubWFlPic=

> <r_lp_tautomer_probability>
1

> <r_epik_Ionization_Penalty>
0.257312

> <r_epik_Ionization_Penalty_Charging>
0

> <r_epik_Ionization_Penalty_Neutral>
0.257312

> <r_epik_State_Penalty>
0.248897

> <r_epik_Charging_Adjusted_Penalty>
0.248897

> <i_epik_Tot_Q>
1

> <i_epik_Tot_abs_Q>
1

> <r_epik_Metal_State_Penalty>
0.538022

> <b_epik_Metal_Only>
0

> <s_lp_Force_Field>
OPLS_2005

> <r_lp_Energy>
4.24041

> <b_lp_Chiralities_Consistent>
1

> <s_lp_Variant>
AV-unprocessed.smi:3351-1

> <Gold.Version>
5.8.1

> <Gold.Id.Protein>
6NUR|6NUR_protein|mol2

> <Gold.PLP.Fitness>
50.3210

> <Gold.PLP.PLP>
-38.3137

> <Gold.PLP.part.hbond>
-2.0431

> <Gold.PLP.part.metal>
0.0000

> <Gold.PLP.part.buried>
-0.1148

> <Gold.PLP.part.nonpolar>
-35.0265

> <Gold.PLP.part.repulsive>
0.1422

> <Gold.PLP.ligand.clash>
0.0000

> <Gold.PLP.ligand.torsion>
1.1473

> <Gold.PLP.Chemscore.Hbond>
2.7771

> <Gold.PLP.Chemscore.CHOScore>
1.9729

> <Gold.PLP.Chemscore.Metal>
0.0000

> <Gold.Chemscore.Hbonds>
donor molecule, donor type, donor heavy atom, donor atom, acceptor molecule, acceptor atom, score
      L1  H     7    35       P1 10175  2.00
      P1  H  7997  8009       L1    18  0.56
      L1  C     5    25       P1  8028  1.00
      L1  C     8    27       P1  7957  1.00

> <Gold.PLP.Chemscore.Internal.Correction>
0.0516

> <Gold.Rescore>
     Score         DG    S(hbond)    S(metal)    S(lipo)     H(rot)  DE(clash)    DE(int)     intcor
     11.67     -13.98       1.87        0.00      72.14       2.41       1.24       1.06       ----

> <Gold.Chemscore.Fitness>
11.6749

> <Gold.Chemscore.DG>
-13.9751

> <Gold.Chemscore.ZeroCoef>
-5.4800

> <Gold.Chemscore.Hbond>
1.8669

> <Gold.Chemscore.Metal>
0.0000

> <Gold.Chemscore.Lipo>
72.1351

> <Gold.Chemscore.Internal_Hbond>
0.0000

> <Gold.Chemscore.DEClash>
1.2450

> <Gold.Chemscore.DEInternal>
1.0553

> <Gold.Chemscore.Rot>
2.4141

> <Gold.Chemscore.Internal.Correction>
   9.000000E+99

> <Gold.Chemscore.Hbonds>
donor molecule, donor type, donor heavy atom, donor atom, acceptor molecule, acceptor atom, score
      L1  H     7    35       P1 10175  0.69
      P1  H  7997  8009       L1    18  0.55

> <Gold.Chemscore.Hbond.Weighted>
-6.2354

> <Gold.Chemscore.Metal.Weighted>
-0.0000

> <Gold.Chemscore.Lipo.Weighted>
-8.4398

> <Gold.Chemscore.Internal_Hbond.Weighted>
0.0000

> <Gold.Chemscore.DEClash.Weighted>
1.2450

> <Gold.Chemscore.DEInternal.Weighted>
1.0553

> <Gold.Chemscore.Rot.Weighted>
6.1800

> <Gold.Chemscore.Internal.Correction.Weighted>
   9.000000E+99

> <Gold.Protein.RotatedTorsions>
[ 6907 6896 6895 6894 ] final -141.10 input  -60.11 | X-H torsion
[ 7974 7965 7964 7962 ] final   15.87 input  175.53 | X-H torsion
[ 8008 7997 7996 7995 ] final  142.33 input   59.86 | X-H torsion
[ 10167 10162 10161 10158 ] final   64.67 input  -65.29 | X-H torsion
[ 10718 10713 10712 10709 ] final   58.88 input   66.30 | X-H torsion
[ 10763 10752 10751 10750 ] final  -81.14 input  -60.55 | X-H torsion
[ 11005 11000 10999 10996 ] final   77.62 input  -57.11 | X-H torsion

> <Gold.Protein.ActiveResidues>
 VAL166  LYS551  ARG553  GLY616  TRP617  ASP618  TYR619  PRO620  LYS621  CYS622 
 ASP623  PHE694  ASN695  SER759  ASP760  ASP761  ALA762  ILE779  LEU786  VAL792 
 PHE793  MET794  SER795  GLU796  ALA797  LYS798  CYS799  TRP800  GLU811  SER814 

> <Gold.Protein.RotatedAtoms>
  151.0694  133.5478  159.2627 H   0  0  0  0  0  0  0  0  0  0  0  0  # atno 6907 bound_to 6896
  151.2423  135.0592  159.9040 H   0  0  0  0  0  0  0  0  0  0  0  0  # atno 6908 bound_to 6896
  152.5409  134.0467  159.8145 H   0  0  0  0  0  0  0  0  0  0  0  0  # atno 6909 bound_to 6896
  146.2266  139.8831  142.8567 H   0  0  0  0  0  0  0  0  0  0  0  0  # atno 7974 bound_to 7965
  156.2951  140.2291  156.4710 H   0  0  0  0  0  0  0  0  0  0  0  0  # atno 8008 bound_to 7997
  154.7935  140.0453  157.1240 H   0  0  0  0  0  0  0  0  0  0  0  0  # atno 8009 bound_to 7997
  154.9617  140.3055  155.5031 H   0  0  0  0  0  0  0  0  0  0  0  0  # atno 8010 bound_to 7997
  140.1197  144.4743  150.6928 H   0  0  0  0  0  0  0  0  0  0  0  0  # atno 10167 bound_to 10162
  157.5631  130.8850  149.9143 H   0  0  0  0  0  0  0  0  0  0  0  0  # atno 10718 bound_to 10713
  154.5599  135.5637  153.6997 H   0  0  0  0  0  0  0  0  0  0  0  0  # atno 10763 bound_to 10752
  153.0015  135.6271  154.2259 H   0  0  0  0  0  0  0  0  0  0  0  0  # atno 10764 bound_to 10752
  154.2197  135.2870  155.2909 H   0  0  0  0  0  0  0  0  0  0  0  0  # atno 10765 bound_to 10752
  139.9247  134.7697  156.1545 H   0  0  0  0  0  0  0  0  0  0  0  0  # atno 11005 bound_to 11000
  145.2493  141.0038  143.3890 LP  0  0  0  0  0  0  0  0  0  0  0  0  # atno 17320 bound_to 7965
  144.9388  139.4213  143.6459 LP  0  0  0  0  0  0  0  0  0  0  0  0  # atno 17321 bound_to 7965
  140.6879  143.2360  151.5210 LP  0  0  0  0  0  0  0  0  0  0  0  0  # atno 17342 bound_to 10162
  139.5575  144.2238  152.1637 LP  0  0  0  0  0  0  0  0  0  0  0  0  # atno 17343 bound_to 10162
  156.0682  130.3689  150.0833 LP  0  0  0  0  0  0  0  0  0  0  0  0  # atno 17370 bound_to 10713
  156.8995  130.9615  151.3578 LP  0  0  0  0  0  0  0  0  0  0  0  0  # atno 17371 bound_to 10713
  141.0795  133.6760  156.2307 LP  0  0  0  0  0  0  0  0  0  0  0  0  # atno 17394 bound_to 11000
  140.6371  134.5204  157.5566 LP  0  0  0  0  0  0  0  0  0  0  0  0  # atno 17395 bound_to 11000

$$$$
