AV-unprocessed.smi:803|AV-procd|sdf|3793|dock1
  -GOLD-   22720 1233D 1   1.00000     0.00000
 Structure written by MMmdl.
 37 38  0  0  0  0  0  0  0  0  1 V2000
  145.8814  143.0363  154.2803 C   0  0  0  0  0  0  0  0  0  0  0  0
  147.1426  142.1713  154.3952 C   0  0  0  0  0  0  0  0  0  0  0  0
  146.8402  140.7577  154.2832 N   0  0  0  0  0  0  0  0  0  0  0  0
  147.2666  139.8674  153.3175 C   0  0  0  0  0  0  0  0  0  0  0  0
  146.7100  138.6654  153.6520 C   0  0  0  0  0  0  0  0  0  0  0  0
  146.8245  137.4095  153.0045 N   0  0  0  0  0  0  0  0  0  0  0  0
  145.9265  136.4109  152.9975 C   0  0  0  0  0  0  0  0  0  0  0  0
  144.8427  136.4295  153.5818 O   0  0  0  0  0  0  0  0  0  0  0  0
  146.3623  135.3715  152.2715 N   0  0  0  0  0  0  0  0  0  0  0  0
  145.6377  134.1205  152.0687 C   0  0  0  0  0  0  0  0  0  0  0  0
  146.4096  133.2017  151.0994 C   0  0  0  0  0  0  0  0  0  0  0  0
  145.6272  131.9119  150.8043 C   0  0  0  0  0  0  0  0  0  0  0  0
  144.2201  132.2218  150.2698 C   0  0  0  0  0  0  0  0  0  0  0  0
  143.4468  133.1306  151.2379 C   0  0  0  0  0  0  0  0  0  0  0  0
  144.2259  134.4229  151.5316 C   0  0  0  0  0  0  0  0  0  0  0  0
  145.9585  138.9014  154.8323 C   0  0  0  0  0  0  0  0  0  0  0  0
  146.0385  140.1695  155.2056 N   0  0  0  0  0  0  0  0  0  0  0  0
  146.1262  144.0935  154.3840 H   0  0  0  0  0  0  0  0  0  0  0  0
  145.1593  142.7836  155.0574 H   0  0  0  0  0  0  0  0  0  0  0  0
  145.3952  142.9019  153.3136 H   0  0  0  0  0  0  0  0  0  0  0  0
  147.8598  142.4379  153.6179 H   0  0  0  0  0  0  0  0  0  0  0  0
  147.6326  142.3487  155.3532 H   0  0  0  0  0  0  0  0  0  0  0  0
  147.9125  140.1671  152.5054 H   0  0  0  0  0  0  0  0  0  0  0  0
  147.6829  137.2538  152.4964 H   0  0  0  0  0  0  0  0  0  0  0  0
  147.2662  135.4480  151.8284 H   0  0  0  0  0  0  0  0  0  0  0  0
  145.5296  133.6078  153.0266 H   0  0  0  0  0  0  0  0  0  0  0  0
  146.6010  133.7292  150.1637 H   0  0  0  0  0  0  0  0  0  0  0  0
  147.3855  132.9495  151.5164 H   0  0  0  0  0  0  0  0  0  0  0  0
  146.1727  131.3031  150.0826 H   0  0  0  0  0  0  0  0  0  0  0  0
  145.5494  131.3165  151.7149 H   0  0  0  0  0  0  0  0  0  0  0  0
  144.2978  132.7073  149.2963 H   0  0  0  0  0  0  0  0  0  0  0  0
  143.6697  131.2942  150.1102 H   0  0  0  0  0  0  0  0  0  0  0  0
  142.4696  133.3728  150.8195 H   0  0  0  0  0  0  0  0  0  0  0  0
  143.2596  132.5965  152.1705 H   0  0  0  0  0  0  0  0  0  0  0  0
  143.6736  135.0273  152.2519 H   0  0  0  0  0  0  0  0  0  0  0  0
  144.2955  135.0165  150.6187 H   0  0  0  0  0  0  0  0  0  0  0  0
  145.3689  138.2111  155.4172 H   0  0  0  0  0  0  0  0  0  0  0  0
  1  2  1  0  0  0  0
  1 18  1  0  0  0  0
  1 19  1  0  0  0  0
  1 20  1  0  0  0  0
  2  3  1  0  0  0  0
  2 21  1  0  0  0  0
  2 22  1  0  0  0  0
  3 17  1  0  0  0  0
  3  4  1  0  0  0  0
  4  5  2  0  0  0  0
  4 23  1  0  0  0  0
  5  6  1  0  0  0  0
  5 16  1  0  0  0  0
  6  7  1  0  0  0  0
  6 24  1  0  0  0  0
  7  8  2  0  0  0  0
  7  9  1  0  0  0  0
  9 10  1  0  0  0  0
  9 25  1  0  0  0  0
 10 15  1  0  0  0  0
 10 11  1  0  0  0  0
 10 26  1  0  0  0  0
 11 12  1  0  0  0  0
 11 27  1  0  0  0  0
 11 28  1  0  0  0  0
 12 13  1  0  0  0  0
 12 29  1  0  0  0  0
 12 30  1  0  0  0  0
 13 14  1  0  0  0  0
 13 31  1  0  0  0  0
 13 32  1  0  0  0  0
 14 15  1  0  0  0  0
 14 33  1  0  0  0  0
 14 34  1  0  0  0  0
 15 35  1  0  0  0  0
 15 36  1  0  0  0  0
 16 17  2  0  0  0  0
 16 37  1  0  0  0  0
M  END
> <s_m_source_file>
AV-unprocessed.smi

> <i_m_source_file_index>
803

> <i_lp_mmshare_version>
43012

> <i_f3d_flags>
0

> <s_epik_input>
W0NIM11bQ0gyXW4xW2NIXWMoW2NIXW4xKVtOSF1DKD1PKVtOSF1bQ0hdMltDSDJdW0NIMl1bQ0gyXVtDSDJdW0NIMl0y

> <s_epik_cmdline>
J2VwaWtfcHl0aG9uJywgJy1waCcsICc3LjAnLCAnLXRuJywgJzgnLCAnLW1hJywgJzIwMCcsICctbWV0YWxfYmluZGluZycsICctaW1hZScsICc8aW5maWxlLm1hZT4nLCAnLW9tYWUnLCAnPG91dGZpbGUubWFlPic=

> <r_lp_tautomer_probability>
1

> <r_epik_Ionization_Penalty>
0.000191435

> <r_epik_Ionization_Penalty_Charging>
0

> <r_epik_Ionization_Penalty_Neutral>
0.000191435

> <r_epik_State_Penalty>
-0

> <r_epik_Charging_Adjusted_Penalty>
0

> <i_epik_Tot_Q>
0

> <i_epik_Tot_abs_Q>
0

> <r_epik_Metal_State_Penalty>
-0

> <b_epik_Metal_Only>
0

> <s_lp_Force_Field>
OPLS_2005

> <r_lp_Energy>
12.5011

> <b_lp_Chiralities_Consistent>
1

> <s_lp_Variant>
AV-unprocessed.smi:803-1

> <Gold.Version>
5.8.1

> <Gold.Id.Protein>
6NUR|6NUR_protein|mol2

> <Gold.PLP.Fitness>
40.0130

> <Gold.PLP.PLP>
-31.4373

> <Gold.PLP.part.hbond>
-2.0000

> <Gold.PLP.part.metal>
0.0000

> <Gold.PLP.part.buried>
-4.0275

> <Gold.PLP.part.nonpolar>
-26.1798

> <Gold.PLP.part.repulsive>
0.2563

> <Gold.PLP.ligand.clash>
0.0000

> <Gold.PLP.ligand.torsion>
0.2060

> <Gold.PLP.Chemscore.Hbond>
1.9920

> <Gold.PLP.Chemscore.CHOScore>
1.0000

> <Gold.PLP.Chemscore.Metal>
0.0000

> <Gold.Chemscore.Hbonds>
donor molecule, donor type, donor heavy atom, donor atom, acceptor molecule, acceptor atom, score
      L1  H     6    24       P1  7948  1.00
      L1  H     9    25       P1  7948  0.98
      L1  C     4    23       P1  7957  1.00

> <Gold.PLP.Chemscore.Internal.Correction>
0.0117

> <Gold.Rescore>
     Score         DG    S(hbond)    S(metal)    S(lipo)     H(rot)  DE(clash)    DE(int)     intcor
     16.27     -17.58       1.96        0.00      73.06       1.17       0.00       1.30       ----

> <Gold.Chemscore.Fitness>
16.2741

> <Gold.Chemscore.DG>
-17.5750

> <Gold.Chemscore.ZeroCoef>
-5.4800

> <Gold.Chemscore.Hbond>
1.9561

> <Gold.Chemscore.Metal>
0.0000

> <Gold.Chemscore.Lipo>
73.0635

> <Gold.Chemscore.Internal_Hbond>
0.0000

> <Gold.Chemscore.DEClash>
0.0048

> <Gold.Chemscore.DEInternal>
1.2961

> <Gold.Chemscore.Rot>
1.1667

> <Gold.Chemscore.Internal.Correction>
   9.000000E+99

> <Gold.Chemscore.Hbonds>
donor molecule, donor type, donor heavy atom, donor atom, acceptor molecule, acceptor atom, score
      L1  H     6    24       P1  7948  0.98
      L1  H     9    25       P1  7948  0.93

> <Gold.Chemscore.Hbond.Weighted>
-6.5333

> <Gold.Chemscore.Metal.Weighted>
-0.0000

> <Gold.Chemscore.Lipo.Weighted>
-8.5484

> <Gold.Chemscore.Internal_Hbond.Weighted>
0.0000

> <Gold.Chemscore.DEClash.Weighted>
0.0048

> <Gold.Chemscore.DEInternal.Weighted>
1.2961

> <Gold.Chemscore.Rot.Weighted>
2.9867

> <Gold.Chemscore.Internal.Correction.Weighted>
   9.000000E+99

> <Gold.Protein.RotatedTorsions>
[ 6907 6896 6895 6894 ] final  -45.53 input  -60.11 | X-H torsion
[ 7974 7965 7964 7962 ] final  -79.36 input  175.53 | X-H torsion
[ 8008 7997 7996 7995 ] final  133.09 input   59.86 | X-H torsion
[ 10167 10162 10161 10158 ] final  -89.79 input  -65.29 | X-H torsion
[ 10718 10713 10712 10709 ] final   71.47 input   66.30 | X-H torsion
[ 10763 10752 10751 10750 ] final -163.88 input  -60.55 | X-H torsion
[ 11005 11000 10999 10996 ] final  -65.65 input  -57.11 | X-H torsion

> <Gold.Protein.ActiveResidues>
 VAL166  LYS551  ARG553  GLY616  TRP617  ASP618  TYR619  PRO620  LYS621  CYS622 
 ASP623  PHE694  ASN695  SER759  ASP760  ASP761  ALA762  ILE779  LEU786  VAL792 
 PHE793  MET794  SER795  GLU796  ALA797  LYS798  CYS799  TRP800  GLU811  SER814 

> <Gold.Protein.RotatedAtoms>
  150.9210  134.8627  159.7488 H   0  0  0  0  0  0  0  0  0  0  0  0  # atno 6907 bound_to 6896
  152.4992  134.4219  159.9493 H   0  0  0  0  0  0  0  0  0  0  0  0  # atno 6908 bound_to 6896
  151.4253  133.3646  159.2796 H   0  0  0  0  0  0  0  0  0  0  0  0  # atno 6909 bound_to 6896
  145.5743  140.9460  143.1378 H   0  0  0  0  0  0  0  0  0  0  0  0  # atno 7974 bound_to 7965
  156.2989  140.2530  156.3195 H   0  0  0  0  0  0  0  0  0  0  0  0  # atno 8008 bound_to 7997
  154.9248  140.0400  157.2036 H   0  0  0  0  0  0  0  0  0  0  0  0  # atno 8009 bound_to 7997
  154.8275  140.2870  155.5749 H   0  0  0  0  0  0  0  0  0  0  0  0  # atno 8010 bound_to 7997
  140.3614  143.2840  151.9610 H   0  0  0  0  0  0  0  0  0  0  0  0  # atno 10167 bound_to 10162
  157.6453  130.9530  150.0794 H   0  0  0  0  0  0  0  0  0  0  0  0  # atno 10718 bound_to 10713
  154.7081  135.3001  154.9239 H   0  0  0  0  0  0  0  0  0  0  0  0  # atno 10763 bound_to 10752
  154.0150  135.6690  153.4772 H   0  0  0  0  0  0  0  0  0  0  0  0  # atno 10764 bound_to 10752
  153.0733  135.5049  154.8263 H   0  0  0  0  0  0  0  0  0  0  0  0  # atno 10765 bound_to 10752
  141.1460  133.6685  156.6018 H   0  0  0  0  0  0  0  0  0  0  0  0  # atno 11005 bound_to 11000
  144.7423  139.7415  143.7306 LP  0  0  0  0  0  0  0  0  0  0  0  0  # atno 17320 bound_to 7965
  146.1762  139.4933  142.9896 LP  0  0  0  0  0  0  0  0  0  0  0  0  # atno 17321 bound_to 7965
  139.4814  144.5990  151.7640 LP  0  0  0  0  0  0  0  0  0  0  0  0  # atno 17342 bound_to 10162
  140.5124  144.1005  150.5999 LP  0  0  0  0  0  0  0  0  0  0  0  0  # atno 17343 bound_to 10162
  156.1775  130.3648  149.9081 LP  0  0  0  0  0  0  0  0  0  0  0  0  # atno 17370 bound_to 10713
  156.7041  130.8944  151.3602 LP  0  0  0  0  0  0  0  0  0  0  0  0  # atno 17371 bound_to 10713
  140.3682  134.7628  157.4581 LP  0  0  0  0  0  0  0  0  0  0  0  0  # atno 17394 bound_to 11000
  140.0731  134.5835  155.8620 LP  0  0  0  0  0  0  0  0  0  0  0  0  # atno 17395 bound_to 11000

$$$$
