AV-unprocessed.smi:2277|AV-procd|sdf|9178|dock6
  -GOLD-   2272012393D 1   1.00000     0.00000
 Structure written by MMmdl.
 37 38  0  0  0  0  0  0  0  0  1 V2000
  144.1684  134.3817  151.0968 C   0  0  0  0  0  0  0  0  0  0  0  0
  145.0495  135.5654  151.4368 C   0  0  0  0  0  0  0  0  0  0  0  0
  145.2084  136.0000  152.7665 C   0  0  0  0  0  0  0  0  0  0  0  0
  146.0407  137.1067  153.0236 C   0  0  0  0  0  0  0  0  0  0  0  0
  146.6929  137.7516  151.9486 C   0  0  0  0  0  0  0  0  0  0  0  0
  147.5097  138.8543  152.3151 N   0  0  0  0  0  0  0  0  0  0  0  0
  147.4448  139.6012  153.4315 C   0  0  0  0  0  0  0  0  0  0  0  0
  146.6510  139.4330  154.3575 O   0  0  0  0  0  0  0  0  0  0  0  0
  148.3626  140.5798  153.4156 N   0  0  0  0  0  0  0  0  0  0  0  0
  148.5580  141.5722  154.4738 C   0  0  0  0  0  0  0  0  0  0  0  0
  149.7944  141.3449  155.3594 C   0  0  0  0  0  0  0  0  0  0  0  0
  150.5457  140.4043  155.1055 O   0  0  0  0  0  0  0  0  0  0  0  0
  150.0097  142.1876  156.3825 N   0  0  0  0  0  0  0  0  0  0  0  0
  151.1201  142.0925  157.3173 C   0  0  0  0  0  0  0  0  0  0  0  0
  151.1546  143.2075  158.3407 C   0  0  0  0  0  0  0  0  0  0  0  0
  151.9382  144.4710  158.0738 C   0  0  0  0  0  0  0  0  0  0  0  0
  152.4090  143.4995  159.1303 C   0  0  0  0  0  0  0  0  0  0  0  0
  146.5336  137.3246  150.6711 N   0  0  0  0  0  0  0  0  0  0  0  0
  145.7358  136.2642  150.4253 C   0  0  0  0  0  0  0  0  0  0  0  0
  143.6872  133.9761  151.9872 H   0  0  0  0  0  0  0  0  0  0  0  0
  144.7606  133.5897  150.6378 H   0  0  0  0  0  0  0  0  0  0  0  0
  143.3896  134.6798  150.3942 H   0  0  0  0  0  0  0  0  0  0  0  0
  144.7038  135.4973  153.5786 H   0  0  0  0  0  0  0  0  0  0  0  0
  146.1737  137.4535  154.0381 H   0  0  0  0  0  0  0  0  0  0  0  0
  148.2209  139.1080  151.6458 H   0  0  0  0  0  0  0  0  0  0  0  0
  148.9741  140.6465  152.6152 H   0  0  0  0  0  0  0  0  0  0  0  0
  148.6094  142.5731  154.0420 H   0  0  0  0  0  0  0  0  0  0  0  0
  147.6748  141.5593  155.1129 H   0  0  0  0  0  0  0  0  0  0  0  0
  149.3452  142.9325  156.5335 H   0  0  0  0  0  0  0  0  0  0  0  0
  151.0778  141.1315  157.8331 H   0  0  0  0  0  0  0  0  0  0  0  0
  152.0565  142.1116  156.7579 H   0  0  0  0  0  0  0  0  0  0  0  0
  150.2130  143.3445  158.8692 H   0  0  0  0  0  0  0  0  0  0  0  0
  152.5138  144.5268  157.1519 H   0  0  0  0  0  0  0  0  0  0  0  0
  151.5067  145.4110  158.4119 H   0  0  0  0  0  0  0  0  0  0  0  0
  152.2890  143.7902  160.1718 H   0  0  0  0  0  0  0  0  0  0  0  0
  153.2960  142.9083  158.9102 H   0  0  0  0  0  0  0  0  0  0  0  0
  145.6439  135.9659  149.3913 H   0  0  0  0  0  0  0  0  0  0  0  0
  1  2  1  0  0  0  0
  1 20  1  0  0  0  0
  1 21  1  0  0  0  0
  1 22  1  0  0  0  0
  2 19  1  0  0  0  0
  2  3  2  0  0  0  0
  3  4  1  0  0  0  0
  3 23  1  0  0  0  0
  4  5  2  0  0  0  0
  4 24  1  0  0  0  0
  5  6  1  0  0  0  0
  5 18  1  0  0  0  0
  6  7  1  0  0  0  0
  6 25  1  0  0  0  0
  7  8  2  0  0  0  0
  7  9  1  0  0  0  0
  9 10  1  0  0  0  0
  9 26  1  0  0  0  0
 10 11  1  0  0  0  0
 10 27  1  0  0  0  0
 10 28  1  0  0  0  0
 11 12  2  0  0  0  0
 11 13  1  0  0  0  0
 13 14  1  0  0  0  0
 13 29  1  0  0  0  0
 14 15  1  0  0  0  0
 14 30  1  0  0  0  0
 14 31  1  0  0  0  0
 15 17  1  0  0  0  0
 15 16  1  0  0  0  0
 15 32  1  0  0  0  0
 16 17  1  0  0  0  0
 16 33  1  0  0  0  0
 16 34  1  0  0  0  0
 17 35  1  0  0  0  0
 17 36  1  0  0  0  0
 18 19  2  0  0  0  0
 19 37  1  0  0  0  0
M  END
> <s_m_source_file>
AV-unprocessed.smi

> <i_m_source_file_index>
2277

> <i_lp_mmshare_version>
43012

> <i_f3d_flags>
0

> <s_epik_input>
W0NIM11jMVtjSF1bY0hdYyhuW2NIXTEpW05IXUMoPU8pW05IXVtDSDJdQyg9TylbTkhdW0NIMl1bQ0hdMltDSDJdW0NIMl0y

> <s_epik_cmdline>
J2VwaWtfcHl0aG9uJywgJy1waCcsICc3LjAnLCAnLXRuJywgJzgnLCAnLW1hJywgJzIwMCcsICctbWV0YWxfYmluZGluZycsICctaW1hZScsICc8aW5maWxlLm1hZT4nLCAnLW9tYWUnLCAnPG91dGZpbGUubWFlPic=

> <r_lp_tautomer_probability>
1

> <r_epik_Ionization_Penalty>
4.99402e-05

> <r_epik_Ionization_Penalty_Charging>
0

> <r_epik_Ionization_Penalty_Neutral>
4.99402e-05

> <r_epik_State_Penalty>
-0

> <r_epik_Charging_Adjusted_Penalty>
0

> <i_epik_Tot_Q>
0

> <i_epik_Tot_abs_Q>
0

> <r_epik_Metal_State_Penalty>
-0

> <b_epik_Metal_Only>
0

> <s_lp_Force_Field>
OPLS_2005

> <r_lp_Energy>
11.1939

> <b_lp_Chiralities_Consistent>
1

> <s_lp_Variant>
AV-unprocessed.smi:2277-1

> <Gold.Version>
5.8.1

> <Gold.Id.Protein>
6NUR|6NUR_protein|mol2

> <Gold.PLP.Fitness>
53.7373

> <Gold.PLP.PLP>
-36.5447

> <Gold.PLP.part.hbond>
-5.7414

> <Gold.PLP.part.metal>
0.0000

> <Gold.PLP.part.buried>
-1.0319

> <Gold.PLP.part.nonpolar>
-32.8217

> <Gold.PLP.part.repulsive>
2.9982

> <Gold.PLP.ligand.clash>
0.0000

> <Gold.PLP.ligand.torsion>
0.4794

> <Gold.PLP.Chemscore.Hbond>
4.8640

> <Gold.PLP.Chemscore.CHOScore>
1.0000

> <Gold.PLP.Chemscore.Metal>
0.0000

> <Gold.Chemscore.Hbonds>
donor molecule, donor type, donor heavy atom, donor atom, acceptor molecule, acceptor atom, score
      L1  H     6    25       P1  7957  1.00
      L1  H     9    26       P1  7957  1.00
      L1  H    13    29       P1  8028  0.73
      P1  H  7954  7966       L1    18  1.00
      P1  H  7989  7998       L1    12  1.00
      L1  C    19    37       P1  7921  1.00

> <Gold.PLP.Chemscore.Internal.Correction>
0.5596

> <Gold.Rescore>
     Score         DG    S(hbond)    S(metal)    S(lipo)     H(rot)  DE(clash)    DE(int)     intcor
     20.43     -24.15       4.17        0.00      80.09       1.81       1.85       1.87       ----

> <Gold.Chemscore.Fitness>
20.4317

> <Gold.Chemscore.DG>
-24.1530

> <Gold.Chemscore.ZeroCoef>
-5.4800

> <Gold.Chemscore.Hbond>
4.1693

> <Gold.Chemscore.Metal>
0.0000

> <Gold.Chemscore.Lipo>
80.0883

> <Gold.Chemscore.Internal_Hbond>
0.0000

> <Gold.Chemscore.DEClash>
1.8519

> <Gold.Chemscore.DEInternal>
1.8694

> <Gold.Chemscore.Rot>
1.8058

> <Gold.Chemscore.Internal.Correction>
   9.000000E+99

> <Gold.Chemscore.Hbonds>
donor molecule, donor type, donor heavy atom, donor atom, acceptor molecule, acceptor atom, score
      L1  H     6    25       P1  7957  0.88
      L1  H     9    26       P1  7957  0.96
      L1  H    13    29       P1  8028  0.67
      P1  H  7954  7966       L1    18  0.33
      P1  H  7989  7998       L1    12  0.61

> <Gold.Chemscore.Hbond.Weighted>
-13.9256

> <Gold.Chemscore.Metal.Weighted>
-0.0000

> <Gold.Chemscore.Lipo.Weighted>
-9.3703

> <Gold.Chemscore.Internal_Hbond.Weighted>
0.0000

> <Gold.Chemscore.DEClash.Weighted>
1.8519

> <Gold.Chemscore.DEInternal.Weighted>
1.8694

> <Gold.Chemscore.Rot.Weighted>
4.6230

> <Gold.Chemscore.Internal.Correction.Weighted>
   9.000000E+99

> <Gold.Protein.RotatedTorsions>
[ 6907 6896 6895 6894 ] final -173.44 input  -60.11 | X-H torsion
[ 7974 7965 7964 7962 ] final  120.15 input  175.53 | X-H torsion
[ 8008 7997 7996 7995 ] final  -82.53 input   59.86 | X-H torsion
[ 10167 10162 10161 10158 ] final  109.46 input  -65.29 | X-H torsion
[ 10718 10713 10712 10709 ] final   17.43 input   66.30 | X-H torsion
[ 10763 10752 10751 10750 ] final  118.10 input  -60.55 | X-H torsion
[ 11005 11000 10999 10996 ] final  120.89 input  -57.11 | X-H torsion

> <Gold.Protein.ActiveResidues>
 VAL166  LYS551  ARG553  GLY616  TRP617  ASP618  TYR619  PRO620  LYS621  CYS622 
 ASP623  PHE694  ASN695  SER759  ASP760  ASP761  ALA762  ILE779  LEU786  VAL792 
 PHE793  MET794  SER795  GLU796  ALA797  LYS798  CYS799  TRP800  GLU811  SER814 

> <Gold.Protein.RotatedAtoms>
  151.5562  133.3410  159.2962 H   0  0  0  0  0  0  0  0  0  0  0  0  # atno 6907 bound_to 6896
  150.8449  134.7757  159.6973 H   0  0  0  0  0  0  0  0  0  0  0  0  # atno 6908 bound_to 6896
  152.4509  134.5403  159.9889 H   0  0  0  0  0  0  0  0  0  0  0  0  # atno 6909 bound_to 6896
  145.1346  139.3306  143.4647 H   0  0  0  0  0  0  0  0  0  0  0  0  # atno 7974 bound_to 7965
  154.6096  140.0632  156.9476 H   0  0  0  0  0  0  0  0  0  0  0  0  # atno 8008 bound_to 7997
  155.1996  140.3314  155.4327 H   0  0  0  0  0  0  0  0  0  0  0  0  # atno 8009 bound_to 7997
  156.2368  140.1867  156.7080 H   0  0  0  0  0  0  0  0  0  0  0  0  # atno 8010 bound_to 7997
  139.6765  144.7122  151.1593 H   0  0  0  0  0  0  0  0  0  0  0  0  # atno 10167 bound_to 10162
  157.0820  130.6392  149.5828 H   0  0  0  0  0  0  0  0  0  0  0  0  # atno 10718 bound_to 10713
  153.5626  135.3518  155.2805 H   0  0  0  0  0  0  0  0  0  0  0  0  # atno 10763 bound_to 10752
  154.8693  135.4140  154.2814 H   0  0  0  0  0  0  0  0  0  0  0  0  # atno 10764 bound_to 10752
  153.3563  135.7057  153.6817 H   0  0  0  0  0  0  0  0  0  0  0  0  # atno 10765 bound_to 10752
  139.9203  134.9637  156.7875 H   0  0  0  0  0  0  0  0  0  0  0  0  # atno 11005 bound_to 11000
  146.3511  140.1358  142.8596 LP  0  0  0  0  0  0  0  0  0  0  0  0  # atno 17320 bound_to 7965
  145.0598  140.9079  143.4945 LP  0  0  0  0  0  0  0  0  0  0  0  0  # atno 17321 bound_to 7965
  140.7637  143.5764  150.8940 LP  0  0  0  0  0  0  0  0  0  0  0  0  # atno 17342 bound_to 10162
  139.9434  143.6356  152.3048 LP  0  0  0  0  0  0  0  0  0  0  0  0  # atno 17343 bound_to 10162
  155.9921  130.4978  150.7326 LP  0  0  0  0  0  0  0  0  0  0  0  0  # atno 17370 bound_to 10713
  157.4792  131.0901  151.0555 LP  0  0  0  0  0  0  0  0  0  0  0  0  # atno 17371 bound_to 10713
  140.6494  133.9745  155.7747 LP  0  0  0  0  0  0  0  0  0  0  0  0  # atno 17394 bound_to 11000
  141.0718  134.0194  157.3515 LP  0  0  0  0  0  0  0  0  0  0  0  0  # atno 17395 bound_to 11000

$$$$
