AV-unprocessed.smi:195|AV-procd|sdf|1527|dock4
  -GOLD-   2262019373D 1   1.00000     0.00000
 Structure written by MMmdl.
 45 48  0  0  0  0  0  0  0  0  1 V2000
  147.0842  133.9944  163.0210 N   0  0  0  0  0  0  0  0  0  0  0  0
  146.8724  134.5858  162.0494 C   0  0  0  0  0  0  0  0  0  0  0  0
  146.6031  135.3370  160.8130 C   0  0  0  0  0  0  0  0  0  0  0  0
  147.5154  136.5532  160.6290 C   0  0  0  0  0  0  0  0  0  0  0  0
  147.2664  137.3653  161.7572 O   0  0  0  0  0  0  0  0  0  0  0  0
  148.9946  136.2865  160.3349 C   0  0  0  0  0  0  0  0  0  0  0  0
  148.7148  136.5849  158.9329 N   0  0  0  0  0  0  0  0  0  0  0  0
  148.6094  135.4217  158.1072 C   0  0  0  0  0  0  0  0  0  0  0  0
  148.8420  134.1806  158.6143 N   0  0  0  0  0  0  0  0  0  0  0  0
  148.7358  133.0888  157.8513 C   0  0  0  0  0  0  0  0  0  0  0  0
  148.3998  133.0018  156.5642 N   0  0  0  0  0  0  0  0  0  0  0  0
  148.1434  134.2348  156.0447 C   0  0  0  0  0  0  0  0  0  0  0  0
  148.2208  135.4766  156.7374 C   0  0  0  0  0  0  0  0  0  0  0  0
  147.8798  136.5155  155.8787 N   0  0  0  0  0  0  0  0  0  0  0  0
  147.6202  135.9233  154.7449 C   0  0  0  0  0  0  0  0  0  0  0  0
  147.7534  134.5539  154.7570 N   0  0  0  0  0  0  0  0  0  0  0  0
  147.5255  133.6455  153.6477 C   0  0  0  0  0  0  0  0  0  0  0  0
  146.1610  133.8791  152.9709 C   0  0  1  0  0  0  0  0  0  0  0  0
  146.2094  135.0173  152.1317 O   0  0  0  0  0  0  0  0  0  0  0  0
  145.6667  132.6483  152.1850 C   0  0  1  0  0  0  0  0  0  0  0  0
  144.1887  132.6417  151.7856 C   0  0  0  0  0  0  0  0  0  0  0  0
  144.2051  131.6803  150.6185 C   0  0  0  0  0  0  0  0  0  0  0  0
  145.5252  132.0362  149.9387 C   0  0  0  0  0  0  0  0  0  0  0  0
  146.4038  132.4537  150.9804 O   0  0  0  0  0  0  0  0  0  0  0  0
  147.4790  137.2853  159.2835 C   0  0  0  0  0  0  0  0  0  0  0  0
  146.6923  134.6470  159.9732 H   0  0  0  0  0  0  0  0  0  0  0  0
  145.5563  135.6380  160.8507 H   0  0  0  0  0  0  0  0  0  0  0  0
  146.9422  136.7979  162.4398 H   0  0  0  0  0  0  0  0  0  0  0  0
  149.6664  137.0221  160.7794 H   0  0  0  0  0  0  0  0  0  0  0  0
  149.3129  135.2653  160.5479 H   0  0  0  0  0  0  0  0  0  0  0  0
  148.9489  132.1515  158.3441 H   0  0  0  0  0  0  0  0  0  0  0  0
  147.3179  136.4719  153.8647 H   0  0  0  0  0  0  0  0  0  0  0  0
  148.3373  133.7638  152.9291 H   0  0  0  0  0  0  0  0  0  0  0  0
  147.5895  132.6245  154.0258 H   0  0  0  0  0  0  0  0  0  0  0  0
  145.4242  134.0970  153.7449 H   0  0  0  0  0  0  0  0  0  0  0  0
  147.1152  135.2552  152.0057 H   0  0  0  0  0  0  0  0  0  0  0  0
  145.8490  131.7598  152.7918 H   0  0  0  0  0  0  0  0  0  0  0  0
  143.5314  132.3225  152.5948 H   0  0  0  0  0  0  0  0  0  0  0  0
  143.8579  133.6233  151.4449 H   0  0  0  0  0  0  0  0  0  0  0  0
  144.2334  130.6517  150.9806 H   0  0  0  0  0  0  0  0  0  0  0  0
  143.3430  131.7883  149.9600 H   0  0  0  0  0  0  0  0  0  0  0  0
  145.9421  131.2012  149.3756 H   0  0  0  0  0  0  0  0  0  0  0  0
  145.3844  132.8710  149.2513 H   0  0  0  0  0  0  0  0  0  0  0  0
  146.6001  137.0811  158.6725 H   0  0  0  0  0  0  0  0  0  0  0  0
  147.6470  138.3589  159.3790 H   0  0  0  0  0  0  0  0  0  0  0  0
  1  2  3  0  0  0  0
  2  3  1  0  0  0  0
  3  4  1  0  0  0  0
  3 26  1  0  0  0  0
  3 27  1  0  0  0  0
  4 25  1  0  0  0  0
  4  5  1  0  0  0  0
  4  6  1  0  0  0  0
  5 28  1  0  0  0  0
  6  7  1  0  0  0  0
  6 29  1  0  0  0  0
  6 30  1  0  0  0  0
  7  8  1  0  0  0  0
  7 25  1  0  0  0  0
  8 13  1  0  0  0  0
  8  9  2  0  0  0  0
  9 10  1  0  0  0  0
 10 11  2  0  0  0  0
 10 31  1  0  0  0  0
 11 12  1  0  0  0  0
 12 16  1  0  0  0  0
 12 13  2  0  0  0  0
 13 14  1  0  0  0  0
 14 15  2  0  0  0  0
 15 16  1  0  0  0  0
 15 32  1  0  0  0  0
 16 17  1  0  0  0  0
 17 18  1  0  0  0  0
 17 33  1  0  0  0  0
 17 34  1  0  0  0  0
 18 19  1  0  0  0  0
 18 20  1  0  0  0  0
 18 35  1  0  0  0  0
 19 36  1  0  0  0  0
 20 24  1  0  0  0  0
 20 21  1  0  0  0  0
 20 37  1  0  0  0  0
 21 22  1  0  0  0  0
 21 38  1  0  0  0  0
 21 39  1  0  0  0  0
 22 23  1  0  0  0  0
 22 40  1  0  0  0  0
 22 41  1  0  0  0  0
 23 24  1  0  0  0  0
 23 42  1  0  0  0  0
 23 43  1  0  0  0  0
 25 44  1  0  0  0  0
 25 45  1  0  0  0  0
M  END
> <s_m_source_file>
AV-unprocessed.smi

> <i_m_source_file_index>
195

> <i_lp_mmshare_version>
43012

> <i_f3d_flags>
0

> <s_epik_input>
TiNDW0NIMl1DMShbT0hdKVtDSDJdTihbQ0gyXTEpYyhuW2NIXW4yKWMoYzIzKW5bY0hdbjNbQ0gyXVtDQEhdKFtPSF0pW0NAQEhdNFtDSDJdW0NIMl1bQ0gyXU80

> <s_epik_cmdline>
J2VwaWtfcHl0aG9uJywgJy1waCcsICc3LjAnLCAnLXRuJywgJzgnLCAnLW1hJywgJzIwMCcsICctbWV0YWxfYmluZGluZycsICctaW1hZScsICc8aW5maWxlLm1hZT4nLCAnLW9tYWUnLCAnPG91dGZpbGUubWFlPic=

> <r_lp_tautomer_probability>
1

> <r_epik_Ionization_Penalty>
0.00307146

> <r_epik_Ionization_Penalty_Charging>
0

> <r_epik_Ionization_Penalty_Neutral>
0.00307146

> <r_epik_State_Penalty>
0.0020279

> <r_epik_Charging_Adjusted_Penalty>
0.0020279

> <i_epik_Tot_Q>
0

> <i_epik_Tot_abs_Q>
0

> <r_epik_Metal_State_Penalty>
-0

> <b_epik_Metal_Only>
0

> <s_lp_Force_Field>
OPLS_2005

> <r_lp_Energy>
44.2023

> <b_lp_Chiralities_Consistent>
1

> <s_lp_Variant>
AV-unprocessed.smi:195-4

> <Gold.Version>
5.8.1

> <Gold.Id.Protein>
6NUR|6NUR_protein|mol2

> <Gold.PLP.Fitness>
40.9907

> <Gold.PLP.PLP>
-28.7473

> <Gold.PLP.part.hbond>
-4.8675

> <Gold.PLP.part.metal>
0.0000

> <Gold.PLP.part.buried>
-4.1091

> <Gold.PLP.part.nonpolar>
-20.9914

> <Gold.PLP.part.repulsive>
0.8246

> <Gold.PLP.ligand.clash>
0.0000

> <Gold.PLP.ligand.torsion>
0.5627

> <Gold.PLP.Chemscore.Hbond>
3.6073

> <Gold.PLP.Chemscore.CHOScore>
0.7287

> <Gold.PLP.Chemscore.Metal>
0.0000

> <Gold.Chemscore.Hbonds>
donor molecule, donor type, donor heavy atom, donor atom, acceptor molecule, acceptor atom, score
      L1  H    19    36       P1  7948  0.94
      P1  H  6896  6909       L1     9  1.00
      P1  H  6931  6943       L1     5  0.80
      P1  H  6934  6947       L1     5  0.82
      L1  C    15    32       P1  7948  0.56

> <Gold.PLP.Chemscore.Internal.Correction>
0.3608

> <Gold.Rescore>
     Score         DG    S(hbond)    S(metal)    S(lipo)     H(rot)  DE(clash)    DE(int)     intcor
      9.82     -11.38       2.51        0.00      60.30       3.72       0.93       0.63       ----

> <Gold.Chemscore.Fitness>
9.8245

> <Gold.Chemscore.DG>
-11.3766

> <Gold.Chemscore.ZeroCoef>
-5.4800

> <Gold.Chemscore.Hbond>
2.5053

> <Gold.Chemscore.Metal>
0.0000

> <Gold.Chemscore.Lipo>
60.2953

> <Gold.Chemscore.Internal_Hbond>
0.0000

> <Gold.Chemscore.DEClash>
0.9270

> <Gold.Chemscore.DEInternal>
0.6251

> <Gold.Chemscore.Rot>
3.7210

> <Gold.Chemscore.Internal.Correction>
   9.000000E+99

> <Gold.Chemscore.Hbonds>
donor molecule, donor type, donor heavy atom, donor atom, acceptor molecule, acceptor atom, score
      L1  H    19    36       P1  7948  0.90
      P1  H  6896  6909       L1     9  0.38
      P1  H  6931  6943       L1     5  0.20
      P1  H  6934  6947       L1     5  0.24

> <Gold.Chemscore.Hbond.Weighted>
-8.3677

> <Gold.Chemscore.Metal.Weighted>
-0.0000

> <Gold.Chemscore.Lipo.Weighted>
-7.0545

> <Gold.Chemscore.Internal_Hbond.Weighted>
0.0000

> <Gold.Chemscore.DEClash.Weighted>
0.9270

> <Gold.Chemscore.DEInternal.Weighted>
0.6251

> <Gold.Chemscore.Rot.Weighted>
9.5256

> <Gold.Chemscore.Internal.Correction.Weighted>
   9.000000E+99

> <Gold.Protein.RotatedTorsions>
[ 6907 6896 6895 6894 ] final   22.56 input  -60.11 | X-H torsion
[ 7974 7965 7964 7962 ] final  -90.83 input  175.53 | X-H torsion
[ 8008 7997 7996 7995 ] final   30.09 input   59.86 | X-H torsion
[ 10167 10162 10161 10158 ] final  128.47 input  -65.29 | X-H torsion
[ 10718 10713 10712 10709 ] final  -89.47 input   66.30 | X-H torsion
[ 10763 10752 10751 10750 ] final  131.13 input  -60.55 | X-H torsion
[ 11005 11000 10999 10996 ] final -143.17 input  -57.11 | X-H torsion

> <Gold.Protein.ActiveResidues>
 VAL166  LYS551  ARG553  GLY616  TRP617  ASP618  TYR619  PRO620  LYS621  CYS622 
 ASP623  PHE694  ASN695  SER759  ASP760  ASP761  ALA762  ILE779  LEU786  VAL792 
 PHE793  MET794  SER795  GLU796  ALA797  LYS798  CYS799  TRP800  GLU811  SER814 

> <Gold.Protein.RotatedAtoms>
  151.9289  135.0265  160.0527 H   0  0  0  0  0  0  0  0  0  0  0  0  # atno 6907 bound_to 6896
  152.2135  133.4924  159.5131 H   0  0  0  0  0  0  0  0  0  0  0  0  # atno 6908 bound_to 6896
  150.6982  134.1352  159.4127 H   0  0  0  0  0  0  0  0  0  0  0  0  # atno 6909 bound_to 6896
  145.4212  140.9551  143.2180 H   0  0  0  0  0  0  0  0  0  0  0  0  # atno 7974 bound_to 7965
  155.0848  140.3214  155.4591 H   0  0  0  0  0  0  0  0  0  0  0  0  # atno 8008 bound_to 7997
  156.2758  140.2088  156.5921 H   0  0  0  0  0  0  0  0  0  0  0  0  # atno 8009 bound_to 7997
  154.6950  140.0512  157.0388 H   0  0  0  0  0  0  0  0  0  0  0  0  # atno 8010 bound_to 7997
  139.5525  144.6824  151.4280 H   0  0  0  0  0  0  0  0  0  0  0  0  # atno 10167 bound_to 10162
  155.9984  130.4873  150.5175 H   0  0  0  0  0  0  0  0  0  0  0  0  # atno 10718 bound_to 10713
  153.7693  135.3184  155.3349 H   0  0  0  0  0  0  0  0  0  0  0  0  # atno 10763 bound_to 10752
  154.8202  135.4608  154.0760 H   0  0  0  0  0  0  0  0  0  0  0  0  # atno 10764 bound_to 10752
  153.2015  135.6923  153.8310 H   0  0  0  0  0  0  0  0  0  0  0  0  # atno 10765 bound_to 10752
  140.8152  134.2697  157.4924 H   0  0  0  0  0  0  0  0  0  0  0  0  # atno 11005 bound_to 11000
  144.8244  139.5736  143.6972 LP  0  0  0  0  0  0  0  0  0  0  0  0  # atno 17320 bound_to 7965
  146.2655  139.6510  142.9332 LP  0  0  0  0  0  0  0  0  0  0  0  0  # atno 17321 bound_to 7965
  140.6791  143.8122  150.7097 LP  0  0  0  0  0  0  0  0  0  0  0  0  # atno 17342 bound_to 10162
  140.1570  143.4308  152.2093 LP  0  0  0  0  0  0  0  0  0  0  0  0  # atno 17343 bound_to 10162
  157.3141  131.0669  151.1980 LP  0  0  0  0  0  0  0  0  0  0  0  0  # atno 17370 bound_to 10713
  157.2916  130.6799  149.6117 LP  0  0  0  0  0  0  0  0  0  0  0  0  # atno 17371 bound_to 10713
  139.8711  134.9505  156.4057 LP  0  0  0  0  0  0  0  0  0  0  0  0  # atno 17394 bound_to 11000
  140.9157  133.7680  155.9845 LP  0  0  0  0  0  0  0  0  0  0  0  0  # atno 17395 bound_to 11000

$$$$
