AV-unprocessed.smi:1554|AV-procd|sdf|6249|dock10
  -GOLD-   22720 6433D 1   1.00000     0.00000
 Structure written by MMmdl.
 48 50  0  0  0  0  0  0  0  0  2 V2000
  152.4913  143.6547  160.6029 C   0  0  0  0  0  0  0  0  0  0  0  0
  152.2355  142.6000  159.5408 C   0  0  0  0  0  0  0  0  0  0  0  0
  151.6050  142.9789  158.3341 C   0  0  0  0  0  0  0  0  0  0  0  0
  151.3451  142.0283  157.3230 C   0  0  0  0  0  0  0  0  0  0  0  0
  150.7468  142.1733  156.0830 N   0  0  0  0  0  0  0  0  0  0  0  0
  150.7945  140.9299  155.6140 C   0  0  0  0  0  0  0  0  0  0  0  0
  151.3488  139.9933  156.4080 N   0  0  0  0  0  0  0  0  0  0  0  0
  151.5077  138.5789  156.1227 C   0  0  0  0  0  0  0  0  0  0  0  0
  150.7607  138.1552  154.8440 C   0  0  1  0  0  0  0  0  0  0  0  0
  151.2487  136.8981  154.4163 O   0  0  0  0  0  0  0  0  0  0  0  0
  149.2408  138.0474  155.0767 C   0  0  0  0  0  0  0  0  0  0  0  0
  148.4481  138.4411  153.8802 N   0  3  1  0  0  0  0  0  0  0  0  0
  146.9864  138.2532  154.0486 C   0  0  0  0  0  0  0  0  0  0  0  0
  146.3737  139.3885  154.8884 C   0  0  0  0  0  0  0  0  0  0  0  0
  146.6617  140.6387  154.2741 O   0  0  0  0  0  0  0  0  0  0  0  0
  148.0589  140.9003  154.1979 C   0  0  2  0  0  0  0  0  0  0  0  0
  148.2518  142.2925  153.5867 C   0  0  0  0  0  0  0  0  0  0  0  0
  148.7382  139.8001  153.3527 C   0  0  0  0  0  0  0  0  0  0  0  0
  151.7360  140.6772  157.5548 C   0  0  0  0  0  0  0  0  0  0  0  0
  152.3666  140.2880  158.7498 C   0  0  0  0  0  0  0  0  0  0  0  0
  152.6192  141.2507  159.7493 C   0  0  0  0  0  0  0  0  0  0  0  0
  153.2983  140.8202  161.0375 C   0  0  0  0  0  0  0  0  0  0  0  0
  152.1255  144.6328  160.2896 H   0  0  0  0  0  0  0  0  0  0  0  0
  153.5593  143.7456  160.8023 H   0  0  0  0  0  0  0  0  0  0  0  0
  151.9859  143.3905  161.5320 H   0  0  0  0  0  0  0  0  0  0  0  0
  151.3138  144.0068  158.1749 H   0  0  0  0  0  0  0  0  0  0  0  0
  150.3980  140.6844  154.6394 H   0  0  0  0  0  0  0  0  0  0  0  0
  152.5720  138.3526  156.0410 H   0  0  0  0  0  0  0  0  0  0  0  0
  151.1341  138.0190  156.9811 H   0  0  0  0  0  0  0  0  0  0  0  0
  150.9741  138.8843  154.0636 H   0  0  0  0  0  0  0  0  0  0  0  0
  151.0678  136.8040  153.4928 H   0  0  0  0  0  0  0  0  0  0  0  0
  149.0084  137.0154  155.3445 H   0  0  0  0  0  0  0  0  0  0  0  0
  148.9467  138.6523  155.9342 H   0  0  0  0  0  0  0  0  0  0  0  0
  146.5248  138.2480  153.0602 H   0  0  0  0  0  0  0  0  0  0  0  0
  146.7692  137.2802  154.4907 H   0  0  0  0  0  0  0  0  0  0  0  0
  145.2919  139.2678  154.9483 H   0  0  0  0  0  0  0  0  0  0  0  0
  146.7506  139.3732  155.9122 H   0  0  0  0  0  0  0  0  0  0  0  0
  148.4747  140.9138  155.2061 H   0  0  0  0  0  0  0  0  0  0  0  0
  149.3094  142.5493  153.5224 H   0  0  0  0  0  0  0  0  0  0  0  0
  147.7618  143.0558  154.1916 H   0  0  0  0  0  0  0  0  0  0  0  0
  147.8330  142.3459  152.5813 H   0  0  0  0  0  0  0  0  0  0  0  0
  149.8102  139.9782  153.2835 H   0  0  0  0  0  0  0  0  0  0  0  0
  148.3604  139.8468  152.3305 H   0  0  0  0  0  0  0  0  0  0  0  0
  152.6525  139.2571  158.8962 H   0  0  0  0  0  0  0  0  0  0  0  0
  153.5793  139.7671  161.0063 H   0  0  0  0  0  0  0  0  0  0  0  0
  152.6300  140.9645  161.8866 H   0  0  0  0  0  0  0  0  0  0  0  0
  154.2048  141.4015  161.2070 H   0  0  0  0  0  0  0  0  0  0  0  0
  148.7284  137.7868  153.1629 H   0  0  0  0  0  0  0  0  0  0  0  0
  1  2  1  0  0  0  0
  1 23  1  0  0  0  0
  1 24  1  0  0  0  0
  1 25  1  0  0  0  0
  2 21  1  0  0  0  0
  2  3  2  0  0  0  0
  3  4  1  0  0  0  0
  3 26  1  0  0  0  0
  4 19  2  0  0  0  0
  4  5  1  0  0  0  0
  5  6  2  0  0  0  0
  6  7  1  0  0  0  0
  6 27  1  0  0  0  0
  7  8  1  0  0  0  0
  7 19  1  0  0  0  0
  8  9  1  0  0  0  0
  8 28  1  0  0  0  0
  8 29  1  0  0  0  0
  9 10  1  0  0  0  0
  9 11  1  0  0  0  0
  9 30  1  0  0  0  0
 10 31  1  0  0  0  0
 11 12  1  0  0  0  0
 11 32  1  0  0  0  0
 11 33  1  0  0  0  0
 12 18  1  0  0  0  0
 12 13  1  0  0  0  0
 12 48  1  0  0  0  0
 13 14  1  0  0  0  0
 13 34  1  0  0  0  0
 13 35  1  0  0  0  0
 14 15  1  0  0  0  0
 14 36  1  0  0  0  0
 14 37  1  0  0  0  0
 15 16  1  0  0  0  0
 16 17  1  0  0  0  0
 16 18  1  0  0  0  0
 16 38  1  0  0  0  0
 17 39  1  0  0  0  0
 17 40  1  0  0  0  0
 17 41  1  0  0  0  0
 18 42  1  0  0  0  0
 18 43  1  0  0  0  0
 19 20  1  0  0  0  0
 20 21  2  0  0  0  0
 20 44  1  0  0  0  0
 21 22  1  0  0  0  0
 22 45  1  0  0  0  0
 22 46  1  0  0  0  0
 22 47  1  0  0  0  0
M  CHG  1  12   1
M  END
> <s_m_source_file>
AV-unprocessed.smi

> <i_m_source_file_index>
1554

> <i_lp_mmshare_version>
43012

> <i_f3d_flags>
0

> <s_epik_input>
W0NIM11jKFtjSF0xKWMoW0NIM10pW2NIXWMoYzEyKW4oW2NIXW4yKVtDSDJdW0NASF0oW09IXSlbQ0gyXU4zW0NIMl1bQ0gyXU9bQ0BASF0oW0NIM10pW0NIMl0z

> <s_epik_cmdline>
J2VwaWtfcHl0aG9uJywgJy1waCcsICc3LjAnLCAnLXRuJywgJzgnLCAnLW1hJywgJzIwMCcsICctbWV0YWxfYmluZGluZycsICctaW1hZScsICc8aW5maWxlLm1hZT4nLCAnLW9tYWUnLCAnPG91dGZpbGUubWFlPic=

> <r_epik_Ionization_Penalty>
0.695251

> <r_epik_Ionization_Penalty_Charging>
0.608065

> <r_epik_Ionization_Penalty_Neutral>
0.0871863

> <r_epik_State_Penalty>
0.731955

> <r_epik_Charging_Adjusted_Penalty>
1.34002

> <i_epik_Tot_Q>
1

> <i_epik_Tot_abs_Q>
1

> <r_epik_Metal_State_Penalty>
0.652186

> <b_epik_Metal_Only>
0

> <s_lp_Force_Field>
OPLS_2005

> <r_lp_Energy>
22.2934

> <b_lp_Chiralities_Consistent>
1

> <s_lp_Variant>
AV-unprocessed.smi:1554-10

> <Gold.Version>
5.8.1

> <Gold.Id.Protein>
6NUR|6NUR_protein|mol2

> <Gold.PLP.Fitness>
51.7262

> <Gold.PLP.PLP>
-41.0330

> <Gold.PLP.part.hbond>
-3.0000

> <Gold.PLP.part.metal>
0.0000

> <Gold.PLP.part.buried>
-2.5848

> <Gold.PLP.part.nonpolar>
-35.9769

> <Gold.PLP.part.repulsive>
0.5872

> <Gold.PLP.ligand.clash>
0.0000

> <Gold.PLP.ligand.torsion>
0.6563

> <Gold.PLP.Chemscore.Hbond>
3.9750

> <Gold.PLP.Chemscore.CHOScore>
0.0000

> <Gold.PLP.Chemscore.Metal>
0.0000

> <Gold.Chemscore.Hbonds>
donor molecule, donor type, donor heavy atom, donor atom, acceptor molecule, acceptor atom, score
      L1  H    10    31       P1  7949  0.67
      L1  H    12    48       P1  7948  2.00
      P1  H 10752 10765       L1    10  0.59

> <Gold.PLP.Chemscore.Internal.Correction>
0.0808

> <Gold.Rescore>
     Score         DG    S(hbond)    S(metal)    S(lipo)     H(rot)  DE(clash)    DE(int)     intcor
     19.49     -21.10       2.47        0.00     107.96       2.05       0.87       0.74       ----

> <Gold.Chemscore.Fitness>
19.4944

> <Gold.Chemscore.DG>
-21.0990

> <Gold.Chemscore.ZeroCoef>
-5.4800

> <Gold.Chemscore.Hbond>
2.4693

> <Gold.Chemscore.Metal>
0.0000

> <Gold.Chemscore.Lipo>
107.9591

> <Gold.Chemscore.Internal_Hbond>
0.0000

> <Gold.Chemscore.DEClash>
0.8676

> <Gold.Chemscore.DEInternal>
0.7370

> <Gold.Chemscore.Rot>
2.0546

> <Gold.Chemscore.Internal.Correction>
   9.000000E+99

> <Gold.Chemscore.Hbonds>
donor molecule, donor type, donor heavy atom, donor atom, acceptor molecule, acceptor atom, score
      L1  H    10    31       P1  7949  0.23
      L1  H    12    48       P1  7948  0.94
      P1  H 10752 10765       L1    10  0.06

> <Gold.Chemscore.Hbond.Weighted>
-8.2474

> <Gold.Chemscore.Metal.Weighted>
-0.0000

> <Gold.Chemscore.Lipo.Weighted>
-12.6312

> <Gold.Chemscore.Internal_Hbond.Weighted>
0.0000

> <Gold.Chemscore.DEClash.Weighted>
0.8676

> <Gold.Chemscore.DEInternal.Weighted>
0.7370

> <Gold.Chemscore.Rot.Weighted>
5.2597

> <Gold.Chemscore.Internal.Correction.Weighted>
   9.000000E+99

> <Gold.Protein.RotatedTorsions>
[ 6907 6896 6895 6894 ] final   43.97 input  -60.11 | X-H torsion
[ 7974 7965 7964 7962 ] final -146.41 input  175.53 | X-H torsion
[ 8008 7997 7996 7995 ] final -125.68 input   59.86 | X-H torsion
[ 10167 10162 10161 10158 ] final   30.64 input  -65.29 | X-H torsion
[ 10718 10713 10712 10709 ] final -113.18 input   66.30 | X-H torsion
[ 10763 10752 10751 10750 ] final  167.69 input  -60.55 | X-H torsion
[ 11005 11000 10999 10996 ] final   33.05 input  -57.11 | X-H torsion

> <Gold.Protein.ActiveResidues>
 VAL166  LYS551  ARG553  GLY616  TRP617  ASP618  TYR619  PRO620  LYS621  CYS622 
 ASP623  PHE694  ASN695  SER759  ASP760  ASP761  ALA762  ILE779  LEU786  VAL792 
 PHE793  MET794  SER795  GLU796  ALA797  LYS798  CYS799  TRP800  GLU811  SER814 

> <Gold.Protein.RotatedAtoms>
  152.2268  134.8360  160.0478 H   0  0  0  0  0  0  0  0  0  0  0  0  # atno 6907 bound_to 6896
  151.9124  133.3559  159.3876 H   0  0  0  0  0  0  0  0  0  0  0  0  # atno 6908 bound_to 6896
  150.7014  134.4644  159.5440 H   0  0  0  0  0  0  0  0  0  0  0  0  # atno 6909 bound_to 6896
  144.8161  140.5459  143.5610 H   0  0  0  0  0  0  0  0  0  0  0  0  # atno 7974 bound_to 7965
  155.2173  140.0421  157.2943 H   0  0  0  0  0  0  0  0  0  0  0  0  # atno 8008 bound_to 7997
  154.5972  140.2442  155.7811 H   0  0  0  0  0  0  0  0  0  0  0  0  # atno 8009 bound_to 7997
  156.2298  140.2942  156.0168 H   0  0  0  0  0  0  0  0  0  0  0  0  # atno 8010 bound_to 7997
  140.4660  144.0835  150.6224 H   0  0  0  0  0  0  0  0  0  0  0  0  # atno 10167 bound_to 10162
  156.0751  130.5959  150.8608 H   0  0  0  0  0  0  0  0  0  0  0  0  # atno 10718 bound_to 10713
  154.3576  135.2753  155.2338 H   0  0  0  0  0  0  0  0  0  0  0  0  # atno 10763 bound_to 10752
  154.4540  135.5924  153.6214 H   0  0  0  0  0  0  0  0  0  0  0  0  # atno 10764 bound_to 10752
  152.9845  135.6049  154.3793 H   0  0  0  0  0  0  0  0  0  0  0  0  # atno 10765 bound_to 10752
  140.2672  134.3124  155.7839 H   0  0  0  0  0  0  0  0  0  0  0  0  # atno 11005 bound_to 11000
  145.5211  139.1476  143.3552 LP  0  0  0  0  0  0  0  0  0  0  0  0  # atno 17320 bound_to 7965
  146.2464  140.5352  142.8912 LP  0  0  0  0  0  0  0  0  0  0  0  0  # atno 17321 bound_to 7965
  140.4036  143.2692  151.9918 LP  0  0  0  0  0  0  0  0  0  0  0  0  # atno 17342 bound_to 10162
  139.4812  144.5977  151.7662 LP  0  0  0  0  0  0  0  0  0  0  0  0  # atno 17343 bound_to 10162
  157.5842  131.0946  150.9223 LP  0  0  0  0  0  0  0  0  0  0  0  0  # atno 17370 bound_to 10713
  156.9412  130.5385  149.5280 LP  0  0  0  0  0  0  0  0  0  0  0  0  # atno 17371 bound_to 10713
  141.2182  133.7445  156.9278 LP  0  0  0  0  0  0  0  0  0  0  0  0  # atno 17394 bound_to 11000
  140.1408  134.9295  157.2464 LP  0  0  0  0  0  0  0  0  0  0  0  0  # atno 17395 bound_to 11000

$$$$
