AV-unprocessed.smi:15|AV-procd|sdf|81|dock1
  -GOLD-   2262015213D 1   1.00000     0.00000
 Structure written by MMmdl.
 53 56  0  0  0  0  0  0  0  0  1 V2000
  150.3516  139.7693  154.5125 C   0  0  0  0  0  0  0  0  0  0  0  0
  149.5467  140.0599  155.7865 C   0  0  0  0  0  0  0  0  0  0  0  0
  150.3895  140.2555  156.9699 N   0  0  0  0  0  0  0  0  0  0  0  0
  151.6030  141.0700  156.8607 C   0  0  0  0  0  0  0  0  0  0  0  0
  151.5152  142.4004  157.6307 C   0  0  2  0  0  0  0  0  0  0  0  0
  152.3193  143.5265  156.9869 C   0  0  0  0  0  0  0  0  0  0  0  0
  152.5779  144.4785  158.1435 C   0  0  0  0  0  0  0  0  0  0  0  0
  152.3335  143.6216  159.3894 C   0  0  0  0  0  0  0  0  0  0  0  0
  152.1353  142.3014  158.9029 O   0  0  0  0  0  0  0  0  0  0  0  0
  150.4963  139.2037  157.8241 C   0  0  0  0  0  0  0  0  0  0  0  0
  151.7252  138.8050  158.2502 N   0  0  0  0  0  0  0  0  0  0  0  0
  151.8462  137.7940  159.1151 C   0  0  0  0  0  0  0  0  0  0  0  0
  150.8865  137.0528  159.6706 N   0  0  0  0  0  0  0  0  0  0  0  0
  149.6516  137.4380  159.2394 C   0  0  0  0  0  0  0  0  0  0  0  0
  149.3684  138.4956  158.3288 C   0  0  0  0  0  0  0  0  0  0  0  0
  147.9958  138.5918  158.1309 N   0  0  0  0  0  0  0  0  0  0  0  0
  147.4970  137.6546  158.8896 C   0  0  0  0  0  0  0  0  0  0  0  0
  148.4211  136.9041  159.5806 N   0  0  0  0  0  0  0  0  0  0  0  0
  148.1434  135.8025  160.4898 C   0  0  0  0  0  0  0  0  0  0  0  0
  147.4790  136.2267  161.8278 C   0  0  2  0  0  0  0  0  0  0  0  0
  148.2481  137.2694  162.4010 O   0  0  0  0  0  0  0  0  0  0  0  0
  147.3509  135.0963  162.8431 C   0  0  0  0  0  0  0  0  0  0  0  0
  146.0537  134.4284  162.4158 C   0  0  0  0  0  0  0  0  0  0  0  0
  145.2147  135.5187  162.0652 O   0  0  0  0  0  0  0  0  0  0  0  0
  145.9963  136.6244  161.6096 C   0  0  1  0  0  0  0  0  0  0  0  0
  145.5126  137.8575  162.3924 C   0  0  0  0  0  0  0  0  0  0  0  0
  149.6905  139.7194  153.6472 H   0  0  0  0  0  0  0  0  0  0  0  0
  150.8756  138.8157  154.5732 H   0  0  0  0  0  0  0  0  0  0  0  0
  151.0873  140.5515  154.3237 H   0  0  0  0  0  0  0  0  0  0  0  0
  148.9587  140.9624  155.6128 H   0  0  0  0  0  0  0  0  0  0  0  0
  148.8340  139.2554  155.9696 H   0  0  0  0  0  0  0  0  0  0  0  0
  152.4668  140.4985  157.1986 H   0  0  0  0  0  0  0  0  0  0  0  0
  151.8029  141.2867  155.8123 H   0  0  0  0  0  0  0  0  0  0  0  0
  150.4783  142.7198  157.7528 H   0  0  0  0  0  0  0  0  0  0  0  0
  153.2688  143.1424  156.6107 H   0  0  0  0  0  0  0  0  0  0  0  0
  151.7939  143.9987  156.1563 H   0  0  0  0  0  0  0  0  0  0  0  0
  153.5935  144.8736  158.1102 H   0  0  0  0  0  0  0  0  0  0  0  0
  151.8871  145.3221  158.1222 H   0  0  0  0  0  0  0  0  0  0  0  0
  153.1665  143.6558  160.0918 H   0  0  0  0  0  0  0  0  0  0  0  0
  151.4341  143.9514  159.9113 H   0  0  0  0  0  0  0  0  0  0  0  0
  152.8562  137.5450  159.4049 H   0  0  0  0  0  0  0  0  0  0  0  0
  146.4335  137.4774  158.9596 H   0  0  0  0  0  0  0  0  0  0  0  0
  147.5064  135.0864  159.9687 H   0  0  0  0  0  0  0  0  0  0  0  0
  149.0825  135.2812  160.6793 H   0  0  0  0  0  0  0  0  0  0  0  0
  148.3772  137.0780  163.3172 H   0  0  0  0  0  0  0  0  0  0  0  0
  148.1969  134.4118  162.8749 H   0  0  0  0  0  0  0  0  0  0  0  0
  147.2229  135.5006  163.8487 H   0  0  0  0  0  0  0  0  0  0  0  0
  146.2100  133.7931  161.5432 H   0  0  0  0  0  0  0  0  0  0  0  0
  145.6112  133.8216  163.2057 H   0  0  0  0  0  0  0  0  0  0  0  0
  145.7938  136.7837  160.5495 H   0  0  0  0  0  0  0  0  0  0  0  0
  146.0320  138.7613  162.0723 H   0  0  0  0  0  0  0  0  0  0  0  0
  145.6717  137.7356  163.4642 H   0  0  0  0  0  0  0  0  0  0  0  0
  144.4465  138.0216  162.2341 H   0  0  0  0  0  0  0  0  0  0  0  0
  1  2  1  0  0  0  0
  1 27  1  0  0  0  0
  1 28  1  0  0  0  0
  1 29  1  0  0  0  0
  2  3  1  0  0  0  0
  2 30  1  0  0  0  0
  2 31  1  0  0  0  0
  3  4  1  0  0  0  0
  3 10  1  0  0  0  0
  4  5  1  0  0  0  0
  4 32  1  0  0  0  0
  4 33  1  0  0  0  0
  5  9  1  0  0  0  0
  5  6  1  0  0  0  0
  5 34  1  0  0  0  0
  6  7  1  0  0  0  0
  6 35  1  0  0  0  0
  6 36  1  0  0  0  0
  7  8  1  0  0  0  0
  7 37  1  0  0  0  0
  7 38  1  0  0  0  0
  8  9  1  0  0  0  0
  8 39  1  0  0  0  0
  8 40  1  0  0  0  0
 10 15  1  0  0  0  0
 10 11  2  0  0  0  0
 11 12  1  0  0  0  0
 12 13  2  0  0  0  0
 12 41  1  0  0  0  0
 13 14  1  0  0  0  0
 14 18  1  0  0  0  0
 14 15  2  0  0  0  0
 15 16  1  0  0  0  0
 16 17  2  0  0  0  0
 17 18  1  0  0  0  0
 17 42  1  0  0  0  0
 18 19  1  0  0  0  0
 19 20  1  0  0  0  0
 19 43  1  0  0  0  0
 19 44  1  0  0  0  0
 20 25  1  0  0  0  0
 20 21  1  0  0  0  0
 20 22  1  0  0  0  0
 21 45  1  0  0  0  0
 22 23  1  0  0  0  0
 22 46  1  0  0  0  0
 22 47  1  0  0  0  0
 23 24  1  0  0  0  0
 23 48  1  0  0  0  0
 23 49  1  0  0  0  0
 24 25  1  0  0  0  0
 25 26  1  0  0  0  0
 25 50  1  0  0  0  0
 26 51  1  0  0  0  0
 26 52  1  0  0  0  0
 26 53  1  0  0  0  0
M  END
> <s_m_source_file>
AV-unprocessed.smi

> <i_m_source_file_index>
15

> <i_lp_mmshare_version>
43012

> <i_f3d_flags>
0

> <s_epik_input>
TzFbQ0gyXVtDSDJdW0NIMl1bQ0BIXTFbQ0gyXU4oW0NIMl1bQ0gzXSljKG5bY0hdbjIpYyhjMjMpbltjSF1uM1tDSDJdW0NAQF00KFtPSF0pW0NIMl1bQ0gyXU9bQ0BIXTRbQ0gzXQ==

> <s_epik_cmdline>
J2VwaWtfcHl0aG9uJywgJy1waCcsICc3LjAnLCAnLXRuJywgJzgnLCAnLW1hJywgJzIwMCcsICctbWV0YWxfYmluZGluZycsICctaW1hZScsICc8aW5maWxlLm1hZT4nLCAnLW9tYWUnLCAnPG91dGZpbGUubWFlPic=

> <r_lp_tautomer_probability>
1

> <r_epik_Ionization_Penalty>
0.00360814

> <r_epik_Ionization_Penalty_Charging>
0

> <r_epik_Ionization_Penalty_Neutral>
0.00360814

> <r_epik_State_Penalty>
0.00237482

> <r_epik_Charging_Adjusted_Penalty>
0.00237482

> <i_epik_Tot_Q>
0

> <i_epik_Tot_abs_Q>
0

> <r_epik_Metal_State_Penalty>
-0

> <b_epik_Metal_Only>
0

> <s_lp_Force_Field>
OPLS_2005

> <r_lp_Energy>
47.2651

> <b_lp_Chiralities_Consistent>
1

> <s_lp_Variant>
AV-unprocessed.smi:15-3

> <Gold.Version>
5.8.1

> <Gold.Id.Protein>
6NUR|6NUR_protein|mol2

> <Gold.PLP.Fitness>
51.4795

> <Gold.PLP.PLP>
-47.3328

> <Gold.PLP.part.hbond>
-2.6446

> <Gold.PLP.part.metal>
0.0000

> <Gold.PLP.part.buried>
-7.5736

> <Gold.PLP.part.nonpolar>
-38.3629

> <Gold.PLP.part.repulsive>
0.0000

> <Gold.PLP.ligand.clash>
0.0000

> <Gold.PLP.ligand.torsion>
1.5069

> <Gold.PLP.Chemscore.Hbond>
2.0000

> <Gold.PLP.Chemscore.CHOScore>
0.0000

> <Gold.PLP.Chemscore.Metal>
0.0000

> <Gold.Chemscore.Hbonds>
donor molecule, donor type, donor heavy atom, donor atom, acceptor molecule, acceptor atom, score
      P1  H  6896  6908       L1    13  1.00
      P1  H  6931  6943       L1    21  0.50

> <Gold.PLP.Chemscore.Internal.Correction>
1.1604

> <Gold.Rescore>
     Score         DG    S(hbond)    S(metal)    S(lipo)     H(rot)  DE(clash)    DE(int)     intcor
     16.09     -17.73       1.82        0.00     106.31       2.44       0.30       1.33       ----

> <Gold.Chemscore.Fitness>
16.0944

> <Gold.Chemscore.DG>
-17.7271

> <Gold.Chemscore.ZeroCoef>
-5.4800

> <Gold.Chemscore.Hbond>
1.8155

> <Gold.Chemscore.Metal>
0.0000

> <Gold.Chemscore.Lipo>
106.3070

> <Gold.Chemscore.Internal_Hbond>
0.0000

> <Gold.Chemscore.DEClash>
0.2979

> <Gold.Chemscore.DEInternal>
1.3347

> <Gold.Chemscore.Rot>
2.4431

> <Gold.Chemscore.Internal.Correction>
   9.000000E+99

> <Gold.Chemscore.Hbonds>
donor molecule, donor type, donor heavy atom, donor atom, acceptor molecule, acceptor atom, score
      P1  H  6896  6908       L1    13  0.88
      P1  H  6931  6943       L1    21  0.40

> <Gold.Chemscore.Hbond.Weighted>
-6.0636

> <Gold.Chemscore.Metal.Weighted>
-0.0000

> <Gold.Chemscore.Lipo.Weighted>
-12.4379

> <Gold.Chemscore.Internal_Hbond.Weighted>
0.0000

> <Gold.Chemscore.DEClash.Weighted>
0.2979

> <Gold.Chemscore.DEInternal.Weighted>
1.3347

> <Gold.Chemscore.Rot.Weighted>
6.2544

> <Gold.Chemscore.Internal.Correction.Weighted>
   9.000000E+99

> <Gold.Protein.RotatedTorsions>
[ 6907 6896 6895 6894 ] final -145.17 input  -60.11 | X-H torsion
[ 7974 7965 7964 7962 ] final  -93.03 input  175.53 | X-H torsion
[ 8008 7997 7996 7995 ] final -109.26 input   59.86 | X-H torsion
[ 10167 10162 10161 10158 ] final -172.19 input  -65.29 | X-H torsion
[ 10718 10713 10712 10709 ] final  -86.61 input   66.30 | X-H torsion
[ 10763 10752 10751 10750 ] final   85.78 input  -60.55 | X-H torsion
[ 11005 11000 10999 10996 ] final -106.19 input  -57.11 | X-H torsion

> <Gold.Protein.ActiveResidues>
 VAL166  LYS551  ARG553  GLY616  TRP617  ASP618  TYR619  PRO620  LYS621  CYS622 
 ASP623  PHE694  ASN695  SER759  ASP760  ASP761  ALA762  ILE779  LEU786  VAL792 
 PHE793  MET794  SER795  GLU796  ALA797  LYS798  CYS799  TRP800  GLU811  SER814 

> <Gold.Protein.RotatedAtoms>
  151.1241  133.5083  159.2600 H   0  0  0  0  0  0  0  0  0  0  0  0  # atno 6907 bound_to 6896
  151.1829  135.0368  159.8810 H   0  0  0  0  0  0  0  0  0  0  0  0  # atno 6908 bound_to 6896
  152.5457  134.1091  159.8404 H   0  0  0  0  0  0  0  0  0  0  0  0  # atno 6909 bound_to 6896
  145.3920  140.9529  143.2335 H   0  0  0  0  0  0  0  0  0  0  0  0  # atno 7974 bound_to 7965
  154.9567  140.0400  157.2170 H   0  0  0  0  0  0  0  0  0  0  0  0  # atno 8008 bound_to 7997
  154.7927  140.2838  155.5957 H   0  0  0  0  0  0  0  0  0  0  0  0  # atno 8009 bound_to 7997
  156.2952  140.2570  156.2778 H   0  0  0  0  0  0  0  0  0  0  0  0  # atno 8010 bound_to 7997
  139.5759  144.1534  152.1449 H   0  0  0  0  0  0  0  0  0  0  0  0  # atno 10167 bound_to 10162
  155.9989  130.4771  150.4741 H   0  0  0  0  0  0  0  0  0  0  0  0  # atno 10718 bound_to 10713
  153.1507  135.4604  154.9632 H   0  0  0  0  0  0  0  0  0  0  0  0  # atno 10763 bound_to 10752
  154.7822  135.3192  154.7966 H   0  0  0  0  0  0  0  0  0  0  0  0  # atno 10764 bound_to 10752
  153.8472  135.6925  153.4850 H   0  0  0  0  0  0  0  0  0  0  0  0  # atno 10765 bound_to 10752
  141.1017  133.8872  157.1826 H   0  0  0  0  0  0  0  0  0  0  0  0  # atno 11005 bound_to 11000
  144.8434  139.5436  143.6890 LP  0  0  0  0  0  0  0  0  0  0  0  0  # atno 17320 bound_to 7965
  146.2793  139.6835  142.9240 LP  0  0  0  0  0  0  0  0  0  0  0  0  # atno 17321 bound_to 7965
  140.1077  144.5484  150.6946 LP  0  0  0  0  0  0  0  0  0  0  0  0  # atno 17342 bound_to 10162
  140.7041  143.2455  151.4778 LP  0  0  0  0  0  0  0  0  0  0  0  0  # atno 17343 bound_to 10162
  157.2753  131.0595  151.2233 LP  0  0  0  0  0  0  0  0  0  0  0  0  # atno 17370 bound_to 10713
  157.3299  130.6980  149.6318 LP  0  0  0  0  0  0  0  0  0  0  0  0  # atno 17371 bound_to 10713
  139.9870  135.0078  156.9887 LP  0  0  0  0  0  0  0  0  0  0  0  0  # atno 17394 bound_to 11000
  140.5006  134.1101  155.7250 LP  0  0  0  0  0  0  0  0  0  0  0  0  # atno 17395 bound_to 11000

$$$$
