AV-unprocessed.smi:72|AV-procd|sdf|668|dock4
  -GOLD-   2262016573D 1   1.00000     0.00000
 Structure written by MMmdl.
 29 30  0  0  0  0  0  0  0  0  1 V2000
  145.2227  142.3337  154.4407 N   0  0  0  0  0  0  0  0  0  0  0  0
  146.3023  141.6453  154.3283 C   0  0  0  0  0  0  0  0  0  0  0  0
  147.5003  141.8986  155.0131 N   0  0  0  0  0  0  0  0  0  0  0  0
  148.5163  141.1197  154.8016 C   0  0  0  0  0  0  0  0  0  0  0  0
  148.4509  139.9913  153.8827 N   0  0  0  0  0  0  0  0  0  0  0  0
  149.6363  139.0761  153.6281 C   0  0  1  0  0  0  0  0  0  0  0  0
  150.8076  139.6573  154.1249 O   0  0  0  0  0  0  0  0  0  0  0  0
  151.2347  138.9733  155.2992 C   0  0  2  0  0  0  0  0  0  0  0  0
  152.7326  139.2036  155.5632 C   0  0  0  0  0  0  0  0  0  0  0  0
  153.0638  138.7722  156.8657 O   0  0  0  0  0  0  0  0  0  0  0  0
  150.8242  137.5234  155.0167 C   0  0  2  0  0  0  0  0  0  0  0  0
  151.7674  136.8788  154.1796 O   0  0  0  0  0  0  0  0  0  0  0  0
  149.4938  137.6834  154.2923 C   0  0  1  0  0  0  0  0  0  0  0  0
  148.4303  137.5960  155.2252 O   0  0  0  0  0  0  0  0  0  0  0  0
  147.2480  139.7234  153.1850 C   0  0  0  0  0  0  0  0  0  0  0  0
  147.1363  138.7779  152.4049 O   0  0  0  0  0  0  0  0  0  0  0  0
  146.2239  140.5663  153.4379 N   0  0  0  0  0  0  0  0  0  0  0  0
  149.7337  139.0236  152.5423 H   0  0  0  0  0  0  0  0  0  0  0  0
  150.6496  139.3247  156.1510 H   0  0  0  0  0  0  0  0  0  0  0  0
  150.7361  136.9394  155.9342 H   0  0  0  0  0  0  0  0  0  0  0  0
  149.3425  136.9218  153.5261 H   0  0  0  0  0  0  0  0  0  0  0  0
  144.4983  141.9560  153.8479 H   0  0  0  0  0  0  0  0  0  0  0  0
  149.4745  141.2670  155.2989 H   0  0  0  0  0  0  0  0  0  0  0  0
  153.3318  138.6198  154.8640 H   0  0  0  0  0  0  0  0  0  0  0  0
  153.0042  140.2515  155.4316 H   0  0  0  0  0  0  0  0  0  0  0  0
  152.3980  139.0778  157.4626 H   0  0  0  0  0  0  0  0  0  0  0  0
  151.4023  136.8118  153.3109 H   0  0  0  0  0  0  0  0  0  0  0  0
  147.9393  136.8091  155.0440 H   0  0  0  0  0  0  0  0  0  0  0  0
  145.3534  140.3986  152.9552 H   0  0  0  0  0  0  0  0  0  0  0  0
  1  2  2  0  0  0  0
  1 22  1  0  0  0  0
  2 17  1  0  0  0  0
  2  3  1  0  0  0  0
  3  4  2  0  0  0  0
  4  5  1  0  0  0  0
  4 23  1  0  0  0  0
  5  6  1  0  0  0  0
  5 15  1  0  0  0  0
  6 18  1  0  0  0  0
  6 13  1  0  0  0  0
  6  7  1  0  0  0  0
  7  8  1  0  0  0  0
  8 19  1  0  0  0  0
  8  9  1  0  0  0  0
  8 11  1  0  0  0  0
  9 10  1  0  0  0  0
  9 24  1  0  0  0  0
  9 25  1  0  0  0  0
 10 26  1  0  0  0  0
 11 20  1  0  0  0  0
 11 12  1  0  0  0  0
 11 13  1  0  0  0  0
 12 27  1  0  0  0  0
 13 21  1  0  0  0  0
 13 14  1  0  0  0  0
 14 28  1  0  0  0  0
 15 16  2  0  0  0  0
 15 17  1  0  0  0  0
 17 29  1  0  0  0  0
M  END
> <s_m_source_file>
AV-unprocessed.smi

> <i_m_source_file_index>
72

> <i_lp_mmshare_version>
43012

> <i_f3d_flags>
0

> <s_epik_input>
W05IMl1jMW5bY0hdbihjKD1PKW4xKVtDQEBIXTJPW0NASF0oW0NIMl1bT0hdKVtDQEBIXShbT0hdKVtDQEhdMltPSF0=

> <s_epik_cmdline>
J2VwaWtfcHl0aG9uJywgJy1waCcsICc3LjAnLCAnLXRuJywgJzgnLCAnLW1hJywgJzIwMCcsICctbWV0YWxfYmluZGluZycsICctaW1hZScsICc8aW5maWxlLm1hZT4nLCAnLW9tYWUnLCAnPG91dGZpbGUubWFlPic=

> <r_lp_tautomer_probability>
7.17554e-07

> <r_epik_Ionization_Penalty>
0.0066451

> <r_epik_Ionization_Penalty_Charging>
0.00663793

> <r_epik_Ionization_Penalty_Neutral>
7.17052e-06

> <r_epik_State_Penalty>
0.419231

> <r_epik_Charging_Adjusted_Penalty>
0.425868

> <i_epik_Tot_Q>
0

> <i_epik_Tot_abs_Q>
0

> <r_epik_Metal_State_Penalty>
1.44144

> <b_epik_Metal_Only>
0

> <s_epik_Chemistry_Notes>
This compound contains an acetal/aminal-like group ( X-CH(R)-Y where X, Y are N, S, or O) that may be acid/base labile, releasing an aldehyde.

> <s_lp_Force_Field>
OPLS_2005

> <r_lp_Energy>
43.5158

> <b_lp_Chiralities_Consistent>
1

> <s_lp_Variant>
AV-unprocessed.smi:72-6

> <Gold.Version>
5.8.1

> <Gold.Id.Protein>
6NUR|6NUR_protein|mol2

> <Gold.PLP.Fitness>
35.7045

> <Gold.PLP.PLP>
-19.7579

> <Gold.PLP.part.hbond>
-5.8328

> <Gold.PLP.part.metal>
0.0000

> <Gold.PLP.part.buried>
3.3028

> <Gold.PLP.part.nonpolar>
-18.9462

> <Gold.PLP.part.repulsive>
0.7498

> <Gold.PLP.ligand.clash>
0.0000

> <Gold.PLP.ligand.torsion>
0.4396

> <Gold.PLP.Chemscore.Hbond>
5.5850

> <Gold.PLP.Chemscore.CHOScore>
0.0000

> <Gold.PLP.Chemscore.Metal>
0.0000

> <Gold.Chemscore.Hbonds>
donor molecule, donor type, donor heavy atom, donor atom, acceptor molecule, acceptor atom, score
      L1  H     1    22       P1 10175  0.26
      L1  H    12    27       P1  7949  1.00
      L1  H    17    29       P1 10175  1.00
      P1  H  7989  7998       L1     7  1.00
      P1  H  7997  8010       L1    10  0.35
      P1  H 10752 10765       L1    12  1.00

> <Gold.PLP.Chemscore.Internal.Correction>
0.0709

> <Gold.Rescore>
     Score         DG    S(hbond)    S(metal)    S(lipo)     H(rot)  DE(clash)    DE(int)     intcor
      8.34     -10.13       3.58        0.00      26.40       4.06       1.14       0.65       ----

> <Gold.Chemscore.Fitness>
8.3357

> <Gold.Chemscore.DG>
-10.1284

> <Gold.Chemscore.ZeroCoef>
-5.4800

> <Gold.Chemscore.Hbond>
3.5787

> <Gold.Chemscore.Metal>
0.0000

> <Gold.Chemscore.Lipo>
26.4042

> <Gold.Chemscore.Internal_Hbond>
0.0000

> <Gold.Chemscore.DEClash>
1.1421

> <Gold.Chemscore.DEInternal>
0.6506

> <Gold.Chemscore.Rot>
4.0600

> <Gold.Chemscore.Internal.Correction>
   9.000000E+99

> <Gold.Chemscore.Hbonds>
donor molecule, donor type, donor heavy atom, donor atom, acceptor molecule, acceptor atom, score
      L1  H     1    22       P1 10175  0.01
      L1  H    12    27       P1  7949  0.77
      L1  H    17    29       P1 10175  0.92
      P1  H  7989  7998       L1     7  0.97
      P1  H 10752 10765       L1    12  0.73

> <Gold.Chemscore.Hbond.Weighted>
-11.9527

> <Gold.Chemscore.Metal.Weighted>
-0.0000

> <Gold.Chemscore.Lipo.Weighted>
-3.0893

> <Gold.Chemscore.Internal_Hbond.Weighted>
0.0000

> <Gold.Chemscore.DEClash.Weighted>
1.1421

> <Gold.Chemscore.DEInternal.Weighted>
0.6506

> <Gold.Chemscore.Rot.Weighted>
10.3936

> <Gold.Chemscore.Internal.Correction.Weighted>
   9.000000E+99

> <Gold.Protein.RotatedTorsions>
[ 6907 6896 6895 6894 ] final  -75.64 input  -60.11 | X-H torsion
[ 7974 7965 7964 7962 ] final  -29.42 input  175.53 | X-H torsion
[ 8008 7997 7996 7995 ] final   46.42 input   59.86 | X-H torsion
[ 10167 10162 10161 10158 ] final   48.44 input  -65.29 | X-H torsion
[ 10718 10713 10712 10709 ] final  -96.61 input   66.30 | X-H torsion
[ 10763 10752 10751 10750 ] final  171.16 input  -60.55 | X-H torsion
[ 11005 11000 10999 10996 ] final -162.15 input  -57.11 | X-H torsion

> <Gold.Protein.ActiveResidues>
 VAL166  LYS551  ARG553  GLY616  TRP617  ASP618  TYR619  PRO620  LYS621  CYS622 
 ASP623  PHE694  ASN695  SER759  ASP760  ASP761  ALA762  ILE779  LEU786  VAL792 
 PHE793  MET794  SER795  GLU796  ALA797  LYS798  CYS799  TRP800  GLU811  SER814 

> <Gold.Protein.RotatedAtoms>
  150.7052  134.4691  159.5416 H   0  0  0  0  0  0  0  0  0  0  0  0  # atno 6907 bound_to 6896
  152.2351  134.8281  160.0477 H   0  0  0  0  0  0  0  0  0  0  0  0  # atno 6908 bound_to 6896
  151.9083  133.3520  159.3891 H   0  0  0  0  0  0  0  0  0  0  0  0  # atno 6909 bound_to 6896
  146.1218  140.5410  142.8732 H   0  0  0  0  0  0  0  0  0  0  0  0  # atno 7974 bound_to 7965
  155.3522  140.3414  155.4239 H   0  0  0  0  0  0  0  0  0  0  0  0  # atno 8008 bound_to 7997
  156.1758  140.1647  156.8401 H   0  0  0  0  0  0  0  0  0  0  0  0  # atno 8009 bound_to 7997
  154.5280  140.0751  156.8276 H   0  0  0  0  0  0  0  0  0  0  0  0  # atno 8010 bound_to 7997
  140.2933  144.3020  150.6235 H   0  0  0  0  0  0  0  0  0  0  0  0  # atno 10167 bound_to 10162
  156.0066  130.5159  150.6252 H   0  0  0  0  0  0  0  0  0  0  0  0  # atno 10718 bound_to 10713
  154.4079  135.2756  155.2055 H   0  0  0  0  0  0  0  0  0  0  0  0  # atno 10763 bound_to 10752
  154.4054  135.6035  153.5925 H   0  0  0  0  0  0  0  0  0  0  0  0  # atno 10764 bound_to 10752
  152.9831  135.5936  154.4356 H   0  0  0  0  0  0  0  0  0  0  0  0  # atno 10765 bound_to 10752
  140.6125  134.4834  157.5217 H   0  0  0  0  0  0  0  0  0  0  0  0  # atno 11005 bound_to 11000
  144.7604  140.5408  143.6739 LP  0  0  0  0  0  0  0  0  0  0  0  0  # atno 17320 bound_to 7965
  145.5450  139.1476  143.3426 LP  0  0  0  0  0  0  0  0  0  0  0  0  # atno 17321 bound_to 7965
  140.5714  143.2180  151.7593 LP  0  0  0  0  0  0  0  0  0  0  0  0  # atno 17342 bound_to 10162
  139.4932  144.4211  151.9976 LP  0  0  0  0  0  0  0  0  0  0  0  0  # atno 17343 bound_to 10162
  157.4060  131.0817  151.1265 LP  0  0  0  0  0  0  0  0  0  0  0  0  # atno 17370 bound_to 10713
  157.1911  130.6352  149.5705 LP  0  0  0  0  0  0  0  0  0  0  0  0  # atno 17371 bound_to 10713
  139.9186  134.8194  156.1284 LP  0  0  0  0  0  0  0  0  0  0  0  0  # atno 17394 bound_to 11000
  141.0798  133.6759  156.2312 LP  0  0  0  0  0  0  0  0  0  0  0  0  # atno 17395 bound_to 11000

$$$$
