AV-unprocessed.smi:642|AV-procd|sdf|3152|dock9
  -GOLD-   22720 0 73D 1   1.00000     0.00000
 Structure written by MMmdl.
 49 51  0  0  0  0  0  0  0  0  1 V2000
  146.8012  138.0108  151.1177 O   0  0  0  0  0  0  0  0  0  0  0  0
  146.7768  137.3321  152.1446 C   0  0  0  0  0  0  0  0  0  0  0  0
  147.1664  137.7562  153.3575 N   0  0  0  0  0  0  0  0  0  0  0  0
  147.6421  139.0493  153.7116 C   0  0  0  0  0  0  0  0  0  0  0  0
  147.0969  140.2277  153.1482 C   0  0  0  0  0  0  0  0  0  0  0  0
  147.6456  141.4735  153.5009 C   0  0  0  0  0  0  0  0  0  0  0  0
  148.7295  141.4957  154.3963 C   0  0  0  0  0  0  0  0  0  0  0  0
  149.2675  140.3812  154.9319 N   0  0  0  0  0  0  0  0  0  0  0  0
  148.7422  139.1758  154.6017 C   0  0  0  0  0  0  0  0  0  0  0  0
  149.3076  138.0336  155.2033 N   0  0  0  0  0  0  0  0  0  0  0  0
  149.1873  138.0229  156.6571 C   0  0  0  0  0  0  0  0  0  0  0  0
  149.5895  136.6443  157.2086 C   0  0  0  0  0  0  0  0  0  0  0  0
  150.9032  136.3147  156.7657 O   0  0  0  0  0  0  0  0  0  0  0  0
  150.9910  136.2530  155.3450 C   0  0  0  0  0  0  0  0  0  0  0  0
  150.6316  137.6235  154.7455 C   0  0  0  0  0  0  0  0  0  0  0  0
  146.3243  136.0710  152.1956 N   0  0  0  0  0  0  0  0  0  0  0  0
  145.7670  135.3190  151.0731 C   0  0  0  0  0  0  0  0  0  0  0  0
  144.2235  135.3001  151.1531 C   0  0  0  0  0  0  0  0  0  0  0  0
  143.6164  134.1834  152.0196 C   0  0  0  0  0  0  0  0  0  0  0  0
  143.3956  132.8776  151.2350 C   0  0  0  0  0  0  0  0  0  0  0  0
  144.6760  132.0947  150.9032 C   0  0  0  0  0  0  0  0  0  0  0  0
  145.7448  132.8919  150.1345 C   0  0  0  0  0  0  0  0  0  0  0  0
  146.4498  133.9367  151.0150 C   0  0  0  0  0  0  0  0  0  0  0  0
  146.9913  137.1299  154.1299 H   0  0  0  0  0  0  0  0  0  0  0  0
  146.2820  140.1916  152.4409 H   0  0  0  0  0  0  0  0  0  0  0  0
  147.2504  142.3896  153.0877 H   0  0  0  0  0  0  0  0  0  0  0  0
  149.1796  142.4331  154.6875 H   0  0  0  0  0  0  0  0  0  0  0  0
  149.8361  138.7950  157.0731 H   0  0  0  0  0  0  0  0  0  0  0  0
  148.1702  138.2628  156.9671 H   0  0  0  0  0  0  0  0  0  0  0  0
  149.5747  136.6569  158.2985 H   0  0  0  0  0  0  0  0  0  0  0  0
  148.8822  135.8773  156.8885 H   0  0  0  0  0  0  0  0  0  0  0  0
  152.0065  135.9743  155.0631 H   0  0  0  0  0  0  0  0  0  0  0  0
  150.3283  135.4749  154.9627 H   0  0  0  0  0  0  0  0  0  0  0  0
  150.6492  137.5726  153.6560 H   0  0  0  0  0  0  0  0  0  0  0  0
  151.3733  138.3634  155.0499 H   0  0  0  0  0  0  0  0  0  0  0  0
  146.3452  135.5982  153.0873 H   0  0  0  0  0  0  0  0  0  0  0  0
  146.0271  135.8384  150.1489 H   0  0  0  0  0  0  0  0  0  0  0  0
  143.8741  136.2650  151.5232 H   0  0  0  0  0  0  0  0  0  0  0  0
  143.8137  135.2303  150.1448 H   0  0  0  0  0  0  0  0  0  0  0  0
  144.2125  134.0113  152.9166 H   0  0  0  0  0  0  0  0  0  0  0  0
  142.6421  134.5240  152.3720 H   0  0  0  0  0  0  0  0  0  0  0  0
  142.7431  132.2277  151.8191 H   0  0  0  0  0  0  0  0  0  0  0  0
  142.8489  133.0901  150.3156 H   0  0  0  0  0  0  0  0  0  0  0  0
  145.1073  131.6939  151.8215 H   0  0  0  0  0  0  0  0  0  0  0  0
  144.3963  131.2250  150.3079 H   0  0  0  0  0  0  0  0  0  0  0  0
  146.4968  132.1835  149.7852 H   0  0  0  0  0  0  0  0  0  0  0  0
  145.3279  133.3496  149.2368 H   0  0  0  0  0  0  0  0  0  0  0  0
  147.4637  134.0817  150.6397 H   0  0  0  0  0  0  0  0  0  0  0  0
  146.5736  133.5312  152.0203 H   0  0  0  0  0  0  0  0  0  0  0  0
  1  2  2  0  0  0  0
  2  3  1  0  0  0  0
  2 16  1  0  0  0  0
  3  4  1  0  0  0  0
  3 24  1  0  0  0  0
  4  9  1  0  0  0  0
  4  5  2  0  0  0  0
  5  6  1  0  0  0  0
  5 25  1  0  0  0  0
  6  7  2  0  0  0  0
  6 26  1  0  0  0  0
  7  8  1  0  0  0  0
  7 27  1  0  0  0  0
  8  9  2  0  0  0  0
  9 10  1  0  0  0  0
 10 15  1  0  0  0  0
 10 11  1  0  0  0  0
 11 12  1  0  0  0  0
 11 28  1  0  0  0  0
 11 29  1  0  0  0  0
 12 13  1  0  0  0  0
 12 30  1  0  0  0  0
 12 31  1  0  0  0  0
 13 14  1  0  0  0  0
 14 15  1  0  0  0  0
 14 32  1  0  0  0  0
 14 33  1  0  0  0  0
 15 34  1  0  0  0  0
 15 35  1  0  0  0  0
 16 17  1  0  0  0  0
 16 36  1  0  0  0  0
 17 23  1  0  0  0  0
 17 18  1  0  0  0  0
 17 37  1  0  0  0  0
 18 19  1  0  0  0  0
 18 38  1  0  0  0  0
 18 39  1  0  0  0  0
 19 20  1  0  0  0  0
 19 40  1  0  0  0  0
 19 41  1  0  0  0  0
 20 21  1  0  0  0  0
 20 42  1  0  0  0  0
 20 43  1  0  0  0  0
 21 22  1  0  0  0  0
 21 44  1  0  0  0  0
 21 45  1  0  0  0  0
 22 23  1  0  0  0  0
 22 46  1  0  0  0  0
 22 47  1  0  0  0  0
 23 48  1  0  0  0  0
 23 49  1  0  0  0  0
M  END
> <s_m_source_file>
AV-unprocessed.smi

> <i_m_source_file_index>
642

> <i_lp_mmshare_version>
43012

> <i_f3d_flags>
0

> <s_epik_input>
W0NIMl0xW0NIMl1bQ0gyXVtDSDJdW0NIMl1bQ0gyXVtDSF0xW05IXUMoPU8pW05IXWMyW2NIXVtjSF1bY0hdbmMyTjNbQ0gyXVtDSDJdT1tDSDJdW0NIMl0z

> <s_epik_cmdline>
J2VwaWtfcHl0aG9uJywgJy1waCcsICc3LjAnLCAnLXRuJywgJzgnLCAnLW1hJywgJzIwMCcsICctbWV0YWxfYmluZGluZycsICctaW1hZScsICc8aW5maWxlLm1hZT4nLCAnLW9tYWUnLCAnPG91dGZpbGUubWFlPic=

> <r_lp_tautomer_probability>
1

> <r_epik_Ionization_Penalty>
0.00218327

> <r_epik_Ionization_Penalty_Charging>
0

> <r_epik_Ionization_Penalty_Neutral>
0.00218327

> <r_epik_State_Penalty>
0.00146969

> <r_epik_Charging_Adjusted_Penalty>
0.00146969

> <i_epik_Tot_Q>
0

> <i_epik_Tot_abs_Q>
0

> <r_epik_Metal_State_Penalty>
-0

> <b_epik_Metal_Only>
0

> <s_lp_Force_Field>
OPLS_2005

> <r_lp_Energy>
33.5624

> <b_lp_Chiralities_Consistent>
1

> <s_lp_Variant>
AV-unprocessed.smi:642-1

> <Gold.Version>
5.8.1

> <Gold.Id.Protein>
6NUR|6NUR_protein|mol2

> <Gold.PLP.Fitness>
38.7129

> <Gold.PLP.PLP>
-33.7263

> <Gold.PLP.part.hbond>
-3.0000

> <Gold.PLP.part.metal>
0.0000

> <Gold.PLP.part.buried>
-0.9747

> <Gold.PLP.part.nonpolar>
-30.7475

> <Gold.PLP.part.repulsive>
2.3212

> <Gold.PLP.ligand.clash>
0.0000

> <Gold.PLP.ligand.torsion>
0.6224

> <Gold.PLP.Chemscore.Hbond>
1.0000

> <Gold.PLP.Chemscore.CHOScore>
1.0000

> <Gold.PLP.Chemscore.Metal>
0.0000

> <Gold.Chemscore.Hbonds>
donor molecule, donor type, donor heavy atom, donor atom, acceptor molecule, acceptor atom, score
      P1  H  7954  7966       L1     1  1.00
      L1  C     7    27       P1  8028  1.00

> <Gold.PLP.Chemscore.Internal.Correction>
0.2313

> <Gold.Rescore>
     Score         DG    S(hbond)    S(metal)    S(lipo)     H(rot)  DE(clash)    DE(int)     intcor
     12.25     -16.75       0.99        0.00      93.93       1.18       2.98       1.53       ----

> <Gold.Chemscore.Fitness>
12.2451

> <Gold.Chemscore.DG>
-16.7534

> <Gold.Chemscore.ZeroCoef>
-5.4800

> <Gold.Chemscore.Hbond>
0.9886

> <Gold.Chemscore.Metal>
0.0000

> <Gold.Chemscore.Lipo>
93.9306

> <Gold.Chemscore.Internal_Hbond>
0.0000

> <Gold.Chemscore.DEClash>
2.9765

> <Gold.Chemscore.DEInternal>
1.5318

> <Gold.Chemscore.Rot>
1.1791

> <Gold.Chemscore.Internal.Correction>
   9.000000E+99

> <Gold.Chemscore.Hbonds>
donor molecule, donor type, donor heavy atom, donor atom, acceptor molecule, acceptor atom, score
      P1  H  7954  7966       L1     1  0.99

> <Gold.Chemscore.Hbond.Weighted>
-3.3019

> <Gold.Chemscore.Metal.Weighted>
-0.0000

> <Gold.Chemscore.Lipo.Weighted>
-10.9899

> <Gold.Chemscore.Internal_Hbond.Weighted>
0.0000

> <Gold.Chemscore.DEClash.Weighted>
2.9765

> <Gold.Chemscore.DEInternal.Weighted>
1.5318

> <Gold.Chemscore.Rot.Weighted>
3.0184

> <Gold.Chemscore.Internal.Correction.Weighted>
   9.000000E+99

> <Gold.Protein.RotatedTorsions>
[ 6907 6896 6895 6894 ] final  -37.58 input  -60.11 | X-H torsion
[ 7974 7965 7964 7962 ] final -109.73 input  175.53 | X-H torsion
[ 8008 7997 7996 7995 ] final   48.01 input   59.86 | X-H torsion
[ 10167 10162 10161 10158 ] final  103.35 input  -65.29 | X-H torsion
[ 10718 10713 10712 10709 ] final -137.57 input   66.30 | X-H torsion
[ 10763 10752 10751 10750 ] final -144.08 input  -60.55 | X-H torsion
[ 11005 11000 10999 10996 ] final -140.89 input  -57.11 | X-H torsion

> <Gold.Protein.ActiveResidues>
 VAL166  LYS551  ARG553  GLY616  TRP617  ASP618  TYR619  PRO620  LYS621  CYS622 
 ASP623  PHE694  ASN695  SER759  ASP760  ASP761  ALA762  ILE779  LEU786  VAL792 
 PHE793  MET794  SER795  GLU796  ALA797  LYS798  CYS799  TRP800  GLU811  SER814 

> <Gold.Protein.RotatedAtoms>
  151.0130  134.9411  159.8017 H   0  0  0  0  0  0  0  0  0  0  0  0  # atno 6907 bound_to 6896
  152.5307  134.3004  159.9086 H   0  0  0  0  0  0  0  0  0  0  0  0  # atno 6908 bound_to 6896
  151.3010  133.4080  159.2674 H   0  0  0  0  0  0  0  0  0  0  0  0  # atno 6909 bound_to 6896
  145.1769  140.8952  143.3502 H   0  0  0  0  0  0  0  0  0  0  0  0  # atno 7974 bound_to 7965
  155.3786  140.3427  155.4246 H   0  0  0  0  0  0  0  0  0  0  0  0  # atno 8008 bound_to 7997
  156.1623  140.1604  156.8625 H   0  0  0  0  0  0  0  0  0  0  0  0  # atno 8009 bound_to 7997
  154.5151  140.0780  156.8048 H   0  0  0  0  0  0  0  0  0  0  0  0  # atno 8010 bound_to 7997
  139.7271  144.7045  151.0781 H   0  0  0  0  0  0  0  0  0  0  0  0  # atno 10167 bound_to 10162
  156.2896  130.7367  151.1389 H   0  0  0  0  0  0  0  0  0  0  0  0  # atno 10718 bound_to 10713
  154.8443  135.3450  154.6289 H   0  0  0  0  0  0  0  0  0  0  0  0  # atno 10763 bound_to 10752
  153.6898  135.6975  153.5098 H   0  0  0  0  0  0  0  0  0  0  0  0  # atno 10764 bound_to 10752
  153.2604  135.4325  155.0843 H   0  0  0  0  0  0  0  0  0  0  0  0  # atno 10765 bound_to 10752
  140.8378  134.2438  157.4825 H   0  0  0  0  0  0  0  0  0  0  0  0  # atno 11005 bound_to 11000
  145.0176  139.3453  143.6089 LP  0  0  0  0  0  0  0  0  0  0  0  0  # atno 17320 bound_to 7965
  146.3459  139.9463  142.8734 LP  0  0  0  0  0  0  0  0  0  0  0  0  # atno 17321 bound_to 7965
  140.7764  143.5091  150.9675 LP  0  0  0  0  0  0  0  0  0  0  0  0  # atno 17342 bound_to 10162
  139.8779  143.7109  152.3160 LP  0  0  0  0  0  0  0  0  0  0  0  0  # atno 17343 bound_to 10162
  157.7338  131.0587  150.5555 LP  0  0  0  0  0  0  0  0  0  0  0  0  # atno 17370 bound_to 10713
  156.5669  130.4270  149.6037 LP  0  0  0  0  0  0  0  0  0  0  0  0  # atno 17371 bound_to 10713
  139.8704  134.9620  156.4414 LP  0  0  0  0  0  0  0  0  0  0  0  0  # atno 17394 bound_to 11000
  140.8928  133.7836  155.9591 LP  0  0  0  0  0  0  0  0  0  0  0  0  # atno 17395 bound_to 11000

$$$$
