AV-unprocessed.smi:786|AV-procd|sdf|3724|dock5
  -GOLD-   22720 1153D 1   1.00000     0.00000
 Structure written by MMmdl.
 39 40  0  0  0  0  0  0  0  0  3 V2000
  152.3147  139.8876  154.8655 O   0  0  0  0  0  0  0  0  0  0  0  0
  151.7698  139.7523  156.2256 S   0  0  0  0  0  0  0  0  0  0  0  0
  152.7333  139.4485  157.2959 O   0  0  0  0  0  0  0  0  0  0  0  0
  151.0365  141.3935  156.6754 C   0  0  0  0  0  0  0  0  0  0  0  0
  151.8524  142.2331  157.6888 C   0  0  0  0  0  0  0  0  0  0  0  0
  151.8838  141.6665  159.1209 C   0  0  0  0  0  0  0  0  0  0  0  0
  152.6066  142.6251  160.0822 C   0  0  0  0  0  0  0  0  0  0  0  0
  151.9999  143.9113  160.0495 O   0  0  0  0  0  0  0  0  0  0  0  0
  152.0796  144.5205  158.7667 C   0  0  0  0  0  0  0  0  0  0  0  0
  151.3120  143.6728  157.7402 C   0  0  0  0  0  0  0  0  0  0  0  0
  150.4632  138.7911  156.2934 N   0  5  0  0  0  0  0  0  0  0  0  0
  150.4566  137.4991  155.6192 C   0  0  0  0  0  0  0  0  0  0  0  0
  149.2526  136.6231  156.0432 C   0  0  0  0  0  0  0  0  0  0  0  0
  149.3243  135.1653  155.5997 C   0  0  0  0  0  0  0  0  0  0  0  0
  149.6461  134.1205  156.4959 C   0  0  0  0  0  0  0  0  0  0  0  0
  149.6921  132.7927  156.0222 C   0  0  0  0  0  0  0  0  0  0  0  0
  149.4114  132.5328  154.6649 C   0  0  0  0  0  0  0  0  0  0  0  0
  149.0900  133.6095  153.8138 C   0  0  0  0  0  0  0  0  0  0  0  0
  149.0561  134.8667  154.3054 N   0  3  0  0  0  0  0  0  0  0  0  0
  150.9190  141.9530  155.7474 H   0  0  0  0  0  0  0  0  0  0  0  0
  150.0338  141.2046  157.0589 H   0  0  0  0  0  0  0  0  0  0  0  0
  152.8817  142.2885  157.3329 H   0  0  0  0  0  0  0  0  0  0  0  0
  150.8672  141.4895  159.4738 H   0  0  0  0  0  0  0  0  0  0  0  0
  152.4017  140.7094  159.1470 H   0  0  0  0  0  0  0  0  0  0  0  0
  152.5573  142.2391  161.1004 H   0  0  0  0  0  0  0  0  0  0  0  0
  153.6641  142.7053  159.8253 H   0  0  0  0  0  0  0  0  0  0  0  0
  151.6479  145.5198  158.8242 H   0  0  0  0  0  0  0  0  0  0  0  0
  153.1232  144.6410  158.4712 H   0  0  0  0  0  0  0  0  0  0  0  0
  151.3813  144.1365  156.7557 H   0  0  0  0  0  0  0  0  0  0  0  0
  150.2538  143.6609  158.0050 H   0  0  0  0  0  0  0  0  0  0  0  0
  150.4215  137.6283  154.5370 H   0  0  0  0  0  0  0  0  0  0  0  0
  151.3766  136.9468  155.8116 H   0  0  0  0  0  0  0  0  0  0  0  0
  149.1770  136.6392  157.1308 H   0  0  0  0  0  0  0  0  0  0  0  0
  148.3197  137.0599  155.6859 H   0  0  0  0  0  0  0  0  0  0  0  0
  149.8605  134.3348  157.5326 H   0  0  0  0  0  0  0  0  0  0  0  0
  149.9404  131.9832  156.6927 H   0  0  0  0  0  0  0  0  0  0  0  0
  149.4430  131.5232  154.2825 H   0  0  0  0  0  0  0  0  0  0  0  0
  148.8630  133.5060  152.7629 H   0  0  0  0  0  0  0  0  0  0  0  0
  148.8293  135.6345  153.6706 H   0  0  0  0  0  0  0  0  0  0  0  0
  1  2  2  0  0  0  0
  2  3  2  0  0  0  0
  2  4  1  0  0  0  0
  2 11  1  0  0  0  0
  4  5  1  0  0  0  0
  4 20  1  0  0  0  0
  4 21  1  0  0  0  0
  5 10  1  0  0  0  0
  5  6  1  0  0  0  0
  5 22  1  0  0  0  0
  6  7  1  0  0  0  0
  6 23  1  0  0  0  0
  6 24  1  0  0  0  0
  7  8  1  0  0  0  0
  7 25  1  0  0  0  0
  7 26  1  0  0  0  0
  8  9  1  0  0  0  0
  9 10  1  0  0  0  0
  9 27  1  0  0  0  0
  9 28  1  0  0  0  0
 10 29  1  0  0  0  0
 10 30  1  0  0  0  0
 11 12  1  0  0  0  0
 12 13  1  0  0  0  0
 12 31  1  0  0  0  0
 12 32  1  0  0  0  0
 13 14  1  0  0  0  0
 13 33  1  0  0  0  0
 13 34  1  0  0  0  0
 14 19  1  0  0  0  0
 14 15  2  0  0  0  0
 15 16  1  0  0  0  0
 15 35  1  0  0  0  0
 16 17  2  0  0  0  0
 16 36  1  0  0  0  0
 17 18  1  0  0  0  0
 17 37  1  0  0  0  0
 18 19  2  0  0  0  0
 18 38  1  0  0  0  0
 19 39  1  0  0  0  0
M  CHG  1  11  -1
M  CHG  1  19   1
M  END
> <s_m_source_file>
AV-unprocessed.smi

> <i_m_source_file_index>
786

> <i_lp_mmshare_version>
43012

> <i_f3d_flags>
0

> <s_epik_input>
W0NIMl0xW0NIMl1PW0NIMl1bQ0gyXVtDSF0xW0NIMl1TKD1PKSg9TylbTkhdW0NIMl1bQ0gyXWMyW2NIXVtjSF1bY0hdW2NIXW4y

> <s_epik_cmdline>
J2VwaWtfcHl0aG9uJywgJy1waCcsICc3LjAnLCAnLXRuJywgJzgnLCAnLW1hJywgJzIwMCcsICctbWV0YWxfYmluZGluZycsICctaW1hZScsICc8aW5maWxlLm1hZT4nLCAnLW9tYWUnLCAnPG91dGZpbGUubWFlPic=

> <r_epik_Ionization_Penalty>
7.39271

> <r_epik_Ionization_Penalty_Charging>
7.39271

> <r_epik_Ionization_Penalty_Neutral>
5.66014e-11

> <r_epik_State_Penalty>
8.23716

> <r_epik_Charging_Adjusted_Penalty>
15.6299

> <i_epik_Tot_Q>
0

> <i_epik_Tot_abs_Q>
2

> <r_epik_Metal_State_Penalty>
4.19267

> <b_epik_Metal_Only>
1

> <s_lp_Force_Field>
OPLS_2005

> <r_lp_Energy>
3.22126

> <b_lp_Chiralities_Consistent>
1

> <s_lp_Variant>
AV-unprocessed.smi:786-4

> <Gold.Version>
5.8.1

> <Gold.Id.Protein>
6NUR|6NUR_protein|mol2

> <Gold.PLP.Fitness>
44.6784

> <Gold.PLP.PLP>
-35.2931

> <Gold.PLP.part.hbond>
-3.1069

> <Gold.PLP.part.metal>
0.0000

> <Gold.PLP.part.buried>
-6.0085

> <Gold.PLP.part.nonpolar>
-26.8268

> <Gold.PLP.part.repulsive>
0.1073

> <Gold.PLP.ligand.clash>
0.0000

> <Gold.PLP.ligand.torsion>
1.2977

> <Gold.PLP.Chemscore.Hbond>
3.6400

> <Gold.PLP.Chemscore.CHOScore>
0.0000

> <Gold.PLP.Chemscore.Metal>
0.0000

> <Gold.Chemscore.Hbonds>
donor molecule, donor type, donor heavy atom, donor atom, acceptor molecule, acceptor atom, score
      L1  H    19    39       P1  7948  1.70
      P1  H  7989  7998       L1     1  0.69
      P1  H  7997  8008       L1     3  1.00

> <Gold.PLP.Chemscore.Internal.Correction>
1.0608

> <Gold.Rescore>
     Score         DG    S(hbond)    S(metal)    S(lipo)     H(rot)  DE(clash)    DE(int)     intcor
     17.77     -20.09       2.52        0.00      89.67       1.68       0.11       2.21       ----

> <Gold.Chemscore.Fitness>
17.7694

> <Gold.Chemscore.DG>
-20.0928

> <Gold.Chemscore.ZeroCoef>
-5.4800

> <Gold.Chemscore.Hbond>
2.5234

> <Gold.Chemscore.Metal>
0.0000

> <Gold.Chemscore.Lipo>
89.6718

> <Gold.Chemscore.Internal_Hbond>
0.0000

> <Gold.Chemscore.DEClash>
0.1112

> <Gold.Chemscore.DEInternal>
2.2122

> <Gold.Chemscore.Rot>
1.6824

> <Gold.Chemscore.Internal.Correction>
   9.000000E+99

> <Gold.Chemscore.Hbonds>
donor molecule, donor type, donor heavy atom, donor atom, acceptor molecule, acceptor atom, score
      L1  H    19    39       P1  7948  0.80
      P1  H  7989  7998       L1     1  0.68
      P1  H  7997  8008       L1     3  0.87

> <Gold.Chemscore.Hbond.Weighted>
-8.4282

> <Gold.Chemscore.Metal.Weighted>
-0.0000

> <Gold.Chemscore.Lipo.Weighted>
-10.4916

> <Gold.Chemscore.Internal_Hbond.Weighted>
0.0000

> <Gold.Chemscore.DEClash.Weighted>
0.1112

> <Gold.Chemscore.DEInternal.Weighted>
2.2122

> <Gold.Chemscore.Rot.Weighted>
4.3070

> <Gold.Chemscore.Internal.Correction.Weighted>
   9.000000E+99

> <Gold.Protein.RotatedTorsions>
[ 6907 6896 6895 6894 ] final  177.60 input  -60.11 | X-H torsion
[ 7974 7965 7964 7962 ] final    1.64 input  175.53 | X-H torsion
[ 8008 7997 7996 7995 ] final  -80.17 input   59.86 | X-H torsion
[ 10167 10162 10161 10158 ] final  132.98 input  -65.29 | X-H torsion
[ 10718 10713 10712 10709 ] final   63.26 input   66.30 | X-H torsion
[ 10763 10752 10751 10750 ] final  177.77 input  -60.55 | X-H torsion
[ 11005 11000 10999 10996 ] final  164.85 input  -57.11 | X-H torsion

> <Gold.Protein.ActiveResidues>
 VAL166  LYS551  ARG553  GLY616  TRP617  ASP618  TYR619  PRO620  LYS621  CYS622 
 ASP623  PHE694  ASN695  SER759  ASP760  ASP761  ALA762  ILE779  LEU786  VAL792 
 PHE793  MET794  SER795  GLU796  ALA797  LYS798  CYS799  TRP800  GLU811  SER814 

> <Gold.Protein.RotatedAtoms>
  151.7014  133.3311  159.3267 H   0  0  0  0  0  0  0  0  0  0  0  0  # atno 6907 bound_to 6896
  150.7734  134.6613  159.6350 H   0  0  0  0  0  0  0  0  0  0  0  0  # atno 6908 bound_to 6896
  152.3767  134.6655  160.0209 H   0  0  0  0  0  0  0  0  0  0  0  0  # atno 6909 bound_to 6896
  146.2441  140.0957  142.8350 H   0  0  0  0  0  0  0  0  0  0  0  0  # atno 7974 bound_to 7965
  154.5856  140.0667  156.9167 H   0  0  0  0  0  0  0  0  0  0  0  0  # atno 8008 bound_to 7997
  155.2385  140.3343  155.4277 H   0  0  0  0  0  0  0  0  0  0  0  0  # atno 8009 bound_to 7997
  156.2220  140.1803  156.7438 H   0  0  0  0  0  0  0  0  0  0  0  0  # atno 8010 bound_to 7997
  139.5316  144.6637  151.4930 H   0  0  0  0  0  0  0  0  0  0  0  0  # atno 10167 bound_to 10162
  157.5959  130.9095  149.9693 H   0  0  0  0  0  0  0  0  0  0  0  0  # atno 10718 bound_to 10713
  154.4988  135.2782  155.1437 H   0  0  0  0  0  0  0  0  0  0  0  0  # atno 10763 bound_to 10752
  154.3079  135.6235  153.5456 H   0  0  0  0  0  0  0  0  0  0  0  0  # atno 10764 bound_to 10752
  152.9899  135.5712  154.5426 H   0  0  0  0  0  0  0  0  0  0  0  0  # atno 10765 bound_to 10752
  140.2501  134.7983  157.3493 H   0  0  0  0  0  0  0  0  0  0  0  0  # atno 11005 bound_to 11000
  145.0612  140.9089  143.4937 LP  0  0  0  0  0  0  0  0  0  0  0  0  # atno 17320 bound_to 7965
  145.1073  139.2781  143.5655 LP  0  0  0  0  0  0  0  0  0  0  0  0  # atno 17321 bound_to 7965
  140.6498  143.8720  150.6774 LP  0  0  0  0  0  0  0  0  0  0  0  0  # atno 17342 bound_to 10162
  140.2081  143.3905  152.1739 LP  0  0  0  0  0  0  0  0  0  0  0  0  # atno 17343 bound_to 10162
  156.1021  130.3655  150.0199 LP  0  0  0  0  0  0  0  0  0  0  0  0  # atno 17370 bound_to 10713
  156.8313  130.9393  151.3637 LP  0  0  0  0  0  0  0  0  0  0  0  0  # atno 17371 bound_to 10713
  140.1566  134.4781  155.7923 LP  0  0  0  0  0  0  0  0  0  0  0  0  # atno 17394 bound_to 11000
  141.2202  133.6884  156.7472 LP  0  0  0  0  0  0  0  0  0  0  0  0  # atno 17395 bound_to 11000

$$$$
