AV-unprocessed.smi:1538|AV-procd|sdf|6195|dock2
  -GOLD-   22720 6363D 1   1.00000     0.00000
 Structure written by MMmdl.
 36 37  0  0  0  0  0  0  0  0  1 V2000
  151.8534  145.2802  160.2180 C   0  0  0  0  0  0  0  0  0  0  0  0
  152.0344  143.9041  159.7522 N   0  0  0  0  0  0  0  0  0  0  0  0
  152.3404  142.9268  160.8066 C   0  0  0  0  0  0  0  0  0  0  0  0
  152.9365  141.6172  160.2748 C   0  0  0  0  0  0  0  0  0  0  0  0
  152.1005  141.0994  159.0973 C   0  0  2  0  0  0  0  0  0  0  0  0
  152.6438  139.7556  158.5924 C   0  0  0  0  0  0  0  0  0  0  0  0
  153.8461  139.6157  158.3651 O   0  0  0  0  0  0  0  0  0  0  0  0
  151.7451  138.7741  158.4199 N   0  0  0  0  0  0  0  0  0  0  0  0
  152.0533  137.4320  157.9407 C   0  0  0  0  0  0  0  0  0  0  0  0
  152.8623  137.4712  156.6339 C   0  0  0  0  0  0  0  0  0  0  0  0
  152.1114  138.0952  155.5641 N   0  0  0  0  0  0  0  0  0  0  0  0
  151.6239  137.4839  154.4167 C   0  0  0  0  0  0  0  0  0  0  0  0
  150.9766  138.4619  153.6956 C   0  0  0  0  0  0  0  0  0  0  0  0
  151.0522  139.6744  154.3770 N   0  0  0  0  0  0  0  0  0  0  0  0
  151.7381  139.3789  155.4738 C   0  0  0  0  0  0  0  0  0  0  0  0
  152.0898  142.1499  157.9685 C   0  0  0  0  0  0  0  0  0  0  0  0
  151.8524  143.5927  158.4459 C   0  0  0  0  0  0  0  0  0  0  0  0
  151.5300  144.4332  157.6057 O   0  0  0  0  0  0  0  0  0  0  0  0
  150.8726  145.6627  159.9309 H   0  0  0  0  0  0  0  0  0  0  0  0
  152.6143  145.9314  159.7858 H   0  0  0  0  0  0  0  0  0  0  0  0
  151.9257  145.3608  161.3032 H   0  0  0  0  0  0  0  0  0  0  0  0
  153.0306  143.3606  161.5315 H   0  0  0  0  0  0  0  0  0  0  0  0
  151.4160  142.7140  161.3447 H   0  0  0  0  0  0  0  0  0  0  0  0
  153.9664  141.7917  159.9583 H   0  0  0  0  0  0  0  0  0  0  0  0
  152.9781  140.8785  161.0765 H   0  0  0  0  0  0  0  0  0  0  0  0
  151.0751  140.9515  159.4424 H   0  0  0  0  0  0  0  0  0  0  0  0
  150.7780  138.9724  158.6324 H   0  0  0  0  0  0  0  0  0  0  0  0
  152.5914  136.8748  158.7095 H   0  0  0  0  0  0  0  0  0  0  0  0
  151.1113  136.9068  157.7793 H   0  0  0  0  0  0  0  0  0  0  0  0
  153.7922  138.0238  156.7761 H   0  0  0  0  0  0  0  0  0  0  0  0
  153.1366  136.4640  156.3177 H   0  0  0  0  0  0  0  0  0  0  0  0
  151.7728  136.4333  154.2145 H   0  0  0  0  0  0  0  0  0  0  0  0
  150.4659  138.3866  152.7469 H   0  0  0  0  0  0  0  0  0  0  0  0
  151.9738  140.1137  156.2297 H   0  0  0  0  0  0  0  0  0  0  0  0
  153.0415  142.1464  157.4350 H   0  0  0  0  0  0  0  0  0  0  0  0
  151.3250  141.8930  157.2342 H   0  0  0  0  0  0  0  0  0  0  0  0
  1  2  1  0  0  0  0
  1 19  1  0  0  0  0
  1 20  1  0  0  0  0
  1 21  1  0  0  0  0
  2 17  1  0  0  0  0
  2  3  1  0  0  0  0
  3  4  1  0  0  0  0
  3 22  1  0  0  0  0
  3 23  1  0  0  0  0
  4  5  1  0  0  0  0
  4 24  1  0  0  0  0
  4 25  1  0  0  0  0
  5  6  1  0  0  0  0
  5 16  1  0  0  0  0
  5 26  1  0  0  0  0
  6  7  2  0  0  0  0
  6  8  1  0  0  0  0
  8  9  1  0  0  0  0
  8 27  1  0  0  0  0
  9 10  1  0  0  0  0
  9 28  1  0  0  0  0
  9 29  1  0  0  0  0
 10 11  1  0  0  0  0
 10 30  1  0  0  0  0
 10 31  1  0  0  0  0
 11 15  1  0  0  0  0
 11 12  1  0  0  0  0
 12 13  2  0  0  0  0
 12 32  1  0  0  0  0
 13 14  1  0  0  0  0
 13 33  1  0  0  0  0
 14 15  2  0  0  0  0
 15 34  1  0  0  0  0
 16 17  1  0  0  0  0
 16 35  1  0  0  0  0
 16 36  1  0  0  0  0
 17 18  2  0  0  0  0
M  END
> <s_m_source_file>
AV-unprocessed.smi

> <i_m_source_file_index>
1538

> <i_lp_mmshare_version>
43012

> <i_f3d_flags>
0

> <s_epik_input>
W0NIM11OMVtDSDJdW0NIMl1bQ0BIXShbQ0gyXUMxPU8pQyg9TylbTkhdW0NIMl1bQ0gyXW4yW2NIXVtjSF1uW2NIXTI=

> <s_epik_cmdline>
J2VwaWtfcHl0aG9uJywgJy1waCcsICc3LjAnLCAnLXRuJywgJzgnLCAnLW1hJywgJzIwMCcsICctbWV0YWxfYmluZGluZycsICctaW1hZScsICc8aW5maWxlLm1hZT4nLCAnLW9tYWUnLCAnPG91dGZpbGUubWFlPic=

> <r_lp_tautomer_probability>
1

> <r_epik_Ionization_Penalty>
0.590576

> <r_epik_Ionization_Penalty_Charging>
0.590576

> <r_epik_Ionization_Penalty_Neutral>
2.97775e-08

> <r_epik_State_Penalty>
0.604111

> <r_epik_Charging_Adjusted_Penalty>
1.19469

> <i_epik_Tot_Q>
0

> <i_epik_Tot_abs_Q>
0

> <r_epik_Metal_State_Penalty>
0.298544

> <b_epik_Metal_Only>
0

> <s_lp_Force_Field>
OPLS_2005

> <r_lp_Energy>
14.6501

> <b_lp_Chiralities_Consistent>
1

> <s_lp_Variant>
AV-unprocessed.smi:1538-4

> <Gold.Version>
5.8.1

> <Gold.Id.Protein>
6NUR|6NUR_protein|mol2

> <Gold.PLP.Fitness>
49.3199

> <Gold.PLP.PLP>
-37.5512

> <Gold.PLP.part.hbond>
-1.8275

> <Gold.PLP.part.metal>
0.0000

> <Gold.PLP.part.buried>
-5.2249

> <Gold.PLP.part.nonpolar>
-30.1526

> <Gold.PLP.part.repulsive>
0.3458

> <Gold.PLP.ligand.clash>
0.0000

> <Gold.PLP.ligand.torsion>
0.3602

> <Gold.PLP.Chemscore.Hbond>
2.0000

> <Gold.PLP.Chemscore.CHOScore>
2.1479

> <Gold.PLP.Chemscore.Metal>
0.0000

> <Gold.Chemscore.Hbonds>
donor molecule, donor type, donor heavy atom, donor atom, acceptor molecule, acceptor atom, score
      P1  H  7989  7998       L1    14  1.00
      P1  H  7997  8008       L1     7  1.00
      L1  C    12    32       P1  7949  0.16
      L1  C    13    33       P1  7948  0.33
      L1  C    13    33       P1  7949  0.11
      L1  C    13    33       P1  7957  0.75

> <Gold.PLP.Chemscore.Internal.Correction>
0.0453

> <Gold.Rescore>
     Score         DG    S(hbond)    S(metal)    S(lipo)     H(rot)  DE(clash)    DE(int)     intcor
     13.79     -15.57       1.92        0.00      74.75       1.98       0.06       1.72       ----

> <Gold.Chemscore.Fitness>
13.7854

> <Gold.Chemscore.DG>
-15.5715

> <Gold.Chemscore.ZeroCoef>
-5.4800

> <Gold.Chemscore.Hbond>
1.9191

> <Gold.Chemscore.Metal>
0.0000

> <Gold.Chemscore.Lipo>
74.7529

> <Gold.Chemscore.Internal_Hbond>
0.0000

> <Gold.Chemscore.DEClash>
0.0629

> <Gold.Chemscore.DEInternal>
1.7233

> <Gold.Chemscore.Rot>
1.9782

> <Gold.Chemscore.Internal.Correction>
   9.000000E+99

> <Gold.Chemscore.Hbonds>
donor molecule, donor type, donor heavy atom, donor atom, acceptor molecule, acceptor atom, score
      P1  H  7989  7998       L1    14  0.77
      P1  H  7997  8008       L1     7  0.96

> <Gold.Chemscore.Hbond.Weighted>
-6.4097

> <Gold.Chemscore.Metal.Weighted>
-0.0000

> <Gold.Chemscore.Lipo.Weighted>
-8.7461

> <Gold.Chemscore.Internal_Hbond.Weighted>
0.0000

> <Gold.Chemscore.DEClash.Weighted>
0.0629

> <Gold.Chemscore.DEInternal.Weighted>
1.7233

> <Gold.Chemscore.Rot.Weighted>
5.0643

> <Gold.Chemscore.Internal.Correction.Weighted>
   9.000000E+99

> <Gold.Protein.RotatedTorsions>
[ 6907 6896 6895 6894 ] final -130.03 input  -60.11 | X-H torsion
[ 7974 7965 7964 7962 ] final   54.62 input  175.53 | X-H torsion
[ 8008 7997 7996 7995 ] final -112.67 input   59.86 | X-H torsion
[ 10167 10162 10161 10158 ] final  176.05 input  -65.29 | X-H torsion
[ 10718 10713 10712 10709 ] final  145.29 input   66.30 | X-H torsion
[ 10763 10752 10751 10750 ] final  164.15 input  -60.55 | X-H torsion
[ 11005 11000 10999 10996 ] final -109.48 input  -57.11 | X-H torsion

> <Gold.Protein.ActiveResidues>
 VAL166  LYS551  ARG553  GLY616  TRP617  ASP618  TYR619  PRO620  LYS621  CYS622 
 ASP623  PHE694  ASN695  SER759  ASP760  ASP761  ALA762  ILE779  LEU786  VAL792 
 PHE793  MET794  SER795  GLU796  ALA797  LYS798  CYS799  TRP800  GLU811  SER814 

> <Gold.Protein.RotatedAtoms>
  150.9353  133.6719  159.2801 H   0  0  0  0  0  0  0  0  0  0  0  0  # atno 6907 bound_to 6896
  151.4127  135.0986  159.9600 H   0  0  0  0  0  0  0  0  0  0  0  0  # atno 6908 bound_to 6896
  152.5045  133.8822  159.7407 H   0  0  0  0  0  0  0  0  0  0  0  0  # atno 6909 bound_to 6896
  145.9590  139.4041  143.0260 H   0  0  0  0  0  0  0  0  0  0  0  0  # atno 7974 bound_to 7965
  155.0088  140.0393  157.2391 H   0  0  0  0  0  0  0  0  0  0  0  0  # atno 8008 bound_to 7997
  154.7478  140.2761  155.6295 H   0  0  0  0  0  0  0  0  0  0  0  0  # atno 8009 bound_to 7997
  156.2878  140.2653  156.2223 H   0  0  0  0  0  0  0  0  0  0  0  0  # atno 8010 bound_to 7997
  139.5200  144.2960  152.0421 H   0  0  0  0  0  0  0  0  0  0  0  0  # atno 10167 bound_to 10162
  157.3470  131.0945  151.1033 H   0  0  0  0  0  0  0  0  0  0  0  0  # atno 10718 bound_to 10713
  154.3046  135.2758  155.2595 H   0  0  0  0  0  0  0  0  0  0  0  0  # atno 10763 bound_to 10752
  154.5017  135.5806  153.6539 H   0  0  0  0  0  0  0  0  0  0  0  0  # atno 10764 bound_to 10752
  152.9896  135.6159  154.3219 H   0  0  0  0  0  0  0  0  0  0  0  0  # atno 10765 bound_to 10752
  141.0845  133.9162  157.2215 H   0  0  0  0  0  0  0  0  0  0  0  0  # atno 11005 bound_to 11000
  145.8067  140.9745  143.0970 LP  0  0  0  0  0  0  0  0  0  0  0  0  # atno 17320 bound_to 7965
  144.6811  139.9869  143.7484 LP  0  0  0  0  0  0  0  0  0  0  0  0  # atno 17321 bound_to 7965
  140.2409  144.4270  150.6260 LP  0  0  0  0  0  0  0  0  0  0  0  0  # atno 17342 bound_to 10162
  140.6291  143.2185  151.6534 LP  0  0  0  0  0  0  0  0  0  0  0  0  # atno 17343 bound_to 10162
  157.2223  130.6487  149.5816 LP  0  0  0  0  0  0  0  0  0  0  0  0  # atno 17370 bound_to 10713
  155.9716  130.4625  150.6148 LP  0  0  0  0  0  0  0  0  0  0  0  0  # atno 17371 bound_to 10713
  139.9662  135.0141  156.9393 LP  0  0  0  0  0  0  0  0  0  0  0  0  # atno 17394 bound_to 11000
  140.5394  134.0735  155.7337 LP  0  0  0  0  0  0  0  0  0  0  0  0  # atno 17395 bound_to 11000

$$$$
