AV-unprocessed.smi:2947|AV-procd|sdf|11282|dock7
  -GOLD-   2272016173D 1   1.00000     0.00000
 Structure written by MMmdl.
 33 34  0  0  0  0  0  0  0  0  1 V2000
  150.7821  140.8186  156.5308 O   0  0  0  0  0  0  0  0  0  0  0  0
  150.2386  141.8911  156.2645 C   0  0  0  0  0  0  0  0  0  0  0  0
  149.2356  142.0579  155.3843 N   0  0  0  0  0  0  0  0  0  0  0  0
  148.5966  141.0736  154.5839 C   0  0  0  0  0  0  0  0  0  0  0  0
  147.5171  141.5458  153.8034 C   0  0  0  0  0  0  0  0  0  0  0  0
  146.8168  140.6483  152.9741 C   0  0  0  0  0  0  0  0  0  0  0  0
  147.2146  139.2997  152.9461 C   0  0  0  0  0  0  0  0  0  0  0  0
  148.2994  138.9118  153.7539 C   0  0  0  0  0  0  0  0  0  0  0  0
  148.9718  139.7701  154.5496 N   0  0  0  0  0  0  0  0  0  0  0  0
  150.5840  143.0563  156.8320 N   0  0  0  0  0  0  0  0  0  0  0  0
  151.6371  143.2302  157.8282 C   0  0  0  0  0  0  0  0  0  0  0  0
  151.6286  142.0642  158.8389 C   0  0  0  0  0  0  0  0  0  0  0  0
  152.6790  142.2689  159.9424 C   0  0  0  0  0  0  0  0  0  0  0  0
  152.4852  143.6165  160.6549 C   0  0  0  0  0  0  0  0  0  0  0  0
  152.5000  144.7806  159.6519 C   0  0  0  0  0  0  0  0  0  0  0  0
  151.4487  144.5791  158.5483 C   0  0  0  0  0  0  0  0  0  0  0  0
  148.8892  142.9993  155.2729 H   0  0  0  0  0  0  0  0  0  0  0  0
  147.2250  142.5853  153.8365 H   0  0  0  0  0  0  0  0  0  0  0  0
  145.9894  140.9899  152.3699 H   0  0  0  0  0  0  0  0  0  0  0  0
  146.7026  138.5816  152.3229 H   0  0  0  0  0  0  0  0  0  0  0  0
  148.6365  137.8857  153.7617 H   0  0  0  0  0  0  0  0  0  0  0  0
  150.0829  143.8872  156.5537 H   0  0  0  0  0  0  0  0  0  0  0  0
  152.6045  143.2502  157.3218 H   0  0  0  0  0  0  0  0  0  0  0  0
  150.6404  141.9758  159.2928 H   0  0  0  0  0  0  0  0  0  0  0  0
  151.8183  141.1197  158.3275 H   0  0  0  0  0  0  0  0  0  0  0  0
  152.6222  141.4542  160.6649 H   0  0  0  0  0  0  0  0  0  0  0  0
  153.6780  142.2262  159.5069 H   0  0  0  0  0  0  0  0  0  0  0  0
  151.5379  143.6115  161.1955 H   0  0  0  0  0  0  0  0  0  0  0  0
  153.2672  143.7586  161.4015 H   0  0  0  0  0  0  0  0  0  0  0  0
  152.3177  145.7215  160.1719 H   0  0  0  0  0  0  0  0  0  0  0  0
  153.4904  144.8629  159.2020 H   0  0  0  0  0  0  0  0  0  0  0  0
  151.5099  145.3982  157.8309 H   0  0  0  0  0  0  0  0  0  0  0  0
  150.4515  144.6278  158.9886 H   0  0  0  0  0  0  0  0  0  0  0  0
  1  2  2  0  0  0  0
  2  3  1  0  0  0  0
  2 10  1  0  0  0  0
  3  4  1  0  0  0  0
  3 17  1  0  0  0  0
  4  9  1  0  0  0  0
  4  5  2  0  0  0  0
  5  6  1  0  0  0  0
  5 18  1  0  0  0  0
  6  7  2  0  0  0  0
  6 19  1  0  0  0  0
  7  8  1  0  0  0  0
  7 20  1  0  0  0  0
  8  9  2  0  0  0  0
  8 21  1  0  0  0  0
 10 11  1  0  0  0  0
 10 22  1  0  0  0  0
 11 16  1  0  0  0  0
 11 12  1  0  0  0  0
 11 23  1  0  0  0  0
 12 13  1  0  0  0  0
 12 24  1  0  0  0  0
 12 25  1  0  0  0  0
 13 14  1  0  0  0  0
 13 26  1  0  0  0  0
 13 27  1  0  0  0  0
 14 15  1  0  0  0  0
 14 28  1  0  0  0  0
 14 29  1  0  0  0  0
 15 16  1  0  0  0  0
 15 30  1  0  0  0  0
 15 31  1  0  0  0  0
 16 32  1  0  0  0  0
 16 33  1  0  0  0  0
M  END
> <s_m_source_file>
AV-unprocessed.smi

> <i_m_source_file_index>
2947

> <i_lp_mmshare_version>
43012

> <i_f3d_flags>
0

> <s_epik_input>
W0NIMl0xW0NIMl1bQ0gyXVtDSDJdW0NIMl1bQ0hdMVtOSF1DKD1PKVtOSF1jMltjSF1bY0hdW2NIXVtjSF1uMg==

> <s_epik_cmdline>
J2VwaWtfcHl0aG9uJywgJy1waCcsICc3LjAnLCAnLXRuJywgJzgnLCAnLW1hJywgJzIwMCcsICctbWV0YWxfYmluZGluZycsICctaW1hZScsICc8aW5maWxlLm1hZT4nLCAnLW9tYWUnLCAnPG91dGZpbGUubWFlPic=

> <r_lp_tautomer_probability>
1

> <r_epik_Ionization_Penalty>
5.26121e-05

> <r_epik_Ionization_Penalty_Charging>
0

> <r_epik_Ionization_Penalty_Neutral>
5.26121e-05

> <r_epik_State_Penalty>
-0

> <r_epik_Charging_Adjusted_Penalty>
0

> <i_epik_Tot_Q>
0

> <i_epik_Tot_abs_Q>
0

> <r_epik_Metal_State_Penalty>
-0

> <b_epik_Metal_Only>
0

> <s_lp_Force_Field>
OPLS_2005

> <r_lp_Energy>
11.3585

> <b_lp_Chiralities_Consistent>
1

> <s_lp_Variant>
AV-unprocessed.smi:2947-1

> <Gold.Version>
5.8.1

> <Gold.Id.Protein>
6NUR|6NUR_protein|mol2

> <Gold.PLP.Fitness>
43.9735

> <Gold.PLP.PLP>
-35.4905

> <Gold.PLP.part.hbond>
-2.0000

> <Gold.PLP.part.metal>
0.0000

> <Gold.PLP.part.buried>
-2.6327

> <Gold.PLP.part.nonpolar>
-30.6115

> <Gold.PLP.part.repulsive>
0.3447

> <Gold.PLP.ligand.clash>
0.0000

> <Gold.PLP.ligand.torsion>
0.2600

> <Gold.PLP.Chemscore.Hbond>
2.0000

> <Gold.PLP.Chemscore.CHOScore>
1.0000

> <Gold.PLP.Chemscore.Metal>
0.0000

> <Gold.Chemscore.Hbonds>
donor molecule, donor type, donor heavy atom, donor atom, acceptor molecule, acceptor atom, score
      L1  H     3    17       P1  8028  1.00
      L1  H    10    22       P1  8028  1.00
      L1  C     8    21       P1  7948  1.00

> <Gold.PLP.Chemscore.Internal.Correction>
0.0031

> <Gold.Rescore>
     Score         DG    S(hbond)    S(metal)    S(lipo)     H(rot)  DE(clash)    DE(int)     intcor
     17.67     -20.75       1.96        0.00      96.50       1.00       0.13       2.94       ----

> <Gold.Chemscore.Fitness>
17.6703

> <Gold.Chemscore.DG>
-20.7467

> <Gold.Chemscore.ZeroCoef>
-5.4800

> <Gold.Chemscore.Hbond>
1.9570

> <Gold.Chemscore.Metal>
0.0000

> <Gold.Chemscore.Lipo>
96.4982

> <Gold.Chemscore.Internal_Hbond>
0.0000

> <Gold.Chemscore.DEClash>
0.1339

> <Gold.Chemscore.DEInternal>
2.9425

> <Gold.Chemscore.Rot>
1.0000

> <Gold.Chemscore.Internal.Correction>
   9.000000E+99

> <Gold.Chemscore.Hbonds>
donor molecule, donor type, donor heavy atom, donor atom, acceptor molecule, acceptor atom, score
      L1  H     3    17       P1  8028  0.98
      L1  H    10    22       P1  8028  0.98

> <Gold.Chemscore.Hbond.Weighted>
-6.5364

> <Gold.Chemscore.Metal.Weighted>
-0.0000

> <Gold.Chemscore.Lipo.Weighted>
-11.2903

> <Gold.Chemscore.Internal_Hbond.Weighted>
0.0000

> <Gold.Chemscore.DEClash.Weighted>
0.1339

> <Gold.Chemscore.DEInternal.Weighted>
2.9425

> <Gold.Chemscore.Rot.Weighted>
2.5600

> <Gold.Chemscore.Internal.Correction.Weighted>
   9.000000E+99

> <Gold.Protein.RotatedTorsions>
[ 6907 6896 6895 6894 ] final  -33.56 input  -60.11 | X-H torsion
[ 7974 7965 7964 7962 ] final   43.69 input  175.53 | X-H torsion
[ 8008 7997 7996 7995 ] final  165.23 input   59.86 | X-H torsion
[ 10167 10162 10161 10158 ] final    7.87 input  -65.29 | X-H torsion
[ 10718 10713 10712 10709 ] final -132.15 input   66.30 | X-H torsion
[ 10763 10752 10751 10750 ] final  171.18 input  -60.55 | X-H torsion
[ 11005 11000 10999 10996 ] final   77.20 input  -57.11 | X-H torsion

> <Gold.Protein.ActiveResidues>
 VAL166  LYS551  ARG553  GLY616  TRP617  ASP618  TYR619  PRO620  LYS621  CYS622 
 ASP623  PHE694  ASN695  SER759  ASP760  ASP761  ALA762  ILE779  LEU786  VAL792 
 PHE793  MET794  SER795  GLU796  ALA797  LYS798  CYS799  TRP800  GLU811  SER814 

> <Gold.Protein.RotatedAtoms>
  151.0641  134.9756  159.8274 H   0  0  0  0  0  0  0  0  0  0  0  0  # atno 6907 bound_to 6896
  152.5399  134.2381  159.8861 H   0  0  0  0  0  0  0  0  0  0  0  0  # atno 6908 bound_to 6896
  151.2402  133.4360  159.2641 H   0  0  0  0  0  0  0  0  0  0  0  0  # atno 6909 bound_to 6896
  146.0633  139.5158  142.9644 H   0  0  0  0  0  0  0  0  0  0  0  0  # atno 7974 bound_to 7965
  156.1817  140.1675  156.8261 H   0  0  0  0  0  0  0  0  0  0  0  0  # atno 8008 bound_to 7997
  154.5368  140.0745  156.8474 H   0  0  0  0  0  0  0  0  0  0  0  0  # atno 8009 bound_to 7997
  155.3295  140.3378  155.4242 H   0  0  0  0  0  0  0  0  0  0  0  0  # atno 8010 bound_to 7997
  140.6347  143.7914  150.7343 H   0  0  0  0  0  0  0  0  0  0  0  0  # atno 10167 bound_to 10162
  156.2317  130.7041  151.0865 H   0  0  0  0  0  0  0  0  0  0  0  0  # atno 10718 bound_to 10713
  154.4082  135.2756  155.2053 H   0  0  0  0  0  0  0  0  0  0  0  0  # atno 10763 bound_to 10752
  154.4050  135.6035  153.5923 H   0  0  0  0  0  0  0  0  0  0  0  0  # atno 10764 bound_to 10752
  152.9831  135.5935  154.4360 H   0  0  0  0  0  0  0  0  0  0  0  0  # atno 10765 bound_to 10752
  139.9265  134.7663  156.1492 H   0  0  0  0  0  0  0  0  0  0  0  0  # atno 11005 bound_to 11000
  145.6521  141.0260  143.1754 LP  0  0  0  0  0  0  0  0  0  0  0  0  # atno 17320 bound_to 7965
  144.7188  139.8103  143.7389 LP  0  0  0  0  0  0  0  0  0  0  0  0  # atno 17321 bound_to 7965
  140.1532  143.4339  152.2117 LP  0  0  0  0  0  0  0  0  0  0  0  0  # atno 17342 bound_to 10162
  139.5558  144.7371  151.4299 LP  0  0  0  0  0  0  0  0  0  0  0  0  # atno 17343 bound_to 10162
  157.7136  131.0721  150.6411 LP  0  0  0  0  0  0  0  0  0  0  0  0  # atno 17370 bound_to 10713
  156.6479  130.4477  149.5729 LP  0  0  0  0  0  0  0  0  0  0  0  0  # atno 17371 bound_to 10713
  141.0825  133.6748  156.2367 LP  0  0  0  0  0  0  0  0  0  0  0  0  # atno 17394 bound_to 11000
  140.6323  134.5252  157.5561 LP  0  0  0  0  0  0  0  0  0  0  0  0  # atno 17395 bound_to 11000

$$$$
