AV-unprocessed.smi:994|AV-procd|sdf|4343|dock4
  -GOLD-   22720 2243D 1   1.00000     0.00000
 Structure written by MMmdl.
 37 38  0  0  0  0  0  0  0  0  2 V2000
  152.0826  139.2742  157.4111 O   0  0  0  0  0  0  0  0  0  0  0  0
  151.4743  140.3093  157.1359 C   0  0  0  0  0  0  0  0  0  0  0  0
  150.7774  140.4788  156.0007 N   0  0  0  0  0  0  0  0  0  0  0  0
  150.6467  139.5094  154.9128 C   0  0  2  0  0  0  0  0  0  0  0  0
  149.4603  138.5482  155.1491 C   0  0  0  0  0  0  0  0  0  0  0  0
  148.0962  139.1353  154.8818 C   0  0  0  0  0  0  0  0  0  0  0  0
  147.3728  139.1303  153.7067 C   0  0  0  0  0  0  0  0  0  0  0  0
  146.2031  139.8211  153.9681 N   0  0  0  0  0  0  0  0  0  0  0  0
  146.2536  140.2062  155.2436 C   0  0  0  0  0  0  0  0  0  0  0  0
  147.3648  139.8232  155.8580 N   0  0  0  0  0  0  0  0  0  0  0  0
  151.9797  138.7866  154.6982 C   0  0  0  0  0  0  0  0  0  0  0  0
  152.9975  139.4967  154.5376 O   0  0  0  0  0  0  0  0  0  0  0  0
  151.9611  137.5360  154.6946 O   0  5  0  0  0  0  0  0  0  0  0  0
  151.5026  141.5000  158.1022 C   0  0  0  0  0  0  0  0  0  0  0  0
  151.3600  142.8297  157.3305 C   0  0  0  0  0  0  0  0  0  0  0  0
  151.4077  144.0374  158.2801 C   0  0  0  0  0  0  0  0  0  0  0  0
  152.6920  144.0314  159.1242 C   0  0  0  0  0  0  0  0  0  0  0  0
  152.8436  142.7103  159.8948 C   0  0  0  0  0  0  0  0  0  0  0  0
  152.7968  141.5029  158.9438 C   0  0  0  0  0  0  0  0  0  0  0  0
  145.4561  140.0068  153.3142 H   0  0  0  0  0  0  0  0  0  0  0  0
  150.3001  141.3584  155.8667 H   0  0  0  0  0  0  0  0  0  0  0  0
  150.4433  140.0529  153.9877 H   0  0  0  0  0  0  0  0  0  0  0  0
  149.5725  137.6789  154.4999 H   0  0  0  0  0  0  0  0  0  0  0  0
  149.4784  138.1651  156.1704 H   0  0  0  0  0  0  0  0  0  0  0  0
  147.5961  138.7143  152.7354 H   0  0  0  0  0  0  0  0  0  0  0  0
  145.4711  140.7722  155.7272 H   0  0  0  0  0  0  0  0  0  0  0  0
  150.6545  141.4100  158.7839 H   0  0  0  0  0  0  0  0  0  0  0  0
  152.1571  142.9237  156.5910 H   0  0  0  0  0  0  0  0  0  0  0  0
  150.4217  142.8407  156.7738 H   0  0  0  0  0  0  0  0  0  0  0  0
  151.3433  144.9630  157.7075 H   0  0  0  0  0  0  0  0  0  0  0  0
  150.5377  144.0193  158.9377 H   0  0  0  0  0  0  0  0  0  0  0  0
  153.5563  144.1767  158.4748 H   0  0  0  0  0  0  0  0  0  0  0  0
  152.6838  144.8701  159.8209 H   0  0  0  0  0  0  0  0  0  0  0  0
  153.7816  142.7095  160.4506 H   0  0  0  0  0  0  0  0  0  0  0  0
  152.0462  142.6243  160.6339 H   0  0  0  0  0  0  0  0  0  0  0  0
  152.8698  140.5807  159.5220 H   0  0  0  0  0  0  0  0  0  0  0  0
  153.6711  141.5275  158.2912 H   0  0  0  0  0  0  0  0  0  0  0  0
  1  2  2  0  0  0  0
  2  3  1  0  0  0  0
  2 14  1  0  0  0  0
  3  4  1  0  0  0  0
  3 21  1  0  0  0  0
  4  5  1  0  0  0  0
  4 11  1  0  0  0  0
  4 22  1  0  0  0  0
  5  6  1  0  0  0  0
  5 23  1  0  0  0  0
  5 24  1  0  0  0  0
  6 10  1  0  0  0  0
  6  7  2  0  0  0  0
  7  8  1  0  0  0  0
  7 25  1  0  0  0  0
  8 20  1  0  0  0  0
  8  9  1  0  0  0  0
  9 10  2  0  0  0  0
  9 26  1  0  0  0  0
 11 12  2  0  0  0  0
 11 13  1  0  0  0  0
 14 19  1  0  0  0  0
 14 15  1  0  0  0  0
 14 27  1  0  0  0  0
 15 16  1  0  0  0  0
 15 28  1  0  0  0  0
 15 29  1  0  0  0  0
 16 17  1  0  0  0  0
 16 30  1  0  0  0  0
 16 31  1  0  0  0  0
 17 18  1  0  0  0  0
 17 32  1  0  0  0  0
 17 33  1  0  0  0  0
 18 19  1  0  0  0  0
 18 34  1  0  0  0  0
 18 35  1  0  0  0  0
 19 36  1  0  0  0  0
 19 37  1  0  0  0  0
M  CHG  1  13  -1
M  END
> <s_m_source_file>
AV-unprocessed.smi

> <i_m_source_file_index>
994

> <i_lp_mmshare_version>
43012

> <i_f3d_flags>
0

> <s_epik_input>
W0NIMl0xW0NIMl1bQ0gyXVtDSDJdW0NIMl1bQ0hdMUMoPU8pW05IXVtDQEBIXShDKD1PKVtPSF0pW0NIMl1jMltjSF1bbkhdW2NIXW4y

> <s_epik_cmdline>
J2VwaWtfcHl0aG9uJywgJy1waCcsICc3LjAnLCAnLXRuJywgJzgnLCAnLW1hJywgJzIwMCcsICctbWV0YWxfYmluZGluZycsICctaW1hZScsICc8aW5maWxlLm1hZT4nLCAnLW9tYWUnLCAnPG91dGZpbGUubWFlPic=

> <r_lp_tautomer_probability>
0.5

> <r_epik_Ionization_Penalty>
0.836077

> <r_epik_Ionization_Penalty_Charging>
0.836077

> <r_epik_Ionization_Penalty_Neutral>
7.85059e-08

> <r_epik_State_Penalty>
0.938582

> <r_epik_Charging_Adjusted_Penalty>
1.77466

> <i_epik_Tot_Q>
-1

> <i_epik_Tot_abs_Q>
1

> <r_epik_Metal_State_Penalty>
0.523638

> <b_epik_Metal_Only>
0

> <s_lp_Force_Field>
OPLS_2005

> <r_lp_Energy>
9.63069

> <b_lp_Chiralities_Consistent>
1

> <s_lp_Variant>
AV-unprocessed.smi:994-5

> <Gold.Version>
5.8.1

> <Gold.Id.Protein>
6NUR|6NUR_protein|mol2

> <Gold.PLP.Fitness>
50.0218

> <Gold.PLP.PLP>
-36.0881

> <Gold.PLP.part.hbond>
-3.9768

> <Gold.PLP.part.metal>
0.0000

> <Gold.PLP.part.buried>
-4.5526

> <Gold.PLP.part.nonpolar>
-28.8003

> <Gold.PLP.part.repulsive>
0.2424

> <Gold.PLP.ligand.clash>
0.0000

> <Gold.PLP.ligand.torsion>
1.6760

> <Gold.PLP.Chemscore.Hbond>
4.2457

> <Gold.PLP.Chemscore.CHOScore>
1.4873

> <Gold.PLP.Chemscore.Metal>
0.0000

> <Gold.Chemscore.Hbonds>
donor molecule, donor type, donor heavy atom, donor atom, acceptor molecule, acceptor atom, score
      L1  H     8    20       P1 10175  1.00
      P1  H  7989  7998       L1    12  0.08
      P1  H  7997  8010       L1    12  1.46
      P1  H 10752 10764       L1    13  1.16
      L1  C     7    25       P1  7957  0.14

> <Gold.PLP.Chemscore.Internal.Correction>
0.0864

> <Gold.Rescore>
     Score         DG    S(hbond)    S(metal)    S(lipo)     H(rot)  DE(clash)    DE(int)     intcor
     14.63     -17.48       2.73        0.00      82.94       2.66       0.28       2.57       ----

> <Gold.Chemscore.Fitness>
14.6295

> <Gold.Chemscore.DG>
-17.4812

> <Gold.Chemscore.ZeroCoef>
-5.4800

> <Gold.Chemscore.Hbond>
2.7253

> <Gold.Chemscore.Metal>
0.0000

> <Gold.Chemscore.Lipo>
82.9359

> <Gold.Chemscore.Internal_Hbond>
0.0000

> <Gold.Chemscore.DEClash>
0.2793

> <Gold.Chemscore.DEInternal>
2.5725

> <Gold.Chemscore.Rot>
2.6581

> <Gold.Chemscore.Internal.Correction>
   9.000000E+99

> <Gold.Chemscore.Hbonds>
donor molecule, donor type, donor heavy atom, donor atom, acceptor molecule, acceptor atom, score
      L1  H     8    20       P1 10175  0.94
      P1  H  7997  8010       L1    12  0.72
      P1  H 10752 10764       L1    13  0.59

> <Gold.Chemscore.Hbond.Weighted>
-9.1026

> <Gold.Chemscore.Metal.Weighted>
-0.0000

> <Gold.Chemscore.Lipo.Weighted>
-9.7035

> <Gold.Chemscore.Internal_Hbond.Weighted>
0.0000

> <Gold.Chemscore.DEClash.Weighted>
0.2793

> <Gold.Chemscore.DEInternal.Weighted>
2.5725

> <Gold.Chemscore.Rot.Weighted>
6.8048

> <Gold.Chemscore.Internal.Correction.Weighted>
   9.000000E+99

> <Gold.Protein.RotatedTorsions>
[ 6907 6896 6895 6894 ] final  141.05 input  -60.11 | X-H torsion
[ 7974 7965 7964 7962 ] final  151.39 input  175.53 | X-H torsion
[ 8008 7997 7996 7995 ] final   96.13 input   59.86 | X-H torsion
[ 10167 10162 10161 10158 ] final  176.66 input  -65.29 | X-H torsion
[ 10718 10713 10712 10709 ] final  164.90 input   66.30 | X-H torsion
[ 10763 10752 10751 10750 ] final  -64.56 input  -60.55 | X-H torsion
[ 11005 11000 10999 10996 ] final  -98.05 input  -57.11 | X-H torsion

> <Gold.Protein.ActiveResidues>
 VAL166  LYS551  ARG553  GLY616  TRP617  ASP618  TYR619  PRO620  LYS621  CYS622 
 ASP623  PHE694  ASN695  SER759  ASP760  ASP761  ALA762  ILE779  LEU786  VAL792 
 PHE793  MET794  SER795  GLU796  ALA797  LYS798  CYS799  TRP800  GLU811  SER814 

> <Gold.Protein.RotatedAtoms>
  152.2357  133.5094  159.5240 H   0  0  0  0  0  0  0  0  0  0  0  0  # atno 6907 bound_to 6896
  150.7050  134.1157  159.4025 H   0  0  0  0  0  0  0  0  0  0  0  0  # atno 6908 bound_to 6896
  151.9078  135.0351  160.0562 H   0  0  0  0  0  0  0  0  0  0  0  0  # atno 6909 bound_to 6896
  144.8296  139.6532  143.6065 H   0  0  0  0  0  0  0  0  0  0  0  0  # atno 7974 bound_to 7965
  156.0763  140.3277  155.7638 H   0  0  0  0  0  0  0  0  0  0  0  0  # atno 8008 bound_to 7997
  155.5224  140.0586  157.2921 H   0  0  0  0  0  0  0  0  0  0  0  0  # atno 8009 bound_to 7997
  154.4557  140.1941  156.0403 H   0  0  0  0  0  0  0  0  0  0  0  0  # atno 8010 bound_to 7997
  139.5223  144.2890  152.0480 H   0  0  0  0  0  0  0  0  0  0  0  0  # atno 10167 bound_to 10162
  157.0878  131.0409  151.2549 H   0  0  0  0  0  0  0  0  0  0  0  0  # atno 10718 bound_to 10713
  154.3320  135.6174  153.5555 H   0  0  0  0  0  0  0  0  0  0  0  0  # atno 10763 bound_to 10752
  152.9811  135.5749  154.4951 H   0  0  0  0  0  0  0  0  0  0  0  0  # atno 10764 bound_to 10752
  154.4639  135.2857  155.1669 H   0  0  0  0  0  0  0  0  0  0  0  0  # atno 10765 bound_to 10752
  141.1358  133.8217  157.0788 H   0  0  0  0  0  0  0  0  0  0  0  0  # atno 11005 bound_to 11000
  146.2599  139.6387  142.9369 LP  0  0  0  0  0  0  0  0  0  0  0  0  # atno 17320 bound_to 7965
  145.4925  141.0438  143.2585 LP  0  0  0  0  0  0  0  0  0  0  0  0  # atno 17321 bound_to 7965
  140.2342  144.4337  150.6287 LP  0  0  0  0  0  0  0  0  0  0  0  0  # atno 17342 bound_to 10162
  140.6335  143.2191  151.6445 LP  0  0  0  0  0  0  0  0  0  0  0  0  # atno 17343 bound_to 10162
  157.4746  130.7729  149.7356 LP  0  0  0  0  0  0  0  0  0  0  0  0  # atno 17370 bound_to 10713
  155.9906  130.3943  150.3021 LP  0  0  0  0  0  0  0  0  0  0  0  0  # atno 17371 bound_to 10713
  140.0464  134.9828  157.1057 LP  0  0  0  0  0  0  0  0  0  0  0  0  # atno 17394 bound_to 11000
  140.4056  134.2036  155.7163 LP  0  0  0  0  0  0  0  0  0  0  0  0  # atno 17395 bound_to 11000

$$$$
