AV-unprocessed.smi:2536|AV-procd|sdf|9979|dock5
  -GOLD-   2272014 23D 1   1.00000     0.00000
 Structure written by MMmdl.
 32 33  0  0  0  0  0  0  0  0  1 V2000
  150.9367  137.9480  154.0652 C   0  0  0  0  0  0  0  0  0  0  0  0
  150.9081  139.2640  154.8191 C   0  0  0  0  0  0  0  0  0  0  0  0
  150.0357  140.3025  154.4287 C   0  0  0  0  0  0  0  0  0  0  0  0
  149.9938  141.4845  155.0804 N   0  0  0  0  0  0  0  0  0  0  0  0
  150.8187  141.6345  156.1186 C   0  0  0  0  0  0  0  0  0  0  0  0
  150.7507  142.8598  156.7576 N   0  0  0  0  0  0  0  0  0  0  0  0
  151.6425  143.3007  157.8230 C   0  0  1  0  0  0  0  0  0  0  0  0
  151.2758  144.7080  158.3254 C   0  0  0  0  0  0  0  0  0  0  0  0
  152.1760  145.0887  159.5054 C   0  0  0  0  0  0  0  0  0  0  0  0
  152.1262  144.0003  160.5891 C   0  0  0  0  0  0  0  0  0  0  0  0
  152.4953  142.7434  160.0311 O   0  0  0  0  0  0  0  0  0  0  0  0
  151.6136  142.3085  159.0007 C   0  0  0  0  0  0  0  0  0  0  0  0
  151.6821  140.7222  156.5791 N   0  0  0  0  0  0  0  0  0  0  0  0
  151.7349  139.5344  155.9369 C   0  0  0  0  0  0  0  0  0  0  0  0
  152.7343  138.5372  156.4951 C   0  0  0  0  0  0  0  0  0  0  0  0
  150.2359  137.9579  153.2300 H   0  0  0  0  0  0  0  0  0  0  0  0
  150.6623  137.1243  154.7248 H   0  0  0  0  0  0  0  0  0  0  0  0
  151.9337  137.7593  153.6662 H   0  0  0  0  0  0  0  0  0  0  0  0
  149.3676  140.1887  153.5878 H   0  0  0  0  0  0  0  0  0  0  0  0
  150.0807  143.5244  156.3992 H   0  0  0  0  0  0  0  0  0  0  0  0
  152.6602  143.3209  157.4310 H   0  0  0  0  0  0  0  0  0  0  0  0
  151.3770  145.4454  157.5288 H   0  0  0  0  0  0  0  0  0  0  0  0
  150.2320  144.7303  158.6421 H   0  0  0  0  0  0  0  0  0  0  0  0
  153.2027  145.2111  159.1583 H   0  0  0  0  0  0  0  0  0  0  0  0
  151.8684  146.0490  159.9199 H   0  0  0  0  0  0  0  0  0  0  0  0
  152.8170  144.2436  161.3966 H   0  0  0  0  0  0  0  0  0  0  0  0
  151.1304  143.9362  161.0303 H   0  0  0  0  0  0  0  0  0  0  0  0
  150.6032  142.1980  159.3987 H   0  0  0  0  0  0  0  0  0  0  0  0
  151.9335  141.3206  158.6677 H   0  0  0  0  0  0  0  0  0  0  0  0
  152.6878  137.5690  155.9992 H   0  0  0  0  0  0  0  0  0  0  0  0
  152.5483  138.3753  157.5572 H   0  0  0  0  0  0  0  0  0  0  0  0
  153.7476  138.9237  156.3835 H   0  0  0  0  0  0  0  0  0  0  0  0
  1  2  1  0  0  0  0
  1 16  1  0  0  0  0
  1 17  1  0  0  0  0
  1 18  1  0  0  0  0
  2 14  1  0  0  0  0
  2  3  2  0  0  0  0
  3  4  1  0  0  0  0
  3 19  1  0  0  0  0
  4  5  2  0  0  0  0
  5  6  1  0  0  0  0
  5 13  1  0  0  0  0
  6  7  1  0  0  0  0
  6 20  1  0  0  0  0
  7 12  1  0  0  0  0
  7  8  1  0  0  0  0
  7 21  1  0  0  0  0
  8  9  1  0  0  0  0
  8 22  1  0  0  0  0
  8 23  1  0  0  0  0
  9 10  1  0  0  0  0
  9 24  1  0  0  0  0
  9 25  1  0  0  0  0
 10 11  1  0  0  0  0
 10 26  1  0  0  0  0
 10 27  1  0  0  0  0
 11 12  1  0  0  0  0
 12 28  1  0  0  0  0
 12 29  1  0  0  0  0
 13 14  2  0  0  0  0
 14 15  1  0  0  0  0
 15 30  1  0  0  0  0
 15 31  1  0  0  0  0
 15 32  1  0  0  0  0
M  END
> <s_m_source_file>
AV-unprocessed.smi

> <i_m_source_file_index>
2536

> <i_lp_mmshare_version>
43012

> <i_f3d_flags>
0

> <s_epik_input>
W0NIM11jMVtjSF1uYyhuYzFbQ0gzXSlbTkhdW0NAQEhdMltDSDJdW0NIMl1bQ0gyXU9bQ0gyXTI=

> <s_epik_cmdline>
J2VwaWtfcHl0aG9uJywgJy1waCcsICc3LjAnLCAnLXRuJywgJzgnLCAnLW1hJywgJzIwMCcsICctbWV0YWxfYmluZGluZycsICctaW1hZScsICc8aW5maWxlLm1hZT4nLCAnLW9tYWUnLCAnPG91dGZpbGUubWFlPic=

> <r_lp_tautomer_probability>
1

> <r_epik_Ionization_Penalty>
0.00982357

> <r_epik_Ionization_Penalty_Charging>
0

> <r_epik_Ionization_Penalty_Neutral>
0.00982357

> <r_epik_State_Penalty>
0.0064698

> <r_epik_Charging_Adjusted_Penalty>
0.0064698

> <i_epik_Tot_Q>
0

> <i_epik_Tot_abs_Q>
0

> <r_epik_Metal_State_Penalty>
-0

> <b_epik_Metal_Only>
0

> <s_lp_Force_Field>
OPLS_2005

> <r_lp_Energy>
1.83983

> <b_lp_Chiralities_Consistent>
1

> <s_lp_Variant>
AV-unprocessed.smi:2536-2

> <Gold.Version>
5.8.1

> <Gold.Id.Protein>
6NUR|6NUR_protein|mol2

> <Gold.PLP.Fitness>
39.7519

> <Gold.PLP.PLP>
-33.7787

> <Gold.PLP.part.hbond>
-1.8375

> <Gold.PLP.part.metal>
0.0000

> <Gold.PLP.part.buried>
-2.6780

> <Gold.PLP.part.nonpolar>
-29.6434

> <Gold.PLP.part.repulsive>
0.1731

> <Gold.PLP.ligand.clash>
0.0000

> <Gold.PLP.ligand.torsion>
0.0149

> <Gold.PLP.Chemscore.Hbond>
1.0000

> <Gold.PLP.Chemscore.CHOScore>
1.0000

> <Gold.PLP.Chemscore.Metal>
0.0000

> <Gold.Chemscore.Hbonds>
donor molecule, donor type, donor heavy atom, donor atom, acceptor molecule, acceptor atom, score
      L1  H     6    20       P1  8028  1.00
      L1  C     3    19       P1  7957  1.00

> <Gold.PLP.Chemscore.Internal.Correction>
0.0029

> <Gold.Rescore>
     Score         DG    S(hbond)    S(metal)    S(lipo)     H(rot)  DE(clash)    DE(int)     intcor
     16.28     -17.54       1.00        0.00      96.40       1.00       0.12       1.14       ----

> <Gold.Chemscore.Fitness>
16.2753

> <Gold.Chemscore.DG>
-17.5390

> <Gold.Chemscore.ZeroCoef>
-5.4800

> <Gold.Chemscore.Hbond>
1.0000

> <Gold.Chemscore.Metal>
0.0000

> <Gold.Chemscore.Lipo>
96.4021

> <Gold.Chemscore.Internal_Hbond>
0.0000

> <Gold.Chemscore.DEClash>
0.1245

> <Gold.Chemscore.DEInternal>
1.1393

> <Gold.Chemscore.Rot>
1.0000

> <Gold.Chemscore.Internal.Correction>
   9.000000E+99

> <Gold.Chemscore.Hbonds>
donor molecule, donor type, donor heavy atom, donor atom, acceptor molecule, acceptor atom, score
      L1  H     6    20       P1  8028  1.00

> <Gold.Chemscore.Hbond.Weighted>
-3.3400

> <Gold.Chemscore.Metal.Weighted>
-0.0000

> <Gold.Chemscore.Lipo.Weighted>
-11.2790

> <Gold.Chemscore.Internal_Hbond.Weighted>
0.0000

> <Gold.Chemscore.DEClash.Weighted>
0.1245

> <Gold.Chemscore.DEInternal.Weighted>
1.1393

> <Gold.Chemscore.Rot.Weighted>
2.5600

> <Gold.Chemscore.Internal.Correction.Weighted>
   9.000000E+99

> <Gold.Protein.RotatedTorsions>
[ 6907 6896 6895 6894 ] final -143.64 input  -60.11 | X-H torsion
[ 7974 7965 7964 7962 ] final   10.19 input  175.53 | X-H torsion
[ 8008 7997 7996 7995 ] final  -76.58 input   59.86 | X-H torsion
[ 10167 10162 10161 10158 ] final  -10.04 input  -65.29 | X-H torsion
[ 10718 10713 10712 10709 ] final  -87.35 input   66.30 | X-H torsion
[ 10763 10752 10751 10750 ] final   29.52 input  -60.55 | X-H torsion
[ 11005 11000 10999 10996 ] final  -37.56 input  -57.11 | X-H torsion

> <Gold.Protein.ActiveResidues>
 VAL166  LYS551  ARG553  GLY616  TRP617  ASP618  TYR619  PRO620  LYS621  CYS622 
 ASP623  PHE694  ASN695  SER759  ASP760  ASP761  ALA762  ILE779  LEU786  VAL792 
 PHE793  MET794  SER795  GLU796  ALA797  LYS798  CYS799  TRP800  GLU811  SER814 

> <Gold.Protein.RotatedAtoms>
  151.1031  133.5228  159.2608 H   0  0  0  0  0  0  0  0  0  0  0  0  # atno 6907 bound_to 6896
  151.2051  135.0458  159.8898 H   0  0  0  0  0  0  0  0  0  0  0  0  # atno 6908 bound_to 6896
  152.5444  134.0854  159.8307 H   0  0  0  0  0  0  0  0  0  0  0  0  # atno 6909 bound_to 6896
  146.2392  139.9671  142.8451 H   0  0  0  0  0  0  0  0  0  0  0  0  # atno 7974 bound_to 7965
  154.5518  140.0724  156.8680 H   0  0  0  0  0  0  0  0  0  0  0  0  # atno 8008 bound_to 7997
  155.2978  140.3382  155.4231 H   0  0  0  0  0  0  0  0  0  0  0  0  # atno 8009 bound_to 7997
  156.1968  140.1706  156.7968 H   0  0  0  0  0  0  0  0  0  0  0  0  # atno 8010 bound_to 7997
  140.7103  143.5791  150.9010 H   0  0  0  0  0  0  0  0  0  0  0  0  # atno 10167 bound_to 10162
  155.9986  130.4797  150.4853 H   0  0  0  0  0  0  0  0  0  0  0  0  # atno 10718 bound_to 10713
  153.0425  135.6487  154.0904 H   0  0  0  0  0  0  0  0  0  0  0  0  # atno 10763 bound_to 10752
  154.0608  135.2888  155.3326 H   0  0  0  0  0  0  0  0  0  0  0  0  # atno 10764 bound_to 10752
  154.6659  135.5374  153.8141 H   0  0  0  0  0  0  0  0  0  0  0  0  # atno 10765 bound_to 10752
  140.9961  133.6979  156.1937 H   0  0  0  0  0  0  0  0  0  0  0  0  # atno 11005 bound_to 11000
  145.1716  140.9724  143.4318 LP  0  0  0  0  0  0  0  0  0  0  0  0  # atno 17320 bound_to 7965
  145.0023  139.3587  143.6161 LP  0  0  0  0  0  0  0  0  0  0  0  0  # atno 17321 bound_to 7965
  139.9517  143.6264  152.3027 LP  0  0  0  0  0  0  0  0  0  0  0  0  # atno 17342 bound_to 10162
  139.6785  144.7657  151.1652 LP  0  0  0  0  0  0  0  0  0  0  0  0  # atno 17343 bound_to 10162
  157.2854  131.0615  151.2170 LP  0  0  0  0  0  0  0  0  0  0  0  0  # atno 17370 bound_to 10713
  157.3201  130.6933  149.6264 LP  0  0  0  0  0  0  0  0  0  0  0  0  # atno 17371 bound_to 10713
  140.6964  134.4611  157.5587 LP  0  0  0  0  0  0  0  0  0  0  0  0  # atno 17394 bound_to 11000
  139.9015  134.8544  156.1875 LP  0  0  0  0  0  0  0  0  0  0  0  0  # atno 17395 bound_to 11000

$$$$
