AV-unprocessed.smi:40|AV-procd|sdf|368|dock7
  -GOLD-   2262016213D 1   1.00000     0.00000
 Structure written by MMmdl.
 47 48  0  0  0  0  0  0  0  0  1 V2000
  152.3698  143.0709  161.9893 C   0  0  0  0  0  0  0  0  0  0  0  0
  152.4039  143.0719  160.4553 C   0  0  0  0  0  0  0  0  0  0  0  0
  152.5042  141.6680  159.8364 C   0  0  0  0  0  0  0  0  0  0  0  0
  153.7303  140.8677  160.3113 C   0  0  0  0  0  0  0  0  0  0  0  0
  153.4890  139.3523  160.3261 C   0  0  0  0  0  0  0  0  0  0  0  0
  152.9296  138.9477  159.0876 O   0  0  0  0  0  0  0  0  0  0  0  0
  152.2938  137.7675  158.9799 C   0  0  0  0  0  0  0  0  0  0  0  0
  152.1444  136.9797  159.9136 O   0  0  0  0  0  0  0  0  0  0  0  0
  151.8422  137.5217  157.6194 N   0  0  0  0  0  0  0  0  0  0  0  0
  151.1712  136.4574  157.1131 C   0  0  0  0  0  0  0  0  0  0  0  0
  150.4998  135.6038  157.8710 N   0  0  0  0  0  0  0  0  0  0  0  0
  149.8293  134.5131  157.3875 C   0  0  0  0  0  0  0  0  0  0  0  0
  149.2280  133.7549  158.1473 O   0  0  0  0  0  0  0  0  0  0  0  0
  149.8657  134.2938  155.9909 N   0  0  0  0  0  0  0  0  0  0  0  0
  149.1386  133.0873  155.4331 C   0  0  1  0  0  0  0  0  0  0  0  0
  149.0873  133.1781  154.0374 O   0  0  0  0  0  0  0  0  0  0  0  0
  149.8722  132.1454  153.4490 C   0  0  2  0  0  0  0  0  0  0  0  0
  149.3325  131.8048  152.0554 C   0  0  0  0  0  0  0  0  0  0  0  0
  149.7613  131.0072  154.4606 C   0  0  1  0  0  0  0  0  0  0  0  0
  150.7765  130.0330  154.3086 O   0  0  0  0  0  0  0  0  0  0  0  0
  149.8198  131.7459  155.7933 C   0  0  1  0  0  0  0  0  0  0  0  0
  151.1510  131.8918  156.2668 O   0  0  0  0  0  0  0  0  0  0  0  0
  150.5815  135.1623  155.1798 C   0  0  0  0  0  0  0  0  0  0  0  0
  151.2356  136.2303  155.6849 C   0  0  0  0  0  0  0  0  0  0  0  0
  151.9249  137.0566  154.8790 F   0  0  0  0  0  0  0  0  0  0  0  0
  148.1115  133.1573  155.7951 H   0  0  0  0  0  0  0  0  0  0  0  0
  150.9069  132.4840  153.3793 H   0  0  0  0  0  0  0  0  0  0  0  0
  148.7877  130.5243  154.3635 H   0  0  0  0  0  0  0  0  0  0  0  0
  149.2373  131.2353  156.5609 H   0  0  0  0  0  0  0  0  0  0  0  0
  152.3578  144.0905  162.3753 H   0  0  0  0  0  0  0  0  0  0  0  0
  153.2467  142.5714  162.4020 H   0  0  0  0  0  0  0  0  0  0  0  0
  151.4830  142.5664  162.3716 H   0  0  0  0  0  0  0  0  0  0  0  0
  151.5252  143.5872  160.0655 H   0  0  0  0  0  0  0  0  0  0  0  0
  153.2647  143.6576  160.1309 H   0  0  0  0  0  0  0  0  0  0  0  0
  151.6001  141.1161  160.0968 H   0  0  0  0  0  0  0  0  0  0  0  0
  152.5079  141.7446  158.7485 H   0  0  0  0  0  0  0  0  0  0  0  0
  154.5772  141.0731  159.6572 H   0  0  0  0  0  0  0  0  0  0  0  0
  154.0252  141.1983  161.3080 H   0  0  0  0  0  0  0  0  0  0  0  0
  154.4241  138.8199  160.5048 H   0  0  0  0  0  0  0  0  0  0  0  0
  152.8052  139.0958  161.1362 H   0  0  0  0  0  0  0  0  0  0  0  0
  152.0308  138.2819  156.9823 H   0  0  0  0  0  0  0  0  0  0  0  0
  149.9061  130.9970  151.6006 H   0  0  0  0  0  0  0  0  0  0  0  0
  149.3923  132.6695  151.3945 H   0  0  0  0  0  0  0  0  0  0  0  0
  148.2893  131.4906  152.1005 H   0  0  0  0  0  0  0  0  0  0  0  0
  151.4964  130.4221  153.8358 H   0  0  0  0  0  0  0  0  0  0  0  0
  151.7412  131.5924  155.5926 H   0  0  0  0  0  0  0  0  0  0  0  0
  150.6358  134.9983  154.1145 H   0  0  0  0  0  0  0  0  0  0  0  0
  1  2  1  0  0  0  0
  1 30  1  0  0  0  0
  1 31  1  0  0  0  0
  1 32  1  0  0  0  0
  2  3  1  0  0  0  0
  2 33  1  0  0  0  0
  2 34  1  0  0  0  0
  3  4  1  0  0  0  0
  3 35  1  0  0  0  0
  3 36  1  0  0  0  0
  4  5  1  0  0  0  0
  4 37  1  0  0  0  0
  4 38  1  0  0  0  0
  5  6  1  0  0  0  0
  5 39  1  0  0  0  0
  5 40  1  0  0  0  0
  6  7  1  0  0  0  0
  7  8  2  0  0  0  0
  7  9  1  0  0  0  0
  9 10  1  0  0  0  0
  9 41  1  0  0  0  0
 10 24  1  0  0  0  0
 10 11  2  0  0  0  0
 11 12  1  0  0  0  0
 12 13  2  0  0  0  0
 12 14  1  0  0  0  0
 14 15  1  0  0  0  0
 14 23  1  0  0  0  0
 15 26  1  0  0  0  0
 15 21  1  0  0  0  0
 15 16  1  0  0  0  0
 16 17  1  0  0  0  0
 17 27  1  0  0  0  0
 17 18  1  0  0  0  0
 17 19  1  0  0  0  0
 18 42  1  0  0  0  0
 18 43  1  0  0  0  0
 18 44  1  0  0  0  0
 19 28  1  0  0  0  0
 19 20  1  0  0  0  0
 19 21  1  0  0  0  0
 20 45  1  0  0  0  0
 21 29  1  0  0  0  0
 21 22  1  0  0  0  0
 22 46  1  0  0  0  0
 23 24  2  0  0  0  0
 23 47  1  0  0  0  0
 24 25  1  0  0  0  0
M  END
> <s_m_source_file>
AV-unprocessed.smi

> <i_m_source_file_index>
40

> <i_lp_mmshare_version>
43012

> <i_f3d_flags>
0

> <s_epik_input>
W0NIM11bQ0gyXVtDSDJdW0NIMl1bQ0gyXU9DKD1PKVtOSF1jMW5jKD1PKW4oW2NIXWMxRilbQ0BASF0yT1tDQEhdKFtDSDNdKVtDQEBIXShbT0hdKVtDQEhdMltPSF0=

> <s_epik_cmdline>
J2VwaWtfcHl0aG9uJywgJy1waCcsICc3LjAnLCAnLXRuJywgJzgnLCAnLW1hJywgJzIwMCcsICctbWV0YWxfYmluZGluZycsICctaW1hZScsICc8aW5maWxlLm1hZT4nLCAnLW9tYWUnLCAnPG91dGZpbGUubWFlPic=

> <r_lp_tautomer_probability>
1

> <r_epik_Ionization_Penalty>
2.29506e-06

> <r_epik_Ionization_Penalty_Charging>
8.26867e-09

> <r_epik_Ionization_Penalty_Neutral>
2.2868e-06

> <r_epik_State_Penalty>
-0

> <r_epik_Charging_Adjusted_Penalty>
8.26867e-09

> <i_epik_Tot_Q>
0

> <i_epik_Tot_abs_Q>
0

> <r_epik_Metal_State_Penalty>
-0

> <b_epik_Metal_Only>
0

> <s_epik_Chemistry_Notes>
This compound has an ester and may undergo hydrolysis at high or low pH. This compound contains an acetal/aminal-like group ( X-CH(R)-Y where X, Y are N, S, or O) that may be acid/base labile, releasing an aldehyde.

> <s_lp_Force_Field>
OPLS_2005

> <r_lp_Energy>
42.3286

> <b_lp_Chiralities_Consistent>
1

> <s_lp_Variant>
AV-unprocessed.smi:40-2

> <Gold.Version>
5.8.1

> <Gold.Id.Protein>
6NUR|6NUR_protein|mol2

> <Gold.PLP.Fitness>
43.1811

> <Gold.PLP.PLP>
-36.4024

> <Gold.PLP.part.hbond>
-3.0000

> <Gold.PLP.part.metal>
0.0000

> <Gold.PLP.part.buried>
-4.0368

> <Gold.PLP.part.nonpolar>
-29.1359

> <Gold.PLP.part.repulsive>
0.1469

> <Gold.PLP.ligand.clash>
0.0000

> <Gold.PLP.ligand.torsion>
0.6215

> <Gold.PLP.Chemscore.Hbond>
1.6443

> <Gold.PLP.Chemscore.CHOScore>
1.0000

> <Gold.PLP.Chemscore.Metal>
0.0000

> <Gold.Chemscore.Hbonds>
donor molecule, donor type, donor heavy atom, donor atom, acceptor molecule, acceptor atom, score
      P1  H  6896  6907       L1    13  0.30
      P1  H  6896  6908       L1     8  1.00
      L1  C    23    47       P1  7949  0.10

> <Gold.PLP.Chemscore.Internal.Correction>
0.0889

> <Gold.Rescore>
     Score         DG    S(hbond)    S(metal)    S(lipo)     H(rot)  DE(clash)    DE(int)     intcor
      6.81      -8.60       0.99        0.00      79.18       3.70       0.01       1.78       ----

> <Gold.Chemscore.Fitness>
6.8083

> <Gold.Chemscore.DG>
-8.6022

> <Gold.Chemscore.ZeroCoef>
-5.4800

> <Gold.Chemscore.Hbond>
0.9937

> <Gold.Chemscore.Metal>
0.0000

> <Gold.Chemscore.Lipo>
79.1826

> <Gold.Chemscore.Internal_Hbond>
0.0000

> <Gold.Chemscore.DEClash>
0.0135

> <Gold.Chemscore.DEInternal>
1.7804

> <Gold.Chemscore.Rot>
3.6957

> <Gold.Chemscore.Internal.Correction>
   9.000000E+99

> <Gold.Chemscore.Hbonds>
donor molecule, donor type, donor heavy atom, donor atom, acceptor molecule, acceptor atom, score
      P1  H  6896  6908       L1     8  1.00

> <Gold.Chemscore.Hbond.Weighted>
-3.3188

> <Gold.Chemscore.Metal.Weighted>
-0.0000

> <Gold.Chemscore.Lipo.Weighted>
-9.2644

> <Gold.Chemscore.Internal_Hbond.Weighted>
0.0000

> <Gold.Chemscore.DEClash.Weighted>
0.0135

> <Gold.Chemscore.DEInternal.Weighted>
1.7804

> <Gold.Chemscore.Rot.Weighted>
9.4610

> <Gold.Chemscore.Internal.Correction.Weighted>
   9.000000E+99

> <Gold.Protein.RotatedTorsions>
[ 6907 6896 6895 6894 ] final -107.61 input  -60.11 | X-H torsion
[ 7974 7965 7964 7962 ] final   34.57 input  175.53 | X-H torsion
[ 8008 7997 7996 7995 ] final  146.79 input   59.86 | X-H torsion
[ 10167 10162 10161 10158 ] final   10.49 input  -65.29 | X-H torsion
[ 10718 10713 10712 10709 ] final   67.56 input   66.30 | X-H torsion
[ 10763 10752 10751 10750 ] final   22.00 input  -60.55 | X-H torsion
[ 11005 11000 10999 10996 ] final  -68.50 input  -57.11 | X-H torsion

> <Gold.Protein.ActiveResidues>
 VAL166  LYS551  ARG553  GLY616  TRP617  ASP618  TYR619  PRO620  LYS621  CYS622 
 ASP623  PHE694  ASN695  SER759  ASP760  ASP761  ALA762  ILE779  LEU786  VAL792 
 PHE793  MET794  SER795  GLU796  ALA797  LYS798  CYS799  TRP800  GLU811  SER814 

> <Gold.Protein.RotatedAtoms>
  150.7454  133.9801  159.3573 H   0  0  0  0  0  0  0  0  0  0  0  0  # atno 6907 bound_to 6896
  151.7741  135.0776  160.0373 H   0  0  0  0  0  0  0  0  0  0  0  0  # atno 6908 bound_to 6896
  152.3319  133.5931  159.5851 H   0  0  0  0  0  0  0  0  0  0  0  0  # atno 6909 bound_to 6896
  146.1344  139.6252  142.9205 H   0  0  0  0  0  0  0  0  0  0  0  0  # atno 7974 bound_to 7965
  156.2844  140.2173  156.5434 H   0  0  0  0  0  0  0  0  0  0  0  0  # atno 8008 bound_to 7997
  154.7351  140.0492  157.0783 H   0  0  0  0  0  0  0  0  0  0  0  0  # atno 8009 bound_to 7997
  155.0303  140.3134  155.4764 H   0  0  0  0  0  0  0  0  0  0  0  0  # atno 8010 bound_to 7997
  140.6191  143.8244  150.7153 H   0  0  0  0  0  0  0  0  0  0  0  0  # atno 10167 bound_to 10162
  157.6237  130.9327  150.0258 H   0  0  0  0  0  0  0  0  0  0  0  0  # atno 10718 bound_to 10713
  153.0950  135.6657  153.9781 H   0  0  0  0  0  0  0  0  0  0  0  0  # atno 10763 bound_to 10752
  153.9368  135.2998  155.3445 H   0  0  0  0  0  0  0  0  0  0  0  0  # atno 10764 bound_to 10752
  154.7367  135.5098  153.9128 H   0  0  0  0  0  0  0  0  0  0  0  0  # atno 10765 bound_to 10752
  141.1533  133.6742  156.6456 H   0  0  0  0  0  0  0  0  0  0  0  0  # atno 11005 bound_to 11000
  145.5189  141.0432  143.2446 LP  0  0  0  0  0  0  0  0  0  0  0  0  # atno 17320 bound_to 7965
  144.7724  139.6705  143.7189 LP  0  0  0  0  0  0  0  0  0  0  0  0  # atno 17321 bound_to 7965
  140.1830  143.4099  152.1919 LP  0  0  0  0  0  0  0  0  0  0  0  0  # atno 17342 bound_to 10162
  139.5423  144.7267  151.4694 LP  0  0  0  0  0  0  0  0  0  0  0  0  # atno 17343 bound_to 10162
  156.1397  130.3642  149.9601 LP  0  0  0  0  0  0  0  0  0  0  0  0  # atno 17370 bound_to 10713
  156.7645  130.9163  151.3642 LP  0  0  0  0  0  0  0  0  0  0  0  0  # atno 17371 bound_to 10713
  140.3360  134.7889  157.4362 LP  0  0  0  0  0  0  0  0  0  0  0  0  # atno 17394 bound_to 11000
  140.0977  134.5514  155.8382 LP  0  0  0  0  0  0  0  0  0  0  0  0  # atno 17395 bound_to 11000

$$$$
