AV-unprocessed.smi:2944|AV-procd|sdf|11275|dock1
  -GOLD-   2272016163D 1   1.00000     0.00000
 Structure written by MMmdl.
 45 47  0  0  0  0  0  0  0  0  2 V2000
  151.0042  138.0667  154.1678 C   0  0  0  0  0  0  0  0  0  0  0  0
  151.5811  139.3277  154.4564 O   0  0  0  0  0  0  0  0  0  0  0  0
  152.4742  139.2764  155.5568 C   0  0  0  0  0  0  0  0  0  0  0  0
  151.7256  139.5752  156.8637 C   0  0  0  0  0  0  0  0  0  0  0  0
  151.3208  140.9852  156.9663 N   0  0  0  0  0  0  0  0  0  0  0  0
  150.4532  141.7111  156.2077 C   0  0  0  0  0  0  0  0  0  0  0  0
  149.5244  141.1359  154.8259 S   0  0  0  0  0  0  0  0  0  0  0  0
  147.9004  141.9322  155.0114 C   0  0  1  0  0  0  0  0  0  0  0  0
  146.9295  141.4075  153.9438 C   0  0  0  0  0  0  0  0  0  0  0  0
  147.3231  141.7173  156.4275 C   0  0  0  0  0  0  0  0  0  0  0  0
  147.9173  140.9257  157.1625 O   0  0  0  0  0  0  0  0  0  0  0  0
  146.2361  142.3986  156.8827 N   0  0  0  0  0  0  0  0  0  0  0  0
  145.4309  143.2097  155.9677 C   0  0  0  0  0  0  0  0  0  0  0  0
  144.3023  143.7543  156.8340 C   0  0  0  0  0  0  0  0  0  0  0  0
  144.6456  143.2311  158.1324 N   0  0  0  0  0  0  0  0  0  0  0  0
  145.7563  142.4902  158.1468 C   0  0  0  0  0  0  0  0  0  0  0  0
  146.2240  142.0073  159.1770 O   0  0  0  0  0  0  0  0  0  0  0  0
  150.4108  142.9730  156.7150 N   0  3  0  0  0  0  0  0  0  0  0  0
  151.2649  143.0604  157.8152 C   0  0  0  0  0  0  0  0  0  0  0  0
  151.5606  144.1303  158.6542 C   0  0  0  0  0  0  0  0  0  0  0  0
  152.4785  143.8829  159.6959 C   0  0  0  0  0  0  0  0  0  0  0  0
  153.0611  142.6114  159.8745 C   0  0  0  0  0  0  0  0  0  0  0  0
  152.7539  141.5340  159.0176 C   0  0  0  0  0  0  0  0  0  0  0  0
  151.8494  141.7871  157.9861 C   0  0  0  0  0  0  0  0  0  0  0  0
  150.3152  138.1622  153.3286 H   0  0  0  0  0  0  0  0  0  0  0  0
  150.4452  137.6822  155.0217 H   0  0  0  0  0  0  0  0  0  0  0  0
  151.7684  137.3394  153.8923 H   0  0  0  0  0  0  0  0  0  0  0  0
  152.9432  138.2932  155.6127 H   0  0  0  0  0  0  0  0  0  0  0  0
  153.2710  140.0051  155.4180 H   0  0  0  0  0  0  0  0  0  0  0  0
  150.8453  138.9404  156.9635 H   0  0  0  0  0  0  0  0  0  0  0  0
  152.3633  139.3490  157.7188 H   0  0  0  0  0  0  0  0  0  0  0  0
  148.1012  142.9832  154.8225 H   0  0  0  0  0  0  0  0  0  0  0  0
  145.9607  141.9041  154.0104 H   0  0  0  0  0  0  0  0  0  0  0  0
  146.7621  140.3347  154.0484 H   0  0  0  0  0  0  0  0  0  0  0  0
  147.3192  141.5859  152.9414 H   0  0  0  0  0  0  0  0  0  0  0  0
  146.0256  144.0217  155.5451 H   0  0  0  0  0  0  0  0  0  0  0  0
  145.0394  142.6054  155.1475 H   0  0  0  0  0  0  0  0  0  0  0  0
  144.2819  144.8446  156.8473 H   0  0  0  0  0  0  0  0  0  0  0  0
  143.3270  143.3829  156.5181 H   0  0  0  0  0  0  0  0  0  0  0  0
  144.1075  143.4486  158.9589 H   0  0  0  0  0  0  0  0  0  0  0  0
  151.1133  145.1047  158.5217 H   0  0  0  0  0  0  0  0  0  0  0  0
  152.7395  144.6836  160.3728 H   0  0  0  0  0  0  0  0  0  0  0  0
  153.7577  142.4586  160.6861 H   0  0  0  0  0  0  0  0  0  0  0  0
  153.2022  140.5633  159.1687 H   0  0  0  0  0  0  0  0  0  0  0  0
  149.8387  143.7161  156.3351 H   0  0  0  0  0  0  0  0  0  0  0  0
  1  2  1  0  0  0  0
  1 25  1  0  0  0  0
  1 26  1  0  0  0  0
  1 27  1  0  0  0  0
  2  3  1  0  0  0  0
  3  4  1  0  0  0  0
  3 28  1  0  0  0  0
  3 29  1  0  0  0  0
  4  5  1  0  0  0  0
  4 30  1  0  0  0  0
  4 31  1  0  0  0  0
  5 24  1  0  0  0  0
  5  6  1  0  0  0  0
  6  7  1  0  0  0  0
  6 18  2  0  0  0  0
  7  8  1  0  0  0  0
  8  9  1  0  0  0  0
  8 10  1  0  0  0  0
  8 32  1  0  0  0  0
  9 33  1  0  0  0  0
  9 34  1  0  0  0  0
  9 35  1  0  0  0  0
 10 11  2  0  0  0  0
 10 12  1  0  0  0  0
 12 16  1  0  0  0  0
 12 13  1  0  0  0  0
 13 14  1  0  0  0  0
 13 36  1  0  0  0  0
 13 37  1  0  0  0  0
 14 15  1  0  0  0  0
 14 38  1  0  0  0  0
 14 39  1  0  0  0  0
 15 16  1  0  0  0  0
 15 40  1  0  0  0  0
 16 17  2  0  0  0  0
 18 19  1  0  0  0  0
 18 45  1  0  0  0  0
 19 24  2  0  0  0  0
 19 20  1  0  0  0  0
 20 21  2  0  0  0  0
 20 41  1  0  0  0  0
 21 22  1  0  0  0  0
 21 42  1  0  0  0  0
 22 23  2  0  0  0  0
 22 43  1  0  0  0  0
 23 24  1  0  0  0  0
 23 44  1  0  0  0  0
M  CHG  1  18   1
M  END
> <s_m_source_file>
AV-unprocessed.smi

> <i_m_source_file_index>
2944

> <i_lp_mmshare_version>
43012

> <i_f3d_flags>
0

> <s_epik_input>
W2NIXTFbY0hdW2NIXVtjSF1jKGMxMiluKFtDSDJdW0NIMl1PW0NIM10pYyhuMilTW0NASF0oW0NIM10pQyg9TylOM1tDSDJdW0NIMl1bTkhdQzM9Tw==

> <s_epik_cmdline>
J2VwaWtfcHl0aG9uJywgJy1waCcsICc3LjAnLCAnLXRuJywgJzgnLCAnLW1hJywgJzIwMCcsICctbWV0YWxfYmluZGluZycsICctaW1hZScsICc8aW5maWxlLm1hZT4nLCAnLW9tYWUnLCAnPG91dGZpbGUubWFlPic=

> <r_lp_tautomer_probability>
0.9999

> <r_epik_Ionization_Penalty>
1.88808

> <r_epik_Ionization_Penalty_Charging>
1.88806

> <r_epik_Ionization_Penalty_Neutral>
2.68145e-05

> <r_epik_State_Penalty>
2.00836

> <r_epik_Charging_Adjusted_Penalty>
3.89641

> <i_epik_Tot_Q>
1

> <i_epik_Tot_abs_Q>
1

> <r_epik_Metal_State_Penalty>
2.03272

> <b_epik_Metal_Only>
0

> <s_lp_Force_Field>
OPLS_2005

> <r_lp_Energy>
44.4651

> <b_lp_Chiralities_Consistent>
1

> <s_lp_Variant>
AV-unprocessed.smi:2944-4

> <Gold.Version>
5.8.1

> <Gold.Id.Protein>
6NUR|6NUR_protein|mol2

> <Gold.PLP.Fitness>
57.1880

> <Gold.PLP.PLP>
-46.4522

> <Gold.PLP.part.hbond>
-3.0000

> <Gold.PLP.part.metal>
0.0000

> <Gold.PLP.part.buried>
-3.2832

> <Gold.PLP.part.nonpolar>
-40.3440

> <Gold.PLP.part.repulsive>
0.2121

> <Gold.PLP.ligand.clash>
0.0000

> <Gold.PLP.ligand.torsion>
0.7607

> <Gold.PLP.Chemscore.Hbond>
4.0000

> <Gold.PLP.Chemscore.CHOScore>
0.0000

> <Gold.PLP.Chemscore.Metal>
0.0000

> <Gold.Chemscore.Hbonds>
donor molecule, donor type, donor heavy atom, donor atom, acceptor molecule, acceptor atom, score
      L1  H    18    45       P1  8028  2.00
      P1  H  6934  6946       L1    17  1.00
      P1  H  7989  7998       L1     2  1.00

> <Gold.PLP.Chemscore.Internal.Correction>
0.2573

> <Gold.Rescore>
     Score         DG    S(hbond)    S(metal)    S(lipo)     H(rot)  DE(clash)    DE(int)     intcor
     16.81     -21.77       2.88        0.00     107.46       2.30       0.03       4.93       ----

> <Gold.Chemscore.Fitness>
16.8083

> <Gold.Chemscore.DG>
-21.7701

> <Gold.Chemscore.ZeroCoef>
-5.4800

> <Gold.Chemscore.Hbond>
2.8751

> <Gold.Chemscore.Metal>
0.0000

> <Gold.Chemscore.Lipo>
107.4555

> <Gold.Chemscore.Internal_Hbond>
0.0000

> <Gold.Chemscore.DEClash>
0.0299

> <Gold.Chemscore.DEInternal>
4.9319

> <Gold.Chemscore.Rot>
2.2988

> <Gold.Chemscore.Internal.Correction>
   9.000000E+99

> <Gold.Chemscore.Hbonds>
donor molecule, donor type, donor heavy atom, donor atom, acceptor molecule, acceptor atom, score
      L1  H    18    45       P1  8028  0.93
      P1  H  6934  6946       L1    17  0.88
      P1  H  7989  7998       L1     2  0.89

> <Gold.Chemscore.Hbond.Weighted>
-9.6028

> <Gold.Chemscore.Metal.Weighted>
-0.0000

> <Gold.Chemscore.Lipo.Weighted>
-12.5723

> <Gold.Chemscore.Internal_Hbond.Weighted>
0.0000

> <Gold.Chemscore.DEClash.Weighted>
0.0299

> <Gold.Chemscore.DEInternal.Weighted>
4.9319

> <Gold.Chemscore.Rot.Weighted>
5.8850

> <Gold.Chemscore.Internal.Correction.Weighted>
   9.000000E+99

> <Gold.Protein.RotatedTorsions>
[ 6907 6896 6895 6894 ] final -119.95 input  -60.11 | X-H torsion
[ 7974 7965 7964 7962 ] final  164.71 input  175.53 | X-H torsion
[ 8008 7997 7996 7995 ] final -171.71 input   59.86 | X-H torsion
[ 10167 10162 10161 10158 ] final   19.51 input  -65.29 | X-H torsion
[ 10718 10713 10712 10709 ] final   56.73 input   66.30 | X-H torsion
[ 10763 10752 10751 10750 ] final   50.52 input  -60.55 | X-H torsion
[ 11005 11000 10999 10996 ] final -177.75 input  -57.11 | X-H torsion

> <Gold.Protein.ActiveResidues>
 VAL166  LYS551  ARG553  GLY616  TRP617  ASP618  TYR619  PRO620  LYS621  CYS622 
 ASP623  PHE694  ASN695  SER759  ASP760  ASP761  ALA762  ILE779  LEU786  VAL792 
 PHE793  MET794  SER795  GLU796  ALA797  LYS798  CYS799  TRP800  GLU811  SER814 

> <Gold.Protein.RotatedAtoms>
  150.8350  133.8028  159.3083 H   0  0  0  0  0  0  0  0  0  0  0  0  # atno 6907 bound_to 6896
  151.5747  135.1059  160.0013 H   0  0  0  0  0  0  0  0  0  0  0  0  # atno 6908 bound_to 6896
  152.4424  133.7430  159.6708 H   0  0  0  0  0  0  0  0  0  0  0  0  # atno 6909 bound_to 6896
  144.7533  139.8366  143.6358 H   0  0  0  0  0  0  0  0  0  0  0  0  # atno 7974 bound_to 7965
  155.9351  140.1098  157.1101 H   0  0  0  0  0  0  0  0  0  0  0  0  # atno 8008 bound_to 7997
  154.4078  140.1230  156.4919 H   0  0  0  0  0  0  0  0  0  0  0  0  # atno 8009 bound_to 7997
  155.7032  140.3471  155.4944 H   0  0  0  0  0  0  0  0  0  0  0  0  # atno 8010 bound_to 7997
  140.5573  143.9400  150.6618 H   0  0  0  0  0  0  0  0  0  0  0  0  # atno 10167 bound_to 10162
  157.5455  130.8728  149.8885 H   0  0  0  0  0  0  0  0  0  0  0  0  # atno 10718 bound_to 10713
  152.9784  135.5876  154.4265 H   0  0  0  0  0  0  0  0  0  0  0  0  # atno 10763 bound_to 10752
  154.3883  135.2767  155.2172 H   0  0  0  0  0  0  0  0  0  0  0  0  # atno 10764 bound_to 10752
  154.4055  135.6093  153.5976 H   0  0  0  0  0  0  0  0  0  0  0  0  # atno 10765 bound_to 10752
  140.4374  134.6463  157.4741 H   0  0  0  0  0  0  0  0  0  0  0  0  # atno 11005 bound_to 11000
  146.1512  139.4596  143.0047 LP  0  0  0  0  0  0  0  0  0  0  0  0  # atno 17320 bound_to 7965
  145.6866  141.0176  143.1577 LP  0  0  0  0  0  0  0  0  0  0  0  0  # atno 17321 bound_to 7965
  140.2842  143.3368  152.1123 LP  0  0  0  0  0  0  0  0  0  0  0  0  # atno 17342 bound_to 10162
  139.5054  144.6794  151.6047 LP  0  0  0  0  0  0  0  0  0  0  0  0  # atno 17343 bound_to 10162
  156.0532  130.3713  150.1152 LP  0  0  0  0  0  0  0  0  0  0  0  0  # atno 17370 bound_to 10713
  156.9329  130.9719  151.3530 LP  0  0  0  0  0  0  0  0  0  0  0  0  # atno 17371 bound_to 10713
  140.0093  134.6715  155.9406 LP  0  0  0  0  0  0  0  0  0  0  0  0  # atno 17394 bound_to 11000
  141.1720  133.6538  156.4687 LP  0  0  0  0  0  0  0  0  0  0  0  0  # atno 17395 bound_to 11000

$$$$
