AV-unprocessed.smi:1659|AV-procd|sdf|6650|dock9
  -GOLD-   22720 7353D 1   1.00000     0.00000
 Structure written by MMmdl.
 43 44  0  0  0  0  0  0  0  0  1 V2000
  149.9769  130.3329  154.3669 C   0  0  0  0  0  0  0  0  0  0  0  0
  150.2392  131.7868  154.5622 C   0  0  0  0  0  0  0  0  0  0  0  0
  149.8794  132.8999  153.8558 C   0  0  0  0  0  0  0  0  0  0  0  0
  150.4647  133.9561  154.6033 C   0  0  0  0  0  0  0  0  0  0  0  0
  150.3189  135.3060  154.1930 N   0  0  0  0  0  0  0  0  0  0  0  0
  150.9694  136.3816  154.6688 C   0  0  0  0  0  0  0  0  0  0  0  0
  151.8179  136.3600  155.5608 O   0  0  0  0  0  0  0  0  0  0  0  0
  150.5796  137.5029  154.0451 N   0  0  0  0  0  0  0  0  0  0  0  0
  151.0962  138.8381  154.3237 C   0  0  0  0  0  0  0  0  0  0  0  0
  150.5285  139.4009  155.6362 C   0  0  0  0  0  0  0  0  0  0  0  0
  150.8776  140.8853  155.8382 C   0  0  0  0  0  0  0  0  0  0  0  0
  151.3054  141.1521  157.2200 N   0  0  0  0  0  0  0  0  0  0  0  0
  150.5730  142.2191  157.9194 C   0  0  0  0  0  0  0  0  0  0  0  0
  151.4637  143.4334  158.2455 C   0  0  0  0  0  0  0  0  0  0  0  0
  152.3204  143.2582  159.5084 C   0  0  0  0  0  0  0  0  0  0  0  0
  153.3493  142.1214  159.4237 C   0  0  0  0  0  0  0  0  0  0  0  0
  152.7097  140.7352  159.2390 C   0  0  0  0  0  0  0  0  0  0  0  0
  152.3207  140.4529  157.7821 C   0  0  0  0  0  0  0  0  0  0  0  0
  152.9439  139.5819  157.1738 O   0  0  0  0  0  0  0  0  0  0  0  0
  151.1232  133.5266  155.6689 N   0  0  0  0  0  0  0  0  0  0  0  0
  150.9812  132.1340  155.6486 O   0  0  0  0  0  0  0  0  0  0  0  0
  149.5909  130.1377  153.3664 H   0  0  0  0  0  0  0  0  0  0  0  0
  149.2440  129.9729  155.0890 H   0  0  0  0  0  0  0  0  0  0  0  0
  150.8917  129.7537  154.4944 H   0  0  0  0  0  0  0  0  0  0  0  0
  149.2914  132.9469  152.9513 H   0  0  0  0  0  0  0  0  0  0  0  0
  149.6461  135.4703  153.4590 H   0  0  0  0  0  0  0  0  0  0  0  0
  149.8763  137.4284  153.3246 H   0  0  0  0  0  0  0  0  0  0  0  0
  152.1826  138.7728  154.3876 H   0  0  0  0  0  0  0  0  0  0  0  0
  150.8736  139.5082  153.4916 H   0  0  0  0  0  0  0  0  0  0  0  0
  149.4452  139.2751  155.6483 H   0  0  0  0  0  0  0  0  0  0  0  0
  150.9148  138.8207  156.4751 H   0  0  0  0  0  0  0  0  0  0  0  0
  151.6494  141.1829  155.1279 H   0  0  0  0  0  0  0  0  0  0  0  0
  150.0153  141.5046  155.5838 H   0  0  0  0  0  0  0  0  0  0  0  0
  149.7446  142.5727  157.3050 H   0  0  0  0  0  0  0  0  0  0  0  0
  150.1064  141.8259  158.8235 H   0  0  0  0  0  0  0  0  0  0  0  0
  152.0945  143.6808  157.3906 H   0  0  0  0  0  0  0  0  0  0  0  0
  150.8191  144.2996  158.3988 H   0  0  0  0  0  0  0  0  0  0  0  0
  152.8477  144.1920  159.7054 H   0  0  0  0  0  0  0  0  0  0  0  0
  151.6699  143.0963  160.3688 H   0  0  0  0  0  0  0  0  0  0  0  0
  154.0605  142.3223  158.6208 H   0  0  0  0  0  0  0  0  0  0  0  0
  153.9353  142.1159  160.3431 H   0  0  0  0  0  0  0  0  0  0  0  0
  153.4308  139.9758  159.5446 H   0  0  0  0  0  0  0  0  0  0  0  0
  151.8491  140.6049  159.8959 H   0  0  0  0  0  0  0  0  0  0  0  0
  1  2  1  0  0  0  0
  1 22  1  0  0  0  0
  1 23  1  0  0  0  0
  1 24  1  0  0  0  0
  2 21  1  0  0  0  0
  2  3  2  0  0  0  0
  3  4  1  0  0  0  0
  3 25  1  0  0  0  0
  4  5  1  0  0  0  0
  4 20  2  0  0  0  0
  5  6  1  0  0  0  0
  5 26  1  0  0  0  0
  6  7  2  0  0  0  0
  6  8  1  0  0  0  0
  8  9  1  0  0  0  0
  8 27  1  0  0  0  0
  9 10  1  0  0  0  0
  9 28  1  0  0  0  0
  9 29  1  0  0  0  0
 10 11  1  0  0  0  0
 10 30  1  0  0  0  0
 10 31  1  0  0  0  0
 11 12  1  0  0  0  0
 11 32  1  0  0  0  0
 11 33  1  0  0  0  0
 12 18  1  0  0  0  0
 12 13  1  0  0  0  0
 13 14  1  0  0  0  0
 13 34  1  0  0  0  0
 13 35  1  0  0  0  0
 14 15  1  0  0  0  0
 14 36  1  0  0  0  0
 14 37  1  0  0  0  0
 15 16  1  0  0  0  0
 15 38  1  0  0  0  0
 15 39  1  0  0  0  0
 16 17  1  0  0  0  0
 16 40  1  0  0  0  0
 16 41  1  0  0  0  0
 17 18  1  0  0  0  0
 17 42  1  0  0  0  0
 17 43  1  0  0  0  0
 18 19  2  0  0  0  0
 20 21  1  0  0  0  0
M  END
> <s_m_source_file>
AV-unprocessed.smi

> <i_m_source_file_index>
1659

> <i_lp_mmshare_version>
43012

> <i_f3d_flags>
0

> <s_epik_input>
W0NIM11jMVtjSF1jKG5vMSlbTkhdQyg9TylbTkhdW0NIMl1bQ0gyXVtDSDJdTjJbQ0gyXVtDSDJdW0NIMl1bQ0gyXVtDSDJdQzI9Tw==

> <s_epik_cmdline>
J2VwaWtfcHl0aG9uJywgJy1waCcsICc3LjAnLCAnLXRuJywgJzgnLCAnLW1hJywgJzIwMCcsICctbWV0YWxfYmluZGluZycsICctaW1hZScsICc8aW5maWxlLm1hZT4nLCAnLW9tYWUnLCAnPG91dGZpbGUubWFlPic=

> <r_lp_tautomer_probability>
1

> <r_epik_Ionization_Penalty>
2.8543e-05

> <r_epik_Ionization_Penalty_Charging>
0

> <r_epik_Ionization_Penalty_Neutral>
2.8543e-05

> <r_epik_State_Penalty>
-0

> <r_epik_Charging_Adjusted_Penalty>
0

> <i_epik_Tot_Q>
0

> <i_epik_Tot_abs_Q>
0

> <r_epik_Metal_State_Penalty>
0.00845548

> <b_epik_Metal_Only>
0

> <s_lp_Force_Field>
OPLS_2005

> <r_lp_Energy>
16.7735

> <b_lp_Chiralities_Consistent>
1

> <s_lp_Variant>
AV-unprocessed.smi:1659-1

> <Gold.Version>
5.8.1

> <Gold.Id.Protein>
6NUR|6NUR_protein|mol2

> <Gold.PLP.Fitness>
53.1453

> <Gold.PLP.PLP>
-42.2811

> <Gold.PLP.part.hbond>
-5.3291

> <Gold.PLP.part.metal>
0.0000

> <Gold.PLP.part.buried>
-5.0295

> <Gold.PLP.part.nonpolar>
-33.2418

> <Gold.PLP.part.repulsive>
0.1815

> <Gold.PLP.ligand.clash>
0.0000

> <Gold.PLP.ligand.torsion>
0.4851

> <Gold.PLP.Chemscore.Hbond>
3.9357

> <Gold.PLP.Chemscore.CHOScore>
0.0000

> <Gold.PLP.Chemscore.Metal>
0.0000

> <Gold.Chemscore.Hbonds>
donor molecule, donor type, donor heavy atom, donor atom, acceptor molecule, acceptor atom, score
      L1  H     5    26       P1  7948  0.60
      L1  H     8    27       P1  7948  0.87
      P1  H  7997  8010       L1    19  1.00
      P1  H 10752 10763       L1     7  1.00

> <Gold.PLP.Chemscore.Internal.Correction>
0.0272

> <Gold.Rescore>
     Score         DG    S(hbond)    S(metal)    S(lipo)     H(rot)  DE(clash)    DE(int)     intcor
     17.92     -20.82       3.01        0.00      86.29       1.88       0.01       2.88       ----

> <Gold.Chemscore.Fitness>
17.9224

> <Gold.Chemscore.DG>
-20.8151

> <Gold.Chemscore.ZeroCoef>
-5.4800

> <Gold.Chemscore.Hbond>
3.0109

> <Gold.Chemscore.Metal>
0.0000

> <Gold.Chemscore.Lipo>
86.2878

> <Gold.Chemscore.Internal_Hbond>
0.0000

> <Gold.Chemscore.DEClash>
0.0088

> <Gold.Chemscore.DEInternal>
2.8839

> <Gold.Chemscore.Rot>
1.8816

> <Gold.Chemscore.Internal.Correction>
   9.000000E+99

> <Gold.Chemscore.Hbonds>
donor molecule, donor type, donor heavy atom, donor atom, acceptor molecule, acceptor atom, score
      L1  H     5    26       P1  7948  0.04
      L1  H     8    27       P1  7948  0.40
      P1  H  7997  8010       L1    19  0.84
      P1  H 10752 10763       L1     7  0.69

> <Gold.Chemscore.Hbond.Weighted>
-10.0563

> <Gold.Chemscore.Metal.Weighted>
-0.0000

> <Gold.Chemscore.Lipo.Weighted>
-10.0957

> <Gold.Chemscore.Internal_Hbond.Weighted>
0.0000

> <Gold.Chemscore.DEClash.Weighted>
0.0088

> <Gold.Chemscore.DEInternal.Weighted>
2.8839

> <Gold.Chemscore.Rot.Weighted>
4.8169

> <Gold.Chemscore.Internal.Correction.Weighted>
   9.000000E+99

> <Gold.Protein.RotatedTorsions>
[ 6907 6896 6895 6894 ] final -165.72 input  -60.11 | X-H torsion
[ 7974 7965 7964 7962 ] final   -4.69 input  175.53 | X-H torsion
[ 8008 7997 7996 7995 ] final   58.82 input   59.86 | X-H torsion
[ 10167 10162 10161 10158 ] final   86.20 input  -65.29 | X-H torsion
[ 10718 10713 10712 10709 ] final  171.76 input   66.30 | X-H torsion
[ 10763 10752 10751 10750 ] final   89.61 input  -60.55 | X-H torsion
[ 11005 11000 10999 10996 ] final -137.87 input  -57.11 | X-H torsion

> <Gold.Protein.ActiveResidues>
 VAL166  LYS551  ARG553  GLY616  TRP617  ASP618  TYR619  PRO620  LYS621  CYS622 
 ASP623  PHE694  ASN695  SER759  ASP760  ASP761  ALA762  ILE779  LEU786  VAL792 
 PHE793  MET794  SER795  GLU796  ALA797  LYS798  CYS799  TRP800  GLU811  SER814 

> <Gold.Protein.RotatedAtoms>
  151.4321  133.3667  159.2769 H   0  0  0  0  0  0  0  0  0  0  0  0  # atno 6907 bound_to 6896
  150.9218  134.8636  159.7504 H   0  0  0  0  0  0  0  0  0  0  0  0  # atno 6908 bound_to 6896
  152.4985  134.4259  159.9548 H   0  0  0  0  0  0  0  0  0  0  0  0  # atno 6909 bound_to 6896
  146.2367  140.1909  142.8332 H   0  0  0  0  0  0  0  0  0  0  0  0  # atno 7974 bound_to 7965
  155.5562  140.3487  155.4480 H   0  0  0  0  0  0  0  0  0  0  0  0  # atno 8008 bound_to 7997
  156.0547  140.1326  157.0035 H   0  0  0  0  0  0  0  0  0  0  0  0  # atno 8009 bound_to 7997
  154.4451  140.0997  156.6414 H   0  0  0  0  0  0  0  0  0  0  0  0  # atno 8010 bound_to 7997
  139.8900  144.6391  150.8750 H   0  0  0  0  0  0  0  0  0  0  0  0  # atno 10167 bound_to 10162
  156.9888  131.0141  151.2862 H   0  0  0  0  0  0  0  0  0  0  0  0  # atno 10718 bound_to 10713
  153.1888  135.4464  155.0123 H   0  0  0  0  0  0  0  0  0  0  0  0  # atno 10763 bound_to 10752
  154.8077  135.3281  154.7389 H   0  0  0  0  0  0  0  0  0  0  0  0  # atno 10764 bound_to 10752
  153.7845  135.6975  153.4937 H   0  0  0  0  0  0  0  0  0  0  0  0  # atno 10765 bound_to 10752
  140.8670  134.2098  157.4674 H   0  0  0  0  0  0  0  0  0  0  0  0  # atno 11005 bound_to 11000
  144.9858  140.8502  143.5369 LP  0  0  0  0  0  0  0  0  0  0  0  0  # atno 17320 bound_to 7965
  145.1908  139.2302  143.5243 LP  0  0  0  0  0  0  0  0  0  0  0  0  # atno 17321 bound_to 7965
  140.7728  143.3518  151.2000 LP  0  0  0  0  0  0  0  0  0  0  0  0  # atno 17342 bound_to 10162
  139.7119  143.9363  152.2951 LP  0  0  0  0  0  0  0  0  0  0  0  0  # atno 17343 bound_to 10162
  157.5474  130.8159  149.8102 LP  0  0  0  0  0  0  0  0  0  0  0  0  # atno 17370 bound_to 10713
  156.0215  130.3794  150.1947 LP  0  0  0  0  0  0  0  0  0  0  0  0  # atno 17371 bound_to 10713
  139.8710  134.9756  156.4891 LP  0  0  0  0  0  0  0  0  0  0  0  0  # atno 17394 bound_to 11000
  140.8617  133.8055  155.9272 LP  0  0  0  0  0  0  0  0  0  0  0  0  # atno 17395 bound_to 11000

$$$$
