AV-unprocessed.smi:1873|AV-procd|sdf|7609|dock10
  -GOLD-   22720 9333D 1   1.00000     0.00000
 Structure written by MMmdl.
 37 39  0  0  0  0  0  0  0  0  2 V2000
  152.7681  139.6432  154.9398 O   0  0  0  0  0  0  0  0  0  0  0  0
  151.7550  139.3613  155.8864 C   0  0  2  0  0  0  0  0  0  0  0  0
  152.1003  140.0353  157.2291 C   0  0  0  0  0  0  0  0  0  0  0  0
  151.5389  141.3870  157.3440 N   0  0  0  0  0  0  0  0  0  0  0  0
  150.6381  142.0311  156.5537 C   0  0  0  0  0  0  0  0  0  0  0  0
  150.4307  143.2660  157.0898 N   0  3  0  0  0  0  0  0  0  0  0  0
  151.2117  143.4130  158.2386 C   0  0  0  0  0  0  0  0  0  0  0  0
  151.3437  144.4797  159.1224 C   0  0  0  0  0  0  0  0  0  0  0  0
  152.2332  144.3002  160.2026 C   0  0  0  0  0  0  0  0  0  0  0  0
  152.9493  143.0973  160.3731 C   0  0  0  0  0  0  0  0  0  0  0  0
  152.8067  142.0218  159.4717 C   0  0  0  0  0  0  0  0  0  0  0  0
  151.9266  142.2085  158.4067 C   0  0  0  0  0  0  0  0  0  0  0  0
  151.5248  137.8688  156.0582 C   0  0  0  0  0  0  0  0  0  0  0  0
  152.4647  137.0685  156.7418 C   0  0  0  0  0  0  0  0  0  0  0  0
  152.2375  135.6879  156.9019 C   0  0  0  0  0  0  0  0  0  0  0  0
  151.0678  135.0891  156.3924 C   0  0  0  0  0  0  0  0  0  0  0  0
  150.9084  133.7334  156.5696 O   0  0  0  0  0  0  0  0  0  0  0  0
  150.8069  132.9276  155.4792 C   0  0  0  0  0  0  0  0  0  0  0  0
  150.9881  131.6306  155.8300 F   0  0  0  0  0  0  0  0  0  0  0  0
  149.5675  133.0366  154.9429 F   0  0  0  0  0  0  0  0  0  0  0  0
  150.1306  135.8924  155.6998 C   0  0  0  0  0  0  0  0  0  0  0  0
  150.3567  137.2728  155.5392 C   0  0  0  0  0  0  0  0  0  0  0  0
  152.4091  139.5255  154.0734 H   0  0  0  0  0  0  0  0  0  0  0  0
  150.8371  139.8024  155.4960 H   0  0  0  0  0  0  0  0  0  0  0  0
  151.7398  139.4407  158.0696 H   0  0  0  0  0  0  0  0  0  0  0  0
  153.1815  140.1175  157.3495 H   0  0  0  0  0  0  0  0  0  0  0  0
  150.1681  141.6317  155.6663 H   0  0  0  0  0  0  0  0  0  0  0  0
  150.7961  145.4020  158.9949 H   0  0  0  0  0  0  0  0  0  0  0  0
  152.3685  145.1014  160.9147 H   0  0  0  0  0  0  0  0  0  0  0  0
  153.6221  142.9970  161.2127 H   0  0  0  0  0  0  0  0  0  0  0  0
  153.3584  141.1038  159.6103 H   0  0  0  0  0  0  0  0  0  0  0  0
  153.3632  137.5106  157.1471 H   0  0  0  0  0  0  0  0  0  0  0  0
  152.9650  135.0843  157.4245 H   0  0  0  0  0  0  0  0  0  0  0  0
  151.5281  133.1993  154.7079 H   0  0  0  0  0  0  0  0  0  0  0  0
  149.2337  135.4609  155.2808 H   0  0  0  0  0  0  0  0  0  0  0  0
  149.6283  137.8716  155.0124 H   0  0  0  0  0  0  0  0  0  0  0  0
  149.8004  143.9544  156.6988 H   0  0  0  0  0  0  0  0  0  0  0  0
  1  2  1  0  0  0  0
  1 23  1  0  0  0  0
  2  3  1  0  0  0  0
  2 13  1  0  0  0  0
  2 24  1  0  0  0  0
  3  4  1  0  0  0  0
  3 25  1  0  0  0  0
  3 26  1  0  0  0  0
  4 12  1  0  0  0  0
  4  5  1  0  0  0  0
  5  6  2  0  0  0  0
  5 27  1  0  0  0  0
  6  7  1  0  0  0  0
  6 37  1  0  0  0  0
  7 12  2  0  0  0  0
  7  8  1  0  0  0  0
  8  9  2  0  0  0  0
  8 28  1  0  0  0  0
  9 10  1  0  0  0  0
  9 29  1  0  0  0  0
 10 11  2  0  0  0  0
 10 30  1  0  0  0  0
 11 12  1  0  0  0  0
 11 31  1  0  0  0  0
 13 22  1  0  0  0  0
 13 14  2  0  0  0  0
 14 15  1  0  0  0  0
 14 32  1  0  0  0  0
 15 16  2  0  0  0  0
 15 33  1  0  0  0  0
 16 17  1  0  0  0  0
 16 21  1  0  0  0  0
 17 18  1  0  0  0  0
 18 19  1  0  0  0  0
 18 20  1  0  0  0  0
 18 34  1  0  0  0  0
 21 22  2  0  0  0  0
 21 35  1  0  0  0  0
 22 36  1  0  0  0  0
M  CHG  1   6   1
M  END
> <s_m_source_file>
AV-unprocessed.smi

> <i_m_source_file_index>
1873

> <i_lp_mmshare_version>
43012

> <i_f3d_flags>
0

> <s_epik_input>
RltDSF0oRilPYyhbY0hdW2NIXTEpW2NIXVtjSF1jMVtDQEhdKFtPSF0pW0NIMl1uKFtjSF1uMiljKGMyMylbY0hdW2NIXVtjSF1bY0hdMw==

> <s_epik_cmdline>
J2VwaWtfcHl0aG9uJywgJy1waCcsICc3LjAnLCAnLXRuJywgJzgnLCAnLW1hJywgJzIwMCcsICctbWV0YWxfYmluZGluZycsICctaW1hZScsICc8aW5maWxlLm1hZT4nLCAnLW9tYWUnLCAnPG91dGZpbGUubWFlPic=

> <r_lp_tautomer_probability>
1

> <r_epik_Ionization_Penalty>
1.3029

> <r_epik_Ionization_Penalty_Charging>
1.3029

> <r_epik_Ionization_Penalty_Neutral>
2.50501e-07

> <r_epik_State_Penalty>
1.377

> <r_epik_Charging_Adjusted_Penalty>
2.6799

> <i_epik_Tot_Q>
1

> <i_epik_Tot_abs_Q>
1

> <r_epik_Metal_State_Penalty>
5.40879

> <b_epik_Metal_Only>
0

> <s_lp_Force_Field>
OPLS_2005

> <r_lp_Energy>
14.9016

> <b_lp_Chiralities_Consistent>
1

> <s_lp_Variant>
AV-unprocessed.smi:1873-3

> <Gold.Version>
5.8.1

> <Gold.Id.Protein>
6NUR|6NUR_protein|mol2

> <Gold.PLP.Fitness>
51.8786

> <Gold.PLP.PLP>
-44.5321

> <Gold.PLP.part.hbond>
-2.9103

> <Gold.PLP.part.metal>
0.0000

> <Gold.PLP.part.buried>
-6.2562

> <Gold.PLP.part.nonpolar>
-35.1432

> <Gold.PLP.part.repulsive>
0.0181

> <Gold.PLP.ligand.clash>
0.0000

> <Gold.PLP.ligand.torsion>
0.8788

> <Gold.PLP.Chemscore.Hbond>
3.0000

> <Gold.PLP.Chemscore.CHOScore>
0.0000

> <Gold.PLP.Chemscore.Metal>
0.0000

> <Gold.Chemscore.Hbonds>
donor molecule, donor type, donor heavy atom, donor atom, acceptor molecule, acceptor atom, score
      L1  H     6    37       P1  8028  2.00
      P1  H  7997  8009       L1     1  1.00

> <Gold.PLP.Chemscore.Internal.Correction>
0.1040

> <Gold.Rescore>
     Score         DG    S(hbond)    S(metal)    S(lipo)     H(rot)  DE(clash)    DE(int)     intcor
     17.69     -18.84       1.94        0.00     112.70       2.47       0.10       1.05       ----

> <Gold.Chemscore.Fitness>
17.6924

> <Gold.Chemscore.DG>
-18.8412

> <Gold.Chemscore.ZeroCoef>
-5.4800

> <Gold.Chemscore.Hbond>
1.9434

> <Gold.Chemscore.Metal>
0.0000

> <Gold.Chemscore.Lipo>
112.6964

> <Gold.Chemscore.Internal_Hbond>
0.0000

> <Gold.Chemscore.DEClash>
0.0988

> <Gold.Chemscore.DEInternal>
1.0500

> <Gold.Chemscore.Rot>
2.4668

> <Gold.Chemscore.Internal.Correction>
   9.000000E+99

> <Gold.Chemscore.Hbonds>
donor molecule, donor type, donor heavy atom, donor atom, acceptor molecule, acceptor atom, score
      L1  H     6    37       P1  8028  0.95
      P1  H  7997  8009       L1     1  0.67

> <Gold.Chemscore.Hbond.Weighted>
-6.4908

> <Gold.Chemscore.Metal.Weighted>
-0.0000

> <Gold.Chemscore.Lipo.Weighted>
-13.1855

> <Gold.Chemscore.Internal_Hbond.Weighted>
0.0000

> <Gold.Chemscore.DEClash.Weighted>
0.0988

> <Gold.Chemscore.DEInternal.Weighted>
1.0500

> <Gold.Chemscore.Rot.Weighted>
6.3151

> <Gold.Chemscore.Internal.Correction.Weighted>
   9.000000E+99

> <Gold.Protein.RotatedTorsions>
[ 6907 6896 6895 6894 ] final -106.91 input  -60.11 | X-H torsion
[ 7974 7965 7964 7962 ] final -167.27 input  175.53 | X-H torsion
[ 8008 7997 7996 7995 ] final -137.18 input   59.86 | X-H torsion
[ 10167 10162 10161 10158 ] final  126.47 input  -65.29 | X-H torsion
[ 10718 10713 10712 10709 ] final  -29.81 input   66.30 | X-H torsion
[ 10763 10752 10751 10750 ] final -106.71 input  -60.55 | X-H torsion
[ 11005 11000 10999 10996 ] final  -67.39 input  -57.11 | X-H torsion

> <Gold.Protein.ActiveResidues>
 VAL166  LYS551  ARG553  GLY616  TRP617  ASP618  TYR619  PRO620  LYS621  CYS622 
 ASP623  PHE694  ASN695  SER759  ASP760  ASP761  ALA762  ILE779  LEU786  VAL792 
 PHE793  MET794  SER795  GLU796  ALA797  LYS798  CYS799  TRP800  GLU811  SER814 

> <Gold.Protein.RotatedAtoms>
  150.7414  133.9906  159.3605 H   0  0  0  0  0  0  0  0  0  0  0  0  # atno 6907 bound_to 6896
  151.7854  135.0748  160.0389 H   0  0  0  0  0  0  0  0  0  0  0  0  # atno 6908 bound_to 6896
  152.3245  133.5853  159.5803 H   0  0  0  0  0  0  0  0  0  0  0  0  # atno 6909 bound_to 6896
  144.7227  140.2543  143.6274 H   0  0  0  0  0  0  0  0  0  0  0  0  # atno 7974 bound_to 7965
  155.4076  140.0510  157.3033 H   0  0  0  0  0  0  0  0  0  0  0  0  # atno 8008 bound_to 7997
  154.4961  140.2139  155.9403 H   0  0  0  0  0  0  0  0  0  0  0  0  # atno 8009 bound_to 7997
  156.1407  140.3155  155.8497 H   0  0  0  0  0  0  0  0  0  0  0  0  # atno 8010 bound_to 7997
  139.5629  144.6893  151.3991 H   0  0  0  0  0  0  0  0  0  0  0  0  # atno 10167 bound_to 10162
  156.4078  130.4402  149.7275 H   0  0  0  0  0  0  0  0  0  0  0  0  # atno 10718 bound_to 10713
  154.8029  135.4702  154.0321 H   0  0  0  0  0  0  0  0  0  0  0  0  # atno 10763 bound_to 10752
  153.1812  135.6841  153.8482 H   0  0  0  0  0  0  0  0  0  0  0  0  # atno 10764 bound_to 10752
  153.8032  135.3227  155.3370 H   0  0  0  0  0  0  0  0  0  0  0  0  # atno 10765 bound_to 10752
  141.1507  133.6718  156.6286 H   0  0  0  0  0  0  0  0  0  0  0  0  # atno 11005 bound_to 11000
  145.8197  139.2038  143.1945 LP  0  0  0  0  0  0  0  0  0  0  0  0  # atno 17320 bound_to 7965
  146.0524  140.8055  142.9775 LP  0  0  0  0  0  0  0  0  0  0  0  0  # atno 17321 bound_to 7965
  140.6911  143.7859  150.7256 LP  0  0  0  0  0  0  0  0  0  0  0  0  # atno 17342 bound_to 10162
  140.1342  143.4499  152.2235 LP  0  0  0  0  0  0  0  0  0  0  0  0  # atno 17343 bound_to 10162
  156.4266  130.7794  151.2813 LP  0  0  0  0  0  0  0  0  0  0  0  0  # atno 17370 bound_to 10713
  157.7506  131.0167  150.3554 LP  0  0  0  0  0  0  0  0  0  0  0  0  # atno 17371 bound_to 10713
  140.3485  134.7789  157.4449 LP  0  0  0  0  0  0  0  0  0  0  0  0  # atno 17394 bound_to 11000
  140.0880  134.5640  155.8472 LP  0  0  0  0  0  0  0  0  0  0  0  0  # atno 17395 bound_to 11000

$$$$
