AV-unprocessed.smi:1579|AV-procd|sdf|6357|dock5
  -GOLD-   22720 6583D 1   1.00000     0.00000
 Structure written by MMmdl.
 47 48  0  0  0  0  0  0  0  0  2 V2000
  152.2933  144.4063  161.4691 C   0  0  0  0  0  0  0  0  0  0  0  0
  152.4825  143.2130  160.5714 C   0  0  0  0  0  0  0  0  0  0  0  0
  151.9668  143.2885  159.3883 N   0  0  0  0  0  0  0  0  0  0  0  0
  152.0857  142.2515  158.4852 N   0  0  0  0  0  0  0  0  0  0  0  0
  151.4458  142.5125  157.1902 C   0  0  0  0  0  0  0  0  0  0  0  0
  150.4259  141.4151  156.8135 C   0  0  1  0  0  0  0  0  0  0  0  0
  149.2567  141.6142  157.5841 O   0  0  0  0  0  0  0  0  0  0  0  0
  150.0214  141.5073  155.3279 C   0  0  0  0  0  0  0  0  0  0  0  0
  148.8038  140.7156  155.0146 N   0  3  2  0  0  0  0  0  0  0  0  0
  149.0972  139.4353  154.3166 C   0  0  0  0  0  0  0  0  0  0  0  0
  147.8198  138.5963  154.1338 C   0  0  0  0  0  0  0  0  0  0  0  0
  146.7139  139.3715  153.3949 C   0  0  2  0  0  0  0  0  0  0  0  0
  146.9969  139.5242  151.8900 C   0  0  0  0  0  0  0  0  0  0  0  0
  146.4802  140.7211  154.0974 C   0  0  0  0  0  0  0  0  0  0  0  0
  147.7862  141.5148  154.2847 C   0  0  0  0  0  0  0  0  0  0  0  0
  152.7293  141.0749  158.7327 C   0  0  0  0  0  0  0  0  0  0  0  0
  152.7989  140.1712  157.8978 O   0  0  0  0  0  0  0  0  0  0  0  0
  153.3116  140.9955  160.0742 C   0  0  0  0  0  0  0  0  0  0  0  0
  153.9988  139.7809  160.3742 C   0  0  0  0  0  0  0  0  0  0  0  0
  154.5492  138.7970  160.6363 N   0  0  0  0  0  0  0  0  0  0  0  0
  153.2031  142.0081  160.9704 C   0  0  0  0  0  0  0  0  0  0  0  0
  153.7879  141.9752  162.3758 C   0  0  0  0  0  0  0  0  0  0  0  0
  153.2546  144.7959  161.8044 H   0  0  0  0  0  0  0  0  0  0  0  0
  151.7100  144.1382  162.3503 H   0  0  0  0  0  0  0  0  0  0  0  0
  151.7691  145.2179  160.9624 H   0  0  0  0  0  0  0  0  0  0  0  0
  150.9747  143.4978  157.1753 H   0  0  0  0  0  0  0  0  0  0  0  0
  152.2263  142.5692  156.4289 H   0  0  0  0  0  0  0  0  0  0  0  0
  150.8355  140.4304  157.0348 H   0  0  0  0  0  0  0  0  0  0  0  0
  148.7925  140.7925  157.6437 H   0  0  0  0  0  0  0  0  0  0  0  0
  149.8571  142.5574  155.0799 H   0  0  0  0  0  0  0  0  0  0  0  0
  150.8371  141.1703  154.6861 H   0  0  0  0  0  0  0  0  0  0  0  0
  149.5589  139.6415  153.3501 H   0  0  0  0  0  0  0  0  0  0  0  0
  149.8193  138.8497  154.8841 H   0  0  0  0  0  0  0  0  0  0  0  0
  148.0513  137.6710  153.6048 H   0  0  0  0  0  0  0  0  0  0  0  0
  147.4508  138.2973  155.1160 H   0  0  0  0  0  0  0  0  0  0  0  0
  145.7932  138.7922  153.4777 H   0  0  0  0  0  0  0  0  0  0  0  0
  147.9050  140.0944  151.6961 H   0  0  0  0  0  0  0  0  0  0  0  0
  146.1748  140.0355  151.3887 H   0  0  0  0  0  0  0  0  0  0  0  0
  147.1128  138.5500  151.4143 H   0  0  0  0  0  0  0  0  0  0  0  0
  145.7558  141.3170  153.5410 H   0  0  0  0  0  0  0  0  0  0  0  0
  146.0335  140.5410  155.0764 H   0  0  0  0  0  0  0  0  0  0  0  0
  147.5671  142.4259  154.8429 H   0  0  0  0  0  0  0  0  0  0  0  0
  148.1880  141.8273  153.3199 H   0  0  0  0  0  0  0  0  0  0  0  0
  154.2610  141.0207  162.6041 H   0  0  0  0  0  0  0  0  0  0  0  0
  153.0088  142.1387  163.1207 H   0  0  0  0  0  0  0  0  0  0  0  0
  154.5437  142.7525  162.4922 H   0  0  0  0  0  0  0  0  0  0  0  0
  148.3878  140.4799  155.9047 H   0  0  0  0  0  0  0  0  0  0  0  0
  1  2  1  0  0  0  0
  1 23  1  0  0  0  0
  1 24  1  0  0  0  0
  1 25  1  0  0  0  0
  2 21  1  0  0  0  0
  2  3  2  0  0  0  0
  3  4  1  0  0  0  0
  4  5  1  0  0  0  0
  4 16  1  0  0  0  0
  5  6  1  0  0  0  0
  5 26  1  0  0  0  0
  5 27  1  0  0  0  0
  6  7  1  0  0  0  0
  6  8  1  0  0  0  0
  6 28  1  0  0  0  0
  7 29  1  0  0  0  0
  8  9  1  0  0  0  0
  8 30  1  0  0  0  0
  8 31  1  0  0  0  0
  9 15  1  0  0  0  0
  9 10  1  0  0  0  0
  9 47  1  0  0  0  0
 10 11  1  0  0  0  0
 10 32  1  0  0  0  0
 10 33  1  0  0  0  0
 11 12  1  0  0  0  0
 11 34  1  0  0  0  0
 11 35  1  0  0  0  0
 12 13  1  0  0  0  0
 12 14  1  0  0  0  0
 12 36  1  0  0  0  0
 13 37  1  0  0  0  0
 13 38  1  0  0  0  0
 13 39  1  0  0  0  0
 14 15  1  0  0  0  0
 14 40  1  0  0  0  0
 14 41  1  0  0  0  0
 15 42  1  0  0  0  0
 15 43  1  0  0  0  0
 16 17  2  0  0  0  0
 16 18  1  0  0  0  0
 18 19  1  0  0  0  0
 18 21  2  0  0  0  0
 19 20  3  0  0  0  0
 21 22  1  0  0  0  0
 22 44  1  0  0  0  0
 22 45  1  0  0  0  0
 22 46  1  0  0  0  0
M  CHG  1   9   1
M  END
> <s_m_source_file>
AV-unprocessed.smi

> <i_m_source_file_index>
1579

> <i_lp_mmshare_version>
43012

> <i_f3d_flags>
0

> <s_epik_input>
TiNDYyhjMVtDSDNdKWMoPU8pbihuYzFbQ0gzXSlbQ0gyXVtDQEhdKFtPSF0pW0NIMl1OMltDSDJdW0NIMl1bQ0hdKFtDSDNdKVtDSDJdW0NIMl0y

> <s_epik_cmdline>
J2VwaWtfcHl0aG9uJywgJy1waCcsICc3LjAnLCAnLXRuJywgJzgnLCAnLW1hJywgJzIwMCcsICctbWV0YWxfYmluZGluZycsICctaW1hZScsICc8aW5maWxlLm1hZT4nLCAnLW9tYWUnLCAnPG91dGZpbGUubWFlPic=

> <r_epik_Ionization_Penalty>
0.00136816

> <r_epik_Ionization_Penalty_Charging>
0.00136813

> <r_epik_Ionization_Penalty_Neutral>
3.19884e-08

> <r_epik_State_Penalty>
0.000910892

> <r_epik_Charging_Adjusted_Penalty>
0.00227902

> <i_epik_Tot_Q>
1

> <i_epik_Tot_abs_Q>
1

> <r_epik_Metal_State_Penalty>
-0

> <b_epik_Metal_Only>
0

> <s_lp_Force_Field>
OPLS_2005

> <r_lp_Energy>
39.3397

> <b_lp_Chiralities_Consistent>
1

> <s_lp_Variant>
AV-unprocessed.smi:1579-4

> <Gold.Version>
5.8.1

> <Gold.Id.Protein>
6NUR|6NUR_protein|mol2

> <Gold.PLP.Fitness>
43.0026

> <Gold.PLP.PLP>
-41.7875

> <Gold.PLP.part.hbond>
-1.0000

> <Gold.PLP.part.metal>
0.0000

> <Gold.PLP.part.buried>
-0.0238

> <Gold.PLP.part.nonpolar>
-39.5472

> <Gold.PLP.part.repulsive>
0.1005

> <Gold.PLP.ligand.clash>
0.0000

> <Gold.PLP.ligand.torsion>
0.8933

> <Gold.PLP.Chemscore.Hbond>
0.9920

> <Gold.PLP.Chemscore.CHOScore>
0.0000

> <Gold.PLP.Chemscore.Metal>
0.0000

> <Gold.Chemscore.Hbonds>
donor molecule, donor type, donor heavy atom, donor atom, acceptor molecule, acceptor atom, score
      P1  H  7997  8010       L1    17  1.00

> <Gold.PLP.Chemscore.Internal.Correction>
0.0258

> <Gold.Rescore>
     Score         DG    S(hbond)    S(metal)    S(lipo)     H(rot)  DE(clash)    DE(int)     intcor
     13.53     -16.46       0.89        0.00     115.91       2.17       0.76       2.17       ----

> <Gold.Chemscore.Fitness>
13.5251

> <Gold.Chemscore.DG>
-16.4615

> <Gold.Chemscore.ZeroCoef>
-5.4800

> <Gold.Chemscore.Hbond>
0.8921

> <Gold.Chemscore.Metal>
0.0000

> <Gold.Chemscore.Lipo>
115.9052

> <Gold.Chemscore.Internal_Hbond>
0.0000

> <Gold.Chemscore.DEClash>
0.7646

> <Gold.Chemscore.DEInternal>
2.1718

> <Gold.Chemscore.Rot>
2.1715

> <Gold.Chemscore.Internal.Correction>
   9.000000E+99

> <Gold.Chemscore.Hbonds>
donor molecule, donor type, donor heavy atom, donor atom, acceptor molecule, acceptor atom, score
      P1  H  7997  8010       L1    17  0.86

> <Gold.Chemscore.Hbond.Weighted>
-2.9797

> <Gold.Chemscore.Metal.Weighted>
-0.0000

> <Gold.Chemscore.Lipo.Weighted>
-13.5609

> <Gold.Chemscore.Internal_Hbond.Weighted>
0.0000

> <Gold.Chemscore.DEClash.Weighted>
0.7646

> <Gold.Chemscore.DEInternal.Weighted>
2.1718

> <Gold.Chemscore.Rot.Weighted>
5.5591

> <Gold.Chemscore.Internal.Correction.Weighted>
   9.000000E+99

> <Gold.Protein.RotatedTorsions>
[ 6907 6896 6895 6894 ] final  155.08 input  -60.11 | X-H torsion
[ 7974 7965 7964 7962 ] final   65.81 input  175.53 | X-H torsion
[ 8008 7997 7996 7995 ] final   47.77 input   59.86 | X-H torsion
[ 10167 10162 10161 10158 ] final  -44.66 input  -65.29 | X-H torsion
[ 10718 10713 10712 10709 ] final  -47.54 input   66.30 | X-H torsion
[ 10763 10752 10751 10750 ] final  151.18 input  -60.55 | X-H torsion
[ 11005 11000 10999 10996 ] final  -90.85 input  -57.11 | X-H torsion

> <Gold.Protein.ActiveResidues>
 VAL166  LYS551  ARG553  GLY616  TRP617  ASP618  TYR619  PRO620  LYS621  CYS622 
 ASP623  PHE694  ASN695  SER759  ASP760  ASP761  ALA762  ILE779  LEU786  VAL792 
 PHE793  MET794  SER795  GLU796  ALA797  LYS798  CYS799  TRP800  GLU811  SER814 

> <Gold.Protein.RotatedAtoms>
  152.0493  133.4012  159.4369 H   0  0  0  0  0  0  0  0  0  0  0  0  # atno 6907 bound_to 6896
  150.6871  134.3326  159.4843 H   0  0  0  0  0  0  0  0  0  0  0  0  # atno 6908 bound_to 6896
  152.1134  134.9257  160.0616 H   0  0  0  0  0  0  0  0  0  0  0  0  # atno 6909 bound_to 6896
  145.8341  139.3156  143.0970 H   0  0  0  0  0  0  0  0  0  0  0  0  # atno 7974 bound_to 7965
  155.3746  140.3425  155.4244 H   0  0  0  0  0  0  0  0  0  0  0  0  # atno 8008 bound_to 7997
  156.1643  140.1611  156.8591 H   0  0  0  0  0  0  0  0  0  0  0  0  # atno 8009 bound_to 7997
  154.5170  140.0776  156.8082 H   0  0  0  0  0  0  0  0  0  0  0  0  # atno 8010 bound_to 7997
  140.6888  143.2919  151.3527 H   0  0  0  0  0  0  0  0  0  0  0  0  # atno 10167 bound_to 10162
  156.2075  130.4159  149.9159 H   0  0  0  0  0  0  0  0  0  0  0  0  # atno 10718 bound_to 10713
  154.0996  135.2846  155.3254 H   0  0  0  0  0  0  0  0  0  0  0  0  # atno 10763 bound_to 10752
  154.6564  135.5350  153.7967 H   0  0  0  0  0  0  0  0  0  0  0  0  # atno 10764 bound_to 10752
  153.0383  135.6523  154.1161 H   0  0  0  0  0  0  0  0  0  0  0  0  # atno 10765 bound_to 10752
  141.1557  133.7718  156.9796 H   0  0  0  0  0  0  0  0  0  0  0  0  # atno 11005 bound_to 11000
  145.9538  140.8888  143.0245 LP  0  0  0  0  0  0  0  0  0  0  0  0  # atno 17320 bound_to 7965
  144.6737  140.1717  143.7413 LP  0  0  0  0  0  0  0  0  0  0  0  0  # atno 17321 bound_to 7965
  139.6271  144.0793  152.2444 LP  0  0  0  0  0  0  0  0  0  0  0  0  # atno 17342 bound_to 10162
  140.0256  144.6120  150.7530 LP  0  0  0  0  0  0  0  0  0  0  0  0  # atno 17343 bound_to 10162
  156.6848  130.8872  151.3580 LP  0  0  0  0  0  0  0  0  0  0  0  0  # atno 17370 bound_to 10713
  157.7020  130.9343  150.0815 LP  0  0  0  0  0  0  0  0  0  0  0  0  # atno 17371 bound_to 10713
  140.1075  134.9497  157.2015 LP  0  0  0  0  0  0  0  0  0  0  0  0  # atno 17394 bound_to 11000
  140.3237  134.2887  155.7241 LP  0  0  0  0  0  0  0  0  0  0  0  0  # atno 17395 bound_to 11000

$$$$
