AV-unprocessed.smi:1830|AV-procd|sdf|7447|dock8
  -GOLD-   22720 9133D 1   1.00000     0.00000
 Structure written by MMmdl.
 54 57  0  0  0  0  0  0  0  0  3 V2000
  150.9008  140.7924  155.3078 O   0  0  0  0  0  0  0  0  0  0  0  0
  150.1171  141.7161  155.5244 C   0  0  0  0  0  0  0  0  0  0  0  0
  149.0006  141.9216  154.8124 N   0  0  0  0  0  0  0  0  0  0  0  0
  148.5741  141.1145  153.6728 C   0  0  0  0  0  0  0  0  0  0  0  0
  147.2013  140.4471  153.8880 C   0  0  1  0  0  0  0  0  0  0  0  0
  146.8979  139.3374  152.8646 C   0  0  0  0  0  0  0  0  0  0  0  0
  145.5967  138.6785  153.1452 N   0  3  1  0  0  0  0  0  0  0  0  0
  145.4239  137.4280  152.3727 C   0  0  0  0  0  0  0  0  0  0  0  0
  145.7981  136.2697  153.3158 C   0  0  0  0  0  0  0  0  0  0  0  0
  146.0997  136.9191  154.6709 C   0  0  0  0  0  0  0  0  0  0  0  0
  145.4347  138.2911  154.5637 C   0  0  1  0  0  0  0  0  0  0  0  0
  145.9335  139.3646  155.5519 C   0  0  0  0  0  0  0  0  0  0  0  0
  147.2142  139.8523  155.1784 O   0  0  0  0  0  0  0  0  0  0  0  0
  150.2480  142.6266  156.5032 N   0  0  0  0  0  0  0  0  0  0  0  0
  151.2711  142.7053  157.4904 C   0  0  0  0  0  0  0  0  0  0  0  0
  151.7886  143.9498  157.9330 C   0  0  0  0  0  0  0  0  0  0  0  0
  152.7711  143.9806  158.9412 C   0  0  0  0  0  0  0  0  0  0  0  0
  153.2135  142.7685  159.4998 C   0  0  0  0  0  0  0  0  0  0  0  0
  152.6896  141.6024  159.0681 N   0  3  0  0  0  0  0  0  0  0  0  0
  151.7420  141.5110  158.1024 C   0  0  0  0  0  0  0  0  0  0  0  0
  151.2841  140.2333  157.7148 N   0  0  0  0  0  0  0  0  0  0  0  0
  152.3247  139.3519  157.1921 C   0  0  0  0  0  0  0  0  0  0  0  0
  151.9466  137.9341  157.6238 C   0  0  0  0  0  0  0  0  0  0  0  0
  151.1516  138.1652  158.9027 C   0  0  0  0  0  0  0  0  0  0  0  0
  150.4106  139.4674  158.6035 C   0  0  0  0  0  0  0  0  0  0  0  0
  148.4130  142.7049  155.0591 H   0  0  0  0  0  0  0  0  0  0  0  0
  148.5375  141.7624  152.7965 H   0  0  0  0  0  0  0  0  0  0  0  0
  149.3304  140.3566  153.4617 H   0  0  0  0  0  0  0  0  0  0  0  0
  146.4227  141.2111  153.8502 H   0  0  0  0  0  0  0  0  0  0  0  0
  146.8706  139.7436  151.8529 H   0  0  0  0  0  0  0  0  0  0  0  0
  147.7001  138.5977  152.8868 H   0  0  0  0  0  0  0  0  0  0  0  0
  144.3743  137.3432  152.0885 H   0  0  0  0  0  0  0  0  0  0  0  0
  146.0086  137.4213  151.4515 H   0  0  0  0  0  0  0  0  0  0  0  0
  144.9653  135.5706  153.3995 H   0  0  0  0  0  0  0  0  0  0  0  0
  146.6598  135.7111  152.9493 H   0  0  0  0  0  0  0  0  0  0  0  0
  145.7243  136.3344  155.5112 H   0  0  0  0  0  0  0  0  0  0  0  0
  147.1775  137.0304  154.7976 H   0  0  0  0  0  0  0  0  0  0  0  0
  144.3665  138.1469  154.7353 H   0  0  0  0  0  0  0  0  0  0  0  0
  145.2295  140.1971  155.5921 H   0  0  0  0  0  0  0  0  0  0  0  0
  145.9856  138.9547  156.5607 H   0  0  0  0  0  0  0  0  0  0  0  0
  149.4811  143.2733  156.6178 H   0  0  0  0  0  0  0  0  0  0  0  0
  151.4346  144.8850  157.5262 H   0  0  0  0  0  0  0  0  0  0  0  0
  153.1738  144.9221  159.2854 H   0  0  0  0  0  0  0  0  0  0  0  0
  153.9614  142.6961  160.2760 H   0  0  0  0  0  0  0  0  0  0  0  0
  152.3999  139.4256  156.1071 H   0  0  0  0  0  0  0  0  0  0  0  0
  153.2928  139.6254  157.6148 H   0  0  0  0  0  0  0  0  0  0  0  0
  151.3056  137.4747  156.8701 H   0  0  0  0  0  0  0  0  0  0  0  0
  152.8134  137.2888  157.7690 H   0  0  0  0  0  0  0  0  0  0  0  0
  150.4807  137.3408  159.1451 H   0  0  0  0  0  0  0  0  0  0  0  0
  151.8325  138.3084  159.7428 H   0  0  0  0  0  0  0  0  0  0  0  0
  150.1202  139.9835  159.5183 H   0  0  0  0  0  0  0  0  0  0  0  0
  149.4912  139.2529  158.0578 H   0  0  0  0  0  0  0  0  0  0  0  0
  144.8666  139.3322  152.9004 H   0  0  0  0  0  0  0  0  0  0  0  0
  153.0299  140.7391  159.4920 H   0  0  0  0  0  0  0  0  0  0  0  0
  1  2  2  0  0  0  0
  2  3  1  0  0  0  0
  2 14  1  0  0  0  0
  3  4  1  0  0  0  0
  3 26  1  0  0  0  0
  4  5  1  0  0  0  0
  4 27  1  0  0  0  0
  4 28  1  0  0  0  0
  5 13  1  0  0  0  0
  5  6  1  0  0  0  0
  5 29  1  0  0  0  0
  6  7  1  0  0  0  0
  6 30  1  0  0  0  0
  6 31  1  0  0  0  0
  7 11  1  0  0  0  0
  7  8  1  0  0  0  0
  7 53  1  0  0  0  0
  8  9  1  0  0  0  0
  8 32  1  0  0  0  0
  8 33  1  0  0  0  0
  9 10  1  0  0  0  0
  9 34  1  0  0  0  0
  9 35  1  0  0  0  0
 10 11  1  0  0  0  0
 10 36  1  0  0  0  0
 10 37  1  0  0  0  0
 11 12  1  0  0  0  0
 11 38  1  0  0  0  0
 12 13  1  0  0  0  0
 12 39  1  0  0  0  0
 12 40  1  0  0  0  0
 14 15  1  0  0  0  0
 14 41  1  0  0  0  0
 15 20  1  0  0  0  0
 15 16  2  0  0  0  0
 16 17  1  0  0  0  0
 16 42  1  0  0  0  0
 17 18  2  0  0  0  0
 17 43  1  0  0  0  0
 18 19  1  0  0  0  0
 18 44  1  0  0  0  0
 19 20  2  0  0  0  0
 19 54  1  0  0  0  0
 20 21  1  0  0  0  0
 21 25  1  0  0  0  0
 21 22  1  0  0  0  0
 22 23  1  0  0  0  0
 22 45  1  0  0  0  0
 22 46  1  0  0  0  0
 23 24  1  0  0  0  0
 23 47  1  0  0  0  0
 23 48  1  0  0  0  0
 24 25  1  0  0  0  0
 24 49  1  0  0  0  0
 24 50  1  0  0  0  0
 25 51  1  0  0  0  0
 25 52  1  0  0  0  0
M  CHG  1   7   1
M  CHG  1  19   1
M  END
> <s_m_source_file>
AV-unprocessed.smi

> <i_m_source_file_index>
1830

> <i_lp_mmshare_version>
43012

> <i_f3d_flags>
0

> <s_epik_input>
W0NIMl0xW0NIMl1bQ0gyXVtDQEhdKE4xMilbQ0gyXU9bQ0BASF0oW0NIMl0yKVtDSDJdW05IXUMoPU8pW05IXWMzW2NIXVtjSF1bY0hdbmMzTjRbQ0gyXVtDSDJdW0NIMl1bQ0gyXTQ=

> <s_epik_cmdline>
J2VwaWtfcHl0aG9uJywgJy1waCcsICc3LjAnLCAnLXRuJywgJzgnLCAnLW1hJywgJzIwMCcsICctbWV0YWxfYmluZGluZycsICctaW1hZScsICc8aW5maWxlLm1hZT4nLCAnLW9tYWUnLCAnPG91dGZpbGUubWFlPic=

> <r_lp_tautomer_probability>
0.999994

> <r_epik_Ionization_Penalty>
1.29113

> <r_epik_Ionization_Penalty_Charging>
1.29111

> <r_epik_Ionization_Penalty_Neutral>
1.88144e-05

> <r_epik_State_Penalty>
1.32676

> <r_epik_Charging_Adjusted_Penalty>
2.61787

> <i_epik_Tot_Q>
2

> <i_epik_Tot_abs_Q>
2

> <r_epik_Metal_State_Penalty>
1.40425

> <b_epik_Metal_Only>
0

> <s_lp_Force_Field>
OPLS_2005

> <r_lp_Energy>
75.2676

> <b_lp_Chiralities_Consistent>
1

> <s_lp_Variant>
AV-unprocessed.smi:1830-16

> <Gold.Version>
5.8.1

> <Gold.Id.Protein>
6NUR|6NUR_protein|mol2

> <Gold.PLP.Fitness>
48.8774

> <Gold.PLP.PLP>
-38.0158

> <Gold.PLP.part.hbond>
-4.0000

> <Gold.PLP.part.metal>
0.0000

> <Gold.PLP.part.buried>
-1.7774

> <Gold.PLP.part.nonpolar>
-31.0162

> <Gold.PLP.part.repulsive>
0.4583

> <Gold.PLP.ligand.clash>
0.0000

> <Gold.PLP.ligand.torsion>
0.5163

> <Gold.PLP.Chemscore.Hbond>
3.9088

> <Gold.PLP.Chemscore.CHOScore>
0.0000

> <Gold.PLP.Chemscore.Metal>
0.0000

> <Gold.Chemscore.Hbonds>
donor molecule, donor type, donor heavy atom, donor atom, acceptor molecule, acceptor atom, score
      L1  H     3    26       P1  8028  0.48
      L1  H     7    53       P1 10175  2.00
      L1  H    14    41       P1  8028  0.69
      P1  H  7989  7998       L1     1  0.82

> <Gold.PLP.Chemscore.Internal.Correction>
0.1677

> <Gold.Rescore>
     Score         DG    S(hbond)    S(metal)    S(lipo)     H(rot)  DE(clash)    DE(int)     intcor
     16.65     -22.77       2.89        0.00      96.43       1.43       0.11       6.01       ----

> <Gold.Chemscore.Fitness>
16.6497

> <Gold.Chemscore.DG>
-22.7672

> <Gold.Chemscore.ZeroCoef>
-5.4800

> <Gold.Chemscore.Hbond>
2.8923

> <Gold.Chemscore.Metal>
0.0000

> <Gold.Chemscore.Lipo>
96.4271

> <Gold.Chemscore.Internal_Hbond>
0.0000

> <Gold.Chemscore.DEClash>
0.1071

> <Gold.Chemscore.DEInternal>
6.0104

> <Gold.Chemscore.Rot>
1.4278

> <Gold.Chemscore.Internal.Correction>
   9.000000E+99

> <Gold.Chemscore.Hbonds>
donor molecule, donor type, donor heavy atom, donor atom, acceptor molecule, acceptor atom, score
      L1  H     3    26       P1  8028  0.48
      L1  H     7    53       P1 10175  1.00
      L1  H    14    41       P1  8028  0.68
      P1  H  7989  7998       L1     1  0.63

> <Gold.Chemscore.Hbond.Weighted>
-9.6603

> <Gold.Chemscore.Metal.Weighted>
-0.0000

> <Gold.Chemscore.Lipo.Weighted>
-11.2820

> <Gold.Chemscore.Internal_Hbond.Weighted>
0.0000

> <Gold.Chemscore.DEClash.Weighted>
0.1071

> <Gold.Chemscore.DEInternal.Weighted>
6.0104

> <Gold.Chemscore.Rot.Weighted>
3.6551

> <Gold.Chemscore.Internal.Correction.Weighted>
   9.000000E+99

> <Gold.Protein.RotatedTorsions>
[ 6907 6896 6895 6894 ] final   98.62 input  -60.11 | X-H torsion
[ 7974 7965 7964 7962 ] final   61.45 input  175.53 | X-H torsion
[ 8008 7997 7996 7995 ] final   -0.34 input   59.86 | X-H torsion
[ 10167 10162 10161 10158 ] final   59.55 input  -65.29 | X-H torsion
[ 10718 10713 10712 10709 ] final -109.50 input   66.30 | X-H torsion
[ 10763 10752 10751 10750 ] final -166.64 input  -60.55 | X-H torsion
[ 11005 11000 10999 10996 ] final   82.71 input  -57.11 | X-H torsion

> <Gold.Protein.ActiveResidues>
 VAL166  LYS551  ARG553  GLY616  TRP617  ASP618  TYR619  PRO620  LYS621  CYS622 
 ASP623  PHE694  ASN695  SER759  ASP760  ASP761  ALA762  ILE779  LEU786  VAL792 
 PHE793  MET794  SER795  GLU796  ALA797  LYS798  CYS799  TRP800  GLU811  SER814 

> <Gold.Protein.RotatedAtoms>
  152.5406  134.0552  159.8127 H   0  0  0  0  0  0  0  0  0  0  0  0  # atno 6907 bound_to 6896
  151.0688  133.5476  159.2636 H   0  0  0  0  0  0  0  0  0  0  0  0  # atno 6908 bound_to 6896
  151.2347  135.0575  159.9055 H   0  0  0  0  0  0  0  0  0  0  0  0  # atno 6909 bound_to 6896
  145.8845  139.3467  143.0686 H   0  0  0  0  0  0  0  0  0  0  0  0  # atno 7974 bound_to 7965
  154.6592  140.2586  155.7127 H   0  0  0  0  0  0  0  0  0  0  0  0  # atno 8008 bound_to 7997
  156.2611  140.2852  156.0979 H   0  0  0  0  0  0  0  0  0  0  0  0  # atno 8009 bound_to 7997
  155.1334  140.0379  157.2770 H   0  0  0  0  0  0  0  0  0  0  0  0  # atno 8010 bound_to 7997
  140.1753  144.4236  150.6641 H   0  0  0  0  0  0  0  0  0  0  0  0  # atno 10167 bound_to 10162
  156.0540  130.5767  150.8108 H   0  0  0  0  0  0  0  0  0  0  0  0  # atno 10718 bound_to 10713
  154.6813  135.2955  154.9609 H   0  0  0  0  0  0  0  0  0  0  0  0  # atno 10763 bound_to 10752
  154.0603  135.6632  153.4815 H   0  0  0  0  0  0  0  0  0  0  0  0  # atno 10764 bound_to 10752
  153.0549  135.5150  154.7858 H   0  0  0  0  0  0  0  0  0  0  0  0  # atno 10765 bound_to 10752
  139.9054  134.8091  156.2211 H   0  0  0  0  0  0  0  0  0  0  0  0  # atno 11005 bound_to 11000
  145.8983  140.9259  143.0516 LP  0  0  0  0  0  0  0  0  0  0  0  0  # atno 17320 bound_to 7965
  144.6728  140.0998  143.7461 LP  0  0  0  0  0  0  0  0  0  0  0  0  # atno 17321 bound_to 7965
  140.6556  143.2236  151.5977 LP  0  0  0  0  0  0  0  0  0  0  0  0  # atno 17342 bound_to 10162
  139.5320  144.2889  152.1168 LP  0  0  0  0  0  0  0  0  0  0  0  0  # atno 17343 bound_to 10162
  157.5494  131.0943  150.9717 LP  0  0  0  0  0  0  0  0  0  0  0  0  # atno 17370 bound_to 10713
  156.9981  130.5589  149.5309 LP  0  0  0  0  0  0  0  0  0  0  0  0  # atno 17371 bound_to 10713
  141.0405  133.6940  156.1589 LP  0  0  0  0  0  0  0  0  0  0  0  0  # atno 17394 bound_to 11000
  140.6963  134.4612  157.5587 LP  0  0  0  0  0  0  0  0  0  0  0  0  # atno 17395 bound_to 11000

$$$$
