AV-unprocessed.smi:1036|AV-procd|sdf|4518|dock2
  -GOLD-   22720 2533D 1   1.00000     0.00000
 Structure written by MMmdl.
 41 43  0  0  0  0  0  0  0  0  1 V2000
  146.6475  137.4881  151.1118 O   0  0  0  0  0  0  0  0  0  0  0  0
  146.4313  138.3828  152.1808 C   0  0  0  0  0  0  0  0  0  0  0  0
  146.7014  139.8220  151.7194 C   0  0  0  0  0  0  0  0  0  0  0  0
  146.9627  140.7175  152.8317 N   0  0  0  0  0  0  0  0  0  0  0  0
  147.9441  140.7137  153.8160 C   0  0  0  0  0  0  0  0  0  0  0  0
  148.9021  139.7924  153.9009 N   0  0  0  0  0  0  0  0  0  0  0  0
  149.6130  140.2085  155.0107 C   0  0  0  0  0  0  0  0  0  0  0  0
  150.7575  139.6551  155.6283 C   0  0  0  0  0  0  0  0  0  0  0  0
  151.3172  140.2646  156.7704 C   0  0  0  0  0  0  0  0  0  0  0  0
  150.7421  141.4330  157.3110 C   0  0  0  0  0  0  0  0  0  0  0  0
  149.6021  142.0016  156.7113 C   0  0  0  0  0  0  0  0  0  0  0  0
  149.0472  141.3902  155.5715 C   0  0  0  0  0  0  0  0  0  0  0  0
  147.9595  141.6891  154.7565 N   0  0  0  0  0  0  0  0  0  0  0  0
  147.0587  142.8243  154.9090 C   0  0  0  0  0  0  0  0  0  0  0  0
  145.6630  142.3953  155.4023 C   0  0  2  0  0  0  0  0  0  0  0  0
  145.1169  141.5039  154.4511 O   0  0  0  0  0  0  0  0  0  0  0  0
  144.7496  143.5857  155.6739 C   0  0  0  0  0  0  0  0  0  0  0  0
  144.1898  143.7771  156.9570 C   0  0  0  0  0  0  0  0  0  0  0  0
  143.3415  144.8723  157.2077 C   0  0  0  0  0  0  0  0  0  0  0  0
  142.8098  145.0477  158.4401 F   0  0  0  0  0  0  0  0  0  0  0  0
  143.0411  145.7812  156.1760 C   0  0  0  0  0  0  0  0  0  0  0  0
  143.5854  145.5908  154.8921 C   0  0  0  0  0  0  0  0  0  0  0  0
  144.4368  144.4977  154.6396 C   0  0  0  0  0  0  0  0  0  0  0  0
  144.9457  144.3266  153.3959 F   0  0  0  0  0  0  0  0  0  0  0  0
  146.9369  136.6620  151.4681 H   0  0  0  0  0  0  0  0  0  0  0  0
  145.3870  138.2855  152.4784 H   0  0  0  0  0  0  0  0  0  0  0  0
  147.0371  138.1054  153.0444 H   0  0  0  0  0  0  0  0  0  0  0  0
  147.5227  139.8627  151.0031 H   0  0  0  0  0  0  0  0  0  0  0  0
  145.8199  140.2019  151.2019 H   0  0  0  0  0  0  0  0  0  0  0  0
  146.3014  141.4772  152.9021 H   0  0  0  0  0  0  0  0  0  0  0  0
  151.2056  138.7602  155.2227 H   0  0  0  0  0  0  0  0  0  0  0  0
  152.1923  139.8335  157.2341 H   0  0  0  0  0  0  0  0  0  0  0  0
  151.1772  141.8928  158.1864 H   0  0  0  0  0  0  0  0  0  0  0  0
  149.1601  142.8974  157.1219 H   0  0  0  0  0  0  0  0  0  0  0  0
  147.4983  143.5639  155.5789 H   0  0  0  0  0  0  0  0  0  0  0  0
  146.9756  143.3110  153.9362 H   0  0  0  0  0  0  0  0  0  0  0  0
  145.7730  141.8184  156.3211 H   0  0  0  0  0  0  0  0  0  0  0  0
  145.0117  141.9662  153.6335 H   0  0  0  0  0  0  0  0  0  0  0  0
  144.4070  143.0824  157.7550 H   0  0  0  0  0  0  0  0  0  0  0  0
  142.3876  146.6195  156.3673 H   0  0  0  0  0  0  0  0  0  0  0  0
  143.3484  146.2839  154.0985 H   0  0  0  0  0  0  0  0  0  0  0  0
  1  2  1  0  0  0  0
  1 25  1  0  0  0  0
  2  3  1  0  0  0  0
  2 26  1  0  0  0  0
  2 27  1  0  0  0  0
  3  4  1  0  0  0  0
  3 28  1  0  0  0  0
  3 29  1  0  0  0  0
  4  5  1  0  0  0  0
  4 30  1  0  0  0  0
  5 13  1  0  0  0  0
  5  6  2  0  0  0  0
  6  7  1  0  0  0  0
  7 12  2  0  0  0  0
  7  8  1  0  0  0  0
  8  9  2  0  0  0  0
  8 31  1  0  0  0  0
  9 10  1  0  0  0  0
  9 32  1  0  0  0  0
 10 11  2  0  0  0  0
 10 33  1  0  0  0  0
 11 12  1  0  0  0  0
 11 34  1  0  0  0  0
 12 13  1  0  0  0  0
 13 14  1  0  0  0  0
 14 15  1  0  0  0  0
 14 35  1  0  0  0  0
 14 36  1  0  0  0  0
 15 16  1  0  0  0  0
 15 17  1  0  0  0  0
 15 37  1  0  0  0  0
 16 38  1  0  0  0  0
 17 23  1  0  0  0  0
 17 18  2  0  0  0  0
 18 19  1  0  0  0  0
 18 39  1  0  0  0  0
 19 20  1  0  0  0  0
 19 21  2  0  0  0  0
 21 22  1  0  0  0  0
 21 40  1  0  0  0  0
 22 23  2  0  0  0  0
 22 41  1  0  0  0  0
 23 24  1  0  0  0  0
M  END
> <s_m_source_file>
AV-unprocessed.smi

> <i_m_source_file_index>
1036

> <i_lp_mmshare_version>
43012

> <i_f3d_flags>
0

> <s_epik_input>
W09IXVtDSDJdW0NIMl1bTkhdYyhuMSluKGMoYzEyKVtjSF1bY0hdW2NIXVtjSF0yKVtDSDJdW0NASF0oW09IXSljM1tjSF1jKEYpW2NIXVtjSF1jM0Y=

> <s_epik_cmdline>
J2VwaWtfcHl0aG9uJywgJy1waCcsICc3LjAnLCAnLXRuJywgJzgnLCAnLW1hJywgJzIwMCcsICctbWV0YWxfYmluZGluZycsICctaW1hZScsICc8aW5maWxlLm1hZT4nLCAnLW9tYWUnLCAnPG91dGZpbGUubWFlPic=

> <r_epik_Ionization_Penalty>
1.30972

> <r_epik_Ionization_Penalty_Charging>
0

> <r_epik_Ionization_Penalty_Neutral>
1.30972

> <r_epik_State_Penalty>
1.38438

> <r_epik_Charging_Adjusted_Penalty>
1.38438

> <i_epik_Tot_Q>
0

> <i_epik_Tot_abs_Q>
0

> <r_epik_Metal_State_Penalty>
0.00551145

> <b_epik_Metal_Only>
0

> <s_lp_Force_Field>
OPLS_2005

> <r_lp_Energy>
9.11105

> <b_lp_Chiralities_Consistent>
1

> <s_lp_Variant>
AV-unprocessed.smi:1036-3

> <Gold.Version>
5.8.1

> <Gold.Id.Protein>
6NUR|6NUR_protein|mol2

> <Gold.PLP.Fitness>
41.4895

> <Gold.PLP.PLP>
-37.4801

> <Gold.PLP.part.hbond>
-3.8735

> <Gold.PLP.part.metal>
0.0000

> <Gold.PLP.part.buried>
3.8225

> <Gold.PLP.part.nonpolar>
-39.9871

> <Gold.PLP.part.repulsive>
2.2205

> <Gold.PLP.ligand.clash>
0.0000

> <Gold.PLP.ligand.torsion>
0.2395

> <Gold.PLP.Chemscore.Hbond>
1.4800

> <Gold.PLP.Chemscore.CHOScore>
0.0000

> <Gold.PLP.Chemscore.Metal>
0.0000

> <Gold.Chemscore.Hbonds>
donor molecule, donor type, donor heavy atom, donor atom, acceptor molecule, acceptor atom, score
      L1  H     1    25       P1  7948  0.41
      P1  H  7954  7966       L1     1  0.95

> <Gold.PLP.Chemscore.Internal.Correction>
0.0484

> <Gold.Rescore>
     Score         DG    S(hbond)    S(metal)    S(lipo)     H(rot)  DE(clash)    DE(int)     intcor
      4.91     -10.96       1.20        0.00      82.98       3.22       3.09       2.96       ----

> <Gold.Chemscore.Fitness>
4.9114

> <Gold.Chemscore.DG>
-10.9625

> <Gold.Chemscore.ZeroCoef>
-5.4800

> <Gold.Chemscore.Hbond>
1.2022

> <Gold.Chemscore.Metal>
0.0000

> <Gold.Chemscore.Lipo>
82.9803

> <Gold.Chemscore.Internal_Hbond>
0.0000

> <Gold.Chemscore.DEClash>
3.0936

> <Gold.Chemscore.DEInternal>
2.9574

> <Gold.Chemscore.Rot>
3.2194

> <Gold.Chemscore.Internal.Correction>
   9.000000E+99

> <Gold.Chemscore.Hbonds>
donor molecule, donor type, donor heavy atom, donor atom, acceptor molecule, acceptor atom, score
      L1  H     1    25       P1  7948  0.41
      P1  H  7954  7966       L1     1  0.20

> <Gold.Chemscore.Hbond.Weighted>
-4.0154

> <Gold.Chemscore.Metal.Weighted>
-0.0000

> <Gold.Chemscore.Lipo.Weighted>
-9.7087

> <Gold.Chemscore.Internal_Hbond.Weighted>
0.0000

> <Gold.Chemscore.DEClash.Weighted>
3.0936

> <Gold.Chemscore.DEInternal.Weighted>
2.9574

> <Gold.Chemscore.Rot.Weighted>
8.2416

> <Gold.Chemscore.Internal.Correction.Weighted>
   9.000000E+99

> <Gold.Protein.RotatedTorsions>
[ 6907 6896 6895 6894 ] final   -2.36 input  -60.11 | X-H torsion
[ 7974 7965 7964 7962 ] final   28.57 input  175.53 | X-H torsion
[ 8008 7997 7996 7995 ] final   25.46 input   59.86 | X-H torsion
[ 10167 10162 10161 10158 ] final -137.51 input  -65.29 | X-H torsion
[ 10718 10713 10712 10709 ] final   33.27 input   66.30 | X-H torsion
[ 10763 10752 10751 10750 ] final   22.51 input  -60.55 | X-H torsion
[ 11005 11000 10999 10996 ] final   78.39 input  -57.11 | X-H torsion

> <Gold.Protein.ActiveResidues>
 VAL166  LYS551  ARG553  GLY616  TRP617  ASP618  TYR619  PRO620  LYS621  CYS622 
 ASP623  PHE694  ASN695  SER759  ASP760  ASP761  ALA762  ILE779  LEU786  VAL792 
 PHE793  MET794  SER795  GLU796  ALA797  LYS798  CYS799  TRP800  GLU811  SER814 

> <Gold.Protein.RotatedAtoms>
  151.5312  135.1068  159.9902 H   0  0  0  0  0  0  0  0  0  0  0  0  # atno 6907 bound_to 6896
  152.4578  133.7754  159.6832 H   0  0  0  0  0  0  0  0  0  0  0  0  # atno 6908 bound_to 6896
  150.8528  133.7696  159.3044 H   0  0  0  0  0  0  0  0  0  0  0  0  # atno 6909 bound_to 6896
  146.1721  139.7038  142.8960 H   0  0  0  0  0  0  0  0  0  0  0  0  # atno 7974 bound_to 7965
  155.0120  140.3137  155.4826 H   0  0  0  0  0  0  0  0  0  0  0  0  # atno 8008 bound_to 7997
  156.2907  140.2213  156.5177 H   0  0  0  0  0  0  0  0  0  0  0  0  # atno 8009 bound_to 7997
  154.7526  140.0465  157.0894 H   0  0  0  0  0  0  0  0  0  0  0  0  # atno 8010 bound_to 7997
  139.8571  143.7125  152.2653 H   0  0  0  0  0  0  0  0  0  0  0  0  # atno 10167 bound_to 10162
  157.2958  130.7325  149.6637 H   0  0  0  0  0  0  0  0  0  0  0  0  # atno 10718 bound_to 10713
  153.0910  135.6646  153.9855 H   0  0  0  0  0  0  0  0  0  0  0  0  # atno 10763 bound_to 10752
  153.9451  135.2989  155.3442 H   0  0  0  0  0  0  0  0  0  0  0  0  # atno 10764 bound_to 10752
  154.7324  135.5117  153.9059 H   0  0  0  0  0  0  0  0  0  0  0  0  # atno 10765 bound_to 10752
  139.9214  134.7760  156.1644 H   0  0  0  0  0  0  0  0  0  0  0  0  # atno 11005 bound_to 11000
  145.4311  141.0415  143.2910 LP  0  0  0  0  0  0  0  0  0  0  0  0  # atno 17320 bound_to 7965
  144.8179  139.5843  143.7000 LP  0  0  0  0  0  0  0  0  0  0  0  0  # atno 17321 bound_to 7965
  139.7410  144.7559  151.0653 LP  0  0  0  0  0  0  0  0  0  0  0  0  # atno 17342 bound_to 10162
  140.7780  143.4973  150.9816 LP  0  0  0  0  0  0  0  0  0  0  0  0  # atno 17343 bound_to 10162
  155.9669  130.4295  150.4835 LP  0  0  0  0  0  0  0  0  0  0  0  0  # atno 17370 bound_to 10713
  157.2806  131.0606  151.2200 LP  0  0  0  0  0  0  0  0  0  0  0  0  # atno 17371 bound_to 10713
  141.0738  133.6784  156.2195 LP  0  0  0  0  0  0  0  0  0  0  0  0  # atno 17394 bound_to 11000
  140.6462  134.5115  157.5574 LP  0  0  0  0  0  0  0  0  0  0  0  0  # atno 17395 bound_to 11000

$$$$
