AV-unprocessed.smi:740|AV-procd|sdf|3551|dock9
  -GOLD-   22720 0543D 1   1.00000     0.00000
 Structure written by MMmdl.
 45 47  0  0  0  0  0  0  0  0  2 V2000
  152.7862  144.2393  160.1104 C   0  0  0  0  0  0  0  0  0  0  0  0
  152.0615  143.0631  159.4784 C   0  0  0  0  0  0  0  0  0  0  0  0
  151.0022  143.3271  158.5815 C   0  0  0  0  0  0  0  0  0  0  0  0
  150.3601  142.2310  158.0182 C   0  0  0  0  0  0  0  0  0  0  0  0
  149.3006  142.1606  157.1117 N   0  3  0  0  0  0  0  0  0  0  0  0
  149.0156  140.8558  156.8467 C   0  0  0  0  0  0  0  0  0  0  0  0
  149.8754  140.0914  157.5731 N   0  0  0  0  0  0  0  0  0  0  0  0
  149.9879  138.6278  157.6470 C   0  0  0  0  0  0  0  0  0  0  0  0
  148.9041  137.9909  158.5387 C   0  0  1  0  0  0  0  0  0  0  0  0
  147.8293  137.5706  157.7213 O   0  0  0  0  0  0  0  0  0  0  0  0
  149.4496  136.7718  159.3113 C   0  0  0  0  0  0  0  0  0  0  0  0
  148.3745  135.8967  159.7926 N   0  0  0  0  0  0  0  0  0  0  0  0
  148.1489  134.6598  159.3291 C   0  0  0  0  0  0  0  0  0  0  0  0
  148.7869  134.0851  158.4475 O   0  0  0  0  0  0  0  0  0  0  0  0
  146.9728  134.0135  160.0476 C   0  0  0  0  0  0  0  0  0  0  0  0
  146.5336  135.0928  161.0488 C   0  0  1  0  0  0  0  0  0  0  0  0
  146.5870  134.6349  162.5157 C   0  0  0  0  0  0  0  0  0  0  0  0
  147.5202  136.2257  160.7720 C   0  0  0  0  0  0  0  0  0  0  0  0
  147.5040  137.2885  161.3931 O   0  0  0  0  0  0  0  0  0  0  0  0
  150.7346  140.9069  158.3198 C   0  0  0  0  0  0  0  0  0  0  0  0
  151.7761  140.6299  159.2027 C   0  0  0  0  0  0  0  0  0  0  0  0
  152.4446  141.7314  159.7836 C   0  0  0  0  0  0  0  0  0  0  0  0
  153.5881  141.4587  160.7462 C   0  0  0  0  0  0  0  0  0  0  0  0
  152.3441  145.1891  159.8081 H   0  0  0  0  0  0  0  0  0  0  0  0
  153.8340  144.2482  159.8092 H   0  0  0  0  0  0  0  0  0  0  0  0
  152.7382  144.1817  161.1980 H   0  0  0  0  0  0  0  0  0  0  0  0
  150.7060  144.3380  158.3424 H   0  0  0  0  0  0  0  0  0  0  0  0
  148.2463  140.4926  156.1806 H   0  0  0  0  0  0  0  0  0  0  0  0
  149.9768  138.2088  156.6405 H   0  0  0  0  0  0  0  0  0  0  0  0
  150.9753  138.4104  158.0562 H   0  0  0  0  0  0  0  0  0  0  0  0
  148.5367  138.7453  159.2360 H   0  0  0  0  0  0  0  0  0  0  0  0
  148.0688  137.7045  156.8170 H   0  0  0  0  0  0  0  0  0  0  0  0
  150.1700  136.2208  158.7038 H   0  0  0  0  0  0  0  0  0  0  0  0
  150.0153  137.1152  160.1793 H   0  0  0  0  0  0  0  0  0  0  0  0
  146.1798  133.7719  159.3390 H   0  0  0  0  0  0  0  0  0  0  0  0
  147.2927  133.0932  160.5378 H   0  0  0  0  0  0  0  0  0  0  0  0
  145.5274  135.4371  160.8063 H   0  0  0  0  0  0  0  0  0  0  0  0
  146.2333  135.4188  163.1862 H   0  0  0  0  0  0  0  0  0  0  0  0
  147.6010  134.3695  162.8178 H   0  0  0  0  0  0  0  0  0  0  0  0
  145.9553  133.7603  162.6726 H   0  0  0  0  0  0  0  0  0  0  0  0
  152.0710  139.6174  159.4340 H   0  0  0  0  0  0  0  0  0  0  0  0
  153.7921  140.3910  160.8321 H   0  0  0  0  0  0  0  0  0  0  0  0
  153.3468  141.8335  161.7412 H   0  0  0  0  0  0  0  0  0  0  0  0
  154.5025  141.9441  160.4047 H   0  0  0  0  0  0  0  0  0  0  0  0
  148.8069  142.9434  156.7019 H   0  0  0  0  0  0  0  0  0  0  0  0
  1  2  1  0  0  0  0
  1 24  1  0  0  0  0
  1 25  1  0  0  0  0
  1 26  1  0  0  0  0
  2 22  1  0  0  0  0
  2  3  2  0  0  0  0
  3  4  1  0  0  0  0
  3 27  1  0  0  0  0
  4 20  2  0  0  0  0
  4  5  1  0  0  0  0
  5  6  2  0  0  0  0
  5 45  1  0  0  0  0
  6  7  1  0  0  0  0
  6 28  1  0  0  0  0
  7  8  1  0  0  0  0
  7 20  1  0  0  0  0
  8  9  1  0  0  0  0
  8 29  1  0  0  0  0
  8 30  1  0  0  0  0
  9 10  1  0  0  0  0
  9 11  1  0  0  0  0
  9 31  1  0  0  0  0
 10 32  1  0  0  0  0
 11 12  1  0  0  0  0
 11 33  1  0  0  0  0
 11 34  1  0  0  0  0
 12 18  1  0  0  0  0
 12 13  1  0  0  0  0
 13 14  2  0  0  0  0
 13 15  1  0  0  0  0
 15 16  1  0  0  0  0
 15 35  1  0  0  0  0
 15 36  1  0  0  0  0
 16 17  1  0  0  0  0
 16 18  1  0  0  0  0
 16 37  1  0  0  0  0
 17 38  1  0  0  0  0
 17 39  1  0  0  0  0
 17 40  1  0  0  0  0
 18 19  2  0  0  0  0
 20 21  1  0  0  0  0
 21 22  2  0  0  0  0
 21 41  1  0  0  0  0
 22 23  1  0  0  0  0
 23 42  1  0  0  0  0
 23 43  1  0  0  0  0
 23 44  1  0  0  0  0
M  CHG  1   5   1
M  END
> <s_m_source_file>
AV-unprocessed.smi

> <i_m_source_file_index>
740

> <i_lp_mmshare_version>
43012

> <i_f3d_flags>
0

> <s_epik_input>
W0NIM11jKFtjSF0xKWMoW0NIM10pW2NIXWMoYzEyKW4oW2NIXW4yKVtDSDJdW0NASF0oW09IXSlbQ0gyXU4zQyg9TylbQ0gyXVtDQEBIXShbQ0gzXSlDMz1P

> <s_epik_cmdline>
J2VwaWtfcHl0aG9uJywgJy1waCcsICc3LjAnLCAnLXRuJywgJzgnLCAnLW1hJywgJzIwMCcsICctbWV0YWxfYmluZGluZycsICctaW1hZScsICc8aW5maWxlLm1hZT4nLCAnLW9tYWUnLCAnPG91dGZpbGUubWFlPic=

> <r_lp_tautomer_probability>
1

> <r_epik_Ionization_Penalty>
1.08202

> <r_epik_Ionization_Penalty_Charging>
1.08202

> <r_epik_Ionization_Penalty_Neutral>
1.16605e-06

> <r_epik_State_Penalty>
1.13754

> <r_epik_Charging_Adjusted_Penalty>
2.21956

> <i_epik_Tot_Q>
1

> <i_epik_Tot_abs_Q>
1

> <r_epik_Metal_State_Penalty>
5.13645

> <b_epik_Metal_Only>
0

> <s_lp_Force_Field>
OPLS_2005

> <r_lp_Energy>
22.2654

> <b_lp_Chiralities_Consistent>
1

> <s_lp_Variant>
AV-unprocessed.smi:740-6

> <Gold.Version>
5.8.1

> <Gold.Id.Protein>
6NUR|6NUR_protein|mol2

> <Gold.PLP.Fitness>
52.2456

> <Gold.PLP.PLP>
-40.4817

> <Gold.PLP.part.hbond>
-4.0000

> <Gold.PLP.part.metal>
0.0000

> <Gold.PLP.part.buried>
-5.0304

> <Gold.PLP.part.nonpolar>
-31.7395

> <Gold.PLP.part.repulsive>
0.0040

> <Gold.PLP.ligand.clash>
0.0000

> <Gold.PLP.ligand.torsion>
0.9805

> <Gold.PLP.Chemscore.Hbond>
4.5683

> <Gold.PLP.Chemscore.CHOScore>
0.0000

> <Gold.PLP.Chemscore.Metal>
0.0000

> <Gold.Chemscore.Hbonds>
donor molecule, donor type, donor heavy atom, donor atom, acceptor molecule, acceptor atom, score
      L1  H     5    45       P1  8028  1.87
      P1  H  6896  6909       L1    14  0.75
      P1  H  6931  6943       L1    19  0.88
      P1  H  6934  6947       L1    19  0.88

> <Gold.PLP.Chemscore.Internal.Correction>
0.0198

> <Gold.Rescore>
     Score         DG    S(hbond)    S(metal)    S(lipo)     H(rot)  DE(clash)    DE(int)     intcor
     20.68     -21.82       3.29        0.00      97.69       2.37       0.12       1.02       ----

> <Gold.Chemscore.Fitness>
20.6770

> <Gold.Chemscore.DG>
-21.8158

> <Gold.Chemscore.ZeroCoef>
-5.4800

> <Gold.Chemscore.Hbond>
3.2874

> <Gold.Chemscore.Metal>
0.0000

> <Gold.Chemscore.Lipo>
97.6852

> <Gold.Chemscore.Internal_Hbond>
0.0000

> <Gold.Chemscore.DEClash>
0.1214

> <Gold.Chemscore.DEInternal>
1.0174

> <Gold.Chemscore.Rot>
2.3724

> <Gold.Chemscore.Internal.Correction>
   9.000000E+99

> <Gold.Chemscore.Hbonds>
donor molecule, donor type, donor heavy atom, donor atom, acceptor molecule, acceptor atom, score
      L1  H     5    45       P1  8028  0.78
      P1  H  6896  6909       L1    14  0.29
      P1  H  6931  6943       L1    19  0.86
      P1  H  6934  6947       L1    19  0.87

> <Gold.Chemscore.Hbond.Weighted>
-10.9801

> <Gold.Chemscore.Metal.Weighted>
-0.0000

> <Gold.Chemscore.Lipo.Weighted>
-11.4292

> <Gold.Chemscore.Internal_Hbond.Weighted>
0.0000

> <Gold.Chemscore.DEClash.Weighted>
0.1214

> <Gold.Chemscore.DEInternal.Weighted>
1.0174

> <Gold.Chemscore.Rot.Weighted>
6.0734

> <Gold.Chemscore.Internal.Correction.Weighted>
   9.000000E+99

> <Gold.Protein.RotatedTorsions>
[ 6907 6896 6895 6894 ] final    4.64 input  -60.11 | X-H torsion
[ 7974 7965 7964 7962 ] final   86.17 input  175.53 | X-H torsion
[ 8008 7997 7996 7995 ] final   50.23 input   59.86 | X-H torsion
[ 10167 10162 10161 10158 ] final   59.99 input  -65.29 | X-H torsion
[ 10718 10713 10712 10709 ] final -141.80 input   66.30 | X-H torsion
[ 10763 10752 10751 10750 ] final  -70.81 input  -60.55 | X-H torsion
[ 11005 11000 10999 10996 ] final    2.48 input  -57.11 | X-H torsion

> <Gold.Protein.ActiveResidues>
 VAL166  LYS551  ARG553  GLY616  TRP617  ASP618  TYR619  PRO620  LYS621  CYS622 
 ASP623  PHE694  ASN695  SER759  ASP760  ASP761  ALA762  ILE779  LEU786  VAL792 
 PHE793  MET794  SER795  GLU796  ALA797  LYS798  CYS799  TRP800  GLU811  SER814 

> <Gold.Protein.RotatedAtoms>
  151.6446  135.1009  160.0148 H   0  0  0  0  0  0  0  0  0  0  0  0  # atno 6907 bound_to 6896
  152.4035  133.6849  159.6345 H   0  0  0  0  0  0  0  0  0  0  0  0  # atno 6908 bound_to 6896
  150.7932  133.8667  159.3288 H   0  0  0  0  0  0  0  0  0  0  0  0  # atno 6909 bound_to 6896
  145.5759  139.2319  143.2380 H   0  0  0  0  0  0  0  0  0  0  0  0  # atno 7974 bound_to 7965
  155.4152  140.3444  155.4267 H   0  0  0  0  0  0  0  0  0  0  0  0  # atno 8008 bound_to 7997
  156.1425  140.1546  156.8930 H   0  0  0  0  0  0  0  0  0  0  0  0  # atno 8009 bound_to 7997
  154.4983  140.0822  156.7724 H   0  0  0  0  0  0  0  0  0  0  0  0  # atno 8010 bound_to 7997
  140.1705  144.4282  150.6664 H   0  0  0  0  0  0  0  0  0  0  0  0  # atno 10167 bound_to 10162
  156.3383  130.7623  151.1755 H   0  0  0  0  0  0  0  0  0  0  0  0  # atno 10718 bound_to 10713
  154.4229  135.5982  153.6021 H   0  0  0  0  0  0  0  0  0  0  0  0  # atno 10763 bound_to 10752
  152.9795  135.5956  154.3932 H   0  0  0  0  0  0  0  0  0  0  0  0  # atno 10764 bound_to 10752
  154.3760  135.2841  155.2217 H   0  0  0  0  0  0  0  0  0  0  0  0  # atno 10765 bound_to 10752
  140.6038  133.9811  155.8144 H   0  0  0  0  0  0  0  0  0  0  0  0  # atno 11005 bound_to 11000
  146.1751  140.6585  142.9215 LP  0  0  0  0  0  0  0  0  0  0  0  0  # atno 17320 bound_to 7965
  144.7416  140.4958  143.6865 LP  0  0  0  0  0  0  0  0  0  0  0  0  # atno 17321 bound_to 7965
  140.6585  143.2245  151.5912 LP  0  0  0  0  0  0  0  0  0  0  0  0  # atno 17342 bound_to 10162
  139.5340  144.2834  152.1211 LP  0  0  0  0  0  0  0  0  0  0  0  0  # atno 17343 bound_to 10162
  157.7442  131.0462  150.4880 LP  0  0  0  0  0  0  0  0  0  0  0  0  # atno 17370 bound_to 10713
  156.5056  130.4127  149.6329 LP  0  0  0  0  0  0  0  0  0  0  0  0  # atno 17371 bound_to 10713
  141.0854  133.9998  157.3321 LP  0  0  0  0  0  0  0  0  0  0  0  0  # atno 17394 bound_to 11000
  139.9221  135.0201  156.8102 LP  0  0  0  0  0  0  0  0  0  0  0  0  # atno 17395 bound_to 11000

$$$$
