AV-unprocessed.smi:2973|AV-procd|sdf|11352|dock2
  -GOLD-   2272016273D 1   1.00000     0.00000
 Structure written by MMmdl.
 49 51  0  0  0  0  0  0  0  0  3 V2000
  148.9044  140.1729  154.3154 C   0  0  0  0  0  0  0  0  0  0  0  0
  149.8856  140.7693  155.3488 C   0  0  1  0  0  0  0  0  0  0  0  0
  149.0989  141.3764  156.5325 C   0  0  0  0  0  0  0  0  0  0  0  0
  150.0264  142.0525  157.5526 C   0  0  0  0  0  0  0  0  0  0  0  0
  151.0883  141.0750  158.0709 C   0  0  0  0  0  0  0  0  0  0  0  0
  151.8928  140.4683  156.9082 C   0  0  0  0  0  0  0  0  0  0  0  0
  151.0057  139.7870  155.8311 C   0  0  2  0  0  0  0  0  0  0  0  0
  151.8536  139.3999  154.7163 N   0  5  0  0  0  0  0  0  0  0  0  0
  151.8315  138.0532  154.5888 C   0  0  0  0  0  0  0  0  0  0  0  0
  152.4478  137.3822  153.7613 O   0  0  0  0  0  0  0  0  0  0  0  0
  151.0254  137.4932  155.5098 N   0  0  0  0  0  0  0  0  0  0  0  0
  150.7934  136.0501  155.6545 C   0  0  0  0  0  0  0  0  0  0  0  0
  149.3228  135.6575  155.4573 C   0  0  0  0  0  0  0  0  0  0  0  0
  148.4535  136.0396  156.2423 O   0  0  0  0  0  0  0  0  0  0  0  0
  149.0563  134.8991  154.3836 N   0  0  0  0  0  0  0  0  0  0  0  0
  147.7343  134.4073  154.0156 C   0  0  0  0  0  0  0  0  0  0  0  0
  147.7848  133.5517  152.7384 C   0  0  0  0  0  0  0  0  0  0  0  0
  146.5544  133.7397  151.8729 C   0  0  0  0  0  0  0  0  0  0  0  0
  145.6867  132.6709  151.5595 C   0  0  0  0  0  0  0  0  0  0  0  0
  144.5547  132.9155  150.7539 C   0  0  0  0  0  0  0  0  0  0  0  0
  144.3137  134.2223  150.2810 C   0  0  0  0  0  0  0  0  0  0  0  0
  145.2119  135.2528  150.6264 C   0  0  0  0  0  0  0  0  0  0  0  0
  146.2852  134.9783  151.4000 N   0  3  0  0  0  0  0  0  0  0  0  0
  150.4897  138.4283  156.3021 C   0  0  0  0  0  0  0  0  0  0  0  0
  149.7185  138.2493  157.2457 O   0  0  0  0  0  0  0  0  0  0  0  0
  148.3101  139.3634  154.7394 H   0  0  0  0  0  0  0  0  0  0  0  0
  149.4272  139.7814  153.4427 H   0  0  0  0  0  0  0  0  0  0  0  0
  148.2096  140.9328  153.9574 H   0  0  0  0  0  0  0  0  0  0  0  0
  150.3860  141.6011  154.8492 H   0  0  0  0  0  0  0  0  0  0  0  0
  148.3835  142.1109  156.1613 H   0  0  0  0  0  0  0  0  0  0  0  0
  148.5081  140.6070  157.0299 H   0  0  0  0  0  0  0  0  0  0  0  0
  150.5146  142.9108  157.0891 H   0  0  0  0  0  0  0  0  0  0  0  0
  149.4413  142.4417  158.3863 H   0  0  0  0  0  0  0  0  0  0  0  0
  151.7634  141.5925  158.7528 H   0  0  0  0  0  0  0  0  0  0  0  0
  150.6127  140.2879  158.6556 H   0  0  0  0  0  0  0  0  0  0  0  0
  152.4804  141.2622  156.4439 H   0  0  0  0  0  0  0  0  0  0  0  0
  152.6192  139.7590  157.3088 H   0  0  0  0  0  0  0  0  0  0  0  0
  151.3971  135.4927  154.9367 H   0  0  0  0  0  0  0  0  0  0  0  0
  151.1314  135.7238  156.6397 H   0  0  0  0  0  0  0  0  0  0  0  0
  149.8278  134.6363  153.7873 H   0  0  0  0  0  0  0  0  0  0  0  0
  147.3066  133.8370  154.8420 H   0  0  0  0  0  0  0  0  0  0  0  0
  147.0848  135.2695  153.8635 H   0  0  0  0  0  0  0  0  0  0  0  0
  148.6709  133.8032  152.1538 H   0  0  0  0  0  0  0  0  0  0  0  0
  147.8772  132.4950  152.9936 H   0  0  0  0  0  0  0  0  0  0  0  0
  145.8844  131.6758  151.9318 H   0  0  0  0  0  0  0  0  0  0  0  0
  143.8791  132.1107  150.5029 H   0  0  0  0  0  0  0  0  0  0  0  0
  143.4530  134.4309  149.6627 H   0  0  0  0  0  0  0  0  0  0  0  0
  145.1057  136.2800  150.3096 H   0  0  0  0  0  0  0  0  0  0  0  0
  146.9215  135.7398  151.6370 H   0  0  0  0  0  0  0  0  0  0  0  0
  1  2  1  0  0  0  0
  1 26  1  0  0  0  0
  1 27  1  0  0  0  0
  1 28  1  0  0  0  0
  2  7  1  0  0  0  0
  2  3  1  0  0  0  0
  2 29  1  0  0  0  0
  3  4  1  0  0  0  0
  3 30  1  0  0  0  0
  3 31  1  0  0  0  0
  4  5  1  0  0  0  0
  4 32  1  0  0  0  0
  4 33  1  0  0  0  0
  5  6  1  0  0  0  0
  5 34  1  0  0  0  0
  5 35  1  0  0  0  0
  6  7  1  0  0  0  0
  6 36  1  0  0  0  0
  6 37  1  0  0  0  0
  7 24  1  0  0  0  0
  7  8  1  0  0  0  0
  8  9  1  0  0  0  0
  9 10  2  0  0  0  0
  9 11  1  0  0  0  0
 11 12  1  0  0  0  0
 11 24  1  0  0  0  0
 12 13  1  0  0  0  0
 12 38  1  0  0  0  0
 12 39  1  0  0  0  0
 13 14  2  0  0  0  0
 13 15  1  0  0  0  0
 15 16  1  0  0  0  0
 15 40  1  0  0  0  0
 16 17  1  0  0  0  0
 16 41  1  0  0  0  0
 16 42  1  0  0  0  0
 17 18  1  0  0  0  0
 17 43  1  0  0  0  0
 17 44  1  0  0  0  0
 18 23  1  0  0  0  0
 18 19  2  0  0  0  0
 19 20  1  0  0  0  0
 19 45  1  0  0  0  0
 20 21  2  0  0  0  0
 20 46  1  0  0  0  0
 21 22  1  0  0  0  0
 21 47  1  0  0  0  0
 22 23  2  0  0  0  0
 22 48  1  0  0  0  0
 23 49  1  0  0  0  0
 24 25  2  0  0  0  0
M  CHG  1   8  -1
M  CHG  1  23   1
M  END
> <s_m_source_file>
AV-unprocessed.smi

> <i_m_source_file_index>
2973

> <i_lp_mmshare_version>
43012

> <i_f3d_flags>
0

> <s_epik_input>
W0NIMl0xW0NIMl1bQ0gyXVtDSDJdW0NAQEhdKFtDSDNdKVtDQF0xMltOSF1DKD1PKU4oQzI9TylbQ0gyXUMoPU8pW05IXVtDSDJdW0NIMl1jM1tjSF1bY0hdW2NIXVtjSF1uMw==

> <s_epik_cmdline>
J2VwaWtfcHl0aG9uJywgJy1waCcsICc3LjAnLCAnLXRuJywgJzgnLCAnLW1hJywgJzIwMCcsICctbWV0YWxfYmluZGluZycsICctaW1hZScsICc8aW5maWxlLm1hZT4nLCAnLW9tYWUnLCAnPG91dGZpbGUubWFlPic=

> <r_lp_tautomer_probability>
1

> <r_epik_Ionization_Penalty>
7.89073

> <r_epik_Ionization_Penalty_Charging>
7.89073

> <r_epik_Ionization_Penalty_Neutral>
1.56557e-07

> <r_epik_State_Penalty>
8.01193

> <r_epik_Charging_Adjusted_Penalty>
15.9027

> <i_epik_Tot_Q>
0

> <i_epik_Tot_abs_Q>
2

> <r_epik_Metal_State_Penalty>
3.98737

> <b_epik_Metal_Only>
1

> <s_lp_Force_Field>
OPLS_2005

> <r_lp_Energy>
17.432

> <b_lp_Chiralities_Consistent>
1

> <s_lp_Variant>
AV-unprocessed.smi:2973-16

> <Gold.Version>
5.8.1

> <Gold.Id.Protein>
6NUR|6NUR_protein|mol2

> <Gold.PLP.Fitness>
50.6246

> <Gold.PLP.PLP>
-39.9259

> <Gold.PLP.part.hbond>
-3.9562

> <Gold.PLP.part.metal>
0.0000

> <Gold.PLP.part.buried>
-3.9599

> <Gold.PLP.part.nonpolar>
-32.5183

> <Gold.PLP.part.repulsive>
0.9683

> <Gold.PLP.ligand.clash>
0.0000

> <Gold.PLP.ligand.torsion>
0.2778

> <Gold.PLP.Chemscore.Hbond>
3.7440

> <Gold.PLP.Chemscore.CHOScore>
0.0000

> <Gold.PLP.Chemscore.Metal>
0.0000

> <Gold.Chemscore.Hbonds>
donor molecule, donor type, donor heavy atom, donor atom, acceptor molecule, acceptor atom, score
      L1  H    23    49       P1  7948  1.54
      P1  H  7989  7998       L1     8  1.00
      P1  H 10752 10765       L1    10  0.83

> <Gold.PLP.Chemscore.Internal.Correction>
0.0223

> <Gold.Rescore>
     Score         DG    S(hbond)    S(metal)    S(lipo)     H(rot)  DE(clash)    DE(int)     intcor
     17.10     -18.98       2.54        0.00      84.98       1.92       0.04       1.84       ----

> <Gold.Chemscore.Fitness>
17.1035

> <Gold.Chemscore.DG>
-18.9830

> <Gold.Chemscore.ZeroCoef>
-5.4800

> <Gold.Chemscore.Hbond>
2.5357

> <Gold.Chemscore.Metal>
0.0000

> <Gold.Chemscore.Lipo>
84.9788

> <Gold.Chemscore.Internal_Hbond>
0.0000

> <Gold.Chemscore.DEClash>
0.0444

> <Gold.Chemscore.DEInternal>
1.8351

> <Gold.Chemscore.Rot>
1.9175

> <Gold.Chemscore.Internal.Correction>
   9.000000E+99

> <Gold.Chemscore.Hbonds>
donor molecule, donor type, donor heavy atom, donor atom, acceptor molecule, acceptor atom, score
      L1  H    23    49       P1  7948  0.72
      P1  H  7989  7998       L1     8  0.42
      P1  H 10752 10765       L1    10  0.83

> <Gold.Chemscore.Hbond.Weighted>
-8.4692

> <Gold.Chemscore.Metal.Weighted>
-0.0000

> <Gold.Chemscore.Lipo.Weighted>
-9.9425

> <Gold.Chemscore.Internal_Hbond.Weighted>
0.0000

> <Gold.Chemscore.DEClash.Weighted>
0.0444

> <Gold.Chemscore.DEInternal.Weighted>
1.8351

> <Gold.Chemscore.Rot.Weighted>
4.9087

> <Gold.Chemscore.Internal.Correction.Weighted>
   9.000000E+99

> <Gold.Protein.RotatedTorsions>
[ 6907 6896 6895 6894 ] final   37.31 input  -60.11 | X-H torsion
[ 7974 7965 7964 7962 ] final  -35.63 input  175.53 | X-H torsion
[ 8008 7997 7996 7995 ] final   78.43 input   59.86 | X-H torsion
[ 10167 10162 10161 10158 ] final   96.57 input  -65.29 | X-H torsion
[ 10718 10713 10712 10709 ] final -133.19 input   66.30 | X-H torsion
[ 10763 10752 10751 10750 ] final  136.03 input  -60.55 | X-H torsion
[ 11005 11000 10999 10996 ] final   50.67 input  -57.11 | X-H torsion

> <Gold.Protein.ActiveResidues>
 VAL166  LYS551  ARG553  GLY616  TRP617  ASP618  TYR619  PRO620  LYS621  CYS622 
 ASP623  PHE694  ASN695  SER759  ASP760  ASP761  ALA762  ILE779  LEU786  VAL792 
 PHE793  MET794  SER795  GLU796  ALA797  LYS798  CYS799  TRP800  GLU811  SER814 

> <Gold.Protein.RotatedAtoms>
  152.1414  134.9059  160.0553 H   0  0  0  0  0  0  0  0  0  0  0  0  # atno 6907 bound_to 6896
  152.0126  133.3862  159.4234 H   0  0  0  0  0  0  0  0  0  0  0  0  # atno 6908 bound_to 6896
  150.6865  134.3635  159.5005 H   0  0  0  0  0  0  0  0  0  0  0  0  # atno 6909 bound_to 6896
  146.0730  140.6182  142.8943 H   0  0  0  0  0  0  0  0  0  0  0  0  # atno 7974 bound_to 7965
  155.8556  140.3456  155.5722 H   0  0  0  0  0  0  0  0  0  0  0  0  # atno 8008 bound_to 7997
  155.7990  140.0882  157.1987 H   0  0  0  0  0  0  0  0  0  0  0  0  # atno 8009 bound_to 7997
  154.4009  140.1469  156.3239 H   0  0  0  0  0  0  0  0  0  0  0  0  # atno 8010 bound_to 7997
  139.7882  144.6862  150.9928 H   0  0  0  0  0  0  0  0  0  0  0  0  # atno 10167 bound_to 10162
  156.2424  130.7103  151.0970 H   0  0  0  0  0  0  0  0  0  0  0  0  # atno 10718 bound_to 10713
  153.8499  135.3080  155.3432 H   0  0  0  0  0  0  0  0  0  0  0  0  # atno 10763 bound_to 10752
  154.7896  135.4790  154.0025 H   0  0  0  0  0  0  0  0  0  0  0  0  # atno 10764 bound_to 10752
  153.1525  135.6846  153.8954 H   0  0  0  0  0  0  0  0  0  0  0  0  # atno 10765 bound_to 10752
  140.0997  134.5097  155.8773 H   0  0  0  0  0  0  0  0  0  0  0  0  # atno 11005 bound_to 11000
  144.7244  140.4476  143.6984 LP  0  0  0  0  0  0  0  0  0  0  0  0  # atno 17320 bound_to 7965
  145.6357  139.1542  143.2944 LP  0  0  0  0  0  0  0  0  0  0  0  0  # atno 17321 bound_to 7965
  140.7820  143.4409  151.0553 LP  0  0  0  0  0  0  0  0  0  0  0  0  # atno 17342 bound_to 10162
  139.8087  143.7982  152.3169 LP  0  0  0  0  0  0  0  0  0  0  0  0  # atno 17343 bound_to 10162
  157.7181  131.0698  150.6248 LP  0  0  0  0  0  0  0  0  0  0  0  0  # atno 17370 bound_to 10713
  156.6322  130.4435  149.5782 LP  0  0  0  0  0  0  0  0  0  0  0  0  # atno 17371 bound_to 10713
  141.2102  133.6692  156.6494 LP  0  0  0  0  0  0  0  0  0  0  0  0  # atno 17394 bound_to 11000
  140.3236  134.7987  157.4272 LP  0  0  0  0  0  0  0  0  0  0  0  0  # atno 17395 bound_to 11000

$$$$
