AV-unprocessed.smi:1762|AV-procd|sdf|7125|dock2
  -GOLD-   22720 8363D 1   1.00000     0.00000
 Structure written by MMmdl.
 52 53  0  0  0  0  0  0  0  0  3 V2000
  150.9733  134.3305  155.9209 C   0  0  0  0  0  0  0  0  0  0  0  0
  149.9050  134.9883  155.0401 C   0  0  2  0  0  0  0  0  0  0  0  0
  149.7695  136.4949  155.3196 C   0  0  0  0  0  0  0  0  0  0  0  0
  148.6866  137.1049  154.4938 N   0  3  2  0  0  0  0  0  0  0  0  0
  148.5694  138.5916  154.6798 C   0  0  1  0  0  0  0  0  0  0  0  0
  149.9517  139.2182  154.9863 C   0  0  0  0  0  0  0  0  0  0  0  0
  150.8155  139.2035  154.1024 O   0  0  0  0  0  0  0  0  0  0  0  0
  150.0148  139.6782  156.2667 N   0  5  0  0  0  0  0  0  0  0  0  0
  150.9796  140.6737  156.7304 C   0  0  0  0  0  0  0  0  0  0  0  0
  150.7668  140.9651  158.2343 C   0  0  0  0  0  0  0  0  0  0  0  0
  151.2165  142.3546  158.6736 C   0  0  0  0  0  0  0  0  0  0  0  0
  152.3829  142.5186  159.4551 C   0  0  0  0  0  0  0  0  0  0  0  0
  152.7671  143.8205  159.8295 C   0  0  0  0  0  0  0  0  0  0  0  0
  151.9791  144.9085  159.4081 C   0  0  0  0  0  0  0  0  0  0  0  0
  150.8382  144.6452  158.6246 C   0  0  0  0  0  0  0  0  0  0  0  0
  150.4614  143.4012  158.2586 N   0  0  0  0  0  0  0  0  0  0  0  0
  147.8549  139.3418  153.5038 C   0  0  0  0  0  0  0  0  0  0  0  0
  147.7046  140.8635  153.7112 C   0  0  0  0  0  0  0  0  0  0  0  0
  146.4931  138.7221  153.1336 C   0  0  0  0  0  0  0  0  0  0  0  0
  147.4235  136.3469  154.7135 C   0  0  0  0  0  0  0  0  0  0  0  0
  147.6246  134.8392  154.4668 C   0  0  2  0  0  0  0  0  0  0  0  0
  146.3578  134.0307  154.7677 C   0  0  0  0  0  0  0  0  0  0  0  0
  148.6615  134.3571  155.3098 O   0  0  0  0  0  0  0  0  0  0  0  0
  151.9544  134.7715  155.7429 H   0  0  0  0  0  0  0  0  0  0  0  0
  151.0466  133.2629  155.7124 H   0  0  0  0  0  0  0  0  0  0  0  0
  150.7407  134.4480  156.9796 H   0  0  0  0  0  0  0  0  0  0  0  0
  150.1739  134.8295  153.9941 H   0  0  0  0  0  0  0  0  0  0  0  0
  149.5559  136.6636  156.3766 H   0  0  0  0  0  0  0  0  0  0  0  0
  150.7337  136.9604  155.1172 H   0  0  0  0  0  0  0  0  0  0  0  0
  147.9211  138.7189  155.5506 H   0  0  0  0  0  0  0  0  0  0  0  0
  152.0098  140.3561  156.5633 H   0  0  0  0  0  0  0  0  0  0  0  0
  150.8688  141.6042  156.1733 H   0  0  0  0  0  0  0  0  0  0  0  0
  149.7114  140.8484  158.4857 H   0  0  0  0  0  0  0  0  0  0  0  0
  151.3002  140.2260  158.8344 H   0  0  0  0  0  0  0  0  0  0  0  0
  152.9677  141.6646  159.7641 H   0  0  0  0  0  0  0  0  0  0  0  0
  153.6505  143.9814  160.4295 H   0  0  0  0  0  0  0  0  0  0  0  0
  152.2428  145.9201  159.6778 H   0  0  0  0  0  0  0  0  0  0  0  0
  150.2123  145.4554  158.2810 H   0  0  0  0  0  0  0  0  0  0  0  0
  148.4590  139.1981  152.6090 H   0  0  0  0  0  0  0  0  0  0  0  0
  146.9852  141.0958  154.4964 H   0  0  0  0  0  0  0  0  0  0  0  0
  147.3474  141.3427  152.7994 H   0  0  0  0  0  0  0  0  0  0  0  0
  148.6486  141.3378  153.9776 H   0  0  0  0  0  0  0  0  0  0  0  0
  145.7498  138.8684  153.9180 H   0  0  0  0  0  0  0  0  0  0  0  0
  146.5838  137.6500  152.9569 H   0  0  0  0  0  0  0  0  0  0  0  0
  146.0952  139.1706  152.2229 H   0  0  0  0  0  0  0  0  0  0  0  0
  147.0690  136.5223  155.7305 H   0  0  0  0  0  0  0  0  0  0  0  0
  146.6404  136.6818  154.0362 H   0  0  0  0  0  0  0  0  0  0  0  0
  147.9013  134.6718  153.4242 H   0  0  0  0  0  0  0  0  0  0  0  0
  145.5293  134.3463  154.1333 H   0  0  0  0  0  0  0  0  0  0  0  0
  146.0494  134.1520  155.8065 H   0  0  0  0  0  0  0  0  0  0  0  0
  146.5241  132.9677  154.5922 H   0  0  0  0  0  0  0  0  0  0  0  0
  148.9454  136.9664  153.5274 H   0  0  0  0  0  0  0  0  0  0  0  0
  1  2  1  0  0  0  0
  1 24  1  0  0  0  0
  1 25  1  0  0  0  0
  1 26  1  0  0  0  0
  2 23  1  0  0  0  0
  2  3  1  0  0  0  0
  2 27  1  0  0  0  0
  3  4  1  0  0  0  0
  3 28  1  0  0  0  0
  3 29  1  0  0  0  0
  4  5  1  0  0  0  0
  4 20  1  0  0  0  0
  4 52  1  0  0  0  0
  5  6  1  0  0  0  0
  5 17  1  0  0  0  0
  5 30  1  0  0  0  0
  6  7  2  0  0  0  0
  6  8  1  0  0  0  0
  8  9  1  0  0  0  0
  9 10  1  0  0  0  0
  9 31  1  0  0  0  0
  9 32  1  0  0  0  0
 10 11  1  0  0  0  0
 10 33  1  0  0  0  0
 10 34  1  0  0  0  0
 11 16  1  0  0  0  0
 11 12  2  0  0  0  0
 12 13  1  0  0  0  0
 12 35  1  0  0  0  0
 13 14  2  0  0  0  0
 13 36  1  0  0  0  0
 14 15  1  0  0  0  0
 14 37  1  0  0  0  0
 15 16  2  0  0  0  0
 15 38  1  0  0  0  0
 17 18  1  0  0  0  0
 17 19  1  0  0  0  0
 17 39  1  0  0  0  0
 18 40  1  0  0  0  0
 18 41  1  0  0  0  0
 18 42  1  0  0  0  0
 19 43  1  0  0  0  0
 19 44  1  0  0  0  0
 19 45  1  0  0  0  0
 20 21  1  0  0  0  0
 20 46  1  0  0  0  0
 20 47  1  0  0  0  0
 21 22  1  0  0  0  0
 21 23  1  0  0  0  0
 21 48  1  0  0  0  0
 22 49  1  0  0  0  0
 22 50  1  0  0  0  0
 22 51  1  0  0  0  0
M  CHG  1   4   1
M  CHG  1   8  -1
M  END
> <s_m_source_file>
AV-unprocessed.smi

> <i_m_source_file_index>
1762

> <i_lp_mmshare_version>
43012

> <i_f3d_flags>
0

> <s_epik_input>
W0NIM11bQ0BASF0xW0NIMl1OKFtDSDJdW0NASF0oTzEpW0NIM10pW0NAQEhdKFtDSF0oW0NIM10pW0NIM10pQyg9TylbTkhdW0NIMl1bQ0gyXWMyW2NIXVtjSF1bY0hdW2NIXW4y

> <s_epik_cmdline>
J2VwaWtfcHl0aG9uJywgJy1waCcsICc3LjAnLCAnLXRuJywgJzgnLCAnLW1hJywgJzIwMCcsICctbWV0YWxfYmluZGluZycsICctaW1hZScsICc8aW5maWxlLm1hZT4nLCAnLW9tYWUnLCAnPG91dGZpbGUubWFlPic=

> <r_epik_Ionization_Penalty>
7.82966

> <r_epik_Ionization_Penalty_Charging>
7.7461

> <r_epik_Ionization_Penalty_Neutral>
0.0835571

> <r_epik_State_Penalty>
8.52273

> <r_epik_Charging_Adjusted_Penalty>
16.2688

> <i_epik_Tot_Q>
0

> <i_epik_Tot_abs_Q>
2

> <r_epik_Metal_State_Penalty>
4.47451

> <b_epik_Metal_Only>
1

> <s_lp_Force_Field>
OPLS_2005

> <r_lp_Energy>
21.2393

> <b_lp_Chiralities_Consistent>
1

> <s_lp_Variant>
AV-unprocessed.smi:1762-27

> <Gold.Version>
5.8.1

> <Gold.Id.Protein>
6NUR|6NUR_protein|mol2

> <Gold.PLP.Fitness>
46.6648

> <Gold.PLP.PLP>
-36.0969

> <Gold.PLP.part.hbond>
-2.0000

> <Gold.PLP.part.metal>
0.0000

> <Gold.PLP.part.buried>
-2.9418

> <Gold.PLP.part.nonpolar>
-32.1187

> <Gold.PLP.part.repulsive>
0.4155

> <Gold.PLP.ligand.clash>
0.0110

> <Gold.PLP.ligand.torsion>
0.9139

> <Gold.PLP.Chemscore.Hbond>
3.0000

> <Gold.PLP.Chemscore.CHOScore>
0.9963

> <Gold.PLP.Chemscore.Metal>
0.0000

> <Gold.Chemscore.Hbonds>
donor molecule, donor type, donor heavy atom, donor atom, acceptor molecule, acceptor atom, score
      L1  H     4    52       P1  7948  2.00
      P1  H  7989  7998       L1     7  1.00
      L1  C    15    38       P1  8029  0.95

> <Gold.PLP.Chemscore.Internal.Correction>
0.4177

> <Gold.Rescore>
     Score         DG    S(hbond)    S(metal)    S(lipo)     H(rot)  DE(clash)    DE(int)     intcor
     19.48     -20.73       1.97        0.00     109.20       1.60       0.22       1.02       ----

> <Gold.Chemscore.Fitness>
19.4827

> <Gold.Chemscore.DG>
-20.7272

> <Gold.Chemscore.ZeroCoef>
-5.4800

> <Gold.Chemscore.Hbond>
1.9671

> <Gold.Chemscore.Metal>
0.0000

> <Gold.Chemscore.Lipo>
109.1980

> <Gold.Chemscore.Internal_Hbond>
0.0000

> <Gold.Chemscore.DEClash>
0.2226

> <Gold.Chemscore.DEInternal>
1.0218

> <Gold.Chemscore.Rot>
1.6012

> <Gold.Chemscore.Internal.Correction>
   9.000000E+99

> <Gold.Chemscore.Hbonds>
donor molecule, donor type, donor heavy atom, donor atom, acceptor molecule, acceptor atom, score
      L1  H     4    52       P1  7948  1.00
      P1  H  7989  7998       L1     7  0.97

> <Gold.Chemscore.Hbond.Weighted>
-6.5700

> <Gold.Chemscore.Metal.Weighted>
-0.0000

> <Gold.Chemscore.Lipo.Weighted>
-12.7762

> <Gold.Chemscore.Internal_Hbond.Weighted>
0.0000

> <Gold.Chemscore.DEClash.Weighted>
0.2226

> <Gold.Chemscore.DEInternal.Weighted>
1.0218

> <Gold.Chemscore.Rot.Weighted>
4.0990

> <Gold.Chemscore.Internal.Correction.Weighted>
   9.000000E+99

> <Gold.Protein.RotatedTorsions>
[ 6907 6896 6895 6894 ] final  -52.58 input  -60.11 | X-H torsion
[ 7974 7965 7964 7962 ] final    0.99 input  175.53 | X-H torsion
[ 8008 7997 7996 7995 ] final  106.35 input   59.86 | X-H torsion
[ 10167 10162 10161 10158 ] final -117.20 input  -65.29 | X-H torsion
[ 10718 10713 10712 10709 ] final   17.48 input   66.30 | X-H torsion
[ 10763 10752 10751 10750 ] final  117.62 input  -60.55 | X-H torsion
[ 11005 11000 10999 10996 ] final  168.85 input  -57.11 | X-H torsion

> <Gold.Protein.ActiveResidues>
 VAL166  LYS551  ARG553  GLY616  TRP617  ASP618  TYR619  PRO620  LYS621  CYS622 
 ASP623  PHE694  ASN695  SER759  ASP760  ASP761  ALA762  ILE779  LEU786  VAL792 
 PHE793  MET794  SER795  GLU796  ALA797  LYS798  CYS799  TRP800  GLU811  SER814 

> <Gold.Protein.RotatedAtoms>
  150.8505  134.7828  159.7004 H   0  0  0  0  0  0  0  0  0  0  0  0  # atno 6907 bound_to 6896
  152.4571  134.5264  159.9808 H   0  0  0  0  0  0  0  0  0  0  0  0  # atno 6908 bound_to 6896
  151.5386  133.3398  159.2967 H   0  0  0  0  0  0  0  0  0  0  0  0  # atno 6909 bound_to 6896
  146.2438  140.1055  142.8346 H   0  0  0  0  0  0  0  0  0  0  0  0  # atno 7974 bound_to 7965
  156.1735  140.3114  155.9017 H   0  0  0  0  0  0  0  0  0  0  0  0  # atno 8008 bound_to 7997
  155.3536  140.0472  157.3063 H   0  0  0  0  0  0  0  0  0  0  0  0  # atno 8009 bound_to 7997
  154.5266  140.2216  155.8889 H   0  0  0  0  0  0  0  0  0  0  0  0  # atno 8010 bound_to 7997
  140.0710  143.4878  152.1980 H   0  0  0  0  0  0  0  0  0  0  0  0  # atno 10167 bound_to 10162
  157.0827  130.6394  149.5830 H   0  0  0  0  0  0  0  0  0  0  0  0  # atno 10718 bound_to 10713
  153.5552  135.3532  155.2776 H   0  0  0  0  0  0  0  0  0  0  0  0  # atno 10763 bound_to 10752
  154.8702  135.4123  154.2893 H   0  0  0  0  0  0  0  0  0  0  0  0  # atno 10764 bound_to 10752
  153.3627  135.7060  153.6768 H   0  0  0  0  0  0  0  0  0  0  0  0  # atno 10765 bound_to 10752
  140.2916  134.7669  157.3843 H   0  0  0  0  0  0  0  0  0  0  0  0  # atno 11005 bound_to 11000
  145.0532  140.9033  143.4983 LP  0  0  0  0  0  0  0  0  0  0  0  0  # atno 17320 bound_to 7965
  145.1157  139.2727  143.5614 LP  0  0  0  0  0  0  0  0  0  0  0  0  # atno 17321 bound_to 7965
  139.5836  144.7521  151.3576 LP  0  0  0  0  0  0  0  0  0  0  0  0  # atno 17342 bound_to 10162
  140.7126  143.7351  150.7594 LP  0  0  0  0  0  0  0  0  0  0  0  0  # atno 17343 bound_to 10162
  155.9919  130.4975  150.7318 LP  0  0  0  0  0  0  0  0  0  0  0  0  # atno 17370 bound_to 10713
  157.4787  131.0900  151.0561 LP  0  0  0  0  0  0  0  0  0  0  0  0  # atno 17371 bound_to 10713
  140.1190  134.5244  155.8200 LP  0  0  0  0  0  0  0  0  0  0  0  0  # atno 17394 bound_to 11000
  141.2145  133.6750  156.6831 LP  0  0  0  0  0  0  0  0  0  0  0  0  # atno 17395 bound_to 11000

$$$$
