AV-unprocessed.smi:535|AV-procd|sdf|2859|dock2
  -GOLD-   2262023353D 1   1.00000     0.00000
 Structure written by MMmdl.
 46 48  0  0  0  0  0  0  0  0  1 V2000
  147.9677  141.4374  153.8176 C   0  0  0  0  0  0  0  0  0  0  0  0
  149.2989  141.7091  154.2192 O   0  0  0  0  0  0  0  0  0  0  0  0
  149.4671  141.6411  155.6246 C   0  0  0  0  0  0  0  0  0  0  0  0
  150.9047  142.0642  155.9691 C   0  0  0  0  0  0  0  0  0  0  0  0
  151.5900  141.0819  156.8040 N   0  0  0  0  0  0  0  0  0  0  0  0
  152.2023  141.2405  158.0149 C   0  0  0  0  0  0  0  0  0  0  0  0
  152.2974  142.4678  158.6874 N   0  0  0  0  0  0  0  0  0  0  0  0
  151.9675  143.8023  158.1803 C   0  0  0  0  0  0  0  0  0  0  0  0
  151.0344  144.5680  159.1353 C   0  0  0  0  0  0  0  0  0  0  0  0
  151.6739  144.6951  160.5228 C   0  0  0  0  0  0  0  0  0  0  0  0
  152.1169  143.3121  161.0277 C   0  0  2  0  0  0  0  0  0  0  0  0
  152.8387  143.4098  162.3784 C   0  0  0  0  0  0  0  0  0  0  0  0
  152.9973  142.6221  159.9657 C   0  0  0  0  0  0  0  0  0  0  0  0
  152.6805  140.1048  158.5351 N   0  0  0  0  0  0  0  0  0  0  0  0
  152.3647  139.1508  157.5832 C   0  0  0  0  0  0  0  0  0  0  0  0
  151.7021  139.7136  156.5426 C   0  0  0  0  0  0  0  0  0  0  0  0
  151.2118  138.9217  155.4047 C   0  0  0  0  0  0  0  0  0  0  0  0
  150.5948  139.4031  154.4572 O   0  0  0  0  0  0  0  0  0  0  0  0
  151.5030  137.6024  155.5089 N   0  0  0  0  0  0  0  0  0  0  0  0
  152.1692  136.9756  156.5255 C   0  0  0  0  0  0  0  0  0  0  0  0
  152.3545  135.7595  156.4823 O   0  0  0  0  0  0  0  0  0  0  0  0
  152.6075  137.7477  157.5705 N   0  0  0  0  0  0  0  0  0  0  0  0
  153.3227  137.1291  158.6883 C   0  0  0  0  0  0  0  0  0  0  0  0
  151.1881  137.0137  154.7516 H   0  0  0  0  0  0  0  0  0  0  0  0
  147.8896  141.5128  152.7331 H   0  0  0  0  0  0  0  0  0  0  0  0
  147.2694  142.1515  154.2559 H   0  0  0  0  0  0  0  0  0  0  0  0
  147.6669  140.4297  154.1073 H   0  0  0  0  0  0  0  0  0  0  0  0
  148.7464  142.2964  156.1142 H   0  0  0  0  0  0  0  0  0  0  0  0
  149.2623  140.6301  155.9764 H   0  0  0  0  0  0  0  0  0  0  0  0
  151.4822  142.2481  155.0669 H   0  0  0  0  0  0  0  0  0  0  0  0
  150.8968  143.0195  156.4935 H   0  0  0  0  0  0  0  0  0  0  0  0
  152.8946  144.3623  158.0499 H   0  0  0  0  0  0  0  0  0  0  0  0
  151.5259  143.7464  157.1907 H   0  0  0  0  0  0  0  0  0  0  0  0
  150.8188  145.5580  158.7328 H   0  0  0  0  0  0  0  0  0  0  0  0
  150.0774  144.0529  159.2199 H   0  0  0  0  0  0  0  0  0  0  0  0
  152.5356  145.3616  160.4652 H   0  0  0  0  0  0  0  0  0  0  0  0
  150.9707  145.1512  161.2204 H   0  0  0  0  0  0  0  0  0  0  0  0
  151.2245  142.7013  161.1738 H   0  0  0  0  0  0  0  0  0  0  0  0
  153.7488  144.0053  162.2996 H   0  0  0  0  0  0  0  0  0  0  0  0
  153.1184  142.4217  162.7451 H   0  0  0  0  0  0  0  0  0  0  0  0
  152.2010  143.8725  163.1321 H   0  0  0  0  0  0  0  0  0  0  0  0
  153.3017  141.6443  160.3402 H   0  0  0  0  0  0  0  0  0  0  0  0
  153.9166  143.1875  159.8067 H   0  0  0  0  0  0  0  0  0  0  0  0
  154.1917  136.5752  158.3309 H   0  0  0  0  0  0  0  0  0  0  0  0
  152.6702  136.4347  159.2188 H   0  0  0  0  0  0  0  0  0  0  0  0
  153.6822  137.8602  159.4119 H   0  0  0  0  0  0  0  0  0  0  0  0
  1  2  1  0  0  0  0
  1 25  1  0  0  0  0
  1 26  1  0  0  0  0
  1 27  1  0  0  0  0
  2  3  1  0  0  0  0
  3  4  1  0  0  0  0
  3 28  1  0  0  0  0
  3 29  1  0  0  0  0
  4  5  1  0  0  0  0
  4 30  1  0  0  0  0
  4 31  1  0  0  0  0
  5 16  1  0  0  0  0
  5  6  1  0  0  0  0
  6  7  1  0  0  0  0
  6 14  2  0  0  0  0
  7 13  1  0  0  0  0
  7  8  1  0  0  0  0
  8  9  1  0  0  0  0
  8 32  1  0  0  0  0
  8 33  1  0  0  0  0
  9 10  1  0  0  0  0
  9 34  1  0  0  0  0
  9 35  1  0  0  0  0
 10 11  1  0  0  0  0
 10 36  1  0  0  0  0
 10 37  1  0  0  0  0
 11 12  1  0  0  0  0
 11 13  1  0  0  0  0
 11 38  1  0  0  0  0
 12 39  1  0  0  0  0
 12 40  1  0  0  0  0
 12 41  1  0  0  0  0
 13 42  1  0  0  0  0
 13 43  1  0  0  0  0
 14 15  1  0  0  0  0
 15 22  1  0  0  0  0
 15 16  2  0  0  0  0
 16 17  1  0  0  0  0
 17 18  2  0  0  0  0
 17 19  1  0  0  0  0
 19 24  1  0  0  0  0
 19 20  1  0  0  0  0
 20 21  2  0  0  0  0
 20 22  1  0  0  0  0
 22 23  1  0  0  0  0
 23 44  1  0  0  0  0
 23 45  1  0  0  0  0
 23 46  1  0  0  0  0
M  END
> <s_m_source_file>
AV-unprocessed.smi

> <i_m_source_file_index>
535

> <i_lp_mmshare_version>
43012

> <i_f3d_flags>
0

> <s_epik_input>
W0NIM11uMWMoPU8pW25IXWMoPU8pYyhjMTIpbihbQ0gyXVtDSDJdT1tDSDNdKWMobjIpTjNbQ0gyXVtDSDJdW0NIMl1bQ0BASF0oW0NIM10pW0NIMl0z

> <s_epik_cmdline>
J2VwaWtfcHl0aG9uJywgJy1waCcsICc3LjAnLCAnLXRuJywgJzgnLCAnLW1hJywgJzIwMCcsICctbWV0YWxfYmluZGluZycsICctaW1hZScsICc8aW5maWxlLm1hZT4nLCAnLW9tYWUnLCAnPG91dGZpbGUubWFlPic=

> <r_lp_tautomer_probability>
1

> <r_epik_Ionization_Penalty>
0.00042181

> <r_epik_Ionization_Penalty_Charging>
0.000122112

> <r_epik_Ionization_Penalty_Neutral>
0.000299698

> <r_epik_State_Penalty>
-0

> <r_epik_Charging_Adjusted_Penalty>
0.000122112

> <i_epik_Tot_Q>
0

> <i_epik_Tot_abs_Q>
0

> <r_epik_Metal_State_Penalty>
0.0934894

> <b_epik_Metal_Only>
0

> <s_lp_Force_Field>
OPLS_2005

> <r_lp_Energy>
38.1768

> <b_lp_Chiralities_Consistent>
1

> <s_lp_Variant>
AV-unprocessed.smi:535-2

> <Gold.Version>
5.8.1

> <Gold.Id.Protein>
6NUR|6NUR_protein|mol2

> <Gold.PLP.Fitness>
52.0799

> <Gold.PLP.PLP>
-45.9691

> <Gold.PLP.part.hbond>
-4.0000

> <Gold.PLP.part.metal>
0.0000

> <Gold.PLP.part.buried>
-5.6261

> <Gold.PLP.part.nonpolar>
-35.7315

> <Gold.PLP.part.repulsive>
0.4210

> <Gold.PLP.ligand.clash>
0.0000

> <Gold.PLP.ligand.torsion>
0.4299

> <Gold.PLP.Chemscore.Hbond>
2.3076

> <Gold.PLP.Chemscore.CHOScore>
0.0000

> <Gold.PLP.Chemscore.Metal>
0.0000

> <Gold.Chemscore.Hbonds>
donor molecule, donor type, donor heavy atom, donor atom, acceptor molecule, acceptor atom, score
      P1  H  7989  7998       L1    18  0.99
      P1  H  8011  8017       L1     2  0.29
      P1  H 10752 10764       L1    21  1.00

> <Gold.PLP.Chemscore.Internal.Correction>
0.0477

> <Gold.Rescore>
     Score         DG    S(hbond)    S(metal)    S(lipo)     H(rot)  DE(clash)    DE(int)     intcor
     15.36     -19.45       1.70        0.00     102.72       1.46       0.19       3.90       ----

> <Gold.Chemscore.Fitness>
15.3620

> <Gold.Chemscore.DG>
-19.4480

> <Gold.Chemscore.ZeroCoef>
-5.4800

> <Gold.Chemscore.Hbond>
1.6995

> <Gold.Chemscore.Metal>
0.0000

> <Gold.Chemscore.Lipo>
102.7227

> <Gold.Chemscore.Internal_Hbond>
0.0000

> <Gold.Chemscore.DEClash>
0.1861

> <Gold.Chemscore.DEInternal>
3.9000

> <Gold.Chemscore.Rot>
1.4557

> <Gold.Chemscore.Internal.Correction>
   9.000000E+99

> <Gold.Chemscore.Hbonds>
donor molecule, donor type, donor heavy atom, donor atom, acceptor molecule, acceptor atom, score
      P1  H  7989  7998       L1    18  0.79
      P1  H  8011  8017       L1     2  0.02
      P1  H 10752 10764       L1    21  0.74

> <Gold.Chemscore.Hbond.Weighted>
-5.6762

> <Gold.Chemscore.Metal.Weighted>
-0.0000

> <Gold.Chemscore.Lipo.Weighted>
-12.0186

> <Gold.Chemscore.Internal_Hbond.Weighted>
0.0000

> <Gold.Chemscore.DEClash.Weighted>
0.1861

> <Gold.Chemscore.DEInternal.Weighted>
3.9000

> <Gold.Chemscore.Rot.Weighted>
3.7267

> <Gold.Chemscore.Internal.Correction.Weighted>
   9.000000E+99

> <Gold.Protein.RotatedTorsions>
[ 6907 6896 6895 6894 ] final  143.74 input  -60.11 | X-H torsion
[ 7974 7965 7964 7962 ] final  154.13 input  175.53 | X-H torsion
[ 8008 7997 7996 7995 ] final  155.55 input   59.86 | X-H torsion
[ 10167 10162 10161 10158 ] final   83.11 input  -65.29 | X-H torsion
[ 10718 10713 10712 10709 ] final -162.19 input   66.30 | X-H torsion
[ 10763 10752 10751 10750 ] final  -11.11 input  -60.55 | X-H torsion
[ 11005 11000 10999 10996 ] final  132.92 input  -57.11 | X-H torsion

> <Gold.Protein.ActiveResidues>
 VAL166  LYS551  ARG553  GLY616  TRP617  ASP618  TYR619  PRO620  LYS621  CYS622 
 ASP623  PHE694  ASN695  SER759  ASP760  ASP761  ALA762  ILE779  LEU786  VAL792 
 PHE793  MET794  SER795  GLU796  ALA797  LYS798  CYS799  TRP800  GLU811  SER814 

> <Gold.Protein.RotatedAtoms>
  152.2025  133.4851  159.5066 H   0  0  0  0  0  0  0  0  0  0  0  0  # atno 6907 bound_to 6896
  150.6973  134.1572  159.4171 H   0  0  0  0  0  0  0  0  0  0  0  0  # atno 6908 bound_to 6896
  151.9489  135.0178  160.0591 H   0  0  0  0  0  0  0  0  0  0  0  0  # atno 6909 bound_to 6896
  144.8109  139.6892  143.6142 H   0  0  0  0  0  0  0  0  0  0  0  0  # atno 7974 bound_to 7965
  156.2472  140.1936  156.6818 H   0  0  0  0  0  0  0  0  0  0  0  0  # atno 8008 bound_to 7997
  154.6316  140.0595  156.9765 H   0  0  0  0  0  0  0  0  0  0  0  0  # atno 8009 bound_to 7997
  155.1701  140.3267  155.4397 H   0  0  0  0  0  0  0  0  0  0  0  0  # atno 8010 bound_to 7997
  139.9218  144.6208  150.8432 H   0  0  0  0  0  0  0  0  0  0  0  0  # atno 10167 bound_to 10162
  156.6069  130.8834  151.2927 H   0  0  0  0  0  0  0  0  0  0  0  0  # atno 10718 bound_to 10713
  153.4790  135.7017  153.5949 H   0  0  0  0  0  0  0  0  0  0  0  0  # atno 10763 bound_to 10752
  153.4170  135.3834  155.2087 H   0  0  0  0  0  0  0  0  0  0  0  0  # atno 10764 bound_to 10752
  154.8722  135.3918  154.4237 H   0  0  0  0  0  0  0  0  0  0  0  0  # atno 10765 bound_to 10752
  139.9820  134.9545  156.9651 H   0  0  0  0  0  0  0  0  0  0  0  0  # atno 11005 bound_to 11000
  146.2407  139.5996  142.9493 LP  0  0  0  0  0  0  0  0  0  0  0  0  # atno 17320 bound_to 7965
  145.5326  141.0426  143.2374 LP  0  0  0  0  0  0  0  0  0  0  0  0  # atno 17321 bound_to 7965
  140.7660  143.3291  151.2449 LP  0  0  0  0  0  0  0  0  0  0  0  0  # atno 17342 bound_to 10162
  139.6855  143.9781  152.2832 LP  0  0  0  0  0  0  0  0  0  0  0  0  # atno 17343 bound_to 10162
  157.7265  130.9630  150.1658 LP  0  0  0  0  0  0  0  0  0  0  0  0  # atno 17370 bound_to 10713
  156.2422  130.3692  149.8324 LP  0  0  0  0  0  0  0  0  0  0  0  0  # atno 17371 bound_to 10713
  140.5078  134.1032  155.7264 LP  0  0  0  0  0  0  0  0  0  0  0  0  # atno 17394 bound_to 11000
  141.1490  133.9002  157.2144 LP  0  0  0  0  0  0  0  0  0  0  0  0  # atno 17395 bound_to 11000

$$$$
