AV-unprocessed.smi:1669|AV-procd|sdf|6690|dock8
  -GOLD-   22720 7423D 1   1.00000     0.00000
 Structure written by MMmdl.
 49 51  0  0  0  0  0  0  0  0  3 V2000
  147.1253  137.9991  154.5519 C   0  0  0  0  0  0  0  0  0  0  0  0
  147.6929  138.6586  153.3494 N   0  3  2  0  0  0  0  0  0  0  0  0
  148.3703  139.9418  153.6669 C   0  0  0  0  0  0  0  0  0  0  0  0
  149.5877  139.7460  154.5534 C   0  0  0  0  0  0  0  0  0  0  0  0
  150.4438  138.6410  154.3585 C   0  0  0  0  0  0  0  0  0  0  0  0
  151.5719  138.4664  155.1835 C   0  0  0  0  0  0  0  0  0  0  0  0
  151.8472  139.3940  156.2067 C   0  0  0  0  0  0  0  0  0  0  0  0
  150.9941  140.4965  156.4057 C   0  0  0  0  0  0  0  0  0  0  0  0
  149.8658  140.6719  155.5812 C   0  0  0  0  0  0  0  0  0  0  0  0
  146.7040  138.8010  152.2481 C   0  0  0  0  0  0  0  0  0  0  0  0
  146.1661  137.4425  151.7553 C   0  0  2  0  0  0  0  0  0  0  0  0
  146.3383  137.3688  150.3532 O   0  0  0  0  0  0  0  0  0  0  0  0
  144.6760  137.2521  152.1053 C   0  0  0  0  0  0  0  0  0  0  0  0
  144.3281  135.8472  152.3761 N   0  0  0  0  0  0  0  0  0  0  0  0
  144.0280  135.2315  153.5570 C   0  0  0  0  0  0  0  0  0  0  0  0
  143.9689  135.8666  154.9099 C   0  0  0  0  0  0  0  0  0  0  0  0
  142.7342  135.6601  155.5621 O   0  0  0  0  0  0  0  0  0  0  0  0
  143.7785  133.9211  153.2757 N   0  3  0  0  0  0  0  0  0  0  0  0
  143.9210  133.6936  151.9072 C   0  0  0  0  0  0  0  0  0  0  0  0
  143.7733  132.5304  151.1583 C   0  0  0  0  0  0  0  0  0  0  0  0
  143.9922  132.6400  149.7696 C   0  0  0  0  0  0  0  0  0  0  0  0
  144.3415  133.8705  149.1770 C   0  0  0  0  0  0  0  0  0  0  0  0
  144.4868  135.0435  149.9468 C   0  0  0  0  0  0  0  0  0  0  0  0
  144.2708  134.9274  151.3205 C   0  0  0  0  0  0  0  0  0  0  0  0
  146.3542  138.6200  155.0096 H   0  0  0  0  0  0  0  0  0  0  0  0
  147.8954  137.8107  155.2994 H   0  0  0  0  0  0  0  0  0  0  0  0
  146.6821  137.0342  154.3102 H   0  0  0  0  0  0  0  0  0  0  0  0
  148.7155  140.4218  152.7500 H   0  0  0  0  0  0  0  0  0  0  0  0
  147.6645  140.6322  154.1317 H   0  0  0  0  0  0  0  0  0  0  0  0
  150.2399  137.9252  153.5755 H   0  0  0  0  0  0  0  0  0  0  0  0
  152.2260  137.6202  155.0320 H   0  0  0  0  0  0  0  0  0  0  0  0
  152.7119  139.2590  156.8397 H   0  0  0  0  0  0  0  0  0  0  0  0
  151.2052  141.2071  157.1913 H   0  0  0  0  0  0  0  0  0  0  0  0
  149.2152  141.5199  155.7394 H   0  0  0  0  0  0  0  0  0  0  0  0
  145.8857  139.4410  152.5822 H   0  0  0  0  0  0  0  0  0  0  0  0
  147.1580  139.3128  151.3981 H   0  0  0  0  0  0  0  0  0  0  0  0
  146.7309  136.6267  152.2049 H   0  0  0  0  0  0  0  0  0  0  0  0
  145.6022  137.7877  149.9339 H   0  0  0  0  0  0  0  0  0  0  0  0
  144.4308  137.8208  153.0031 H   0  0  0  0  0  0  0  0  0  0  0  0
  144.0286  137.6406  151.3189 H   0  0  0  0  0  0  0  0  0  0  0  0
  144.7649  135.4677  155.5385 H   0  0  0  0  0  0  0  0  0  0  0  0
  144.1424  136.9379  154.8071 H   0  0  0  0  0  0  0  0  0  0  0  0
  142.7573  134.8192  155.9934 H   0  0  0  0  0  0  0  0  0  0  0  0
  143.5058  131.5866  151.6107 H   0  0  0  0  0  0  0  0  0  0  0  0
  143.8900  131.7629  149.1469 H   0  0  0  0  0  0  0  0  0  0  0  0
  144.5018  133.9156  148.1095 H   0  0  0  0  0  0  0  0  0  0  0  0
  144.7569  135.9776  149.4784 H   0  0  0  0  0  0  0  0  0  0  0  0
  148.4156  138.0492  152.9927 H   0  0  0  0  0  0  0  0  0  0  0  0
  143.5320  133.2341  153.9769 H   0  0  0  0  0  0  0  0  0  0  0  0
  1  2  1  0  0  0  0
  1 25  1  0  0  0  0
  1 26  1  0  0  0  0
  1 27  1  0  0  0  0
  2  3  1  0  0  0  0
  2 10  1  0  0  0  0
  2 48  1  0  0  0  0
  3  4  1  0  0  0  0
  3 28  1  0  0  0  0
  3 29  1  0  0  0  0
  4  9  1  0  0  0  0
  4  5  2  0  0  0  0
  5  6  1  0  0  0  0
  5 30  1  0  0  0  0
  6  7  2  0  0  0  0
  6 31  1  0  0  0  0
  7  8  1  0  0  0  0
  7 32  1  0  0  0  0
  8  9  2  0  0  0  0
  8 33  1  0  0  0  0
  9 34  1  0  0  0  0
 10 11  1  0  0  0  0
 10 35  1  0  0  0  0
 10 36  1  0  0  0  0
 11 12  1  0  0  0  0
 11 13  1  0  0  0  0
 11 37  1  0  0  0  0
 12 38  1  0  0  0  0
 13 14  1  0  0  0  0
 13 39  1  0  0  0  0
 13 40  1  0  0  0  0
 14 24  1  0  0  0  0
 14 15  1  0  0  0  0
 15 16  1  0  0  0  0
 15 18  2  0  0  0  0
 16 17  1  0  0  0  0
 16 41  1  0  0  0  0
 16 42  1  0  0  0  0
 17 43  1  0  0  0  0
 18 19  1  0  0  0  0
 18 49  1  0  0  0  0
 19 24  2  0  0  0  0
 19 20  1  0  0  0  0
 20 21  2  0  0  0  0
 20 44  1  0  0  0  0
 21 22  1  0  0  0  0
 21 45  1  0  0  0  0
 22 23  2  0  0  0  0
 22 46  1  0  0  0  0
 23 24  1  0  0  0  0
 23 47  1  0  0  0  0
M  CHG  1   2   1
M  CHG  1  18   1
M  END
> <s_m_source_file>
AV-unprocessed.smi

> <i_m_source_file_index>
1669

> <i_lp_mmshare_version>
43012

> <i_f3d_flags>
0

> <s_epik_input>
W2NIXTFbY0hdW2NIXVtjSF1bY0hdYzFbQ0gyXU4oW0NIM10pW0NIMl1bQ0BIXShbT0hdKVtDSDJdbihjKG4yKVtDSDJdW09IXSljKGMyMylbY0hdW2NIXVtjSF1bY0hdMw==

> <s_epik_cmdline>
J2VwaWtfcHl0aG9uJywgJy1waCcsICc3LjAnLCAnLXRuJywgJzgnLCAnLW1hJywgJzIwMCcsICctbWV0YWxfYmluZGluZycsICctaW1hZScsICc8aW5maWxlLm1hZT4nLCAnLW9tYWUnLCAnPG91dGZpbGUubWFlPic=

> <r_epik_Ionization_Penalty>
1.57484

> <r_epik_Ionization_Penalty_Charging>
1.57398

> <r_epik_Ionization_Penalty_Neutral>
0.000858917

> <r_epik_State_Penalty>
1.64997

> <r_epik_Charging_Adjusted_Penalty>
3.22395

> <i_epik_Tot_Q>
2

> <i_epik_Tot_abs_Q>
2

> <r_epik_Metal_State_Penalty>
5.70481

> <b_epik_Metal_Only>
0

> <s_lp_Force_Field>
OPLS_2005

> <r_lp_Energy>
22.9184

> <b_lp_Chiralities_Consistent>
1

> <s_lp_Variant>
AV-unprocessed.smi:1669-8

> <Gold.Version>
5.8.1

> <Gold.Id.Protein>
6NUR|6NUR_protein|mol2

> <Gold.PLP.Fitness>
57.6889

> <Gold.PLP.PLP>
-43.5266

> <Gold.PLP.part.hbond>
-5.7874

> <Gold.PLP.part.metal>
0.0000

> <Gold.PLP.part.buried>
8.0130

> <Gold.PLP.part.nonpolar>
-45.3804

> <Gold.PLP.part.repulsive>
0.0346

> <Gold.PLP.ligand.clash>
0.0000

> <Gold.PLP.ligand.torsion>
1.6761

> <Gold.PLP.Chemscore.Hbond>
5.7666

> <Gold.PLP.Chemscore.CHOScore>
0.0000

> <Gold.PLP.Chemscore.Metal>
0.0000

> <Gold.Chemscore.Hbonds>
donor molecule, donor type, donor heavy atom, donor atom, acceptor molecule, acceptor atom, score
      L1  H     2    48       P1  7948  1.17
      L1  H    12    38       P1 10171  1.00
      L1  H    18    49       P1 10957  2.00
      P1  H  7954  7966       L1    12  0.82

> <Gold.PLP.Chemscore.Internal.Correction>
0.2146

> <Gold.Rescore>
     Score         DG    S(hbond)    S(metal)    S(lipo)     H(rot)  DE(clash)    DE(int)     intcor
     16.64     -20.98       3.07        0.00     116.55       3.27       2.76       1.59       ----

> <Gold.Chemscore.Fitness>
16.6357

> <Gold.Chemscore.DG>
-20.9778

> <Gold.Chemscore.ZeroCoef>
-5.4800

> <Gold.Chemscore.Hbond>
3.0650

> <Gold.Chemscore.Metal>
0.0000

> <Gold.Chemscore.Lipo>
116.5515

> <Gold.Chemscore.Internal_Hbond>
0.0000

> <Gold.Chemscore.DEClash>
2.7553

> <Gold.Chemscore.DEInternal>
1.5867

> <Gold.Chemscore.Rot>
3.2718

> <Gold.Chemscore.Internal.Correction>
   9.000000E+99

> <Gold.Chemscore.Hbonds>
donor molecule, donor type, donor heavy atom, donor atom, acceptor molecule, acceptor atom, score
      L1  H     2    48       P1  7948  0.56
      L1  H    12    38       P1 10171  0.99
      L1  H    18    49       P1 10957  0.99
      P1  H  7954  7966       L1    12  0.62

> <Gold.Chemscore.Hbond.Weighted>
-10.2372

> <Gold.Chemscore.Metal.Weighted>
-0.0000

> <Gold.Chemscore.Lipo.Weighted>
-13.6365

> <Gold.Chemscore.Internal_Hbond.Weighted>
0.0000

> <Gold.Chemscore.DEClash.Weighted>
2.7553

> <Gold.Chemscore.DEInternal.Weighted>
1.5867

> <Gold.Chemscore.Rot.Weighted>
8.3759

> <Gold.Chemscore.Internal.Correction.Weighted>
   9.000000E+99

> <Gold.Protein.RotatedTorsions>
[ 6907 6896 6895 6894 ] final   44.58 input  -60.11 | X-H torsion
[ 7974 7965 7964 7962 ] final  -47.03 input  175.53 | X-H torsion
[ 8008 7997 7996 7995 ] final    9.68 input   59.86 | X-H torsion
[ 10167 10162 10161 10158 ] final -141.01 input  -65.29 | X-H torsion
[ 10718 10713 10712 10709 ] final   28.66 input   66.30 | X-H torsion
[ 10763 10752 10751 10750 ] final   75.52 input  -60.55 | X-H torsion
[ 11005 11000 10999 10996 ] final  -49.88 input  -57.11 | X-H torsion

> <Gold.Protein.ActiveResidues>
 VAL166  LYS551  ARG553  GLY616  TRP617  ASP618  TYR619  PRO620  LYS621  CYS622 
 ASP623  PHE694  ASN695  SER759  ASP760  ASP761  ALA762  ILE779  LEU786  VAL792 
 PHE793  MET794  SER795  GLU796  ALA797  LYS798  CYS799  TRP800  GLU811  SER814 

> <Gold.Protein.RotatedAtoms>
  152.2343  134.8292  160.0469 H   0  0  0  0  0  0  0  0  0  0  0  0  # atno 6907 bound_to 6896
  151.9029  133.3537  159.3845 H   0  0  0  0  0  0  0  0  0  0  0  0  # atno 6908 bound_to 6896
  150.7034  134.4735  159.5481 H   0  0  0  0  0  0  0  0  0  0  0  0  # atno 6909 bound_to 6896
  145.9658  140.7433  142.9435 H   0  0  0  0  0  0  0  0  0  0  0  0  # atno 7974 bound_to 7965
  154.7832  140.2822  155.6048 H   0  0  0  0  0  0  0  0  0  0  0  0  # atno 8008 bound_to 7997
  156.2953  140.2619  156.2590 H   0  0  0  0  0  0  0  0  0  0  0  0  # atno 8009 bound_to 7997
  154.9759  140.0375  157.2245 H   0  0  0  0  0  0  0  0  0  0  0  0  # atno 8010 bound_to 7997
  139.8226  143.7553  152.2666 H   0  0  0  0  0  0  0  0  0  0  0  0  # atno 10167 bound_to 10162
  157.2363  130.7048  149.6337 H   0  0  0  0  0  0  0  0  0  0  0  0  # atno 10718 bound_to 10713
  153.0661  135.4985  154.8202 H   0  0  0  0  0  0  0  0  0  0  0  0  # atno 10763 bound_to 10752
  154.6955  135.2992  154.9420 H   0  0  0  0  0  0  0  0  0  0  0  0  # atno 10764 bound_to 10752
  154.0161  135.6748  153.4821 H   0  0  0  0  0  0  0  0  0  0  0  0  # atno 10765 bound_to 10752
  141.0784  133.6659  156.3649 H   0  0  0  0  0  0  0  0  0  0  0  0  # atno 11005 bound_to 11000
  144.6825  140.2667  143.7311 LP  0  0  0  0  0  0  0  0  0  0  0  0  # atno 17320 bound_to 7965
  145.7975  139.1951  143.2067 LP  0  0  0  0  0  0  0  0  0  0  0  0  # atno 17321 bound_to 7965
  139.7736  144.7468  151.0188 LP  0  0  0  0  0  0  0  0  0  0  0  0  # atno 17342 bound_to 10162
  140.7812  143.4618  151.0268 LP  0  0  0  0  0  0  0  0  0  0  0  0  # atno 17343 bound_to 10162
  155.9672  130.4472  150.5572 LP  0  0  0  0  0  0  0  0  0  0  0  0  # atno 17370 bound_to 10713
  157.3425  131.0719  151.1777 LP  0  0  0  0  0  0  0  0  0  0  0  0  # atno 17371 bound_to 10713
  140.5522  134.6016  157.5411 LP  0  0  0  0  0  0  0  0  0  0  0  0  # atno 17394 bound_to 11000
  139.9597  134.7474  156.0264 LP  0  0  0  0  0  0  0  0  0  0  0  0  # atno 17395 bound_to 11000

$$$$
