AV-unprocessed.smi:1295|AV-procd|sdf|5403|dock1
  -GOLD-   22720 4563D 1   1.00000     0.00000
 Structure written by MMmdl.
 43 44  0  0  0  0  0  0  0  0  1 V2000
  146.8727  141.4576  153.4780 C   0  0  0  0  0  0  0  0  0  0  0  0
  147.7019  141.1058  154.6947 C   0  0  0  0  0  0  0  0  0  0  0  0
  147.2505  141.1270  155.9055 N   0  0  0  0  0  0  0  0  0  0  0  0
  148.1134  140.7768  156.9529 C   0  0  0  0  0  0  0  0  0  0  0  0
  147.5038  140.8086  158.3437 C   0  0  0  0  0  0  0  0  0  0  0  0
  149.4114  140.4217  156.7228 C   0  0  0  0  0  0  0  0  0  0  0  0
  150.3708  140.0143  157.8424 C   0  0  0  0  0  0  0  0  0  0  0  0
  151.6967  140.7772  157.8841 C   0  0  0  0  0  0  0  0  0  0  0  0
  152.5243  140.6270  156.9863 O   0  0  0  0  0  0  0  0  0  0  0  0
  151.8739  141.5948  158.9325 N   0  0  0  0  0  0  0  0  0  0  0  0
  153.0049  142.4909  159.1607 C   0  0  2  0  0  0  0  0  0  0  0  0
  154.0420  141.8143  160.0796 C   0  0  0  0  0  0  0  0  0  0  0  0
  153.5200  141.6466  161.5174 C   0  0  0  0  0  0  0  0  0  0  0  0
  153.0543  142.9897  162.0997 C   0  0  0  0  0  0  0  0  0  0  0  0
  152.0035  143.6581  161.1987 C   0  0  0  0  0  0  0  0  0  0  0  0
  152.5223  143.8372  159.7562 C   0  0  2  0  0  0  0  0  0  0  0  0
  151.4811  144.5414  158.8677 C   0  0  0  0  0  0  0  0  0  0  0  0
  149.9150  140.3967  155.3357 C   0  0  0  0  0  0  0  0  0  0  0  0
  151.0566  140.0704  155.0145 O   0  0  0  0  0  0  0  0  0  0  0  0
  149.0146  140.7489  154.3910 N   0  0  0  0  0  0  0  0  0  0  0  0
  149.3105  140.7463  153.4256 H   0  0  0  0  0  0  0  0  0  0  0  0
  146.0059  140.7997  153.4125 H   0  0  0  0  0  0  0  0  0  0  0  0
  147.4471  141.3579  152.5560 H   0  0  0  0  0  0  0  0  0  0  0  0
  146.5180  142.4861  153.5499 H   0  0  0  0  0  0  0  0  0  0  0  0
  148.0224  141.5316  158.9735 H   0  0  0  0  0  0  0  0  0  0  0  0
  147.5686  139.8269  158.8133 H   0  0  0  0  0  0  0  0  0  0  0  0
  146.4509  141.0913  158.3090 H   0  0  0  0  0  0  0  0  0  0  0  0
  149.8896  140.1120  158.8161 H   0  0  0  0  0  0  0  0  0  0  0  0
  150.5884  138.9502  157.7469 H   0  0  0  0  0  0  0  0  0  0  0  0
  151.1368  141.6282  159.6216 H   0  0  0  0  0  0  0  0  0  0  0  0
  153.4905  142.7052  158.2071 H   0  0  0  0  0  0  0  0  0  0  0  0
  154.3320  140.8451  159.6718 H   0  0  0  0  0  0  0  0  0  0  0  0
  154.9501  142.4182  160.0989 H   0  0  0  0  0  0  0  0  0  0  0  0
  152.6932  140.9351  161.5308 H   0  0  0  0  0  0  0  0  0  0  0  0
  154.3011  141.2204  162.1475 H   0  0  0  0  0  0  0  0  0  0  0  0
  152.6447  142.8383  163.0988 H   0  0  0  0  0  0  0  0  0  0  0  0
  153.9116  143.6541  162.2151 H   0  0  0  0  0  0  0  0  0  0  0  0
  151.0915  143.0595  161.1960 H   0  0  0  0  0  0  0  0  0  0  0  0
  151.7306  144.6270  161.6181 H   0  0  0  0  0  0  0  0  0  0  0  0
  153.3914  144.4952  159.8048 H   0  0  0  0  0  0  0  0  0  0  0  0
  150.5475  143.9801  158.8134 H   0  0  0  0  0  0  0  0  0  0  0  0
  151.8537  144.6659  157.8506 H   0  0  0  0  0  0  0  0  0  0  0  0
  151.2450  145.5330  159.2545 H   0  0  0  0  0  0  0  0  0  0  0  0
  1  2  1  0  0  0  0
  1 22  1  0  0  0  0
  1 23  1  0  0  0  0
  1 24  1  0  0  0  0
  2 20  1  0  0  0  0
  2  3  2  0  0  0  0
  3  4  1  0  0  0  0
  4  5  1  0  0  0  0
  4  6  2  0  0  0  0
  5 25  1  0  0  0  0
  5 26  1  0  0  0  0
  5 27  1  0  0  0  0
  6  7  1  0  0  0  0
  6 18  1  0  0  0  0
  7  8  1  0  0  0  0
  7 28  1  0  0  0  0
  7 29  1  0  0  0  0
  8  9  2  0  0  0  0
  8 10  1  0  0  0  0
 10 11  1  0  0  0  0
 10 30  1  0  0  0  0
 11 16  1  0  0  0  0
 11 12  1  0  0  0  0
 11 31  1  0  0  0  0
 12 13  1  0  0  0  0
 12 32  1  0  0  0  0
 12 33  1  0  0  0  0
 13 14  1  0  0  0  0
 13 34  1  0  0  0  0
 13 35  1  0  0  0  0
 14 15  1  0  0  0  0
 14 36  1  0  0  0  0
 14 37  1  0  0  0  0
 15 16  1  0  0  0  0
 15 38  1  0  0  0  0
 15 39  1  0  0  0  0
 16 17  1  0  0  0  0
 16 40  1  0  0  0  0
 17 41  1  0  0  0  0
 17 42  1  0  0  0  0
 17 43  1  0  0  0  0
 18 19  2  0  0  0  0
 18 20  1  0  0  0  0
 20 21  1  0  0  0  0
M  END
> <s_m_source_file>
AV-unprocessed.smi

> <i_m_source_file_index>
1295

> <i_lp_mmshare_version>
43012

> <i_f3d_flags>
0

> <s_epik_input>
W0NIM11jMW5jKFtDSDNdKWMoYyg9TylbbkhdMSlbQ0gyXUMoPU8pW05IXVtDQEBIXTJbQ0gyXVtDSDJdW0NIMl1bQ0gyXVtDQEhdMltDSDNd

> <s_epik_cmdline>
J2VwaWtfcHl0aG9uJywgJy1waCcsICc3LjAnLCAnLXRuJywgJzgnLCAnLW1hJywgJzIwMCcsICctbWV0YWxfYmluZGluZycsICctaW1hZScsICc8aW5maWxlLm1hZT4nLCAnLW9tYWUnLCAnPG91dGZpbGUubWFlPic=

> <r_lp_tautomer_probability>
0.839158

> <r_epik_Ionization_Penalty>
0.00037085

> <r_epik_Ionization_Penalty_Charging>
0.000336002

> <r_epik_Ionization_Penalty_Neutral>
3.48485e-05

> <r_epik_State_Penalty>
0.09125

> <r_epik_Charging_Adjusted_Penalty>
0.091586

> <i_epik_Tot_Q>
0

> <i_epik_Tot_abs_Q>
0

> <r_epik_Metal_State_Penalty>
0.251445

> <b_epik_Metal_Only>
0

> <s_lp_Force_Field>
OPLS_2005

> <r_lp_Energy>
10.0645

> <b_lp_Chiralities_Consistent>
1

> <s_lp_Variant>
AV-unprocessed.smi:1295-3

> <Gold.Version>
5.8.1

> <Gold.Id.Protein>
6NUR|6NUR_protein|mol2

> <Gold.PLP.Fitness>
47.8894

> <Gold.PLP.PLP>
-40.0324

> <Gold.PLP.part.hbond>
-3.0000

> <Gold.PLP.part.metal>
0.0000

> <Gold.PLP.part.buried>
-4.3424

> <Gold.PLP.part.nonpolar>
-32.2604

> <Gold.PLP.part.repulsive>
0.4206

> <Gold.PLP.ligand.clash>
0.0000

> <Gold.PLP.ligand.torsion>
0.4104

> <Gold.PLP.Chemscore.Hbond>
2.8873

> <Gold.PLP.Chemscore.CHOScore>
0.0000

> <Gold.PLP.Chemscore.Metal>
0.0000

> <Gold.Chemscore.Hbonds>
donor molecule, donor type, donor heavy atom, donor atom, acceptor molecule, acceptor atom, score
      L1  H    20    21       P1  7957  0.10
      P1  H  7989  7998       L1    19  1.00
      P1  H  7997  8009       L1     9  0.80

> <Gold.PLP.Chemscore.Internal.Correction>
0.0160

> <Gold.Rescore>
     Score         DG    S(hbond)    S(metal)    S(lipo)     H(rot)  DE(clash)    DE(int)     intcor
     16.64     -20.10       2.16        0.00      95.85       1.48       0.25       3.22       ----

> <Gold.Chemscore.Fitness>
16.6359

> <Gold.Chemscore.DG>
-20.1029

> <Gold.Chemscore.ZeroCoef>
-5.4800

> <Gold.Chemscore.Hbond>
2.1550

> <Gold.Chemscore.Metal>
0.0000

> <Gold.Chemscore.Lipo>
95.8488

> <Gold.Chemscore.Internal_Hbond>
0.0000

> <Gold.Chemscore.DEClash>
0.2498

> <Gold.Chemscore.DEInternal>
3.2172

> <Gold.Chemscore.Rot>
1.4801

> <Gold.Chemscore.Internal.Correction>
   9.000000E+99

> <Gold.Chemscore.Hbonds>
donor molecule, donor type, donor heavy atom, donor atom, acceptor molecule, acceptor atom, score
      L1  H    20    21       P1  7957  0.13
      P1  H  7989  7998       L1    19  0.88
      P1  H  7997  8009       L1     9  0.79

> <Gold.Chemscore.Hbond.Weighted>
-7.1977

> <Gold.Chemscore.Metal.Weighted>
-0.0000

> <Gold.Chemscore.Lipo.Weighted>
-11.2143

> <Gold.Chemscore.Internal_Hbond.Weighted>
0.0000

> <Gold.Chemscore.DEClash.Weighted>
0.2498

> <Gold.Chemscore.DEInternal.Weighted>
3.2172

> <Gold.Chemscore.Rot.Weighted>
3.7891

> <Gold.Chemscore.Internal.Correction.Weighted>
   9.000000E+99

> <Gold.Protein.RotatedTorsions>
[ 6907 6896 6895 6894 ] final -172.94 input  -60.11 | X-H torsion
[ 7974 7965 7964 7962 ] final -115.61 input  175.53 | X-H torsion
[ 8008 7997 7996 7995 ] final -179.86 input   59.86 | X-H torsion
[ 10167 10162 10161 10158 ] final  175.40 input  -65.29 | X-H torsion
[ 10718 10713 10712 10709 ] final  -47.68 input   66.30 | X-H torsion
[ 10763 10752 10751 10750 ] final   61.58 input  -60.55 | X-H torsion
[ 11005 11000 10999 10996 ] final   57.98 input  -57.11 | X-H torsion

> <Gold.Protein.ActiveResidues>
 VAL166  LYS551  ARG553  GLY616  TRP617  ASP618  TYR619  PRO620  LYS621  CYS622 
 ASP623  PHE694  ASN695  SER759  ASP760  ASP761  ALA762  ILE779  LEU786  VAL792 
 PHE793  MET794  SER795  GLU796  ALA797  LYS798  CYS799  TRP800  GLU811  SER814 

> <Gold.Protein.RotatedAtoms>
  151.5482  133.3422  159.2947 H   0  0  0  0  0  0  0  0  0  0  0  0  # atno 6907 bound_to 6896
  150.8495  134.7817  159.7008 H   0  0  0  0  0  0  0  0  0  0  0  0  # atno 6908 bound_to 6896
  152.4544  134.5331  159.9868 H   0  0  0  0  0  0  0  0  0  0  0  0  # atno 6909 bound_to 6896
  145.1064  140.8584  143.3896 H   0  0  0  0  0  0  0  0  0  0  0  0  # atno 7974 bound_to 7965
  156.0354  140.1291  157.0214 H   0  0  0  0  0  0  0  0  0  0  0  0  # atno 8008 bound_to 7997
  154.4367  140.1041  156.6230 H   0  0  0  0  0  0  0  0  0  0  0  0  # atno 8009 bound_to 7997
  155.5746  140.3467  155.4526 H   0  0  0  0  0  0  0  0  0  0  0  0  # atno 8010 bound_to 7997
  139.5176  144.3035  152.0357 H   0  0  0  0  0  0  0  0  0  0  0  0  # atno 10167 bound_to 10162
  156.2061  130.4158  149.9177 H   0  0  0  0  0  0  0  0  0  0  0  0  # atno 10718 bound_to 10713
  152.9955  135.5495  154.6056 H   0  0  0  0  0  0  0  0  0  0  0  0  # atno 10763 bound_to 10752
  154.5388  135.2818  155.1116 H   0  0  0  0  0  0  0  0  0  0  0  0  # atno 10764 bound_to 10752
  154.2402  135.6418  153.5257 H   0  0  0  0  0  0  0  0  0  0  0  0  # atno 10765 bound_to 10752
  140.0411  134.5872  155.9380 H   0  0  0  0  0  0  0  0  0  0  0  0  # atno 11005 bound_to 11000
  145.0897  139.2899  143.5741 LP  0  0  0  0  0  0  0  0  0  0  0  0  # atno 17320 bound_to 7965
  146.3528  140.0430  142.8641 LP  0  0  0  0  0  0  0  0  0  0  0  0  # atno 17321 bound_to 7965
  140.2482  144.4197  150.6232 LP  0  0  0  0  0  0  0  0  0  0  0  0  # atno 17342 bound_to 10162
  140.6243  143.2179  151.6629 LP  0  0  0  0  0  0  0  0  0  0  0  0  # atno 17343 bound_to 10162
  156.6870  130.8881  151.3583 LP  0  0  0  0  0  0  0  0  0  0  0  0  # atno 17370 bound_to 10713
  157.7013  130.9336  150.0793 LP  0  0  0  0  0  0  0  0  0  0  0  0  # atno 17371 bound_to 10713
  141.1883  133.6562  156.5321 LP  0  0  0  0  0  0  0  0  0  0  0  0  # atno 17394 bound_to 11000
  140.4067  134.7308  157.4812 LP  0  0  0  0  0  0  0  0  0  0  0  0  # atno 17395 bound_to 11000

$$$$
