AV-unprocessed.smi:1345|AV-procd|sdf|5511|dock4
  -GOLD-   22720 5 93D 1   1.00000     0.00000
 Structure written by MMmdl.
 40 41  0  0  0  0  0  0  0  0  1 V2000
  153.5679  141.8550  160.3160 C   0  0  0  0  0  0  0  0  0  0  0  0
  152.7922  142.4565  159.1275 C   0  0  0  0  0  0  0  0  0  0  0  0
  152.6998  143.9837  159.2978 C   0  0  0  0  0  0  0  0  0  0  0  0
  151.4007  141.7957  158.9401 C   0  0  1  0  0  0  0  0  0  0  0  0
  150.6741  142.2576  157.6624 C   0  0  0  0  0  0  0  0  0  0  0  0
  151.5370  140.3407  158.9005 N   0  0  0  0  0  0  0  0  0  0  0  0
  152.0744  139.6282  157.8969 C   0  0  0  0  0  0  0  0  0  0  0  0
  152.5079  140.1318  156.8609 O   0  0  0  0  0  0  0  0  0  0  0  0
  152.1334  138.1127  158.0946 C   0  0  0  0  0  0  0  0  0  0  0  0
  150.7453  137.5443  158.1648 C   0  0  0  0  0  0  0  0  0  0  0  0
  149.7259  137.7481  157.2671 C   0  0  0  0  0  0  0  0  0  0  0  0
  148.2786  136.8887  157.7160 S   0  0  0  0  0  0  0  0  0  0  0  0
  149.1252  136.2738  159.1387 C   0  0  0  0  0  0  0  0  0  0  0  0
  148.5897  135.3999  160.1309 N   0  0  0  0  0  0  0  0  0  0  0  0
  148.3344  133.9895  159.8538 C   0  0  0  0  0  0  0  0  0  0  0  0
  147.7719  133.4544  161.1671 C   0  0  0  0  0  0  0  0  0  0  0  0
  147.7859  134.6302  162.0049 N   0  0  0  0  0  0  0  0  0  0  0  0
  148.2530  135.7225  161.3956 C   0  0  0  0  0  0  0  0  0  0  0  0
  148.3451  136.8239  161.9347 O   0  0  0  0  0  0  0  0  0  0  0  0
  150.3866  136.7085  159.2280 N   0  0  0  0  0  0  0  0  0  0  0  0
  153.0137  141.9713  161.2478 H   0  0  0  0  0  0  0  0  0  0  0  0
  154.5340  142.3444  160.4429 H   0  0  0  0  0  0  0  0  0  0  0  0
  153.7678  140.7925  160.1775 H   0  0  0  0  0  0  0  0  0  0  0  0
  153.3805  142.2650  158.2289 H   0  0  0  0  0  0  0  0  0  0  0  0
  152.0638  144.2505  160.1426 H   0  0  0  0  0  0  0  0  0  0  0  0
  152.2986  144.4683  158.4084 H   0  0  0  0  0  0  0  0  0  0  0  0
  153.6838  144.4185  159.4749 H   0  0  0  0  0  0  0  0  0  0  0  0
  150.7843  142.0654  159.7998 H   0  0  0  0  0  0  0  0  0  0  0  0
  150.4389  143.3209  157.6923 H   0  0  0  0  0  0  0  0  0  0  0  0
  149.7273  141.7316  157.5355 H   0  0  0  0  0  0  0  0  0  0  0  0
  151.2769  142.0707  156.7732 H   0  0  0  0  0  0  0  0  0  0  0  0
  151.2103  139.8344  159.7110 H   0  0  0  0  0  0  0  0  0  0  0  0
  152.6992  137.6663  157.2758 H   0  0  0  0  0  0  0  0  0  0  0  0
  152.6850  137.8879  159.0083 H   0  0  0  0  0  0  0  0  0  0  0  0
  149.7418  138.3452  156.3673 H   0  0  0  0  0  0  0  0  0  0  0  0
  147.6173  133.8801  159.0388 H   0  0  0  0  0  0  0  0  0  0  0  0
  149.2574  133.4775  159.5776 H   0  0  0  0  0  0  0  0  0  0  0  0
  146.7557  133.0747  161.0543 H   0  0  0  0  0  0  0  0  0  0  0  0
  148.3999  132.6715  161.5942 H   0  0  0  0  0  0  0  0  0  0  0  0
  147.4683  134.6151  162.9635 H   0  0  0  0  0  0  0  0  0  0  0  0
  1  2  1  0  0  0  0
  1 21  1  0  0  0  0
  1 22  1  0  0  0  0
  1 23  1  0  0  0  0
  2  3  1  0  0  0  0
  2  4  1  0  0  0  0
  2 24  1  0  0  0  0
  3 25  1  0  0  0  0
  3 26  1  0  0  0  0
  3 27  1  0  0  0  0
  4  5  1  0  0  0  0
  4  6  1  0  0  0  0
  4 28  1  0  0  0  0
  5 29  1  0  0  0  0
  5 30  1  0  0  0  0
  5 31  1  0  0  0  0
  6  7  1  0  0  0  0
  6 32  1  0  0  0  0
  7  8  2  0  0  0  0
  7  9  1  0  0  0  0
  9 10  1  0  0  0  0
  9 33  1  0  0  0  0
  9 34  1  0  0  0  0
 10 20  1  0  0  0  0
 10 11  2  0  0  0  0
 11 12  1  0  0  0  0
 11 35  1  0  0  0  0
 12 13  1  0  0  0  0
 13 14  1  0  0  0  0
 13 20  2  0  0  0  0
 14 18  1  0  0  0  0
 14 15  1  0  0  0  0
 15 16  1  0  0  0  0
 15 36  1  0  0  0  0
 15 37  1  0  0  0  0
 16 17  1  0  0  0  0
 16 38  1  0  0  0  0
 16 39  1  0  0  0  0
 17 18  1  0  0  0  0
 17 40  1  0  0  0  0
 18 19  2  0  0  0  0
M  END
> <s_m_source_file>
AV-unprocessed.smi

> <i_m_source_file_index>
1345

> <i_lp_mmshare_version>
43012

> <i_f3d_flags>
0

> <s_epik_input>
W0NIM11bQ0hdKFtDSDNdKVtDQEhdKFtDSDNdKVtOSF1DKD1PKVtDSDJdYzFbY0hdc2MobjEpTjJbQ0gyXVtDSDJdW05IXUMyPU8=

> <s_epik_cmdline>
J2VwaWtfcHl0aG9uJywgJy1waCcsICc3LjAnLCAnLXRuJywgJzgnLCAnLW1hJywgJzIwMCcsICctbWV0YWxfYmluZGluZycsICctaW1hZScsICc8aW5maWxlLm1hZT4nLCAnLW9tYWUnLCAnPG91dGZpbGUubWFlPic=

> <r_lp_tautomer_probability>
1

> <r_epik_Ionization_Penalty>
0.000122034

> <r_epik_Ionization_Penalty_Charging>
0

> <r_epik_Ionization_Penalty_Neutral>
0.000122034

> <r_epik_State_Penalty>
-0

> <r_epik_Charging_Adjusted_Penalty>
0

> <i_epik_Tot_Q>
0

> <i_epik_Tot_abs_Q>
0

> <r_epik_Metal_State_Penalty>
-0

> <b_epik_Metal_Only>
0

> <s_lp_Force_Field>
OPLS_2005

> <r_lp_Energy>
32.8432

> <b_lp_Chiralities_Consistent>
1

> <s_lp_Variant>
AV-unprocessed.smi:1345-2

> <Gold.Version>
5.8.1

> <Gold.Id.Protein>
6NUR|6NUR_protein|mol2

> <Gold.PLP.Fitness>
45.9991

> <Gold.PLP.PLP>
-39.2529

> <Gold.PLP.part.hbond>
-4.1981

> <Gold.PLP.part.metal>
0.0000

> <Gold.PLP.part.buried>
-4.6721

> <Gold.PLP.part.nonpolar>
-30.6827

> <Gold.PLP.part.repulsive>
0.3114

> <Gold.PLP.ligand.clash>
0.0000

> <Gold.PLP.ligand.torsion>
1.5736

> <Gold.PLP.Chemscore.Hbond>
3.2870

> <Gold.PLP.Chemscore.CHOScore>
0.0000

> <Gold.PLP.Chemscore.Metal>
0.0000

> <Gold.Chemscore.Hbonds>
donor molecule, donor type, donor heavy atom, donor atom, acceptor molecule, acceptor atom, score
      P1  H  6896  6909       L1    20  0.85
      P1  H  6931  6943       L1    19  1.00
      P1  H  7997  8010       L1     8  1.00

> <Gold.PLP.Chemscore.Internal.Correction>
0.0325

> <Gold.Rescore>
     Score         DG    S(hbond)    S(metal)    S(lipo)     H(rot)  DE(clash)    DE(int)     intcor
     16.25     -18.60       2.77        0.00      70.96       1.74       0.00       2.35       ----

> <Gold.Chemscore.Fitness>
16.2527

> <Gold.Chemscore.DG>
-18.6018

> <Gold.Chemscore.ZeroCoef>
-5.4800

> <Gold.Chemscore.Hbond>
2.7729

> <Gold.Chemscore.Metal>
0.0000

> <Gold.Chemscore.Lipo>
70.9626

> <Gold.Chemscore.Internal_Hbond>
0.0000

> <Gold.Chemscore.DEClash>
0.0000

> <Gold.Chemscore.DEInternal>
2.3490

> <Gold.Chemscore.Rot>
1.7353

> <Gold.Chemscore.Internal.Correction>
   9.000000E+99

> <Gold.Chemscore.Hbonds>
donor molecule, donor type, donor heavy atom, donor atom, acceptor molecule, acceptor atom, score
      P1  H  6896  6909       L1    20  0.15
      P1  H  6931  6943       L1    19  0.97
      P1  H  7997  8010       L1     8  0.87

> <Gold.Chemscore.Hbond.Weighted>
-9.2614

> <Gold.Chemscore.Metal.Weighted>
-0.0000

> <Gold.Chemscore.Lipo.Weighted>
-8.3026

> <Gold.Chemscore.Internal_Hbond.Weighted>
0.0000

> <Gold.Chemscore.DEClash.Weighted>
0.0000

> <Gold.Chemscore.DEInternal.Weighted>
2.3490

> <Gold.Chemscore.Rot.Weighted>
4.4423

> <Gold.Chemscore.Internal.Correction.Weighted>
   9.000000E+99

> <Gold.Protein.RotatedTorsions>
[ 6907 6896 6895 6894 ] final   95.11 input  -60.11 | X-H torsion
[ 7974 7965 7964 7962 ] final   80.90 input  175.53 | X-H torsion
[ 8008 7997 7996 7995 ] final   57.28 input   59.86 | X-H torsion
[ 10167 10162 10161 10158 ] final   23.33 input  -65.29 | X-H torsion
[ 10718 10713 10712 10709 ] final  -51.76 input   66.30 | X-H torsion
[ 10763 10752 10751 10750 ] final   96.99 input  -60.55 | X-H torsion
[ 11005 11000 10999 10996 ] final -155.45 input  -57.11 | X-H torsion

> <Gold.Protein.ActiveResidues>
 VAL166  LYS551  ARG553  GLY616  TRP617  ASP618  TYR619  PRO620  LYS621  CYS622 
 ASP623  PHE694  ASN695  SER759  ASP760  ASP761  ALA762  ILE779  LEU786  VAL792 
 PHE793  MET794  SER795  GLU796  ALA797  LYS798  CYS799  TRP800  GLU811  SER814 

> <Gold.Protein.RotatedAtoms>
  152.5446  134.1090  159.8349 H   0  0  0  0  0  0  0  0  0  0  0  0  # atno 6907 bound_to 6896
  151.1158  133.5132  159.2611 H   0  0  0  0  0  0  0  0  0  0  0  0  # atno 6908 bound_to 6896
  151.1833  135.0380  159.8856 H   0  0  0  0  0  0  0  0  0  0  0  0  # atno 6909 bound_to 6896
  145.6452  139.2434  143.2008 H   0  0  0  0  0  0  0  0  0  0  0  0  # atno 7974 bound_to 7965
  155.5312  140.3482  155.4427 H   0  0  0  0  0  0  0  0  0  0  0  0  # atno 8008 bound_to 7997
  156.0717  140.1364  156.9847 H   0  0  0  0  0  0  0  0  0  0  0  0  # atno 8009 bound_to 7997
  154.4531  140.0964  156.6653 H   0  0  0  0  0  0  0  0  0  0  0  0  # atno 8010 bound_to 7997
  140.5278  143.9894  150.6449 H   0  0  0  0  0  0  0  0  0  0  0  0  # atno 10167 bound_to 10162
  156.1681  130.4149  149.9689 H   0  0  0  0  0  0  0  0  0  0  0  0  # atno 10718 bound_to 10713
  153.2716  135.4199  155.0993 H   0  0  0  0  0  0  0  0  0  0  0  0  # atno 10763 bound_to 10752
  154.8458  135.3473  154.6237 H   0  0  0  0  0  0  0  0  0  0  0  0  # atno 10764 bound_to 10752
  153.6656  135.7046  153.5220 H   0  0  0  0  0  0  0  0  0  0  0  0  # atno 10765 bound_to 10752
  140.6863  134.4089  157.5223 H   0  0  0  0  0  0  0  0  0  0  0  0  # atno 11005 bound_to 11000
  146.1249  140.7262  142.9440 LP  0  0  0  0  0  0  0  0  0  0  0  0  # atno 17320 bound_to 7965
  144.7143  140.4152  143.7057 LP  0  0  0  0  0  0  0  0  0  0  0  0  # atno 17321 bound_to 7965
  140.3260  143.3107  152.0736 LP  0  0  0  0  0  0  0  0  0  0  0  0  # atno 17342 bound_to 10162
  139.4944  144.6541  151.6610 LP  0  0  0  0  0  0  0  0  0  0  0  0  # atno 17343 bound_to 10162
  156.7498  130.9111  151.3637 LP  0  0  0  0  0  0  0  0  0  0  0  0  # atno 17370 bound_to 10713
  157.6783  130.9115  150.0203 LP  0  0  0  0  0  0  0  0  0  0  0  0  # atno 17371 bound_to 10713
  139.8936  134.8726  156.2214 LP  0  0  0  0  0  0  0  0  0  0  0  0  # atno 17394 bound_to 11000
  141.0277  133.7006  156.1376 LP  0  0  0  0  0  0  0  0  0  0  0  0  # atno 17395 bound_to 11000

$$$$
