AV-unprocessed.smi:72|AV-procd|sdf|680|dock10
  -GOLD-   2262016593D 1   1.00000     0.00000
 Structure written by MMmdl.
 29 30  0  0  0  0  0  0  0  0  1 V2000
  153.0315  139.1962  158.9438 N   0  0  0  0  0  0  0  0  0  0  0  0
  152.3154  139.3445  157.8877 C   0  0  0  0  0  0  0  0  0  0  0  0
  152.7732  139.1999  156.5696 N   0  0  0  0  0  0  0  0  0  0  0  0
  151.9342  139.3818  155.5966 C   0  0  0  0  0  0  0  0  0  0  0  0
  150.5400  139.7325  155.8296 N   0  0  0  0  0  0  0  0  0  0  0  0
  149.5571  139.9416  154.6926 C   0  0  1  0  0  0  0  0  0  0  0  0
  148.3405  139.3180  154.9993 O   0  0  0  0  0  0  0  0  0  0  0  0
  147.3270  140.3019  155.1705 C   0  0  2  0  0  0  0  0  0  0  0  0
  145.9300  139.6901  154.9606 C   0  0  0  0  0  0  0  0  0  0  0  0
  145.7848  139.1209  153.6759 O   0  0  0  0  0  0  0  0  0  0  0  0
  147.7484  141.4283  154.2263 C   0  0  1  0  0  0  0  0  0  0  0  0
  147.1328  142.6673  154.5257 O   0  0  0  0  0  0  0  0  0  0  0  0
  149.2640  141.4364  154.4040 C   0  0  1  0  0  0  0  0  0  0  0  0
  149.6800  142.3070  155.4463 O   0  0  0  0  0  0  0  0  0  0  0  0
  150.0614  139.8704  157.1552 C   0  0  0  0  0  0  0  0  0  0  0  0
  148.8876  140.1421  157.4065 O   0  0  0  0  0  0  0  0  0  0  0  0
  150.9761  139.6759  158.1293 N   0  0  0  0  0  0  0  0  0  0  0  0
  149.9800  139.4163  153.8345 H   0  0  0  0  0  0  0  0  0  0  0  0
  147.3972  140.6560  156.2004 H   0  0  0  0  0  0  0  0  0  0  0  0
  147.5230  141.1632  153.1929 H   0  0  0  0  0  0  0  0  0  0  0  0
  149.7705  141.7375  153.4865 H   0  0  0  0  0  0  0  0  0  0  0  0
  152.4694  139.3530  159.7683 H   0  0  0  0  0  0  0  0  0  0  0  0
  152.2236  139.2804  154.5506 H   0  0  0  0  0  0  0  0  0  0  0  0
  145.7237  138.9366  155.7210 H   0  0  0  0  0  0  0  0  0  0  0  0
  145.1712  140.4655  155.0671 H   0  0  0  0  0  0  0  0  0  0  0  0
  145.3395  139.7421  153.1199 H   0  0  0  0  0  0  0  0  0  0  0  0
  147.7767  143.2332  154.9230 H   0  0  0  0  0  0  0  0  0  0  0  0
  149.1943  143.1141  155.3728 H   0  0  0  0  0  0  0  0  0  0  0  0
  150.6695  139.7703  159.0866 H   0  0  0  0  0  0  0  0  0  0  0  0
  1  2  2  0  0  0  0
  1 22  1  0  0  0  0
  2 17  1  0  0  0  0
  2  3  1  0  0  0  0
  3  4  2  0  0  0  0
  4  5  1  0  0  0  0
  4 23  1  0  0  0  0
  5  6  1  0  0  0  0
  5 15  1  0  0  0  0
  6 18  1  0  0  0  0
  6 13  1  0  0  0  0
  6  7  1  0  0  0  0
  7  8  1  0  0  0  0
  8 19  1  0  0  0  0
  8  9  1  0  0  0  0
  8 11  1  0  0  0  0
  9 10  1  0  0  0  0
  9 24  1  0  0  0  0
  9 25  1  0  0  0  0
 10 26  1  0  0  0  0
 11 20  1  0  0  0  0
 11 12  1  0  0  0  0
 11 13  1  0  0  0  0
 12 27  1  0  0  0  0
 13 21  1  0  0  0  0
 13 14  1  0  0  0  0
 14 28  1  0  0  0  0
 15 16  2  0  0  0  0
 15 17  1  0  0  0  0
 17 29  1  0  0  0  0
M  END
> <s_m_source_file>
AV-unprocessed.smi

> <i_m_source_file_index>
72

> <i_lp_mmshare_version>
43012

> <i_f3d_flags>
0

> <s_epik_input>
W05IMl1jMW5bY0hdbihjKD1PKW4xKVtDQEBIXTJPW0NASF0oW0NIMl1bT0hdKVtDQEBIXShbT0hdKVtDQEhdMltPSF0=

> <s_epik_cmdline>
J2VwaWtfcHl0aG9uJywgJy1waCcsICc3LjAnLCAnLXRuJywgJzgnLCAnLW1hJywgJzIwMCcsICctbWV0YWxfYmluZGluZycsICctaW1hZScsICc8aW5maWxlLm1hZT4nLCAnLW9tYWUnLCAnPG91dGZpbGUubWFlPic=

> <r_lp_tautomer_probability>
7.17554e-07

> <r_epik_Ionization_Penalty>
0.0066451

> <r_epik_Ionization_Penalty_Charging>
0.00663793

> <r_epik_Ionization_Penalty_Neutral>
7.17052e-06

> <r_epik_State_Penalty>
0.419231

> <r_epik_Charging_Adjusted_Penalty>
0.425868

> <i_epik_Tot_Q>
0

> <i_epik_Tot_abs_Q>
0

> <r_epik_Metal_State_Penalty>
1.44144

> <b_epik_Metal_Only>
0

> <s_epik_Chemistry_Notes>
This compound contains an acetal/aminal-like group ( X-CH(R)-Y where X, Y are N, S, or O) that may be acid/base labile, releasing an aldehyde.

> <s_lp_Force_Field>
OPLS_2005

> <r_lp_Energy>
48.597

> <b_lp_Chiralities_Consistent>
1

> <s_lp_Variant>
AV-unprocessed.smi:72-18

> <Gold.Version>
5.8.1

> <Gold.Id.Protein>
6NUR|6NUR_protein|mol2

> <Gold.PLP.Fitness>
32.7031

> <Gold.PLP.PLP>
-22.2672

> <Gold.PLP.part.hbond>
-4.1342

> <Gold.PLP.part.metal>
0.0000

> <Gold.PLP.part.buried>
-2.5767

> <Gold.PLP.part.nonpolar>
-15.4116

> <Gold.PLP.part.repulsive>
0.1563

> <Gold.PLP.ligand.clash>
0.6750

> <Gold.PLP.ligand.torsion>
0.4686

> <Gold.PLP.Chemscore.Hbond>
4.0000

> <Gold.PLP.Chemscore.CHOScore>
0.0000

> <Gold.PLP.Chemscore.Metal>
0.0000

> <Gold.Chemscore.Hbonds>
donor molecule, donor type, donor heavy atom, donor atom, acceptor molecule, acceptor atom, score
      L1  H    10    26       P1 10175  0.98
      L1  H    12    27       P1  8028  1.00
      L1  H    14    28       P1  8028  1.00
      P1  H  7997  8009       L1     3  0.85

> <Gold.PLP.Chemscore.Internal.Correction>
0.0482

> <Gold.Rescore>
     Score         DG    S(hbond)    S(metal)    S(lipo)     H(rot)  DE(clash)    DE(int)     intcor
      4.99      -9.12       3.49        0.00      20.37       4.06       0.07       4.06       ----

> <Gold.Chemscore.Fitness>
4.9936

> <Gold.Chemscore.DG>
-9.1226

> <Gold.Chemscore.ZeroCoef>
-5.4800

> <Gold.Chemscore.Hbond>
3.4889

> <Gold.Chemscore.Metal>
0.0000

> <Gold.Chemscore.Lipo>
20.3691

> <Gold.Chemscore.Internal_Hbond>
0.0000

> <Gold.Chemscore.DEClash>
0.0715

> <Gold.Chemscore.DEInternal>
4.0576

> <Gold.Chemscore.Rot>
4.0600

> <Gold.Chemscore.Internal.Correction>
   9.000000E+99

> <Gold.Chemscore.Hbonds>
donor molecule, donor type, donor heavy atom, donor atom, acceptor molecule, acceptor atom, score
      L1  H    10    26       P1 10175  0.93
      L1  H    12    27       P1  8028  0.64
      L1  H    14    28       P1  8028  0.98
      P1  H  7997  8009       L1     3  0.43

> <Gold.Chemscore.Hbond.Weighted>
-11.6531

> <Gold.Chemscore.Metal.Weighted>
-0.0000

> <Gold.Chemscore.Lipo.Weighted>
-2.3832

> <Gold.Chemscore.Internal_Hbond.Weighted>
0.0000

> <Gold.Chemscore.DEClash.Weighted>
0.0715

> <Gold.Chemscore.DEInternal.Weighted>
4.0576

> <Gold.Chemscore.Rot.Weighted>
10.3936

> <Gold.Chemscore.Internal.Correction.Weighted>
   9.000000E+99

> <Gold.Protein.RotatedTorsions>
[ 6907 6896 6895 6894 ] final -109.23 input  -60.11 | X-H torsion
[ 7974 7965 7964 7962 ] final  -91.57 input  175.53 | X-H torsion
[ 8008 7997 7996 7995 ] final -144.22 input   59.86 | X-H torsion
[ 10167 10162 10161 10158 ] final -153.86 input  -65.29 | X-H torsion
[ 10718 10713 10712 10709 ] final  128.44 input   66.30 | X-H torsion
[ 10763 10752 10751 10750 ] final  -58.47 input  -60.55 | X-H torsion
[ 11005 11000 10999 10996 ] final -138.63 input  -57.11 | X-H torsion

> <Gold.Protein.ActiveResidues>
 VAL166  LYS551  ARG553  GLY616  TRP617  ASP618  TYR619  PRO620  LYS621  CYS622 
 ASP623  PHE694  ASN695  SER759  ASP760  ASP761  ALA762  ILE779  LEU786  VAL792 
 PHE793  MET794  SER795  GLU796  ALA797  LYS798  CYS799  TRP800  GLU811  SER814 

> <Gold.Protein.RotatedAtoms>
  150.7549  133.9561  159.3500 H   0  0  0  0  0  0  0  0  0  0  0  0  # atno 6907 bound_to 6896
  151.7482  135.0837  160.0336 H   0  0  0  0  0  0  0  0  0  0  0  0  # atno 6908 bound_to 6896
  152.3484  133.6112  159.5962 H   0  0  0  0  0  0  0  0  0  0  0  0  # atno 6909 bound_to 6896
  145.4114  140.9545  143.2232 H   0  0  0  0  0  0  0  0  0  0  0  0  # atno 7974 bound_to 7965
  155.5234  140.0593  157.2902 H   0  0  0  0  0  0  0  0  0  0  0  0  # atno 8008 bound_to 7997
  154.4510  140.1948  156.0466 H   0  0  0  0  0  0  0  0  0  0  0  0  # atno 8009 bound_to 7997
  156.0703  140.3261  155.7572 H   0  0  0  0  0  0  0  0  0  0  0  0  # atno 8010 bound_to 7997
  139.7061  143.9184  152.2449 H   0  0  0  0  0  0  0  0  0  0  0  0  # atno 10167 bound_to 10162
  157.5244  131.1098  150.9105 H   0  0  0  0  0  0  0  0  0  0  0  0  # atno 10718 bound_to 10713
  154.2386  135.6347  153.5199 H   0  0  0  0  0  0  0  0  0  0  0  0  # atno 10763 bound_to 10752
  152.9934  135.5536  154.5935 H   0  0  0  0  0  0  0  0  0  0  0  0  # atno 10764 bound_to 10752
  154.5435  135.2896  155.1048 H   0  0  0  0  0  0  0  0  0  0  0  0  # atno 10765 bound_to 10752
  140.8598  134.2183  157.4714 H   0  0  0  0  0  0  0  0  0  0  0  0  # atno 11005 bound_to 11000
  144.8306  139.5635  143.6945 LP  0  0  0  0  0  0  0  0  0  0  0  0  # atno 17320 bound_to 7965
  146.2703  139.6618  142.9301 LP  0  0  0  0  0  0  0  0  0  0  0  0  # atno 17321 bound_to 7965
  139.9040  144.6895  150.8634 LP  0  0  0  0  0  0  0  0  0  0  0  0  # atno 17342 bound_to 10162
  140.7722  143.3493  151.2047 LP  0  0  0  0  0  0  0  0  0  0  0  0  # atno 17343 bound_to 10162
  156.9705  130.5489  149.5290 LP  0  0  0  0  0  0  0  0  0  0  0  0  # atno 17370 bound_to 10713
  156.0376  130.5462  150.8693 LP  0  0  0  0  0  0  0  0  0  0  0  0  # atno 17371 bound_to 10713
  139.8706  134.9724  156.4771 LP  0  0  0  0  0  0  0  0  0  0  0  0  # atno 17394 bound_to 11000
  140.8696  133.7998  155.9350 LP  0  0  0  0  0  0  0  0  0  0  0  0  # atno 17395 bound_to 11000

$$$$
