AV-unprocessed.smi:1686|AV-procd|sdf|6763|dock3
  -GOLD-   22720 7523D 1   1.00000     0.00000
 Structure written by MMmdl.
 41 43  0  0  0  0  0  0  0  0  1 V2000
  153.1229  139.6426  159.3626 C   0  0  0  0  0  0  0  0  0  0  0  0
  152.2260  138.4991  158.9842 C   0  0  0  0  0  0  0  0  0  0  0  0
  151.7014  137.7471  159.9429 N   0  0  0  0  0  0  0  0  0  0  0  0
  150.9152  136.7827  159.3020 O   0  0  0  0  0  0  0  0  0  0  0  0
  151.0132  137.0116  157.9725 C   0  0  0  0  0  0  0  0  0  0  0  0
  150.1885  136.0506  156.8097 Cl  0  0  0  0  0  0  0  0  0  0  0  0
  151.8229  138.0722  157.6845 C   0  0  0  0  0  0  0  0  0  0  0  0
  152.1944  138.6543  156.3416 C   0  0  0  0  0  0  0  0  0  0  0  0
  151.4326  139.9536  156.0527 C   0  0  0  0  0  0  0  0  0  0  0  0
  150.8959  140.1517  154.9613 O   0  0  0  0  0  0  0  0  0  0  0  0
  151.3998  140.8409  157.0585 N   0  0  0  0  0  0  0  0  0  0  0  0
  150.7585  142.1535  157.0158 C   0  0  1  0  0  0  0  0  0  0  0  0
  149.2733  141.9765  156.6508 C   0  0  0  0  0  0  0  0  0  0  0  0
  150.9469  142.8749  158.3729 C   0  0  2  0  0  0  0  0  0  0  0  0
  150.3790  144.3155  158.3948 C   0  0  0  0  0  0  0  0  0  0  0  0
  151.5722  145.1612  158.8733 C   0  0  1  0  0  0  0  0  0  0  0  0
  151.8639  144.8510  160.3527 C   0  0  0  0  0  0  0  0  0  0  0  0
  152.4820  143.4421  160.2856 C   0  0  0  0  0  0  0  0  0  0  0  0
  152.4242  143.1162  158.7807 C   0  0  2  0  0  0  0  0  0  0  0  0
  152.7339  144.4772  158.1660 C   0  0  0  0  0  0  0  0  0  0  0  0
  153.4572  140.1968  158.4859 H   0  0  0  0  0  0  0  0  0  0  0  0
  154.0101  139.2877  159.8875 H   0  0  0  0  0  0  0  0  0  0  0  0
  152.6066  140.3452  160.0172 H   0  0  0  0  0  0  0  0  0  0  0  0
  153.2641  138.8582  156.2876 H   0  0  0  0  0  0  0  0  0  0  0  0
  151.9826  137.9498  155.5368 H   0  0  0  0  0  0  0  0  0  0  0  0
  151.8673  140.5947  157.9188 H   0  0  0  0  0  0  0  0  0  0  0  0
  151.2355  142.7534  156.2387 H   0  0  0  0  0  0  0  0  0  0  0  0
  148.7625  142.9353  156.5668 H   0  0  0  0  0  0  0  0  0  0  0  0
  148.7484  141.3859  157.4025 H   0  0  0  0  0  0  0  0  0  0  0  0
  149.1609  141.4682  155.6925 H   0  0  0  0  0  0  0  0  0  0  0  0
  150.4557  142.2761  159.1418 H   0  0  0  0  0  0  0  0  0  0  0  0
  150.0754  144.6422  157.3995 H   0  0  0  0  0  0  0  0  0  0  0  0
  149.5126  144.4099  159.0506 H   0  0  0  0  0  0  0  0  0  0  0  0
  151.4664  146.2255  158.6613 H   0  0  0  0  0  0  0  0  0  0  0  0
  152.5771  145.5636  160.7687 H   0  0  0  0  0  0  0  0  0  0  0  0
  150.9623  144.8816  160.9654 H   0  0  0  0  0  0  0  0  0  0  0  0
  153.5145  143.4615  160.6366 H   0  0  0  0  0  0  0  0  0  0  0  0
  151.9389  142.7179  160.8937 H   0  0  0  0  0  0  0  0  0  0  0  0
  153.1133  142.3213  158.4953 H   0  0  0  0  0  0  0  0  0  0  0  0
  152.6514  144.4947  157.0781 H   0  0  0  0  0  0  0  0  0  0  0  0
  153.7098  144.8713  158.4557 H   0  0  0  0  0  0  0  0  0  0  0  0
  1  2  1  0  0  0  0
  1 21  1  0  0  0  0
  1 22  1  0  0  0  0
  1 23  1  0  0  0  0
  2  7  1  0  0  0  0
  2  3  2  0  0  0  0
  3  4  1  0  0  0  0
  4  5  1  0  0  0  0
  5  6  1  0  0  0  0
  5  7  2  0  0  0  0
  7  8  1  0  0  0  0
  8  9  1  0  0  0  0
  8 24  1  0  0  0  0
  8 25  1  0  0  0  0
  9 10  2  0  0  0  0
  9 11  1  0  0  0  0
 11 12  1  0  0  0  0
 11 26  1  0  0  0  0
 12 13  1  0  0  0  0
 12 14  1  0  0  0  0
 12 27  1  0  0  0  0
 13 28  1  0  0  0  0
 13 29  1  0  0  0  0
 13 30  1  0  0  0  0
 14 19  1  0  0  0  0
 14 15  1  0  0  0  0
 14 31  1  0  0  0  0
 15 16  1  0  0  0  0
 15 32  1  0  0  0  0
 15 33  1  0  0  0  0
 16 20  1  0  0  0  0
 16 17  1  0  0  0  0
 16 34  1  0  0  0  0
 17 18  1  0  0  0  0
 17 35  1  0  0  0  0
 17 36  1  0  0  0  0
 18 19  1  0  0  0  0
 18 37  1  0  0  0  0
 18 38  1  0  0  0  0
 19 20  1  0  0  0  0
 19 39  1  0  0  0  0
 20 40  1  0  0  0  0
 20 41  1  0  0  0  0
M  END
> <s_m_source_file>
AV-unprocessed.smi

> <i_m_source_file_index>
1686

> <i_lp_mmshare_version>
43012

> <i_f3d_flags>
0

> <s_epik_input>
W0NIM11jMW5vYyhDbCljMVtDSDJdQyg9TylbTkhdW0NASF0oW0NIM10pW0NASF0oW0NIMl1bQ0BIXTIzKVtDQEhdKFtDSDJdMylbQ0gyXVtDSDJdMg==

> <s_epik_cmdline>
J2VwaWtfcHl0aG9uJywgJy1waCcsICc3LjAnLCAnLXRuJywgJzgnLCAnLW1hJywgJzIwMCcsICctbWV0YWxfYmluZGluZycsICctaW1hZScsICc8aW5maWxlLm1hZT4nLCAnLW9tYWUnLCAnPG91dGZpbGUubWFlPic=

> <r_lp_tautomer_probability>
1

> <r_epik_Ionization_Penalty>
2.01576e-08

> <r_epik_Ionization_Penalty_Charging>
0

> <r_epik_Ionization_Penalty_Neutral>
2.01576e-08

> <r_epik_State_Penalty>
-0

> <r_epik_Charging_Adjusted_Penalty>
0

> <i_epik_Tot_Q>
0

> <i_epik_Tot_abs_Q>
0

> <r_epik_Metal_State_Penalty>
-0

> <b_epik_Metal_Only>
0

> <s_lp_Force_Field>
OPLS_2005

> <r_lp_Energy>
46.9039

> <b_lp_Chiralities_Consistent>
1

> <s_lp_Variant>
AV-unprocessed.smi:1686-6

> <Gold.Version>
5.8.1

> <Gold.Id.Protein>
6NUR|6NUR_protein|mol2

> <Gold.PLP.Fitness>
46.3469

> <Gold.PLP.PLP>
-41.1134

> <Gold.PLP.part.hbond>
-2.0000

> <Gold.PLP.part.metal>
0.0000

> <Gold.PLP.part.buried>
-6.1679

> <Gold.PLP.part.nonpolar>
-34.2862

> <Gold.PLP.part.repulsive>
0.1541

> <Gold.PLP.ligand.clash>
0.0000

> <Gold.PLP.ligand.torsion>
0.3842

> <Gold.PLP.Chemscore.Hbond>
1.9920

> <Gold.PLP.Chemscore.CHOScore>
0.0000

> <Gold.PLP.Chemscore.Metal>
0.0000

> <Gold.Chemscore.Hbonds>
donor molecule, donor type, donor heavy atom, donor atom, acceptor molecule, acceptor atom, score
      P1  H  6896  6907       L1     4  1.00
      P1  H  7989  7998       L1    10  1.00

> <Gold.PLP.Chemscore.Internal.Correction>
0.0258

> <Gold.Rescore>
     Score         DG    S(hbond)    S(metal)    S(lipo)     H(rot)  DE(clash)    DE(int)     intcor
     21.22     -23.06       1.93        0.00     127.25       1.46       0.06       1.78       ----

> <Gold.Chemscore.Fitness>
21.2248

> <Gold.Chemscore.DG>
-23.0615

> <Gold.Chemscore.ZeroCoef>
-5.4800

> <Gold.Chemscore.Hbond>
1.9292

> <Gold.Chemscore.Metal>
0.0000

> <Gold.Chemscore.Lipo>
127.2470

> <Gold.Chemscore.Internal_Hbond>
0.0000

> <Gold.Chemscore.DEClash>
0.0599

> <Gold.Chemscore.DEInternal>
1.7768

> <Gold.Chemscore.Rot>
1.4648

> <Gold.Chemscore.Internal.Correction>
   9.000000E+99

> <Gold.Chemscore.Hbonds>
donor molecule, donor type, donor heavy atom, donor atom, acceptor molecule, acceptor atom, score
      P1  H  6896  6907       L1     4  0.51
      P1  H  7989  7998       L1    10  1.00

> <Gold.Chemscore.Hbond.Weighted>
-6.4436

> <Gold.Chemscore.Metal.Weighted>
-0.0000

> <Gold.Chemscore.Lipo.Weighted>
-14.8879

> <Gold.Chemscore.Internal_Hbond.Weighted>
0.0000

> <Gold.Chemscore.DEClash.Weighted>
0.0599

> <Gold.Chemscore.DEInternal.Weighted>
1.7768

> <Gold.Chemscore.Rot.Weighted>
3.7500

> <Gold.Chemscore.Internal.Correction.Weighted>
   9.000000E+99

> <Gold.Protein.RotatedTorsions>
[ 6907 6896 6895 6894 ] final   -3.78 input  -60.11 | X-H torsion
[ 7974 7965 7964 7962 ] final   57.94 input  175.53 | X-H torsion
[ 8008 7997 7996 7995 ] final -177.02 input   59.86 | X-H torsion
[ 10167 10162 10161 10158 ] final  -21.23 input  -65.29 | X-H torsion
[ 10718 10713 10712 10709 ] final -135.44 input   66.30 | X-H torsion
[ 10763 10752 10751 10750 ] final   53.51 input  -60.55 | X-H torsion
[ 11005 11000 10999 10996 ] final   45.51 input  -57.11 | X-H torsion

> <Gold.Protein.ActiveResidues>
 VAL166  LYS551  ARG553  GLY616  TRP617  ASP618  TYR619  PRO620  LYS621  CYS622 
 ASP623  PHE694  ASN695  SER759  ASP760  ASP761  ALA762  ILE779  LEU786  VAL792 
 PHE793  MET794  SER795  GLU796  ALA797  LYS798  CYS799  TRP800  GLU811  SER814 

> <Gold.Protein.RotatedAtoms>
  151.5083  135.1064  159.9846 H   0  0  0  0  0  0  0  0  0  0  0  0  # atno 6907 bound_to 6896
  152.4672  133.7946  159.6931 H   0  0  0  0  0  0  0  0  0  0  0  0  # atno 6908 bound_to 6896
  150.8662  133.7507  159.3001 H   0  0  0  0  0  0  0  0  0  0  0  0  # atno 6909 bound_to 6896
  145.9235  139.3749  143.0464 H   0  0  0  0  0  0  0  0  0  0  0  0  # atno 7974 bound_to 7965
  156.0019  140.1222  157.0539 H   0  0  0  0  0  0  0  0  0  0  0  0  # atno 8008 bound_to 7997
  154.4245  140.1105  156.5778 H   0  0  0  0  0  0  0  0  0  0  0  0  # atno 8009 bound_to 7997
  155.6200  140.3472  155.4651 H   0  0  0  0  0  0  0  0  0  0  0  0  # atno 8010 bound_to 7997
  140.7281  143.4647  151.0330 H   0  0  0  0  0  0  0  0  0  0  0  0  # atno 10167 bound_to 10162
  156.2662  130.7239  151.1190 H   0  0  0  0  0  0  0  0  0  0  0  0  # atno 10718 bound_to 10713
  152.9796  135.5776  154.4753 H   0  0  0  0  0  0  0  0  0  0  0  0  # atno 10763 bound_to 10752
  154.4310  135.2773  155.1914 H   0  0  0  0  0  0  0  0  0  0  0  0  # atno 10764 bound_to 10752
  154.3622  135.6186  153.5750 H   0  0  0  0  0  0  0  0  0  0  0  0  # atno 10765 bound_to 10752
  140.1453  134.4530  155.8420 H   0  0  0  0  0  0  0  0  0  0  0  0  # atno 11005 bound_to 11000
  145.8518  140.9524  143.0745 LP  0  0  0  0  0  0  0  0  0  0  0  0  # atno 17320 bound_to 7965
  144.6756  140.0417  143.7481 LP  0  0  0  0  0  0  0  0  0  0  0  0  # atno 17321 bound_to 7965
  139.8335  143.7660  152.3180 LP  0  0  0  0  0  0  0  0  0  0  0  0  # atno 17342 bound_to 10162
  139.7783  144.7453  151.0124 LP  0  0  0  0  0  0  0  0  0  0  0  0  # atno 17343 bound_to 10162
  157.7268  131.0643  150.5893 LP  0  0  0  0  0  0  0  0  0  0  0  0  # atno 17370 bound_to 10713
  156.5985  130.4348  149.5907 LP  0  0  0  0  0  0  0  0  0  0  0  0  # atno 17371 bound_to 10713
  141.2192  133.6850  156.7323 LP  0  0  0  0  0  0  0  0  0  0  0  0  # atno 17394 bound_to 11000
  140.2671  134.8421  157.3813 LP  0  0  0  0  0  0  0  0  0  0  0  0  # atno 17395 bound_to 11000

$$$$
