AV-unprocessed.smi:2061|AV-procd|sdf|8377|dock10
  -GOLD-   2272011 53D 1   1.00000     0.00000
 Structure written by MMmdl.
 44 45  0  0  0  0  0  0  0  0  2 V2000
  146.8965  136.2752  162.9790 C   0  0  0  0  0  0  0  0  0  0  0  0
  147.5384  136.1312  161.6416 C   0  0  0  0  0  0  0  0  0  0  0  0
  147.7662  135.0539  160.8332 C   0  0  0  0  0  0  0  0  0  0  0  0
  148.4177  135.6255  159.7059 C   0  0  0  0  0  0  0  0  0  0  0  0
  148.8665  134.9593  158.6312 N   0  5  0  0  0  0  0  0  0  0  0  0
  148.0661  134.0759  157.9912 C   0  0  0  0  0  0  0  0  0  0  0  0
  147.1332  133.4418  158.4891 O   0  0  0  0  0  0  0  0  0  0  0  0
  148.3771  133.9124  156.6967 N   0  0  0  0  0  0  0  0  0  0  0  0
  147.7138  133.0238  155.7440 C   0  0  0  0  0  0  0  0  0  0  0  0
  147.9789  133.4184  154.2631 C   0  0  1  0  0  0  0  0  0  0  0  0
  149.4151  132.9824  153.8744 C   0  0  0  0  0  0  0  0  0  0  0  0
  146.9509  132.9049  153.3253 N   0  0  0  0  0  0  0  0  0  0  0  0
  147.0008  131.4471  153.1799 C   0  0  0  0  0  0  0  0  0  0  0  0
  145.9273  130.9013  152.2209 C   0  0  2  0  0  0  0  0  0  0  0  0
  146.0551  129.3879  152.0174 C   0  0  0  0  0  0  0  0  0  0  0  0
  146.0596  131.5280  150.9499 O   0  0  0  0  0  0  0  0  0  0  0  0
  146.0227  132.9525  150.9824 C   0  0  1  0  0  0  0  0  0  0  0  0
  144.6004  133.4853  151.2279 C   0  0  0  0  0  0  0  0  0  0  0  0
  147.0596  133.4953  151.9860 C   0  0  0  0  0  0  0  0  0  0  0  0
  148.5835  136.9319  159.8264 N   0  0  0  0  0  0  0  0  0  0  0  0
  148.0179  137.2649  161.0631 O   0  0  0  0  0  0  0  0  0  0  0  0
  147.5323  135.8543  163.7578 H   0  0  0  0  0  0  0  0  0  0  0  0
  145.9390  135.7551  163.0057 H   0  0  0  0  0  0  0  0  0  0  0  0
  146.7171  137.3238  163.2180 H   0  0  0  0  0  0  0  0  0  0  0  0
  147.5068  134.0221  161.0161 H   0  0  0  0  0  0  0  0  0  0  0  0
  149.1500  134.4559  156.3417 H   0  0  0  0  0  0  0  0  0  0  0  0
  147.9822  131.9789  155.9080 H   0  0  0  0  0  0  0  0  0  0  0  0
  146.6584  133.1096  155.9935 H   0  0  0  0  0  0  0  0  0  0  0  0
  147.9571  134.5084  154.2184 H   0  0  0  0  0  0  0  0  0  0  0  0
  150.1627  133.3370  154.5824 H   0  0  0  0  0  0  0  0  0  0  0  0
  149.7299  133.3881  152.9146 H   0  0  0  0  0  0  0  0  0  0  0  0
  149.4979  131.8962  153.8284 H   0  0  0  0  0  0  0  0  0  0  0  0
  147.9907  131.1455  152.8338 H   0  0  0  0  0  0  0  0  0  0  0  0
  146.8393  130.9601  154.1395 H   0  0  0  0  0  0  0  0  0  0  0  0
  144.9369  131.1079  152.6275 H   0  0  0  0  0  0  0  0  0  0  0  0
  145.9423  128.8538  152.9613 H   0  0  0  0  0  0  0  0  0  0  0  0
  147.0273  129.1265  151.5988 H   0  0  0  0  0  0  0  0  0  0  0  0
  145.2887  129.0203  151.3344 H   0  0  0  0  0  0  0  0  0  0  0  0
  146.3171  133.2865  149.9870 H   0  0  0  0  0  0  0  0  0  0  0  0
  144.5715  134.5705  151.1279 H   0  0  0  0  0  0  0  0  0  0  0  0
  144.2376  133.2428  152.2264 H   0  0  0  0  0  0  0  0  0  0  0  0
  143.8986  133.0684  150.5054 H   0  0  0  0  0  0  0  0  0  0  0  0
  146.9293  134.5748  152.0235 H   0  0  0  0  0  0  0  0  0  0  0  0
  148.0610  133.3142  151.5925 H   0  0  0  0  0  0  0  0  0  0  0  0
  1  2  1  0  0  0  0
  1 22  1  0  0  0  0
  1 23  1  0  0  0  0
  1 24  1  0  0  0  0
  2 21  1  0  0  0  0
  2  3  2  0  0  0  0
  3  4  1  0  0  0  0
  3 25  1  0  0  0  0
  4  5  1  0  0  0  0
  4 20  2  0  0  0  0
  5  6  1  0  0  0  0
  6  7  2  0  0  0  0
  6  8  1  0  0  0  0
  8  9  1  0  0  0  0
  8 26  1  0  0  0  0
  9 10  1  0  0  0  0
  9 27  1  0  0  0  0
  9 28  1  0  0  0  0
 10 11  1  0  0  0  0
 10 12  1  0  0  0  0
 10 29  1  0  0  0  0
 11 30  1  0  0  0  0
 11 31  1  0  0  0  0
 11 32  1  0  0  0  0
 12 19  1  0  0  0  0
 12 13  1  0  0  0  0
 13 14  1  0  0  0  0
 13 33  1  0  0  0  0
 13 34  1  0  0  0  0
 14 15  1  0  0  0  0
 14 16  1  0  0  0  0
 14 35  1  0  0  0  0
 15 36  1  0  0  0  0
 15 37  1  0  0  0  0
 15 38  1  0  0  0  0
 16 17  1  0  0  0  0
 17 18  1  0  0  0  0
 17 19  1  0  0  0  0
 17 39  1  0  0  0  0
 18 40  1  0  0  0  0
 18 41  1  0  0  0  0
 18 42  1  0  0  0  0
 19 43  1  0  0  0  0
 19 44  1  0  0  0  0
 20 21  1  0  0  0  0
M  CHG  1   5  -1
M  END
> <s_m_source_file>
AV-unprocessed.smi

> <i_m_source_file_index>
2061

> <i_lp_mmshare_version>
43012

> <i_f3d_flags>
0

> <s_epik_input>
W0NIM11jMVtjSF1jKG5vMSlbTkhdQyg9TylbTkhdW0NIMl1bQ0BIXShbQ0gzXSlOMltDSDJdW0NAQEhdKFtDSDNdKU9bQ0BASF0oW0NIM10pW0NIMl0y

> <s_epik_cmdline>
J2VwaWtfcHl0aG9uJywgJy1waCcsICc3LjAnLCAnLXRuJywgJzgnLCAnLW1hJywgJzIwMCcsICctbWV0YWxfYmluZGluZycsICctaW1hZScsICc8aW5maWxlLm1hZT4nLCAnLW9tYWUnLCAnPG91dGZpbGUubWFlPic=

> <r_epik_Ionization_Penalty>
6.88367

> <r_epik_Ionization_Penalty_Charging>
6.57198

> <r_epik_Ionization_Penalty_Neutral>
0.311681

> <r_epik_State_Penalty>
6.77619

> <r_epik_Charging_Adjusted_Penalty>
13.3482

> <i_epik_Tot_Q>
-1

> <i_epik_Tot_abs_Q>
1

> <r_epik_Metal_State_Penalty>
2.70524

> <b_epik_Metal_Only>
1

> <s_lp_Force_Field>
OPLS_2005

> <r_lp_Energy>
24.2039

> <b_lp_Chiralities_Consistent>
1

> <s_lp_Variant>
AV-unprocessed.smi:2061-18

> <Gold.Version>
5.8.1

> <Gold.Id.Protein>
6NUR|6NUR_protein|mol2

> <Gold.PLP.Fitness>
40.7576

> <Gold.PLP.PLP>
-31.8791

> <Gold.PLP.part.hbond>
-3.2153

> <Gold.PLP.part.metal>
0.0000

> <Gold.PLP.part.buried>
-4.6514

> <Gold.PLP.part.nonpolar>
-24.8041

> <Gold.PLP.part.repulsive>
0.6078

> <Gold.PLP.ligand.clash>
0.0000

> <Gold.PLP.ligand.torsion>
0.9527

> <Gold.PLP.Chemscore.Hbond>
3.5744

> <Gold.PLP.Chemscore.CHOScore>
0.0000

> <Gold.PLP.Chemscore.Metal>
0.0000

> <Gold.Chemscore.Hbonds>
donor molecule, donor type, donor heavy atom, donor atom, acceptor molecule, acceptor atom, score
      P1  H  6896  6909       L1     5  1.56
      P1  H  6931  6943       L1    21  0.93
      P1  H  6934  6947       L1    21  0.70

> <Gold.PLP.Chemscore.Internal.Correction>
0.0606

> <Gold.Rescore>
     Score         DG    S(hbond)    S(metal)    S(lipo)     H(rot)  DE(clash)    DE(int)     intcor
     13.87     -16.06       1.49        0.00      81.16       1.52       0.01       2.18       ----

> <Gold.Chemscore.Fitness>
13.8738

> <Gold.Chemscore.DG>
-16.0578

> <Gold.Chemscore.ZeroCoef>
-5.4800

> <Gold.Chemscore.Hbond>
1.4884

> <Gold.Chemscore.Metal>
0.0000

> <Gold.Chemscore.Lipo>
81.1560

> <Gold.Chemscore.Internal_Hbond>
0.0000

> <Gold.Chemscore.DEClash>
0.0089

> <Gold.Chemscore.DEInternal>
2.1751

> <Gold.Chemscore.Rot>
1.5190

> <Gold.Chemscore.Internal.Correction>
   9.000000E+99

> <Gold.Chemscore.Hbonds>
donor molecule, donor type, donor heavy atom, donor atom, acceptor molecule, acceptor atom, score
      P1  H  6896  6909       L1     5  0.22
      P1  H  6931  6943       L1    21  0.66
      P1  H  6934  6947       L1    21  0.49

> <Gold.Chemscore.Hbond.Weighted>
-4.9712

> <Gold.Chemscore.Metal.Weighted>
-0.0000

> <Gold.Chemscore.Lipo.Weighted>
-9.4953

> <Gold.Chemscore.Internal_Hbond.Weighted>
0.0000

> <Gold.Chemscore.DEClash.Weighted>
0.0089

> <Gold.Chemscore.DEInternal.Weighted>
2.1751

> <Gold.Chemscore.Rot.Weighted>
3.8886

> <Gold.Chemscore.Internal.Correction.Weighted>
   9.000000E+99

> <Gold.Protein.RotatedTorsions>
[ 6907 6896 6895 6894 ] final   17.91 input  -60.11 | X-H torsion
[ 7974 7965 7964 7962 ] final -166.48 input  175.53 | X-H torsion
[ 8008 7997 7996 7995 ] final  -83.02 input   59.86 | X-H torsion
[ 10167 10162 10161 10158 ] final   -5.28 input  -65.29 | X-H torsion
[ 10718 10713 10712 10709 ] final   13.16 input   66.30 | X-H torsion
[ 10763 10752 10751 10750 ] final  -21.61 input  -60.55 | X-H torsion
[ 11005 11000 10999 10996 ] final -133.10 input  -57.11 | X-H torsion

> <Gold.Protein.ActiveResidues>
 VAL166  LYS551  ARG553  GLY616  TRP617  ASP618  TYR619  PRO620  LYS621  CYS622 
 ASP623  PHE694  ASN695  SER759  ASP760  ASP761  ALA762  ILE779  LEU786  VAL792 
 PHE793  MET794  SER795  GLU796  ALA797  LYS798  CYS799  TRP800  GLU811  SER814 

> <Gold.Protein.RotatedAtoms>
  151.8571  135.0537  160.0465 H   0  0  0  0  0  0  0  0  0  0  0  0  # atno 6907 bound_to 6896
  152.2692  133.5362  159.5437 H   0  0  0  0  0  0  0  0  0  0  0  0  # atno 6908 bound_to 6896
  150.7145  134.0638  159.3883 H   0  0  0  0  0  0  0  0  0  0  0  0  # atno 6909 bound_to 6896
  144.7244  140.2660  143.6258 H   0  0  0  0  0  0  0  0  0  0  0  0  # atno 7974 bound_to 7965
  154.6146  140.0625  156.9538 H   0  0  0  0  0  0  0  0  0  0  0  0  # atno 8008 bound_to 7997
  155.1916  140.3307  155.4339 H   0  0  0  0  0  0  0  0  0  0  0  0  # atno 8009 bound_to 7997
  156.2397  140.1880  156.7006 H   0  0  0  0  0  0  0  0  0  0  0  0  # atno 8010 bound_to 7997
  140.6957  143.6327  150.8508 H   0  0  0  0  0  0  0  0  0  0  0  0  # atno 10167 bound_to 10162
  157.0206  130.6153  149.5720 H   0  0  0  0  0  0  0  0  0  0  0  0  # atno 10718 bound_to 10713
  153.6388  135.6986  153.5249 H   0  0  0  0  0  0  0  0  0  0  0  0  # atno 10763 bound_to 10752
  153.2799  135.4189  155.1068 H   0  0  0  0  0  0  0  0  0  0  0  0  # atno 10764 bound_to 10752
  154.8504  135.3599  154.5932 H   0  0  0  0  0  0  0  0  0  0  0  0  # atno 10765 bound_to 10752
  140.9111  134.1567  157.4388 H   0  0  0  0  0  0  0  0  0  0  0  0  # atno 11005 bound_to 11000
  145.8089  139.1995  143.2004 LP  0  0  0  0  0  0  0  0  0  0  0  0  # atno 17320 bound_to 7965
  146.0613  140.7968  142.9733 LP  0  0  0  0  0  0  0  0  0  0  0  0  # atno 17321 bound_to 7965
  140.0044  143.5709  152.2863 LP  0  0  0  0  0  0  0  0  0  0  0  0  # atno 17342 bound_to 10162
  139.6410  144.7654  151.2338 LP  0  0  0  0  0  0  0  0  0  0  0  0  # atno 17343 bound_to 10162
  156.0103  130.5194  150.7968 LP  0  0  0  0  0  0  0  0  0  0  0  0  # atno 17370 bound_to 10713
  157.5252  131.0934  151.0027 LP  0  0  0  0  0  0  0  0  0  0  0  0  # atno 17371 bound_to 10713
  139.8757  134.9936  156.5652 LP  0  0  0  0  0  0  0  0  0  0  0  0  # atno 17394 bound_to 11000
  140.8109  133.8430  155.8809 LP  0  0  0  0  0  0  0  0  0  0  0  0  # atno 17395 bound_to 11000

$$$$
