AV-unprocessed.smi:49|AV-procd|sdf|477|dock4
  -GOLD-   2262016343D 1   1.00000     0.00000
 Structure written by MMmdl.
 27 28  0  0  0  0  0  0  0  0  1 V2000
  152.6214  142.5550  161.5664 C   0  0  0  0  0  0  0  0  0  0  0  0
  153.1454  142.9086  160.1700 C   0  0  0  0  0  0  0  0  0  0  0  0
  152.0739  142.8480  159.1321 C   0  0  0  0  0  0  0  0  0  0  0  0
  151.5372  141.6701  158.6929 N   0  0  0  0  0  0  0  0  0  0  0  0
  150.6906  142.1240  157.7725 C   0  0  0  0  0  0  0  0  0  0  0  0
  149.7762  141.2840  156.9354 C   0  0  2  0  0  0  0  0  0  0  0  0
  150.5249  140.2377  156.0977 C   0  0  0  0  0  0  0  0  0  0  0  0
  149.6168  140.0654  154.8888 C   0  0  2  0  0  0  0  0  0  0  0  0
  150.2912  139.5502  153.7607 O   0  0  0  0  0  0  0  0  0  0  0  0
  149.1142  141.4884  154.6654 C   0  0  0  0  0  0  0  0  0  0  0  0
  148.9627  142.0678  155.9979 N   0  0  0  0  0  0  0  0  0  0  0  0
  150.7210  143.4544  157.6679 N   0  0  0  0  0  0  0  0  0  0  0  0
  151.6252  143.9525  158.5375 N   0  0  0  0  0  0  0  0  0  0  0  0
  149.0982  140.7544  157.6063 H   0  0  0  0  0  0  0  0  0  0  0  0
  148.7809  139.4112  155.1412 H   0  0  0  0  0  0  0  0  0  0  0  0
  150.1783  144.0344  157.0443 H   0  0  0  0  0  0  0  0  0  0  0  0
  153.4211  142.6066  162.3056 H   0  0  0  0  0  0  0  0  0  0  0  0
  152.2111  141.5451  161.5887 H   0  0  0  0  0  0  0  0  0  0  0  0
  151.8353  143.2438  161.8774 H   0  0  0  0  0  0  0  0  0  0  0  0
  153.5751  143.9110  160.1796 H   0  0  0  0  0  0  0  0  0  0  0  0
  153.9529  142.2292  159.8940 H   0  0  0  0  0  0  0  0  0  0  0  0
  151.4876  140.6367  155.7722 H   0  0  0  0  0  0  0  0  0  0  0  0
  150.7127  139.3102  156.6392 H   0  0  0  0  0  0  0  0  0  0  0  0
  149.7233  139.6270  153.0094 H   0  0  0  0  0  0  0  0  0  0  0  0
  149.8603  142.0583  154.1097 H   0  0  0  0  0  0  0  0  0  0  0  0
  148.1840  141.5208  154.0976 H   0  0  0  0  0  0  0  0  0  0  0  0
  147.9894  141.9904  156.2745 H   0  0  0  0  0  0  0  0  0  0  0  0
  1  2  1  0  0  0  0
  1 17  1  0  0  0  0
  1 18  1  0  0  0  0
  1 19  1  0  0  0  0
  2 20  1  0  0  0  0
  2 21  1  0  0  0  0
  2  3  1  0  0  0  0
  3  4  1  0  0  0  0
  3 13  2  0  0  0  0
  4  5  2  0  0  0  0
  5  6  1  0  0  0  0
  5 12  1  0  0  0  0
  6 14  1  0  0  0  0
  6 11  1  0  0  0  0
  6  7  1  0  0  0  0
  7  8  1  0  0  0  0
  7 22  1  0  0  0  0
  7 23  1  0  0  0  0
  8 15  1  0  0  0  0
  8  9  1  0  0  0  0
  8 10  1  0  0  0  0
  9 24  1  0  0  0  0
 10 11  1  0  0  0  0
 10 25  1  0  0  0  0
 10 26  1  0  0  0  0
 11 27  1  0  0  0  0
 12 13  1  0  0  0  0
 12 16  1  0  0  0  0
M  END
> <s_m_source_file>
AV-unprocessed.smi

> <i_m_source_file_index>
49

> <i_lp_mmshare_version>
43012

> <i_f3d_flags>
0

> <s_epik_input>
W0NIM11bQ0gyXWMxbmMobltuSF0xKVtDQEBIXTJbQ0gyXVtDQEBIXShbT0hdKVtDSDJdW05IXTI=

> <s_epik_cmdline>
J2VwaWtfcHl0aG9uJywgJy1waCcsICc3LjAnLCAnLXRuJywgJzgnLCAnLW1hJywgJzIwMCcsICctbWV0YWxfYmluZGluZycsICctaW1hZScsICc8aW5maWxlLm1hZT4nLCAnLW9tYWUnLCAnPG91dGZpbGUubWFlPic=

> <r_epik_Ionization_Penalty>
1.31544

> <r_epik_Ionization_Penalty_Charging>
0

> <r_epik_Ionization_Penalty_Neutral>
1.31544

> <r_epik_State_Penalty>
2.06074

> <r_epik_Charging_Adjusted_Penalty>
2.06074

> <i_epik_Tot_Q>
0

> <i_epik_Tot_abs_Q>
0

> <r_epik_Metal_State_Penalty>
2.32913

> <b_epik_Metal_Only>
0

> <s_lp_Force_Field>
OPLS_2005

> <r_lp_Energy>
18.1318

> <b_lp_Chiralities_Consistent>
1

> <s_lp_Variant>
AV-unprocessed.smi:49-15

> <Gold.Version>
5.8.1

> <Gold.Id.Protein>
6NUR|6NUR_protein|mol2

> <Gold.PLP.Fitness>
35.9720

> <Gold.PLP.PLP>
-27.2191

> <Gold.PLP.part.hbond>
-4.0000

> <Gold.PLP.part.metal>
0.0000

> <Gold.PLP.part.buried>
-3.9801

> <Gold.PLP.part.nonpolar>
-20.2375

> <Gold.PLP.part.repulsive>
0.0865

> <Gold.PLP.ligand.clash>
0.0000

> <Gold.PLP.ligand.torsion>
0.1029

> <Gold.PLP.Chemscore.Hbond>
2.9840

> <Gold.PLP.Chemscore.CHOScore>
0.0000

> <Gold.PLP.Chemscore.Metal>
0.0000

> <Gold.Chemscore.Hbonds>
donor molecule, donor type, donor heavy atom, donor atom, acceptor molecule, acceptor atom, score
      L1  H     9    24       P1  7957  0.91
      L1  H    12    16       P1  8028  1.00
      P1  H  7989  7998       L1     9  0.96

> <Gold.PLP.Chemscore.Internal.Correction>
0.0068

> <Gold.Rescore>
     Score         DG    S(hbond)    S(metal)    S(lipo)     H(rot)  DE(clash)    DE(int)     intcor
     13.14     -13.32       2.01        0.00      50.15       1.86       0.06       0.12       ----

> <Gold.Chemscore.Fitness>
13.1425

> <Gold.Chemscore.DG>
-13.3247

> <Gold.Chemscore.ZeroCoef>
-5.4800

> <Gold.Chemscore.Hbond>
2.0143

> <Gold.Chemscore.Metal>
0.0000

> <Gold.Chemscore.Lipo>
50.1512

> <Gold.Chemscore.Internal_Hbond>
0.0000

> <Gold.Chemscore.DEClash>
0.0605

> <Gold.Chemscore.DEInternal>
0.1217

> <Gold.Chemscore.Rot>
1.8558

> <Gold.Chemscore.Internal.Correction>
   9.000000E+99

> <Gold.Chemscore.Hbonds>
donor molecule, donor type, donor heavy atom, donor atom, acceptor molecule, acceptor atom, score
      L1  H     9    24       P1  7957  0.88
      L1  H    12    16       P1  8028  0.91
      P1  H  7989  7998       L1     9  0.14

> <Gold.Chemscore.Hbond.Weighted>
-6.7277

> <Gold.Chemscore.Metal.Weighted>
-0.0000

> <Gold.Chemscore.Lipo.Weighted>
-5.8677

> <Gold.Chemscore.Internal_Hbond.Weighted>
0.0000

> <Gold.Chemscore.DEClash.Weighted>
0.0605

> <Gold.Chemscore.DEInternal.Weighted>
0.1217

> <Gold.Chemscore.Rot.Weighted>
4.7507

> <Gold.Chemscore.Internal.Correction.Weighted>
   9.000000E+99

> <Gold.Protein.RotatedTorsions>
[ 6907 6896 6895 6894 ] final  -53.84 input  -60.11 | X-H torsion
[ 7974 7965 7964 7962 ] final   18.82 input  175.53 | X-H torsion
[ 8008 7997 7996 7995 ] final   33.29 input   59.86 | X-H torsion
[ 10167 10162 10161 10158 ] final  152.72 input  -65.29 | X-H torsion
[ 10718 10713 10712 10709 ] final  -67.27 input   66.30 | X-H torsion
[ 10763 10752 10751 10750 ] final  105.40 input  -60.55 | X-H torsion
[ 11005 11000 10999 10996 ] final  -82.71 input  -57.11 | X-H torsion

> <Gold.Protein.ActiveResidues>
 VAL166  LYS551  ARG553  GLY616  TRP617  ASP618  TYR619  PRO620  LYS621  CYS622 
 ASP623  PHE694  ASN695  SER759  ASP760  ASP761  ALA762  ILE779  LEU786  VAL792 
 PHE793  MET794  SER795  GLU796  ALA797  LYS798  CYS799  TRP800  GLU811  SER814 

> <Gold.Protein.RotatedAtoms>
  150.8391  134.7675  159.6916 H   0  0  0  0  0  0  0  0  0  0  0  0  # atno 6907 bound_to 6896
  152.4482  134.5447  159.9859 H   0  0  0  0  0  0  0  0  0  0  0  0  # atno 6908 bound_to 6896
  151.5591  133.3368  159.3003 H   0  0  0  0  0  0  0  0  0  0  0  0  # atno 6909 bound_to 6896
  146.2171  139.8402  142.8642 H   0  0  0  0  0  0  0  0  0  0  0  0  # atno 7974 bound_to 7965
  155.1362  140.3262  155.4462 H   0  0  0  0  0  0  0  0  0  0  0  0  # atno 8008 bound_to 7997
  156.2619  140.2001  156.6429 H   0  0  0  0  0  0  0  0  0  0  0  0  # atno 8009 bound_to 7997
  154.6576  140.0551  157.0013 H   0  0  0  0  0  0  0  0  0  0  0  0  # atno 8010 bound_to 7997
  139.4831  144.5334  151.7685 H   0  0  0  0  0  0  0  0  0  0  0  0  # atno 10167 bound_to 10162
  156.0566  130.4275  150.1831 H   0  0  0  0  0  0  0  0  0  0  0  0  # atno 10718 bound_to 10713
  153.3789  135.3911  155.1842 H   0  0  0  0  0  0  0  0  0  0  0  0  # atno 10763 bound_to 10752
  154.8705  135.3720  154.4882 H   0  0  0  0  0  0  0  0  0  0  0  0  # atno 10764 bound_to 10752
  153.5357  135.7085  153.5722 H   0  0  0  0  0  0  0  0  0  0  0  0  # atno 10765 bound_to 10752
  141.1662  133.7258  156.8611 H   0  0  0  0  0  0  0  0  0  0  0  0  # atno 11005 bound_to 11000
  145.2906  141.0166  143.3665 LP  0  0  0  0  0  0  0  0  0  0  0  0  # atno 17320 bound_to 7965
  144.9080  139.4565  143.6601 LP  0  0  0  0  0  0  0  0  0  0  0  0  # atno 17321 bound_to 7965
  140.4863  144.1376  150.5941 LP  0  0  0  0  0  0  0  0  0  0  0  0  # atno 17342 bound_to 10162
  140.4221  143.2607  151.9702 LP  0  0  0  0  0  0  0  0  0  0  0  0  # atno 17343 bound_to 10162
  156.9906  130.9892  151.3415 LP  0  0  0  0  0  0  0  0  0  0  0  0  # atno 17370 bound_to 10713
  157.5541  130.8202  149.8182 LP  0  0  0  0  0  0  0  0  0  0  0  0  # atno 17371 bound_to 10713
  140.1847  134.9008  157.2990 LP  0  0  0  0  0  0  0  0  0  0  0  0  # atno 17394 bound_to 11000
  140.2356  134.3857  155.7503 LP  0  0  0  0  0  0  0  0  0  0  0  0  # atno 17395 bound_to 11000

$$$$
