AV-unprocessed.smi:109|AV-procd|sdf|1043|dock10
  -GOLD-   2262018 83D 1   1.00000     0.00000
 Structure written by MMmdl.
 58 61  0  0  0  0  0  0  0  0  1 V2000
  149.0354  141.2052  153.4441 O   0  0  0  0  0  0  0  0  0  0  0  0
  149.1480  140.6919  154.7539 C   0  0  0  0  0  0  0  0  0  0  0  0
  149.7065  141.7745  155.6930 C   0  0  0  0  0  0  0  0  0  0  0  0
  150.4056  141.2202  156.9591 C   0  0  2  0  0  0  0  0  0  0  0  0
  149.5162  140.2694  157.6300 N   0  0  0  0  0  0  0  0  0  0  0  0
  149.9725  139.1128  158.1604 C   0  0  0  0  0  0  0  0  0  0  0  0
  149.1489  138.2590  158.8223 N   0  0  0  0  0  0  0  0  0  0  0  0
  149.6360  137.1306  159.3468 C   0  0  0  0  0  0  0  0  0  0  0  0
  150.8893  136.6711  159.3204 N   0  0  0  0  0  0  0  0  0  0  0  0
  151.7194  137.5223  158.6500 C   0  0  0  0  0  0  0  0  0  0  0  0
  151.3405  138.7547  158.0499 C   0  0  0  0  0  0  0  0  0  0  0  0
  152.4485  139.3528  157.4663 N   0  0  0  0  0  0  0  0  0  0  0  0
  153.4228  138.5190  157.7122 C   0  0  0  0  0  0  0  0  0  0  0  0
  153.0700  137.3810  158.4117 N   0  0  0  0  0  0  0  0  0  0  0  0
  153.9190  136.2383  158.8938 C   0  0  2  0  0  0  0  0  0  0  0  0
  155.1097  136.7652  159.3839 O   0  0  0  0  0  0  0  0  0  0  0  0
  156.0404  136.8855  158.3183 C   0  0  1  0  0  0  0  0  0  0  0  0
  157.4641  136.9628  158.8894 C   0  0  0  0  0  0  0  0  0  0  0  0
  158.4064  137.0754  157.8446 O   0  0  0  0  0  0  0  0  0  0  0  0
  155.7593  135.6478  157.4480 C   0  0  2  0  0  0  0  0  0  0  0  0
  155.9163  135.9692  156.0801 O   0  0  0  0  0  0  0  0  0  0  0  0
  154.3009  135.2829  157.7508 C   0  0  1  0  0  0  0  0  0  0  0  0
  154.1978  133.9350  158.1625 O   0  0  0  0  0  0  0  0  0  0  0  0
  150.8303  142.3300  157.9646 C   0  0  0  0  0  0  0  0  0  0  0  0
  151.4874  143.5529  157.2758 C   0  0  0  0  0  0  0  0  0  0  0  0
  151.9315  144.6278  158.2821 C   0  0  0  0  0  0  0  0  0  0  0  0
  152.8788  144.0514  159.3411 C   0  0  0  0  0  0  0  0  0  0  0  0
  152.2311  142.8564  160.0498 C   0  0  0  0  0  0  0  0  0  0  0  0
  151.8019  141.7797  159.0413 C   0  0  0  0  0  0  0  0  0  0  0  0
  153.3297  135.7684  159.6820 H   0  0  0  0  0  0  0  0  0  0  0  0
  155.8087  137.8057  157.7795 H   0  0  0  0  0  0  0  0  0  0  0  0
  156.4305  134.8285  157.7111 H   0  0  0  0  0  0  0  0  0  0  0  0
  153.6348  135.4213  156.8982 H   0  0  0  0  0  0  0  0  0  0  0  0
  149.0495  140.4818  152.8365 H   0  0  0  0  0  0  0  0  0  0  0  0
  148.1635  140.3549  155.0785 H   0  0  0  0  0  0  0  0  0  0  0  0
  149.8046  139.8217  154.7376 H   0  0  0  0  0  0  0  0  0  0  0  0
  150.4103  142.3631  155.1073 H   0  0  0  0  0  0  0  0  0  0  0  0
  148.9065  142.4559  155.9855 H   0  0  0  0  0  0  0  0  0  0  0  0
  151.3231  140.7240  156.6429 H   0  0  0  0  0  0  0  0  0  0  0  0
  148.5783  140.6039  157.7982 H   0  0  0  0  0  0  0  0  0  0  0  0
  148.9191  136.5068  159.8601 H   0  0  0  0  0  0  0  0  0  0  0  0
  154.4305  138.7242  157.3841 H   0  0  0  0  0  0  0  0  0  0  0  0
  157.5617  137.8395  159.5301 H   0  0  0  0  0  0  0  0  0  0  0  0
  157.6921  136.0893  159.5008 H   0  0  0  0  0  0  0  0  0  0  0  0
  159.1611  137.5425  158.1690 H   0  0  0  0  0  0  0  0  0  0  0  0
  156.8274  135.8751  155.8498 H   0  0  0  0  0  0  0  0  0  0  0  0
  155.0695  133.5800  158.2484 H   0  0  0  0  0  0  0  0  0  0  0  0
  149.9320  142.6808  158.4756 H   0  0  0  0  0  0  0  0  0  0  0  0
  152.3468  143.2258  156.6889 H   0  0  0  0  0  0  0  0  0  0  0  0
  150.7981  144.0262  156.5791 H   0  0  0  0  0  0  0  0  0  0  0  0
  152.4206  145.4480  157.7558 H   0  0  0  0  0  0  0  0  0  0  0  0
  151.0543  145.0541  158.7705 H   0  0  0  0  0  0  0  0  0  0  0  0
  153.8118  143.7390  158.8704 H   0  0  0  0  0  0  0  0  0  0  0  0
  153.1392  144.8213  160.0681 H   0  0  0  0  0  0  0  0  0  0  0  0
  152.9282  142.4313  160.7724 H   0  0  0  0  0  0  0  0  0  0  0  0
  151.3628  143.1923  160.6181 H   0  0  0  0  0  0  0  0  0  0  0  0
  151.3441  140.9610  159.5966 H   0  0  0  0  0  0  0  0  0  0  0  0
  152.6863  141.3626  158.5575 H   0  0  0  0  0  0  0  0  0  0  0  0
  1  2  1  0  0  0  0
  1 34  1  0  0  0  0
  2  3  1  0  0  0  0
  2 35  1  0  0  0  0
  2 36  1  0  0  0  0
  3  4  1  0  0  0  0
  3 37  1  0  0  0  0
  3 38  1  0  0  0  0
  4  5  1  0  0  0  0
  4 24  1  0  0  0  0
  4 39  1  0  0  0  0
  5  6  1  0  0  0  0
  5 40  1  0  0  0  0
  6 11  1  0  0  0  0
  6  7  2  0  0  0  0
  7  8  1  0  0  0  0
  8  9  2  0  0  0  0
  8 41  1  0  0  0  0
  9 10  1  0  0  0  0
 10 14  1  0  0  0  0
 10 11  2  0  0  0  0
 11 12  1  0  0  0  0
 12 13  2  0  0  0  0
 13 14  1  0  0  0  0
 13 42  1  0  0  0  0
 14 15  1  0  0  0  0
 15 30  1  0  0  0  0
 15 22  1  0  0  0  0
 15 16  1  0  0  0  0
 16 17  1  0  0  0  0
 17 31  1  0  0  0  0
 17 18  1  0  0  0  0
 17 20  1  0  0  0  0
 18 19  1  0  0  0  0
 18 43  1  0  0  0  0
 18 44  1  0  0  0  0
 19 45  1  0  0  0  0
 20 32  1  0  0  0  0
 20 21  1  0  0  0  0
 20 22  1  0  0  0  0
 21 46  1  0  0  0  0
 22 33  1  0  0  0  0
 22 23  1  0  0  0  0
 23 47  1  0  0  0  0
 24 29  1  0  0  0  0
 24 25  1  0  0  0  0
 24 48  1  0  0  0  0
 25 26  1  0  0  0  0
 25 49  1  0  0  0  0
 25 50  1  0  0  0  0
 26 27  1  0  0  0  0
 26 51  1  0  0  0  0
 26 52  1  0  0  0  0
 27 28  1  0  0  0  0
 27 53  1  0  0  0  0
 27 54  1  0  0  0  0
 28 29  1  0  0  0  0
 28 55  1  0  0  0  0
 28 56  1  0  0  0  0
 29 57  1  0  0  0  0
 29 58  1  0  0  0  0
M  END
> <s_m_source_file>
AV-unprocessed.smi

> <i_m_source_file_index>
109

> <i_lp_mmshare_version>
43012

> <i_f3d_flags>
0

> <s_epik_input>
W0NIMl0xW0NIMl1bQ0gyXVtDSDJdW0NIMl1bQ0hdMVtDQEhdKFtDSDJdW0NIMl1bT0hdKVtOSF1jKG5bY0hdbjIpYyhjMjMpbltjSF1uM1tDQEBIXTRPW0NASF0oW0NIMl1bT0hdKVtDQEBIXShbT0hdKVtDQEhdNFtPSF0=

> <s_epik_cmdline>
J2VwaWtfcHl0aG9uJywgJy1waCcsICc3LjAnLCAnLXRuJywgJzgnLCAnLW1hJywgJzIwMCcsICctbWV0YWxfYmluZGluZycsICctaW1hZScsICc8aW5maWxlLm1hZT4nLCAnLW9tYWUnLCAnPG91dGZpbGUubWFlPic=

> <r_lp_tautomer_probability>
1

> <r_epik_Ionization_Penalty>
0.000793976

> <r_epik_Ionization_Penalty_Charging>
0

> <r_epik_Ionization_Penalty_Neutral>
0.000793976

> <r_epik_State_Penalty>
-0

> <r_epik_Charging_Adjusted_Penalty>
0

> <i_epik_Tot_Q>
0

> <i_epik_Tot_abs_Q>
0

> <r_epik_Metal_State_Penalty>
-0

> <b_epik_Metal_Only>
0

> <s_epik_Chemistry_Notes>
This compound contains an acetal/aminal-like group ( X-CH(R)-Y where X, Y are N, S, or O) that may be acid/base labile, releasing an aldehyde.

> <s_lp_Force_Field>
OPLS_2005

> <r_lp_Energy>
47.5794

> <b_lp_Chiralities_Consistent>
1

> <s_lp_Variant>
AV-unprocessed.smi:109-13

> <Gold.Version>
5.8.1

> <Gold.Id.Protein>
6NUR|6NUR_protein|mol2

> <Gold.PLP.Fitness>
53.9653

> <Gold.PLP.PLP>
-41.4103

> <Gold.PLP.part.hbond>
-7.6582

> <Gold.PLP.part.metal>
0.0000

> <Gold.PLP.part.buried>
-3.5563

> <Gold.PLP.part.nonpolar>
-31.5588

> <Gold.PLP.part.repulsive>
0.1121

> <Gold.PLP.ligand.clash>
0.0000

> <Gold.PLP.ligand.torsion>
1.0591

> <Gold.PLP.Chemscore.Hbond>
4.8248

> <Gold.PLP.Chemscore.CHOScore>
0.0000

> <Gold.PLP.Chemscore.Metal>
0.0000

> <Gold.Chemscore.Hbonds>
donor molecule, donor type, donor heavy atom, donor atom, acceptor molecule, acceptor atom, score
      L1  H     1    34       P1  7957  0.82
      P1  H  6896  6907       L1    23  0.39
      P1  H  6896  6909       L1     9  1.00
      P1  H  8011  8017       L1     1  0.80
      P1  H 10752 10764       L1    21  0.88

> <Gold.PLP.Chemscore.Internal.Correction>
0.1988

> <Gold.Rescore>
     Score         DG    S(hbond)    S(metal)    S(lipo)     H(rot)  DE(clash)    DE(int)     intcor
     11.98     -15.83       3.86        0.00      97.98       5.47       1.34       2.51       ----

> <Gold.Chemscore.Fitness>
11.9836

> <Gold.Chemscore.DG>
-15.8288

> <Gold.Chemscore.ZeroCoef>
-5.4800

> <Gold.Chemscore.Hbond>
3.8560

> <Gold.Chemscore.Metal>
0.0000

> <Gold.Chemscore.Lipo>
97.9761

> <Gold.Chemscore.Internal_Hbond>
0.0000

> <Gold.Chemscore.DEClash>
1.3361

> <Gold.Chemscore.DEInternal>
2.5091

> <Gold.Chemscore.Rot>
5.4662

> <Gold.Chemscore.Internal.Correction>
   9.000000E+99

> <Gold.Chemscore.Hbonds>
donor molecule, donor type, donor heavy atom, donor atom, acceptor molecule, acceptor atom, score
      L1  H     1    34       P1  7957  0.81
      P1  H  6896  6907       L1    23  0.14
      P1  H  6896  6909       L1     9  0.98
      P1  H  8011  8017       L1     1  0.11
      P1  H 10752 10764       L1    21  0.43

> <Gold.Chemscore.Hbond.Weighted>
-12.8791

> <Gold.Chemscore.Metal.Weighted>
-0.0000

> <Gold.Chemscore.Lipo.Weighted>
-11.4632

> <Gold.Chemscore.Internal_Hbond.Weighted>
0.0000

> <Gold.Chemscore.DEClash.Weighted>
1.3361

> <Gold.Chemscore.DEInternal.Weighted>
2.5091

> <Gold.Chemscore.Rot.Weighted>
13.9935

> <Gold.Chemscore.Internal.Correction.Weighted>
   9.000000E+99

> <Gold.Protein.RotatedTorsions>
[ 6907 6896 6895 6894 ] final  101.57 input  -60.11 | X-H torsion
[ 7974 7965 7964 7962 ] final   36.48 input  175.53 | X-H torsion
[ 8008 7997 7996 7995 ] final  -70.81 input   59.86 | X-H torsion
[ 10167 10162 10161 10158 ] final  -23.53 input  -65.29 | X-H torsion
[ 10718 10713 10712 10709 ] final   59.45 input   66.30 | X-H torsion
[ 10763 10752 10751 10750 ] final   48.41 input  -60.55 | X-H torsion
[ 11005 11000 10999 10996 ] final   58.04 input  -57.11 | X-H torsion

> <Gold.Protein.ActiveResidues>
 VAL166  LYS551  ARG553  GLY616  TRP617  ASP618  TYR619  PRO620  LYS621  CYS622 
 ASP623  PHE694  ASN695  SER759  ASP760  ASP761  ALA762  ILE779  LEU786  VAL792 
 PHE793  MET794  SER795  GLU796  ALA797  LYS798  CYS799  TRP800  GLU811  SER814 

> <Gold.Protein.RotatedAtoms>
  152.5346  134.0105  159.7936 H   0  0  0  0  0  0  0  0  0  0  0  0  # atno 6907 bound_to 6896
  151.0308  133.5784  159.2668 H   0  0  0  0  0  0  0  0  0  0  0  0  # atno 6908 bound_to 6896
  151.2789  135.0715  159.9215 H   0  0  0  0  0  0  0  0  0  0  0  0  # atno 6909 bound_to 6896
  146.1208  139.6013  142.9291 H   0  0  0  0  0  0  0  0  0  0  0  0  # atno 7974 bound_to 7965
  154.5040  140.0827  156.7856 H   0  0  0  0  0  0  0  0  0  0  0  0  # atno 8008 bound_to 7997
  155.3937  140.3434  155.4234 H   0  0  0  0  0  0  0  0  0  0  0  0  # atno 8009 bound_to 7997
  156.1492  140.1553  156.8785 H   0  0  0  0  0  0  0  0  0  0  0  0  # atno 8010 bound_to 7997
  140.7288  143.4435  151.0622 H   0  0  0  0  0  0  0  0  0  0  0  0  # atno 10167 bound_to 10162
  157.5676  130.8883  149.9213 H   0  0  0  0  0  0  0  0  0  0  0  0  # atno 10718 bound_to 10713
  152.9792  135.5945  154.3921 H   0  0  0  0  0  0  0  0  0  0  0  0  # atno 10763 bound_to 10752
  154.3576  135.2767  155.2340 H   0  0  0  0  0  0  0  0  0  0  0  0  # atno 10764 bound_to 10752
  154.4351  135.6027  153.6148 H   0  0  0  0  0  0  0  0  0  0  0  0  # atno 10765 bound_to 10752
  140.0407  134.5877  155.9385 H   0  0  0  0  0  0  0  0  0  0  0  0  # atno 11005 bound_to 11000
  145.5470  141.0416  143.2299 LP  0  0  0  0  0  0  0  0  0  0  0  0  # atno 17320 bound_to 7965
  144.7595  139.6990  143.7240 LP  0  0  0  0  0  0  0  0  0  0  0  0  # atno 17321 bound_to 7965
  139.8104  143.7959  152.3171 LP  0  0  0  0  0  0  0  0  0  0  0  0  # atno 17342 bound_to 10162
  139.8006  144.7375  150.9829 LP  0  0  0  0  0  0  0  0  0  0  0  0  # atno 17343 bound_to 10162
  156.0723  130.3683  150.0749 LP  0  0  0  0  0  0  0  0  0  0  0  0  # atno 17370 bound_to 10713
  156.8906  130.9587  151.3589 LP  0  0  0  0  0  0  0  0  0  0  0  0  # atno 17371 bound_to 10713
  141.1881  133.6562  156.5312 LP  0  0  0  0  0  0  0  0  0  0  0  0  # atno 17394 bound_to 11000
  140.4073  134.7303  157.4815 LP  0  0  0  0  0  0  0  0  0  0  0  0  # atno 17395 bound_to 11000

$$$$
