AV-unprocessed.smi:2210|AV-procd|sdf|8949|dock3
  -GOLD-   2272012163D 1   1.00000     0.00000
 Structure written by MMmdl.
 37 38  0  0  0  0  0  0  0  0  1 V2000
  146.0459  137.5889  154.7097 O   0  0  0  0  0  0  0  0  0  0  0  0
  146.9314  137.2015  153.9476 C   0  0  0  0  0  0  0  0  0  0  0  0
  146.8905  136.0258  153.3046 N   0  0  0  0  0  0  0  0  0  0  0  0
  145.8100  135.0517  153.4079 C   0  0  0  0  0  0  0  0  0  0  0  0
  146.2732  133.6460  152.9865 C   0  0  0  0  0  0  0  0  0  0  0  0
  145.5691  133.1445  151.7366 C   0  0  0  0  0  0  0  0  0  0  0  0
  146.2516  132.6723  150.6751 C   0  0  0  0  0  0  0  0  0  0  0  0
  145.6022  132.1721  149.3968 C   0  0  0  0  0  0  0  0  0  0  0  0
  144.1217  132.5756  149.2949 C   0  0  0  0  0  0  0  0  0  0  0  0
  143.3995  132.3710  150.6322 C   0  0  0  0  0  0  0  0  0  0  0  0
  144.0457  133.2066  151.7517 C   0  0  0  0  0  0  0  0  0  0  0  0
  148.0603  137.8727  153.6614 N   0  0  0  0  0  0  0  0  0  0  0  0
  148.4757  139.1469  154.1341 C   0  0  0  0  0  0  0  0  0  0  0  0
  147.6166  140.2638  154.2754 C   0  0  0  0  0  0  0  0  0  0  0  0
  148.1536  141.4796  154.7407 C   0  0  0  0  0  0  0  0  0  0  0  0
  149.5289  141.5372  155.0391 C   0  0  0  0  0  0  0  0  0  0  0  0
  150.3621  140.4855  154.8948 N   0  0  0  0  0  0  0  0  0  0  0  0
  149.8402  139.3232  154.4485 C   0  0  0  0  0  0  0  0  0  0  0  0
  147.6645  135.7845  152.7030 H   0  0  0  0  0  0  0  0  0  0  0  0
  145.4708  135.0444  154.4437 H   0  0  0  0  0  0  0  0  0  0  0  0
  144.9589  135.3712  152.8040 H   0  0  0  0  0  0  0  0  0  0  0  0
  147.3498  133.6520  152.8107 H   0  0  0  0  0  0  0  0  0  0  0  0
  146.0994  132.9342  153.7941 H   0  0  0  0  0  0  0  0  0  0  0  0
  147.3305  132.6259  150.7069 H   0  0  0  0  0  0  0  0  0  0  0  0
  146.1521  132.5594  148.5387 H   0  0  0  0  0  0  0  0  0  0  0  0
  145.6997  131.0864  149.3728 H   0  0  0  0  0  0  0  0  0  0  0  0
  144.0492  133.6253  149.0070 H   0  0  0  0  0  0  0  0  0  0  0  0
  143.6321  132.0042  148.5058 H   0  0  0  0  0  0  0  0  0  0  0  0
  142.3444  132.6293  150.5374 H   0  0  0  0  0  0  0  0  0  0  0  0
  143.4352  131.3142  150.8999 H   0  0  0  0  0  0  0  0  0  0  0  0
  143.6755  132.8650  152.7188 H   0  0  0  0  0  0  0  0  0  0  0  0
  143.7458  134.2499  151.6488 H   0  0  0  0  0  0  0  0  0  0  0  0
  148.7296  137.3881  153.0813 H   0  0  0  0  0  0  0  0  0  0  0  0
  146.5682  140.2182  154.0255 H   0  0  0  0  0  0  0  0  0  0  0  0
  147.5256  142.3499  154.8616 H   0  0  0  0  0  0  0  0  0  0  0  0
  149.9726  142.4547  155.3969 H   0  0  0  0  0  0  0  0  0  0  0  0
  150.5369  138.5041  154.3438 H   0  0  0  0  0  0  0  0  0  0  0  0
  1  2  2  0  0  0  0
  2  3  1  0  0  0  0
  2 12  1  0  0  0  0
  3  4  1  0  0  0  0
  3 19  1  0  0  0  0
  4  5  1  0  0  0  0
  4 20  1  0  0  0  0
  4 21  1  0  0  0  0
  5  6  1  0  0  0  0
  5 22  1  0  0  0  0
  5 23  1  0  0  0  0
  6 11  1  0  0  0  0
  6  7  2  0  0  0  0
  7  8  1  0  0  0  0
  7 24  1  0  0  0  0
  8  9  1  0  0  0  0
  8 25  1  0  0  0  0
  8 26  1  0  0  0  0
  9 10  1  0  0  0  0
  9 27  1  0  0  0  0
  9 28  1  0  0  0  0
 10 11  1  0  0  0  0
 10 29  1  0  0  0  0
 10 30  1  0  0  0  0
 11 31  1  0  0  0  0
 11 32  1  0  0  0  0
 12 13  1  0  0  0  0
 12 33  1  0  0  0  0
 13 18  1  0  0  0  0
 13 14  2  0  0  0  0
 14 15  1  0  0  0  0
 14 34  1  0  0  0  0
 15 16  2  0  0  0  0
 15 35  1  0  0  0  0
 16 17  1  0  0  0  0
 16 36  1  0  0  0  0
 17 18  2  0  0  0  0
 18 37  1  0  0  0  0
M  END
> <s_m_source_file>
AV-unprocessed.smi

> <i_m_source_file_index>
2210

> <i_lp_mmshare_version>
43012

> <i_f3d_flags>
0

> <s_epik_input>
W2NIXTFuW2NIXVtjSF1bY0hdYzFbTkhdQyg9TylbTkhdW0NIMl1bQ0gyXUMyPVtDSF1bQ0gyXVtDSDJdW0NIMl1bQ0gyXTI=

> <s_epik_cmdline>
J2VwaWtfcHl0aG9uJywgJy1waCcsICc3LjAnLCAnLXRuJywgJzgnLCAnLW1hJywgJzIwMCcsICctbWV0YWxfYmluZGluZycsICctaW1hZScsICc8aW5maWxlLm1hZT4nLCAnLW9tYWUnLCAnPG91dGZpbGUubWFlPic=

> <r_epik_Ionization_Penalty>
0.00482236

> <r_epik_Ionization_Penalty_Charging>
0

> <r_epik_Ionization_Penalty_Neutral>
0.00482236

> <r_epik_State_Penalty>
0.0034674

> <r_epik_Charging_Adjusted_Penalty>
0.0034674

> <i_epik_Tot_Q>
0

> <i_epik_Tot_abs_Q>
0

> <r_epik_Metal_State_Penalty>
-0

> <b_epik_Metal_Only>
0

> <s_lp_Force_Field>
OPLS_2005

> <r_lp_Energy>
10.3884

> <b_lp_Chiralities_Consistent>
1

> <s_lp_Variant>
AV-unprocessed.smi:2210-1

> <Gold.Version>
5.8.1

> <Gold.Id.Protein>
6NUR|6NUR_protein|mol2

> <Gold.PLP.Fitness>
43.9901

> <Gold.PLP.PLP>
-34.1631

> <Gold.PLP.part.hbond>
-2.9837

> <Gold.PLP.part.metal>
0.0000

> <Gold.PLP.part.buried>
-2.5633

> <Gold.PLP.part.nonpolar>
-28.8914

> <Gold.PLP.part.repulsive>
0.1939

> <Gold.PLP.ligand.clash>
0.0000

> <Gold.PLP.ligand.torsion>
0.8919

> <Gold.PLP.Chemscore.Hbond>
2.8720

> <Gold.PLP.Chemscore.CHOScore>
0.9970

> <Gold.PLP.Chemscore.Metal>
0.0000

> <Gold.Chemscore.Hbonds>
donor molecule, donor type, donor heavy atom, donor atom, acceptor molecule, acceptor atom, score
      L1  H     3    19       P1  7948  1.00
      L1  H    12    33       P1  7948  0.94
      P1  H  7989  7998       L1    17  0.99
      L1  C    16    36       P1  8028  0.96

> <Gold.PLP.Chemscore.Internal.Correction>
0.0038

> <Gold.Rescore>
     Score         DG    S(hbond)    S(metal)    S(lipo)     H(rot)  DE(clash)    DE(int)     intcor
     19.46     -21.13       2.52        0.00      91.90       1.37       0.08       1.59       ----

> <Gold.Chemscore.Fitness>
19.4605

> <Gold.Chemscore.DG>
-21.1324

> <Gold.Chemscore.ZeroCoef>
-5.4800

> <Gold.Chemscore.Hbond>
2.5206

> <Gold.Chemscore.Metal>
0.0000

> <Gold.Chemscore.Lipo>
91.9050

> <Gold.Chemscore.Internal_Hbond>
0.0000

> <Gold.Chemscore.DEClash>
0.0770

> <Gold.Chemscore.DEInternal>
1.5950

> <Gold.Chemscore.Rot>
1.3747

> <Gold.Chemscore.Internal.Correction>
   9.000000E+99

> <Gold.Chemscore.Hbonds>
donor molecule, donor type, donor heavy atom, donor atom, acceptor molecule, acceptor atom, score
      L1  H     3    19       P1  7948  0.94
      L1  H    12    33       P1  7948  0.91
      P1  H  7989  7998       L1    17  0.20

> <Gold.Chemscore.Hbond.Weighted>
-8.4188

> <Gold.Chemscore.Metal.Weighted>
-0.0000

> <Gold.Chemscore.Lipo.Weighted>
-10.7529

> <Gold.Chemscore.Internal_Hbond.Weighted>
0.0000

> <Gold.Chemscore.DEClash.Weighted>
0.0770

> <Gold.Chemscore.DEInternal.Weighted>
1.5950

> <Gold.Chemscore.Rot.Weighted>
3.5192

> <Gold.Chemscore.Internal.Correction.Weighted>
   9.000000E+99

> <Gold.Protein.RotatedTorsions>
[ 6907 6896 6895 6894 ] final  175.96 input  -60.11 | X-H torsion
[ 7974 7965 7964 7962 ] final  -98.97 input  175.53 | X-H torsion
[ 8008 7997 7996 7995 ] final   45.98 input   59.86 | X-H torsion
[ 10167 10162 10161 10158 ] final  114.58 input  -65.29 | X-H torsion
[ 10718 10713 10712 10709 ] final   20.22 input   66.30 | X-H torsion
[ 10763 10752 10751 10750 ] final  -43.71 input  -60.55 | X-H torsion
[ 11005 11000 10999 10996 ] final   51.56 input  -57.11 | X-H torsion

> <Gold.Protein.ActiveResidues>
 VAL166  LYS551  ARG553  GLY616  TRP617  ASP618  TYR619  PRO620  LYS621  CYS622 
 ASP623  PHE694  ASN695  SER759  ASP760  ASP761  ALA762  ILE779  LEU786  VAL792 
 PHE793  MET794  SER795  GLU796  ALA797  LYS798  CYS799  TRP800  GLU811  SER814 

> <Gold.Protein.RotatedAtoms>
  151.7278  133.3316  159.3331 H   0  0  0  0  0  0  0  0  0  0  0  0  # atno 6907 bound_to 6896
  150.7625  134.6391  159.6236 H   0  0  0  0  0  0  0  0  0  0  0  0  # atno 6908 bound_to 6896
  152.3611  134.6873  160.0258 H   0  0  0  0  0  0  0  0  0  0  0  0  # atno 6909 bound_to 6896
  145.3137  140.9406  143.2755 H   0  0  0  0  0  0  0  0  0  0  0  0  # atno 7974 bound_to 7965
  155.3449  140.3410  155.4239 H   0  0  0  0  0  0  0  0  0  0  0  0  # atno 8008 bound_to 7997
  156.1794  140.1658  156.8338 H   0  0  0  0  0  0  0  0  0  0  0  0  # atno 8009 bound_to 7997
  154.5317  140.0744  156.8339 H   0  0  0  0  0  0  0  0  0  0  0  0  # atno 8010 bound_to 7997
  139.6378  144.7121  151.2298 H   0  0  0  0  0  0  0  0  0  0  0  0  # atno 10167 bound_to 10162
  157.1215  130.6551  149.5925 H   0  0  0  0  0  0  0  0  0  0  0  0  # atno 10718 bound_to 10713
  154.0001  135.6694  153.4759 H   0  0  0  0  0  0  0  0  0  0  0  0  # atno 10763 bound_to 10752
  153.0666  135.4997  154.8210 H   0  0  0  0  0  0  0  0  0  0  0  0  # atno 10764 bound_to 10752
  154.7058  135.3087  154.9236 H   0  0  0  0  0  0  0  0  0  0  0  0  # atno 10765 bound_to 10752
  140.0922  134.5193  155.8841 H   0  0  0  0  0  0  0  0  0  0  0  0  # atno 11005 bound_to 11000
  144.8995  139.4668  143.6639 LP  0  0  0  0  0  0  0  0  0  0  0  0  # atno 17320 bound_to 7965
  146.3108  139.7741  142.9021 LP  0  0  0  0  0  0  0  0  0  0  0  0  # atno 17321 bound_to 7965
  140.7475  143.6364  150.8375 LP  0  0  0  0  0  0  0  0  0  0  0  0  # atno 17342 bound_to 10162
  139.9998  143.5756  152.2880 LP  0  0  0  0  0  0  0  0  0  0  0  0  # atno 17343 bound_to 10162
  155.9827  130.4843  150.6897 LP  0  0  0  0  0  0  0  0  0  0  0  0  # atno 17370 bound_to 10713
  157.4472  131.0868  151.0883 LP  0  0  0  0  0  0  0  0  0  0  0  0  # atno 17371 bound_to 10713
  141.2081  133.6671  156.6351 LP  0  0  0  0  0  0  0  0  0  0  0  0  # atno 17394 bound_to 11000
  140.3336  134.7908  157.4344 LP  0  0  0  0  0  0  0  0  0  0  0  0  # atno 17395 bound_to 11000

$$$$
