AV-unprocessed.smi:1005|AV-procd|sdf|4378|dock8
  -GOLD-   22720 2293D 1   1.00000     0.00000
 Structure written by MMmdl.
 58 60  0  0  0  0  0  0  0  0  4 V2000
  151.8580  144.4788  160.5227 C   0  0  0  0  0  0  0  0  0  0  0  0
  151.7669  143.4222  159.4349 C   0  0  0  0  0  0  0  0  0  0  0  0
  150.8633  143.6292  158.3680 C   0  0  0  0  0  0  0  0  0  0  0  0
  150.8041  142.6464  157.3872 C   0  0  0  0  0  0  0  0  0  0  0  0
  150.0286  142.5537  156.2293 N   0  3  0  0  0  0  0  0  0  0  0  0
  150.3240  141.3961  155.5755 C   0  0  0  0  0  0  0  0  0  0  0  0
  151.2821  140.7513  156.2963 N   0  0  0  0  0  0  0  0  0  0  0  0
  151.9558  139.4703  156.0440 C   0  0  0  0  0  0  0  0  0  0  0  0
  150.9752  138.2836  155.9575 C   0  0  2  0  0  0  0  0  0  0  0  0
  151.3810  137.2792  156.8674 O   0  0  0  0  0  0  0  0  0  0  0  0
  150.9323  137.6801  154.5398 C   0  0  0  0  0  0  0  0  0  0  0  0
  149.9433  136.5782  154.4160 N   0  3  1  0  0  0  0  0  0  0  0  0
  150.4671  135.2558  154.8382 C   0  0  0  0  0  0  0  0  0  0  0  0
  149.3981  134.1696  154.6403 C   0  0  0  0  0  0  0  0  0  0  0  0
  148.2226  134.5229  155.3588 O   0  0  0  0  0  0  0  0  0  0  0  0
  147.6469  135.7407  154.8988 C   0  0  1  0  0  0  0  0  0  0  0  0
  146.3411  135.9562  155.6903 C   0  0  0  0  0  0  0  0  0  0  0  0
  145.3635  134.8475  155.5340 N   0  3  0  0  0  0  0  0  0  0  0  0
  145.0730  134.5615  154.1113 C   0  0  0  0  0  0  0  0  0  0  0  0
  144.1176  135.0468  156.3106 C   0  0  0  0  0  0  0  0  0  0  0  0
  148.6699  136.8768  155.1144 C   0  0  0  0  0  0  0  0  0  0  0  0
  151.6060  141.4898  157.4394 C   0  0  0  0  0  0  0  0  0  0  0  0
  152.4986  141.2678  158.4852 C   0  0  0  0  0  0  0  0  0  0  0  0
  152.5722  142.2551  159.4938 C   0  0  0  0  0  0  0  0  0  0  0  0
  153.5364  142.0405  160.6484 C   0  0  0  0  0  0  0  0  0  0  0  0
  151.2001  145.3232  160.3152 H   0  0  0  0  0  0  0  0  0  0  0  0
  152.8755  144.8625  160.6009 H   0  0  0  0  0  0  0  0  0  0  0  0
  151.5695  144.0604  161.4872 H   0  0  0  0  0  0  0  0  0  0  0  0
  150.2454  144.5140  158.3182 H   0  0  0  0  0  0  0  0  0  0  0  0
  149.8806  141.0549  154.6509 H   0  0  0  0  0  0  0  0  0  0  0  0
  152.5386  139.5641  155.1266 H   0  0  0  0  0  0  0  0  0  0  0  0
  152.6730  139.3133  156.8509 H   0  0  0  0  0  0  0  0  0  0  0  0
  149.9845  138.6270  156.2525 H   0  0  0  0  0  0  0  0  0  0  0  0
  150.8431  137.3415  157.6424 H   0  0  0  0  0  0  0  0  0  0  0  0
  150.7064  138.4515  153.8019 H   0  0  0  0  0  0  0  0  0  0  0  0
  151.9280  137.3075  154.2937 H   0  0  0  0  0  0  0  0  0  0  0  0
  151.3550  134.9924  154.2645 H   0  0  0  0  0  0  0  0  0  0  0  0
  150.7653  135.2962  155.8871 H   0  0  0  0  0  0  0  0  0  0  0  0
  149.1687  134.0356  153.5819 H   0  0  0  0  0  0  0  0  0  0  0  0
  149.7635  133.2113  155.0099 H   0  0  0  0  0  0  0  0  0  0  0  0
  147.4255  135.6336  153.8362 H   0  0  0  0  0  0  0  0  0  0  0  0
  146.5605  136.0915  156.7505 H   0  0  0  0  0  0  0  0  0  0  0  0
  145.8884  136.8907  155.3542 H   0  0  0  0  0  0  0  0  0  0  0  0
  144.6018  135.4190  153.6288 H   0  0  0  0  0  0  0  0  0  0  0  0
  144.4034  133.7056  154.0170 H   0  0  0  0  0  0  0  0  0  0  0  0
  145.9879  134.3223  153.5682 H   0  0  0  0  0  0  0  0  0  0  0  0
  143.5996  135.9532  155.9940 H   0  0  0  0  0  0  0  0  0  0  0  0
  144.3172  135.1218  157.3788 H   0  0  0  0  0  0  0  0  0  0  0  0
  143.4397  134.2040  156.1695 H   0  0  0  0  0  0  0  0  0  0  0  0
  148.8643  137.0153  156.1793 H   0  0  0  0  0  0  0  0  0  0  0  0
  148.2621  137.8160  154.7383 H   0  0  0  0  0  0  0  0  0  0  0  0
  153.1110  140.3795  158.5304 H   0  0  0  0  0  0  0  0  0  0  0  0
  154.0584  141.0871  160.5609 H   0  0  0  0  0  0  0  0  0  0  0  0
  153.0032  142.0409  161.5994 H   0  0  0  0  0  0  0  0  0  0  0  0
  154.2873  142.8306  160.6714 H   0  0  0  0  0  0  0  0  0  0  0  0
  145.8051  134.0146  155.8968 H   0  0  0  0  0  0  0  0  0  0  0  0
  149.7195  136.5099  153.4330 H   0  0  0  0  0  0  0  0  0  0  0  0
  149.3456  143.2280  155.9080 H   0  0  0  0  0  0  0  0  0  0  0  0
  1  2  1  0  0  0  0
  1 26  1  0  0  0  0
  1 27  1  0  0  0  0
  1 28  1  0  0  0  0
  2 24  1  0  0  0  0
  2  3  2  0  0  0  0
  3  4  1  0  0  0  0
  3 29  1  0  0  0  0
  4 22  2  0  0  0  0
  4  5  1  0  0  0  0
  5  6  2  0  0  0  0
  5 58  1  0  0  0  0
  6  7  1  0  0  0  0
  6 30  1  0  0  0  0
  7  8  1  0  0  0  0
  7 22  1  0  0  0  0
  8  9  1  0  0  0  0
  8 31  1  0  0  0  0
  8 32  1  0  0  0  0
  9 10  1  0  0  0  0
  9 11  1  0  0  0  0
  9 33  1  0  0  0  0
 10 34  1  0  0  0  0
 11 12  1  0  0  0  0
 11 35  1  0  0  0  0
 11 36  1  0  0  0  0
 12 21  1  0  0  0  0
 12 13  1  0  0  0  0
 12 57  1  0  0  0  0
 13 14  1  0  0  0  0
 13 37  1  0  0  0  0
 13 38  1  0  0  0  0
 14 15  1  0  0  0  0
 14 39  1  0  0  0  0
 14 40  1  0  0  0  0
 15 16  1  0  0  0  0
 16 17  1  0  0  0  0
 16 21  1  0  0  0  0
 16 41  1  0  0  0  0
 17 18  1  0  0  0  0
 17 42  1  0  0  0  0
 17 43  1  0  0  0  0
 18 19  1  0  0  0  0
 18 20  1  0  0  0  0
 18 56  1  0  0  0  0
 19 44  1  0  0  0  0
 19 45  1  0  0  0  0
 19 46  1  0  0  0  0
 20 47  1  0  0  0  0
 20 48  1  0  0  0  0
 20 49  1  0  0  0  0
 21 50  1  0  0  0  0
 21 51  1  0  0  0  0
 22 23  1  0  0  0  0
 23 24  2  0  0  0  0
 23 52  1  0  0  0  0
 24 25  1  0  0  0  0
 25 53  1  0  0  0  0
 25 54  1  0  0  0  0
 25 55  1  0  0  0  0
M  CHG  1   5   1
M  CHG  1  12   1
M  CHG  1  18   1
M  END
> <s_m_source_file>
AV-unprocessed.smi

> <i_m_source_file_index>
1005

> <i_lp_mmshare_version>
43012

> <i_f3d_flags>
0

> <s_epik_input>
W0NIM11jKFtjSF0xKWMoW0NIM10pW2NIXWMoYzEyKW4oW2NIXW4yKVtDSDJdW0NASF0oW09IXSlbQ0gyXU4zW0NIMl1bQ0gyXU9bQ0BIXShbQ0gyXTMpW0NIMl1OKFtDSDNdKVtDSDNd

> <s_epik_cmdline>
J2VwaWtfcHl0aG9uJywgJy1waCcsICc3LjAnLCAnLXRuJywgJzgnLCAnLW1hJywgJzIwMCcsICctbWV0YWxfYmluZGluZycsICctaW1hZScsICc8aW5maWxlLm1hZT4nLCAnLW9tYWUnLCAnPG91dGZpbGUubWFlPic=

> <r_epik_Ionization_Penalty>
2.30802

> <r_epik_Ionization_Penalty_Charging>
2.30798

> <r_epik_Ionization_Penalty_Neutral>
3.4851e-05

> <r_epik_State_Penalty>
2.52618

> <r_epik_Charging_Adjusted_Penalty>
4.83416

> <i_epik_Tot_Q>
3

> <i_epik_Tot_abs_Q>
3

> <r_epik_Metal_State_Penalty>
6.53149

> <b_epik_Metal_Only>
0

> <s_lp_Force_Field>
OPLS_2005

> <r_lp_Energy>
43.2014

> <b_lp_Chiralities_Consistent>
1

> <s_lp_Variant>
AV-unprocessed.smi:1005-17

> <Gold.Version>
5.8.1

> <Gold.Id.Protein>
6NUR|6NUR_protein|mol2

> <Gold.PLP.Fitness>
53.1561

> <Gold.PLP.PLP>
-42.9215

> <Gold.PLP.part.hbond>
-2.3595

> <Gold.PLP.part.metal>
0.0000

> <Gold.PLP.part.buried>
-5.3884

> <Gold.PLP.part.nonpolar>
-35.3716

> <Gold.PLP.part.repulsive>
0.2011

> <Gold.PLP.ligand.clash>
0.0000

> <Gold.PLP.ligand.torsion>
0.9635

> <Gold.PLP.Chemscore.Hbond>
4.0000

> <Gold.PLP.Chemscore.CHOScore>
0.0000

> <Gold.PLP.Chemscore.Metal>
0.0000

> <Gold.Chemscore.Hbonds>
donor molecule, donor type, donor heavy atom, donor atom, acceptor molecule, acceptor atom, score
      L1  H     5    58       P1  8028  2.00
      L1  H    12    57       P1  7948  2.00

> <Gold.PLP.Chemscore.Internal.Correction>
0.1616

> <Gold.Rescore>
     Score         DG    S(hbond)    S(metal)    S(lipo)     H(rot)  DE(clash)    DE(int)     intcor
     17.62     -18.74       1.87        0.00     115.91       2.56       0.02       1.10       ----

> <Gold.Chemscore.Fitness>
17.6186

> <Gold.Chemscore.DG>
-18.7365

> <Gold.Chemscore.ZeroCoef>
-5.4800

> <Gold.Chemscore.Hbond>
1.8683

> <Gold.Chemscore.Metal>
0.0000

> <Gold.Chemscore.Lipo>
115.9085

> <Gold.Chemscore.Internal_Hbond>
0.0000

> <Gold.Chemscore.DEClash>
0.0167

> <Gold.Chemscore.DEInternal>
1.1013

> <Gold.Chemscore.Rot>
2.5566

> <Gold.Chemscore.Internal.Correction>
   9.000000E+99

> <Gold.Chemscore.Hbonds>
donor molecule, donor type, donor heavy atom, donor atom, acceptor molecule, acceptor atom, score
      L1  H     5    58       P1  8028  0.93
      L1  H    12    57       P1  7948  0.35

> <Gold.Chemscore.Hbond.Weighted>
-6.2402

> <Gold.Chemscore.Metal.Weighted>
-0.0000

> <Gold.Chemscore.Lipo.Weighted>
-13.5613

> <Gold.Chemscore.Internal_Hbond.Weighted>
0.0000

> <Gold.Chemscore.DEClash.Weighted>
0.0167

> <Gold.Chemscore.DEInternal.Weighted>
1.1013

> <Gold.Chemscore.Rot.Weighted>
6.5450

> <Gold.Chemscore.Internal.Correction.Weighted>
   9.000000E+99

> <Gold.Protein.RotatedTorsions>
[ 6907 6896 6895 6894 ] final  153.38 input  -60.11 | X-H torsion
[ 7974 7965 7964 7962 ] final -115.37 input  175.53 | X-H torsion
[ 8008 7997 7996 7995 ] final -174.97 input   59.86 | X-H torsion
[ 10167 10162 10161 10158 ] final -100.62 input  -65.29 | X-H torsion
[ 10718 10713 10712 10709 ] final   52.24 input   66.30 | X-H torsion
[ 10763 10752 10751 10750 ] final  -31.61 input  -60.55 | X-H torsion
[ 11005 11000 10999 10996 ] final   25.83 input  -57.11 | X-H torsion

> <Gold.Protein.ActiveResidues>
 VAL166  LYS551  ARG553  GLY616  TRP617  ASP618  TYR619  PRO620  LYS621  CYS622 
 ASP623  PHE694  ASN695  SER759  ASP760  ASP761  ALA762  ILE779  LEU786  VAL792 
 PHE793  MET794  SER795  GLU796  ALA797  LYS798  CYS799  TRP800  GLU811  SER814 

> <Gold.Protein.RotatedAtoms>
  152.0734  133.4118  159.4469 H   0  0  0  0  0  0  0  0  0  0  0  0  # atno 6907 bound_to 6896
  150.6863  134.3065  159.4737 H   0  0  0  0  0  0  0  0  0  0  0  0  # atno 6908 bound_to 6896
  152.0899  134.9414  160.0622 H   0  0  0  0  0  0  0  0  0  0  0  0  # atno 6909 bound_to 6896
  145.1092  140.8600  143.3880 H   0  0  0  0  0  0  0  0  0  0  0  0  # atno 7974 bound_to 7965
  155.9767  140.1173  157.0764 H   0  0  0  0  0  0  0  0  0  0  0  0  # atno 8008 bound_to 7997
  154.4171  140.1152  156.5447 H   0  0  0  0  0  0  0  0  0  0  0  0  # atno 8009 bound_to 7997
  155.6525  140.3473  155.4755 H   0  0  0  0  0  0  0  0  0  0  0  0  # atno 8010 bound_to 7997
  140.2499  143.3479  152.0724 H   0  0  0  0  0  0  0  0  0  0  0  0  # atno 10167 bound_to 10162
  157.5056  130.8466  149.8370 H   0  0  0  0  0  0  0  0  0  0  0  0  # atno 10718 bound_to 10713
  153.8001  135.6891  153.4857 H   0  0  0  0  0  0  0  0  0  0  0  0  # atno 10763 bound_to 10752
  153.1694  135.4548  154.9880 H   0  0  0  0  0  0  0  0  0  0  0  0  # atno 10764 bound_to 10752
  154.8010  135.3337  154.7490 H   0  0  0  0  0  0  0  0  0  0  0  0  # atno 10765 bound_to 10752
  140.3436  134.2305  155.7687 H   0  0  0  0  0  0  0  0  0  0  0  0  # atno 11005 bound_to 11000
  145.0867  139.2920  143.5756 LP  0  0  0  0  0  0  0  0  0  0  0  0  # atno 17320 bound_to 7965
  146.3527  140.0391  142.8644 LP  0  0  0  0  0  0  0  0  0  0  0  0  # atno 17321 bound_to 7965
  139.5049  144.6785  151.6068 LP  0  0  0  0  0  0  0  0  0  0  0  0  # atno 17342 bound_to 10162
  140.6048  143.9544  150.6411 LP  0  0  0  0  0  0  0  0  0  0  0  0  # atno 17343 bound_to 10162
  156.0256  130.3780  150.1833 LP  0  0  0  0  0  0  0  0  0  0  0  0  # atno 17370 bound_to 10713
  157.0023  130.9926  151.3388 LP  0  0  0  0  0  0  0  0  0  0  0  0  # atno 17371 bound_to 10713
  141.2031  133.7919  157.0354 LP  0  0  0  0  0  0  0  0  0  0  0  0  # atno 17394 bound_to 11000
  140.0760  134.9675  157.1547 LP  0  0  0  0  0  0  0  0  0  0  0  0  # atno 17395 bound_to 11000

$$$$
