AV-unprocessed.smi:1839|AV-procd|sdf|7485|dock4
  -GOLD-   22720 9183D 1   1.00000     0.00000
 Structure written by MMmdl.
 46 47  0  0  0  0  0  0  0  0  1 V2000
  151.8481  133.1871  163.9828 C   0  0  0  0  0  0  0  0  0  0  0  0
  152.6779  134.3789  164.1601 N   0  0  0  0  0  0  0  0  0  0  0  0
  153.8098  134.1908  165.0758 C   0  0  0  0  0  0  0  0  0  0  0  0
  152.5573  135.4299  163.3110 C   0  0  0  0  0  0  0  0  0  0  0  0
  152.0763  135.3064  162.1828 O   0  0  0  0  0  0  0  0  0  0  0  0
  153.0322  136.6163  163.7597 N   0  0  0  0  0  0  0  0  0  0  0  0
  152.8963  137.0489  165.1580 C   0  0  0  0  0  0  0  0  0  0  0  0
  154.1970  137.7315  165.6149 C   0  0  0  0  0  0  0  0  0  0  0  0
  154.5587  138.8995  164.6816 C   0  0  0  0  0  0  0  0  0  0  0  0
  154.5625  138.4574  163.2011 C   0  0  2  0  0  0  0  0  0  0  0  0
  154.8114  139.6488  162.2668 C   0  0  0  0  0  0  0  0  0  0  0  0
  155.7894  139.6580  161.5185 O   0  0  0  0  0  0  0  0  0  0  0  0
  153.9201  140.6504  162.3232 N   0  0  0  0  0  0  0  0  0  0  0  0
  153.9802  141.8711  161.5276 C   0  0  0  0  0  0  0  0  0  0  0  0
  153.1081  141.7703  160.2645 C   0  0  0  0  0  0  0  0  0  0  0  0
  152.7944  143.1326  159.6757 C   0  0  0  0  0  0  0  0  0  0  0  0
  153.1323  144.3126  160.3723 C   0  0  0  0  0  0  0  0  0  0  0  0
  152.8292  145.5529  159.7782 C   0  0  0  0  0  0  0  0  0  0  0  0
  152.2039  145.5657  158.5164 C   0  0  0  0  0  0  0  0  0  0  0  0
  151.9100  144.3322  157.9018 C   0  0  0  0  0  0  0  0  0  0  0  0
  152.1970  143.1373  158.4623 N   0  0  0  0  0  0  0  0  0  0  0  0
  153.2334  137.7512  162.8512 C   0  0  0  0  0  0  0  0  0  0  0  0
  150.8241  133.4484  163.7110 H   0  0  0  0  0  0  0  0  0  0  0  0
  151.7952  132.6028  164.9024 H   0  0  0  0  0  0  0  0  0  0  0  0
  152.2586  132.5501  163.1983 H   0  0  0  0  0  0  0  0  0  0  0  0
  154.7003  134.7296  164.7484 H   0  0  0  0  0  0  0  0  0  0  0  0
  154.0910  133.1391  165.1439 H   0  0  0  0  0  0  0  0  0  0  0  0
  153.5514  134.5279  166.0796 H   0  0  0  0  0  0  0  0  0  0  0  0
  152.0634  137.7499  165.2325 H   0  0  0  0  0  0  0  0  0  0  0  0
  152.6489  136.2266  165.8300 H   0  0  0  0  0  0  0  0  0  0  0  0
  154.0917  138.0914  166.6387 H   0  0  0  0  0  0  0  0  0  0  0  0
  155.0107  137.0057  165.6247 H   0  0  0  0  0  0  0  0  0  0  0  0
  153.8355  139.7033  164.8292 H   0  0  0  0  0  0  0  0  0  0  0  0
  155.5319  139.3058  164.9593 H   0  0  0  0  0  0  0  0  0  0  0  0
  155.3727  137.7380  163.0659 H   0  0  0  0  0  0  0  0  0  0  0  0
  153.1461  140.5622  162.9656 H   0  0  0  0  0  0  0  0  0  0  0  0
  153.6776  142.7266  162.1335 H   0  0  0  0  0  0  0  0  0  0  0  0
  155.0209  142.0403  161.2494 H   0  0  0  0  0  0  0  0  0  0  0  0
  153.6118  141.1649  159.5093 H   0  0  0  0  0  0  0  0  0  0  0  0
  152.1716  141.2587  160.4906 H   0  0  0  0  0  0  0  0  0  0  0  0
  153.6146  144.2690  161.3379 H   0  0  0  0  0  0  0  0  0  0  0  0
  153.0727  146.4774  160.2806 H   0  0  0  0  0  0  0  0  0  0  0  0
  151.9560  146.4982  158.0312 H   0  0  0  0  0  0  0  0  0  0  0  0
  151.4318  144.3048  156.9337 H   0  0  0  0  0  0  0  0  0  0  0  0
  153.2650  137.4245  161.8097 H   0  0  0  0  0  0  0  0  0  0  0  0
  152.3884  138.4369  162.9369 H   0  0  0  0  0  0  0  0  0  0  0  0
  1  2  1  0  0  0  0
  1 23  1  0  0  0  0
  1 24  1  0  0  0  0
  1 25  1  0  0  0  0
  2  3  1  0  0  0  0
  2  4  1  0  0  0  0
  3 26  1  0  0  0  0
  3 27  1  0  0  0  0
  3 28  1  0  0  0  0
  4  5  2  0  0  0  0
  4  6  1  0  0  0  0
  6 22  1  0  0  0  0
  6  7  1  0  0  0  0
  7  8  1  0  0  0  0
  7 29  1  0  0  0  0
  7 30  1  0  0  0  0
  8  9  1  0  0  0  0
  8 31  1  0  0  0  0
  8 32  1  0  0  0  0
  9 10  1  0  0  0  0
  9 33  1  0  0  0  0
  9 34  1  0  0  0  0
 10 11  1  0  0  0  0
 10 22  1  0  0  0  0
 10 35  1  0  0  0  0
 11 12  2  0  0  0  0
 11 13  1  0  0  0  0
 13 14  1  0  0  0  0
 13 36  1  0  0  0  0
 14 15  1  0  0  0  0
 14 37  1  0  0  0  0
 14 38  1  0  0  0  0
 15 16  1  0  0  0  0
 15 39  1  0  0  0  0
 15 40  1  0  0  0  0
 16 21  1  0  0  0  0
 16 17  2  0  0  0  0
 17 18  1  0  0  0  0
 17 41  1  0  0  0  0
 18 19  2  0  0  0  0
 18 42  1  0  0  0  0
 19 20  1  0  0  0  0
 19 43  1  0  0  0  0
 20 21  2  0  0  0  0
 20 44  1  0  0  0  0
 22 45  1  0  0  0  0
 22 46  1  0  0  0  0
M  END
> <s_m_source_file>
AV-unprocessed.smi

> <i_m_source_file_index>
1839

> <i_lp_mmshare_version>
43012

> <i_f3d_flags>
0

> <s_epik_input>
W0NIM11OKFtDSDNdKUMoPU8pTjFbQ0gyXVtDSDJdW0NIMl1bQ0BIXShbQ0gyXTEpQyg9TylbTkhdW0NIMl1bQ0gyXWMyW2NIXVtjSF1bY0hdW2NIXW4y

> <s_epik_cmdline>
J2VwaWtfcHl0aG9uJywgJy1waCcsICc3LjAnLCAnLXRuJywgJzgnLCAnLW1hJywgJzIwMCcsICctbWV0YWxfYmluZGluZycsICctaW1hZScsICc8aW5maWxlLm1hZT4nLCAnLW9tYWUnLCAnPG91dGZpbGUubWFlPic=

> <r_epik_Ionization_Penalty>
0.0268631

> <r_epik_Ionization_Penalty_Charging>
0

> <r_epik_Ionization_Penalty_Neutral>
0.0268631

> <r_epik_State_Penalty>
0.0219025

> <r_epik_Charging_Adjusted_Penalty>
0.0219025

> <i_epik_Tot_Q>
0

> <i_epik_Tot_abs_Q>
0

> <r_epik_Metal_State_Penalty>
0.0209511

> <b_epik_Metal_Only>
0

> <s_lp_Force_Field>
OPLS_2005

> <r_lp_Energy>
47.8256

> <b_lp_Chiralities_Consistent>
1

> <s_lp_Variant>
AV-unprocessed.smi:1839-2

> <Gold.Version>
5.8.1

> <Gold.Id.Protein>
6NUR|6NUR_protein|mol2

> <Gold.PLP.Fitness>
52.6422

> <Gold.PLP.PLP>
-47.3021

> <Gold.PLP.part.hbond>
-2.0000

> <Gold.PLP.part.metal>
0.0000

> <Gold.PLP.part.buried>
-4.6398

> <Gold.PLP.part.nonpolar>
-40.4833

> <Gold.PLP.part.repulsive>
0.0317

> <Gold.PLP.ligand.clash>
0.0000

> <Gold.PLP.ligand.torsion>
0.9898

> <Gold.PLP.Chemscore.Hbond>
1.0000

> <Gold.PLP.Chemscore.CHOScore>
1.0000

> <Gold.PLP.Chemscore.Metal>
0.0000

> <Gold.Chemscore.Hbonds>
donor molecule, donor type, donor heavy atom, donor atom, acceptor molecule, acceptor atom, score
      L1  C    20    44       P1  8028  0.21

> <Gold.PLP.Chemscore.Internal.Correction>
1.3197

> <Gold.Rescore>
     Score         DG    S(hbond)    S(metal)    S(lipo)     H(rot)  DE(clash)    DE(int)     intcor
     17.04     -18.90       0.99        0.00     119.47       1.52       0.07       1.79       ----

> <Gold.Chemscore.Fitness>
17.0355

> <Gold.Chemscore.DG>
-18.8963

> <Gold.Chemscore.ZeroCoef>
-5.4800

> <Gold.Chemscore.Hbond>
0.9934

> <Gold.Chemscore.Metal>
0.0000

> <Gold.Chemscore.Lipo>
119.4681

> <Gold.Chemscore.Internal_Hbond>
0.0000

> <Gold.Chemscore.DEClash>
0.0722

> <Gold.Chemscore.DEInternal>
1.7885

> <Gold.Chemscore.Rot>
1.5155

> <Gold.Chemscore.Internal.Correction>
   9.000000E+99

> <Gold.Chemscore.Hbond.Weighted>
-3.3181

> <Gold.Chemscore.Metal.Weighted>
-0.0000

> <Gold.Chemscore.Lipo.Weighted>
-13.9778

> <Gold.Chemscore.Internal_Hbond.Weighted>
0.0000

> <Gold.Chemscore.DEClash.Weighted>
0.0722

> <Gold.Chemscore.DEInternal.Weighted>
1.7885

> <Gold.Chemscore.Rot.Weighted>
3.8796

> <Gold.Chemscore.Internal.Correction.Weighted>
   9.000000E+99

> <Gold.Protein.RotatedTorsions>
[ 6907 6896 6895 6894 ] final  -55.20 input  -60.11 | X-H torsion
[ 7974 7965 7964 7962 ] final   20.27 input  175.53 | X-H torsion
[ 8008 7997 7996 7995 ] final -105.75 input   59.86 | X-H torsion
[ 10167 10162 10161 10158 ] final  -58.86 input  -65.29 | X-H torsion
[ 10718 10713 10712 10709 ] final -150.16 input   66.30 | X-H torsion
[ 10763 10752 10751 10750 ] final   17.03 input  -60.55 | X-H torsion
[ 11005 11000 10999 10996 ] final  130.14 input  -57.11 | X-H torsion

> <Gold.Protein.ActiveResidues>
 VAL166  LYS551  ARG553  GLY616  TRP617  ASP618  TYR619  PRO620  LYS621  CYS622 
 ASP623  PHE694  ASN695  SER759  ASP760  ASP761  ALA762  ILE779  LEU786  VAL792 
 PHE793  MET794  SER795  GLU796  ALA797  LYS798  CYS799  TRP800  GLU811  SER814 

> <Gold.Protein.RotatedAtoms>
  150.8272  134.7508  159.6822 H   0  0  0  0  0  0  0  0  0  0  0  0  # atno 6907 bound_to 6896
  152.4381  134.5642  159.9912 H   0  0  0  0  0  0  0  0  0  0  0  0  # atno 6908 bound_to 6896
  151.5811  133.3340  159.3044 H   0  0  0  0  0  0  0  0  0  0  0  0  # atno 6909 bound_to 6896
  146.2118  139.8193  142.8683 H   0  0  0  0  0  0  0  0  0  0  0  0  # atno 7974 bound_to 7965
  154.9044  140.0412  157.1911 H   0  0  0  0  0  0  0  0  0  0  0  0  # atno 8008 bound_to 7997
  154.8411  140.2914  155.5637 H   0  0  0  0  0  0  0  0  0  0  0  0  # atno 8009 bound_to 7997
  156.2992  140.2482  156.3354 H   0  0  0  0  0  0  0  0  0  0  0  0  # atno 8010 bound_to 7997
  140.6171  143.2406  151.5570 H   0  0  0  0  0  0  0  0  0  0  0  0  # atno 10167 bound_to 10162
  156.4425  130.8129  151.2359 H   0  0  0  0  0  0  0  0  0  0  0  0  # atno 10718 bound_to 10713
  153.1376  135.6753  153.9078 H   0  0  0  0  0  0  0  0  0  0  0  0  # atno 10763 bound_to 10752
  153.8545  135.3089  155.3435 H   0  0  0  0  0  0  0  0  0  0  0  0  # atno 10764 bound_to 10752
  154.7761  135.4914  153.9830 H   0  0  0  0  0  0  0  0  0  0  0  0  # atno 10765 bound_to 10752
  139.9655  134.9592  156.9250 H   0  0  0  0  0  0  0  0  0  0  0  0  # atno 11005 bound_to 11000
  145.3113  141.0220  143.3553 LP  0  0  0  0  0  0  0  0  0  0  0  0  # atno 17320 bound_to 7965
  144.8934  139.4745  143.6667 LP  0  0  0  0  0  0  0  0  0  0  0  0  # atno 17321 bound_to 7965
  139.5408  144.2654  152.1346 LP  0  0  0  0  0  0  0  0  0  0  0  0  # atno 17342 bound_to 10162
  140.1866  144.4793  150.6501 LP  0  0  0  0  0  0  0  0  0  0  0  0  # atno 17343 bound_to 10162
  157.7506  131.0163  150.3541 LP  0  0  0  0  0  0  0  0  0  0  0  0  # atno 17370 bound_to 10713
  156.3902  130.3896  149.7036 LP  0  0  0  0  0  0  0  0  0  0  0  0  # atno 17371 bound_to 10713
  140.5407  134.0723  155.7340 LP  0  0  0  0  0  0  0  0  0  0  0  0  # atno 17394 bound_to 11000
  141.1334  133.9263  157.2486 LP  0  0  0  0  0  0  0  0  0  0  0  0  # atno 17395 bound_to 11000

$$$$
