AV-unprocessed.smi:87|AV-procd|sdf|822|dock7
  -GOLD-   2262017233D 1   1.00000     0.00000
 Structure written by MMmdl.
 58 60  0  0  0  0  0  0  0  0  1 V2000
  151.5061  144.9562  158.3273 C   0  0  0  0  0  0  0  0  0  0  0  0
  152.4570  143.7859  158.6204 C   0  0  0  0  0  0  0  0  0  0  0  0
  151.7873  142.3947  158.5479 C   0  0  0  0  0  0  0  0  0  0  0  0
  152.7528  141.2783  159.0109 C   0  0  0  0  0  0  0  0  0  0  0  0
  153.1311  141.3465  160.4977 C   0  0  0  0  0  0  0  0  0  0  0  0
  151.2685  142.1079  157.1146 C   0  0  0  0  0  0  0  0  0  0  0  0
  150.0489  141.2992  157.0642 N   0  0  0  0  0  0  0  0  0  0  0  0
  150.1543  139.8971  157.4579 C   0  0  0  0  0  0  0  0  0  0  0  0
  150.5435  138.9810  156.2881 C   0  0  0  0  0  0  0  0  0  0  0  0
  151.6961  139.4945  155.5335 C   0  0  0  0  0  0  0  0  0  0  0  0
  152.6031  139.8984  154.9394 N   0  0  0  0  0  0  0  0  0  0  0  0
  149.1541  141.5208  156.0698 C   0  0  0  0  0  0  0  0  0  0  0  0
  149.5081  141.1200  154.8225 N   0  0  0  0  0  0  0  0  0  0  0  0
  148.6707  141.2933  153.7960 C   0  0  0  0  0  0  0  0  0  0  0  0
  147.4541  141.8412  153.7951 N   0  0  0  0  0  0  0  0  0  0  0  0
  147.0989  142.2599  155.0432 C   0  0  0  0  0  0  0  0  0  0  0  0
  147.8812  142.1442  156.2275 C   0  0  0  0  0  0  0  0  0  0  0  0
  147.1894  142.6960  157.3003 N   0  0  0  0  0  0  0  0  0  0  0  0
  146.0604  143.0975  156.7850 C   0  0  0  0  0  0  0  0  0  0  0  0
  145.9222  142.8733  155.4350 N   0  0  0  0  0  0  0  0  0  0  0  0
  144.7753  143.2174  154.6130 C   0  0  0  0  0  0  0  0  0  0  0  0
  143.4502  143.1622  155.3984 C   0  0  2  0  0  0  0  0  0  0  0  0
  142.5475  142.2946  154.7375 O   0  0  0  0  0  0  0  0  0  0  0  0
  142.8219  144.5609  155.5673 C   0  0  1  0  0  0  0  0  0  0  0  0
  143.6978  145.6447  156.2225 C   0  0  0  0  0  0  0  0  0  0  0  0
  143.6425  146.8009  155.2375 C   0  0  0  0  0  0  0  0  0  0  0  0
  142.3993  146.4947  154.4109 C   0  0  0  0  0  0  0  0  0  0  0  0
  142.4267  145.0812  154.3033 O   0  0  0  0  0  0  0  0  0  0  0  0
  152.0096  145.9092  158.4900 H   0  0  0  0  0  0  0  0  0  0  0  0
  150.6339  144.9283  158.9811 H   0  0  0  0  0  0  0  0  0  0  0  0
  151.1544  144.9496  157.2962 H   0  0  0  0  0  0  0  0  0  0  0  0
  153.3083  143.8255  157.9398 H   0  0  0  0  0  0  0  0  0  0  0  0
  152.8649  143.9475  159.6171 H   0  0  0  0  0  0  0  0  0  0  0  0
  150.9437  142.4087  159.2379 H   0  0  0  0  0  0  0  0  0  0  0  0
  152.2931  140.3040  158.8434 H   0  0  0  0  0  0  0  0  0  0  0  0
  153.6554  141.2891  158.3989 H   0  0  0  0  0  0  0  0  0  0  0  0
  153.7377  140.4850  160.7776 H   0  0  0  0  0  0  0  0  0  0  0  0
  152.2429  141.3430  161.1301 H   0  0  0  0  0  0  0  0  0  0  0  0
  153.7100  142.2385  160.7335 H   0  0  0  0  0  0  0  0  0  0  0  0
  151.0880  143.0326  156.5708 H   0  0  0  0  0  0  0  0  0  0  0  0
  152.0488  141.5901  156.5555 H   0  0  0  0  0  0  0  0  0  0  0  0
  150.9000  139.8151  158.2492 H   0  0  0  0  0  0  0  0  0  0  0  0
  149.2143  139.5593  157.8963 H   0  0  0  0  0  0  0  0  0  0  0  0
  150.8011  137.9838  156.6459 H   0  0  0  0  0  0  0  0  0  0  0  0
  149.7145  138.8714  155.5890 H   0  0  0  0  0  0  0  0  0  0  0  0
  149.0255  140.9407  152.8388 H   0  0  0  0  0  0  0  0  0  0  0  0
  145.2923  143.5709  157.3793 H   0  0  0  0  0  0  0  0  0  0  0  0
  144.9352  144.2197  154.2137 H   0  0  0  0  0  0  0  0  0  0  0  0
  144.7429  142.5443  153.7552 H   0  0  0  0  0  0  0  0  0  0  0  0
  143.6506  142.7485  156.3878 H   0  0  0  0  0  0  0  0  0  0  0  0
  143.0405  141.7289  154.1631 H   0  0  0  0  0  0  0  0  0  0  0  0
  141.9033  144.4641  156.1490 H   0  0  0  0  0  0  0  0  0  0  0  0
  143.2724  145.9354  157.1840 H   0  0  0  0  0  0  0  0  0  0  0  0
  144.7254  145.3297  156.4041 H   0  0  0  0  0  0  0  0  0  0  0  0
  143.6000  147.7759  155.7237 H   0  0  0  0  0  0  0  0  0  0  0  0
  144.5240  146.7801  154.5953 H   0  0  0  0  0  0  0  0  0  0  0  0
  141.4943  146.8054  154.9358 H   0  0  0  0  0  0  0  0  0  0  0  0
  142.4148  146.9746  153.4321 H   0  0  0  0  0  0  0  0  0  0  0  0
  1  2  1  0  0  0  0
  1 29  1  0  0  0  0
  1 30  1  0  0  0  0
  1 31  1  0  0  0  0
  2  3  1  0  0  0  0
  2 32  1  0  0  0  0
  2 33  1  0  0  0  0
  3  4  1  0  0  0  0
  3  6  1  0  0  0  0
  3 34  1  0  0  0  0
  4  5  1  0  0  0  0
  4 35  1  0  0  0  0
  4 36  1  0  0  0  0
  5 37  1  0  0  0  0
  5 38  1  0  0  0  0
  5 39  1  0  0  0  0
  6  7  1  0  0  0  0
  6 40  1  0  0  0  0
  6 41  1  0  0  0  0
  7  8  1  0  0  0  0
  7 12  1  0  0  0  0
  8  9  1  0  0  0  0
  8 42  1  0  0  0  0
  8 43  1  0  0  0  0
  9 10  1  0  0  0  0
  9 44  1  0  0  0  0
  9 45  1  0  0  0  0
 10 11  3  0  0  0  0
 12 17  1  0  0  0  0
 12 13  2  0  0  0  0
 13 14  1  0  0  0  0
 14 15  2  0  0  0  0
 14 46  1  0  0  0  0
 15 16  1  0  0  0  0
 16 20  1  0  0  0  0
 16 17  2  0  0  0  0
 17 18  1  0  0  0  0
 18 19  2  0  0  0  0
 19 20  1  0  0  0  0
 19 47  1  0  0  0  0
 20 21  1  0  0  0  0
 21 22  1  0  0  0  0
 21 48  1  0  0  0  0
 21 49  1  0  0  0  0
 22 23  1  0  0  0  0
 22 24  1  0  0  0  0
 22 50  1  0  0  0  0
 23 51  1  0  0  0  0
 24 28  1  0  0  0  0
 24 25  1  0  0  0  0
 24 52  1  0  0  0  0
 25 26  1  0  0  0  0
 25 53  1  0  0  0  0
 25 54  1  0  0  0  0
 26 27  1  0  0  0  0
 26 55  1  0  0  0  0
 26 56  1  0  0  0  0
 27 28  1  0  0  0  0
 27 57  1  0  0  0  0
 27 58  1  0  0  0  0
M  END
> <s_m_source_file>
AV-unprocessed.smi

> <i_m_source_file_index>
87

> <i_lp_mmshare_version>
43012

> <i_f3d_flags>
0

> <s_epik_input>
W0NIM11bQ0gyXVtDSF0oW0NIMl1bQ0gzXSlbQ0gyXU4oW0NIMl1bQ0gyXUMjTiljKG5bY0hdbjEpYyhjMTIpbltjSF1uMltDSDJdW0NASF0oW09IXSlbQ0BASF0zW0NIMl1bQ0gyXVtDSDJdTzM=

> <s_epik_cmdline>
J2VwaWtfcHl0aG9uJywgJy1waCcsICc3LjAnLCAnLXRuJywgJzgnLCAnLW1hJywgJzIwMCcsICctbWV0YWxfYmluZGluZycsICctaW1hZScsICc8aW5maWxlLm1hZT4nLCAnLW9tYWUnLCAnPG91dGZpbGUubWFlPic=

> <r_lp_tautomer_probability>
1

> <r_epik_Ionization_Penalty>
0.000348566

> <r_epik_Ionization_Penalty_Charging>
0

> <r_epik_Ionization_Penalty_Neutral>
0.000348566

> <r_epik_State_Penalty>
-0

> <r_epik_Charging_Adjusted_Penalty>
0

> <i_epik_Tot_Q>
0

> <i_epik_Tot_abs_Q>
0

> <r_epik_Metal_State_Penalty>
-0

> <b_epik_Metal_Only>
0

> <s_lp_Force_Field>
OPLS_2005

> <r_lp_Energy>
36.8585

> <b_lp_Chiralities_Consistent>
1

> <s_lp_Variant>
AV-unprocessed.smi:87-3

> <Gold.Version>
5.8.1

> <Gold.Id.Protein>
6NUR|6NUR_protein|mol2

> <Gold.PLP.Fitness>
50.0129

> <Gold.PLP.PLP>
-45.8235

> <Gold.PLP.part.hbond>
-4.1003

> <Gold.PLP.part.metal>
0.0000

> <Gold.PLP.part.buried>
-3.3838

> <Gold.PLP.part.nonpolar>
-38.3209

> <Gold.PLP.part.repulsive>
0.5849

> <Gold.PLP.ligand.clash>
0.0000

> <Gold.PLP.ligand.torsion>
3.3745

> <Gold.PLP.Chemscore.Hbond>
2.2146

> <Gold.PLP.Chemscore.CHOScore>
0.9825

> <Gold.PLP.Chemscore.Metal>
0.0000

> <Gold.Chemscore.Hbonds>
donor molecule, donor type, donor heavy atom, donor atom, acceptor molecule, acceptor atom, score
      L1  H    23    51       P1 10175  0.27
      P1  H  7989  7998       L1    11  0.54
      P1  H  7997  8009       L1    11  0.83
      L1  C    14    46       P1  7957  0.88

> <Gold.PLP.Chemscore.Internal.Correction>
1.3470

> <Gold.Rescore>
     Score         DG    S(hbond)    S(metal)    S(lipo)     H(rot)  DE(clash)    DE(int)     intcor
      7.03     -12.92       1.26        0.00     101.40       3.37       0.02       5.87       ----

> <Gold.Chemscore.Fitness>
7.0330

> <Gold.Chemscore.DG>
-12.9177

> <Gold.Chemscore.ZeroCoef>
-5.4800

> <Gold.Chemscore.Hbond>
1.2555

> <Gold.Chemscore.Metal>
0.0000

> <Gold.Chemscore.Lipo>
101.4047

> <Gold.Chemscore.Internal_Hbond>
0.0000

> <Gold.Chemscore.DEClash>
0.0155

> <Gold.Chemscore.DEInternal>
5.8692

> <Gold.Chemscore.Rot>
3.3672

> <Gold.Chemscore.Internal.Correction>
   9.000000E+99

> <Gold.Chemscore.Hbonds>
donor molecule, donor type, donor heavy atom, donor atom, acceptor molecule, acceptor atom, score
      L1  H    23    51       P1 10175  0.01
      P1  H  7989  7998       L1    11  0.16
      P1  H  7997  8009       L1    11  0.81

> <Gold.Chemscore.Hbond.Weighted>
-4.1935

> <Gold.Chemscore.Metal.Weighted>
-0.0000

> <Gold.Chemscore.Lipo.Weighted>
-11.8644

> <Gold.Chemscore.Internal_Hbond.Weighted>
0.0000

> <Gold.Chemscore.DEClash.Weighted>
0.0155

> <Gold.Chemscore.DEInternal.Weighted>
5.8692

> <Gold.Chemscore.Rot.Weighted>
8.6201

> <Gold.Chemscore.Internal.Correction.Weighted>
   9.000000E+99

> <Gold.Protein.RotatedTorsions>
[ 6907 6896 6895 6894 ] final  143.97 input  -60.11 | X-H torsion
[ 7974 7965 7964 7962 ] final  -67.16 input  175.53 | X-H torsion
[ 8008 7997 7996 7995 ] final -134.48 input   59.86 | X-H torsion
[ 10167 10162 10161 10158 ] final   43.92 input  -65.29 | X-H torsion
[ 10718 10713 10712 10709 ] final  -13.15 input   66.30 | X-H torsion
[ 10763 10752 10751 10750 ] final -103.05 input  -60.55 | X-H torsion
[ 11005 11000 10999 10996 ] final  -47.70 input  -57.11 | X-H torsion

> <Gold.Protein.ActiveResidues>
 VAL166  LYS551  ARG553  GLY616  TRP617  ASP618  TYR619  PRO620  LYS621  CYS622 
 ASP623  PHE694  ASN695  SER759  ASP760  ASP761  ALA762  ILE779  LEU786  VAL792 
 PHE793  MET794  SER795  GLU796  ALA797  LYS798  CYS799  TRP800  GLU811  SER814 

> <Gold.Protein.RotatedAtoms>
  152.1995  133.4831  159.5050 H   0  0  0  0  0  0  0  0  0  0  0  0  # atno 6907 bound_to 6896
  150.6967  134.1609  159.4185 H   0  0  0  0  0  0  0  0  0  0  0  0  # atno 6908 bound_to 6896
  151.9525  135.0162  160.0593 H   0  0  0  0  0  0  0  0  0  0  0  0  # atno 6909 bound_to 6896
  145.7327  140.8990  143.0571 H   0  0  0  0  0  0  0  0  0  0  0  0  # atno 7974 bound_to 7965
  155.3629  140.0484  157.3046 H   0  0  0  0  0  0  0  0  0  0  0  0  # atno 8008 bound_to 7997
  154.5169  140.2211  155.9012 H   0  0  0  0  0  0  0  0  0  0  0  0  # atno 8009 bound_to 7997
  156.1646  140.3109  155.8873 H   0  0  0  0  0  0  0  0  0  0  0  0  # atno 8010 bound_to 7997
  140.3395  144.2488  150.6157 H   0  0  0  0  0  0  0  0  0  0  0  0  # atno 10167 bound_to 10162
  156.6344  130.4910  149.6117 H   0  0  0  0  0  0  0  0  0  0  0  0  # atno 10718 bound_to 10713
  154.7779  135.4838  153.9782 H   0  0  0  0  0  0  0  0  0  0  0  0  # atno 10763 bound_to 10752
  153.1453  135.6780  153.8971 H   0  0  0  0  0  0  0  0  0  0  0  0  # atno 10764 bound_to 10752
  153.8633  135.3152  155.3417 H   0  0  0  0  0  0  0  0  0  0  0  0  # atno 10765 bound_to 10752
  141.0656  133.6695  156.3335 H   0  0  0  0  0  0  0  0  0  0  0  0  # atno 11005 bound_to 11000
  144.6889  139.9353  143.7473 LP  0  0  0  0  0  0  0  0  0  0  0  0  # atno 17320 bound_to 7965
  146.0522  139.3522  143.0632 LP  0  0  0  0  0  0  0  0  0  0  0  0  # atno 17321 bound_to 7965
  140.5322  143.2241  151.8220 LP  0  0  0  0  0  0  0  0  0  0  0  0  # atno 17342 bound_to 10162
  139.4843  144.4706  151.9430 LP  0  0  0  0  0  0  0  0  0  0  0  0  # atno 17343 bound_to 10162
  156.2209  130.6736  151.1367 LP  0  0  0  0  0  0  0  0  0  0  0  0  # atno 17370 bound_to 10713
  157.7190  131.0693  150.6212 LP  0  0  0  0  0  0  0  0  0  0  0  0  # atno 17371 bound_to 10713
  140.5779  134.5775  157.5473 LP  0  0  0  0  0  0  0  0  0  0  0  0  # atno 17394 bound_to 11000
  139.9474  134.7678  156.0530 LP  0  0  0  0  0  0  0  0  0  0  0  0  # atno 17395 bound_to 11000

$$$$
