AV-unprocessed.smi:2280|AV-procd|sdf|9191|dock6
  -GOLD-   2272012403D 1   1.00000     0.00000
 Structure written by MMmdl.
 41 42  0  0  0  0  0  0  0  0  1 V2000
  144.7083  139.2280  155.3190 C   0  0  0  0  0  0  0  0  0  0  0  0
  146.2142  139.0400  155.3689 C   0  0  0  0  0  0  0  0  0  0  0  0
  146.9337  139.6475  154.3356 N   0  0  0  0  0  0  0  0  0  0  0  0
  148.2208  139.5323  154.2917 C   0  0  0  0  0  0  0  0  0  0  0  0
  148.9295  138.8034  155.2604 N   0  0  0  0  0  0  0  0  0  0  0  0
  150.3903  138.7432  155.0901 C   0  0  0  0  0  0  0  0  0  0  0  0
  151.0925  140.0059  155.6383 C   0  0  2  0  0  0  0  0  0  0  0  0
  152.3432  140.1863  155.0054 O   0  0  0  0  0  0  0  0  0  0  0  0
  151.3431  139.9467  157.1542 C   0  0  0  0  0  0  0  0  0  0  0  0
  151.4438  141.2677  157.6710 O   0  0  0  0  0  0  0  0  0  0  0  0
  152.1834  141.4796  158.8156 C   0  0  0  0  0  0  0  0  0  0  0  0
  152.9336  140.4641  159.4619 C   0  0  0  0  0  0  0  0  0  0  0  0
  153.6664  140.7485  160.6288 C   0  0  0  0  0  0  0  0  0  0  0  0
  153.6599  142.0475  161.1649 C   0  0  0  0  0  0  0  0  0  0  0  0
  152.9190  143.0626  160.5331 C   0  0  0  0  0  0  0  0  0  0  0  0
  152.1793  142.7874  159.3606 C   0  0  0  0  0  0  0  0  0  0  0  0
  151.3786  143.8923  158.6780 C   0  0  0  0  0  0  0  0  0  0  0  0
  151.4391  145.0417  159.3513 F   0  0  0  0  0  0  0  0  0  0  0  0
  151.8556  144.1041  157.4511 F   0  0  0  0  0  0  0  0  0  0  0  0
  150.0984  143.5313  158.5862 F   0  0  0  0  0  0  0  0  0  0  0  0
  148.3081  138.1979  156.3136 C   0  0  0  0  0  0  0  0  0  0  0  0
  148.9432  137.5847  157.1739 O   0  0  0  0  0  0  0  0  0  0  0  0
  146.8426  138.3308  156.3461 C   0  0  0  0  0  0  0  0  0  0  0  0
  146.1113  137.6462  157.4944 C   0  0  0  0  0  0  0  0  0  0  0  0
  144.2053  138.2638  155.2421 H   0  0  0  0  0  0  0  0  0  0  0  0
  144.4111  139.8297  154.4593 H   0  0  0  0  0  0  0  0  0  0  0  0
  144.3569  139.7345  156.2180 H   0  0  0  0  0  0  0  0  0  0  0  0
  148.8295  139.9915  153.5109 H   0  0  0  0  0  0  0  0  0  0  0  0
  150.7628  137.8644  155.6202 H   0  0  0  0  0  0  0  0  0  0  0  0
  150.6745  138.5654  154.0505 H   0  0  0  0  0  0  0  0  0  0  0  0
  150.4923  140.8934  155.4339 H   0  0  0  0  0  0  0  0  0  0  0  0
  152.9891  140.3761  155.6690 H   0  0  0  0  0  0  0  0  0  0  0  0
  150.5502  139.3855  157.6519 H   0  0  0  0  0  0  0  0  0  0  0  0
  152.2835  139.4222  157.3319 H   0  0  0  0  0  0  0  0  0  0  0  0
  152.9633  139.4544  159.0822 H   0  0  0  0  0  0  0  0  0  0  0  0
  154.2342  139.9676  161.1133 H   0  0  0  0  0  0  0  0  0  0  0  0
  154.2226  142.2660  162.0606 H   0  0  0  0  0  0  0  0  0  0  0  0
  152.9265  144.0545  160.9598 H   0  0  0  0  0  0  0  0  0  0  0  0
  146.4764  138.0220  158.4509 H   0  0  0  0  0  0  0  0  0  0  0  0
  146.2880  136.5706  157.4635 H   0  0  0  0  0  0  0  0  0  0  0  0
  145.0341  137.8023  157.4719 H   0  0  0  0  0  0  0  0  0  0  0  0
  1  2  1  0  0  0  0
  1 25  1  0  0  0  0
  1 26  1  0  0  0  0
  1 27  1  0  0  0  0
  2 23  2  0  0  0  0
  2  3  1  0  0  0  0
  3  4  2  0  0  0  0
  4  5  1  0  0  0  0
  4 28  1  0  0  0  0
  5  6  1  0  0  0  0
  5 21  1  0  0  0  0
  6  7  1  0  0  0  0
  6 29  1  0  0  0  0
  6 30  1  0  0  0  0
  7  8  1  0  0  0  0
  7  9  1  0  0  0  0
  7 31  1  0  0  0  0
  8 32  1  0  0  0  0
  9 10  1  0  0  0  0
  9 33  1  0  0  0  0
  9 34  1  0  0  0  0
 10 11  1  0  0  0  0
 11 16  1  0  0  0  0
 11 12  2  0  0  0  0
 12 13  1  0  0  0  0
 12 35  1  0  0  0  0
 13 14  2  0  0  0  0
 13 36  1  0  0  0  0
 14 15  1  0  0  0  0
 14 37  1  0  0  0  0
 15 16  2  0  0  0  0
 15 38  1  0  0  0  0
 16 17  1  0  0  0  0
 17 18  1  0  0  0  0
 17 19  1  0  0  0  0
 17 20  1  0  0  0  0
 21 22  2  0  0  0  0
 21 23  1  0  0  0  0
 23 24  1  0  0  0  0
 24 39  1  0  0  0  0
 24 40  1  0  0  0  0
 24 41  1  0  0  0  0
M  END
> <s_m_source_file>
AV-unprocessed.smi

> <i_m_source_file_index>
2280

> <i_lp_mmshare_version>
43012

> <i_f3d_flags>
0

> <s_epik_input>
W0NIM11jMW5bY0hdbihjKD1PKWMxW0NIM10pW0NIMl1bQ0BIXShbT0hdKVtDSDJdT2MyW2NIXVtjSF1bY0hdW2NIXWMyQyhGKShGKUY=

> <s_epik_cmdline>
J2VwaWtfcHl0aG9uJywgJy1waCcsICc3LjAnLCAnLXRuJywgJzgnLCAnLW1hJywgJzIwMCcsICctbWV0YWxfYmluZGluZycsICctaW1hZScsICc8aW5maWxlLm1hZT4nLCAnLW9tYWUnLCAnPG91dGZpbGUubWFlPic=

> <r_lp_tautomer_probability>
1

> <r_epik_Ionization_Penalty>
3.7476e-05

> <r_epik_Ionization_Penalty_Charging>
8.44705e-08

> <r_epik_Ionization_Penalty_Neutral>
3.73915e-05

> <r_epik_State_Penalty>
-0

> <r_epik_Charging_Adjusted_Penalty>
8.44705e-08

> <i_epik_Tot_Q>
0

> <i_epik_Tot_abs_Q>
0

> <r_epik_Metal_State_Penalty>
-0

> <b_epik_Metal_Only>
0

> <s_lp_Force_Field>
OPLS_2005

> <r_lp_Energy>
25.7706

> <b_lp_Chiralities_Consistent>
1

> <s_lp_Variant>
AV-unprocessed.smi:2280-1

> <Gold.Version>
5.8.1

> <Gold.Id.Protein>
6NUR|6NUR_protein|mol2

> <Gold.PLP.Fitness>
43.3618

> <Gold.PLP.PLP>
-40.8543

> <Gold.PLP.part.hbond>
-1.2885

> <Gold.PLP.part.metal>
0.0000

> <Gold.PLP.part.buried>
-3.5150

> <Gold.PLP.part.nonpolar>
-35.3891

> <Gold.PLP.part.repulsive>
0.1256

> <Gold.PLP.ligand.clash>
0.3888

> <Gold.PLP.ligand.torsion>
1.0197

> <Gold.PLP.Chemscore.Hbond>
0.4736

> <Gold.PLP.Chemscore.CHOScore>
1.0000

> <Gold.PLP.Chemscore.Metal>
0.0000

> <Gold.Chemscore.Hbonds>
donor molecule, donor type, donor heavy atom, donor atom, acceptor molecule, acceptor atom, score
      P1  H  7989  7998       L1     8  0.47
      L1  C     4    28       P1  7957  1.00

> <Gold.PLP.Chemscore.Internal.Correction>
0.5150

> <Gold.Rescore>
     Score         DG    S(hbond)    S(metal)    S(lipo)     H(rot)  DE(clash)    DE(int)     intcor
      5.66      -9.20       0.04        0.00      90.40       2.73       0.04       3.50       ----

> <Gold.Chemscore.Fitness>
5.6613

> <Gold.Chemscore.DG>
-9.2036

> <Gold.Chemscore.ZeroCoef>
-5.4800

> <Gold.Chemscore.Hbond>
0.0407

> <Gold.Chemscore.Metal>
0.0000

> <Gold.Chemscore.Lipo>
90.3953

> <Gold.Chemscore.Internal_Hbond>
0.0000

> <Gold.Chemscore.DEClash>
0.0380

> <Gold.Chemscore.DEInternal>
3.5044

> <Gold.Chemscore.Rot>
2.7300

> <Gold.Chemscore.Internal.Correction>
   9.000000E+99

> <Gold.Chemscore.Hbonds>
donor molecule, donor type, donor heavy atom, donor atom, acceptor molecule, acceptor atom, score
      P1  H  7989  7998       L1     8  0.07

> <Gold.Chemscore.Hbond.Weighted>
-0.1361

> <Gold.Chemscore.Metal.Weighted>
-0.0000

> <Gold.Chemscore.Lipo.Weighted>
-10.5763

> <Gold.Chemscore.Internal_Hbond.Weighted>
0.0000

> <Gold.Chemscore.DEClash.Weighted>
0.0380

> <Gold.Chemscore.DEInternal.Weighted>
3.5044

> <Gold.Chemscore.Rot.Weighted>
6.9888

> <Gold.Chemscore.Internal.Correction.Weighted>
   9.000000E+99

> <Gold.Protein.RotatedTorsions>
[ 6907 6896 6895 6894 ] final  145.32 input  -60.11 | X-H torsion
[ 7974 7965 7964 7962 ] final  -86.13 input  175.53 | X-H torsion
[ 8008 7997 7996 7995 ] final  -17.86 input   59.86 | X-H torsion
[ 10167 10162 10161 10158 ] final  -90.11 input  -65.29 | X-H torsion
[ 10718 10713 10712 10709 ] final  -66.50 input   66.30 | X-H torsion
[ 10763 10752 10751 10750 ] final  -66.42 input  -60.55 | X-H torsion
[ 11005 11000 10999 10996 ] final  -27.02 input  -57.11 | X-H torsion

> <Gold.Protein.ActiveResidues>
 VAL166  LYS551  ARG553  GLY616  TRP617  ASP618  TYR619  PRO620  LYS621  CYS622 
 ASP623  PHE694  ASN695  SER759  ASP760  ASP761  ALA762  ILE779  LEU786  VAL792 
 PHE793  MET794  SER795  GLU796  ALA797  LYS798  CYS799  TRP800  GLU811  SER814 

> <Gold.Protein.RotatedAtoms>
  152.1823  133.4716  159.4964 H   0  0  0  0  0  0  0  0  0  0  0  0  # atno 6907 bound_to 6896
  150.6936  134.1817  159.4260 H   0  0  0  0  0  0  0  0  0  0  0  0  # atno 6908 bound_to 6896
  151.9729  135.0067  160.0604 H   0  0  0  0  0  0  0  0  0  0  0  0  # atno 6909 bound_to 6896
  145.4840  140.9556  143.1849 H   0  0  0  0  0  0  0  0  0  0  0  0  # atno 7974 bound_to 7965
  154.4947  140.2131  155.9472 H   0  0  0  0  0  0  0  0  0  0  0  0  # atno 8008 bound_to 7997
  156.1354  140.3189  155.8381 H   0  0  0  0  0  0  0  0  0  0  0  0  # atno 8009 bound_to 7997
  155.4219  140.0497  157.3016 H   0  0  0  0  0  0  0  0  0  0  0  0  # atno 8010 bound_to 7997
  140.3582  143.2856  151.9646 H   0  0  0  0  0  0  0  0  0  0  0  0  # atno 10167 bound_to 10162
  156.0609  130.4263  150.1718 H   0  0  0  0  0  0  0  0  0  0  0  0  # atno 10718 bound_to 10713
  154.3596  135.6119  153.5684 H   0  0  0  0  0  0  0  0  0  0  0  0  # atno 10763 bound_to 10752
  152.9794  135.5812  154.4648 H   0  0  0  0  0  0  0  0  0  0  0  0  # atno 10764 bound_to 10752
  154.4384  135.2849  155.1842 H   0  0  0  0  0  0  0  0  0  0  0  0  # atno 10765 bound_to 10752
  140.9081  133.7479  156.0634 H   0  0  0  0  0  0  0  0  0  0  0  0  # atno 11005 bound_to 11000
  144.7872  139.6402  143.7129 LP  0  0  0  0  0  0  0  0  0  0  0  0  # atno 17320 bound_to 7965
  146.2324  139.5839  142.9546 LP  0  0  0  0  0  0  0  0  0  0  0  0  # atno 17321 bound_to 7965
  139.4817  144.6016  151.7595 LP  0  0  0  0  0  0  0  0  0  0  0  0  # atno 17342 bound_to 10162
  140.5153  144.0962  150.6006 LP  0  0  0  0  0  0  0  0  0  0  0  0  # atno 17343 bound_to 10162
  156.9786  130.9857  151.3442 LP  0  0  0  0  0  0  0  0  0  0  0  0  # atno 17370 bound_to 10713
  157.5616  130.8250  149.8274 LP  0  0  0  0  0  0  0  0  0  0  0  0  # atno 17371 bound_to 10713
  140.8145  134.3361  157.5401 LP  0  0  0  0  0  0  0  0  0  0  0  0  # atno 17394 bound_to 11000
  139.8753  134.9273  156.3422 LP  0  0  0  0  0  0  0  0  0  0  0  0  # atno 17395 bound_to 11000

$$$$
