AV-unprocessed.smi:257|AV-procd|sdf|1964|dock3
  -GOLD-   2262021113D 1   1.00000     0.00000
 Structure written by MMmdl.
 50 53  0  0  0  0  0  0  0  0  1 V2000
  151.5698  143.9166  157.8522 C   0  0  0  0  0  0  0  0  0  0  0  0
  150.9451  142.8456  157.0914 N   0  0  0  0  0  0  0  0  0  0  0  0
  149.9724  142.0535  157.5640 C   0  0  0  0  0  0  0  0  0  0  0  0
  149.5181  142.1529  158.7047 O   0  0  0  0  0  0  0  0  0  0  0  0
  149.4472  140.9778  156.6025 C   0  0  1  0  0  0  0  0  0  0  0  0
  149.0868  141.5589  155.2288 C   0  0  0  0  0  0  0  0  0  0  0  0
  149.2062  140.3531  154.3057 C   0  0  0  0  0  0  0  0  0  0  0  0
  150.3917  139.5894  154.8945 C   0  0  0  0  0  0  0  0  0  0  0  0
  150.4568  139.9585  156.3060 N   0  0  0  0  0  0  0  0  0  0  0  0
  150.5124  138.9330  157.1845 C   0  0  0  0  0  0  0  0  0  0  0  0
  151.6130  138.8469  157.9701 N   0  0  0  0  0  0  0  0  0  0  0  0
  151.7164  137.8619  158.8675 C   0  0  0  0  0  0  0  0  0  0  0  0
  150.8494  136.8830  159.1373 N   0  0  0  0  0  0  0  0  0  0  0  0
  149.7395  136.9716  158.3493 C   0  0  0  0  0  0  0  0  0  0  0  0
  149.4916  137.9559  157.3527 C   0  0  0  0  0  0  0  0  0  0  0  0
  148.2574  137.7286  156.7558 N   0  0  0  0  0  0  0  0  0  0  0  0
  147.8017  136.6680  157.3648 C   0  0  0  0  0  0  0  0  0  0  0  0
  148.6220  136.1552  158.3447 N   0  0  0  0  0  0  0  0  0  0  0  0
  148.3586  134.9949  159.1818 C   0  0  0  0  0  0  0  0  0  0  0  0
  147.5003  135.3066  160.4329 C   0  0  0  0  0  0  0  0  0  0  0  0
  146.2999  135.9180  159.9916 O   0  0  0  0  0  0  0  0  0  0  0  0
  147.1378  134.0043  161.1743 C   0  0  0  0  0  0  0  0  0  0  0  0
  146.4289  134.2768  162.5129 C   0  0  0  0  0  0  0  0  0  0  0  0
  147.2319  135.1252  163.3247 O   0  0  0  0  0  0  0  0  0  0  0  0
  147.4376  136.4065  162.7425 C   0  0  0  0  0  0  0  0  0  0  0  0
  148.2049  136.2679  161.4156 C   0  0  0  0  0  0  0  0  0  0  0  0
  152.3167  144.4213  157.2397 H   0  0  0  0  0  0  0  0  0  0  0  0
  152.0659  143.5235  158.7404 H   0  0  0  0  0  0  0  0  0  0  0  0
  150.8296  144.6546  158.1644 H   0  0  0  0  0  0  0  0  0  0  0  0
  151.2694  142.6986  156.1465 H   0  0  0  0  0  0  0  0  0  0  0  0
  148.5593  140.5094  157.0328 H   0  0  0  0  0  0  0  0  0  0  0  0
  148.0906  142.0019  155.2086 H   0  0  0  0  0  0  0  0  0  0  0  0
  149.8023  142.3253  154.9243 H   0  0  0  0  0  0  0  0  0  0  0  0
  148.3024  139.7462  154.3756 H   0  0  0  0  0  0  0  0  0  0  0  0
  149.3515  140.6256  153.2602 H   0  0  0  0  0  0  0  0  0  0  0  0
  150.3029  138.5157  154.7205 H   0  0  0  0  0  0  0  0  0  0  0  0
  151.3192  139.9163  154.4235 H   0  0  0  0  0  0  0  0  0  0  0  0
  152.6224  137.8596  159.4553 H   0  0  0  0  0  0  0  0  0  0  0  0
  146.8440  136.2317  157.1199 H   0  0  0  0  0  0  0  0  0  0  0  0
  147.8713  134.2359  158.5677 H   0  0  0  0  0  0  0  0  0  0  0  0
  149.3172  134.5700  159.4824 H   0  0  0  0  0  0  0  0  0  0  0  0
  146.3532  136.8446  160.1697 H   0  0  0  0  0  0  0  0  0  0  0  0
  146.5162  133.3655  160.5454 H   0  0  0  0  0  0  0  0  0  0  0  0
  148.0486  133.4391  161.3766 H   0  0  0  0  0  0  0  0  0  0  0  0
  145.4475  134.7267  162.3554 H   0  0  0  0  0  0  0  0  0  0  0  0
  146.2633  133.3392  163.0438 H   0  0  0  0  0  0  0  0  0  0  0  0
  146.4807  136.9090  162.5931 H   0  0  0  0  0  0  0  0  0  0  0  0
  148.0089  137.0198  163.4396 H   0  0  0  0  0  0  0  0  0  0  0  0
  149.2044  135.8890  161.6330 H   0  0  0  0  0  0  0  0  0  0  0  0
  148.3412  137.2533  160.9685 H   0  0  0  0  0  0  0  0  0  0  0  0
  1  2  1  0  0  0  0
  1 27  1  0  0  0  0
  1 28  1  0  0  0  0
  1 29  1  0  0  0  0
  2  3  1  0  0  0  0
  2 30  1  0  0  0  0
  3  4  2  0  0  0  0
  3  5  1  0  0  0  0
  5  9  1  0  0  0  0
  5  6  1  0  0  0  0
  5 31  1  0  0  0  0
  6  7  1  0  0  0  0
  6 32  1  0  0  0  0
  6 33  1  0  0  0  0
  7  8  1  0  0  0  0
  7 34  1  0  0  0  0
  7 35  1  0  0  0  0
  8  9  1  0  0  0  0
  8 36  1  0  0  0  0
  8 37  1  0  0  0  0
  9 10  1  0  0  0  0
 10 15  1  0  0  0  0
 10 11  2  0  0  0  0
 11 12  1  0  0  0  0
 12 13  2  0  0  0  0
 12 38  1  0  0  0  0
 13 14  1  0  0  0  0
 14 18  1  0  0  0  0
 14 15  2  0  0  0  0
 15 16  1  0  0  0  0
 16 17  2  0  0  0  0
 17 18  1  0  0  0  0
 17 39  1  0  0  0  0
 18 19  1  0  0  0  0
 19 20  1  0  0  0  0
 19 40  1  0  0  0  0
 19 41  1  0  0  0  0
 20 26  1  0  0  0  0
 20 21  1  0  0  0  0
 20 22  1  0  0  0  0
 21 42  1  0  0  0  0
 22 23  1  0  0  0  0
 22 43  1  0  0  0  0
 22 44  1  0  0  0  0
 23 24  1  0  0  0  0
 23 45  1  0  0  0  0
 23 46  1  0  0  0  0
 24 25  1  0  0  0  0
 25 26  1  0  0  0  0
 25 47  1  0  0  0  0
 25 48  1  0  0  0  0
 26 49  1  0  0  0  0
 26 50  1  0  0  0  0
M  END
> <s_m_source_file>
AV-unprocessed.smi

> <i_m_source_file_index>
257

> <i_lp_mmshare_version>
43012

> <i_f3d_flags>
0

> <s_epik_input>
W0NIM11bTkhdQyg9TylbQ0BASF0xW0NIMl1bQ0gyXVtDSDJdTjFjKG5bY0hdbjIpYyhjMjMpbltjSF1uM1tDSDJdQzQoW09IXSlbQ0gyXVtDSDJdT1tDSDJdW0NIMl00

> <s_epik_cmdline>
J2VwaWtfcHl0aG9uJywgJy1waCcsICc3LjAnLCAnLXRuJywgJzgnLCAnLW1hJywgJzIwMCcsICctbWV0YWxfYmluZGluZycsICctaW1hZScsICc8aW5maWxlLm1hZT4nLCAnLW9tYWUnLCAnPG91dGZpbGUubWFlPic=

> <r_lp_tautomer_probability>
1

> <r_epik_Ionization_Penalty>
0.000951012

> <r_epik_Ionization_Penalty_Charging>
0

> <r_epik_Ionization_Penalty_Neutral>
0.000951012

> <r_epik_State_Penalty>
0.000495984

> <r_epik_Charging_Adjusted_Penalty>
0.000495984

> <i_epik_Tot_Q>
0

> <i_epik_Tot_abs_Q>
0

> <r_epik_Metal_State_Penalty>
-0

> <b_epik_Metal_Only>
0

> <s_lp_Force_Field>
OPLS_2005

> <r_lp_Energy>
37.7708

> <b_lp_Chiralities_Consistent>
1

> <s_lp_Variant>
AV-unprocessed.smi:257-2

> <Gold.Version>
5.8.1

> <Gold.Id.Protein>
6NUR|6NUR_protein|mol2

> <Gold.PLP.Fitness>
40.5767

> <Gold.PLP.PLP>
-38.6217

> <Gold.PLP.part.hbond>
-2.7856

> <Gold.PLP.part.metal>
0.0000

> <Gold.PLP.part.buried>
-3.9551

> <Gold.PLP.part.nonpolar>
-31.8072

> <Gold.PLP.part.repulsive>
0.1206

> <Gold.PLP.ligand.clash>
0.0000

> <Gold.PLP.ligand.torsion>
0.5830

> <Gold.PLP.Chemscore.Hbond>
0.9920

> <Gold.PLP.Chemscore.CHOScore>
0.0000

> <Gold.PLP.Chemscore.Metal>
0.0000

> <Gold.Chemscore.Hbonds>
donor molecule, donor type, donor heavy atom, donor atom, acceptor molecule, acceptor atom, score
      P1  H  6896  6907       L1    13  1.00

> <Gold.PLP.Chemscore.Internal.Correction>
0.1450

> <Gold.Rescore>
     Score         DG    S(hbond)    S(metal)    S(lipo)     H(rot)  DE(clash)    DE(int)     intcor
     11.11     -11.62       0.97        0.00      82.72       2.65       0.07       0.44       ----

> <Gold.Chemscore.Fitness>
11.1087

> <Gold.Chemscore.DG>
-11.6183

> <Gold.Chemscore.ZeroCoef>
-5.4800

> <Gold.Chemscore.Hbond>
0.9698

> <Gold.Chemscore.Metal>
0.0000

> <Gold.Chemscore.Lipo>
82.7213

> <Gold.Chemscore.Internal_Hbond>
0.0000

> <Gold.Chemscore.DEClash>
0.0695

> <Gold.Chemscore.DEInternal>
0.4401

> <Gold.Chemscore.Rot>
2.6482

> <Gold.Chemscore.Internal.Correction>
   9.000000E+99

> <Gold.Chemscore.Hbonds>
donor molecule, donor type, donor heavy atom, donor atom, acceptor molecule, acceptor atom, score
      P1  H  6896  6907       L1    13  0.60

> <Gold.Chemscore.Hbond.Weighted>
-3.2392

> <Gold.Chemscore.Metal.Weighted>
-0.0000

> <Gold.Chemscore.Lipo.Weighted>
-9.6784

> <Gold.Chemscore.Internal_Hbond.Weighted>
0.0000

> <Gold.Chemscore.DEClash.Weighted>
0.0695

> <Gold.Chemscore.DEInternal.Weighted>
0.4401

> <Gold.Chemscore.Rot.Weighted>
6.7793

> <Gold.Chemscore.Internal.Correction.Weighted>
   9.000000E+99

> <Gold.Protein.RotatedTorsions>
[ 6907 6896 6895 6894 ] final  -38.56 input  -60.11 | X-H torsion
[ 7974 7965 7964 7962 ] final -149.63 input  175.53 | X-H torsion
[ 8008 7997 7996 7995 ] final -169.79 input   59.86 | X-H torsion
[ 10167 10162 10161 10158 ] final   52.96 input  -65.29 | X-H torsion
[ 10718 10713 10712 10709 ] final  -26.71 input   66.30 | X-H torsion
[ 10763 10752 10751 10750 ] final  -26.00 input  -60.55 | X-H torsion
[ 11005 11000 10999 10996 ] final  150.83 input  -57.11 | X-H torsion

> <Gold.Protein.ActiveResidues>
 VAL166  LYS551  ARG553  GLY616  TRP617  ASP618  TYR619  PRO620  LYS621  CYS622 
 ASP623  PHE694  ASN695  SER759  ASP760  ASP761  ALA762  ILE779  LEU786  VAL792 
 PHE793  MET794  SER795  GLU796  ALA797  LYS798  CYS799  TRP800  GLU811  SER814 

> <Gold.Protein.RotatedAtoms>
  151.0010  134.9322  159.7953 H   0  0  0  0  0  0  0  0  0  0  0  0  # atno 6907 bound_to 6896
  152.5278  134.3154  159.9139 H   0  0  0  0  0  0  0  0  0  0  0  0  # atno 6908 bound_to 6896
  151.3160  133.4019  159.2685 H   0  0  0  0  0  0  0  0  0  0  0  0  # atno 6909 bound_to 6896
  144.7956  140.5039  143.5742 H   0  0  0  0  0  0  0  0  0  0  0  0  # atno 7974 bound_to 7965
  155.9097  140.1055  157.1288 H   0  0  0  0  0  0  0  0  0  0  0  0  # atno 8008 bound_to 7997
  154.4037  140.1276  156.4607 H   0  0  0  0  0  0  0  0  0  0  0  0  # atno 8009 bound_to 7997
  155.7324  140.3468  155.5068 H   0  0  0  0  0  0  0  0  0  0  0  0  # atno 8010 bound_to 7997
  140.2458  144.3533  150.6364 H   0  0  0  0  0  0  0  0  0  0  0  0  # atno 10167 bound_to 10162
  156.4477  130.4477  149.7011 H   0  0  0  0  0  0  0  0  0  0  0  0  # atno 10718 bound_to 10713
  153.7089  135.6952  153.5043 H   0  0  0  0  0  0  0  0  0  0  0  0  # atno 10763 bound_to 10752
  153.2287  135.4345  155.0570 H   0  0  0  0  0  0  0  0  0  0  0  0  # atno 10764 bound_to 10752
  154.8321  135.3479  154.6626 H   0  0  0  0  0  0  0  0  0  0  0  0  # atno 10765 bound_to 10752
  140.1165  134.8891  157.2012 H   0  0  0  0  0  0  0  0  0  0  0  0  # atno 11005 bound_to 11000
  145.5682  139.1482  143.3303 LP  0  0  0  0  0  0  0  0  0  0  0  0  # atno 17320 bound_to 7965
  146.2223  140.5816  142.9012 LP  0  0  0  0  0  0  0  0  0  0  0  0  # atno 17321 bound_to 7965
  140.6079  143.2168  151.6945 LP  0  0  0  0  0  0  0  0  0  0  0  0  # atno 17342 bound_to 10162
  139.5062  144.3689  152.0489 LP  0  0  0  0  0  0  0  0  0  0  0  0  # atno 17343 bound_to 10162
  156.3850  130.7598  151.2594 LP  0  0  0  0  0  0  0  0  0  0  0  0  # atno 17370 bound_to 10713
  157.7504  131.0284  150.4050 LP  0  0  0  0  0  0  0  0  0  0  0  0  # atno 17371 bound_to 10713
  140.3021  134.3120  155.7287 LP  0  0  0  0  0  0  0  0  0  0  0  0  # atno 17394 bound_to 11000
  141.2142  133.7598  156.9656 LP  0  0  0  0  0  0  0  0  0  0  0  0  # atno 17395 bound_to 11000

$$$$
