AV-unprocessed.smi:1394|AV-procd|sdf|5665|dock3
  -GOLD-   22720 5283D 1   1.00000     0.00000
 Structure written by MMmdl.
 41 42  0  0  0  0  0  0  0  0  1 V2000
  146.6598  142.4393  157.5591 C   0  0  0  0  0  0  0  0  0  0  0  0
  147.2244  142.2266  156.1426 C   0  0  2  0  0  0  0  0  0  0  0  0
  146.2946  141.3103  155.3213 C   0  0  0  0  0  0  0  0  0  0  0  0
  146.8241  141.0851  153.8974 C   0  0  0  0  0  0  0  0  0  0  0  0
  148.2475  140.5130  153.9253 C   0  0  0  0  0  0  0  0  0  0  0  0
  149.1908  141.4233  154.7249 C   0  0  0  0  0  0  0  0  0  0  0  0
  148.6704  141.6703  156.1574 C   0  0  1  0  0  0  0  0  0  0  0  0
  149.5602  142.5967  156.8542 N   0  0  0  0  0  0  0  0  0  0  0  0
  150.2806  142.3135  157.9497 C   0  0  0  0  0  0  0  0  0  0  0  0
  150.2842  141.2054  158.4881 O   0  0  0  0  0  0  0  0  0  0  0  0
  151.1349  143.4648  158.4997 C   0  0  0  0  0  0  0  0  0  0  0  0
  151.9120  143.1052  159.6985 N   0  0  0  0  0  0  0  0  0  0  0  0
  151.7477  143.9233  160.8305 C   0  0  0  0  0  0  0  0  0  0  0  0
  152.4022  143.6842  161.9748 C   0  0  0  0  0  0  0  0  0  0  0  0
  153.2938  142.5514  162.0266 C   0  0  0  0  0  0  0  0  0  0  0  0
  153.4773  141.7498  160.9519 C   0  0  0  0  0  0  0  0  0  0  0  0
  154.4113  140.5424  160.9927 C   0  0  0  0  0  0  0  0  0  0  0  0
  153.7753  139.4413  160.5903 F   0  0  0  0  0  0  0  0  0  0  0  0
  155.4591  140.7349  160.1907 F   0  0  0  0  0  0  0  0  0  0  0  0
  154.8752  140.3167  162.2230 F   0  0  0  0  0  0  0  0  0  0  0  0
  152.7538  142.0253  159.6936 C   0  0  0  0  0  0  0  0  0  0  0  0
  152.8916  141.3278  158.6870 O   0  0  0  0  0  0  0  0  0  0  0  0
  146.6412  141.5051  158.1210 H   0  0  0  0  0  0  0  0  0  0  0  0
  145.6404  142.8235  157.5200 H   0  0  0  0  0  0  0  0  0  0  0  0
  147.2523  143.1570  158.1268 H   0  0  0  0  0  0  0  0  0  0  0  0
  147.2425  143.2003  155.6497 H   0  0  0  0  0  0  0  0  0  0  0  0
  146.1884  140.3482  155.8242 H   0  0  0  0  0  0  0  0  0  0  0  0
  145.2949  141.7429  155.2711 H   0  0  0  0  0  0  0  0  0  0  0  0
  146.1616  140.4087  153.3565 H   0  0  0  0  0  0  0  0  0  0  0  0
  146.8182  142.0282  153.3496 H   0  0  0  0  0  0  0  0  0  0  0  0
  148.2342  139.5173  154.3702 H   0  0  0  0  0  0  0  0  0  0  0  0
  148.6204  140.3930  152.9078 H   0  0  0  0  0  0  0  0  0  0  0  0
  150.1844  140.9747  154.7569 H   0  0  0  0  0  0  0  0  0  0  0  0
  149.3002  142.3751  154.2032 H   0  0  0  0  0  0  0  0  0  0  0  0
  148.6605  140.7185  156.6928 H   0  0  0  0  0  0  0  0  0  0  0  0
  149.6225  143.5316  156.4776 H   0  0  0  0  0  0  0  0  0  0  0  0
  151.7981  143.8045  157.7031 H   0  0  0  0  0  0  0  0  0  0  0  0
  150.4891  144.3188  158.7132 H   0  0  0  0  0  0  0  0  0  0  0  0
  151.0668  144.7529  160.7065 H   0  0  0  0  0  0  0  0  0  0  0  0
  152.2669  144.3235  162.8348 H   0  0  0  0  0  0  0  0  0  0  0  0
  153.8173  142.3532  162.9499 H   0  0  0  0  0  0  0  0  0  0  0  0
  1  2  1  0  0  0  0
  1 23  1  0  0  0  0
  1 24  1  0  0  0  0
  1 25  1  0  0  0  0
  2  7  1  0  0  0  0
  2  3  1  0  0  0  0
  2 26  1  0  0  0  0
  3  4  1  0  0  0  0
  3 27  1  0  0  0  0
  3 28  1  0  0  0  0
  4  5  1  0  0  0  0
  4 29  1  0  0  0  0
  4 30  1  0  0  0  0
  5  6  1  0  0  0  0
  5 31  1  0  0  0  0
  5 32  1  0  0  0  0
  6  7  1  0  0  0  0
  6 33  1  0  0  0  0
  6 34  1  0  0  0  0
  7  8  1  0  0  0  0
  7 35  1  0  0  0  0
  8  9  1  0  0  0  0
  8 36  1  0  0  0  0
  9 10  2  0  0  0  0
  9 11  1  0  0  0  0
 11 12  1  0  0  0  0
 11 37  1  0  0  0  0
 11 38  1  0  0  0  0
 12 21  1  0  0  0  0
 12 13  1  0  0  0  0
 13 14  2  0  0  0  0
 13 39  1  0  0  0  0
 14 15  1  0  0  0  0
 14 40  1  0  0  0  0
 15 16  2  0  0  0  0
 15 41  1  0  0  0  0
 16 17  1  0  0  0  0
 16 21  1  0  0  0  0
 17 18  1  0  0  0  0
 17 19  1  0  0  0  0
 17 20  1  0  0  0  0
 21 22  2  0  0  0  0
M  END
> <s_m_source_file>
AV-unprocessed.smi

> <i_m_source_file_index>
1394

> <i_lp_mmshare_version>
43012

> <i_f3d_flags>
0

> <s_epik_input>
W0NIM11bQ0BASF0xW0NIMl1bQ0gyXVtDSDJdW0NIMl1bQ0BIXTFbTkhdQyg9TylbQ0gyXW4yW2NIXVtjSF1bY0hdYyhDKEYpKEYpRiljMj1P

> <s_epik_cmdline>
J2VwaWtfcHl0aG9uJywgJy1waCcsICc3LjAnLCAnLXRuJywgJzgnLCAnLW1hJywgJzIwMCcsICctbWV0YWxfYmluZGluZycsICctaW1hZScsICc8aW5maWxlLm1hZT4nLCAnLW9tYWUnLCAnPG91dGZpbGUubWFlPic=

> <r_lp_tautomer_probability>
1

> <r_epik_Ionization_Penalty>
2.11487e-08

> <r_epik_Ionization_Penalty_Charging>
2.10183e-09

> <r_epik_Ionization_Penalty_Neutral>
1.90469e-08

> <r_epik_State_Penalty>
-0

> <r_epik_Charging_Adjusted_Penalty>
2.10183e-09

> <i_epik_Tot_Q>
0

> <i_epik_Tot_abs_Q>
0

> <r_epik_Metal_State_Penalty>
-0

> <b_epik_Metal_Only>
0

> <s_lp_Force_Field>
OPLS_2005

> <r_lp_Energy>
20.2228

> <b_lp_Chiralities_Consistent>
1

> <s_lp_Variant>
AV-unprocessed.smi:1394-1

> <Gold.Version>
5.8.1

> <Gold.Id.Protein>
6NUR|6NUR_protein|mol2

> <Gold.PLP.Fitness>
48.6458

> <Gold.PLP.PLP>
-45.9890

> <Gold.PLP.part.hbond>
-1.1140

> <Gold.PLP.part.metal>
0.0000

> <Gold.PLP.part.buried>
-0.5009

> <Gold.PLP.part.nonpolar>
-43.0395

> <Gold.PLP.part.repulsive>
0.0257

> <Gold.PLP.ligand.clash>
0.1915

> <Gold.PLP.ligand.torsion>
0.1839

> <Gold.PLP.Chemscore.Hbond>
0.9600

> <Gold.PLP.Chemscore.CHOScore>
0.0000

> <Gold.PLP.Chemscore.Metal>
0.0000

> <Gold.Chemscore.Hbonds>
donor molecule, donor type, donor heavy atom, donor atom, acceptor molecule, acceptor atom, score
      L1  H     8    36       P1  8028  0.96

> <Gold.PLP.Chemscore.Internal.Correction>
0.3362

> <Gold.Rescore>
     Score         DG    S(hbond)    S(metal)    S(lipo)     H(rot)  DE(clash)    DE(int)     intcor
     10.04     -15.84       0.97        0.00      94.18       1.52       0.22       5.57       ----

> <Gold.Chemscore.Fitness>
10.0386

> <Gold.Chemscore.DG>
-15.8368

> <Gold.Chemscore.ZeroCoef>
-5.4800

> <Gold.Chemscore.Hbond>
0.9698

> <Gold.Chemscore.Metal>
0.0000

> <Gold.Chemscore.Lipo>
94.1839

> <Gold.Chemscore.Internal_Hbond>
0.0000

> <Gold.Chemscore.DEClash>
0.2245

> <Gold.Chemscore.DEInternal>
5.5736

> <Gold.Chemscore.Rot>
1.5242

> <Gold.Chemscore.Internal.Correction>
   9.000000E+99

> <Gold.Chemscore.Hbonds>
donor molecule, donor type, donor heavy atom, donor atom, acceptor molecule, acceptor atom, score
      L1  H     8    36       P1  8028  0.91

> <Gold.Chemscore.Hbond.Weighted>
-3.2391

> <Gold.Chemscore.Metal.Weighted>
-0.0000

> <Gold.Chemscore.Lipo.Weighted>
-11.0195

> <Gold.Chemscore.Internal_Hbond.Weighted>
0.0000

> <Gold.Chemscore.DEClash.Weighted>
0.2245

> <Gold.Chemscore.DEInternal.Weighted>
5.5736

> <Gold.Chemscore.Rot.Weighted>
3.9019

> <Gold.Chemscore.Internal.Correction.Weighted>
   9.000000E+99

> <Gold.Protein.RotatedTorsions>
[ 6907 6896 6895 6894 ] final -158.97 input  -60.11 | X-H torsion
[ 7974 7965 7964 7962 ] final  172.53 input  175.53 | X-H torsion
[ 8008 7997 7996 7995 ] final  151.81 input   59.86 | X-H torsion
[ 10167 10162 10161 10158 ] final -131.75 input  -65.29 | X-H torsion
[ 10718 10713 10712 10709 ] final -122.99 input   66.30 | X-H torsion
[ 10763 10752 10751 10750 ] final -144.79 input  -60.55 | X-H torsion
[ 11005 11000 10999 10996 ] final   59.39 input  -57.11 | X-H torsion

> <Gold.Protein.ActiveResidues>
 VAL166  LYS551  ARG553  GLY616  TRP617  ASP618  TYR619  PRO620  LYS621  CYS622 
 ASP623  PHE694  ASN695  SER759  ASP760  ASP761  ALA762  ILE779  LEU786  VAL792 
 PHE793  MET794  SER795  GLU796  ALA797  LYS798  CYS799  TRP800  GLU811  SER814 

> <Gold.Protein.RotatedAtoms>
  151.3264  133.4018  159.2658 H   0  0  0  0  0  0  0  0  0  0  0  0  # atno 6907 bound_to 6896
  150.9992  134.9309  159.7954 H   0  0  0  0  0  0  0  0  0  0  0  0  # atno 6908 bound_to 6896
  152.5270  134.3229  159.9207 H   0  0  0  0  0  0  0  0  0  0  0  0  # atno 6909 bound_to 6896
  144.7266  139.9512  143.6432 H   0  0  0  0  0  0  0  0  0  0  0  0  # atno 7974 bound_to 7965
  156.2657  140.2038  156.6234 H   0  0  0  0  0  0  0  0  0  0  0  0  # atno 8008 bound_to 7997
  154.6739  140.0547  157.0219 H   0  0  0  0  0  0  0  0  0  0  0  0  # atno 8009 bound_to 7997
  155.1097  140.3214  155.4528 H   0  0  0  0  0  0  0  0  0  0  0  0  # atno 8010 bound_to 7997
  139.9157  143.6441  152.2565 H   0  0  0  0  0  0  0  0  0  0  0  0  # atno 10167 bound_to 10162
  156.1465  130.6503  150.9849 H   0  0  0  0  0  0  0  0  0  0  0  0  # atno 10718 bound_to 10713
  154.8413  135.3431  154.6401 H   0  0  0  0  0  0  0  0  0  0  0  0  # atno 10763 bound_to 10752
  153.7012  135.6969  153.5067 H   0  0  0  0  0  0  0  0  0  0  0  0  # atno 10764 bound_to 10752
  153.2521  135.4350  155.0763 H   0  0  0  0  0  0  0  0  0  0  0  0  # atno 10765 bound_to 10752
  140.0307  134.6016  155.9511 H   0  0  0  0  0  0  0  0  0  0  0  0  # atno 11005 bound_to 11000
  146.0710  139.3699  143.0523 LP  0  0  0  0  0  0  0  0  0  0  0  0  # atno 17320 bound_to 7965
  145.7968  140.9789  143.1020 LP  0  0  0  0  0  0  0  0  0  0  0  0  # atno 17321 bound_to 7965
  139.6904  144.7647  151.1448 LP  0  0  0  0  0  0  0  0  0  0  0  0  # atno 17342 bound_to 10162
  140.7674  143.5597  150.9113 LP  0  0  0  0  0  0  0  0  0  0  0  0  # atno 17343 bound_to 10162
  157.6621  131.0879  150.7815 LP  0  0  0  0  0  0  0  0  0  0  0  0  # atno 17370 bound_to 10713
  156.7886  130.4882  149.5388 LP  0  0  0  0  0  0  0  0  0  0  0  0  # atno 17371 bound_to 10713
  141.1829  133.6550  156.5096 LP  0  0  0  0  0  0  0  0  0  0  0  0  # atno 17394 bound_to 11000
  140.4230  134.7170  157.4900 LP  0  0  0  0  0  0  0  0  0  0  0  0  # atno 17395 bound_to 11000

$$$$
