AV-unprocessed.smi:3095|AV-procd|sdf|11794|dock2
  -GOLD-   2272017173D 1   1.00000     0.00000
 Structure written by MMmdl.
 24 25  0  0  0  0  0  0  0  0  1 V2000
  152.5041  143.3961  161.7182 C   0  0  0  0  0  0  0  0  0  0  0  0
  152.7833  142.3203  160.7162 C   0  0  0  0  0  0  0  0  0  0  0  0
  153.6790  141.2879  160.8410 C   0  0  0  0  0  0  0  0  0  0  0  0
  153.6891  140.2637  159.4319 S   0  0  0  0  0  0  0  0  0  0  0  0
  152.4431  141.2815  158.7178 C   0  0  0  0  0  0  0  0  0  0  0  0
  151.8930  141.0454  157.3471 C   0  0  2  0  0  0  0  0  0  0  0  0
  150.3680  140.8256  157.3595 C   0  0  0  0  0  0  0  0  0  0  0  0
  149.8893  140.5245  156.0114 N   0  0  0  0  0  0  0  0  0  0  0  0
  150.6042  139.3843  155.4399 C   0  0  0  0  0  0  0  0  0  0  0  0
  152.1235  139.6297  155.4792 C   0  0  0  0  0  0  0  0  0  0  0  0
  152.5329  139.8859  156.8188 O   0  0  0  0  0  0  0  0  0  0  0  0
  152.0949  142.3091  159.4997 N   0  0  0  0  0  0  0  0  0  0  0  0
  153.1614  143.3146  162.5844 H   0  0  0  0  0  0  0  0  0  0  0  0
  151.4763  143.3415  162.0779 H   0  0  0  0  0  0  0  0  0  0  0  0
  152.6516  144.3856  161.2851 H   0  0  0  0  0  0  0  0  0  0  0  0
  154.3336  141.0695  161.6717 H   0  0  0  0  0  0  0  0  0  0  0  0
  152.1439  141.9104  156.7303 H   0  0  0  0  0  0  0  0  0  0  0  0
  150.1196  140.0029  158.0315 H   0  0  0  0  0  0  0  0  0  0  0  0
  149.8634  141.7109  157.7470 H   0  0  0  0  0  0  0  0  0  0  0  0
  148.8949  140.3224  156.0410 H   0  0  0  0  0  0  0  0  0  0  0  0
  150.3657  138.4788  155.9992 H   0  0  0  0  0  0  0  0  0  0  0  0
  150.2780  139.2138  154.4138 H   0  0  0  0  0  0  0  0  0  0  0  0
  152.6543  138.7518  155.1107 H   0  0  0  0  0  0  0  0  0  0  0  0
  152.4017  140.4639  154.8329 H   0  0  0  0  0  0  0  0  0  0  0  0
  1  2  1  0  0  0  0
  1 13  1  0  0  0  0
  1 14  1  0  0  0  0
  1 15  1  0  0  0  0
  2 12  1  0  0  0  0
  2  3  2  0  0  0  0
  3  4  1  0  0  0  0
  3 16  1  0  0  0  0
  4  5  1  0  0  0  0
  5  6  1  0  0  0  0
  5 12  2  0  0  0  0
  6 11  1  0  0  0  0
  6  7  1  0  0  0  0
  6 17  1  0  0  0  0
  7  8  1  0  0  0  0
  7 18  1  0  0  0  0
  7 19  1  0  0  0  0
  8  9  1  0  0  0  0
  8 20  1  0  0  0  0
  9 10  1  0  0  0  0
  9 21  1  0  0  0  0
  9 22  1  0  0  0  0
 10 11  1  0  0  0  0
 10 23  1  0  0  0  0
 10 24  1  0  0  0  0
M  END
> <s_m_source_file>
AV-unprocessed.smi

> <i_m_source_file_index>
3095

> <i_lp_mmshare_version>
43012

> <i_f3d_flags>
0

> <s_epik_input>
W0NIM11jMVtjSF1zYyhuMSlbQ0BASF0yW0NIMl1bTkhdW0NIMl1bQ0gyXU8y

> <s_epik_cmdline>
J2VwaWtfcHl0aG9uJywgJy1waCcsICc3LjAnLCAnLXRuJywgJzgnLCAnLW1hJywgJzIwMCcsICctbWV0YWxfYmluZGluZycsICctaW1hZScsICc8aW5maWxlLm1hZT4nLCAnLW9tYWUnLCAnPG91dGZpbGUubWFlPic=

> <r_epik_Ionization_Penalty>
0.982843

> <r_epik_Ionization_Penalty_Charging>
0

> <r_epik_Ionization_Penalty_Neutral>
0.982843

> <r_epik_State_Penalty>
2.16535

> <r_epik_Charging_Adjusted_Penalty>
2.16535

> <i_epik_Tot_Q>
0

> <i_epik_Tot_abs_Q>
0

> <r_epik_Metal_State_Penalty>
2.16288

> <b_epik_Metal_Only>
0

> <s_lp_Force_Field>
OPLS_2005

> <r_lp_Energy>
7.28811

> <b_lp_Chiralities_Consistent>
1

> <s_lp_Variant>
AV-unprocessed.smi:3095-3

> <Gold.Version>
5.8.1

> <Gold.Id.Protein>
6NUR|6NUR_protein|mol2

> <Gold.PLP.Fitness>
28.7380

> <Gold.PLP.PLP>
-25.7380

> <Gold.PLP.part.hbond>
-1.0000

> <Gold.PLP.part.metal>
0.0000

> <Gold.PLP.part.buried>
-3.3352

> <Gold.PLP.part.nonpolar>
-20.6871

> <Gold.PLP.part.repulsive>
0.0000

> <Gold.PLP.ligand.clash>
0.0000

> <Gold.PLP.ligand.torsion>
0.0055

> <Gold.PLP.Chemscore.Hbond>
1.0000

> <Gold.PLP.Chemscore.CHOScore>
0.0000

> <Gold.PLP.Chemscore.Metal>
0.0000

> <Gold.Chemscore.Hbonds>
donor molecule, donor type, donor heavy atom, donor atom, acceptor molecule, acceptor atom, score
      P1  H  7997  8008       L1    11  1.00

> <Gold.PLP.Chemscore.Internal.Correction>
0.0110

> <Gold.Rescore>
     Score         DG    S(hbond)    S(metal)    S(lipo)     H(rot)  DE(clash)    DE(int)     intcor
     13.83     -13.97       0.75        0.00      73.16       1.00       0.13       0.01       ----

> <Gold.Chemscore.Fitness>
13.8257

> <Gold.Chemscore.DG>
-13.9694

> <Gold.Chemscore.ZeroCoef>
-5.4800

> <Gold.Chemscore.Hbond>
0.7455

> <Gold.Chemscore.Metal>
0.0000

> <Gold.Chemscore.Lipo>
73.1561

> <Gold.Chemscore.Internal_Hbond>
0.0000

> <Gold.Chemscore.DEClash>
0.1321

> <Gold.Chemscore.DEInternal>
0.0116

> <Gold.Chemscore.Rot>
1.0000

> <Gold.Chemscore.Internal.Correction>
   9.000000E+99

> <Gold.Chemscore.Hbonds>
donor molecule, donor type, donor heavy atom, donor atom, acceptor molecule, acceptor atom, score
      P1  H  7997  8008       L1    11  0.22

> <Gold.Chemscore.Hbond.Weighted>
-2.4901

> <Gold.Chemscore.Metal.Weighted>
-0.0000

> <Gold.Chemscore.Lipo.Weighted>
-8.5593

> <Gold.Chemscore.Internal_Hbond.Weighted>
0.0000

> <Gold.Chemscore.DEClash.Weighted>
0.1321

> <Gold.Chemscore.DEInternal.Weighted>
0.0116

> <Gold.Chemscore.Rot.Weighted>
2.5600

> <Gold.Chemscore.Internal.Correction.Weighted>
   9.000000E+99

> <Gold.Protein.RotatedTorsions>
[ 6907 6896 6895 6894 ] final  141.30 input  -60.11 | X-H torsion
[ 7974 7965 7964 7962 ] final   47.32 input  175.53 | X-H torsion
[ 8008 7997 7996 7995 ] final  -55.11 input   59.86 | X-H torsion
[ 10167 10162 10161 10158 ] final  161.15 input  -65.29 | X-H torsion
[ 10718 10713 10712 10709 ] final  -48.97 input   66.30 | X-H torsion
[ 10763 10752 10751 10750 ] final  163.22 input  -60.55 | X-H torsion
[ 11005 11000 10999 10996 ] final   -5.08 input  -57.11 | X-H torsion

> <Gold.Protein.ActiveResidues>
 VAL166  LYS551  ARG553  GLY616  TRP617  ASP618  TYR619  PRO620  LYS621  CYS622 
 ASP623  PHE694  ASN695  SER759  ASP760  ASP761  ALA762  ILE779  LEU786  VAL792 
 PHE793  MET794  SER795  GLU796  ALA797  LYS798  CYS799  TRP800  GLU811  SER814 

> <Gold.Protein.RotatedAtoms>
  152.2326  133.5070  159.5224 H   0  0  0  0  0  0  0  0  0  0  0  0  # atno 6907 bound_to 6896
  150.7041  134.1196  159.4039 H   0  0  0  0  0  0  0  0  0  0  0  0  # atno 6908 bound_to 6896
  151.9117  135.0336  160.0565 H   0  0  0  0  0  0  0  0  0  0  0  0  # atno 6909 bound_to 6896
  146.0309  139.4762  142.9838 H   0  0  0  0  0  0  0  0  0  0  0  0  # atno 7974 bound_to 7965
  154.4184  140.1160  156.5424 H   0  0  0  0  0  0  0  0  0  0  0  0  # atno 8008 bound_to 7997
  155.6494  140.3496  155.4724 H   0  0  0  0  0  0  0  0  0  0  0  0  # atno 8009 bound_to 7997
  155.9805  140.1159  157.0721 H   0  0  0  0  0  0  0  0  0  0  0  0  # atno 8010 bound_to 7997
  139.4846  144.4565  151.8761 H   0  0  0  0  0  0  0  0  0  0  0  0  # atno 10167 bound_to 10162
  156.1937  130.4153  149.9336 H   0  0  0  0  0  0  0  0  0  0  0  0  # atno 10718 bound_to 10713
  154.2904  135.2761  155.2657 H   0  0  0  0  0  0  0  0  0  0  0  0  # atno 10763 bound_to 10752
  154.5139  135.5775  153.6630 H   0  0  0  0  0  0  0  0  0  0  0  0  # atno 10764 bound_to 10752
  152.9915  135.6188  154.3068 H   0  0  0  0  0  0  0  0  0  0  0  0  # atno 10765 bound_to 10752
  140.6873  133.9102  155.8594 H   0  0  0  0  0  0  0  0  0  0  0  0  # atno 11005 bound_to 11000
  145.7042  141.0126  143.1488 LP  0  0  0  0  0  0  0  0  0  0  0  0  # atno 17320 bound_to 7965
  144.7030  139.8681  143.7438 LP  0  0  0  0  0  0  0  0  0  0  0  0  # atno 17321 bound_to 7965
  140.4025  144.2475  150.5892 LP  0  0  0  0  0  0  0  0  0  0  0  0  # atno 17342 bound_to 10162
  140.5044  143.2308  151.8630 LP  0  0  0  0  0  0  0  0  0  0  0  0  # atno 17343 bound_to 10162
  156.7068  130.8954  151.3605 LP  0  0  0  0  0  0  0  0  0  0  0  0  # atno 17370 bound_to 10713
  157.6944  130.9267  150.0604 LP  0  0  0  0  0  0  0  0  0  0  0  0  # atno 17371 bound_to 10713
  141.0270  134.0810  157.4057 LP  0  0  0  0  0  0  0  0  0  0  0  0  # atno 17394 bound_to 11000
  139.8934  135.0130  156.6896 LP  0  0  0  0  0  0  0  0  0  0  0  0  # atno 17395 bound_to 11000

$$$$
