AV-unprocessed.smi:500|AV-procd|sdf|2738|dock7
  -GOLD-   2262023193D 1   1.00000     0.00000
 Structure written by MMmdl.
 44 46  0  0  0  0  0  0  0  0  2 V2000
  152.7687  138.6108  154.7883 C   0  0  0  0  0  0  0  0  0  0  0  0
  152.1114  139.7032  155.6345 C   0  0  0  0  0  0  0  0  0  0  0  0
  150.9492  140.1650  154.9613 O   0  0  0  0  0  0  0  0  0  0  0  0
  150.0098  140.8056  155.8122 C   0  0  0  0  0  0  0  0  0  0  0  0
  149.7816  140.0009  157.1037 C   0  0  0  0  0  0  0  0  0  0  0  0
  150.8700  140.1982  158.0628 N   0  0  0  0  0  0  0  0  0  0  0  0
  151.5202  139.2993  158.8660 C   0  0  0  0  0  0  0  0  0  0  0  0
  151.2095  137.8109  158.9149 C   0  0  2  0  0  0  0  0  0  0  0  0
  151.2627  137.1906  157.5118 C   0  0  0  0  0  0  0  0  0  0  0  0
  149.9042  137.5213  159.5150 N   0  5  0  0  0  0  0  0  0  0  0  0
  149.3155  136.2917  159.5162 C   0  0  0  0  0  0  0  0  0  0  0  0
  149.4199  135.3674  158.7027 O   0  0  0  0  0  0  0  0  0  0  0  0
  148.4355  136.0889  160.6913 C   0  0  0  0  0  0  0  0  0  0  0  0
  147.8809  134.9383  161.1865 C   0  0  0  0  0  0  0  0  0  0  0  0
  147.1228  135.3062  162.3325 C   0  0  0  0  0  0  0  0  0  0  0  0
  147.2654  136.6579  162.4582 C   0  0  0  0  0  0  0  0  0  0  0  0
  148.0596  137.1502  161.4698 O   0  0  0  0  0  0  0  0  0  0  0  0
  152.4706  139.8261  159.6465 N   0  0  0  0  0  0  0  0  0  0  0  0
  152.4561  141.1628  159.3099 C   0  0  0  0  0  0  0  0  0  0  0  0
  153.2411  142.2368  159.7869 C   0  0  0  0  0  0  0  0  0  0  0  0
  153.0454  143.5407  159.2876 C   0  0  0  0  0  0  0  0  0  0  0  0
  152.0634  143.7878  158.3067 C   0  0  0  0  0  0  0  0  0  0  0  0
  151.2702  142.7309  157.8199 C   0  0  0  0  0  0  0  0  0  0  0  0
  151.4691  141.4298  158.3220 C   0  0  0  0  0  0  0  0  0  0  0  0
  153.6694  138.2320  155.2720 H   0  0  0  0  0  0  0  0  0  0  0  0
  153.0509  138.9930  153.8070 H   0  0  0  0  0  0  0  0  0  0  0  0
  152.0899  137.7707  154.6390 H   0  0  0  0  0  0  0  0  0  0  0  0
  151.8615  139.3042  156.6176 H   0  0  0  0  0  0  0  0  0  0  0  0
  152.8109  140.5271  155.7832 H   0  0  0  0  0  0  0  0  0  0  0  0
  150.3180  141.8293  156.0255 H   0  0  0  0  0  0  0  0  0  0  0  0
  149.0676  140.8770  155.2683 H   0  0  0  0  0  0  0  0  0  0  0  0
  148.8472  140.3166  157.5680 H   0  0  0  0  0  0  0  0  0  0  0  0
  149.6567  138.9372  156.9055 H   0  0  0  0  0  0  0  0  0  0  0  0
  151.9958  137.3274  159.4952 H   0  0  0  0  0  0  0  0  0  0  0  0
  152.2402  137.3476  157.0552 H   0  0  0  0  0  0  0  0  0  0  0  0
  150.5143  137.6313  156.8519 H   0  0  0  0  0  0  0  0  0  0  0  0
  151.0855  136.1152  157.5469 H   0  0  0  0  0  0  0  0  0  0  0  0
  148.0078  133.9491  160.7721 H   0  0  0  0  0  0  0  0  0  0  0  0
  146.5472  134.6636  162.9819 H   0  0  0  0  0  0  0  0  0  0  0  0
  146.8906  137.3915  163.1564 H   0  0  0  0  0  0  0  0  0  0  0  0
  153.9959  142.0544  160.5372 H   0  0  0  0  0  0  0  0  0  0  0  0
  153.6522  144.3537  159.6579 H   0  0  0  0  0  0  0  0  0  0  0  0
  151.9198  144.7890  157.9276 H   0  0  0  0  0  0  0  0  0  0  0  0
  150.5186  142.9189  157.0679 H   0  0  0  0  0  0  0  0  0  0  0  0
  1  2  1  0  0  0  0
  1 25  1  0  0  0  0
  1 26  1  0  0  0  0
  1 27  1  0  0  0  0
  2  3  1  0  0  0  0
  2 28  1  0  0  0  0
  2 29  1  0  0  0  0
  3  4  1  0  0  0  0
  4  5  1  0  0  0  0
  4 30  1  0  0  0  0
  4 31  1  0  0  0  0
  5  6  1  0  0  0  0
  5 32  1  0  0  0  0
  5 33  1  0  0  0  0
  6 24  1  0  0  0  0
  6  7  1  0  0  0  0
  7  8  1  0  0  0  0
  7 18  2  0  0  0  0
  8  9  1  0  0  0  0
  8 10  1  0  0  0  0
  8 34  1  0  0  0  0
  9 35  1  0  0  0  0
  9 36  1  0  0  0  0
  9 37  1  0  0  0  0
 10 11  1  0  0  0  0
 11 12  2  0  0  0  0
 11 13  1  0  0  0  0
 13 17  1  0  0  0  0
 13 14  2  0  0  0  0
 14 15  1  0  0  0  0
 14 38  1  0  0  0  0
 15 16  2  0  0  0  0
 15 39  1  0  0  0  0
 16 17  1  0  0  0  0
 16 40  1  0  0  0  0
 18 19  1  0  0  0  0
 19 24  2  0  0  0  0
 19 20  1  0  0  0  0
 20 21  2  0  0  0  0
 20 41  1  0  0  0  0
 21 22  1  0  0  0  0
 21 42  1  0  0  0  0
 22 23  2  0  0  0  0
 22 43  1  0  0  0  0
 23 24  1  0  0  0  0
 23 44  1  0  0  0  0
M  CHG  1  10  -1
M  END
> <s_m_source_file>
AV-unprocessed.smi

> <i_m_source_file_index>
500

> <i_lp_mmshare_version>
43012

> <i_f3d_flags>
0

> <s_epik_input>
W0NIM11bQ0gyXU9bQ0gyXVtDSDJdbihjKGMxMilbY0hdW2NIXVtjSF1bY0hdMiljKG4xKVtDQEhdKFtDSDNdKVtOSF1DKD1PKWMzW2NIXVtjSF1bY0hdbzM=

> <s_epik_cmdline>
J2VwaWtfcHl0aG9uJywgJy1waCcsICc3LjAnLCAnLXRuJywgJzgnLCAnLW1hJywgJzIwMCcsICctbWV0YWxfYmluZGluZycsICctaW1hZScsICc8aW5maWxlLm1hZT4nLCAnLW9tYWUnLCAnPG91dGZpbGUubWFlPic=

> <r_epik_Ionization_Penalty>
7.31223

> <r_epik_Ionization_Penalty_Charging>
6.43826

> <r_epik_Ionization_Penalty_Neutral>
0.873973

> <r_epik_State_Penalty>
6.5378

> <r_epik_Charging_Adjusted_Penalty>
12.9761

> <i_epik_Tot_Q>
-1

> <i_epik_Tot_abs_Q>
1

> <r_epik_Metal_State_Penalty>
2.55818

> <b_epik_Metal_Only>
1

> <s_lp_Force_Field>
OPLS_2005

> <r_lp_Energy>
15.486

> <b_lp_Chiralities_Consistent>
1

> <s_lp_Variant>
AV-unprocessed.smi:500-5

> <Gold.Version>
5.8.1

> <Gold.Id.Protein>
6NUR|6NUR_protein|mol2

> <Gold.PLP.Fitness>
61.4260

> <Gold.PLP.PLP>
-52.0778

> <Gold.PLP.part.hbond>
-4.9969

> <Gold.PLP.part.metal>
0.0000

> <Gold.PLP.part.buried>
-6.1626

> <Gold.PLP.part.nonpolar>
-41.8967

> <Gold.PLP.part.repulsive>
0.0557

> <Gold.PLP.ligand.clash>
0.0000

> <Gold.PLP.ligand.torsion>
0.9919

> <Gold.PLP.Chemscore.Hbond>
3.6880

> <Gold.PLP.Chemscore.CHOScore>
0.0000

> <Gold.PLP.Chemscore.Metal>
0.0000

> <Gold.Chemscore.Hbonds>
donor molecule, donor type, donor heavy atom, donor atom, acceptor molecule, acceptor atom, score
      P1  H  6896  6909       L1    12  0.98
      P1  H  6931  6943       L1    17  1.00
      P1  H  6934  6947       L1    17  0.49
      P1  H  7989  7998       L1     3  1.00

> <Gold.PLP.Chemscore.Internal.Correction>
0.2680

> <Gold.Rescore>
     Score         DG    S(hbond)    S(metal)    S(lipo)     H(rot)  DE(clash)    DE(int)     intcor
     20.24     -22.22       2.04        0.00     125.09       1.84       0.06       1.91       ----

> <Gold.Chemscore.Fitness>
20.2433

> <Gold.Chemscore.DG>
-22.2171

> <Gold.Chemscore.ZeroCoef>
-5.4800

> <Gold.Chemscore.Hbond>
2.0382

> <Gold.Chemscore.Metal>
0.0000

> <Gold.Chemscore.Lipo>
125.0877

> <Gold.Chemscore.Internal_Hbond>
0.0000

> <Gold.Chemscore.DEClash>
0.0589

> <Gold.Chemscore.DEInternal>
1.9150

> <Gold.Chemscore.Rot>
1.8382

> <Gold.Chemscore.Internal.Correction>
   9.000000E+99

> <Gold.Chemscore.Hbonds>
donor molecule, donor type, donor heavy atom, donor atom, acceptor molecule, acceptor atom, score
      P1  H  6896  6909       L1    12  0.47
      P1  H  6931  6943       L1    17  0.83
      P1  H  6934  6947       L1    17  0.24
      P1  H  7989  7998       L1     3  0.35

> <Gold.Chemscore.Hbond.Weighted>
-6.8077

> <Gold.Chemscore.Metal.Weighted>
-0.0000

> <Gold.Chemscore.Lipo.Weighted>
-14.6353

> <Gold.Chemscore.Internal_Hbond.Weighted>
0.0000

> <Gold.Chemscore.DEClash.Weighted>
0.0589

> <Gold.Chemscore.DEInternal.Weighted>
1.9150

> <Gold.Chemscore.Rot.Weighted>
4.7059

> <Gold.Chemscore.Internal.Correction.Weighted>
   9.000000E+99

> <Gold.Protein.RotatedTorsions>
[ 6907 6896 6895 6894 ] final   27.88 input  -60.11 | X-H torsion
[ 7974 7965 7964 7962 ] final  -15.52 input  175.53 | X-H torsion
[ 8008 7997 7996 7995 ] final  -76.39 input   59.86 | X-H torsion
[ 10167 10162 10161 10158 ] final  -92.11 input  -65.29 | X-H torsion
[ 10718 10713 10712 10709 ] final  -78.25 input   66.30 | X-H torsion
[ 10763 10752 10751 10750 ] final -117.22 input  -60.55 | X-H torsion
[ 11005 11000 10999 10996 ] final  -38.48 input  -57.11 | X-H torsion

> <Gold.Protein.ActiveResidues>
 VAL166  LYS551  ARG553  GLY616  TRP617  ASP618  TYR619  PRO620  LYS621  CYS622 
 ASP623  PHE694  ASN695  SER759  ASP760  ASP761  ALA762  ILE779  LEU786  VAL792 
 PHE793  MET794  SER795  GLU796  ALA797  LYS798  CYS799  TRP800  GLU811  SER814 

> <Gold.Protein.RotatedAtoms>
  152.0088  134.9888  160.0567 H   0  0  0  0  0  0  0  0  0  0  0  0  # atno 6907 bound_to 6896
  152.1449  133.4481  159.4793 H   0  0  0  0  0  0  0  0  0  0  0  0  # atno 6908 bound_to 6896
  150.6869  134.2178  159.4428 H   0  0  0  0  0  0  0  0  0  0  0  0  # atno 6909 bound_to 6896
  146.2028  140.3504  142.8417 H   0  0  0  0  0  0  0  0  0  0  0  0  # atno 7974 bound_to 7965
  154.5501  140.0728  156.8654 H   0  0  0  0  0  0  0  0  0  0  0  0  # atno 8008 bound_to 7997
  155.3009  140.3384  155.4229 H   0  0  0  0  0  0  0  0  0  0  0  0  # atno 8009 bound_to 7997
  156.1954  140.1701  156.7995 H   0  0  0  0  0  0  0  0  0  0  0  0  # atno 8010 bound_to 7997
  140.3381  143.2957  151.9867 H   0  0  0  0  0  0  0  0  0  0  0  0  # atno 10167 bound_to 10162
  156.0122  130.4513  150.3468 H   0  0  0  0  0  0  0  0  0  0  0  0  # atno 10718 bound_to 10713
  154.8547  135.4317  154.1946 H   0  0  0  0  0  0  0  0  0  0  0  0  # atno 10763 bound_to 10752
  153.3006  135.6968  153.7212 H   0  0  0  0  0  0  0  0  0  0  0  0  # atno 10764 bound_to 10752
  153.6344  135.3479  155.3026 H   0  0  0  0  0  0  0  0  0  0  0  0  # atno 10765 bound_to 10752
  141.0030  133.6945  156.2058 H   0  0  0  0  0  0  0  0  0  0  0  0  # atno 11005 bound_to 11000
  144.8723  140.7289  143.6039 LP  0  0  0  0  0  0  0  0  0  0  0  0  # atno 17320 bound_to 7965
  145.3423  139.1729  143.4479 LP  0  0  0  0  0  0  0  0  0  0  0  0  # atno 17321 bound_to 7965
  139.4845  144.6180  151.7310 LP  0  0  0  0  0  0  0  0  0  0  0  0  # atno 17342 bound_to 10162
  140.5335  144.0693  150.6062 LP  0  0  0  0  0  0  0  0  0  0  0  0  # atno 17343 bound_to 10162
  157.1562  131.0333  151.2862 LP  0  0  0  0  0  0  0  0  0  0  0  0  # atno 17370 bound_to 10713
  157.4350  130.7512  149.7021 LP  0  0  0  0  0  0  0  0  0  0  0  0  # atno 17371 bound_to 10713
  140.6858  134.4719  157.5589 LP  0  0  0  0  0  0  0  0  0  0  0  0  # atno 17394 bound_to 11000
  139.9049  134.8472  156.1747 LP  0  0  0  0  0  0  0  0  0  0  0  0  # atno 17395 bound_to 11000

$$$$
