AV-unprocessed.smi:64|AV-procd|sdf|610|dock2
  -GOLD-   2262016503D 1   1.00000     0.00000
 Structure written by MMmdl.
 31 32  0  0  0  0  0  0  0  0  2 V2000
  153.3293  141.9698  161.3032 C   0  0  0  0  0  0  0  0  0  0  0  0
  152.3937  143.0441  160.7627 C   0  0  0  0  0  0  0  0  0  0  0  0
  151.2579  143.1905  161.2147 O   0  0  0  0  0  0  0  0  0  0  0  0
  152.9501  143.7670  159.7778 O   0  0  0  0  0  0  0  0  0  0  0  0
  152.1716  144.7379  159.0965 C   0  0  0  0  0  0  0  0  0  0  0  0
  150.9162  144.0784  158.5180 C   0  0  0  0  0  0  0  0  0  0  0  0
  151.2969  142.9410  157.7617 O   0  0  0  0  0  0  0  0  0  0  0  0
  150.9334  141.7461  158.3677 C   0  0  0  0  0  0  0  0  0  0  0  0
  151.4599  140.6632  157.5617 N   0  0  0  0  0  0  0  0  0  0  0  0
  152.4907  139.8504  157.8645 C   0  0  0  0  0  0  0  0  0  0  0  0
  152.7805  138.9299  156.9457 N   0  0  0  0  0  0  0  0  0  0  0  0
  151.8308  139.1905  155.9638 C   0  0  0  0  0  0  0  0  0  0  0  0
  151.5652  138.5500  154.6525 C   0  0  0  0  0  0  0  0  0  0  0  0
  152.2698  137.6089  154.2920 O   0  0  0  0  0  0  0  0  0  0  0  0
  150.5265  139.0819  153.9384 N   0  5  0  0  0  0  0  0  0  0  0  0
  149.7893  140.1586  154.4514 C   0  0  0  0  0  0  0  0  0  0  0  0
  148.7804  140.5653  153.6056 N   0  0  0  0  0  0  0  0  0  0  0  0
  149.9681  140.7723  155.5957 N   0  0  0  0  0  0  0  0  0  0  0  0
  151.0191  140.2349  156.3155 C   0  0  0  0  0  0  0  0  0  0  0  0
  154.2768  141.9690  160.7635 H   0  0  0  0  0  0  0  0  0  0  0  0
  152.8721  140.9860  161.1972 H   0  0  0  0  0  0  0  0  0  0  0  0
  153.5331  142.1441  162.3597 H   0  0  0  0  0  0  0  0  0  0  0  0
  151.8994  145.5549  159.7661 H   0  0  0  0  0  0  0  0  0  0  0  0
  152.7679  145.1615  158.2871 H   0  0  0  0  0  0  0  0  0  0  0  0
  150.2668  143.7643  159.3362 H   0  0  0  0  0  0  0  0  0  0  0  0
  150.3548  144.7876  157.9076 H   0  0  0  0  0  0  0  0  0  0  0  0
  151.3531  141.6743  159.3726 H   0  0  0  0  0  0  0  0  0  0  0  0
  149.8475  141.6521  158.4182 H   0  0  0  0  0  0  0  0  0  0  0  0
  153.0461  139.9370  158.7867 H   0  0  0  0  0  0  0  0  0  0  0  0
  148.5930  140.1338  152.7128 H   0  0  0  0  0  0  0  0  0  0  0  0
  148.1572  141.3300  153.8198 H   0  0  0  0  0  0  0  0  0  0  0  0
  1  2  1  0  0  0  0
  1 20  1  0  0  0  0
  1 21  1  0  0  0  0
  1 22  1  0  0  0  0
  2  3  2  0  0  0  0
  2  4  1  0  0  0  0
  4  5  1  0  0  0  0
  5  6  1  0  0  0  0
  5 23  1  0  0  0  0
  5 24  1  0  0  0  0
  6  7  1  0  0  0  0
  6 25  1  0  0  0  0
  6 26  1  0  0  0  0
  7  8  1  0  0  0  0
  8  9  1  0  0  0  0
  8 27  1  0  0  0  0
  8 28  1  0  0  0  0
  9 19  1  0  0  0  0
  9 10  1  0  0  0  0
 10 11  2  0  0  0  0
 10 29  1  0  0  0  0
 11 12  1  0  0  0  0
 12 19  2  0  0  0  0
 12 13  1  0  0  0  0
 13 14  2  0  0  0  0
 13 15  1  0  0  0  0
 15 16  1  0  0  0  0
 16 17  1  0  0  0  0
 16 18  2  0  0  0  0
 17 30  1  0  0  0  0
 17 31  1  0  0  0  0
 18 19  1  0  0  0  0
M  CHG  1  15  -1
M  END
> <s_m_source_file>
AV-unprocessed.smi

> <i_m_source_file_index>
64

> <i_lp_mmshare_version>
43012

> <i_f3d_flags>
0

> <s_epik_input>
W0NIM11DKD1PKU9bQ0gyXVtDSDJdT1tDSDJdbihbY0hdbjEpYyhjMTIpbmMoW05IMl0pW25IXWMyPU8=

> <s_epik_cmdline>
J2VwaWtfcHl0aG9uJywgJy1waCcsICc3LjAnLCAnLXRuJywgJzgnLCAnLW1hJywgJzIwMCcsICctbWV0YWxfYmluZGluZycsICctaW1hZScsICc8aW5maWxlLm1hZT4nLCAnLW9tYWUnLCAnPG91dGZpbGUubWFlPic=

> <r_lp_tautomer_probability>
1

> <r_epik_Ionization_Penalty>
3.5586

> <r_epik_Ionization_Penalty_Charging>
1.23364e-10

> <r_epik_Ionization_Penalty_Neutral>
3.5586

> <r_epik_State_Penalty>
3.54828

> <r_epik_Charging_Adjusted_Penalty>
3.54828

> <i_epik_Tot_Q>
-1

> <i_epik_Tot_abs_Q>
1

> <r_epik_Metal_State_Penalty>
0.517613

> <b_epik_Metal_Only>
1

> <s_epik_Chemistry_Notes>
This compound has an ester and may undergo hydrolysis at high or low pH. This compound contains an acetal/aminal-like group ( X-CH(R)-Y where X, Y are N, S, or O) that may be acid/base labile, releasing an aldehyde.

> <s_lp_Force_Field>
OPLS_2005

> <r_lp_Energy>
20.1337

> <b_lp_Chiralities_Consistent>
1

> <s_lp_Variant>
AV-unprocessed.smi:64-2

> <Gold.Version>
5.8.1

> <Gold.Id.Protein>
6NUR|6NUR_protein|mol2

> <Gold.PLP.Fitness>
42.4185

> <Gold.PLP.PLP>
-37.2987

> <Gold.PLP.part.hbond>
-4.7961

> <Gold.PLP.part.metal>
0.0000

> <Gold.PLP.part.buried>
-4.9538

> <Gold.PLP.part.nonpolar>
-28.8505

> <Gold.PLP.part.repulsive>
0.8722

> <Gold.PLP.ligand.clash>
0.0000

> <Gold.PLP.ligand.torsion>
0.5319

> <Gold.PLP.Chemscore.Hbond>
2.0393

> <Gold.PLP.Chemscore.CHOScore>
0.0000

> <Gold.PLP.Chemscore.Metal>
0.0000

> <Gold.Chemscore.Hbonds>
donor molecule, donor type, donor heavy atom, donor atom, acceptor molecule, acceptor atom, score
      L1  H    17    30       P1  7957  0.64
      P1  H  6933  6945       L1     3  0.24
      P1  H  7997  8008       L1    11  0.40
      P1  H 10752 10765       L1    14  0.71

> <Gold.PLP.Chemscore.Internal.Correction>
0.0658

> <Gold.Rescore>
     Score         DG    S(hbond)    S(metal)    S(lipo)     H(rot)  DE(clash)    DE(int)     intcor
      6.21      -8.03       2.42        0.00      38.88       3.93       0.03       1.79       ----

> <Gold.Chemscore.Fitness>
6.2074

> <Gold.Chemscore.DG>
-8.0274

> <Gold.Chemscore.ZeroCoef>
-5.4800

> <Gold.Chemscore.Hbond>
2.4163

> <Gold.Chemscore.Metal>
0.0000

> <Gold.Chemscore.Lipo>
38.8784

> <Gold.Chemscore.Internal_Hbond>
0.0000

> <Gold.Chemscore.DEClash>
0.0270

> <Gold.Chemscore.DEInternal>
1.7929

> <Gold.Chemscore.Rot>
3.9343

> <Gold.Chemscore.Internal.Correction>
   9.000000E+99

> <Gold.Chemscore.Hbonds>
donor molecule, donor type, donor heavy atom, donor atom, acceptor molecule, acceptor atom, score
      L1  H    17    30       P1  7957  0.64
      P1  H  6933  6945       L1     3  0.23
      P1  H 10752 10765       L1    14  0.67

> <Gold.Chemscore.Hbond.Weighted>
-8.0703

> <Gold.Chemscore.Metal.Weighted>
-0.0000

> <Gold.Chemscore.Lipo.Weighted>
-4.5488

> <Gold.Chemscore.Internal_Hbond.Weighted>
0.0000

> <Gold.Chemscore.DEClash.Weighted>
0.0270

> <Gold.Chemscore.DEInternal.Weighted>
1.7929

> <Gold.Chemscore.Rot.Weighted>
10.0717

> <Gold.Chemscore.Internal.Correction.Weighted>
   9.000000E+99

> <Gold.Protein.RotatedTorsions>
[ 6907 6896 6895 6894 ] final   73.11 input  -60.11 | X-H torsion
[ 7974 7965 7964 7962 ] final  -54.70 input  175.53 | X-H torsion
[ 8008 7997 7996 7995 ] final  -38.43 input   59.86 | X-H torsion
[ 10167 10162 10161 10158 ] final -165.43 input  -65.29 | X-H torsion
[ 10718 10713 10712 10709 ] final  130.10 input   66.30 | X-H torsion
[ 10763 10752 10751 10750 ] final  146.77 input  -60.55 | X-H torsion
[ 11005 11000 10999 10996 ] final   90.24 input  -57.11 | X-H torsion

> <Gold.Protein.ActiveResidues>
 VAL166  LYS551  ARG553  GLY616  TRP617  ASP618  TYR619  PRO620  LYS621  CYS622 
 ASP623  PHE694  ASN695  SER759  ASP760  ASP761  ALA762  ILE779  LEU786  VAL792 
 PHE793  MET794  SER795  GLU796  ALA797  LYS798  CYS799  TRP800  GLU811  SER814 

> <Gold.Protein.RotatedAtoms>
  152.4905  134.4471  159.9562 H   0  0  0  0  0  0  0  0  0  0  0  0  # atno 6907 bound_to 6896
  151.4459  133.3624  159.2796 H   0  0  0  0  0  0  0  0  0  0  0  0  # atno 6908 bound_to 6896
  150.9055  134.8493  159.7449 H   0  0  0  0  0  0  0  0  0  0  0  0  # atno 6909 bound_to 6896
  145.8825  140.8133  142.9832 H   0  0  0  0  0  0  0  0  0  0  0  0  # atno 7974 bound_to 7965
  154.4037  140.1578  156.2698 H   0  0  0  0  0  0  0  0  0  0  0  0  # atno 8008 bound_to 7997
  155.8963  140.3436  155.5971 H   0  0  0  0  0  0  0  0  0  0  0  0  # atno 8009 bound_to 7997
  155.7500  140.0803  157.2196 H   0  0  0  0  0  0  0  0  0  0  0  0  # atno 8010 bound_to 7997
  139.6182  144.0677  152.1908 H   0  0  0  0  0  0  0  0  0  0  0  0  # atno 10167 bound_to 10162
  157.5093  131.1096  150.9316 H   0  0  0  0  0  0  0  0  0  0  0  0  # atno 10718 bound_to 10713
  154.0273  135.2901  155.3373 H   0  0  0  0  0  0  0  0  0  0  0  0  # atno 10763 bound_to 10752
  154.7010  135.5188  153.8529 H   0  0  0  0  0  0  0  0  0  0  0  0  # atno 10764 bound_to 10752
  153.0655  135.6629  154.0489 H   0  0  0  0  0  0  0  0  0  0  0  0  # atno 10765 bound_to 10752
  139.8860  134.8601  156.3256 H   0  0  0  0  0  0  0  0  0  0  0  0  # atno 11005 bound_to 11000
  144.6727  140.1406  143.7437 LP  0  0  0  0  0  0  0  0  0  0  0  0  # atno 17320 bound_to 7965
  145.9006  139.2428  143.1496 LP  0  0  0  0  0  0  0  0  0  0  0  0  # atno 17321 bound_to 7965
  140.0312  144.6079  150.7486 LP  0  0  0  0  0  0  0  0  0  0  0  0  # atno 17342 bound_to 10162
  140.7365  143.2754  151.3759 LP  0  0  0  0  0  0  0  0  0  0  0  0  # atno 17343 bound_to 10162
  156.9961  130.5582  149.5307 LP  0  0  0  0  0  0  0  0  0  0  0  0  # atno 17370 bound_to 10713
  156.0279  130.5372  150.8455 LP  0  0  0  0  0  0  0  0  0  0  0  0  # atno 17371 bound_to 10713
  140.9757  133.7299  156.0599 LP  0  0  0  0  0  0  0  0  0  0  0  0  # atno 17394 bound_to 11000
  140.7814  134.3721  157.5486 LP  0  0  0  0  0  0  0  0  0  0  0  0  # atno 17395 bound_to 11000

$$$$
