AV-unprocessed.smi:244|AV-procd|sdf|1866|dock1
  -GOLD-   2262020503D 1   1.00000     0.00000
 Structure written by MMmdl.
 57 61  0  0  0  0  0  0  0  0  2 V2000
  148.7216  142.2778  158.1919 C   0  0  0  0  0  0  0  0  0  0  0  0
  149.7683  142.5164  157.1711 N   0  3  1  0  0  0  0  0  0  0  0  0
  151.0318  143.0642  157.7247 C   0  0  0  0  0  0  0  0  0  0  0  0
  151.8733  141.9782  158.4130 C   0  0  0  0  0  0  0  0  0  0  0  0
  152.1625  140.8164  157.4420 C   0  0  1  0  0  0  0  0  0  0  0  0
  152.9582  139.7918  158.0392 O   0  0  0  0  0  0  0  0  0  0  0  0
  152.2800  139.0085  159.0169 C   0  0  0  0  0  0  0  0  0  0  0  0
  151.0358  138.3638  158.3941 C   0  0  0  0  0  0  0  0  0  0  0  0
  150.1731  139.3789  157.8012 N   0  0  0  0  0  0  0  0  0  0  0  0
  148.9917  138.8321  157.4290 C   0  0  0  0  0  0  0  0  0  0  0  0
  148.0954  138.4226  158.3656 N   0  0  0  0  0  0  0  0  0  0  0  0
  146.9316  137.8859  157.9862 C   0  0  0  0  0  0  0  0  0  0  0  0
  146.4752  137.6713  156.7502 N   0  0  0  0  0  0  0  0  0  0  0  0
  147.3698  138.0905  155.8098 C   0  0  0  0  0  0  0  0  0  0  0  0
  148.6369  138.6844  156.0627 C   0  0  0  0  0  0  0  0  0  0  0  0
  149.2718  138.9872  154.8657 N   0  0  0  0  0  0  0  0  0  0  0  0
  148.4279  138.5893  153.9529 C   0  0  0  0  0  0  0  0  0  0  0  0
  147.2657  138.0256  154.4312 N   0  0  0  0  0  0  0  0  0  0  0  0
  146.1682  137.4918  153.6385 C   0  0  0  0  0  0  0  0  0  0  0  0
  146.1167  135.9399  153.5954 C   0  0  0  0  0  0  0  0  0  0  0  0
  147.4518  135.4675  153.6000 O   0  0  0  0  0  0  0  0  0  0  0  0
  145.3947  135.2999  154.8009 C   0  0  0  0  0  0  0  0  0  0  0  0
  143.8707  135.4944  154.7104 C   0  0  0  0  0  0  0  0  0  0  0  0
  143.3864  134.9553  153.4854 O   0  0  0  0  0  0  0  0  0  0  0  0
  143.9248  135.6045  152.3388 C   0  0  0  0  0  0  0  0  0  0  0  0
  145.4534  135.4265  152.3019 C   0  0  0  0  0  0  0  0  0  0  0  0
  150.8662  140.2337  156.8288 C   0  0  1  0  0  0  0  0  0  0  0  0
  149.9909  141.3778  156.2394 C   0  0  0  0  0  0  0  0  0  0  0  0
  149.0387  141.5554  158.9426 H   0  0  0  0  0  0  0  0  0  0  0  0
  147.8061  141.9082  157.7287 H   0  0  0  0  0  0  0  0  0  0  0  0
  148.4784  143.2070  158.7072 H   0  0  0  0  0  0  0  0  0  0  0  0
  151.6043  143.5033  156.9067 H   0  0  0  0  0  0  0  0  0  0  0  0
  150.8140  143.8773  158.4181 H   0  0  0  0  0  0  0  0  0  0  0  0
  152.8124  142.4074  158.7624 H   0  0  0  0  0  0  0  0  0  0  0  0
  151.3487  141.6303  159.3015 H   0  0  0  0  0  0  0  0  0  0  0  0
  152.7622  141.2219  156.6262 H   0  0  0  0  0  0  0  0  0  0  0  0
  152.9585  138.2334  159.3732 H   0  0  0  0  0  0  0  0  0  0  0  0
  152.0159  139.6084  159.8874 H   0  0  0  0  0  0  0  0  0  0  0  0
  151.3352  137.6505  157.6246 H   0  0  0  0  0  0  0  0  0  0  0  0
  150.4946  137.8027  159.1574 H   0  0  0  0  0  0  0  0  0  0  0  0
  146.2726  137.5835  158.7868 H   0  0  0  0  0  0  0  0  0  0  0  0
  148.6340  138.6879  152.8966 H   0  0  0  0  0  0  0  0  0  0  0  0
  145.2387  137.9010  154.0335 H   0  0  0  0  0  0  0  0  0  0  0  0
  146.2615  137.8901  152.6270 H   0  0  0  0  0  0  0  0  0  0  0  0
  147.8760  135.7587  152.8073 H   0  0  0  0  0  0  0  0  0  0  0  0
  145.5970  134.2279  154.8192 H   0  0  0  0  0  0  0  0  0  0  0  0
  145.7727  135.6890  155.7461 H   0  0  0  0  0  0  0  0  0  0  0  0
  143.3816  134.9791  155.5370 H   0  0  0  0  0  0  0  0  0  0  0  0
  143.5964  136.5465  154.7893 H   0  0  0  0  0  0  0  0  0  0  0  0
  143.4791  135.1633  151.4471 H   0  0  0  0  0  0  0  0  0  0  0  0
  143.6455  136.6584  152.3381 H   0  0  0  0  0  0  0  0  0  0  0  0
  145.8711  135.9283  151.4282 H   0  0  0  0  0  0  0  0  0  0  0  0
  145.6683  134.3642  152.1752 H   0  0  0  0  0  0  0  0  0  0  0  0
  151.1625  139.5851  156.0029 H   0  0  0  0  0  0  0  0  0  0  0  0
  149.0364  141.0194  155.8549 H   0  0  0  0  0  0  0  0  0  0  0  0
  150.5111  141.7830  155.3706 H   0  0  0  0  0  0  0  0  0  0  0  0
  149.3877  143.2541  156.5955 H   0  0  0  0  0  0  0  0  0  0  0  0
  1  2  1  0  0  0  0
  1 29  1  0  0  0  0
  1 30  1  0  0  0  0
  1 31  1  0  0  0  0
  2 28  1  0  0  0  0
  2  3  1  0  0  0  0
  2 57  1  0  0  0  0
  3  4  1  0  0  0  0
  3 32  1  0  0  0  0
  3 33  1  0  0  0  0
  4  5  1  0  0  0  0
  4 34  1  0  0  0  0
  4 35  1  0  0  0  0
  5 27  1  0  0  0  0
  5  6  1  0  0  0  0
  5 36  1  0  0  0  0
  6  7  1  0  0  0  0
  7  8  1  0  0  0  0
  7 37  1  0  0  0  0
  7 38  1  0  0  0  0
  8  9  1  0  0  0  0
  8 39  1  0  0  0  0
  8 40  1  0  0  0  0
  9 10  1  0  0  0  0
  9 27  1  0  0  0  0
 10 15  1  0  0  0  0
 10 11  2  0  0  0  0
 11 12  1  0  0  0  0
 12 13  2  0  0  0  0
 12 41  1  0  0  0  0
 13 14  1  0  0  0  0
 14 18  1  0  0  0  0
 14 15  2  0  0  0  0
 15 16  1  0  0  0  0
 16 17  2  0  0  0  0
 17 18  1  0  0  0  0
 17 42  1  0  0  0  0
 18 19  1  0  0  0  0
 19 20  1  0  0  0  0
 19 43  1  0  0  0  0
 19 44  1  0  0  0  0
 20 26  1  0  0  0  0
 20 21  1  0  0  0  0
 20 22  1  0  0  0  0
 21 45  1  0  0  0  0
 22 23  1  0  0  0  0
 22 46  1  0  0  0  0
 22 47  1  0  0  0  0
 23 24  1  0  0  0  0
 23 48  1  0  0  0  0
 23 49  1  0  0  0  0
 24 25  1  0  0  0  0
 25 26  1  0  0  0  0
 25 50  1  0  0  0  0
 25 51  1  0  0  0  0
 26 52  1  0  0  0  0
 26 53  1  0  0  0  0
 27 28  1  0  0  0  0
 27 54  1  0  0  0  0
 28 55  1  0  0  0  0
 28 56  1  0  0  0  0
M  CHG  1   2   1
M  END
> <s_m_source_file>
AV-unprocessed.smi

> <i_m_source_file_index>
244

> <i_lp_mmshare_version>
43012

> <i_f3d_flags>
0

> <s_epik_input>
W0NIMl0xW0NIMl1OKFtDSDNdKVtDSDJdW0NAQEhdKFtDQEhdMTIpTihbQ0gyXVtDSDJdTzIpYyhuW2NIXW4zKWMoYzM0KW5bY0hdbjRbQ0gyXUM1KFtPSF0pW0NIMl1bQ0gyXU9bQ0gyXVtDSDJdNQ==

> <s_epik_cmdline>
J2VwaWtfcHl0aG9uJywgJy1waCcsICc3LjAnLCAnLXRuJywgJzgnLCAnLW1hJywgJzIwMCcsICctbWV0YWxfYmluZGluZycsICctaW1hZScsICc8aW5maWxlLm1hZT4nLCAnLW9tYWUnLCAnPG91dGZpbGUubWFlPic=

> <r_lp_tautomer_probability>
1

> <r_epik_Ionization_Penalty>
0.0136215

> <r_epik_Ionization_Penalty_Charging>
0.0131385

> <r_epik_Ionization_Penalty_Neutral>
0.000483022

> <r_epik_State_Penalty>
0.0104001

> <r_epik_Charging_Adjusted_Penalty>
0.0235387

> <i_epik_Tot_Q>
1

> <i_epik_Tot_abs_Q>
1

> <r_epik_Metal_State_Penalty>
0.0104469

> <b_epik_Metal_Only>
0

> <s_lp_Force_Field>
OPLS_2005

> <r_lp_Energy>
49.6468

> <b_lp_Chiralities_Consistent>
1

> <s_lp_Variant>
AV-unprocessed.smi:244-3

> <Gold.Version>
5.8.1

> <Gold.Id.Protein>
6NUR|6NUR_protein|mol2

> <Gold.PLP.Fitness>
39.4882

> <Gold.PLP.PLP>
-24.3648

> <Gold.PLP.part.hbond>
-3.7540

> <Gold.PLP.part.metal>
0.0000

> <Gold.PLP.part.buried>
-4.8894

> <Gold.PLP.part.nonpolar>
-15.9112

> <Gold.PLP.part.repulsive>
0.2277

> <Gold.PLP.ligand.clash>
0.0000

> <Gold.PLP.ligand.torsion>
1.0263

> <Gold.PLP.Chemscore.Hbond>
4.0000

> <Gold.PLP.Chemscore.CHOScore>
1.6601

> <Gold.PLP.Chemscore.Metal>
0.0000

> <Gold.Chemscore.Hbonds>
donor molecule, donor type, donor heavy atom, donor atom, acceptor molecule, acceptor atom, score
      L1  H     2    57       P1  8028  2.00
      L1  H    21    45       P1  7948  0.93
      P1  H  7997  8010       L1     6  0.99
      L1  C    17    42       P1  7948  0.41
      L1  C    17    42       P1  7957  1.00

> <Gold.PLP.Chemscore.Internal.Correction>
0.1956

> <Gold.Rescore>
     Score         DG    S(hbond)    S(metal)    S(lipo)     H(rot)  DE(clash)    DE(int)     intcor
     13.41     -16.05       2.66        0.00      60.13       2.09       0.22       2.42       ----

> <Gold.Chemscore.Fitness>
13.4067

> <Gold.Chemscore.DG>
-16.0491

> <Gold.Chemscore.ZeroCoef>
-5.4800

> <Gold.Chemscore.Hbond>
2.6607

> <Gold.Chemscore.Metal>
0.0000

> <Gold.Chemscore.Lipo>
60.1308

> <Gold.Chemscore.Internal_Hbond>
0.0000

> <Gold.Chemscore.DEClash>
0.2213

> <Gold.Chemscore.DEInternal>
2.4210

> <Gold.Chemscore.Rot>
2.0911

> <Gold.Chemscore.Internal.Correction>
   9.000000E+99

> <Gold.Chemscore.Hbonds>
donor molecule, donor type, donor heavy atom, donor atom, acceptor molecule, acceptor atom, score
      L1  H     2    57       P1  8028  1.00
      L1  H    21    45       P1  7948  0.88
      P1  H  7997  8010       L1     6  0.32

> <Gold.Chemscore.Hbond.Weighted>
-8.8869

> <Gold.Chemscore.Metal.Weighted>
-0.0000

> <Gold.Chemscore.Lipo.Weighted>
-7.0353

> <Gold.Chemscore.Internal_Hbond.Weighted>
0.0000

> <Gold.Chemscore.DEClash.Weighted>
0.2213

> <Gold.Chemscore.DEInternal.Weighted>
2.4210

> <Gold.Chemscore.Rot.Weighted>
5.3531

> <Gold.Chemscore.Internal.Correction.Weighted>
   9.000000E+99

> <Gold.Protein.RotatedTorsions>
[ 6907 6896 6895 6894 ] final  114.62 input  -60.11 | X-H torsion
[ 7974 7965 7964 7962 ] final   46.63 input  175.53 | X-H torsion
[ 8008 7997 7996 7995 ] final   24.32 input   59.86 | X-H torsion
[ 10167 10162 10161 10158 ] final   75.80 input  -65.29 | X-H torsion
[ 10718 10713 10712 10709 ] final  132.18 input   66.30 | X-H torsion
[ 10763 10752 10751 10750 ] final  -91.67 input  -60.55 | X-H torsion
[ 11005 11000 10999 10996 ] final -167.98 input  -57.11 | X-H torsion

> <Gold.Protein.ActiveResidues>
 VAL166  LYS551  ARG553  GLY616  TRP617  ASP618  TYR619  PRO620  LYS621  CYS622 
 ASP623  PHE694  ASN695  SER759  ASP760  ASP761  ALA762  ILE779  LEU786  VAL792 
 PHE793  MET794  SER795  GLU796  ALA797  LYS798  CYS799  TRP800  GLU811  SER814 

> <Gold.Protein.RotatedAtoms>
  152.4791  133.8211  159.7053 H   0  0  0  0  0  0  0  0  0  0  0  0  # atno 6907 bound_to 6896
  150.8829  133.7338  159.2933 H   0  0  0  0  0  0  0  0  0  0  0  0  # atno 6908 bound_to 6896
  151.4836  135.1057  159.9836 H   0  0  0  0  0  0  0  0  0  0  0  0  # atno 6909 bound_to 6896
  146.0372  139.4836  142.9800 H   0  0  0  0  0  0  0  0  0  0  0  0  # atno 7974 bound_to 7965
  154.9945  140.3118  155.4892 H   0  0  0  0  0  0  0  0  0  0  0  0  # atno 8008 bound_to 7997
  156.2934  140.2243  156.4992 H   0  0  0  0  0  0  0  0  0  0  0  0  # atno 8009 bound_to 7997
  154.7673  140.0455  157.1011 H   0  0  0  0  0  0  0  0  0  0  0  0  # atno 8010 bound_to 7997
  139.9991  144.5700  150.7753 H   0  0  0  0  0  0  0  0  0  0  0  0  # atno 10167 bound_to 10162
  157.4896  131.1090  150.9574 H   0  0  0  0  0  0  0  0  0  0  0  0  # atno 10718 bound_to 10713
  154.6784  135.5259  153.8230 H   0  0  0  0  0  0  0  0  0  0  0  0  # atno 10763 bound_to 10752
  153.0548  135.6546  154.0614 H   0  0  0  0  0  0  0  0  0  0  0  0  # atno 10764 bound_to 10752
  154.0504  135.2970  155.3321 H   0  0  0  0  0  0  0  0  0  0  0  0  # atno 10765 bound_to 10752
  140.5471  134.5465  157.5114 H   0  0  0  0  0  0  0  0  0  0  0  0  # atno 11005 bound_to 11000
  145.6943  141.0155  143.1538 LP  0  0  0  0  0  0  0  0  0  0  0  0  # atno 17320 bound_to 7965
  144.7057  139.8570  143.7430 LP  0  0  0  0  0  0  0  0  0  0  0  0  # atno 17321 bound_to 7965
  140.7426  143.2834  151.3533 LP  0  0  0  0  0  0  0  0  0  0  0  0  # atno 17342 bound_to 10162
  139.6285  144.0767  152.2455 LP  0  0  0  0  0  0  0  0  0  0  0  0  # atno 17343 bound_to 10162
  157.0280  130.5700  149.5339 LP  0  0  0  0  0  0  0  0  0  0  0  0  # atno 17370 bound_to 10713
  156.0166  130.5260  150.8152 LP  0  0  0  0  0  0  0  0  0  0  0  0  # atno 17371 bound_to 10713
  139.9474  134.7678  156.0529 LP  0  0  0  0  0  0  0  0  0  0  0  0  # atno 17394 bound_to 11000
  141.1193  133.6618  156.3174 LP  0  0  0  0  0  0  0  0  0  0  0  0  # atno 17395 bound_to 11000

$$$$
