AV-unprocessed.smi:2944|AV-procd|sdf|11272|dock7
  -GOLD-   2272016163D 1   1.00000     0.00000
 Structure written by MMmdl.
 44 46  0  0  0  0  0  0  0  0  1 V2000
  153.8848  138.0294  159.1599 C   0  0  0  0  0  0  0  0  0  0  0  0
  154.4100  139.3228  158.9229 O   0  0  0  0  0  0  0  0  0  0  0  0
  153.6722  140.3394  159.5810 C   0  0  0  0  0  0  0  0  0  0  0  0
  152.2287  140.3508  159.0595 C   0  0  0  0  0  0  0  0  0  0  0  0
  151.8328  141.6678  158.5827 N   0  0  0  0  0  0  0  0  0  0  0  0
  151.3445  142.0116  157.3648 C   0  0  0  0  0  0  0  0  0  0  0  0
  151.0900  140.8127  156.0933 S   0  0  0  0  0  0  0  0  0  0  0  0
  149.2816  140.9312  155.9210 C   0  0  2  0  0  0  0  0  0  0  0  0
  148.6353  141.3288  157.2617 C   0  0  0  0  0  0  0  0  0  0  0  0
  148.7038  139.6169  155.3568 C   0  0  0  0  0  0  0  0  0  0  0  0
  148.9301  138.5746  155.9776 O   0  0  0  0  0  0  0  0  0  0  0  0
  147.9884  139.6592  154.1971 N   0  0  0  0  0  0  0  0  0  0  0  0
  147.4226  138.4800  153.5358 C   0  0  0  0  0  0  0  0  0  0  0  0
  146.6848  139.0375  152.3248 C   0  0  0  0  0  0  0  0  0  0  0  0
  146.9583  140.4480  152.4312 N   0  0  0  0  0  0  0  0  0  0  0  0
  147.6937  140.7805  153.4946 C   0  0  0  0  0  0  0  0  0  0  0  0
  148.0206  141.9393  153.7538 O   0  0  0  0  0  0  0  0  0  0  0  0
  151.0618  143.3052  157.2037 N   0  0  0  0  0  0  0  0  0  0  0  0
  151.3940  143.8482  158.4287 C   0  0  0  0  0  0  0  0  0  0  0  0
  151.3210  145.1805  158.8946 C   0  0  0  0  0  0  0  0  0  0  0  0
  151.7214  145.4995  160.2089 C   0  0  0  0  0  0  0  0  0  0  0  0
  152.1983  144.4934  161.0740 C   0  0  0  0  0  0  0  0  0  0  0  0
  152.2786  143.1600  160.6295 C   0  0  0  0  0  0  0  0  0  0  0  0
  151.8793  142.8478  159.3163 C   0  0  0  0  0  0  0  0  0  0  0  0
  154.4910  137.2882  158.6395 H   0  0  0  0  0  0  0  0  0  0  0  0
  152.8615  137.9461  158.7916 H   0  0  0  0  0  0  0  0  0  0  0  0
  153.8961  137.7879  160.2235 H   0  0  0  0  0  0  0  0  0  0  0  0
  153.6769  140.1654  160.6582 H   0  0  0  0  0  0  0  0  0  0  0  0
  154.1361  141.3108  159.4053 H   0  0  0  0  0  0  0  0  0  0  0  0
  152.1247  139.6416  158.2379 H   0  0  0  0  0  0  0  0  0  0  0  0
  151.5401  140.0170  159.8353 H   0  0  0  0  0  0  0  0  0  0  0  0
  149.0499  141.7337  155.2226 H   0  0  0  0  0  0  0  0  0  0  0  0
  147.5484  141.3697  157.1818 H   0  0  0  0  0  0  0  0  0  0  0  0
  148.9720  142.3134  157.5851 H   0  0  0  0  0  0  0  0  0  0  0  0
  148.8869  140.6225  158.0538 H   0  0  0  0  0  0  0  0  0  0  0  0
  148.2102  137.7957  153.2167 H   0  0  0  0  0  0  0  0  0  0  0  0
  146.7368  137.9416  154.1901 H   0  0  0  0  0  0  0  0  0  0  0  0
  147.0705  138.6380  151.3863 H   0  0  0  0  0  0  0  0  0  0  0  0
  145.6115  138.8518  152.3778 H   0  0  0  0  0  0  0  0  0  0  0  0
  146.6138  141.1171  151.7579 H   0  0  0  0  0  0  0  0  0  0  0  0
  150.9556  145.9583  158.2404 H   0  0  0  0  0  0  0  0  0  0  0  0
  151.6614  146.5209  160.5556 H   0  0  0  0  0  0  0  0  0  0  0  0
  152.5021  144.7459  162.0794 H   0  0  0  0  0  0  0  0  0  0  0  0
  152.6413  142.3867  161.2905 H   0  0  0  0  0  0  0  0  0  0  0  0
  1  2  1  0  0  0  0
  1 25  1  0  0  0  0
  1 26  1  0  0  0  0
  1 27  1  0  0  0  0
  2  3  1  0  0  0  0
  3  4  1  0  0  0  0
  3 28  1  0  0  0  0
  3 29  1  0  0  0  0
  4  5  1  0  0  0  0
  4 30  1  0  0  0  0
  4 31  1  0  0  0  0
  5 24  1  0  0  0  0
  5  6  1  0  0  0  0
  6  7  1  0  0  0  0
  6 18  2  0  0  0  0
  7  8  1  0  0  0  0
  8  9  1  0  0  0  0
  8 10  1  0  0  0  0
  8 32  1  0  0  0  0
  9 33  1  0  0  0  0
  9 34  1  0  0  0  0
  9 35  1  0  0  0  0
 10 11  2  0  0  0  0
 10 12  1  0  0  0  0
 12 16  1  0  0  0  0
 12 13  1  0  0  0  0
 13 14  1  0  0  0  0
 13 36  1  0  0  0  0
 13 37  1  0  0  0  0
 14 15  1  0  0  0  0
 14 38  1  0  0  0  0
 14 39  1  0  0  0  0
 15 16  1  0  0  0  0
 15 40  1  0  0  0  0
 16 17  2  0  0  0  0
 18 19  1  0  0  0  0
 19 24  2  0  0  0  0
 19 20  1  0  0  0  0
 20 21  2  0  0  0  0
 20 41  1  0  0  0  0
 21 22  1  0  0  0  0
 21 42  1  0  0  0  0
 22 23  2  0  0  0  0
 22 43  1  0  0  0  0
 23 24  1  0  0  0  0
 23 44  1  0  0  0  0
M  END
> <s_m_source_file>
AV-unprocessed.smi

> <i_m_source_file_index>
2944

> <i_lp_mmshare_version>
43012

> <i_f3d_flags>
0

> <s_epik_input>
W2NIXTFbY0hdW2NIXVtjSF1jKGMxMiluKFtDSDJdW0NIMl1PW0NIM10pYyhuMilTW0NASF0oW0NIM10pQyg9TylOM1tDSDJdW0NIMl1bTkhdQzM9Tw==

> <s_epik_cmdline>
J2VwaWtfcHl0aG9uJywgJy1waCcsICc3LjAnLCAnLXRuJywgJzgnLCAnLW1hJywgJzIwMCcsICctbWV0YWxfYmluZGluZycsICctaW1hZScsICc8aW5maWxlLm1hZT4nLCAnLW9tYWUnLCAnPG91dGZpbGUubWFlPic=

> <r_lp_tautomer_probability>
0.9999

> <r_epik_Ionization_Penalty>
0.0250226

> <r_epik_Ionization_Penalty_Charging>
0

> <r_epik_Ionization_Penalty_Neutral>
0.0250226

> <r_epik_State_Penalty>
0.0203222

> <r_epik_Charging_Adjusted_Penalty>
0.0203222

> <i_epik_Tot_Q>
0

> <i_epik_Tot_abs_Q>
0

> <r_epik_Metal_State_Penalty>
0.0194901

> <b_epik_Metal_Only>
0

> <s_lp_Force_Field>
OPLS_2005

> <r_lp_Energy>
42.2169

> <b_lp_Chiralities_Consistent>
1

> <s_lp_Variant>
AV-unprocessed.smi:2944-1

> <Gold.Version>
5.8.1

> <Gold.Id.Protein>
6NUR|6NUR_protein|mol2

> <Gold.PLP.Fitness>
46.0638

> <Gold.PLP.PLP>
-45.8214

> <Gold.PLP.part.hbond>
-3.1944

> <Gold.PLP.part.metal>
0.0000

> <Gold.PLP.part.buried>
-3.7347

> <Gold.PLP.part.nonpolar>
-39.8173

> <Gold.PLP.part.repulsive>
1.2281

> <Gold.PLP.ligand.clash>
1.7140

> <Gold.PLP.ligand.torsion>
0.7747

> <Gold.PLP.Chemscore.Hbond>
1.1430

> <Gold.PLP.Chemscore.CHOScore>
0.0000

> <Gold.PLP.Chemscore.Metal>
0.0000

> <Gold.Chemscore.Hbonds>
donor molecule, donor type, donor heavy atom, donor atom, acceptor molecule, acceptor atom, score
      P1  H  7997  8010       L1     2  1.00
      P1  H  8011  8017       L1    17  0.13

> <Gold.PLP.Chemscore.Internal.Correction>
0.0769

> <Gold.Rescore>
     Score         DG    S(hbond)    S(metal)    S(lipo)     H(rot)  DE(clash)    DE(int)     intcor
     14.65     -17.58       1.20        0.00     118.07       2.24       0.57       2.36       ----

> <Gold.Chemscore.Fitness>
14.6546

> <Gold.Chemscore.DG>
-17.5801

> <Gold.Chemscore.ZeroCoef>
-5.4800

> <Gold.Chemscore.Hbond>
1.2003

> <Gold.Chemscore.Metal>
0.0000

> <Gold.Chemscore.Lipo>
118.0736

> <Gold.Chemscore.Internal_Hbond>
0.0000

> <Gold.Chemscore.DEClash>
0.5685

> <Gold.Chemscore.DEInternal>
2.3570

> <Gold.Chemscore.Rot>
2.2357

> <Gold.Chemscore.Internal.Correction>
   9.000000E+99

> <Gold.Chemscore.Hbonds>
donor molecule, donor type, donor heavy atom, donor atom, acceptor molecule, acceptor atom, score
      P1  H  7997  8010       L1     2  0.74
      P1  H  8011  8017       L1    17  0.07

> <Gold.Chemscore.Hbond.Weighted>
-4.0089

> <Gold.Chemscore.Metal.Weighted>
-0.0000

> <Gold.Chemscore.Lipo.Weighted>
-13.8146

> <Gold.Chemscore.Internal_Hbond.Weighted>
0.0000

> <Gold.Chemscore.DEClash.Weighted>
0.5685

> <Gold.Chemscore.DEInternal.Weighted>
2.3570

> <Gold.Chemscore.Rot.Weighted>
5.7234

> <Gold.Chemscore.Internal.Correction.Weighted>
   9.000000E+99

> <Gold.Protein.RotatedTorsions>
[ 6907 6896 6895 6894 ] final   61.70 input  -60.11 | X-H torsion
[ 7974 7965 7964 7962 ] final   97.18 input  175.53 | X-H torsion
[ 8008 7997 7996 7995 ] final   -7.35 input   59.86 | X-H torsion
[ 10167 10162 10161 10158 ] final -111.69 input  -65.29 | X-H torsion
[ 10718 10713 10712 10709 ] final   83.10 input   66.30 | X-H torsion
[ 10763 10752 10751 10750 ] final  -13.22 input  -60.55 | X-H torsion
[ 11005 11000 10999 10996 ] final -133.52 input  -57.11 | X-H torsion

> <Gold.Protein.ActiveResidues>
 VAL166  LYS551  ARG553  GLY616  TRP617  ASP618  TYR619  PRO620  LYS621  CYS622 
 ASP623  PHE694  ASN695  SER759  ASP760  ASP761  ALA762  ILE779  LEU786  VAL792 
 PHE793  MET794  SER795  GLU796  ALA797  LYS798  CYS799  TRP800  GLU811  SER814 

> <Gold.Protein.RotatedAtoms>
  152.4111  134.6122  160.0028 H   0  0  0  0  0  0  0  0  0  0  0  0  # atno 6907 bound_to 6896
  151.6299  133.3327  159.3114 H   0  0  0  0  0  0  0  0  0  0  0  0  # atno 6908 bound_to 6896
  150.8002  134.7131  159.6660 H   0  0  0  0  0  0  0  0  0  0  0  0  # atno 6909 bound_to 6896
  145.4290  139.2313  143.3155 H   0  0  0  0  0  0  0  0  0  0  0  0  # atno 7974 bound_to 7965
  154.5847  140.2409  155.8004 H   0  0  0  0  0  0  0  0  0  0  0  0  # atno 8008 bound_to 7997
  156.2204  140.2999  155.9895 H   0  0  0  0  0  0  0  0  0  0  0  0  # atno 8009 bound_to 7997
  155.2479  140.0409  157.2973 H   0  0  0  0  0  0  0  0  0  0  0  0  # atno 8010 bound_to 7997
  140.1308  143.4362  152.1628 H   0  0  0  0  0  0  0  0  0  0  0  0  # atno 10167 bound_to 10162
  157.6872  131.0076  150.2474 H   0  0  0  0  0  0  0  0  0  0  0  0  # atno 10718 bound_to 10713
  153.5101  135.7016  153.5785 H   0  0  0  0  0  0  0  0  0  0  0  0  # atno 10763 bound_to 10752
  153.3879  135.3903  155.1903 H   0  0  0  0  0  0  0  0  0  0  0  0  # atno 10764 bound_to 10752
  154.8704  135.3851  154.4580 H   0  0  0  0  0  0  0  0  0  0  0  0  # atno 10765 bound_to 10752
  140.9073  134.1614  157.4416 H   0  0  0  0  0  0  0  0  0  0  0  0  # atno 11005 bound_to 11000
  146.2617  140.5024  142.8851 LP  0  0  0  0  0  0  0  0  0  0  0  0  # atno 17320 bound_to 7965
  144.8195  140.6526  143.6362 LP  0  0  0  0  0  0  0  0  0  0  0  0  # atno 17321 bound_to 7965
  139.5520  144.7345  151.4405 LP  0  0  0  0  0  0  0  0  0  0  0  0  # atno 17342 bound_to 10162
  140.6818  143.8065  150.7131 LP  0  0  0  0  0  0  0  0  0  0  0  0  # atno 17343 bound_to 10162
  156.3077  130.3767  149.7691 LP  0  0  0  0  0  0  0  0  0  0  0  0  # atno 17370 bound_to 10713
  156.5301  130.8254  151.3234 LP  0  0  0  0  0  0  0  0  0  0  0  0  # atno 17371 bound_to 10713
  139.8751  134.9922  156.5584 LP  0  0  0  0  0  0  0  0  0  0  0  0  # atno 17394 bound_to 11000
  140.8155  133.8395  155.8848 LP  0  0  0  0  0  0  0  0  0  0  0  0  # atno 17395 bound_to 11000

$$$$
