AV-unprocessed.smi:1900|AV-procd|sdf|7715|dock3
  -GOLD-   22720 9453D 1   1.00000     0.00000
 Structure written by MMmdl.
 43 44  0  0  0  0  0  0  0  0  1 V2000
  150.2554  137.6373  155.4579 C   0  0  0  0  0  0  0  0  0  0  0  0
  150.5211  138.6773  154.3559 C   0  0  1  0  0  0  0  0  0  0  0  0
  149.2990  138.9347  153.4519 C   0  0  0  0  0  0  0  0  0  0  0  0
  148.2609  139.7163  154.1146 N   0  0  0  0  0  0  0  0  0  0  0  0
  147.1183  139.9324  153.2260 C   0  0  0  0  0  0  0  0  0  0  0  0
  146.8061  138.7773  152.2568 C   0  0  0  0  0  0  0  0  0  0  0  0
  146.0871  137.5995  152.9384 C   0  0  0  0  0  0  0  0  0  0  0  0
  146.2335  136.3660  152.1744 N   0  0  0  0  0  0  0  0  0  0  0  0
  145.2485  135.4858  151.9452 C   0  0  0  0  0  0  0  0  0  0  0  0
  144.0969  135.6312  152.3558 O   0  0  0  0  0  0  0  0  0  0  0  0
  145.6834  134.4442  151.2178 N   0  0  0  0  0  0  0  0  0  0  0  0
  144.9306  133.3208  150.7927 C   0  0  0  0  0  0  0  0  0  0  0  0
  145.3804  132.0157  150.4357 C   0  0  0  0  0  0  0  0  0  0  0  0
  144.3651  131.2373  150.0884 N   0  0  0  0  0  0  0  0  0  0  0  0
  143.2769  132.0289  150.2193 N   0  0  0  0  0  0  0  0  0  0  0  0
  143.5758  133.3041  150.6451 C   0  0  0  0  0  0  0  0  0  0  0  0
  148.8426  140.9631  154.6029 C   0  0  0  0  0  0  0  0  0  0  0  0
  150.0269  140.7104  155.5532 C   0  0  2  0  0  0  0  0  0  0  0  0
  150.6968  142.0150  155.9975 C   0  0  0  0  0  0  0  0  0  0  0  0
  151.0057  139.9088  154.8937 O   0  0  0  0  0  0  0  0  0  0  0  0
  142.3481  131.6878  150.0161 H   0  0  0  0  0  0  0  0  0  0  0  0
  149.9924  136.6725  155.0239 H   0  0  0  0  0  0  0  0  0  0  0  0
  149.4357  137.9328  156.1125 H   0  0  0  0  0  0  0  0  0  0  0  0
  151.1413  137.4910  156.0761 H   0  0  0  0  0  0  0  0  0  0  0  0
  151.3218  138.2804  153.7315 H   0  0  0  0  0  0  0  0  0  0  0  0
  149.6298  139.4617  152.5554 H   0  0  0  0  0  0  0  0  0  0  0  0
  148.8905  137.9818  153.1130 H   0  0  0  0  0  0  0  0  0  0  0  0
  146.2306  140.1468  153.8229 H   0  0  0  0  0  0  0  0  0  0  0  0
  147.2968  140.8273  152.6283 H   0  0  0  0  0  0  0  0  0  0  0  0
  146.2272  139.1373  151.4067 H   0  0  0  0  0  0  0  0  0  0  0  0
  147.7455  138.4176  151.8356 H   0  0  0  0  0  0  0  0  0  0  0  0
  146.5023  137.4366  153.9331 H   0  0  0  0  0  0  0  0  0  0  0  0
  145.0279  137.8220  153.0789 H   0  0  0  0  0  0  0  0  0  0  0  0
  147.1494  136.1673  151.7991 H   0  0  0  0  0  0  0  0  0  0  0  0
  146.6547  134.4532  150.9434 H   0  0  0  0  0  0  0  0  0  0  0  0
  146.3800  131.6082  150.4141 H   0  0  0  0  0  0  0  0  0  0  0  0
  142.8212  134.0611  150.8005 H   0  0  0  0  0  0  0  0  0  0  0  0
  149.1718  141.5725  153.7595 H   0  0  0  0  0  0  0  0  0  0  0  0
  148.0941  141.5463  155.1379 H   0  0  0  0  0  0  0  0  0  0  0  0
  149.6725  140.1892  156.4431 H   0  0  0  0  0  0  0  0  0  0  0  0
  149.9909  142.6579  156.5241 H   0  0  0  0  0  0  0  0  0  0  0  0
  151.0843  142.5714  155.1438 H   0  0  0  0  0  0  0  0  0  0  0  0
  151.5301  141.8144  156.6716 H   0  0  0  0  0  0  0  0  0  0  0  0
  1  2  1  0  0  0  0
  1 22  1  0  0  0  0
  1 23  1  0  0  0  0
  1 24  1  0  0  0  0
  2 20  1  0  0  0  0
  2  3  1  0  0  0  0
  2 25  1  0  0  0  0
  3  4  1  0  0  0  0
  3 26  1  0  0  0  0
  3 27  1  0  0  0  0
  4  5  1  0  0  0  0
  4 17  1  0  0  0  0
  5  6  1  0  0  0  0
  5 28  1  0  0  0  0
  5 29  1  0  0  0  0
  6  7  1  0  0  0  0
  6 30  1  0  0  0  0
  6 31  1  0  0  0  0
  7  8  1  0  0  0  0
  7 32  1  0  0  0  0
  7 33  1  0  0  0  0
  8  9  1  0  0  0  0
  8 34  1  0  0  0  0
  9 10  2  0  0  0  0
  9 11  1  0  0  0  0
 11 12  1  0  0  0  0
 11 35  1  0  0  0  0
 12 16  2  0  0  0  0
 12 13  1  0  0  0  0
 13 14  2  0  0  0  0
 13 36  1  0  0  0  0
 14 15  1  0  0  0  0
 15 21  1  0  0  0  0
 15 16  1  0  0  0  0
 16 37  1  0  0  0  0
 17 18  1  0  0  0  0
 17 38  1  0  0  0  0
 17 39  1  0  0  0  0
 18 19  1  0  0  0  0
 18 20  1  0  0  0  0
 18 40  1  0  0  0  0
 19 41  1  0  0  0  0
 19 42  1  0  0  0  0
 19 43  1  0  0  0  0
M  END
> <s_m_source_file>
AV-unprocessed.smi

> <i_m_source_file_index>
1900

> <i_lp_mmshare_version>
43012

> <i_f3d_flags>
0

> <s_epik_input>
W0NIM11bQ0BASF0xW0NIMl1OKFtDSDJdW0NASF0oTzEpW0NIM10pW0NIMl1bQ0gyXVtDSDJdW05IXUMoPU8pW05IXWMyW2NIXW5bbkhdW2NIXTI=

> <s_epik_cmdline>
J2VwaWtfcHl0aG9uJywgJy1waCcsICc3LjAnLCAnLXRuJywgJzgnLCAnLW1hJywgJzIwMCcsICctbWV0YWxfYmluZGluZycsICctaW1hZScsICc8aW5maWxlLm1hZT4nLCAnLW9tYWUnLCAnPG91dGZpbGUubWFlPic=

> <r_lp_tautomer_probability>
0.5

> <r_epik_Ionization_Penalty>
0.594715

> <r_epik_Ionization_Penalty_Charging>
0

> <r_epik_Ionization_Penalty_Neutral>
0.594715

> <r_epik_State_Penalty>
0.608529

> <r_epik_Charging_Adjusted_Penalty>
0.608529

> <i_epik_Tot_Q>
0

> <i_epik_Tot_abs_Q>
0

> <r_epik_Metal_State_Penalty>
0.608528

> <b_epik_Metal_Only>
0

> <s_lp_Force_Field>
OPLS_2005

> <r_lp_Energy>
28.5506

> <b_lp_Chiralities_Consistent>
1

> <s_lp_Variant>
AV-unprocessed.smi:1900-7

> <Gold.Version>
5.8.1

> <Gold.Id.Protein>
6NUR|6NUR_protein|mol2

> <Gold.PLP.Fitness>
42.6408

> <Gold.PLP.PLP>
-29.6770

> <Gold.PLP.part.hbond>
-3.6924

> <Gold.PLP.part.metal>
0.0000

> <Gold.PLP.part.buried>
0.7961

> <Gold.PLP.part.nonpolar>
-27.8184

> <Gold.PLP.part.repulsive>
0.5847

> <Gold.PLP.ligand.clash>
0.0000

> <Gold.PLP.ligand.torsion>
0.6755

> <Gold.PLP.Chemscore.Hbond>
2.7774

> <Gold.PLP.Chemscore.CHOScore>
1.9797

> <Gold.PLP.Chemscore.Metal>
0.0000

> <Gold.Chemscore.Hbonds>
donor molecule, donor type, donor heavy atom, donor atom, acceptor molecule, acceptor atom, score
      L1  H     8    34       P1  7948  1.00
      L1  H    15    21       P1 10952  0.88
      P1  H  7989  7998       L1    20  1.00
      P1  H 10785 10796       L1    14  0.14
      L1  C    13    36       P1 10747  0.58
      L1  C    16    37       P1 10186  0.95

> <Gold.PLP.Chemscore.Internal.Correction>
0.0434

> <Gold.Rescore>
     Score         DG    S(hbond)    S(metal)    S(lipo)     H(rot)  DE(clash)    DE(int)     intcor
     14.48     -18.05       2.20        0.00      85.91       1.88       1.68       1.90       ----

> <Gold.Chemscore.Fitness>
14.4788

> <Gold.Chemscore.DG>
-18.0550

> <Gold.Chemscore.ZeroCoef>
-5.4800

> <Gold.Chemscore.Hbond>
2.1965

> <Gold.Chemscore.Metal>
0.0000

> <Gold.Chemscore.Lipo>
85.9069

> <Gold.Chemscore.Internal_Hbond>
0.0000

> <Gold.Chemscore.DEClash>
1.6805

> <Gold.Chemscore.DEInternal>
1.8956

> <Gold.Chemscore.Rot>
1.8799

> <Gold.Chemscore.Internal.Correction>
   9.000000E+99

> <Gold.Chemscore.Hbonds>
donor molecule, donor type, donor heavy atom, donor atom, acceptor molecule, acceptor atom, score
      L1  H     8    34       P1  7948  0.98
      L1  H    15    21       P1 10952  0.79
      P1  H  7989  7998       L1    20  0.36

> <Gold.Chemscore.Hbond.Weighted>
-7.3364

> <Gold.Chemscore.Metal.Weighted>
-0.0000

> <Gold.Chemscore.Lipo.Weighted>
-10.0511

> <Gold.Chemscore.Internal_Hbond.Weighted>
0.0000

> <Gold.Chemscore.DEClash.Weighted>
1.6805

> <Gold.Chemscore.DEInternal.Weighted>
1.8956

> <Gold.Chemscore.Rot.Weighted>
4.8126

> <Gold.Chemscore.Internal.Correction.Weighted>
   9.000000E+99

> <Gold.Protein.RotatedTorsions>
[ 6907 6896 6895 6894 ] final  -51.86 input  -60.11 | X-H torsion
[ 7974 7965 7964 7962 ] final  109.22 input  175.53 | X-H torsion
[ 8008 7997 7996 7995 ] final  118.11 input   59.86 | X-H torsion
[ 10167 10162 10161 10158 ] final  -93.65 input  -65.29 | X-H torsion
[ 10718 10713 10712 10709 ] final   64.89 input   66.30 | X-H torsion
[ 10763 10752 10751 10750 ] final  -49.85 input  -60.55 | X-H torsion
[ 11005 11000 10999 10996 ] final  -88.73 input  -57.11 | X-H torsion

> <Gold.Protein.ActiveResidues>
 VAL166  LYS551  ARG553  GLY616  TRP617  ASP618  TYR619  PRO620  LYS621  CYS622 
 ASP623  PHE694  ASN695  SER759  ASP760  ASP761  ALA762  ILE779  LEU786  VAL792 
 PHE793  MET794  SER795  GLU796  ALA797  LYS798  CYS799  TRP800  GLU811  SER814 

> <Gold.Protein.RotatedAtoms>
  150.8572  134.7914  159.7054 H   0  0  0  0  0  0  0  0  0  0  0  0  # atno 6907 bound_to 6896
  152.4620  134.5159  159.9778 H   0  0  0  0  0  0  0  0  0  0  0  0  # atno 6908 bound_to 6896
  151.5269  133.3418  159.2947 H   0  0  0  0  0  0  0  0  0  0  0  0  # atno 6909 bound_to 6896
  145.2705  139.2668  143.3968 H   0  0  0  0  0  0  0  0  0  0  0  0  # atno 7974 bound_to 7965
  156.2529  140.2882  156.0783 H   0  0  0  0  0  0  0  0  0  0  0  0  # atno 8008 bound_to 7997
  155.1595  140.0399  157.2856 H   0  0  0  0  0  0  0  0  0  0  0  0  # atno 8009 bound_to 7997
  154.6403  140.2520  155.7336 H   0  0  0  0  0  0  0  0  0  0  0  0  # atno 8010 bound_to 7997
  140.3225  143.3041  152.0031 H   0  0  0  0  0  0  0  0  0  0  0  0  # atno 10167 bound_to 10162
  157.6069  130.9184  149.9904 H   0  0  0  0  0  0  0  0  0  0  0  0  # atno 10718 bound_to 10713
  154.1008  135.6563  153.4868 H   0  0  0  0  0  0  0  0  0  0  0  0  # atno 10763 bound_to 10752
  153.0289  135.5224  154.7289 H   0  0  0  0  0  0  0  0  0  0  0  0  # atno 10764 bound_to 10752
  154.6440  135.2992  155.0038 H   0  0  0  0  0  0  0  0  0  0  0  0  # atno 10765 bound_to 10752
  141.1597  133.7587  156.9493 H   0  0  0  0  0  0  0  0  0  0  0  0  # atno 11005 bound_to 11000
  146.3248  140.3147  142.8629 LP  0  0  0  0  0  0  0  0  0  0  0  0  # atno 17320 bound_to 7965
  144.9339  140.8005  143.5672 LP  0  0  0  0  0  0  0  0  0  0  0  0  # atno 17321 bound_to 7965
  139.4871  144.6299  151.7090 LP  0  0  0  0  0  0  0  0  0  0  0  0  # atno 17342 bound_to 10162
  140.5470  144.0486  150.6111 LP  0  0  0  0  0  0  0  0  0  0  0  0  # atno 17343 bound_to 10162
  156.1159  130.3648  149.9970 LP  0  0  0  0  0  0  0  0  0  0  0  0  # atno 17370 bound_to 10713
  156.8059  130.9307  151.3645 LP  0  0  0  0  0  0  0  0  0  0  0  0  # atno 17371 bound_to 10713
  140.1268  134.9382  157.2281 LP  0  0  0  0  0  0  0  0  0  0  0  0  # atno 17394 bound_to 11000
  140.3003  134.3139  155.7291 LP  0  0  0  0  0  0  0  0  0  0  0  0  # atno 17395 bound_to 11000

$$$$
