AV-unprocessed.smi:1412|AV-procd|sdf|5747|dock7
  -GOLD-   22720 5383D 1   1.00000     0.00000
 Structure written by MMmdl.
 41 42  0  0  0  0  0  0  0  0  3 V2000
  150.5225  142.7900  158.0199 C   0  0  0  0  0  0  0  0  0  0  0  0
  150.9609  141.7704  156.9537 C   0  0  0  0  0  0  0  0  0  0  0  0
  150.2685  140.3744  157.0063 C   0  0  2  0  0  0  0  0  0  0  0  0
  148.7321  140.5573  156.8796 C   0  0  0  0  0  0  0  0  0  0  0  0
  150.5322  139.6906  158.3819 C   0  0  0  0  0  0  0  0  0  0  0  0
  149.6041  138.5874  158.6388 N   0  0  0  0  0  0  0  0  0  0  0  0
  149.9112  137.3802  159.1346 C   0  0  0  0  0  0  0  0  0  0  0  0
  151.0534  137.1463  159.5342 O   0  0  0  0  0  0  0  0  0  0  0  0
  148.8812  136.5069  159.1068 N   0  5  0  0  0  0  0  0  0  0  0  0
  148.2104  136.2306  160.2371 C   0  0  0  0  0  0  0  0  0  0  0  0
  147.8043  137.1923  161.0819 N   0  0  0  0  0  0  0  0  0  0  0  0
  147.1237  136.6969  162.1855 N   0  0  0  0  0  0  0  0  0  0  0  0
  147.0437  135.3668  162.1501 C   0  0  0  0  0  0  0  0  0  0  0  0
  147.7901  134.5993  160.7643 S   0  0  0  0  0  0  0  0  0  0  0  0
  150.7882  139.4765  155.9092 N   0  3  0  0  0  0  0  0  0  0  0  0
  152.2451  139.1673  155.9114 C   0  0  0  0  0  0  0  0  0  0  0  0
  152.6328  138.4368  154.6123 C   0  0  0  0  0  0  0  0  0  0  0  0
  151.8503  137.2605  154.4540 O   0  0  0  0  0  0  0  0  0  0  0  0
  150.4620  137.5562  154.3772 C   0  0  0  0  0  0  0  0  0  0  0  0
  150.0222  138.2183  155.6912 C   0  0  0  0  0  0  0  0  0  0  0  0
  151.0953  143.7120  157.9188 H   0  0  0  0  0  0  0  0  0  0  0  0
  150.6870  142.4188  159.0309 H   0  0  0  0  0  0  0  0  0  0  0  0
  149.4707  143.0568  157.9215 H   0  0  0  0  0  0  0  0  0  0  0  0
  150.7991  142.2200  155.9736 H   0  0  0  0  0  0  0  0  0  0  0  0
  152.0400  141.6535  157.0541 H   0  0  0  0  0  0  0  0  0  0  0  0
  148.3057  141.0212  157.7693 H   0  0  0  0  0  0  0  0  0  0  0  0
  148.2194  139.6030  156.7525 H   0  0  0  0  0  0  0  0  0  0  0  0
  148.4648  141.1961  156.0372 H   0  0  0  0  0  0  0  0  0  0  0  0
  151.5665  139.3566  158.4672 H   0  0  0  0  0  0  0  0  0  0  0  0
  150.4015  140.4061  159.1935 H   0  0  0  0  0  0  0  0  0  0  0  0
  148.6468  138.7304  158.3510 H   0  0  0  0  0  0  0  0  0  0  0  0
  146.5428  134.8345  162.9448 H   0  0  0  0  0  0  0  0  0  0  0  0
  152.8543  140.0680  155.9624 H   0  0  0  0  0  0  0  0  0  0  0  0
  152.4952  138.5569  156.7798 H   0  0  0  0  0  0  0  0  0  0  0  0
  152.5002  139.0898  153.7479 H   0  0  0  0  0  0  0  0  0  0  0  0
  153.6863  138.1578  154.6395 H   0  0  0  0  0  0  0  0  0  0  0  0
  150.2533  138.2012  153.5219 H   0  0  0  0  0  0  0  0  0  0  0  0
  149.9120  136.6282  154.2208 H   0  0  0  0  0  0  0  0  0  0  0  0
  150.1961  137.5231  156.5135 H   0  0  0  0  0  0  0  0  0  0  0  0
  148.9507  138.4038  155.6572 H   0  0  0  0  0  0  0  0  0  0  0  0
  150.6463  140.0208  155.0690 H   0  0  0  0  0  0  0  0  0  0  0  0
  1  2  1  0  0  0  0
  1 21  1  0  0  0  0
  1 22  1  0  0  0  0
  1 23  1  0  0  0  0
  2  3  1  0  0  0  0
  2 24  1  0  0  0  0
  2 25  1  0  0  0  0
  3  4  1  0  0  0  0
  3  5  1  0  0  0  0
  3 15  1  0  0  0  0
  4 26  1  0  0  0  0
  4 27  1  0  0  0  0
  4 28  1  0  0  0  0
  5  6  1  0  0  0  0
  5 29  1  0  0  0  0
  5 30  1  0  0  0  0
  6  7  1  0  0  0  0
  6 31  1  0  0  0  0
  7  8  2  0  0  0  0
  7  9  1  0  0  0  0
  9 10  1  0  0  0  0
 10 14  1  0  0  0  0
 10 11  2  0  0  0  0
 11 12  1  0  0  0  0
 12 13  2  0  0  0  0
 13 14  1  0  0  0  0
 13 32  1  0  0  0  0
 15 20  1  0  0  0  0
 15 16  1  0  0  0  0
 15 41  1  0  0  0  0
 16 17  1  0  0  0  0
 16 33  1  0  0  0  0
 16 34  1  0  0  0  0
 17 18  1  0  0  0  0
 17 35  1  0  0  0  0
 17 36  1  0  0  0  0
 18 19  1  0  0  0  0
 19 20  1  0  0  0  0
 19 37  1  0  0  0  0
 19 38  1  0  0  0  0
 20 39  1  0  0  0  0
 20 40  1  0  0  0  0
M  CHG  1   9  -1
M  CHG  1  15   1
M  END
> <s_m_source_file>
AV-unprocessed.smi

> <i_m_source_file_index>
1412

> <i_lp_mmshare_version>
43012

> <i_f3d_flags>
0

> <s_epik_input>
W0NIMl0xW0NIMl1PW0NIMl1bQ0gyXU4xW0NAQF0oW0NIM10pKFtDSDJdW0NIM10pW0NIMl1bTkhdQyg9TylbTkhdYzJubltjSF1zMg==

> <s_epik_cmdline>
J2VwaWtfcHl0aG9uJywgJy1waCcsICc3LjAnLCAnLXRuJywgJzgnLCAnLW1hJywgJzIwMCcsICctbWV0YWxfYmluZGluZycsICctaW1hZScsICc8aW5maWxlLm1hZT4nLCAnLW9tYWUnLCAnPG91dGZpbGUubWFlPic=

> <r_lp_tautomer_probability>
1

> <r_epik_Ionization_Penalty>
4.35651

> <r_epik_Ionization_Penalty_Charging>
4.3235

> <r_epik_Ionization_Penalty_Neutral>
0.0330098

> <r_epik_State_Penalty>
4.4846

> <r_epik_Charging_Adjusted_Penalty>
8.8081

> <i_epik_Tot_Q>
0

> <i_epik_Tot_abs_Q>
2

> <r_epik_Metal_State_Penalty>
1.11611

> <b_epik_Metal_Only>
1

> <s_lp_Force_Field>
OPLS_2005

> <r_lp_Energy>
23.2358

> <b_lp_Chiralities_Consistent>
1

> <s_lp_Variant>
AV-unprocessed.smi:1412-8

> <Gold.Version>
5.8.1

> <Gold.Id.Protein>
6NUR|6NUR_protein|mol2

> <Gold.PLP.Fitness>
39.3352

> <Gold.PLP.PLP>
-30.7545

> <Gold.PLP.part.hbond>
-4.0000

> <Gold.PLP.part.metal>
0.0000

> <Gold.PLP.part.buried>
-5.8145

> <Gold.PLP.part.nonpolar>
-22.9746

> <Gold.PLP.part.repulsive>
0.4330

> <Gold.PLP.ligand.clash>
0.0028

> <Gold.PLP.ligand.torsion>
1.4919

> <Gold.PLP.Chemscore.Hbond>
3.7760

> <Gold.PLP.Chemscore.CHOScore>
0.0000

> <Gold.PLP.Chemscore.Metal>
0.0000

> <Gold.Chemscore.Hbonds>
donor molecule, donor type, donor heavy atom, donor atom, acceptor molecule, acceptor atom, score
      P1  H  6896  6908       L1     8  0.86
      P1  H  6931  6943       L1    11  0.94
      P1  H  6934  6947       L1    11  0.82
      P1  H 10752 10763       L1    18  1.00

> <Gold.PLP.Chemscore.Internal.Correction>
0.2393

> <Gold.Rescore>
     Score         DG    S(hbond)    S(metal)    S(lipo)     H(rot)  DE(clash)    DE(int)     intcor
     17.57     -19.26       3.23        0.00      66.65       1.88       0.00       1.69       ----

> <Gold.Chemscore.Fitness>
17.5651

> <Gold.Chemscore.DG>
-19.2565

> <Gold.Chemscore.ZeroCoef>
-5.4800

> <Gold.Chemscore.Hbond>
3.2291

> <Gold.Chemscore.Metal>
0.0000

> <Gold.Chemscore.Lipo>
66.6547

> <Gold.Chemscore.Internal_Hbond>
0.0000

> <Gold.Chemscore.DEClash>
0.0024

> <Gold.Chemscore.DEInternal>
1.6891

> <Gold.Chemscore.Rot>
1.8779

> <Gold.Chemscore.Internal.Correction>
   9.000000E+99

> <Gold.Chemscore.Hbonds>
donor molecule, donor type, donor heavy atom, donor atom, acceptor molecule, acceptor atom, score
      P1  H  6896  6908       L1     8  0.46
      P1  H  6931  6943       L1    11  0.27
      P1  H  6934  6947       L1    11  0.36
      P1  H 10752 10763       L1    18  0.77

> <Gold.Chemscore.Hbond.Weighted>
-10.7853

> <Gold.Chemscore.Metal.Weighted>
-0.0000

> <Gold.Chemscore.Lipo.Weighted>
-7.7986

> <Gold.Chemscore.Internal_Hbond.Weighted>
0.0000

> <Gold.Chemscore.DEClash.Weighted>
0.0024

> <Gold.Chemscore.DEInternal.Weighted>
1.6891

> <Gold.Chemscore.Rot.Weighted>
4.8074

> <Gold.Chemscore.Internal.Correction.Weighted>
   9.000000E+99

> <Gold.Protein.RotatedTorsions>
[ 6907 6896 6895 6894 ] final -148.02 input  -60.11 | X-H torsion
[ 7974 7965 7964 7962 ] final -117.46 input  175.53 | X-H torsion
[ 8008 7997 7996 7995 ] final -135.71 input   59.86 | X-H torsion
[ 10167 10162 10161 10158 ] final  178.32 input  -65.29 | X-H torsion
[ 10718 10713 10712 10709 ] final  148.59 input   66.30 | X-H torsion
[ 10763 10752 10751 10750 ] final   41.74 input  -60.55 | X-H torsion
[ 11005 11000 10999 10996 ] final   86.56 input  -57.11 | X-H torsion

> <Gold.Protein.ActiveResidues>
 VAL166  LYS551  ARG553  GLY616  TRP617  ASP618  TYR619  PRO620  LYS621  CYS622 
 ASP623  PHE694  ASN695  SER759  ASP760  ASP761  ALA762  ILE779  LEU786  VAL792 
 PHE793  MET794  SER795  GLU796  ALA797  LYS798  CYS799  TRP800  GLU811  SER814 

> <Gold.Protein.RotatedAtoms>
  151.1638  133.4828  159.2593 H   0  0  0  0  0  0  0  0  0  0  0  0  # atno 6907 bound_to 6896
  151.1426  135.0187  159.8642 H   0  0  0  0  0  0  0  0  0  0  0  0  # atno 6908 bound_to 6896
  152.5462  134.1531  159.8579 H   0  0  0  0  0  0  0  0  0  0  0  0  # atno 6909 bound_to 6896
  145.0850  140.8451  143.4016 H   0  0  0  0  0  0  0  0  0  0  0  0  # atno 7974 bound_to 7965
  155.3831  140.0495  157.3043 H   0  0  0  0  0  0  0  0  0  0  0  0  # atno 8008 bound_to 7997
  154.5073  140.2179  155.9188 H   0  0  0  0  0  0  0  0  0  0  0  0  # atno 8009 bound_to 7997
  156.1540  140.3130  155.8701 H   0  0  0  0  0  0  0  0  0  0  0  0  # atno 8010 bound_to 7997
  139.5289  144.2694  152.0641 H   0  0  0  0  0  0  0  0  0  0  0  0  # atno 10167 bound_to 10162
  157.3067  131.0880  151.1348 H   0  0  0  0  0  0  0  0  0  0  0  0  # atno 10718 bound_to 10713
  152.9900  135.6152  154.2837 H   0  0  0  0  0  0  0  0  0  0  0  0  # atno 10763 bound_to 10752
  154.2565  135.2783  155.2797 H   0  0  0  0  0  0  0  0  0  0  0  0  # atno 10764 bound_to 10752
  154.5243  135.5806  153.6763 H   0  0  0  0  0  0  0  0  0  0  0  0  # atno 10765 bound_to 10752
  139.8941  134.8363  156.2737 H   0  0  0  0  0  0  0  0  0  0  0  0  # atno 11005 bound_to 11000
  145.1133  139.2742  143.5626 LP  0  0  0  0  0  0  0  0  0  0  0  0  # atno 17320 bound_to 7965
  146.3531  140.0735  142.8622 LP  0  0  0  0  0  0  0  0  0  0  0  0  # atno 17321 bound_to 7965
  140.2154  144.4520  150.6366 LP  0  0  0  0  0  0  0  0  0  0  0  0  # atno 17342 bound_to 10162
  140.6453  143.2212  151.6199 LP  0  0  0  0  0  0  0  0  0  0  0  0  # atno 17343 bound_to 10162
  157.2686  130.6693  149.6009 LP  0  0  0  0  0  0  0  0  0  0  0  0  # atno 17370 bound_to 10713
  155.9675  130.4486  150.5626 LP  0  0  0  0  0  0  0  0  0  0  0  0  # atno 17371 bound_to 10713
  141.0084  133.7110  156.1072 LP  0  0  0  0  0  0  0  0  0  0  0  0  # atno 17394 bound_to 11000
  140.7401  134.4159  157.5555 LP  0  0  0  0  0  0  0  0  0  0  0  0  # atno 17395 bound_to 11000

$$$$
