AV-unprocessed.smi:3157|AV-procd|sdf|12040|dock3
  -GOLD-   2272017463D 1   1.00000     0.00000
 Structure written by MMmdl.
 40 41  0  0  0  0  0  0  0  0  2 V2000
  147.9466  142.0509  154.0690 C   0  0  0  0  0  0  0  0  0  0  0  0
  149.0800  141.2623  154.7452 C   0  0  1  0  0  0  0  0  0  0  0  0
  149.3145  141.8369  156.0909 N   0  3  0  0  0  0  0  0  0  0  0  0
  150.6988  141.7102  156.5915 C   0  0  0  0  0  0  0  0  0  0  0  0
  150.9062  142.5362  157.8703 C   0  0  0  0  0  0  0  0  0  0  0  0
  151.7587  143.7894  157.6536 C   0  0  0  0  0  0  0  0  0  0  0  0
  152.2862  144.1667  159.0436 C   0  0  0  0  0  0  0  0  0  0  0  0
  152.1750  142.9006  159.9063 C   0  0  0  0  0  0  0  0  0  0  0  0
  151.6645  141.7967  158.9764 C   0  0  0  0  0  0  0  0  0  0  0  0
  148.7753  139.7436  154.8484 C   0  0  1  0  0  0  0  0  0  0  0  0
  147.9204  139.2092  153.6837 C   0  0  0  0  0  0  0  0  0  0  0  0
  150.0047  138.9655  154.9561 N   0  0  0  0  0  0  0  0  0  0  0  0
  150.1592  137.5969  155.0606 C   0  0  0  0  0  0  0  0  0  0  0  0
  151.4992  137.3384  155.0972 C   0  0  0  0  0  0  0  0  0  0  0  0
  152.0948  138.6263  155.0013 C   0  0  0  0  0  0  0  0  0  0  0  0
  151.1993  139.5957  154.9060 N   0  0  0  0  0  0  0  0  0  0  0  0
  147.8127  141.7539  153.0290 H   0  0  0  0  0  0  0  0  0  0  0  0
  148.1621  143.1199  154.0675 H   0  0  0  0  0  0  0  0  0  0  0  0
  146.9970  141.9044  154.5850 H   0  0  0  0  0  0  0  0  0  0  0  0
  149.9774  141.3989  154.1389 H   0  0  0  0  0  0  0  0  0  0  0  0
  149.0787  142.8185  156.0655 H   0  0  0  0  0  0  0  0  0  0  0  0
  150.9337  140.6623  156.7812 H   0  0  0  0  0  0  0  0  0  0  0  0
  151.3816  142.0537  155.8133 H   0  0  0  0  0  0  0  0  0  0  0  0
  149.9362  142.8507  158.2601 H   0  0  0  0  0  0  0  0  0  0  0  0
  152.6011  143.5567  157.0000 H   0  0  0  0  0  0  0  0  0  0  0  0
  151.1974  144.6005  157.1881 H   0  0  0  0  0  0  0  0  0  0  0  0
  153.3131  144.5300  158.9883 H   0  0  0  0  0  0  0  0  0  0  0  0
  151.6819  144.9647  159.4766 H   0  0  0  0  0  0  0  0  0  0  0  0
  153.1268  142.6309  160.3657 H   0  0  0  0  0  0  0  0  0  0  0  0
  151.4596  143.0683  160.7125 H   0  0  0  0  0  0  0  0  0  0  0  0
  151.0450  141.0663  159.4980 H   0  0  0  0  0  0  0  0  0  0  0  0
  152.5160  141.2637  158.5513 H   0  0  0  0  0  0  0  0  0  0  0  0
  148.2035  139.5762  155.7634 H   0  0  0  0  0  0  0  0  0  0  0  0
  146.9193  139.6393  153.6887 H   0  0  0  0  0  0  0  0  0  0  0  0
  147.7997  138.1274  153.7537 H   0  0  0  0  0  0  0  0  0  0  0  0
  148.3736  139.4307  152.7169 H   0  0  0  0  0  0  0  0  0  0  0  0
  149.3131  136.9267  155.0973 H   0  0  0  0  0  0  0  0  0  0  0  0
  151.9814  136.3753  155.1782 H   0  0  0  0  0  0  0  0  0  0  0  0
  153.1438  138.8830  154.9898 H   0  0  0  0  0  0  0  0  0  0  0  0
  148.6937  141.3753  156.7409 H   0  0  0  0  0  0  0  0  0  0  0  0
  1  2  1  0  0  0  0
  1 17  1  0  0  0  0
  1 18  1  0  0  0  0
  1 19  1  0  0  0  0
  2  3  1  0  0  0  0
  2 10  1  0  0  0  0
  2 20  1  0  0  0  0
  3  4  1  0  0  0  0
  3 21  1  0  0  0  0
  3 40  1  0  0  0  0
  4  5  1  0  0  0  0
  4 22  1  0  0  0  0
  4 23  1  0  0  0  0
  5  9  1  0  0  0  0
  5  6  1  0  0  0  0
  5 24  1  0  0  0  0
  6  7  1  0  0  0  0
  6 25  1  0  0  0  0
  6 26  1  0  0  0  0
  7  8  1  0  0  0  0
  7 27  1  0  0  0  0
  7 28  1  0  0  0  0
  8  9  1  0  0  0  0
  8 29  1  0  0  0  0
  8 30  1  0  0  0  0
  9 31  1  0  0  0  0
  9 32  1  0  0  0  0
 10 11  1  0  0  0  0
 10 12  1  0  0  0  0
 10 33  1  0  0  0  0
 11 34  1  0  0  0  0
 11 35  1  0  0  0  0
 11 36  1  0  0  0  0
 12 16  1  0  0  0  0
 12 13  1  0  0  0  0
 13 14  2  0  0  0  0
 13 37  1  0  0  0  0
 14 15  1  0  0  0  0
 14 38  1  0  0  0  0
 15 16  2  0  0  0  0
 15 39  1  0  0  0  0
M  CHG  1   3   1
M  END
> <s_m_source_file>
AV-unprocessed.smi

> <i_m_source_file_index>
3157

> <i_lp_mmshare_version>
43012

> <i_f3d_flags>
0

> <s_epik_input>
bjFbY0hdW2NIXVtjSF1uMVtDQEBIXShbQ0gzXSlbQ0BIXShbQ0gzXSlbTkhdW0NIMl1bQ0hdMltDSDJdW0NIMl1bQ0gyXVtDSDJdMg==

> <s_epik_cmdline>
J2VwaWtfcHl0aG9uJywgJy1waCcsICc3LjAnLCAnLXRuJywgJzgnLCAnLW1hJywgJzIwMCcsICctbWV0YWxfYmluZGluZycsICctaW1hZScsICc8aW5maWxlLm1hZT4nLCAnLW9tYWUnLCAnPG91dGZpbGUubWFlPic=

> <r_lp_tautomer_probability>
1

> <r_epik_Ionization_Penalty>
0.00132192

> <r_epik_Ionization_Penalty_Charging>
0.0013111

> <r_epik_Ionization_Penalty_Neutral>
1.08112e-05

> <r_epik_State_Penalty>
-0

> <r_epik_Charging_Adjusted_Penalty>
0.0013111

> <i_epik_Tot_Q>
1

> <i_epik_Tot_abs_Q>
1

> <r_epik_Metal_State_Penalty>
-0

> <b_epik_Metal_Only>
0

> <s_lp_Force_Field>
OPLS_2005

> <r_lp_Energy>
31.1459

> <b_lp_Chiralities_Consistent>
1

> <s_lp_Variant>
AV-unprocessed.smi:3157-4

> <Gold.Version>
5.8.1

> <Gold.Id.Protein>
6NUR|6NUR_protein|mol2

> <Gold.PLP.Fitness>
47.5955

> <Gold.PLP.PLP>
-41.7030

> <Gold.PLP.part.hbond>
-1.9985

> <Gold.PLP.part.metal>
0.0000

> <Gold.PLP.part.buried>
-2.2086

> <Gold.PLP.part.nonpolar>
-38.2378

> <Gold.PLP.part.repulsive>
0.1634

> <Gold.PLP.ligand.clash>
0.0010

> <Gold.PLP.ligand.torsion>
1.5943

> <Gold.PLP.Chemscore.Hbond>
3.0000

> <Gold.PLP.Chemscore.CHOScore>
0.0000

> <Gold.PLP.Chemscore.Metal>
0.0000

> <Gold.Chemscore.Hbonds>
donor molecule, donor type, donor heavy atom, donor atom, acceptor molecule, acceptor atom, score
      L1  H     3    21       P1  8028  2.00
      P1  H  7989  7998       L1    16  1.00

> <Gold.PLP.Chemscore.Internal.Correction>
0.0822

> <Gold.Rescore>
     Score         DG    S(hbond)    S(metal)    S(lipo)     H(rot)  DE(clash)    DE(int)     intcor
     18.71     -21.50       1.97        0.00     113.53       1.50       0.01       2.77       ----

> <Gold.Chemscore.Fitness>
18.7107

> <Gold.Chemscore.DG>
-21.4982

> <Gold.Chemscore.ZeroCoef>
-5.4800

> <Gold.Chemscore.Hbond>
1.9722

> <Gold.Chemscore.Metal>
0.0000

> <Gold.Chemscore.Lipo>
113.5302

> <Gold.Chemscore.Internal_Hbond>
0.0000

> <Gold.Chemscore.DEClash>
0.0126

> <Gold.Chemscore.DEInternal>
2.7748

> <Gold.Chemscore.Rot>
1.5047

> <Gold.Chemscore.Internal.Correction>
   9.000000E+99

> <Gold.Chemscore.Hbonds>
donor molecule, donor type, donor heavy atom, donor atom, acceptor molecule, acceptor atom, score
      L1  H     3    21       P1  8028  0.99
      P1  H  7989  7998       L1    16  0.81

> <Gold.Chemscore.Hbond.Weighted>
-6.5871

> <Gold.Chemscore.Metal.Weighted>
-0.0000

> <Gold.Chemscore.Lipo.Weighted>
-13.2830

> <Gold.Chemscore.Internal_Hbond.Weighted>
0.0000

> <Gold.Chemscore.DEClash.Weighted>
0.0126

> <Gold.Chemscore.DEInternal.Weighted>
2.7748

> <Gold.Chemscore.Rot.Weighted>
3.8520

> <Gold.Chemscore.Internal.Correction.Weighted>
   9.000000E+99

> <Gold.Protein.RotatedTorsions>
[ 6907 6896 6895 6894 ] final  -98.13 input  -60.11 | X-H torsion
[ 7974 7965 7964 7962 ] final  -51.30 input  175.53 | X-H torsion
[ 8008 7997 7996 7995 ] final  -91.50 input   59.86 | X-H torsion
[ 10167 10162 10161 10158 ] final  -18.65 input  -65.29 | X-H torsion
[ 10718 10713 10712 10709 ] final -139.83 input   66.30 | X-H torsion
[ 10763 10752 10751 10750 ] final  -58.73 input  -60.55 | X-H torsion
[ 11005 11000 10999 10996 ] final   72.04 input  -57.11 | X-H torsion

> <Gold.Protein.ActiveResidues>
 VAL166  LYS551  ARG553  GLY616  TRP617  ASP618  TYR619  PRO620  LYS621  CYS622 
 ASP623  PHE694  ASN695  SER759  ASP760  ASP761  ALA762  ILE779  LEU786  VAL792 
 PHE793  MET794  SER795  GLU796  ALA797  LYS798  CYS799  TRP800  GLU811  SER814 

> <Gold.Protein.RotatedAtoms>
  150.7037  134.1241  159.4045 H   0  0  0  0  0  0  0  0  0  0  0  0  # atno 6907 bound_to 6896
  151.9228  135.0288  160.0532 H   0  0  0  0  0  0  0  0  0  0  0  0  # atno 6908 bound_to 6896
  152.2242  133.4972  159.5216 H   0  0  0  0  0  0  0  0  0  0  0  0  # atno 6909 bound_to 6896
  145.9205  140.7838  142.9650 H   0  0  0  0  0  0  0  0  0  0  0  0  # atno 7974 bound_to 7965
  154.7115  140.0519  157.0554 H   0  0  0  0  0  0  0  0  0  0  0  0  # atno 8008 bound_to 7997
  155.0548  140.3183  155.4661 H   0  0  0  0  0  0  0  0  0  0  0  0  # atno 8009 bound_to 7997
  156.2790  140.2109  156.5674 H   0  0  0  0  0  0  0  0  0  0  0  0  # atno 8010 bound_to 7997
  140.7261  143.4896  151.0010 H   0  0  0  0  0  0  0  0  0  0  0  0  # atno 10167 bound_to 10162
  156.3153  130.7504  151.1590 H   0  0  0  0  0  0  0  0  0  0  0  0  # atno 10718 bound_to 10713
  154.2427  135.6340  153.5213 H   0  0  0  0  0  0  0  0  0  0  0  0  # atno 10763 bound_to 10752
  152.9927  135.5546  154.5893 H   0  0  0  0  0  0  0  0  0  0  0  0  # atno 10764 bound_to 10752
  154.5402  135.2894  155.1077 H   0  0  0  0  0  0  0  0  0  0  0  0  # atno 10765 bound_to 10752
  139.9511  134.7224  156.0859 H   0  0  0  0  0  0  0  0  0  0  0  0  # atno 11005 bound_to 11000
  144.6752  140.1967  143.7391 LP  0  0  0  0  0  0  0  0  0  0  0  0  # atno 17320 bound_to 7965
  145.8556  139.2197  143.1746 LP  0  0  0  0  0  0  0  0  0  0  0  0  # atno 17321 bound_to 7965
  139.8599  143.7328  152.3174 LP  0  0  0  0  0  0  0  0  0  0  0  0  # atno 17342 bound_to 10162
  139.7540  144.7526  151.0464 LP  0  0  0  0  0  0  0  0  0  0  0  0  # atno 17343 bound_to 10162
  157.7400  131.0522  150.5194 LP  0  0  0  0  0  0  0  0  0  0  0  0  # atno 17370 bound_to 10713
  156.5339  130.4191  149.6187 LP  0  0  0  0  0  0  0  0  0  0  0  0  # atno 17371 bound_to 10713
  141.1174  133.6623  156.3129 LP  0  0  0  0  0  0  0  0  0  0  0  0  # atno 17394 bound_to 11000
  140.5716  134.5835  157.5459 LP  0  0  0  0  0  0  0  0  0  0  0  0  # atno 17395 bound_to 11000

$$$$
