AV-unprocessed.smi:1041|AV-procd|sdf|4533|dock10
  -GOLD-   22720 2563D 1   1.00000     0.00000
 Structure written by MMmdl.
 52 53  0  0  0  0  0  0  0  0  3 V2000
  149.1569  127.0898  151.4907 C   0  0  0  0  0  0  0  0  0  0  0  0
  148.5646  127.2238  152.7711 O   0  0  0  0  0  0  0  0  0  0  0  0
  148.9778  128.4030  153.4416 C   0  0  0  0  0  0  0  0  0  0  0  0
  148.3091  129.6146  152.7747 C   0  0  0  0  0  0  0  0  0  0  0  0
  148.4713  130.8600  153.5675 N   0  3  2  0  0  0  0  0  0  0  0  0
  147.8478  132.0327  152.9036 C   0  0  0  0  0  0  0  0  0  0  0  0
  147.9015  133.2740  153.8068 C   0  0  0  0  0  0  0  0  0  0  0  0
  149.3501  133.6067  154.2213 C   0  0  1  0  0  0  0  0  0  0  0  0
  149.4504  134.8399  155.1431 C   0  0  0  0  0  0  0  0  0  0  0  0
  149.9709  135.9850  154.4078 N   0  0  0  0  0  0  0  0  0  0  0  0
  150.8170  136.9073  154.8898 C   0  0  0  0  0  0  0  0  0  0  0  0
  151.4433  136.7824  155.9417 O   0  0  0  0  0  0  0  0  0  0  0  0
  150.9081  138.2021  154.0837 C   0  0  0  0  0  0  0  0  0  0  0  0
  150.5440  139.4507  154.8878 C   0  0  0  0  0  0  0  0  0  0  0  0
  149.3814  140.1419  154.7124 C   0  0  0  0  0  0  0  0  0  0  0  0
  148.3097  139.7211  153.7222 C   0  0  0  0  0  0  0  0  0  0  0  0
  149.1163  141.3148  155.4395 N   0  0  0  0  0  0  0  0  0  0  0  0
  149.9857  141.7525  156.2678 C   0  0  0  0  0  0  0  0  0  0  0  0
  149.6944  143.0178  157.0461 C   0  0  0  0  0  0  0  0  0  0  0  0
  151.1939  141.1385  156.5096 N   0  5  0  0  0  0  0  0  0  0  0  0
  151.5169  139.9855  155.8584 C   0  0  0  0  0  0  0  0  0  0  0  0
  152.5863  139.4069  156.0475 O   0  0  0  0  0  0  0  0  0  0  0  0
  149.9771  132.3634  154.8733 C   0  0  0  0  0  0  0  0  0  0  0  0
  149.8817  131.1376  153.9493 C   0  0  0  0  0  0  0  0  0  0  0  0
  148.8042  126.1731  151.0185 H   0  0  0  0  0  0  0  0  0  0  0  0
  150.2440  127.0341  151.5631 H   0  0  0  0  0  0  0  0  0  0  0  0
  148.8910  127.9257  150.8424 H   0  0  0  0  0  0  0  0  0  0  0  0
  148.7400  128.3470  154.5039 H   0  0  0  0  0  0  0  0  0  0  0  0
  150.0615  128.5019  153.3637 H   0  0  0  0  0  0  0  0  0  0  0  0
  148.7070  129.7662  151.7701 H   0  0  0  0  0  0  0  0  0  0  0  0
  147.2487  129.3887  152.6529 H   0  0  0  0  0  0  0  0  0  0  0  0
  148.3539  132.2322  151.9577 H   0  0  0  0  0  0  0  0  0  0  0  0
  146.8061  131.8131  152.6654 H   0  0  0  0  0  0  0  0  0  0  0  0
  147.4510  134.1093  153.2715 H   0  0  0  0  0  0  0  0  0  0  0  0
  147.2887  133.1117  154.6946 H   0  0  0  0  0  0  0  0  0  0  0  0
  149.9141  133.8277  153.3133 H   0  0  0  0  0  0  0  0  0  0  0  0
  148.4798  135.0579  155.5911 H   0  0  0  0  0  0  0  0  0  0  0  0
  150.1321  134.6333  155.9685 H   0  0  0  0  0  0  0  0  0  0  0  0
  149.5292  136.1859  153.5214 H   0  0  0  0  0  0  0  0  0  0  0  0
  151.9229  138.3020  153.6983 H   0  0  0  0  0  0  0  0  0  0  0  0
  150.2805  138.1179  153.1956 H   0  0  0  0  0  0  0  0  0  0  0  0
  147.9206  138.7347  153.9751 H   0  0  0  0  0  0  0  0  0  0  0  0
  148.7142  139.6882  152.7107 H   0  0  0  0  0  0  0  0  0  0  0  0
  147.4731  140.4209  153.7243 H   0  0  0  0  0  0  0  0  0  0  0  0
  149.4544  142.7747  158.0814 H   0  0  0  0  0  0  0  0  0  0  0  0
  148.8503  143.5578  156.6150 H   0  0  0  0  0  0  0  0  0  0  0  0
  150.5606  143.6802  157.0376 H   0  0  0  0  0  0  0  0  0  0  0  0
  151.0226  132.5570  155.1161 H   0  0  0  0  0  0  0  0  0  0  0  0
  149.4760  132.1477  155.8182 H   0  0  0  0  0  0  0  0  0  0  0  0
  150.3137  130.2790  154.4615 H   0  0  0  0  0  0  0  0  0  0  0  0
  150.4779  131.3004  153.0498 H   0  0  0  0  0  0  0  0  0  0  0  0
  147.9541  130.7187  154.4239 H   0  0  0  0  0  0  0  0  0  0  0  0
  1  2  1  0  0  0  0
  1 25  1  0  0  0  0
  1 26  1  0  0  0  0
  1 27  1  0  0  0  0
  2  3  1  0  0  0  0
  3  4  1  0  0  0  0
  3 28  1  0  0  0  0
  3 29  1  0  0  0  0
  4  5  1  0  0  0  0
  4 30  1  0  0  0  0
  4 31  1  0  0  0  0
  5 24  1  0  0  0  0
  5  6  1  0  0  0  0
  5 52  1  0  0  0  0
  6  7  1  0  0  0  0
  6 32  1  0  0  0  0
  6 33  1  0  0  0  0
  7  8  1  0  0  0  0
  7 34  1  0  0  0  0
  7 35  1  0  0  0  0
  8  9  1  0  0  0  0
  8 23  1  0  0  0  0
  8 36  1  0  0  0  0
  9 10  1  0  0  0  0
  9 37  1  0  0  0  0
  9 38  1  0  0  0  0
 10 11  1  0  0  0  0
 10 39  1  0  0  0  0
 11 12  2  0  0  0  0
 11 13  1  0  0  0  0
 13 14  1  0  0  0  0
 13 40  1  0  0  0  0
 13 41  1  0  0  0  0
 14 21  1  0  0  0  0
 14 15  2  0  0  0  0
 15 16  1  0  0  0  0
 15 17  1  0  0  0  0
 16 42  1  0  0  0  0
 16 43  1  0  0  0  0
 16 44  1  0  0  0  0
 17 18  2  0  0  0  0
 18 19  1  0  0  0  0
 18 20  1  0  0  0  0
 19 45  1  0  0  0  0
 19 46  1  0  0  0  0
 19 47  1  0  0  0  0
 20 21  1  0  0  0  0
 21 22  2  0  0  0  0
 23 24  1  0  0  0  0
 23 48  1  0  0  0  0
 23 49  1  0  0  0  0
 24 50  1  0  0  0  0
 24 51  1  0  0  0  0
M  CHG  1   5   1
M  CHG  1  20  -1
M  END
> <s_m_source_file>
AV-unprocessed.smi

> <i_m_source_file_index>
1041

> <i_lp_mmshare_version>
43012

> <i_f3d_flags>
0

> <s_epik_input>
W0NIM11PW0NIMl1bQ0gyXU4xW0NIMl1bQ0gyXVtDSF0oW0NIMl1bQ0gyXTEpW0NIMl1bTkhdQyg9TylbQ0gyXWMyYyhbQ0gzXSluYyhbQ0gzXSlbbkhdYzI9Tw==

> <s_epik_cmdline>
J2VwaWtfcHl0aG9uJywgJy1waCcsICc3LjAnLCAnLXRuJywgJzgnLCAnLW1hJywgJzIwMCcsICctbWV0YWxfYmluZGluZycsICctaW1hZScsICc8aW5maWxlLm1hZT4nLCAnLW9tYWUnLCAnPG91dGZpbGUubWFlPic=

> <r_lp_tautomer_probability>
0.839158

> <r_epik_Ionization_Penalty>
6.54961

> <r_epik_Ionization_Penalty_Charging>
0.00968647

> <r_epik_Ionization_Penalty_Neutral>
6.53992

> <r_epik_State_Penalty>
4.43892

> <r_epik_Charging_Adjusted_Penalty>
4.44861

> <i_epik_Tot_Q>
0

> <i_epik_Tot_abs_Q>
2

> <r_epik_Metal_State_Penalty>
0.818645

> <b_epik_Metal_Only>
1

> <s_lp_Force_Field>
OPLS_2005

> <r_lp_Energy>
18.5529

> <b_lp_Chiralities_Consistent>
1

> <s_lp_Variant>
AV-unprocessed.smi:1041-6

> <Gold.Version>
5.8.1

> <Gold.Id.Protein>
6NUR|6NUR_protein|mol2

> <Gold.PLP.Fitness>
49.0420

> <Gold.PLP.PLP>
-42.2335

> <Gold.PLP.part.hbond>
-4.0373

> <Gold.PLP.part.metal>
0.0000

> <Gold.PLP.part.buried>
0.6718

> <Gold.PLP.part.nonpolar>
-37.5410

> <Gold.PLP.part.repulsive>
0.2104

> <Gold.PLP.ligand.clash>
0.0000

> <Gold.PLP.ligand.torsion>
1.1002

> <Gold.PLP.Chemscore.Hbond>
2.9680

> <Gold.PLP.Chemscore.CHOScore>
0.0000

> <Gold.PLP.Chemscore.Metal>
0.0000

> <Gold.Chemscore.Hbonds>
donor molecule, donor type, donor heavy atom, donor atom, acceptor molecule, acceptor atom, score
      L1  H    10    39       P1  7948  1.00
      P1  H  7997  8010       L1    22  1.00
      P1  H 10752 10765       L1    12  0.10

> <Gold.PLP.Chemscore.Internal.Correction>
0.1049

> <Gold.Rescore>
     Score         DG    S(hbond)    S(metal)    S(lipo)     H(rot)  DE(clash)    DE(int)     intcor
     16.25     -17.67       2.46        0.00      85.36       2.35       0.07       1.35       ----

> <Gold.Chemscore.Fitness>
16.2465

> <Gold.Chemscore.DG>
-17.6656

> <Gold.Chemscore.ZeroCoef>
-5.4800

> <Gold.Chemscore.Hbond>
2.4608

> <Gold.Chemscore.Metal>
0.0000

> <Gold.Chemscore.Lipo>
85.3647

> <Gold.Chemscore.Internal_Hbond>
0.0000

> <Gold.Chemscore.DEClash>
0.0729

> <Gold.Chemscore.DEInternal>
1.3462

> <Gold.Chemscore.Rot>
2.3520

> <Gold.Chemscore.Internal.Correction>
   9.000000E+99

> <Gold.Chemscore.Hbonds>
donor molecule, donor type, donor heavy atom, donor atom, acceptor molecule, acceptor atom, score
      L1  H    10    39       P1  7948  0.50
      P1  H  7997  8010       L1    22  0.99
      P1  H 10752 10765       L1    12  0.03

> <Gold.Chemscore.Hbond.Weighted>
-8.2190

> <Gold.Chemscore.Metal.Weighted>
-0.0000

> <Gold.Chemscore.Lipo.Weighted>
-9.9877

> <Gold.Chemscore.Internal_Hbond.Weighted>
0.0000

> <Gold.Chemscore.DEClash.Weighted>
0.0729

> <Gold.Chemscore.DEInternal.Weighted>
1.3462

> <Gold.Chemscore.Rot.Weighted>
6.0211

> <Gold.Chemscore.Internal.Correction.Weighted>
   9.000000E+99

> <Gold.Protein.RotatedTorsions>
[ 6907 6896 6895 6894 ] final -143.09 input  -60.11 | X-H torsion
[ 7974 7965 7964 7962 ] final   21.81 input  175.53 | X-H torsion
[ 8008 7997 7996 7995 ] final   67.46 input   59.86 | X-H torsion
[ 10167 10162 10161 10158 ] final  144.35 input  -65.29 | X-H torsion
[ 10718 10713 10712 10709 ] final   24.98 input   66.30 | X-H torsion
[ 10763 10752 10751 10750 ] final -139.85 input  -60.55 | X-H torsion
[ 11005 11000 10999 10996 ] final   33.28 input  -57.11 | X-H torsion

> <Gold.Protein.ActiveResidues>
 VAL166  LYS551  ARG553  GLY616  TRP617  ASP618  TYR619  PRO620  LYS621  CYS622 
 ASP623  PHE694  ASN695  SER759  ASP760  ASP761  ALA762  ILE779  LEU786  VAL792 
 PHE793  MET794  SER795  GLU796  ALA797  LYS798  CYS799  TRP800  GLU811  SER814 

> <Gold.Protein.RotatedAtoms>
  151.0958  133.5281  159.2612 H   0  0  0  0  0  0  0  0  0  0  0  0  # atno 6907 bound_to 6896
  151.2131  135.0488  159.8929 H   0  0  0  0  0  0  0  0  0  0  0  0  # atno 6908 bound_to 6896
  152.5438  134.0771  159.8273 H   0  0  0  0  0  0  0  0  0  0  0  0  # atno 6909 bound_to 6896
  146.2055  139.7974  142.8729 H   0  0  0  0  0  0  0  0  0  0  0  0  # atno 7974 bound_to 7965
  155.6932  140.3496  155.4902 H   0  0  0  0  0  0  0  0  0  0  0  0  # atno 8008 bound_to 7997
  155.9506  140.1118  157.1002 H   0  0  0  0  0  0  0  0  0  0  0  0  # atno 8009 bound_to 7997
  154.4121  140.1195  156.5033 H   0  0  0  0  0  0  0  0  0  0  0  0  # atno 8010 bound_to 7997
  139.4949  144.5978  151.6546 H   0  0  0  0  0  0  0  0  0  0  0  0  # atno 10167 bound_to 10162
  157.1871  130.6829  149.6135 H   0  0  0  0  0  0  0  0  0  0  0  0  # atno 10718 bound_to 10713
  154.8597  135.3570  154.5613 H   0  0  0  0  0  0  0  0  0  0  0  0  # atno 10763 bound_to 10752
  153.6228  135.7005  153.5309 H   0  0  0  0  0  0  0  0  0  0  0  0  # atno 10764 bound_to 10752
  153.3114  135.4177  155.1299 H   0  0  0  0  0  0  0  0  0  0  0  0  # atno 10765 bound_to 10752
  140.2647  134.3151  155.7846 H   0  0  0  0  0  0  0  0  0  0  0  0  # atno 11005 bound_to 11000
  145.3333  141.0271  143.3434 LP  0  0  0  0  0  0  0  0  0  0  0  0  # atno 17320 bound_to 7965
  144.8784  139.4939  143.6735 LP  0  0  0  0  0  0  0  0  0  0  0  0  # atno 17321 bound_to 7965
  140.5620  144.0252  150.6174 LP  0  0  0  0  0  0  0  0  0  0  0  0  # atno 17342 bound_to 10162
  140.3341  143.3059  152.0656 LP  0  0  0  0  0  0  0  0  0  0  0  0  # atno 17343 bound_to 10162
  155.9716  130.4627  150.6155 LP  0  0  0  0  0  0  0  0  0  0  0  0  # atno 17370 bound_to 10713
  157.3896  131.0793  151.1405 LP  0  0  0  0  0  0  0  0  0  0  0  0  # atno 17371 bound_to 10713
  141.2185  133.7431  156.9242 LP  0  0  0  0  0  0  0  0  0  0  0  0  # atno 17394 bound_to 11000
  140.1430  134.9281  157.2492 LP  0  0  0  0  0  0  0  0  0  0  0  0  # atno 17395 bound_to 11000

$$$$
