AV-unprocessed.smi:213|AV-procd|sdf|1642|dock4
  -GOLD-   2262020 13D 1   1.00000     0.00000
 Structure written by MMmdl.
 58 61  0  0  0  0  0  0  0  0  1 V2000
  151.8075  139.7355  155.6114 C   0  0  0  0  0  0  0  0  0  0  0  0
  150.4364  139.9022  156.2920 C   0  0  1  0  0  0  0  0  0  0  0  0
  150.2758  141.1856  157.1433 C   0  0  0  0  0  0  0  0  0  0  0  0
  151.4396  141.5920  157.9361 N   0  0  0  0  0  0  0  0  0  0  0  0
  151.5855  140.7428  159.1155 C   0  0  0  0  0  0  0  0  0  0  0  0
  152.8025  141.1400  159.9689 C   0  0  0  0  0  0  0  0  0  0  0  0
  152.6873  142.5046  160.3561 O   0  0  0  0  0  0  0  0  0  0  0  0
  152.5802  143.3807  159.2398 C   0  0  0  0  0  0  0  0  0  0  0  0
  151.3644  142.9824  158.3844 C   0  0  0  0  0  0  0  0  0  0  0  0
  149.3778  139.8395  155.2809 N   0  0  0  0  0  0  0  0  0  0  0  0
  149.1723  140.9271  154.3280 C   0  0  0  0  0  0  0  0  0  0  0  0
  148.6272  138.7160  155.1498 C   0  0  0  0  0  0  0  0  0  0  0  0
  148.8246  137.7015  156.0328 N   0  0  0  0  0  0  0  0  0  0  0  0
  148.1017  136.5811  155.9497 C   0  0  0  0  0  0  0  0  0  0  0  0
  147.1504  136.2656  155.0693 N   0  0  0  0  0  0  0  0  0  0  0  0
  146.9598  137.2705  154.1680 C   0  0  0  0  0  0  0  0  0  0  0  0
  147.6463  138.5180  154.1338 C   0  0  0  0  0  0  0  0  0  0  0  0
  147.1896  139.2731  153.0581 N   0  0  0  0  0  0  0  0  0  0  0  0
  146.2826  138.5211  152.4974 C   0  0  0  0  0  0  0  0  0  0  0  0
  146.0820  137.3005  153.0996 N   0  0  0  0  0  0  0  0  0  0  0  0
  145.1476  136.2676  152.6892 C   0  0  0  0  0  0  0  0  0  0  0  0
  145.6136  135.5267  151.4207 C   0  0  2  0  0  0  0  0  0  0  0  0
  145.8390  136.4406  150.3639 O   0  0  0  0  0  0  0  0  0  0  0  0
  144.6334  134.4218  150.9790 C   0  0  2  0  0  0  0  0  0  0  0  0
  144.4147  133.2721  151.9667 C   0  0  0  0  0  0  0  0  0  0  0  0
  143.9619  132.1667  151.0396 C   0  0  0  0  0  0  0  0  0  0  0  0
  144.8391  132.4114  149.8145 C   0  0  0  0  0  0  0  0  0  0  0  0
  145.0280  133.8223  149.7466 O   0  0  0  0  0  0  0  0  0  0  0  0
  152.5813  139.4535  156.3219 H   0  0  0  0  0  0  0  0  0  0  0  0
  152.1211  140.6467  155.1019 H   0  0  0  0  0  0  0  0  0  0  0  0
  151.7759  138.9355  154.8707 H   0  0  0  0  0  0  0  0  0  0  0  0
  150.3266  139.0444  156.9546 H   0  0  0  0  0  0  0  0  0  0  0  0
  149.9260  142.0168  156.5299 H   0  0  0  0  0  0  0  0  0  0  0  0
  149.4566  140.9835  157.8352 H   0  0  0  0  0  0  0  0  0  0  0  0
  150.6824  140.7969  159.7256 H   0  0  0  0  0  0  0  0  0  0  0  0
  151.6933  139.7012  158.8107 H   0  0  0  0  0  0  0  0  0  0  0  0
  152.8586  140.5193  160.8633 H   0  0  0  0  0  0  0  0  0  0  0  0
  153.7295  140.9887  159.4137 H   0  0  0  0  0  0  0  0  0  0  0  0
  152.4717  144.4041  159.5995 H   0  0  0  0  0  0  0  0  0  0  0  0
  153.4970  143.3432  158.6491 H   0  0  0  0  0  0  0  0  0  0  0  0
  151.3068  143.6622  157.5408 H   0  0  0  0  0  0  0  0  0  0  0  0
  150.4537  143.1348  158.9658 H   0  0  0  0  0  0  0  0  0  0  0  0
  148.1103  141.0686  154.1238 H   0  0  0  0  0  0  0  0  0  0  0  0
  149.6791  140.7106  153.3872 H   0  0  0  0  0  0  0  0  0  0  0  0
  149.5642  141.8676  154.7146 H   0  0  0  0  0  0  0  0  0  0  0  0
  148.3162  135.8305  156.6960 H   0  0  0  0  0  0  0  0  0  0  0  0
  145.7368  138.8356  151.6199 H   0  0  0  0  0  0  0  0  0  0  0  0
  145.0332  135.5652  153.5157 H   0  0  0  0  0  0  0  0  0  0  0  0
  144.1704  136.7254  152.5306 H   0  0  0  0  0  0  0  0  0  0  0  0
  146.5737  135.0537  151.6300 H   0  0  0  0  0  0  0  0  0  0  0  0
  145.2874  137.1954  150.5019 H   0  0  0  0  0  0  0  0  0  0  0  0
  143.6627  134.8823  150.7876 H   0  0  0  0  0  0  0  0  0  0  0  0
  145.3436  132.9784  152.4564 H   0  0  0  0  0  0  0  0  0  0  0  0
  143.6834  133.5098  152.7396 H   0  0  0  0  0  0  0  0  0  0  0  0
  144.0893  131.1705  151.4640 H   0  0  0  0  0  0  0  0  0  0  0  0
  142.9099  132.2988  150.7829 H   0  0  0  0  0  0  0  0  0  0  0  0
  145.8134  131.9391  149.9462 H   0  0  0  0  0  0  0  0  0  0  0  0
  144.3959  132.0227  148.8975 H   0  0  0  0  0  0  0  0  0  0  0  0
  1  2  1  0  0  0  0
  1 29  1  0  0  0  0
  1 30  1  0  0  0  0
  1 31  1  0  0  0  0
  2  3  1  0  0  0  0
  2 10  1  0  0  0  0
  2 32  1  0  0  0  0
  3  4  1  0  0  0  0
  3 33  1  0  0  0  0
  3 34  1  0  0  0  0
  4  9  1  0  0  0  0
  4  5  1  0  0  0  0
  5  6  1  0  0  0  0
  5 35  1  0  0  0  0
  5 36  1  0  0  0  0
  6  7  1  0  0  0  0
  6 37  1  0  0  0  0
  6 38  1  0  0  0  0
  7  8  1  0  0  0  0
  8  9  1  0  0  0  0
  8 39  1  0  0  0  0
  8 40  1  0  0  0  0
  9 41  1  0  0  0  0
  9 42  1  0  0  0  0
 10 11  1  0  0  0  0
 10 12  1  0  0  0  0
 11 43  1  0  0  0  0
 11 44  1  0  0  0  0
 11 45  1  0  0  0  0
 12 17  1  0  0  0  0
 12 13  2  0  0  0  0
 13 14  1  0  0  0  0
 14 15  2  0  0  0  0
 14 46  1  0  0  0  0
 15 16  1  0  0  0  0
 16 20  1  0  0  0  0
 16 17  2  0  0  0  0
 17 18  1  0  0  0  0
 18 19  2  0  0  0  0
 19 20  1  0  0  0  0
 19 47  1  0  0  0  0
 20 21  1  0  0  0  0
 21 22  1  0  0  0  0
 21 48  1  0  0  0  0
 21 49  1  0  0  0  0
 22 23  1  0  0  0  0
 22 24  1  0  0  0  0
 22 50  1  0  0  0  0
 23 51  1  0  0  0  0
 24 28  1  0  0  0  0
 24 25  1  0  0  0  0
 24 52  1  0  0  0  0
 25 26  1  0  0  0  0
 25 53  1  0  0  0  0
 25 54  1  0  0  0  0
 26 27  1  0  0  0  0
 26 55  1  0  0  0  0
 26 56  1  0  0  0  0
 27 28  1  0  0  0  0
 27 57  1  0  0  0  0
 27 58  1  0  0  0  0
M  END
> <s_m_source_file>
AV-unprocessed.smi

> <i_m_source_file_index>
213

> <i_lp_mmshare_version>
43012

> <i_f3d_flags>
0

> <s_epik_input>
W0NIMl0xW0NIMl1PW0NIMl1bQ0gyXU4xW0NIMl1bQ0BASF0oW0NIM10pTihbQ0gzXSljKG5bY0hdbjIpYyhjMjMpbltjSF1uM1tDSDJdW0NASF0oW09IXSlbQ0BASF00W0NIMl1bQ0gyXVtDSDJdTzQ=

> <s_epik_cmdline>
J2VwaWtfcHl0aG9uJywgJy1waCcsICc3LjAnLCAnLXRuJywgJzgnLCAnLW1hJywgJzIwMCcsICctbWV0YWxfYmluZGluZycsICctaW1hZScsICc8aW5maWxlLm1hZT4nLCAnLW9tYWUnLCAnPG91dGZpbGUubWFlPic=

> <r_lp_tautomer_probability>
1

> <r_epik_Ionization_Penalty>
0.423322

> <r_epik_Ionization_Penalty_Charging>
0

> <r_epik_Ionization_Penalty_Neutral>
0.423322

> <r_epik_State_Penalty>
0.569486

> <r_epik_Charging_Adjusted_Penalty>
0.569486

> <i_epik_Tot_Q>
0

> <i_epik_Tot_abs_Q>
0

> <r_epik_Metal_State_Penalty>
0.568671

> <b_epik_Metal_Only>
0

> <s_lp_Force_Field>
OPLS_2005

> <r_lp_Energy>
55.7593

> <b_lp_Chiralities_Consistent>
1

> <s_lp_Variant>
AV-unprocessed.smi:213-10

> <Gold.Version>
5.8.1

> <Gold.Id.Protein>
6NUR|6NUR_protein|mol2

> <Gold.PLP.Fitness>
48.7158

> <Gold.PLP.PLP>
-42.4949

> <Gold.PLP.part.hbond>
-1.3985

> <Gold.PLP.part.metal>
0.0000

> <Gold.PLP.part.buried>
-4.8702

> <Gold.PLP.part.nonpolar>
-39.3451

> <Gold.PLP.part.repulsive>
3.6166

> <Gold.PLP.ligand.clash>
0.0000

> <Gold.PLP.ligand.torsion>
0.7196

> <Gold.PLP.Chemscore.Hbond>
0.9920

> <Gold.PLP.Chemscore.CHOScore>
1.4347

> <Gold.PLP.Chemscore.Metal>
0.0000

> <Gold.Chemscore.Hbonds>
donor molecule, donor type, donor heavy atom, donor atom, acceptor molecule, acceptor atom, score
      L1  H    23    51       P1 10171  0.84
      L1  C    19    47       P1 10171  0.84
      L1  C    19    47       P1 10175  0.27

> <Gold.PLP.Chemscore.Internal.Correction>
0.3801

> <Gold.Rescore>
     Score         DG    S(hbond)    S(metal)    S(lipo)     H(rot)  DE(clash)    DE(int)     intcor
     10.53     -14.00       0.99        0.00     104.52       2.74       1.09       2.38       ----

> <Gold.Chemscore.Fitness>
10.5321

> <Gold.Chemscore.DG>
-14.0018

> <Gold.Chemscore.ZeroCoef>
-5.4800

> <Gold.Chemscore.Hbond>
0.9884

> <Gold.Chemscore.Metal>
0.0000

> <Gold.Chemscore.Lipo>
104.5222

> <Gold.Chemscore.Internal_Hbond>
0.0000

> <Gold.Chemscore.DEClash>
1.0890

> <Gold.Chemscore.DEInternal>
2.3806

> <Gold.Chemscore.Rot>
2.7378

> <Gold.Chemscore.Internal.Correction>
   9.000000E+99

> <Gold.Chemscore.Hbonds>
donor molecule, donor type, donor heavy atom, donor atom, acceptor molecule, acceptor atom, score
      L1  H    23    51       P1 10171  0.78

> <Gold.Chemscore.Hbond.Weighted>
-3.3013

> <Gold.Chemscore.Metal.Weighted>
-0.0000

> <Gold.Chemscore.Lipo.Weighted>
-12.2291

> <Gold.Chemscore.Internal_Hbond.Weighted>
0.0000

> <Gold.Chemscore.DEClash.Weighted>
1.0890

> <Gold.Chemscore.DEInternal.Weighted>
2.3806

> <Gold.Chemscore.Rot.Weighted>
7.0087

> <Gold.Chemscore.Internal.Correction.Weighted>
   9.000000E+99

> <Gold.Protein.RotatedTorsions>
[ 6907 6896 6895 6894 ] final  -96.62 input  -60.11 | X-H torsion
[ 7974 7965 7964 7962 ] final   30.77 input  175.53 | X-H torsion
[ 8008 7997 7996 7995 ] final  -69.78 input   59.86 | X-H torsion
[ 10167 10162 10161 10158 ] final   17.15 input  -65.29 | X-H torsion
[ 10718 10713 10712 10709 ] final  113.53 input   66.30 | X-H torsion
[ 10763 10752 10751 10750 ] final  -75.11 input  -60.55 | X-H torsion
[ 11005 11000 10999 10996 ] final  -13.69 input  -57.11 | X-H torsion

> <Gold.Protein.ActiveResidues>
 VAL166  LYS551  ARG553  GLY616  TRP617  ASP618  TYR619  PRO620  LYS621  CYS622 
 ASP623  PHE694  ASN695  SER759  ASP760  ASP761  ALA762  ILE779  LEU786  VAL792 
 PHE793  MET794  SER795  GLU796  ALA797  LYS798  CYS799  TRP800  GLU811  SER814 

> <Gold.Protein.RotatedAtoms>
  150.6993  134.1475  159.4127 H   0  0  0  0  0  0  0  0  0  0  0  0  # atno 6907 bound_to 6896
  151.9458  135.0190  160.0548 H   0  0  0  0  0  0  0  0  0  0  0  0  # atno 6908 bound_to 6896
  152.2054  133.4836  159.5118 H   0  0  0  0  0  0  0  0  0  0  0  0  # atno 6909 bound_to 6896
  146.1591  139.6744  142.9046 H   0  0  0  0  0  0  0  0  0  0  0  0  # atno 7974 bound_to 7965
  154.4963  140.0847  156.7704 H   0  0  0  0  0  0  0  0  0  0  0  0  # atno 8008 bound_to 7997
  155.4108  140.3441  155.4245 H   0  0  0  0  0  0  0  0  0  0  0  0  # atno 8009 bound_to 7997
  156.1398  140.1526  156.8925 H   0  0  0  0  0  0  0  0  0  0  0  0  # atno 8010 bound_to 7997
  140.5746  143.9096  150.6740 H   0  0  0  0  0  0  0  0  0  0  0  0  # atno 10167 bound_to 10162
  157.6333  131.0985  150.7054 H   0  0  0  0  0  0  0  0  0  0  0  0  # atno 10718 bound_to 10713
  154.4821  135.5842  153.6397 H   0  0  0  0  0  0  0  0  0  0  0  0  # atno 10763 bound_to 10752
  152.9849  135.6092  154.3233 H   0  0  0  0  0  0  0  0  0  0  0  0  # atno 10764 bound_to 10752
  154.3125  135.2845  155.2538 H   0  0  0  0  0  0  0  0  0  0  0  0  # atno 10765 bound_to 10752
  140.7787  133.8380  155.9272 H   0  0  0  0  0  0  0  0  0  0  0  0  # atno 11005 bound_to 11000
  145.4633  141.0433  143.2739 LP  0  0  0  0  0  0  0  0  0  0  0  0  # atno 17320 bound_to 7965
  144.8003  139.6154  143.7074 LP  0  0  0  0  0  0  0  0  0  0  0  0  # atno 17321 bound_to 7965
  140.2580  143.3544  152.1348 LP  0  0  0  0  0  0  0  0  0  0  0  0  # atno 17342 bound_to 10162
  139.5136  144.6935  151.5695 LP  0  0  0  0  0  0  0  0  0  0  0  0  # atno 17343 bound_to 10162
  156.7390  130.4733  149.5482 LP  0  0  0  0  0  0  0  0  0  0  0  0  # atno 17370 bound_to 10713
  156.1552  130.6337  151.0648 LP  0  0  0  0  0  0  0  0  0  0  0  0  # atno 17371 bound_to 10713
  140.9503  134.1787  157.4732 LP  0  0  0  0  0  0  0  0  0  0  0  0  # atno 17394 bound_to 11000
  139.8745  134.9906  156.5513 LP  0  0  0  0  0  0  0  0  0  0  0  0  # atno 17395 bound_to 11000

$$$$
