AV-unprocessed.smi:2046|AV-procd|sdf|8313|dock3
  -GOLD-   2272010583D 1   1.00000     0.00000
 Structure written by MMmdl.
 29 30  0  0  0  0  0  0  0  0  2 V2000
  147.3754  140.9056  158.3274 O   0  0  0  0  0  0  0  0  0  0  0  0
  147.5471  141.9952  157.7757 C   0  0  0  0  0  0  0  0  0  0  0  0
  146.9420  143.1611  158.0984 N   0  5  0  0  0  0  0  0  0  0  0  0
  146.3273  143.2932  159.2854 C   0  0  0  0  0  0  0  0  0  0  0  0
  146.8762  142.8584  160.4310 N   0  0  0  0  0  0  0  0  0  0  0  0
  146.0806  143.0985  161.5433 N   0  0  0  0  0  0  0  0  0  0  0  0
  144.9503  143.7199  161.2072 C   0  0  0  0  0  0  0  0  0  0  0  0
  144.7558  144.0689  159.5026 S   0  0  0  0  0  0  0  0  0  0  0  0
  148.4044  142.0983  156.7484 N   0  0  0  0  0  0  0  0  0  0  0  0
  149.1943  141.0119  156.1646 C   0  0  2  0  0  0  0  0  0  0  0  0
  150.6606  141.1786  156.6369 C   0  0  0  0  0  0  0  0  0  0  0  0
  151.7325  140.3986  155.8430 C   0  0  0  0  0  0  0  0  0  0  0  0
  151.3692  138.9368  155.5108 C   0  0  0  0  0  0  0  0  0  0  0  0
  150.1070  138.7135  154.6378 C   0  0  0  0  0  0  0  0  0  0  0  0
  149.5894  139.9167  153.9858 N   0  0  0  0  0  0  0  0  0  0  0  0
  149.1355  141.0113  154.6201 C   0  0  0  0  0  0  0  0  0  0  0  0
  148.7181  141.9858  153.9954 O   0  0  0  0  0  0  0  0  0  0  0  0
  144.2282  143.9766  161.9677 H   0  0  0  0  0  0  0  0  0  0  0  0
  148.5062  143.0090  156.3255 H   0  0  0  0  0  0  0  0  0  0  0  0
  148.8002  140.0676  156.5422 H   0  0  0  0  0  0  0  0  0  0  0  0
  150.9377  142.2339  156.6210 H   0  0  0  0  0  0  0  0  0  0  0  0
  150.7138  140.8787  157.6843 H   0  0  0  0  0  0  0  0  0  0  0  0
  151.9609  140.9298  154.9179 H   0  0  0  0  0  0  0  0  0  0  0  0
  152.6630  140.4123  156.4114 H   0  0  0  0  0  0  0  0  0  0  0  0
  152.2219  138.4941  154.9947 H   0  0  0  0  0  0  0  0  0  0  0  0
  151.2669  138.3699  156.4366 H   0  0  0  0  0  0  0  0  0  0  0  0
  150.3264  137.9767  153.8647 H   0  0  0  0  0  0  0  0  0  0  0  0
  149.3111  138.2715  155.2386 H   0  0  0  0  0  0  0  0  0  0  0  0
  149.5636  139.9149  152.9766 H   0  0  0  0  0  0  0  0  0  0  0  0
  1  2  2  0  0  0  0
  2  3  1  0  0  0  0
  2  9  1  0  0  0  0
  3  4  1  0  0  0  0
  4  8  1  0  0  0  0
  4  5  2  0  0  0  0
  5  6  1  0  0  0  0
  6  7  2  0  0  0  0
  7  8  1  0  0  0  0
  7 18  1  0  0  0  0
  9 10  1  0  0  0  0
  9 19  1  0  0  0  0
 10 16  1  0  0  0  0
 10 11  1  0  0  0  0
 10 20  1  0  0  0  0
 11 12  1  0  0  0  0
 11 21  1  0  0  0  0
 11 22  1  0  0  0  0
 12 13  1  0  0  0  0
 12 23  1  0  0  0  0
 12 24  1  0  0  0  0
 13 14  1  0  0  0  0
 13 25  1  0  0  0  0
 13 26  1  0  0  0  0
 14 15  1  0  0  0  0
 14 27  1  0  0  0  0
 14 28  1  0  0  0  0
 15 16  1  0  0  0  0
 15 29  1  0  0  0  0
 16 17  2  0  0  0  0
M  CHG  1   3  -1
M  END
> <s_m_source_file>
AV-unprocessed.smi

> <i_m_source_file_index>
2046

> <i_lp_mmshare_version>
43012

> <i_f3d_flags>
0

> <s_epik_input>
czFbY0hdbm5jMVtOSF1DKD1PKVtOSF1bQ0BASF0yW0NIMl1bQ0gyXVtDSDJdW0NIMl1bTkhdQzI9Tw==

> <s_epik_cmdline>
J2VwaWtfcHl0aG9uJywgJy1waCcsICc3LjAnLCAnLXRuJywgJzgnLCAnLW1hJywgJzIwMCcsICctbWV0YWxfYmluZGluZycsICctaW1hZScsICc8aW5maWxlLm1hZT4nLCAnLW9tYWUnLCAnPG91dGZpbGUubWFlPic=

> <r_lp_tautomer_probability>
1

> <r_epik_Ionization_Penalty>
4.05949

> <r_epik_Ionization_Penalty_Charging>
4.01916

> <r_epik_Ionization_Penalty_Neutral>
0.0403285

> <r_epik_State_Penalty>
4.01849

> <r_epik_Charging_Adjusted_Penalty>
8.03765

> <i_epik_Tot_Q>
-1

> <i_epik_Tot_abs_Q>
1

> <r_epik_Metal_State_Penalty>
0.626741

> <b_epik_Metal_Only>
1

> <s_lp_Force_Field>
OPLS_2005

> <r_lp_Energy>
13.487

> <b_lp_Chiralities_Consistent>
1

> <s_lp_Variant>
AV-unprocessed.smi:2046-3

> <Gold.Version>
5.8.1

> <Gold.Id.Protein>
6NUR|6NUR_protein|mol2

> <Gold.PLP.Fitness>
36.7772

> <Gold.PLP.PLP>
-26.2942

> <Gold.PLP.part.hbond>
-6.0000

> <Gold.PLP.part.metal>
0.0000

> <Gold.PLP.part.buried>
-6.1883

> <Gold.PLP.part.nonpolar>
-16.3954

> <Gold.PLP.part.repulsive>
1.0439

> <Gold.PLP.ligand.clash>
0.0000

> <Gold.PLP.ligand.torsion>
0.5938

> <Gold.PLP.Chemscore.Hbond>
3.8880

> <Gold.PLP.Chemscore.CHOScore>
0.0000

> <Gold.PLP.Chemscore.Metal>
0.0000

> <Gold.Chemscore.Hbonds>
donor molecule, donor type, donor heavy atom, donor atom, acceptor molecule, acceptor atom, score
      L1  H     9    19       P1  8028  1.00
      L1  H    15    29       P1  7957  1.00
      P1  H  6933  6944       L1     5  0.73
      P1  H  6934  6946       L1     5  0.63
      P1  H  8011  8017       L1    17  0.43

> <Gold.PLP.Chemscore.Internal.Correction>
0.0065

> <Gold.Rescore>
     Score         DG    S(hbond)    S(metal)    S(lipo)     H(rot)  DE(clash)    DE(int)     intcor
     14.18     -15.98       2.62        0.00      36.88       1.00       0.06       1.74       ----

> <Gold.Chemscore.Fitness>
14.1779

> <Gold.Chemscore.DG>
-15.9755

> <Gold.Chemscore.ZeroCoef>
-5.4800

> <Gold.Chemscore.Hbond>
2.6170

> <Gold.Chemscore.Metal>
0.0000

> <Gold.Chemscore.Lipo>
36.8771

> <Gold.Chemscore.Internal_Hbond>
0.0000

> <Gold.Chemscore.DEClash>
0.0580

> <Gold.Chemscore.DEInternal>
1.7396

> <Gold.Chemscore.Rot>
1.0000

> <Gold.Chemscore.Internal.Correction>
   9.000000E+99

> <Gold.Chemscore.Hbonds>
donor molecule, donor type, donor heavy atom, donor atom, acceptor molecule, acceptor atom, score
      L1  H     9    19       P1  8028  0.91
      L1  H    15    29       P1  7957  1.00
      P1  H  6933  6944       L1     5  0.10
      P1  H  6934  6946       L1     5  0.06
      P1  H  8011  8017       L1    17  0.36

> <Gold.Chemscore.Hbond.Weighted>
-8.7409

> <Gold.Chemscore.Metal.Weighted>
-0.0000

> <Gold.Chemscore.Lipo.Weighted>
-4.3146

> <Gold.Chemscore.Internal_Hbond.Weighted>
0.0000

> <Gold.Chemscore.DEClash.Weighted>
0.0580

> <Gold.Chemscore.DEInternal.Weighted>
1.7396

> <Gold.Chemscore.Rot.Weighted>
2.5600

> <Gold.Chemscore.Internal.Correction.Weighted>
   9.000000E+99

> <Gold.Protein.RotatedTorsions>
[ 6907 6896 6895 6894 ] final  -53.61 input  -60.11 | X-H torsion
[ 7974 7965 7964 7962 ] final -178.32 input  175.53 | X-H torsion
[ 8008 7997 7996 7995 ] final  143.06 input   59.86 | X-H torsion
[ 10167 10162 10161 10158 ] final  -16.89 input  -65.29 | X-H torsion
[ 10718 10713 10712 10709 ] final  127.50 input   66.30 | X-H torsion
[ 10763 10752 10751 10750 ] final  121.27 input  -60.55 | X-H torsion
[ 11005 11000 10999 10996 ] final  114.20 input  -57.11 | X-H torsion

> <Gold.Protein.ActiveResidues>
 VAL166  LYS551  ARG553  GLY616  TRP617  ASP618  TYR619  PRO620  LYS621  CYS622 
 ASP623  PHE694  ASN695  SER759  ASP760  ASP761  ALA762  ILE779  LEU786  VAL792 
 PHE793  MET794  SER795  GLU796  ALA797  LYS798  CYS799  TRP800  GLU811  SER814 

> <Gold.Protein.RotatedAtoms>
  150.8412  134.7704  159.6933 H   0  0  0  0  0  0  0  0  0  0  0  0  # atno 6907 bound_to 6896
  152.4499  134.5413  159.9850 H   0  0  0  0  0  0  0  0  0  0  0  0  # atno 6908 bound_to 6896
  151.5553  133.3373  159.2996 H   0  0  0  0  0  0  0  0  0  0  0  0  # atno 6909 bound_to 6896
  144.7130  140.0886  143.6422 H   0  0  0  0  0  0  0  0  0  0  0  0  # atno 7974 bound_to 7965
  156.2937  140.2272  156.4829 H   0  0  0  0  0  0  0  0  0  0  0  0  # atno 8008 bound_to 7997
  154.7837  140.0458  157.1168 H   0  0  0  0  0  0  0  0  0  0  0  0  # atno 8009 bound_to 7997
  154.9728  140.3068  155.4984 H   0  0  0  0  0  0  0  0  0  0  0  0  # atno 8010 bound_to 7997
  140.7240  143.5070  150.9797 H   0  0  0  0  0  0  0  0  0  0  0  0  # atno 10167 bound_to 10162
  157.5327  131.1098  150.8983 H   0  0  0  0  0  0  0  0  0  0  0  0  # atno 10718 bound_to 10713
  153.6114  135.3430  155.2980 H   0  0  0  0  0  0  0  0  0  0  0  0  # atno 10763 bound_to 10752
  154.8618  135.4251  154.2305 H   0  0  0  0  0  0  0  0  0  0  0  0  # atno 10764 bound_to 10752
  153.3157  135.7034  153.7148 H   0  0  0  0  0  0  0  0  0  0  0  0  # atno 10765 bound_to 10752
  139.8974  134.9564  156.6856 H   0  0  0  0  0  0  0  0  0  0  0  0  # atno 11005 bound_to 11000
  145.9640  139.2821  143.1138 LP  0  0  0  0  0  0  0  0  0  0  0  0  # atno 17320 bound_to 7965
  145.9189  140.9129  143.0415 LP  0  0  0  0  0  0  0  0  0  0  0  0  # atno 17321 bound_to 7965
  139.8782  143.7105  152.3160 LP  0  0  0  0  0  0  0  0  0  0  0  0  # atno 17342 bound_to 10162
  139.7378  144.7567  151.0700 LP  0  0  0  0  0  0  0  0  0  0  0  0  # atno 17343 bound_to 10162
  156.9560  130.5437  149.5284 LP  0  0  0  0  0  0  0  0  0  0  0  0  # atno 17370 bound_to 10713
  156.0435  130.5514  150.8826 LP  0  0  0  0  0  0  0  0  0  0  0  0  # atno 17371 bound_to 10713
  140.7265  133.9096  155.8182 LP  0  0  0  0  0  0  0  0  0  0  0  0  # atno 17394 bound_to 11000
  141.0187  134.0920  157.4144 LP  0  0  0  0  0  0  0  0  0  0  0  0  # atno 17395 bound_to 11000

$$$$
