AV-unprocessed.smi:109|AV-procd|sdf|1056|dock3
  -GOLD-   2262018123D 1   1.00000     0.00000
 Structure written by MMmdl.
 58 61  0  0  0  0  0  0  0  0  1 V2000
  149.3464  141.0371  153.4410 O   0  0  0  0  0  0  0  0  0  0  0  0
  149.7463  140.7231  154.7575 C   0  0  0  0  0  0  0  0  0  0  0  0
  148.8050  141.4021  155.7651 C   0  0  0  0  0  0  0  0  0  0  0  0
  149.2624  141.2258  157.2302 C   0  0  1  0  0  0  0  0  0  0  0  0
  149.2847  139.8045  157.5753 N   0  0  0  0  0  0  0  0  0  0  0  0
  148.1592  139.0564  157.5651 C   0  0  0  0  0  0  0  0  0  0  0  0
  147.4503  138.8289  158.7018 N   0  0  0  0  0  0  0  0  0  0  0  0
  146.3388  138.0877  158.6606 C   0  0  0  0  0  0  0  0  0  0  0  0
  145.7711  137.4918  157.6093 N   0  0  0  0  0  0  0  0  0  0  0  0
  146.4804  137.7192  156.4658 C   0  0  0  0  0  0  0  0  0  0  0  0
  147.6747  138.4841  156.3612 C   0  0  0  0  0  0  0  0  0  0  0  0
  148.1137  138.4929  155.0438 N   0  0  0  0  0  0  0  0  0  0  0  0
  147.2245  137.7752  154.4108 C   0  0  0  0  0  0  0  0  0  0  0  0
  146.2027  137.2759  155.1912 N   0  0  0  0  0  0  0  0  0  0  0  0
  145.0321  136.4284  154.7947 C   0  0  2  0  0  0  0  0  0  0  0  0
  145.4756  135.5276  153.8226 O   0  0  0  0  0  0  0  0  0  0  0  0
  144.7959  135.7363  152.5857 C   0  0  2  0  0  0  0  0  0  0  0  0
  145.7220  135.4393  151.3930 C   0  0  0  0  0  0  0  0  0  0  0  0
  145.0703  135.7424  150.1780 O   0  0  0  0  0  0  0  0  0  0  0  0
  144.1894  137.1460  152.6696 C   0  0  2  0  0  0  0  0  0  0  0  0
  145.0864  138.1382  152.1999 O   0  0  0  0  0  0  0  0  0  0  0  0
  143.9036  137.2639  154.1611 C   0  0  2  0  0  0  0  0  0  0  0  0
  143.8016  138.6034  154.6127 O   0  0  0  0  0  0  0  0  0  0  0  0
  150.6298  141.8906  157.5510 C   0  0  0  0  0  0  0  0  0  0  0  0
  151.2985  141.3072  158.8145 C   0  0  0  0  0  0  0  0  0  0  0  0
  152.6930  141.9135  159.0421 C   0  0  0  0  0  0  0  0  0  0  0  0
  152.6272  143.4467  159.1218 C   0  0  0  0  0  0  0  0  0  0  0  0
  151.9609  144.0390  157.8701 C   0  0  0  0  0  0  0  0  0  0  0  0
  150.5670  143.4326  157.6407 C   0  0  0  0  0  0  0  0  0  0  0  0
  144.7387  135.9148  155.7109 H   0  0  0  0  0  0  0  0  0  0  0  0
  143.9737  135.0184  152.5770 H   0  0  0  0  0  0  0  0  0  0  0  0
  143.2743  137.2209  152.0811 H   0  0  0  0  0  0  0  0  0  0  0  0
  142.9656  136.7519  154.3798 H   0  0  0  0  0  0  0  0  0  0  0  0
  149.3736  140.2474  152.9224 H   0  0  0  0  0  0  0  0  0  0  0  0
  149.7294  139.6402  154.8843 H   0  0  0  0  0  0  0  0  0  0  0  0
  150.7758  141.0529  154.8995 H   0  0  0  0  0  0  0  0  0  0  0  0
  148.7187  142.4621  155.5230 H   0  0  0  0  0  0  0  0  0  0  0  0
  147.8104  140.9782  155.6332 H   0  0  0  0  0  0  0  0  0  0  0  0
  148.5081  141.7153  157.8473 H   0  0  0  0  0  0  0  0  0  0  0  0
  150.1631  139.4580  157.9336 H   0  0  0  0  0  0  0  0  0  0  0  0
  145.8310  137.9541  159.6042 H   0  0  0  0  0  0  0  0  0  0  0  0
  147.2935  137.5926  153.3489 H   0  0  0  0  0  0  0  0  0  0  0  0
  146.6570  135.9958  151.4591 H   0  0  0  0  0  0  0  0  0  0  0  0
  145.9853  134.3814  151.3839 H   0  0  0  0  0  0  0  0  0  0  0  0
  145.0302  136.6820  150.0856 H   0  0  0  0  0  0  0  0  0  0  0  0
  144.7365  138.9873  152.4230 H   0  0  0  0  0  0  0  0  0  0  0  0
  143.9485  139.1793  153.8785 H   0  0  0  0  0  0  0  0  0  0  0  0
  151.3007  141.6510  156.7247 H   0  0  0  0  0  0  0  0  0  0  0  0
  150.6857  141.4961  159.6953 H   0  0  0  0  0  0  0  0  0  0  0  0
  151.3843  140.2238  158.7236 H   0  0  0  0  0  0  0  0  0  0  0  0
  153.1274  141.5121  159.9580 H   0  0  0  0  0  0  0  0  0  0  0  0
  153.3577  141.6176  158.2295 H   0  0  0  0  0  0  0  0  0  0  0  0
  152.0661  143.7425  160.0090 H   0  0  0  0  0  0  0  0  0  0  0  0
  153.6306  143.8570  159.2390 H   0  0  0  0  0  0  0  0  0  0  0  0
  151.8825  145.1221  157.9684 H   0  0  0  0  0  0  0  0  0  0  0  0
  152.5887  143.8525  156.9980 H   0  0  0  0  0  0  0  0  0  0  0  0
  150.1393  143.8476  156.7275 H   0  0  0  0  0  0  0  0  0  0  0  0
  149.9109  143.7368  158.4565 H   0  0  0  0  0  0  0  0  0  0  0  0
  1  2  1  0  0  0  0
  1 34  1  0  0  0  0
  2  3  1  0  0  0  0
  2 35  1  0  0  0  0
  2 36  1  0  0  0  0
  3  4  1  0  0  0  0
  3 37  1  0  0  0  0
  3 38  1  0  0  0  0
  4  5  1  0  0  0  0
  4 24  1  0  0  0  0
  4 39  1  0  0  0  0
  5  6  1  0  0  0  0
  5 40  1  0  0  0  0
  6 11  1  0  0  0  0
  6  7  2  0  0  0  0
  7  8  1  0  0  0  0
  8  9  2  0  0  0  0
  8 41  1  0  0  0  0
  9 10  1  0  0  0  0
 10 14  1  0  0  0  0
 10 11  2  0  0  0  0
 11 12  1  0  0  0  0
 12 13  2  0  0  0  0
 13 14  1  0  0  0  0
 13 42  1  0  0  0  0
 14 15  1  0  0  0  0
 15 30  1  0  0  0  0
 15 22  1  0  0  0  0
 15 16  1  0  0  0  0
 16 17  1  0  0  0  0
 17 31  1  0  0  0  0
 17 18  1  0  0  0  0
 17 20  1  0  0  0  0
 18 19  1  0  0  0  0
 18 43  1  0  0  0  0
 18 44  1  0  0  0  0
 19 45  1  0  0  0  0
 20 32  1  0  0  0  0
 20 21  1  0  0  0  0
 20 22  1  0  0  0  0
 21 46  1  0  0  0  0
 22 33  1  0  0  0  0
 22 23  1  0  0  0  0
 23 47  1  0  0  0  0
 24 29  1  0  0  0  0
 24 25  1  0  0  0  0
 24 48  1  0  0  0  0
 25 26  1  0  0  0  0
 25 49  1  0  0  0  0
 25 50  1  0  0  0  0
 26 27  1  0  0  0  0
 26 51  1  0  0  0  0
 26 52  1  0  0  0  0
 27 28  1  0  0  0  0
 27 53  1  0  0  0  0
 27 54  1  0  0  0  0
 28 29  1  0  0  0  0
 28 55  1  0  0  0  0
 28 56  1  0  0  0  0
 29 57  1  0  0  0  0
 29 58  1  0  0  0  0
M  END
> <s_m_source_file>
AV-unprocessed.smi

> <i_m_source_file_index>
109

> <i_lp_mmshare_version>
43012

> <i_f3d_flags>
0

> <s_epik_input>
W0NIMl0xW0NIMl1bQ0gyXVtDSDJdW0NIMl1bQ0hdMVtDQEhdKFtDSDJdW0NIMl1bT0hdKVtOSF1jKG5bY0hdbjIpYyhjMjMpbltjSF1uM1tDQEBIXTRPW0NASF0oW0NIMl1bT0hdKVtDQEBIXShbT0hdKVtDQEhdNFtPSF0=

> <s_epik_cmdline>
J2VwaWtfcHl0aG9uJywgJy1waCcsICc3LjAnLCAnLXRuJywgJzgnLCAnLW1hJywgJzIwMCcsICctbWV0YWxfYmluZGluZycsICctaW1hZScsICc8aW5maWxlLm1hZT4nLCAnLW9tYWUnLCAnPG91dGZpbGUubWFlPic=

> <r_lp_tautomer_probability>
1

> <r_epik_Ionization_Penalty>
0.000793976

> <r_epik_Ionization_Penalty_Charging>
0

> <r_epik_Ionization_Penalty_Neutral>
0.000793976

> <r_epik_State_Penalty>
-0

> <r_epik_Charging_Adjusted_Penalty>
0

> <i_epik_Tot_Q>
0

> <i_epik_Tot_abs_Q>
0

> <r_epik_Metal_State_Penalty>
-0

> <b_epik_Metal_Only>
0

> <s_epik_Chemistry_Notes>
This compound contains an acetal/aminal-like group ( X-CH(R)-Y where X, Y are N, S, or O) that may be acid/base labile, releasing an aldehyde.

> <s_lp_Force_Field>
OPLS_2005

> <r_lp_Energy>
58.3807

> <b_lp_Chiralities_Consistent>
1

> <s_lp_Variant>
AV-unprocessed.smi:109-26

> <Gold.Version>
5.8.1

> <Gold.Id.Protein>
6NUR|6NUR_protein|mol2

> <Gold.PLP.Fitness>
53.4256

> <Gold.PLP.PLP>
-39.0253

> <Gold.PLP.part.hbond>
-9.0000

> <Gold.PLP.part.metal>
0.0000

> <Gold.PLP.part.buried>
-2.6088

> <Gold.PLP.part.nonpolar>
-28.0774

> <Gold.PLP.part.repulsive>
0.2481

> <Gold.PLP.ligand.clash>
0.0000

> <Gold.PLP.ligand.torsion>
1.7699

> <Gold.PLP.Chemscore.Hbond>
4.7960

> <Gold.PLP.Chemscore.CHOScore>
0.8738

> <Gold.PLP.Chemscore.Metal>
0.0000

> <Gold.Chemscore.Hbonds>
donor molecule, donor type, donor heavy atom, donor atom, acceptor molecule, acceptor atom, score
      L1  H     1    34       P1  7957  0.59
      L1  H    19    45       P1 10171  0.50
      L1  H    21    46       P1 10175  1.00
      L1  H    23    47       P1 10175  1.00
      P1  H  6934  6947       L1     7  0.01
      P1  H  8011  8017       L1     1  1.00
      L1  C    13    42       P1  7948  0.81

> <Gold.PLP.Chemscore.Internal.Correction>
0.9306

> <Gold.Rescore>
     Score         DG    S(hbond)    S(metal)    S(lipo)     H(rot)  DE(clash)    DE(int)     intcor
     11.42     -14.99       3.92        0.00      88.85       5.47       0.63       2.94       ----

> <Gold.Chemscore.Fitness>
11.4208

> <Gold.Chemscore.DG>
-14.9895

> <Gold.Chemscore.ZeroCoef>
-5.4800

> <Gold.Chemscore.Hbond>
3.9244

> <Gold.Chemscore.Metal>
0.0000

> <Gold.Chemscore.Lipo>
88.8509

> <Gold.Chemscore.Internal_Hbond>
0.0000

> <Gold.Chemscore.DEClash>
0.6285

> <Gold.Chemscore.DEInternal>
2.9402

> <Gold.Chemscore.Rot>
5.4662

> <Gold.Chemscore.Internal.Correction>
   9.000000E+99

> <Gold.Chemscore.Hbonds>
donor molecule, donor type, donor heavy atom, donor atom, acceptor molecule, acceptor atom, score
      L1  H     1    34       P1  7957  0.60
      L1  H    19    45       P1 10171  0.48
      L1  H    21    46       P1 10175  1.00
      L1  H    23    47       P1 10175  0.99
      P1  H  8011  8017       L1     1  0.59

> <Gold.Chemscore.Hbond.Weighted>
-13.1075

> <Gold.Chemscore.Metal.Weighted>
-0.0000

> <Gold.Chemscore.Lipo.Weighted>
-10.3956

> <Gold.Chemscore.Internal_Hbond.Weighted>
0.0000

> <Gold.Chemscore.DEClash.Weighted>
0.6285

> <Gold.Chemscore.DEInternal.Weighted>
2.9402

> <Gold.Chemscore.Rot.Weighted>
13.9935

> <Gold.Chemscore.Internal.Correction.Weighted>
   9.000000E+99

> <Gold.Protein.RotatedTorsions>
[ 6907 6896 6895 6894 ] final  -13.61 input  -60.11 | X-H torsion
[ 7974 7965 7964 7962 ] final   -4.87 input  175.53 | X-H torsion
[ 8008 7997 7996 7995 ] final  -63.11 input   59.86 | X-H torsion
[ 10167 10162 10161 10158 ] final -174.06 input  -65.29 | X-H torsion
[ 10718 10713 10712 10709 ] final -162.56 input   66.30 | X-H torsion
[ 10763 10752 10751 10750 ] final  134.19 input  -60.55 | X-H torsion
[ 11005 11000 10999 10996 ] final -111.20 input  -57.11 | X-H torsion

> <Gold.Protein.ActiveResidues>
 VAL166  LYS551  ARG553  GLY616  TRP617  ASP618  TYR619  PRO620  LYS621  CYS622 
 ASP623  PHE694  ASN695  SER759  ASP760  ASP761  ALA762  ILE779  LEU786  VAL792 
 PHE793  MET794  SER795  GLU796  ALA797  LYS798  CYS799  TRP800  GLU811  SER814 

> <Gold.Protein.RotatedAtoms>
  151.3522  135.0886  159.9406 H   0  0  0  0  0  0  0  0  0  0  0  0  # atno 6907 bound_to 6896
  152.5184  133.9341  159.7605 H   0  0  0  0  0  0  0  0  0  0  0  0  # atno 6908 bound_to 6896
  150.9719  133.6281  159.2766 H   0  0  0  0  0  0  0  0  0  0  0  0  # atno 6909 bound_to 6896
  146.2364  140.1936  142.8333 H   0  0  0  0  0  0  0  0  0  0  0  0  # atno 7974 bound_to 7965
  154.4536  140.0982  156.6692 H   0  0  0  0  0  0  0  0  0  0  0  0  # atno 8008 bound_to 7997
  155.5207  140.3479  155.4388 H   0  0  0  0  0  0  0  0  0  0  0  0  # atno 8009 bound_to 7997
  156.0732  140.1354  156.9792 H   0  0  0  0  0  0  0  0  0  0  0  0  # atno 8010 bound_to 7997
  139.5654  144.1768  152.1304 H   0  0  0  0  0  0  0  0  0  0  0  0  # atno 10167 bound_to 10162
  156.6122  130.8855  151.2939 H   0  0  0  0  0  0  0  0  0  0  0  0  # atno 10718 bound_to 10713
  153.8195  135.3118  155.3409 H   0  0  0  0  0  0  0  0  0  0  0  0  # atno 10763 bound_to 10752
  154.8019  135.4722  154.0299 H   0  0  0  0  0  0  0  0  0  0  0  0  # atno 10764 bound_to 10752
  153.1703  135.6876  153.8707 H   0  0  0  0  0  0  0  0  0  0  0  0  # atno 10765 bound_to 10752
  141.0748  133.9319  157.2412 H   0  0  0  0  0  0  0  0  0  0  0  0  # atno 11005 bound_to 11000
  144.9838  140.8484  143.5381 LP  0  0  0  0  0  0  0  0  0  0  0  0  # atno 17320 bound_to 7965
  145.1933  139.2290  143.5231 LP  0  0  0  0  0  0  0  0  0  0  0  0  # atno 17321 bound_to 7965
  140.1290  144.5306  150.6815 LP  0  0  0  0  0  0  0  0  0  0  0  0  # atno 17342 bound_to 10162
  140.6937  143.2391  151.5059 LP  0  0  0  0  0  0  0  0  0  0  0  0  # atno 17343 bound_to 10162
  157.7251  130.9611  150.1600 LP  0  0  0  0  0  0  0  0  0  0  0  0  # atno 17370 bound_to 10713
  156.2380  130.3688  149.8369 LP  0  0  0  0  0  0  0  0  0  0  0  0  # atno 17371 bound_to 10713
  139.9561  135.0165  156.9131 LP  0  0  0  0  0  0  0  0  0  0  0  0  # atno 17394 bound_to 11000
  140.5596  134.0547  155.7394 LP  0  0  0  0  0  0  0  0  0  0  0  0  # atno 17395 bound_to 11000

$$$$
