AV-unprocessed.smi:653|AV-procd|sdf|3210|dock3
  -GOLD-   22720 0143D 1   1.00000     0.00000
 Structure written by MMmdl.
 45 46  0  0  0  0  0  0  0  0  2 V2000
  144.3907  132.2701  149.2101 C   0  0  0  0  0  0  0  0  0  0  0  0
  144.3113  133.3839  150.2330 C   0  0  0  0  0  0  0  0  0  0  0  0
  143.5740  133.2542  151.4295 C   0  0  0  0  0  0  0  0  0  0  0  0
  143.5485  134.3285  152.3429 C   0  0  0  0  0  0  0  0  0  0  0  0
  144.2600  135.5111  152.0424 C   0  0  0  0  0  0  0  0  0  0  0  0
  144.2578  136.6842  153.0091 C   0  0  0  0  0  0  0  0  0  0  0  0
  145.6682  137.2445  153.2252 C   0  0  0  0  0  0  0  0  0  0  0  0
  146.5655  136.5341  153.6810 O   0  0  0  0  0  0  0  0  0  0  0  0
  145.8497  138.5297  152.8866 N   0  0  0  0  0  0  0  0  0  0  0  0
  147.1062  139.2611  153.0134 C   0  0  0  0  0  0  0  0  0  0  0  0
  147.2203  140.0041  154.3683 C   0  0  2  0  0  0  0  0  0  0  0  0
  146.4226  141.3012  154.3904 C   0  0  0  0  0  0  0  0  0  0  0  0
  147.4031  142.3343  153.8288 C   0  0  0  0  0  0  0  0  0  0  0  0
  148.6897  141.7240  153.8755 O   0  0  0  0  0  0  0  0  0  0  0  0
  148.6236  140.5532  154.6788 C   0  0  2  0  0  0  0  0  0  0  0  0
  149.8273  139.6175  154.4244 C   0  0  0  0  0  0  0  0  0  0  0  0
  149.4884  138.1531  154.7526 C   0  0  0  0  0  0  0  0  0  0  0  0
  151.0548  140.0662  155.2336 C   0  0  0  0  0  0  0  0  0  0  0  0
  144.9784  135.5840  150.8291 C   0  0  0  0  0  0  0  0  0  0  0  0
  144.9798  134.5319  149.9816 N   0  3  0  0  0  0  0  0  0  0  0  0
  143.5212  131.6160  149.2815 H   0  0  0  0  0  0  0  0  0  0  0  0
  145.2859  131.6702  149.3751 H   0  0  0  0  0  0  0  0  0  0  0  0
  144.4277  132.6739  148.1978 H   0  0  0  0  0  0  0  0  0  0  0  0
  143.0364  132.3428  151.6479 H   0  0  0  0  0  0  0  0  0  0  0  0
  142.9920  134.2424  153.2649 H   0  0  0  0  0  0  0  0  0  0  0  0
  143.6149  137.4775  152.6262 H   0  0  0  0  0  0  0  0  0  0  0  0
  143.8327  136.3640  153.9618 H   0  0  0  0  0  0  0  0  0  0  0  0
  145.0619  139.0404  152.5145 H   0  0  0  0  0  0  0  0  0  0  0  0
  147.9314  138.5615  152.8791 H   0  0  0  0  0  0  0  0  0  0  0  0
  147.1706  139.9687  152.1863 H   0  0  0  0  0  0  0  0  0  0  0  0
  146.8912  139.3406  155.1691 H   0  0  0  0  0  0  0  0  0  0  0  0
  145.4870  141.2603  153.8326 H   0  0  0  0  0  0  0  0  0  0  0  0
  146.1749  141.5584  155.4213 H   0  0  0  0  0  0  0  0  0  0  0  0
  147.1669  142.5866  152.7948 H   0  0  0  0  0  0  0  0  0  0  0  0
  147.3904  143.2538  154.4145 H   0  0  0  0  0  0  0  0  0  0  0  0
  148.6462  140.8742  155.7226 H   0  0  0  0  0  0  0  0  0  0  0  0
  150.1034  139.6754  153.3715 H   0  0  0  0  0  0  0  0  0  0  0  0
  149.2110  138.0381  155.8009 H   0  0  0  0  0  0  0  0  0  0  0  0
  150.3410  137.5010  154.5615 H   0  0  0  0  0  0  0  0  0  0  0  0
  148.6590  137.7840  154.1494 H   0  0  0  0  0  0  0  0  0  0  0  0
  150.8521  140.0528  156.3048 H   0  0  0  0  0  0  0  0  0  0  0  0
  151.3582  141.0783  154.9650 H   0  0  0  0  0  0  0  0  0  0  0  0
  151.9078  139.4126  155.0486 H   0  0  0  0  0  0  0  0  0  0  0  0
  145.5540  136.4429  150.5157 H   0  0  0  0  0  0  0  0  0  0  0  0
  145.5112  134.6065  149.1138 H   0  0  0  0  0  0  0  0  0  0  0  0
  1  2  1  0  0  0  0
  1 21  1  0  0  0  0
  1 22  1  0  0  0  0
  1 23  1  0  0  0  0
  2 20  1  0  0  0  0
  2  3  2  0  0  0  0
  3  4  1  0  0  0  0
  3 24  1  0  0  0  0
  4  5  2  0  0  0  0
  4 25  1  0  0  0  0
  5  6  1  0  0  0  0
  5 19  1  0  0  0  0
  6  7  1  0  0  0  0
  6 26  1  0  0  0  0
  6 27  1  0  0  0  0
  7  8  2  0  0  0  0
  7  9  1  0  0  0  0
  9 10  1  0  0  0  0
  9 28  1  0  0  0  0
 10 11  1  0  0  0  0
 10 29  1  0  0  0  0
 10 30  1  0  0  0  0
 11 15  1  0  0  0  0
 11 12  1  0  0  0  0
 11 31  1  0  0  0  0
 12 13  1  0  0  0  0
 12 32  1  0  0  0  0
 12 33  1  0  0  0  0
 13 14  1  0  0  0  0
 13 34  1  0  0  0  0
 13 35  1  0  0  0  0
 14 15  1  0  0  0  0
 15 16  1  0  0  0  0
 15 36  1  0  0  0  0
 16 17  1  0  0  0  0
 16 18  1  0  0  0  0
 16 37  1  0  0  0  0
 17 38  1  0  0  0  0
 17 39  1  0  0  0  0
 17 40  1  0  0  0  0
 18 41  1  0  0  0  0
 18 42  1  0  0  0  0
 18 43  1  0  0  0  0
 19 20  2  0  0  0  0
 19 44  1  0  0  0  0
 20 45  1  0  0  0  0
M  CHG  1  20   1
M  END
> <s_m_source_file>
AV-unprocessed.smi

> <i_m_source_file_index>
653

> <i_lp_mmshare_version>
43012

> <i_f3d_flags>
0

> <s_epik_input>
W0NIM11jMVtjSF1bY0hdYyhbY0hdbjEpW0NIMl1DKD1PKVtOSF1bQ0gyXVtDQEBIXTJbQ0gyXVtDSDJdT1tDQEhdMltDSF0oW0NIM10pW0NIM10=

> <s_epik_cmdline>
J2VwaWtfcHl0aG9uJywgJy1waCcsICc3LjAnLCAnLXRuJywgJzgnLCAnLW1hJywgJzIwMCcsICctbWV0YWxfYmluZGluZycsICctaW1hZScsICc8aW5maWxlLm1hZT4nLCAnLW9tYWUnLCAnPG91dGZpbGUubWFlPic=

> <r_epik_Ionization_Penalty>
2.12486

> <r_epik_Ionization_Penalty_Charging>
2.12486

> <r_epik_Ionization_Penalty_Neutral>
9.0873e-08

> <r_epik_State_Penalty>
2.26279

> <r_epik_Charging_Adjusted_Penalty>
4.38765

> <i_epik_Tot_Q>
1

> <i_epik_Tot_abs_Q>
1

> <r_epik_Metal_State_Penalty>
2.27914

> <b_epik_Metal_Only>
0

> <s_lp_Force_Field>
OPLS_2005

> <r_lp_Energy>
28.354

> <b_lp_Chiralities_Consistent>
1

> <s_lp_Variant>
AV-unprocessed.smi:653-7

> <Gold.Version>
5.8.1

> <Gold.Id.Protein>
6NUR|6NUR_protein|mol2

> <Gold.PLP.Fitness>
44.1066

> <Gold.PLP.PLP>
-38.1278

> <Gold.PLP.part.hbond>
-3.0000

> <Gold.PLP.part.metal>
0.0000

> <Gold.PLP.part.buried>
-4.5977

> <Gold.PLP.part.nonpolar>
-31.2474

> <Gold.PLP.part.repulsive>
0.8791

> <Gold.PLP.ligand.clash>
0.0000

> <Gold.PLP.ligand.torsion>
0.9582

> <Gold.PLP.Chemscore.Hbond>
2.5920

> <Gold.PLP.Chemscore.CHOScore>
0.0000

> <Gold.PLP.Chemscore.Metal>
0.0000

> <Gold.Chemscore.Hbonds>
donor molecule, donor type, donor heavy atom, donor atom, acceptor molecule, acceptor atom, score
      L1  H     9    28       P1 10175  1.00
      L1  H    20    45       P1  7921  1.00
      P1  H  8011  8017       L1    14  0.58

> <Gold.PLP.Chemscore.Internal.Correction>
0.1193

> <Gold.Rescore>
     Score         DG    S(hbond)    S(metal)    S(lipo)     H(rot)  DE(clash)    DE(int)     intcor
     18.16     -19.88       2.27        0.00      92.75       1.57       0.93       0.79       ----

> <Gold.Chemscore.Fitness>
18.1561

> <Gold.Chemscore.DG>
-19.8783

> <Gold.Chemscore.ZeroCoef>
-5.4800

> <Gold.Chemscore.Hbond>
2.2655

> <Gold.Chemscore.Metal>
0.0000

> <Gold.Chemscore.Lipo>
92.7460

> <Gold.Chemscore.Internal_Hbond>
0.0000

> <Gold.Chemscore.DEClash>
0.9329

> <Gold.Chemscore.DEInternal>
0.7893

> <Gold.Chemscore.Rot>
1.5701

> <Gold.Chemscore.Internal.Correction>
   9.000000E+99

> <Gold.Chemscore.Hbonds>
donor molecule, donor type, donor heavy atom, donor atom, acceptor molecule, acceptor atom, score
      L1  H     9    28       P1 10175  0.96
      L1  H    20    45       P1  7921  0.98
      P1  H  8011  8017       L1    14  0.36

> <Gold.Chemscore.Hbond.Weighted>
-7.5666

> <Gold.Chemscore.Metal.Weighted>
-0.0000

> <Gold.Chemscore.Lipo.Weighted>
-10.8513

> <Gold.Chemscore.Internal_Hbond.Weighted>
0.0000

> <Gold.Chemscore.DEClash.Weighted>
0.9329

> <Gold.Chemscore.DEInternal.Weighted>
0.7893

> <Gold.Chemscore.Rot.Weighted>
4.0196

> <Gold.Chemscore.Internal.Correction.Weighted>
   9.000000E+99

> <Gold.Protein.RotatedTorsions>
[ 6907 6896 6895 6894 ] final  136.83 input  -60.11 | X-H torsion
[ 7974 7965 7964 7962 ] final  -18.58 input  175.53 | X-H torsion
[ 8008 7997 7996 7995 ] final  141.04 input   59.86 | X-H torsion
[ 10167 10162 10161 10158 ] final   74.25 input  -65.29 | X-H torsion
[ 10718 10713 10712 10709 ] final  149.74 input   66.30 | X-H torsion
[ 10763 10752 10751 10750 ] final  -87.88 input  -60.55 | X-H torsion
[ 11005 11000 10999 10996 ] final  -23.93 input  -57.11 | X-H torsion

> <Gold.Protein.ActiveResidues>
 VAL166  LYS551  ARG553  GLY616  TRP617  ASP618  TYR619  PRO620  LYS621  CYS622 
 ASP623  PHE694  ASN695  SER759  ASP760  ASP761  ALA762  ILE779  LEU786  VAL792 
 PHE793  MET794  SER795  GLU796  ALA797  LYS798  CYS799  TRP800  GLU811  SER814 

> <Gold.Protein.RotatedAtoms>
  152.2850  133.5506  159.5520 H   0  0  0  0  0  0  0  0  0  0  0  0  # atno 6907 bound_to 6896
  150.7211  134.0510  159.3807 H   0  0  0  0  0  0  0  0  0  0  0  0  # atno 6908 bound_to 6896
  151.8419  135.0587  160.0500 H   0  0  0  0  0  0  0  0  0  0  0  0  # atno 6909 bound_to 6896
  146.1885  140.3941  142.8467 H   0  0  0  0  0  0  0  0  0  0  0  0  # atno 7974 bound_to 7965
  156.2971  140.2325  156.4500 H   0  0  0  0  0  0  0  0  0  0  0  0  # atno 8008 bound_to 7997
  154.8110  140.0443  157.1363 H   0  0  0  0  0  0  0  0  0  0  0  0  # atno 8009 bound_to 7997
  154.9423  140.3031  155.5118 H   0  0  0  0  0  0  0  0  0  0  0  0  # atno 8010 bound_to 7997
  140.0157  144.5579  150.7622 H   0  0  0  0  0  0  0  0  0  0  0  0  # atno 10167 bound_to 10162
  157.2923  131.0855  151.1453 H   0  0  0  0  0  0  0  0  0  0  0  0  # atno 10718 bound_to 10713
  154.6385  135.5397  153.7762 H   0  0  0  0  0  0  0  0  0  0  0  0  # atno 10763 bound_to 10752
  153.0321  135.6453  154.1195 H   0  0  0  0  0  0  0  0  0  0  0  0  # atno 10764 bound_to 10752
  154.1121  135.2926  155.3208 H   0  0  0  0  0  0  0  0  0  0  0  0  # atno 10765 bound_to 10752
  140.8798  133.7662  156.0288 H   0  0  0  0  0  0  0  0  0  0  0  0  # atno 11005 bound_to 11000
  144.8442  140.6903  143.6210 LP  0  0  0  0  0  0  0  0  0  0  0  0  # atno 17320 bound_to 7965
  145.3865  139.1625  143.4252 LP  0  0  0  0  0  0  0  0  0  0  0  0  # atno 17321 bound_to 7965
  140.7363  143.2751  151.3766 LP  0  0  0  0  0  0  0  0  0  0  0  0  # atno 17342 bound_to 10162
  139.6174  144.0975  152.2359 LP  0  0  0  0  0  0  0  0  0  0  0  0  # atno 17343 bound_to 10162
  157.2844  130.6766  149.6082 LP  0  0  0  0  0  0  0  0  0  0  0  0  # atno 17370 bound_to 10713
  155.9667  130.4440  150.5443 LP  0  0  0  0  0  0  0  0  0  0  0  0  # atno 17371 bound_to 10713
  140.8475  134.2994  157.5289 LP  0  0  0  0  0  0  0  0  0  0  0  0  # atno 17394 bound_to 11000
  139.8718  134.9450  156.3896 LP  0  0  0  0  0  0  0  0  0  0  0  0  # atno 17395 bound_to 11000

$$$$
