AV-unprocessed.smi:74|AV-procd|sdf|764|dock7
  -GOLD-   2262017103D 1   1.00000     0.00000
 Structure written by MMmdl.
 58 62  0  0  0  0  0  0  0  0  1 V2000
  146.3680  131.2069  150.3642 O   0  0  0  0  0  0  0  0  0  0  0  0
  145.7657  132.3008  149.7026 C   0  0  0  0  0  0  0  0  0  0  0  0
  144.8930  133.1219  150.6660 C   0  0  0  0  0  0  0  0  0  0  0  0
  143.5208  132.4338  150.8173 C   0  0  0  0  0  0  0  0  0  0  0  0
  142.9547  132.1284  149.5589 O   0  0  0  0  0  0  0  0  0  0  0  0
  145.5720  133.5355  151.9914 C   0  0  0  0  0  0  0  0  0  0  0  0
  144.9293  134.9196  151.8788 C   0  0  0  0  0  0  0  0  0  0  0  0
  145.5934  136.0852  152.3828 N   0  0  0  0  0  0  0  0  0  0  0  0
  145.8610  137.2466  151.6940 C   0  0  0  0  0  0  0  0  0  0  0  0
  146.4339  138.1883  152.3928 N   0  0  0  0  0  0  0  0  0  0  0  0
  146.5437  137.6474  153.6687 C   0  0  0  0  0  0  0  0  0  0  0  0
  147.0459  138.1292  154.9111 C   0  0  0  0  0  0  0  0  0  0  0  0
  147.5966  139.3621  155.0534 N   0  0  0  0  0  0  0  0  0  0  0  0
  147.7451  140.1207  153.8154 C   0  0  0  0  0  0  0  0  0  0  0  0
  148.0671  141.5908  154.1309 C   0  0  0  0  0  0  0  0  0  0  0  0
  149.2243  141.6651  154.9576 O   0  0  0  0  0  0  0  0  0  0  0  0
  149.0448  140.9916  156.2010 C   0  0  2  0  0  0  0  0  0  0  0  0
  150.2915  141.2123  157.0687 C   0  0  0  0  0  0  0  0  0  0  0  0
  150.6241  142.5911  157.0889 O   0  0  0  0  0  0  0  0  0  0  0  0
  150.4626  143.1774  158.3678 C   0  0  0  0  0  0  0  0  0  0  0  0
  151.8089  143.6726  158.8511 C   0  0  0  0  0  0  0  0  0  0  0  0
  151.9545  145.0561  159.4440 C   0  0  0  0  0  0  0  0  0  0  0  0
  152.5436  144.7526  158.0901 C   0  0  0  0  0  0  0  0  0  0  0  0
  148.7411  139.5013  155.9508 C   0  0  0  0  0  0  0  0  0  0  0  0
  146.9477  137.3010  155.9859 N   0  0  0  0  0  0  0  0  0  0  0  0
  146.4071  136.0861  155.8577 C   0  0  0  0  0  0  0  0  0  0  0  0
  145.9087  135.5065  154.7645 N   0  0  0  0  0  0  0  0  0  0  0  0
  145.9995  136.3316  153.6825 C   0  0  0  0  0  0  0  0  0  0  0  0
  144.8406  134.6387  150.3766 C   0  0  0  0  0  0  0  0  0  0  0  0
  147.3063  131.3077  150.3174 H   0  0  0  0  0  0  0  0  0  0  0  0
  146.5443  132.9113  149.2451 H   0  0  0  0  0  0  0  0  0  0  0  0
  145.1683  131.9039  148.8811 H   0  0  0  0  0  0  0  0  0  0  0  0
  143.6061  131.5022  151.3771 H   0  0  0  0  0  0  0  0  0  0  0  0
  142.8207  133.0563  151.3748 H   0  0  0  0  0  0  0  0  0  0  0  0
  142.3295  132.8021  149.3391 H   0  0  0  0  0  0  0  0  0  0  0  0
  145.2628  132.9673  152.8694 H   0  0  0  0  0  0  0  0  0  0  0  0
  146.6607  133.5770  151.9203 H   0  0  0  0  0  0  0  0  0  0  0  0
  143.9363  134.9212  152.3316 H   0  0  0  0  0  0  0  0  0  0  0  0
  145.6210  137.3751  150.6486 H   0  0  0  0  0  0  0  0  0  0  0  0
  148.5517  139.6817  153.2268 H   0  0  0  0  0  0  0  0  0  0  0  0
  146.8455  140.0721  153.2034 H   0  0  0  0  0  0  0  0  0  0  0  0
  148.2553  142.1403  153.2086 H   0  0  0  0  0  0  0  0  0  0  0  0
  147.2226  142.0752  154.6236 H   0  0  0  0  0  0  0  0  0  0  0  0
  148.1962  141.4471  156.7150 H   0  0  0  0  0  0  0  0  0  0  0  0
  150.1128  140.8486  158.0816 H   0  0  0  0  0  0  0  0  0  0  0  0
  151.1270  140.6416  156.6603 H   0  0  0  0  0  0  0  0  0  0  0  0
  149.7723  144.0203  158.3137 H   0  0  0  0  0  0  0  0  0  0  0  0
  150.0571  142.4535  159.0768 H   0  0  0  0  0  0  0  0  0  0  0  0
  152.4343  142.8938  159.2835 H   0  0  0  0  0  0  0  0  0  0  0  0
  151.0701  145.6894  159.4769 H   0  0  0  0  0  0  0  0  0  0  0  0
  152.6433  145.1740  160.2782 H   0  0  0  0  0  0  0  0  0  0  0  0
  153.6263  144.6692  158.0203 H   0  0  0  0  0  0  0  0  0  0  0  0
  152.0524  145.1853  157.2207 H   0  0  0  0  0  0  0  0  0  0  0  0
  148.5357  139.0048  156.9002 H   0  0  0  0  0  0  0  0  0  0  0  0
  149.6061  139.0080  155.5048 H   0  0  0  0  0  0  0  0  0  0  0  0
  146.3691  135.4941  156.7601 H   0  0  0  0  0  0  0  0  0  0  0  0
  145.7165  134.9964  149.8316 H   0  0  0  0  0  0  0  0  0  0  0  0
  143.9196  134.9845  149.9061 H   0  0  0  0  0  0  0  0  0  0  0  0
  1  2  1  0  0  0  0
  1 30  1  0  0  0  0
  2  3  1  0  0  0  0
  2 31  1  0  0  0  0
  2 32  1  0  0  0  0
  3 29  1  0  0  0  0
  3  4  1  0  0  0  0
  3  6  1  0  0  0  0
  4  5  1  0  0  0  0
  4 33  1  0  0  0  0
  4 34  1  0  0  0  0
  5 35  1  0  0  0  0
  6  7  1  0  0  0  0
  6 36  1  0  0  0  0
  6 37  1  0  0  0  0
  7  8  1  0  0  0  0
  7 29  1  0  0  0  0
  7 38  1  0  0  0  0
  8 28  1  0  0  0  0
  8  9  1  0  0  0  0
  9 10  2  0  0  0  0
  9 39  1  0  0  0  0
 10 11  1  0  0  0  0
 11 28  2  0  0  0  0
 11 12  1  0  0  0  0
 12 13  1  0  0  0  0
 12 25  2  0  0  0  0
 13 24  1  0  0  0  0
 13 14  1  0  0  0  0
 14 15  1  0  0  0  0
 14 40  1  0  0  0  0
 14 41  1  0  0  0  0
 15 16  1  0  0  0  0
 15 42  1  0  0  0  0
 15 43  1  0  0  0  0
 16 17  1  0  0  0  0
 17 18  1  0  0  0  0
 17 24  1  0  0  0  0
 17 44  1  0  0  0  0
 18 19  1  0  0  0  0
 18 45  1  0  0  0  0
 18 46  1  0  0  0  0
 19 20  1  0  0  0  0
 20 21  1  0  0  0  0
 20 47  1  0  0  0  0
 20 48  1  0  0  0  0
 21 23  1  0  0  0  0
 21 22  1  0  0  0  0
 21 49  1  0  0  0  0
 22 23  1  0  0  0  0
 22 50  1  0  0  0  0
 22 51  1  0  0  0  0
 23 52  1  0  0  0  0
 23 53  1  0  0  0  0
 24 54  1  0  0  0  0
 24 55  1  0  0  0  0
 25 26  1  0  0  0  0
 26 27  2  0  0  0  0
 26 56  1  0  0  0  0
 27 28  1  0  0  0  0
 29 57  1  0  0  0  0
 29 58  1  0  0  0  0
M  END
> <s_m_source_file>
AV-unprocessed.smi

> <i_m_source_file_index>
74

> <i_lp_mmshare_version>
43012

> <i_f3d_flags>
0

> <s_epik_input>
W09IXVtDSDJdQzEoW0NIMl1bT0hdKVtDSDJdW0NIXShbQ0gyXTEpbihbY0hdbjIpYyhjMjMpbltjSF1uYzNONFtDSDJdW0NIMl1PW0NASF0oW0NIMl00KVtDSDJdT1tDSDJdW0NIXTVbQ0gyXVtDSDJdNQ==

> <s_epik_cmdline>
J2VwaWtfcHl0aG9uJywgJy1waCcsICc3LjAnLCAnLXRuJywgJzgnLCAnLW1hJywgJzIwMCcsICctbWV0YWxfYmluZGluZycsICctaW1hZScsICc8aW5maWxlLm1hZT4nLCAnLW9tYWUnLCAnPG91dGZpbGUubWFlPic=

> <r_lp_tautomer_probability>
1

> <r_epik_Ionization_Penalty>
5.89322e-05

> <r_epik_Ionization_Penalty_Charging>
0

> <r_epik_Ionization_Penalty_Neutral>
5.89322e-05

> <r_epik_State_Penalty>
-0

> <r_epik_Charging_Adjusted_Penalty>
0

> <i_epik_Tot_Q>
0

> <i_epik_Tot_abs_Q>
0

> <r_epik_Metal_State_Penalty>
-0

> <b_epik_Metal_Only>
0

> <s_lp_Force_Field>
OPLS_2005

> <r_lp_Energy>
49.4071

> <b_lp_Chiralities_Consistent>
1

> <s_lp_Variant>
AV-unprocessed.smi:74-2

> <Gold.Version>
5.8.1

> <Gold.Id.Protein>
6NUR|6NUR_protein|mol2

> <Gold.PLP.Fitness>
55.5109

> <Gold.PLP.PLP>
-48.2641

> <Gold.PLP.part.hbond>
-3.5108

> <Gold.PLP.part.metal>
0.0000

> <Gold.PLP.part.buried>
-6.4266

> <Gold.PLP.part.nonpolar>
-39.6044

> <Gold.PLP.part.repulsive>
0.6810

> <Gold.PLP.ligand.clash>
0.5637

> <Gold.PLP.ligand.torsion>
2.2058

> <Gold.PLP.Chemscore.Hbond>
2.5925

> <Gold.PLP.Chemscore.CHOScore>
1.0000

> <Gold.PLP.Chemscore.Metal>
0.0000

> <Gold.Chemscore.Hbonds>
donor molecule, donor type, donor heavy atom, donor atom, acceptor molecule, acceptor atom, score
      L1  H     1    30       P1 10747  1.00
      L1  H     5    35       P1 10186  0.84
      P1  H 10785 10796       L1     5  0.67
      L1  C     9    39       P1 10171  0.93

> <Gold.PLP.Chemscore.Internal.Correction>
1.4446

> <Gold.Rescore>
     Score         DG    S(hbond)    S(metal)    S(lipo)     H(rot)  DE(clash)    DE(int)     intcor
     14.30     -18.26       2.59        0.00     122.12       3.97       0.27       3.69       ----

> <Gold.Chemscore.Fitness>
14.2995

> <Gold.Chemscore.DG>
-18.2552

> <Gold.Chemscore.ZeroCoef>
-5.4800

> <Gold.Chemscore.Hbond>
2.5869

> <Gold.Chemscore.Metal>
0.0000

> <Gold.Chemscore.Lipo>
122.1196

> <Gold.Chemscore.Internal_Hbond>
0.0000

> <Gold.Chemscore.DEClash>
0.2691

> <Gold.Chemscore.DEInternal>
3.6865

> <Gold.Chemscore.Rot>
3.9660

> <Gold.Chemscore.Internal.Correction>
   9.000000E+99

> <Gold.Chemscore.Hbonds>
donor molecule, donor type, donor heavy atom, donor atom, acceptor molecule, acceptor atom, score
      L1  H     1    30       P1 10747  0.99
      L1  H     5    35       P1 10186  0.82
      P1  H 10785 10796       L1     5  0.65

> <Gold.Chemscore.Hbond.Weighted>
-8.6401

> <Gold.Chemscore.Metal.Weighted>
-0.0000

> <Gold.Chemscore.Lipo.Weighted>
-14.2880

> <Gold.Chemscore.Internal_Hbond.Weighted>
0.0000

> <Gold.Chemscore.DEClash.Weighted>
0.2691

> <Gold.Chemscore.DEInternal.Weighted>
3.6865

> <Gold.Chemscore.Rot.Weighted>
10.1529

> <Gold.Chemscore.Internal.Correction.Weighted>
   9.000000E+99

> <Gold.Protein.RotatedTorsions>
[ 6907 6896 6895 6894 ] final -146.89 input  -60.11 | X-H torsion
[ 7974 7965 7964 7962 ] final -107.15 input  175.53 | X-H torsion
[ 8008 7997 7996 7995 ] final   -8.83 input   59.86 | X-H torsion
[ 10167 10162 10161 10158 ] final   30.38 input  -65.29 | X-H torsion
[ 10718 10713 10712 10709 ] final   24.03 input   66.30 | X-H torsion
[ 10763 10752 10751 10750 ] final   22.17 input  -60.55 | X-H torsion
[ 11005 11000 10999 10996 ] final   -5.32 input  -57.11 | X-H torsion

> <Gold.Protein.ActiveResidues>
 VAL166  LYS551  ARG553  GLY616  TRP617  ASP618  TYR619  PRO620  LYS621  CYS622 
 ASP623  PHE694  ASN695  SER759  ASP760  ASP761  ALA762  ILE779  LEU786  VAL792 
 PHE793  MET794  SER795  GLU796  ALA797  LYS798  CYS799  TRP800  GLU811  SER814 

> <Gold.Protein.RotatedAtoms>
  151.1479  133.4927  159.2595 H   0  0  0  0  0  0  0  0  0  0  0  0  # atno 6907 bound_to 6896
  151.1585  135.0261  159.8710 H   0  0  0  0  0  0  0  0  0  0  0  0  # atno 6908 bound_to 6896
  152.5463  134.1356  159.8510 H   0  0  0  0  0  0  0  0  0  0  0  0  # atno 6909 bound_to 6896
  145.2089  140.9088  143.3326 H   0  0  0  0  0  0  0  0  0  0  0  0  # atno 7974 bound_to 7965
  154.5704  140.2371  155.8201 H   0  0  0  0  0  0  0  0  0  0  0  0  # atno 8008 bound_to 7997
  156.2102  140.3028  155.9673 H   0  0  0  0  0  0  0  0  0  0  0  0  # atno 8009 bound_to 7997
  155.2723  140.0419  157.2998 H   0  0  0  0  0  0  0  0  0  0  0  0  # atno 8010 bound_to 7997
  140.4683  144.0801  150.6230 H   0  0  0  0  0  0  0  0  0  0  0  0  # atno 10167 bound_to 10162
  157.1741  130.6773  149.6089 H   0  0  0  0  0  0  0  0  0  0  0  0  # atno 10718 bound_to 10713
  153.0936  135.6653  153.9806 H   0  0  0  0  0  0  0  0  0  0  0  0  # atno 10763 bound_to 10752
  153.9396  135.2995  155.3444 H   0  0  0  0  0  0  0  0  0  0  0  0  # atno 10764 bound_to 10752
  154.7353  135.5104  153.9105 H   0  0  0  0  0  0  0  0  0  0  0  0  # atno 10765 bound_to 10752
  140.6898  133.9081  155.8610 H   0  0  0  0  0  0  0  0  0  0  0  0  # atno 11005 bound_to 11000
  144.9875  139.3722  143.6231 LP  0  0  0  0  0  0  0  0  0  0  0  0  # atno 17320 bound_to 7965
  146.3402  139.9043  142.8790 LP  0  0  0  0  0  0  0  0  0  0  0  0  # atno 17321 bound_to 7965
  140.4009  143.2704  151.9949 LP  0  0  0  0  0  0  0  0  0  0  0  0  # atno 17342 bound_to 10162
  139.4815  144.5999  151.7625 LP  0  0  0  0  0  0  0  0  0  0  0  0  # atno 17343 bound_to 10162
  155.9734  130.4669  150.6305 LP  0  0  0  0  0  0  0  0  0  0  0  0  # atno 17370 bound_to 10713
  157.4015  131.0810  151.1304 LP  0  0  0  0  0  0  0  0  0  0  0  0  # atno 17371 bound_to 10713
  141.0250  134.0836  157.4078 LP  0  0  0  0  0  0  0  0  0  0  0  0  # atno 17394 bound_to 11000
  139.8927  135.0126  156.6858 LP  0  0  0  0  0  0  0  0  0  0  0  0  # atno 17395 bound_to 11000

$$$$
