AV-unprocessed.smi:3157|AV-procd|sdf|12040|dock6
  -GOLD-   2272017463D 1   1.00000     0.00000
 Structure written by MMmdl.
 40 41  0  0  0  0  0  0  0  0  2 V2000
  151.3739  140.3339  157.0222 C   0  0  0  0  0  0  0  0  0  0  0  0
  150.1362  141.0017  156.4010 C   0  0  1  0  0  0  0  0  0  0  0  0
  150.2099  142.4592  156.6578 N   0  3  0  0  0  0  0  0  0  0  0  0
  149.8552  142.8699  158.0321 C   0  0  0  0  0  0  0  0  0  0  0  0
  151.0330  143.5727  158.7246 C   0  0  0  0  0  0  0  0  0  0  0  0
  152.0265  142.6026  159.3694 C   0  0  0  0  0  0  0  0  0  0  0  0
  152.7842  143.4321  160.4136 C   0  0  0  0  0  0  0  0  0  0  0  0
  151.9071  144.6575  160.7113 C   0  0  0  0  0  0  0  0  0  0  0  0
  150.6243  144.4695  159.8969 C   0  0  0  0  0  0  0  0  0  0  0  0
  150.0053  140.7240  154.8792 C   0  0  1  0  0  0  0  0  0  0  0  0
  150.4630  139.3106  154.4722 C   0  0  0  0  0  0  0  0  0  0  0  0
  148.6406  140.9533  154.4171 N   0  0  0  0  0  0  0  0  0  0  0  0
  147.8618  142.0875  154.5399 C   0  0  0  0  0  0  0  0  0  0  0  0
  146.6723  141.8357  153.9190 C   0  0  0  0  0  0  0  0  0  0  0  0
  146.8189  140.5070  153.4332 C   0  0  0  0  0  0  0  0  0  0  0  0
  148.0004  139.9864  153.7229 N   0  0  0  0  0  0  0  0  0  0  0  0
  151.3136  139.2468  156.9731 H   0  0  0  0  0  0  0  0  0  0  0  0
  151.4721  140.5980  158.0757 H   0  0  0  0  0  0  0  0  0  0  0  0
  152.2891  140.6427  156.5158 H   0  0  0  0  0  0  0  0  0  0  0  0
  149.2590  140.5952  156.9077 H   0  0  0  0  0  0  0  0  0  0  0  0
  151.1523  142.7702  156.4709 H   0  0  0  0  0  0  0  0  0  0  0  0
  148.9859  143.5281  158.0133 H   0  0  0  0  0  0  0  0  0  0  0  0
  149.5698  141.9813  158.5965 H   0  0  0  0  0  0  0  0  0  0  0  0
  151.5755  144.1760  157.9941 H   0  0  0  0  0  0  0  0  0  0  0  0
  151.4866  141.7980  159.8717 H   0  0  0  0  0  0  0  0  0  0  0  0
  152.6944  142.1430  158.6398 H   0  0  0  0  0  0  0  0  0  0  0  0
  152.9804  142.8468  161.3127 H   0  0  0  0  0  0  0  0  0  0  0  0
  153.7484  143.7535  160.0181 H   0  0  0  0  0  0  0  0  0  0  0  0
  151.6953  144.7630  161.7760 H   0  0  0  0  0  0  0  0  0  0  0  0
  152.4224  145.5637  160.3900 H   0  0  0  0  0  0  0  0  0  0  0  0
  150.1936  145.4178  159.5735 H   0  0  0  0  0  0  0  0  0  0  0  0
  149.8803  143.9616  160.5119 H   0  0  0  0  0  0  0  0  0  0  0  0
  150.6501  141.4297  154.3514 H   0  0  0  0  0  0  0  0  0  0  0  0
  151.5315  139.1712  154.6342 H   0  0  0  0  0  0  0  0  0  0  0  0
  150.2783  139.1318  153.4122 H   0  0  0  0  0  0  0  0  0  0  0  0
  149.9369  138.5392  155.0355 H   0  0  0  0  0  0  0  0  0  0  0  0
  148.2145  142.9712  155.0507 H   0  0  0  0  0  0  0  0  0  0  0  0
  145.8262  142.5002  153.8242 H   0  0  0  0  0  0  0  0  0  0  0  0
  146.1103  139.9128  152.8756 H   0  0  0  0  0  0  0  0  0  0  0  0
  149.5859  142.9229  156.0122 H   0  0  0  0  0  0  0  0  0  0  0  0
  1  2  1  0  0  0  0
  1 17  1  0  0  0  0
  1 18  1  0  0  0  0
  1 19  1  0  0  0  0
  2  3  1  0  0  0  0
  2 10  1  0  0  0  0
  2 20  1  0  0  0  0
  3  4  1  0  0  0  0
  3 21  1  0  0  0  0
  3 40  1  0  0  0  0
  4  5  1  0  0  0  0
  4 22  1  0  0  0  0
  4 23  1  0  0  0  0
  5  9  1  0  0  0  0
  5  6  1  0  0  0  0
  5 24  1  0  0  0  0
  6  7  1  0  0  0  0
  6 25  1  0  0  0  0
  6 26  1  0  0  0  0
  7  8  1  0  0  0  0
  7 27  1  0  0  0  0
  7 28  1  0  0  0  0
  8  9  1  0  0  0  0
  8 29  1  0  0  0  0
  8 30  1  0  0  0  0
  9 31  1  0  0  0  0
  9 32  1  0  0  0  0
 10 11  1  0  0  0  0
 10 12  1  0  0  0  0
 10 33  1  0  0  0  0
 11 34  1  0  0  0  0
 11 35  1  0  0  0  0
 11 36  1  0  0  0  0
 12 16  1  0  0  0  0
 12 13  1  0  0  0  0
 13 14  2  0  0  0  0
 13 37  1  0  0  0  0
 14 15  1  0  0  0  0
 14 38  1  0  0  0  0
 15 16  2  0  0  0  0
 15 39  1  0  0  0  0
M  CHG  1   3   1
M  END
> <s_m_source_file>
AV-unprocessed.smi

> <i_m_source_file_index>
3157

> <i_lp_mmshare_version>
43012

> <i_f3d_flags>
0

> <s_epik_input>
bjFbY0hdW2NIXVtjSF1uMVtDQEBIXShbQ0gzXSlbQ0BIXShbQ0gzXSlbTkhdW0NIMl1bQ0hdMltDSDJdW0NIMl1bQ0gyXVtDSDJdMg==

> <s_epik_cmdline>
J2VwaWtfcHl0aG9uJywgJy1waCcsICc3LjAnLCAnLXRuJywgJzgnLCAnLW1hJywgJzIwMCcsICctbWV0YWxfYmluZGluZycsICctaW1hZScsICc8aW5maWxlLm1hZT4nLCAnLW9tYWUnLCAnPG91dGZpbGUubWFlPic=

> <r_lp_tautomer_probability>
1

> <r_epik_Ionization_Penalty>
0.00132192

> <r_epik_Ionization_Penalty_Charging>
0.0013111

> <r_epik_Ionization_Penalty_Neutral>
1.08112e-05

> <r_epik_State_Penalty>
-0

> <r_epik_Charging_Adjusted_Penalty>
0.0013111

> <i_epik_Tot_Q>
1

> <i_epik_Tot_abs_Q>
1

> <r_epik_Metal_State_Penalty>
-0

> <b_epik_Metal_Only>
0

> <s_lp_Force_Field>
OPLS_2005

> <r_lp_Energy>
31.1459

> <b_lp_Chiralities_Consistent>
1

> <s_lp_Variant>
AV-unprocessed.smi:3157-4

> <Gold.Version>
5.8.1

> <Gold.Id.Protein>
6NUR|6NUR_protein|mol2

> <Gold.PLP.Fitness>
43.1064

> <Gold.PLP.PLP>
-35.5205

> <Gold.PLP.part.hbond>
-1.0000

> <Gold.PLP.part.metal>
0.0000

> <Gold.PLP.part.buried>
-2.1585

> <Gold.PLP.part.nonpolar>
-33.8480

> <Gold.PLP.part.repulsive>
0.3962

> <Gold.PLP.ligand.clash>
0.0000

> <Gold.PLP.ligand.torsion>
1.2452

> <Gold.PLP.Chemscore.Hbond>
1.5360

> <Gold.PLP.Chemscore.CHOScore>
1.7954

> <Gold.PLP.Chemscore.Metal>
0.0000

> <Gold.Chemscore.Hbonds>
donor molecule, donor type, donor heavy atom, donor atom, acceptor molecule, acceptor atom, score
      L1  H     3    40       P1  8028  1.57
      L1  C    13    37       P1  8028  0.79
      L1  C    15    39       P1 10175  0.92

> <Gold.PLP.Chemscore.Internal.Correction>
0.0822

> <Gold.Rescore>
     Score         DG    S(hbond)    S(metal)    S(lipo)     H(rot)  DE(clash)    DE(int)     intcor
     15.32     -16.60       0.73        0.00     107.01       1.50       0.22       1.05       ----

> <Gold.Chemscore.Fitness>
15.3236

> <Gold.Chemscore.DG>
-16.5976

> <Gold.Chemscore.ZeroCoef>
-5.4800

> <Gold.Chemscore.Hbond>
0.7332

> <Gold.Chemscore.Metal>
0.0000

> <Gold.Chemscore.Lipo>
107.0141

> <Gold.Chemscore.Internal_Hbond>
0.0000

> <Gold.Chemscore.DEClash>
0.2231

> <Gold.Chemscore.DEInternal>
1.0509

> <Gold.Chemscore.Rot>
1.5047

> <Gold.Chemscore.Internal.Correction>
   9.000000E+99

> <Gold.Chemscore.Hbonds>
donor molecule, donor type, donor heavy atom, donor atom, acceptor molecule, acceptor atom, score
      L1  H     3    40       P1  8028  0.77

> <Gold.Chemscore.Hbond.Weighted>
-2.4489

> <Gold.Chemscore.Metal.Weighted>
-0.0000

> <Gold.Chemscore.Lipo.Weighted>
-12.5206

> <Gold.Chemscore.Internal_Hbond.Weighted>
0.0000

> <Gold.Chemscore.DEClash.Weighted>
0.2231

> <Gold.Chemscore.DEInternal.Weighted>
1.0509

> <Gold.Chemscore.Rot.Weighted>
3.8520

> <Gold.Chemscore.Internal.Correction.Weighted>
   9.000000E+99

> <Gold.Protein.RotatedTorsions>
[ 6907 6896 6895 6894 ] final -113.35 input  -60.11 | X-H torsion
[ 7974 7965 7964 7962 ] final -162.92 input  175.53 | X-H torsion
[ 8008 7997 7996 7995 ] final  -90.91 input   59.86 | X-H torsion
[ 10167 10162 10161 10158 ] final  -68.55 input  -65.29 | X-H torsion
[ 10718 10713 10712 10709 ] final  -64.73 input   66.30 | X-H torsion
[ 10763 10752 10751 10750 ] final   46.15 input  -60.55 | X-H torsion
[ 11005 11000 10999 10996 ] final   44.49 input  -57.11 | X-H torsion

> <Gold.Protein.ActiveResidues>
 VAL166  LYS551  ARG553  GLY616  TRP617  ASP618  TYR619  PRO620  LYS621  CYS622 
 ASP623  PHE694  ASN695  SER759  ASP760  ASP761  ALA762  ILE779  LEU786  VAL792 
 PHE793  MET794  SER795  GLU796  ALA797  LYS798  CYS799  TRP800  GLU811  SER814 

> <Gold.Protein.RotatedAtoms>
  150.7823  133.8957  159.3326 H   0  0  0  0  0  0  0  0  0  0  0  0  # atno 6907 bound_to 6896
  151.6816  135.0959  160.0226 H   0  0  0  0  0  0  0  0  0  0  0  0  # atno 6908 bound_to 6896
  152.3878  133.6597  159.6248 H   0  0  0  0  0  0  0  0  0  0  0  0  # atno 6909 bound_to 6896
  144.7342  140.3182  143.6175 H   0  0  0  0  0  0  0  0  0  0  0  0  # atno 7974 bound_to 7965
  154.7043  140.0525  157.0488 H   0  0  0  0  0  0  0  0  0  0  0  0  # atno 8008 bound_to 7997
  155.0642  140.3192  155.4632 H   0  0  0  0  0  0  0  0  0  0  0  0  # atno 8009 bound_to 7997
  156.2770  140.2093  156.5769 H   0  0  0  0  0  0  0  0  0  0  0  0  # atno 8010 bound_to 7997
  140.5499  143.2312  151.6931 H   0  0  0  0  0  0  0  0  0  0  0  0  # atno 10167 bound_to 10162
  156.0711  130.4237  150.1463 H   0  0  0  0  0  0  0  0  0  0  0  0  # atno 10718 bound_to 10713
  152.9814  135.6017  154.3552 H   0  0  0  0  0  0  0  0  0  0  0  0  # atno 10763 bound_to 10752
  154.3238  135.2769  155.2508 H   0  0  0  0  0  0  0  0  0  0  0  0  # atno 10764 bound_to 10752
  154.4663  135.5953  153.6346 H   0  0  0  0  0  0  0  0  0  0  0  0  # atno 10765 bound_to 10752
  140.1547  134.4417  155.8358 H   0  0  0  0  0  0  0  0  0  0  0  0  # atno 11005 bound_to 11000
  145.7596  139.1820  143.2275 LP  0  0  0  0  0  0  0  0  0  0  0  0  # atno 17320 bound_to 7965
  146.0997  140.7559  142.9555 LP  0  0  0  0  0  0  0  0  0  0  0  0  # atno 17321 bound_to 7965
  139.5023  144.3835  152.0352 LP  0  0  0  0  0  0  0  0  0  0  0  0  # atno 17342 bound_to 10162
  140.2951  144.3710  150.6077 LP  0  0  0  0  0  0  0  0  0  0  0  0  # atno 17343 bound_to 10162
  156.9513  130.9776  151.3497 LP  0  0  0  0  0  0  0  0  0  0  0  0  # atno 17370 bound_to 10713
  157.5782  130.8358  149.8486 LP  0  0  0  0  0  0  0  0  0  0  0  0  # atno 17371 bound_to 10713
  141.2203  133.6887  156.7486 LP  0  0  0  0  0  0  0  0  0  0  0  0  # atno 17394 bound_to 11000
  140.2562  134.8502  157.3715 LP  0  0  0  0  0  0  0  0  0  0  0  0  # atno 17395 bound_to 11000

$$$$
