AV-unprocessed.smi:1762|AV-procd|sdf|7099|dock3
  -GOLD-   22720 8313D 1   1.00000     0.00000
 Structure written by MMmdl.
 52 53  0  0  0  0  0  0  0  0  1 V2000
  149.8004  135.1219  155.0236 C   0  0  0  0  0  0  0  0  0  0  0  0
  148.9589  136.3640  155.3377 C   0  0  2  0  0  0  0  0  0  0  0  0
  149.6523  137.6641  154.8911 C   0  0  0  0  0  0  0  0  0  0  0  0
  148.8950  138.8650  155.2595 N   0  0  0  0  0  0  0  0  0  0  0  0
  149.5201  140.1226  154.7612 C   0  0  2  0  0  0  0  0  0  0  0  0
  150.8333  140.4832  155.4955 C   0  0  0  0  0  0  0  0  0  0  0  0
  151.9235  140.2759  154.9614 O   0  0  0  0  0  0  0  0  0  0  0  0
  150.7097  141.0513  156.7058 N   0  0  0  0  0  0  0  0  0  0  0  0
  151.8207  141.5019  157.5349 C   0  0  0  0  0  0  0  0  0  0  0  0
  151.4135  142.6911  158.4211 C   0  0  0  0  0  0  0  0  0  0  0  0
  152.1052  142.6665  159.7705 C   0  0  0  0  0  0  0  0  0  0  0  0
  151.8266  143.6542  160.7393 C   0  0  0  0  0  0  0  0  0  0  0  0
  152.4988  143.5904  161.9751 C   0  0  0  0  0  0  0  0  0  0  0  0
  153.4200  142.5477  162.1927 C   0  0  0  0  0  0  0  0  0  0  0  0
  153.6293  141.6118  161.1603 C   0  0  0  0  0  0  0  0  0  0  0  0
  152.9900  141.6637  159.9716 N   0  0  0  0  0  0  0  0  0  0  0  0
  148.5596  141.3582  154.7006 C   0  0  0  0  0  0  0  0  0  0  0  0
  147.8344  141.6421  156.0320 C   0  0  0  0  0  0  0  0  0  0  0  0
  147.5473  141.3051  153.5395 C   0  0  0  0  0  0  0  0  0  0  0  0
  148.6553  138.8364  156.7136 C   0  0  0  0  0  0  0  0  0  0  0  0
  147.9972  137.5303  157.2015 C   0  0  1  0  0  0  0  0  0  0  0  0
  146.5049  137.4282  156.8400 C   0  0  0  0  0  0  0  0  0  0  0  0
  148.7351  136.4002  156.7430 O   0  0  0  0  0  0  0  0  0  0  0  0
  149.9868  135.0348  153.9529 H   0  0  0  0  0  0  0  0  0  0  0  0
  149.2900  134.2141  155.3463 H   0  0  0  0  0  0  0  0  0  0  0  0
  150.7653  135.1598  155.5299 H   0  0  0  0  0  0  0  0  0  0  0  0
  148.0043  136.2656  154.8201 H   0  0  0  0  0  0  0  0  0  0  0  0
  150.6557  137.7126  155.3179 H   0  0  0  0  0  0  0  0  0  0  0  0
  149.7741  137.5980  153.8120 H   0  0  0  0  0  0  0  0  0  0  0  0
  149.8122  139.9321  153.7259 H   0  0  0  0  0  0  0  0  0  0  0  0
  149.7791  141.1924  157.0715 H   0  0  0  0  0  0  0  0  0  0  0  0
  152.1411  140.6650  158.1560 H   0  0  0  0  0  0  0  0  0  0  0  0
  152.6731  141.7662  156.9066 H   0  0  0  0  0  0  0  0  0  0  0  0
  151.6474  143.6319  157.9209 H   0  0  0  0  0  0  0  0  0  0  0  0
  150.3336  142.6893  158.5764 H   0  0  0  0  0  0  0  0  0  0  0  0
  151.1159  144.4433  160.5412 H   0  0  0  0  0  0  0  0  0  0  0  0
  152.3118  144.3281  162.7415 H   0  0  0  0  0  0  0  0  0  0  0  0
  153.9539  142.4675  163.1281 H   0  0  0  0  0  0  0  0  0  0  0  0
  154.3297  140.8003  161.2925 H   0  0  0  0  0  0  0  0  0  0  0  0
  149.1723  142.2445  154.5444 H   0  0  0  0  0  0  0  0  0  0  0  0
  147.0865  140.8827  156.2628 H   0  0  0  0  0  0  0  0  0  0  0  0
  147.3171  142.6013  155.9953 H   0  0  0  0  0  0  0  0  0  0  0  0
  148.5386  141.6840  156.8634 H   0  0  0  0  0  0  0  0  0  0  0  0
  146.8338  140.4902  153.6571 H   0  0  0  0  0  0  0  0  0  0  0  0
  148.0446  141.1758  152.5782 H   0  0  0  0  0  0  0  0  0  0  0  0
  146.9750  142.2314  153.4831 H   0  0  0  0  0  0  0  0  0  0  0  0
  149.6038  138.9700  157.2371 H   0  0  0  0  0  0  0  0  0  0  0  0
  148.0122  139.6547  157.0356 H   0  0  0  0  0  0  0  0  0  0  0  0
  148.0592  137.5116  158.2899 H   0  0  0  0  0  0  0  0  0  0  0  0
  145.9374  138.2337  157.3065 H   0  0  0  0  0  0  0  0  0  0  0  0
  146.0841  136.4842  157.1869 H   0  0  0  0  0  0  0  0  0  0  0  0
  146.3371  137.4950  155.7653 H   0  0  0  0  0  0  0  0  0  0  0  0
  1  2  1  0  0  0  0
  1 24  1  0  0  0  0
  1 25  1  0  0  0  0
  1 26  1  0  0  0  0
  2 23  1  0  0  0  0
  2  3  1  0  0  0  0
  2 27  1  0  0  0  0
  3  4  1  0  0  0  0
  3 28  1  0  0  0  0
  3 29  1  0  0  0  0
  4  5  1  0  0  0  0
  4 20  1  0  0  0  0
  5  6  1  0  0  0  0
  5 17  1  0  0  0  0
  5 30  1  0  0  0  0
  6  7  2  0  0  0  0
  6  8  1  0  0  0  0
  8  9  1  0  0  0  0
  8 31  1  0  0  0  0
  9 10  1  0  0  0  0
  9 32  1  0  0  0  0
  9 33  1  0  0  0  0
 10 11  1  0  0  0  0
 10 34  1  0  0  0  0
 10 35  1  0  0  0  0
 11 16  1  0  0  0  0
 11 12  2  0  0  0  0
 12 13  1  0  0  0  0
 12 36  1  0  0  0  0
 13 14  2  0  0  0  0
 13 37  1  0  0  0  0
 14 15  1  0  0  0  0
 14 38  1  0  0  0  0
 15 16  2  0  0  0  0
 15 39  1  0  0  0  0
 17 18  1  0  0  0  0
 17 19  1  0  0  0  0
 17 40  1  0  0  0  0
 18 41  1  0  0  0  0
 18 42  1  0  0  0  0
 18 43  1  0  0  0  0
 19 44  1  0  0  0  0
 19 45  1  0  0  0  0
 19 46  1  0  0  0  0
 20 21  1  0  0  0  0
 20 47  1  0  0  0  0
 20 48  1  0  0  0  0
 21 22  1  0  0  0  0
 21 23  1  0  0  0  0
 21 49  1  0  0  0  0
 22 50  1  0  0  0  0
 22 51  1  0  0  0  0
 22 52  1  0  0  0  0
M  END
> <s_m_source_file>
AV-unprocessed.smi

> <i_m_source_file_index>
1762

> <i_lp_mmshare_version>
43012

> <i_f3d_flags>
0

> <s_epik_input>
W0NIM11bQ0BASF0xW0NIMl1OKFtDSDJdW0NASF0oTzEpW0NIM10pW0NAQEhdKFtDSF0oW0NIM10pW0NIM10pQyg9TylbTkhdW0NIMl1bQ0gyXWMyW2NIXVtjSF1bY0hdW2NIXW4y

> <s_epik_cmdline>
J2VwaWtfcHl0aG9uJywgJy1waCcsICc3LjAnLCAnLXRuJywgJzgnLCAnLW1hJywgJzIwMCcsICctbWV0YWxfYmluZGluZycsICctaW1hZScsICc8aW5maWxlLm1hZT4nLCAnLW9tYWUnLCAnPG91dGZpbGUubWFlPic=

> <r_epik_Ionization_Penalty>
0.0399736

> <r_epik_Ionization_Penalty_Charging>
0

> <r_epik_Ionization_Penalty_Neutral>
0.0399736

> <r_epik_State_Penalty>
0.0317634

> <r_epik_Charging_Adjusted_Penalty>
0.0317634

> <i_epik_Tot_Q>
0

> <i_epik_Tot_abs_Q>
0

> <r_epik_Metal_State_Penalty>
0.0307795

> <b_epik_Metal_Only>
0

> <s_lp_Force_Field>
OPLS_2005

> <r_lp_Energy>
28.4472

> <b_lp_Chiralities_Consistent>
1

> <s_lp_Variant>
AV-unprocessed.smi:1762-1

> <Gold.Version>
5.8.1

> <Gold.Id.Protein>
6NUR|6NUR_protein|mol2

> <Gold.PLP.Fitness>
40.8204

> <Gold.PLP.PLP>
-40.1960

> <Gold.PLP.part.hbond>
-1.0000

> <Gold.PLP.part.metal>
0.0000

> <Gold.PLP.part.buried>
-5.5741

> <Gold.PLP.part.nonpolar>
-31.4547

> <Gold.PLP.part.repulsive>
0.1637

> <Gold.PLP.ligand.clash>
0.0000

> <Gold.PLP.ligand.torsion>
1.1617

> <Gold.PLP.Chemscore.Hbond>
0.8640

> <Gold.PLP.Chemscore.CHOScore>
0.0000

> <Gold.PLP.Chemscore.Metal>
0.0000

> <Gold.Chemscore.Hbonds>
donor molecule, donor type, donor heavy atom, donor atom, acceptor molecule, acceptor atom, score
      P1  H  7989  7998       L1     7  0.80

> <Gold.PLP.Chemscore.Internal.Correction>
0.3557

> <Gold.Rescore>
     Score         DG    S(hbond)    S(metal)    S(lipo)     H(rot)  DE(clash)    DE(int)     intcor
     13.76     -16.48       0.90        0.00     103.35       1.60       0.04       2.68       ----

> <Gold.Chemscore.Fitness>
13.7600

> <Gold.Chemscore.DG>
-16.4785

> <Gold.Chemscore.ZeroCoef>
-5.4800

> <Gold.Chemscore.Hbond>
0.8982

> <Gold.Chemscore.Metal>
0.0000

> <Gold.Chemscore.Lipo>
103.3542

> <Gold.Chemscore.Internal_Hbond>
0.0000

> <Gold.Chemscore.DEClash>
0.0358

> <Gold.Chemscore.DEInternal>
2.6827

> <Gold.Chemscore.Rot>
1.5993

> <Gold.Chemscore.Internal.Correction>
   9.000000E+99

> <Gold.Chemscore.Hbonds>
donor molecule, donor type, donor heavy atom, donor atom, acceptor molecule, acceptor atom, score
      P1  H  7989  7998       L1     7  0.23

> <Gold.Chemscore.Hbond.Weighted>
-3.0001

> <Gold.Chemscore.Metal.Weighted>
-0.0000

> <Gold.Chemscore.Lipo.Weighted>
-12.0924

> <Gold.Chemscore.Internal_Hbond.Weighted>
0.0000

> <Gold.Chemscore.DEClash.Weighted>
0.0358

> <Gold.Chemscore.DEInternal.Weighted>
2.6827

> <Gold.Chemscore.Rot.Weighted>
4.0941

> <Gold.Chemscore.Internal.Correction.Weighted>
   9.000000E+99

> <Gold.Protein.RotatedTorsions>
[ 6907 6896 6895 6894 ] final  -53.42 input  -60.11 | X-H torsion
[ 7974 7965 7964 7962 ] final -131.83 input  175.53 | X-H torsion
[ 8008 7997 7996 7995 ] final  146.83 input   59.86 | X-H torsion
[ 10167 10162 10161 10158 ] final   76.73 input  -65.29 | X-H torsion
[ 10718 10713 10712 10709 ] final   78.89 input   66.30 | X-H torsion
[ 10763 10752 10751 10750 ] final   40.79 input  -60.55 | X-H torsion
[ 11005 11000 10999 10996 ] final  -87.77 input  -57.11 | X-H torsion

> <Gold.Protein.ActiveResidues>
 VAL166  LYS551  ARG553  GLY616  TRP617  ASP618  TYR619  PRO620  LYS621  CYS622 
 ASP623  PHE694  ASN695  SER759  ASP760  ASP761  ALA762  ILE779  LEU786  VAL792 
 PHE793  MET794  SER795  GLU796  ALA797  LYS798  CYS799  TRP800  GLU811  SER814 

> <Gold.Protein.RotatedAtoms>
  150.8429  134.7727  159.6946 H   0  0  0  0  0  0  0  0  0  0  0  0  # atno 6907 bound_to 6896
  152.4512  134.5386  159.9842 H   0  0  0  0  0  0  0  0  0  0  0  0  # atno 6908 bound_to 6896
  151.5522  133.3378  159.2991 H   0  0  0  0  0  0  0  0  0  0  0  0  # atno 6909 bound_to 6896
  144.9343  140.7165  143.4886 H   0  0  0  0  0  0  0  0  0  0  0  0  # atno 7974 bound_to 7965
  156.2843  140.2172  156.5440 H   0  0  0  0  0  0  0  0  0  0  0  0  # atno 8008 bound_to 7997
  154.7346  140.0492  157.0779 H   0  0  0  0  0  0  0  0  0  0  0  0  # atno 8009 bound_to 7997
  155.0309  140.3135  155.4762 H   0  0  0  0  0  0  0  0  0  0  0  0  # atno 8010 bound_to 7997
  139.9891  144.5770  150.7833 H   0  0  0  0  0  0  0  0  0  0  0  0  # atno 10167 bound_to 10162
  157.6759  130.9889  150.1852 H   0  0  0  0  0  0  0  0  0  0  0  0  # atno 10718 bound_to 10713
  152.9926  135.6181  154.2682 H   0  0  0  0  0  0  0  0  0  0  0  0  # atno 10763 bound_to 10752
  154.2416  135.2788  155.2853 H   0  0  0  0  0  0  0  0  0  0  0  0  # atno 10764 bound_to 10752
  154.5364  135.5773  153.6860 H   0  0  0  0  0  0  0  0  0  0  0  0  # atno 10765 bound_to 10752
  141.1612  133.7530  156.9354 H   0  0  0  0  0  0  0  0  0  0  0  0  # atno 11005 bound_to 11000
  145.3092  139.1824  143.4648 LP  0  0  0  0  0  0  0  0  0  0  0  0  # atno 17320 bound_to 7965
  146.3260  140.3094  142.8626 LP  0  0  0  0  0  0  0  0  0  0  0  0  # atno 17321 bound_to 7965
  140.7461  143.2886  151.3394 LP  0  0  0  0  0  0  0  0  0  0  0  0  # atno 17342 bound_to 10162
  139.6353  144.0642  152.2510 LP  0  0  0  0  0  0  0  0  0  0  0  0  # atno 17343 bound_to 10162
  156.2576  130.3707  149.8165 LP  0  0  0  0  0  0  0  0  0  0  0  0  # atno 17370 bound_to 10713
  156.5920  130.8510  151.3410 LP  0  0  0  0  0  0  0  0  0  0  0  0  # atno 17371 bound_to 10713
  140.1358  134.9326  157.2399 LP  0  0  0  0  0  0  0  0  0  0  0  0  # atno 17394 bound_to 11000
  140.2897  134.3254  155.7318 LP  0  0  0  0  0  0  0  0  0  0  0  0  # atno 17395 bound_to 11000

$$$$
