AV-unprocessed.smi:2289|AV-procd|sdf|9209|dock10
  -GOLD-   2272012423D 1   1.00000     0.00000
 Structure written by MMmdl.
 40 41  0  0  0  0  0  0  0  0  1 V2000
  144.3743  142.3725  155.3517 C   0  0  0  0  0  0  0  0  0  0  0  0
  145.7913  141.8330  155.4331 C   0  0  0  0  0  0  0  0  0  0  0  0
  146.1657  141.3037  156.6714 N   0  0  0  0  0  0  0  0  0  0  0  0
  147.3531  140.8184  156.8320 C   0  0  0  0  0  0  0  0  0  0  0  0
  148.2940  140.8053  155.7884 N   0  0  0  0  0  0  0  0  0  0  0  0
  149.6060  140.2116  156.0998 C   0  0  0  0  0  0  0  0  0  0  0  0
  150.0944  140.5891  157.5171 C   0  0  1  0  0  0  0  0  0  0  0  0
  150.2760  139.4013  158.2606 O   0  0  0  0  0  0  0  0  0  0  0  0
  151.4451  141.3352  157.4748 C   0  0  0  0  0  0  0  0  0  0  0  0
  152.0318  141.6028  158.8583 C   0  0  0  0  0  0  0  0  0  0  0  0
  152.7632  140.5613  159.4719 C   0  0  0  0  0  0  0  0  0  0  0  0
  153.3350  140.7329  160.7446 C   0  0  0  0  0  0  0  0  0  0  0  0
  153.1753  141.9530  161.4214 C   0  0  0  0  0  0  0  0  0  0  0  0
  152.4412  142.9950  160.8259 C   0  0  0  0  0  0  0  0  0  0  0  0
  151.8593  142.8380  159.5452 C   0  0  0  0  0  0  0  0  0  0  0  0
  151.0533  143.9930  158.9485 C   0  0  0  0  0  0  0  0  0  0  0  0
  151.0485  145.0591  159.7498 F   0  0  0  0  0  0  0  0  0  0  0  0
  151.5713  144.3720  157.7810 F   0  0  0  0  0  0  0  0  0  0  0  0
  149.7868  143.6180  158.7678 F   0  0  0  0  0  0  0  0  0  0  0  0
  148.0098  141.2995  154.5488 C   0  0  0  0  0  0  0  0  0  0  0  0
  148.8382  141.2803  153.6367 O   0  0  0  0  0  0  0  0  0  0  0  0
  146.6554  141.8514  154.3816 C   0  0  0  0  0  0  0  0  0  0  0  0
  146.3027  142.4145  153.0103 C   0  0  0  0  0  0  0  0  0  0  0  0
  144.3844  143.4402  155.1316 H   0  0  0  0  0  0  0  0  0  0  0  0
  143.8402  142.2295  156.2918 H   0  0  0  0  0  0  0  0  0  0  0  0
  143.8141  141.8598  154.5693 H   0  0  0  0  0  0  0  0  0  0  0  0
  147.6939  140.3881  157.7755 H   0  0  0  0  0  0  0  0  0  0  0  0
  149.6050  139.1275  155.9701 H   0  0  0  0  0  0  0  0  0  0  0  0
  150.3280  140.5635  155.3600 H   0  0  0  0  0  0  0  0  0  0  0  0
  149.3463  141.2110  158.0095 H   0  0  0  0  0  0  0  0  0  0  0  0
  149.7998  139.4777  159.0734 H   0  0  0  0  0  0  0  0  0  0  0  0
  152.1403  140.8176  156.8169 H   0  0  0  0  0  0  0  0  0  0  0  0
  151.2971  142.3132  157.0152 H   0  0  0  0  0  0  0  0  0  0  0  0
  152.8900  139.6174  158.9618 H   0  0  0  0  0  0  0  0  0  0  0  0
  153.8940  139.9290  161.2006 H   0  0  0  0  0  0  0  0  0  0  0  0
  153.6118  142.0895  162.3999 H   0  0  0  0  0  0  0  0  0  0  0  0
  152.3288  143.9188  161.3733 H   0  0  0  0  0  0  0  0  0  0  0  0
  146.3586  141.6287  152.2566 H   0  0  0  0  0  0  0  0  0  0  0  0
  147.0069  143.1995  152.7331 H   0  0  0  0  0  0  0  0  0  0  0  0
  145.3032  142.8436  152.9654 H   0  0  0  0  0  0  0  0  0  0  0  0
  1  2  1  0  0  0  0
  1 24  1  0  0  0  0
  1 25  1  0  0  0  0
  1 26  1  0  0  0  0
  2 22  2  0  0  0  0
  2  3  1  0  0  0  0
  3  4  2  0  0  0  0
  4  5  1  0  0  0  0
  4 27  1  0  0  0  0
  5  6  1  0  0  0  0
  5 20  1  0  0  0  0
  6  7  1  0  0  0  0
  6 28  1  0  0  0  0
  6 29  1  0  0  0  0
  7  8  1  0  0  0  0
  7  9  1  0  0  0  0
  7 30  1  0  0  0  0
  8 31  1  0  0  0  0
  9 10  1  0  0  0  0
  9 32  1  0  0  0  0
  9 33  1  0  0  0  0
 10 15  1  0  0  0  0
 10 11  2  0  0  0  0
 11 12  1  0  0  0  0
 11 34  1  0  0  0  0
 12 13  2  0  0  0  0
 12 35  1  0  0  0  0
 13 14  1  0  0  0  0
 13 36  1  0  0  0  0
 14 15  2  0  0  0  0
 14 37  1  0  0  0  0
 15 16  1  0  0  0  0
 16 17  1  0  0  0  0
 16 18  1  0  0  0  0
 16 19  1  0  0  0  0
 20 21  2  0  0  0  0
 20 22  1  0  0  0  0
 22 23  1  0  0  0  0
 23 38  1  0  0  0  0
 23 39  1  0  0  0  0
 23 40  1  0  0  0  0
M  END
> <s_m_source_file>
AV-unprocessed.smi

> <i_m_source_file_index>
2289

> <i_lp_mmshare_version>
43012

> <i_f3d_flags>
0

> <s_epik_input>
W0NIM11jMW5bY0hdbihjKD1PKWMxW0NIM10pW0NIMl1bQ0BIXShbT0hdKVtDSDJdYzJbY0hdW2NIXVtjSF1bY0hdYzJDKEYpKEYpRg==

> <s_epik_cmdline>
J2VwaWtfcHl0aG9uJywgJy1waCcsICc3LjAnLCAnLXRuJywgJzgnLCAnLW1hJywgJzIwMCcsICctbWV0YWxfYmluZGluZycsICctaW1hZScsICc8aW5maWxlLm1hZT4nLCAnLW9tYWUnLCAnPG91dGZpbGUubWFlPic=

> <r_lp_tautomer_probability>
1

> <r_epik_Ionization_Penalty>
8.92636e-05

> <r_epik_Ionization_Penalty_Charging>
8.63033e-08

> <r_epik_Ionization_Penalty_Neutral>
8.91773e-05

> <r_epik_State_Penalty>
-0

> <r_epik_Charging_Adjusted_Penalty>
8.63033e-08

> <i_epik_Tot_Q>
0

> <i_epik_Tot_abs_Q>
0

> <r_epik_Metal_State_Penalty>
-0

> <b_epik_Metal_Only>
0

> <s_lp_Force_Field>
OPLS_2005

> <r_lp_Energy>
23.2294

> <b_lp_Chiralities_Consistent>
1

> <s_lp_Variant>
AV-unprocessed.smi:2289-2

> <Gold.Version>
5.8.1

> <Gold.Id.Protein>
6NUR|6NUR_protein|mol2

> <Gold.PLP.Fitness>
50.2306

> <Gold.PLP.PLP>
-51.1520

> <Gold.PLP.part.hbond>
-1.0969

> <Gold.PLP.part.metal>
0.0000

> <Gold.PLP.part.buried>
-7.7436

> <Gold.PLP.part.nonpolar>
-41.7856

> <Gold.PLP.part.repulsive>
0.2618

> <Gold.PLP.ligand.clash>
1.3581

> <Gold.PLP.ligand.torsion>
1.3959

> <Gold.PLP.Chemscore.Hbond>
0.5920

> <Gold.PLP.Chemscore.CHOScore>
0.0000

> <Gold.PLP.Chemscore.Metal>
0.0000

> <Gold.Chemscore.Hbonds>
donor molecule, donor type, donor heavy atom, donor atom, acceptor molecule, acceptor atom, score
      P1  H  8011  8017       L1    21  0.86

> <Gold.PLP.Chemscore.Internal.Correction>
1.4526

> <Gold.Rescore>
     Score         DG    S(hbond)    S(metal)    S(lipo)     H(rot)  DE(clash)    DE(int)     intcor
     10.96     -13.02       0.46        0.00     103.13       2.37       0.05       2.01       ----

> <Gold.Chemscore.Fitness>
10.9577

> <Gold.Chemscore.DG>
-13.0215

> <Gold.Chemscore.ZeroCoef>
-5.4800

> <Gold.Chemscore.Hbond>
0.4605

> <Gold.Chemscore.Metal>
0.0000

> <Gold.Chemscore.Lipo>
103.1274

> <Gold.Chemscore.Internal_Hbond>
0.0000

> <Gold.Chemscore.DEClash>
0.0512

> <Gold.Chemscore.DEInternal>
2.0126

> <Gold.Chemscore.Rot>
2.3681

> <Gold.Chemscore.Internal.Correction>
   9.000000E+99

> <Gold.Chemscore.Hbonds>
donor molecule, donor type, donor heavy atom, donor atom, acceptor molecule, acceptor atom, score
      P1  H  8011  8017       L1    21  0.85

> <Gold.Chemscore.Hbond.Weighted>
-1.5380

> <Gold.Chemscore.Metal.Weighted>
-0.0000

> <Gold.Chemscore.Lipo.Weighted>
-12.0659

> <Gold.Chemscore.Internal_Hbond.Weighted>
0.0000

> <Gold.Chemscore.DEClash.Weighted>
0.0512

> <Gold.Chemscore.DEInternal.Weighted>
2.0126

> <Gold.Chemscore.Rot.Weighted>
6.0624

> <Gold.Chemscore.Internal.Correction.Weighted>
   9.000000E+99

> <Gold.Protein.RotatedTorsions>
[ 6907 6896 6895 6894 ] final  -65.40 input  -60.11 | X-H torsion
[ 7974 7965 7964 7962 ] final  126.78 input  175.53 | X-H torsion
[ 8008 7997 7996 7995 ] final   11.67 input   59.86 | X-H torsion
[ 10167 10162 10161 10158 ] final -135.41 input  -65.29 | X-H torsion
[ 10718 10713 10712 10709 ] final   26.52 input   66.30 | X-H torsion
[ 10763 10752 10751 10750 ] final  151.82 input  -60.55 | X-H torsion
[ 11005 11000 10999 10996 ] final   44.57 input  -57.11 | X-H torsion

> <Gold.Protein.ActiveResidues>
 VAL166  LYS551  ARG553  GLY616  TRP617  ASP618  TYR619  PRO620  LYS621  CYS622 
 ASP623  PHE694  ASN695  SER759  ASP760  ASP761  ALA762  ILE779  LEU786  VAL792 
 PHE793  MET794  SER795  GLU796  ALA797  LYS798  CYS799  TRP800  GLU811  SER814 

> <Gold.Protein.RotatedAtoms>
  150.7526  134.6165  159.6113 H   0  0  0  0  0  0  0  0  0  0  0  0  # atno 6907 bound_to 6896
  152.3484  134.7036  160.0252 H   0  0  0  0  0  0  0  0  0  0  0  0  # atno 6908 bound_to 6896
  151.7465  133.3289  159.3416 H   0  0  0  0  0  0  0  0  0  0  0  0  # atno 6909 bound_to 6896
  145.0579  139.3829  143.5020 H   0  0  0  0  0  0  0  0  0  0  0  0  # atno 7974 bound_to 7965
  154.8101  140.2866  155.5859 H   0  0  0  0  0  0  0  0  0  0  0  0  # atno 8008 bound_to 7997
  156.2987  140.2570  156.2918 H   0  0  0  0  0  0  0  0  0  0  0  0  # atno 8009 bound_to 7997
  154.9457  140.0380  157.2108 H   0  0  0  0  0  0  0  0  0  0  0  0  # atno 8010 bound_to 7997
  139.8782  143.6872  152.2631 H   0  0  0  0  0  0  0  0  0  0  0  0  # atno 10167 bound_to 10162
  157.2080  130.6921  149.6216 H   0  0  0  0  0  0  0  0  0  0  0  0  # atno 10718 bound_to 10713
  154.1100  135.2840  155.3233 H   0  0  0  0  0  0  0  0  0  0  0  0  # atno 10763 bound_to 10752
  154.6496  135.5373  153.7889 H   0  0  0  0  0  0  0  0  0  0  0  0  # atno 10764 bound_to 10752
  153.0349  135.6507  154.1259 H   0  0  0  0  0  0  0  0  0  0  0  0  # atno 10765 bound_to 10752
  140.1539  134.4426  155.8362 H   0  0  0  0  0  0  0  0  0  0  0  0  # atno 11005 bound_to 11000
  146.3522  140.0263  142.8654 LP  0  0  0  0  0  0  0  0  0  0  0  0  # atno 17320 bound_to 7965
  145.1445  140.9589  143.4469 LP  0  0  0  0  0  0  0  0  0  0  0  0  # atno 17321 bound_to 7965
  139.7221  144.7600  151.0939 LP  0  0  0  0  0  0  0  0  0  0  0  0  # atno 17342 bound_to 10162
  140.7749  143.5195  150.9554 LP  0  0  0  0  0  0  0  0  0  0  0  0  # atno 17343 bound_to 10162
  155.9693  130.4561  150.5911 LP  0  0  0  0  0  0  0  0  0  0  0  0  # atno 17370 bound_to 10713
  157.3701  131.0764  151.1565 LP  0  0  0  0  0  0  0  0  0  0  0  0  # atno 17371 bound_to 10713
  141.2202  133.6884  156.7472 LP  0  0  0  0  0  0  0  0  0  0  0  0  # atno 17394 bound_to 11000
  140.2571  134.8496  157.3723 LP  0  0  0  0  0  0  0  0  0  0  0  0  # atno 17395 bound_to 11000

$$$$
