AV-unprocessed.smi:1929|AV-procd|sdf|7805|dock7
  -GOLD-   22720 9543D 1   1.00000     0.00000
 Structure written by MMmdl.
 42 43  0  0  0  0  0  0  0  0  3 V2000
  145.5202  135.8616  150.8369 C   0  0  0  0  0  0  0  0  0  0  0  0
  145.2257  135.9541  152.2617 N   0  5  0  0  0  0  0  0  0  0  0  0
  145.7418  136.9148  153.0743 C   0  0  0  0  0  0  0  0  0  0  0  0
  145.8770  136.9456  154.3020 O   0  0  0  0  0  0  0  0  0  0  0  0
  146.1844  138.1409  152.2675 C   0  0  0  0  0  0  0  0  0  0  0  0
  146.8147  139.1426  153.1635 N   0  3  2  0  0  0  0  0  0  0  0  0
  147.0981  140.4393  152.4902 C   0  0  0  0  0  0  0  0  0  0  0  0
  147.6249  141.4814  153.4905 C   0  0  0  0  0  0  0  0  0  0  0  0
  148.8748  140.9685  154.2227 C   0  0  1  0  0  0  0  0  0  0  0  0
  149.2955  141.9411  155.2272 N   0  0  0  0  0  0  0  0  0  0  0  0
  150.1753  141.7029  156.2108 C   0  0  0  0  0  0  0  0  0  0  0  0
  150.7253  140.6144  156.3781 O   0  0  0  0  0  0  0  0  0  0  0  0
  150.3473  142.7896  156.9833 N   0  0  0  0  0  0  0  0  0  0  0  0
  151.2119  142.9568  158.0992 C   0  0  0  0  0  0  0  0  0  0  0  0
  151.5510  144.2726  158.4768 C   0  0  0  0  0  0  0  0  0  0  0  0
  152.4228  144.4628  159.5676 C   0  0  0  0  0  0  0  0  0  0  0  0
  152.9638  143.4461  160.2710 N   0  0  0  0  0  0  0  0  0  0  0  0
  152.6498  142.1871  159.8992 C   0  0  0  0  0  0  0  0  0  0  0  0
  151.7878  141.8865  158.8255 C   0  0  0  0  0  0  0  0  0  0  0  0
  148.5680  139.6086  154.8750 C   0  0  0  0  0  0  0  0  0  0  0  0
  148.0211  138.6078  153.8440 C   0  0  0  0  0  0  0  0  0  0  0  0
  144.9745  135.0461  150.3631 H   0  0  0  0  0  0  0  0  0  0  0  0
  146.5775  135.6791  150.6431 H   0  0  0  0  0  0  0  0  0  0  0  0
  145.2517  136.7691  150.2955 H   0  0  0  0  0  0  0  0  0  0  0  0
  146.9106  137.7894  151.5333 H   0  0  0  0  0  0  0  0  0  0  0  0
  145.3682  138.5928  151.6991 H   0  0  0  0  0  0  0  0  0  0  0  0
  147.8245  140.2841  151.6911 H   0  0  0  0  0  0  0  0  0  0  0  0
  146.1946  140.8292  152.0212 H   0  0  0  0  0  0  0  0  0  0  0  0
  147.8528  142.4105  152.9667 H   0  0  0  0  0  0  0  0  0  0  0  0
  146.8407  141.7168  154.2117 H   0  0  0  0  0  0  0  0  0  0  0  0
  149.6726  140.8404  153.4881 H   0  0  0  0  0  0  0  0  0  0  0  0
  148.8871  142.8625  155.1679 H   0  0  0  0  0  0  0  0  0  0  0  0
  149.7556  143.5804  156.7760 H   0  0  0  0  0  0  0  0  0  0  0  0
  151.1496  145.1242  157.9470 H   0  0  0  0  0  0  0  0  0  0  0  0
  152.6951  145.4597  159.8815 H   0  0  0  0  0  0  0  0  0  0  0  0
  153.1054  141.3923  160.4710 H   0  0  0  0  0  0  0  0  0  0  0  0
  151.6004  140.8535  158.5765 H   0  0  0  0  0  0  0  0  0  0  0  0
  149.4672  139.2007  155.3386 H   0  0  0  0  0  0  0  0  0  0  0  0
  147.8382  139.7368  155.6759 H   0  0  0  0  0  0  0  0  0  0  0  0
  147.7759  137.6734  154.3502 H   0  0  0  0  0  0  0  0  0  0  0  0
  148.7857  138.3756  153.1010 H   0  0  0  0  0  0  0  0  0  0  0  0
  146.1357  139.3283  153.8878 H   0  0  0  0  0  0  0  0  0  0  0  0
  1  2  1  0  0  0  0
  1 22  1  0  0  0  0
  1 23  1  0  0  0  0
  1 24  1  0  0  0  0
  2  3  1  0  0  0  0
  3  4  2  0  0  0  0
  3  5  1  0  0  0  0
  5  6  1  0  0  0  0
  5 25  1  0  0  0  0
  5 26  1  0  0  0  0
  6 21  1  0  0  0  0
  6  7  1  0  0  0  0
  6 42  1  0  0  0  0
  7  8  1  0  0  0  0
  7 27  1  0  0  0  0
  7 28  1  0  0  0  0
  8  9  1  0  0  0  0
  8 29  1  0  0  0  0
  8 30  1  0  0  0  0
  9 10  1  0  0  0  0
  9 20  1  0  0  0  0
  9 31  1  0  0  0  0
 10 11  1  0  0  0  0
 10 32  1  0  0  0  0
 11 12  2  0  0  0  0
 11 13  1  0  0  0  0
 13 14  1  0  0  0  0
 13 33  1  0  0  0  0
 14 19  1  0  0  0  0
 14 15  2  0  0  0  0
 15 16  1  0  0  0  0
 15 34  1  0  0  0  0
 16 17  2  0  0  0  0
 16 35  1  0  0  0  0
 17 18  1  0  0  0  0
 18 19  2  0  0  0  0
 18 36  1  0  0  0  0
 19 37  1  0  0  0  0
 20 21  1  0  0  0  0
 20 38  1  0  0  0  0
 20 39  1  0  0  0  0
 21 40  1  0  0  0  0
 21 41  1  0  0  0  0
M  CHG  1   2  -1
M  CHG  1   6   1
M  END
> <s_m_source_file>
AV-unprocessed.smi

> <i_m_source_file_index>
1929

> <i_lp_mmshare_version>
43012

> <i_f3d_flags>
0

> <s_epik_input>
W0NIM11bTkhdQyg9TylbQ0gyXU4xW0NIMl1bQ0gyXVtDSF0oW0NIMl1bQ0gyXTEpW05IXUMoPU8pW05IXWMyW2NIXVtjSF1uW2NIXVtjSF0y

> <s_epik_cmdline>
J2VwaWtfcHl0aG9uJywgJy1waCcsICc3LjAnLCAnLXRuJywgJzgnLCAnLW1hJywgJzIwMCcsICctbWV0YWxfYmluZGluZycsICctaW1hZScsICc8aW5maWxlLm1hZT4nLCAnLW9tYWUnLCAnPG91dGZpbGUubWFlPic=

> <r_epik_Ionization_Penalty>
6.23856

> <r_epik_Ionization_Penalty_Charging>
6.13946

> <r_epik_Ionization_Penalty_Neutral>
0.0990993

> <r_epik_State_Penalty>
7.04382

> <r_epik_Charging_Adjusted_Penalty>
13.1833

> <i_epik_Tot_Q>
0

> <i_epik_Tot_abs_Q>
2

> <r_epik_Metal_State_Penalty>
3.07449

> <b_epik_Metal_Only>
1

> <s_lp_Force_Field>
OPLS_2005

> <r_lp_Energy>
14.2578

> <b_lp_Chiralities_Consistent>
1

> <s_lp_Variant>
AV-unprocessed.smi:1929-7

> <Gold.Version>
5.8.1

> <Gold.Id.Protein>
6NUR|6NUR_protein|mol2

> <Gold.PLP.Fitness>
44.0922

> <Gold.PLP.PLP>
-38.8536

> <Gold.PLP.part.hbond>
-2.0000

> <Gold.PLP.part.metal>
0.0000

> <Gold.PLP.part.buried>
-4.1620

> <Gold.PLP.part.nonpolar>
-33.2880

> <Gold.PLP.part.repulsive>
0.4556

> <Gold.PLP.ligand.clash>
0.0000

> <Gold.PLP.ligand.torsion>
0.3934

> <Gold.PLP.Chemscore.Hbond>
1.9920

> <Gold.PLP.Chemscore.CHOScore>
0.0000

> <Gold.PLP.Chemscore.Metal>
0.0000

> <Gold.Chemscore.Hbonds>
donor molecule, donor type, donor heavy atom, donor atom, acceptor molecule, acceptor atom, score
      L1  H    10    32       P1  8028  1.00
      L1  H    13    33       P1  8028  1.00

> <Gold.PLP.Chemscore.Internal.Correction>
0.0494

> <Gold.Rescore>
     Score         DG    S(hbond)    S(metal)    S(lipo)     H(rot)  DE(clash)    DE(int)     intcor
     15.48     -19.77       1.92        0.00     102.92       1.63       0.14       4.15       ----

> <Gold.Chemscore.Fitness>
15.4820

> <Gold.Chemscore.DG>
-19.7683

> <Gold.Chemscore.ZeroCoef>
-5.4800

> <Gold.Chemscore.Hbond>
1.9237

> <Gold.Chemscore.Metal>
0.0000

> <Gold.Chemscore.Lipo>
102.9190

> <Gold.Chemscore.Internal_Hbond>
0.0000

> <Gold.Chemscore.DEClash>
0.1393

> <Gold.Chemscore.DEInternal>
4.1470

> <Gold.Chemscore.Rot>
1.6323

> <Gold.Chemscore.Internal.Correction>
   9.000000E+99

> <Gold.Chemscore.Hbonds>
donor molecule, donor type, donor heavy atom, donor atom, acceptor molecule, acceptor atom, score
      L1  H    10    32       P1  8028  0.95
      L1  H    13    33       P1  8028  0.98

> <Gold.Chemscore.Hbond.Weighted>
-6.4253

> <Gold.Chemscore.Metal.Weighted>
-0.0000

> <Gold.Chemscore.Lipo.Weighted>
-12.0415

> <Gold.Chemscore.Internal_Hbond.Weighted>
0.0000

> <Gold.Chemscore.DEClash.Weighted>
0.1393

> <Gold.Chemscore.DEInternal.Weighted>
4.1470

> <Gold.Chemscore.Rot.Weighted>
4.1786

> <Gold.Chemscore.Internal.Correction.Weighted>
   9.000000E+99

> <Gold.Protein.RotatedTorsions>
[ 6907 6896 6895 6894 ] final -161.56 input  -60.11 | X-H torsion
[ 7974 7965 7964 7962 ] final  120.73 input  175.53 | X-H torsion
[ 8008 7997 7996 7995 ] final   23.50 input   59.86 | X-H torsion
[ 10167 10162 10161 10158 ] final -128.54 input  -65.29 | X-H torsion
[ 10718 10713 10712 10709 ] final   32.50 input   66.30 | X-H torsion
[ 10763 10752 10751 10750 ] final  151.80 input  -60.55 | X-H torsion
[ 11005 11000 10999 10996 ] final  153.14 input  -57.11 | X-H torsion

> <Gold.Protein.ActiveResidues>
 VAL166  LYS551  ARG553  GLY616  TRP617  ASP618  TYR619  PRO620  LYS621  CYS622 
 ASP623  PHE694  ASN695  SER759  ASP760  ASP761  ALA762  ILE779  LEU786  VAL792 
 PHE793  MET794  SER795  GLU796  ALA797  LYS798  CYS799  TRP800  GLU811  SER814 

> <Gold.Protein.RotatedAtoms>
  151.3666  133.3870  159.2695 H   0  0  0  0  0  0  0  0  0  0  0  0  # atno 6907 bound_to 6896
  150.9683  134.9061  159.7783 H   0  0  0  0  0  0  0  0  0  0  0  0  # atno 6908 bound_to 6896
  152.5175  134.3627  159.9343 H   0  0  0  0  0  0  0  0  0  0  0  0  # atno 6909 bound_to 6896
  145.1277  139.3347  143.4681 H   0  0  0  0  0  0  0  0  0  0  0  0  # atno 7974 bound_to 7965
  154.9819  140.3103  155.4943 H   0  0  0  0  0  0  0  0  0  0  0  0  # atno 8008 bound_to 7997
  156.2952  140.2265  156.4858 H   0  0  0  0  0  0  0  0  0  0  0  0  # atno 8009 bound_to 7997
  154.7782  140.0448  157.1094 H   0  0  0  0  0  0  0  0  0  0  0  0  # atno 8010 bound_to 7997
  139.9492  143.6075  152.2480 H   0  0  0  0  0  0  0  0  0  0  0  0  # atno 10167 bound_to 10162
  157.2860  130.7278  149.6583 H   0  0  0  0  0  0  0  0  0  0  0  0  # atno 10718 bound_to 10713
  154.1097  135.2840  155.3233 H   0  0  0  0  0  0  0  0  0  0  0  0  # atno 10763 bound_to 10752
  154.6498  135.5373  153.7891 H   0  0  0  0  0  0  0  0  0  0  0  0  # atno 10764 bound_to 10752
  153.0350  135.6507  154.1256 H   0  0  0  0  0  0  0  0  0  0  0  0  # atno 10765 bound_to 10752
  140.1371  134.8764  157.2281 H   0  0  0  0  0  0  0  0  0  0  0  0  # atno 11005 bound_to 11000
  146.3516  140.1263  142.8598 LP  0  0  0  0  0  0  0  0  0  0  0  0  # atno 17320 bound_to 7965
  145.0670  140.9128  143.4905 LP  0  0  0  0  0  0  0  0  0  0  0  0  # atno 17321 bound_to 7965
  139.6642  144.7662  151.1905 LP  0  0  0  0  0  0  0  0  0  0  0  0  # atno 17342 bound_to 10162
  140.7588  143.5964  150.8744 LP  0  0  0  0  0  0  0  0  0  0  0  0  # atno 17343 bound_to 10162
  155.9665  130.4323  150.4959 LP  0  0  0  0  0  0  0  0  0  0  0  0  # atno 17370 bound_to 10713
  157.2913  131.0626  151.2132 LP  0  0  0  0  0  0  0  0  0  0  0  0  # atno 17371 bound_to 10713
  140.2769  134.3395  155.7355 LP  0  0  0  0  0  0  0  0  0  0  0  0  # atno 17394 bound_to 11000
  141.2180  133.7456  156.9306 LP  0  0  0  0  0  0  0  0  0  0  0  0  # atno 17395 bound_to 11000

$$$$
