AV-unprocessed.smi:249|AV-procd|sdf|1898|dock8
  -GOLD-   2262020573D 1   1.00000     0.00000
 Structure written by MMmdl.
 64 67  0  0  0  0  0  0  0  0  2 V2000
  150.9851  145.0050  159.6483 C   0  0  0  0  0  0  0  0  0  0  0  0
  152.1204  144.5664  158.7089 C   0  0  0  0  0  0  0  0  0  0  0  0
  152.0574  143.1243  158.3320 N   0  3  2  0  0  0  0  0  0  0  0  0
  150.9429  142.8481  157.3800 C   0  0  0  0  0  0  0  0  0  0  0  0
  150.9522  141.3965  156.8829 C   0  0  0  0  0  0  0  0  0  0  0  0
  150.8621  140.4189  158.0656 C   0  0  1  0  0  0  0  0  0  0  0  0
  150.7815  139.0106  157.6543 N   0  0  0  0  0  0  0  0  0  0  0  0
  150.7427  138.0067  158.7119 C   0  0  0  0  0  0  0  0  0  0  0  0
  149.9938  138.7132  156.5933 C   0  0  0  0  0  0  0  0  0  0  0  0
  150.3115  139.1884  155.3602 N   0  0  0  0  0  0  0  0  0  0  0  0
  149.5405  138.8899  154.3099 C   0  0  0  0  0  0  0  0  0  0  0  0
  148.4306  138.1496  154.2730 N   0  0  0  0  0  0  0  0  0  0  0  0
  148.1052  137.6801  155.5115 C   0  0  0  0  0  0  0  0  0  0  0  0
  148.8253  137.9148  156.7157 C   0  0  0  0  0  0  0  0  0  0  0  0
  148.1949  137.2824  157.7801 N   0  0  0  0  0  0  0  0  0  0  0  0
  147.1598  136.7029  157.2352 C   0  0  0  0  0  0  0  0  0  0  0  0
  147.0346  136.8828  155.8761 N   0  0  0  0  0  0  0  0  0  0  0  0
  145.9850  136.3487  155.0258 C   0  0  0  0  0  0  0  0  0  0  0  0
  146.2122  136.6362  153.5209 C   0  0  2  0  0  0  0  0  0  0  0  0
  145.6919  138.0296  153.0898 C   0  0  0  0  0  0  0  0  0  0  0  0
  144.2831  138.1031  153.1677 O   0  0  0  0  0  0  0  0  0  0  0  0
  145.6470  135.4995  152.6321 C   0  0  2  0  0  0  0  0  0  0  0  0
  145.5439  135.8351  151.1546 C   0  0  0  0  0  0  0  0  0  0  0  0
  144.5683  134.7756  150.6560 C   0  0  0  0  0  0  0  0  0  0  0  0
  143.6640  134.5585  151.7322 O   0  0  0  0  0  0  0  0  0  0  0  0
  144.1947  135.1112  152.9331 C   0  0  0  0  0  0  0  0  0  0  0  0
  152.0205  140.7198  159.0336 C   0  0  0  0  0  0  0  0  0  0  0  0
  152.0195  142.1899  159.5047 C   0  0  1  0  0  0  0  0  0  0  0  0
  153.1949  142.3901  160.4842 C   0  0  0  0  0  0  0  0  0  0  0  0
  150.9793  146.0900  159.7551 H   0  0  0  0  0  0  0  0  0  0  0  0
  151.0914  144.5928  160.6512 H   0  0  0  0  0  0  0  0  0  0  0  0
  150.0111  144.7088  159.2575 H   0  0  0  0  0  0  0  0  0  0  0  0
  152.0280  145.1935  157.8252 H   0  0  0  0  0  0  0  0  0  0  0  0
  153.0909  144.7943  159.1518 H   0  0  0  0  0  0  0  0  0  0  0  0
  149.9891  143.0728  157.8604 H   0  0  0  0  0  0  0  0  0  0  0  0
  151.0129  143.4925  156.5055 H   0  0  0  0  0  0  0  0  0  0  0  0
  150.1161  141.2483  156.1993 H   0  0  0  0  0  0  0  0  0  0  0  0
  151.8615  141.2199  156.3073 H   0  0  0  0  0  0  0  0  0  0  0  0
  149.9333  140.6266  158.5987 H   0  0  0  0  0  0  0  0  0  0  0  0
  150.9033  137.0090  158.3014 H   0  0  0  0  0  0  0  0  0  0  0  0
  149.7847  138.0119  159.2327 H   0  0  0  0  0  0  0  0  0  0  0  0
  151.5282  138.1958  159.4436 H   0  0  0  0  0  0  0  0  0  0  0  0
  149.8575  139.3036  153.3639 H   0  0  0  0  0  0  0  0  0  0  0  0
  146.4560  136.1200  157.8119 H   0  0  0  0  0  0  0  0  0  0  0  0
  145.9326  135.2750  155.2074 H   0  0  0  0  0  0  0  0  0  0  0  0
  145.0284  136.7611  155.3489 H   0  0  0  0  0  0  0  0  0  0  0  0
  147.2921  136.6548  153.3660 H   0  0  0  0  0  0  0  0  0  0  0  0
  146.1189  138.8180  153.7097 H   0  0  0  0  0  0  0  0  0  0  0  0
  145.9953  138.2570  152.0680 H   0  0  0  0  0  0  0  0  0  0  0  0
  144.0089  138.9601  152.8789 H   0  0  0  0  0  0  0  0  0  0  0  0
  146.2720  134.6107  152.7350 H   0  0  0  0  0  0  0  0  0  0  0  0
  145.1195  136.8307  151.0162 H   0  0  0  0  0  0  0  0  0  0  0  0
  146.5015  135.7956  150.6344 H   0  0  0  0  0  0  0  0  0  0  0  0
  144.0461  135.0799  149.7487 H   0  0  0  0  0  0  0  0  0  0  0  0
  145.0937  133.8423  150.4494 H   0  0  0  0  0  0  0  0  0  0  0  0
  144.1179  134.4013  153.7570 H   0  0  0  0  0  0  0  0  0  0  0  0
  143.6034  135.9908  153.1909 H   0  0  0  0  0  0  0  0  0  0  0  0
  151.9452  140.0605  159.8992 H   0  0  0  0  0  0  0  0  0  0  0  0
  152.9786  140.5030  158.5585 H   0  0  0  0  0  0  0  0  0  0  0  0
  151.0915  142.3722  160.0494 H   0  0  0  0  0  0  0  0  0  0  0  0
  153.2215  141.5928  161.2278 H   0  0  0  0  0  0  0  0  0  0  0  0
  153.1148  143.3198  161.0465 H   0  0  0  0  0  0  0  0  0  0  0  0
  154.1535  142.3830  159.9641 H   0  0  0  0  0  0  0  0  0  0  0  0
  152.9155  142.9225  157.8388 H   0  0  0  0  0  0  0  0  0  0  0  0
  1  2  1  0  0  0  0
  1 30  1  0  0  0  0
  1 31  1  0  0  0  0
  1 32  1  0  0  0  0
  2  3  1  0  0  0  0
  2 33  1  0  0  0  0
  2 34  1  0  0  0  0
  3 28  1  0  0  0  0
  3  4  1  0  0  0  0
  3 64  1  0  0  0  0
  4  5  1  0  0  0  0
  4 35  1  0  0  0  0
  4 36  1  0  0  0  0
  5  6  1  0  0  0  0
  5 37  1  0  0  0  0
  5 38  1  0  0  0  0
  6  7  1  0  0  0  0
  6 27  1  0  0  0  0
  6 39  1  0  0  0  0
  7  8  1  0  0  0  0
  7  9  1  0  0  0  0
  8 40  1  0  0  0  0
  8 41  1  0  0  0  0
  8 42  1  0  0  0  0
  9 14  1  0  0  0  0
  9 10  2  0  0  0  0
 10 11  1  0  0  0  0
 11 12  2  0  0  0  0
 11 43  1  0  0  0  0
 12 13  1  0  0  0  0
 13 17  1  0  0  0  0
 13 14  2  0  0  0  0
 14 15  1  0  0  0  0
 15 16  2  0  0  0  0
 16 17  1  0  0  0  0
 16 44  1  0  0  0  0
 17 18  1  0  0  0  0
 18 19  1  0  0  0  0
 18 45  1  0  0  0  0
 18 46  1  0  0  0  0
 19 20  1  0  0  0  0
 19 22  1  0  0  0  0
 19 47  1  0  0  0  0
 20 21  1  0  0  0  0
 20 48  1  0  0  0  0
 20 49  1  0  0  0  0
 21 50  1  0  0  0  0
 22 26  1  0  0  0  0
 22 23  1  0  0  0  0
 22 51  1  0  0  0  0
 23 24  1  0  0  0  0
 23 52  1  0  0  0  0
 23 53  1  0  0  0  0
 24 25  1  0  0  0  0
 24 54  1  0  0  0  0
 24 55  1  0  0  0  0
 25 26  1  0  0  0  0
 26 56  1  0  0  0  0
 26 57  1  0  0  0  0
 27 28  1  0  0  0  0
 27 58  1  0  0  0  0
 27 59  1  0  0  0  0
 28 29  1  0  0  0  0
 28 60  1  0  0  0  0
 29 61  1  0  0  0  0
 29 62  1  0  0  0  0
 29 63  1  0  0  0  0
M  CHG  1   3   1
M  END
> <s_m_source_file>
AV-unprocessed.smi

> <i_m_source_file_index>
249

> <i_lp_mmshare_version>
43012

> <i_f3d_flags>
0

> <s_epik_input>
W0NIM11bQ0gyXU4xW0NIMl1bQ0gyXVtDQEhdKFtDSDJdW0NASF0xW0NIM10pTihbQ0gzXSljKG5bY0hdbjIpYyhjMjMpbltjSF1uM1tDSDJdW0NASF0oW0NIMl1bT0hdKVtDQEBIXTRbQ0gyXVtDSDJdT1tDSDJdNA==

> <s_epik_cmdline>
J2VwaWtfcHl0aG9uJywgJy1waCcsICc3LjAnLCAnLXRuJywgJzgnLCAnLW1hJywgJzIwMCcsICctbWV0YWxfYmluZGluZycsICctaW1hZScsICc8aW5maWxlLm1hZT4nLCAnLW9tYWUnLCAnPG91dGZpbGUubWFlPic=

> <r_lp_tautomer_probability>
1

> <r_epik_Ionization_Penalty>
0.00294688

> <r_epik_Ionization_Penalty_Charging>
0.00169971

> <r_epik_Ionization_Penalty_Neutral>
0.00124717

> <r_epik_State_Penalty>
-0

> <r_epik_Charging_Adjusted_Penalty>
0.00169971

> <i_epik_Tot_Q>
1

> <i_epik_Tot_abs_Q>
1

> <r_epik_Metal_State_Penalty>
-0

> <b_epik_Metal_Only>
0

> <s_lp_Force_Field>
OPLS_2005

> <r_lp_Energy>
53.6814

> <b_lp_Chiralities_Consistent>
1

> <s_lp_Variant>
AV-unprocessed.smi:249-1

> <Gold.Version>
5.8.1

> <Gold.Id.Protein>
6NUR|6NUR_protein|mol2

> <Gold.PLP.Fitness>
44.8650

> <Gold.PLP.PLP>
-40.4305

> <Gold.PLP.part.hbond>
-0.9029

> <Gold.PLP.part.metal>
0.0000

> <Gold.PLP.part.buried>
-7.1544

> <Gold.PLP.part.nonpolar>
-34.1430

> <Gold.PLP.part.repulsive>
0.6249

> <Gold.PLP.ligand.clash>
0.0000

> <Gold.PLP.ligand.torsion>
1.2059

> <Gold.PLP.Chemscore.Hbond>
1.0000

> <Gold.PLP.Chemscore.CHOScore>
1.0000

> <Gold.PLP.Chemscore.Metal>
0.0000

> <Gold.Chemscore.Hbonds>
donor molecule, donor type, donor heavy atom, donor atom, acceptor molecule, acceptor atom, score
      L1  H    21    50       P1 10175  1.00
      L1  C    11    43       P1  7957  1.00

> <Gold.PLP.Chemscore.Internal.Correction>
0.8464

> <Gold.Rescore>
     Score         DG    S(hbond)    S(metal)    S(lipo)     H(rot)  DE(clash)    DE(int)     intcor
      8.00     -13.63       0.99        0.00     104.81       2.90       0.06       5.57       ----

> <Gold.Chemscore.Fitness>
8.0006

> <Gold.Chemscore.DG>
-13.6316

> <Gold.Chemscore.ZeroCoef>
-5.4800

> <Gold.Chemscore.Hbond>
0.9923

> <Gold.Chemscore.Metal>
0.0000

> <Gold.Chemscore.Lipo>
104.8114

> <Gold.Chemscore.Internal_Hbond>
0.0000

> <Gold.Chemscore.DEClash>
0.0618

> <Gold.Chemscore.DEInternal>
5.5692

> <Gold.Chemscore.Rot>
2.9006

> <Gold.Chemscore.Internal.Correction>
   9.000000E+99

> <Gold.Chemscore.Hbonds>
donor molecule, donor type, donor heavy atom, donor atom, acceptor molecule, acceptor atom, score
      L1  H    21    50       P1 10175  0.97

> <Gold.Chemscore.Hbond.Weighted>
-3.3143

> <Gold.Chemscore.Metal.Weighted>
-0.0000

> <Gold.Chemscore.Lipo.Weighted>
-12.2629

> <Gold.Chemscore.Internal_Hbond.Weighted>
0.0000

> <Gold.Chemscore.DEClash.Weighted>
0.0618

> <Gold.Chemscore.DEInternal.Weighted>
5.5692

> <Gold.Chemscore.Rot.Weighted>
7.4256

> <Gold.Chemscore.Internal.Correction.Weighted>
   9.000000E+99

> <Gold.Protein.RotatedTorsions>
[ 6907 6896 6895 6894 ] final  145.15 input  -60.11 | X-H torsion
[ 7974 7965 7964 7962 ] final -131.48 input  175.53 | X-H torsion
[ 8008 7997 7996 7995 ] final -156.40 input   59.86 | X-H torsion
[ 10167 10162 10161 10158 ] final -156.44 input  -65.29 | X-H torsion
[ 10718 10713 10712 10709 ] final -126.47 input   66.30 | X-H torsion
[ 10763 10752 10751 10750 ] final   20.43 input  -60.55 | X-H torsion
[ 11005 11000 10999 10996 ] final  -28.30 input  -57.11 | X-H torsion

> <Gold.Protein.ActiveResidues>
 VAL166  LYS551  ARG553  GLY616  TRP617  ASP618  TYR619  PRO620  LYS621  CYS622 
 ASP623  PHE694  ASN695  SER759  ASP760  ASP761  ALA762  ILE779  LEU786  VAL792 
 PHE793  MET794  SER795  GLU796  ALA797  LYS798  CYS799  TRP800  GLU811  SER814 

> <Gold.Protein.RotatedAtoms>
  152.1846  133.4730  159.4975 H   0  0  0  0  0  0  0  0  0  0  0  0  # atno 6907 bound_to 6896
  150.6940  134.1790  159.4250 H   0  0  0  0  0  0  0  0  0  0  0  0  # atno 6908 bound_to 6896
  151.9703  135.0080  160.0603 H   0  0  0  0  0  0  0  0  0  0  0  0  # atno 6909 bound_to 6896
  144.9375  140.7201  143.4867 H   0  0  0  0  0  0  0  0  0  0  0  0  # atno 7974 bound_to 7965
  155.7165  140.0785  157.2349 H   0  0  0  0  0  0  0  0  0  0  0  0  # atno 8008 bound_to 7997
  154.4051  140.1620  156.2409 H   0  0  0  0  0  0  0  0  0  0  0  0  # atno 8009 bound_to 7997
  155.9235  140.3396  155.6194 H   0  0  0  0  0  0  0  0  0  0  0  0  # atno 8010 bound_to 7997
  139.6850  143.9516  152.2356 H   0  0  0  0  0  0  0  0  0  0  0  0  # atno 10167 bound_to 10162
  156.1768  130.6705  151.0252 H   0  0  0  0  0  0  0  0  0  0  0  0  # atno 10718 bound_to 10713
  153.1078  135.6689  153.9555 H   0  0  0  0  0  0  0  0  0  0  0  0  # atno 10763 bound_to 10752
  153.9107  135.3025  155.3450 H   0  0  0  0  0  0  0  0  0  0  0  0  # atno 10764 bound_to 10752
  154.7498  135.5040  153.9346 H   0  0  0  0  0  0  0  0  0  0  0  0  # atno 10765 bound_to 10752
  140.9196  133.7407  156.0783 H   0  0  0  0  0  0  0  0  0  0  0  0  # atno 11005 bound_to 11000
  145.3043  139.1840  143.4673 LP  0  0  0  0  0  0  0  0  0  0  0  0  # atno 17320 bound_to 7965
  146.3272  140.3038  142.8622 LP  0  0  0  0  0  0  0  0  0  0  0  0  # atno 17321 bound_to 7965
  139.9317  144.6737  150.8356 LP  0  0  0  0  0  0  0  0  0  0  0  0  # atno 17342 bound_to 10162
  140.7665  143.3304  151.2422 LP  0  0  0  0  0  0  0  0  0  0  0  0  # atno 17343 bound_to 10162
  157.6841  131.0830  150.7291 LP  0  0  0  0  0  0  0  0  0  0  0  0  # atno 17370 bound_to 10713
  156.7349  130.4721  149.5491 LP  0  0  0  0  0  0  0  0  0  0  0  0  # atno 17371 bound_to 10713
  140.8005  134.3514  157.5440 LP  0  0  0  0  0  0  0  0  0  0  0  0  # atno 17394 bound_to 11000
  139.8773  134.9195  156.3227 LP  0  0  0  0  0  0  0  0  0  0  0  0  # atno 17395 bound_to 11000

$$$$
