AV-unprocessed.smi:3153|AV-procd|sdf|12020|dock8
  -GOLD-   2272017433D 1   1.00000     0.00000
 Structure written by MMmdl.
 37 38  0  0  0  0  0  0  0  0  1 V2000
  150.1106  140.7449  153.8334 O   0  0  0  0  0  0  0  0  0  0  0  0
  150.1998  140.2942  155.1736 C   0  0  0  0  0  0  0  0  0  0  0  0
  149.6326  141.4180  156.0711 C   0  0  0  0  0  0  0  0  0  0  0  0
  150.5493  142.5486  156.2083 N   0  0  0  0  0  0  0  0  0  0  0  0
  150.9239  142.8259  157.5919 C   0  0  0  0  0  0  0  0  0  0  0  0
  151.8598  141.7414  158.1498 C   0  0  0  0  0  0  0  0  0  0  0  0
  152.3165  142.0418  159.4951 N   0  0  0  0  0  0  0  0  0  0  0  0
  152.0323  143.1466  160.2702 C   0  0  0  0  0  0  0  0  0  0  0  0
  152.6836  142.9865  161.4598 C   0  0  0  0  0  0  0  0  0  0  0  0
  153.3515  141.7383  161.3141 C   0  0  0  0  0  0  0  0  0  0  0  0
  153.1313  141.1763  160.1365 N   0  0  0  0  0  0  0  0  0  0  0  0
  149.3084  139.0358  155.3023 C   0  0  0  0  0  0  0  0  0  0  0  0
  149.8489  137.8283  154.5154 C   0  0  0  0  0  0  0  0  0  0  0  0
  151.2953  137.5051  154.9136 C   0  0  0  0  0  0  0  0  0  0  0  0
  152.1992  138.7318  154.7295 C   0  0  0  0  0  0  0  0  0  0  0  0
  151.6706  139.9446  155.5165 C   0  0  0  0  0  0  0  0  0  0  0  0
  149.8868  140.0087  153.2852 H   0  0  0  0  0  0  0  0  0  0  0  0
  148.6787  141.7607  155.6670 H   0  0  0  0  0  0  0  0  0  0  0  0
  149.4155  141.0118  157.0599 H   0  0  0  0  0  0  0  0  0  0  0  0
  150.1263  143.3772  155.8024 H   0  0  0  0  0  0  0  0  0  0  0  0
  151.4084  143.8006  157.6631 H   0  0  0  0  0  0  0  0  0  0  0  0
  150.0278  142.8803  158.2110 H   0  0  0  0  0  0  0  0  0  0  0  0
  151.3438  140.7806  158.1709 H   0  0  0  0  0  0  0  0  0  0  0  0
  152.7279  141.6148  157.5013 H   0  0  0  0  0  0  0  0  0  0  0  0
  151.3954  143.9437  159.9159 H   0  0  0  0  0  0  0  0  0  0  0  0
  152.6834  143.6586  162.3051 H   0  0  0  0  0  0  0  0  0  0  0  0
  153.9854  141.2276  162.0241 H   0  0  0  0  0  0  0  0  0  0  0  0
  149.2326  138.7557  156.3541 H   0  0  0  0  0  0  0  0  0  0  0  0
  148.2909  139.2583  154.9779 H   0  0  0  0  0  0  0  0  0  0  0  0
  149.2143  136.9591  154.6905 H   0  0  0  0  0  0  0  0  0  0  0  0
  149.8004  138.0321  153.4450 H   0  0  0  0  0  0  0  0  0  0  0  0
  151.3267  137.1782  155.9536 H   0  0  0  0  0  0  0  0  0  0  0  0
  151.6692  136.6736  154.3154 H   0  0  0  0  0  0  0  0  0  0  0  0
  153.2131  138.4954  155.0527 H   0  0  0  0  0  0  0  0  0  0  0  0
  152.2663  138.9809  153.6697 H   0  0  0  0  0  0  0  0  0  0  0  0
  152.3235  140.7987  155.3331 H   0  0  0  0  0  0  0  0  0  0  0  0
  151.7468  139.7298  156.5832 H   0  0  0  0  0  0  0  0  0  0  0  0
  1  2  1  0  0  0  0
  1 17  1  0  0  0  0
  2 16  1  0  0  0  0
  2  3  1  0  0  0  0
  2 12  1  0  0  0  0
  3  4  1  0  0  0  0
  3 18  1  0  0  0  0
  3 19  1  0  0  0  0
  4  5  1  0  0  0  0
  4 20  1  0  0  0  0
  5  6  1  0  0  0  0
  5 21  1  0  0  0  0
  5 22  1  0  0  0  0
  6  7  1  0  0  0  0
  6 23  1  0  0  0  0
  6 24  1  0  0  0  0
  7 11  1  0  0  0  0
  7  8  1  0  0  0  0
  8  9  2  0  0  0  0
  8 25  1  0  0  0  0
  9 10  1  0  0  0  0
  9 26  1  0  0  0  0
 10 11  2  0  0  0  0
 10 27  1  0  0  0  0
 12 13  1  0  0  0  0
 12 28  1  0  0  0  0
 12 29  1  0  0  0  0
 13 14  1  0  0  0  0
 13 30  1  0  0  0  0
 13 31  1  0  0  0  0
 14 15  1  0  0  0  0
 14 32  1  0  0  0  0
 14 33  1  0  0  0  0
 15 16  1  0  0  0  0
 15 34  1  0  0  0  0
 15 35  1  0  0  0  0
 16 36  1  0  0  0  0
 16 37  1  0  0  0  0
M  END
> <s_m_source_file>
AV-unprocessed.smi

> <i_m_source_file_index>
3153

> <i_lp_mmshare_version>
43012

> <i_f3d_flags>
0

> <s_epik_input>
W0NIMl0xW0NIMl1bQ0gyXVtDSDJdW0NIMl1DMShbT0hdKVtDSDJdW05IXVtDSDJdW0NIMl1uMltjSF1bY0hdW2NIXW4y

> <s_epik_cmdline>
J2VwaWtfcHl0aG9uJywgJy1waCcsICc3LjAnLCAnLXRuJywgJzgnLCAnLW1hJywgJzIwMCcsICctbWV0YWxfYmluZGluZycsICctaW1hZScsICc8aW5maWxlLm1hZT4nLCAnLW9tYWUnLCAnPG91dGZpbGUubWFlPic=

> <r_lp_tautomer_probability>
1

> <r_epik_Ionization_Penalty>
1.91265

> <r_epik_Ionization_Penalty_Charging>
0

> <r_epik_Ionization_Penalty_Neutral>
1.91265

> <r_epik_State_Penalty>
2.0334

> <r_epik_Charging_Adjusted_Penalty>
2.0334

> <i_epik_Tot_Q>
0

> <i_epik_Tot_abs_Q>
0

> <r_epik_Metal_State_Penalty>
2.03214

> <b_epik_Metal_Only>
0

> <s_lp_Force_Field>
OPLS_2005

> <r_lp_Energy>
22.2281

> <b_lp_Chiralities_Consistent>
1

> <s_lp_Variant>
AV-unprocessed.smi:3153-2

> <Gold.Version>
5.8.1

> <Gold.Id.Protein>
6NUR|6NUR_protein|mol2

> <Gold.PLP.Fitness>
43.1959

> <Gold.PLP.PLP>
-37.3092

> <Gold.PLP.part.hbond>
-2.8997

> <Gold.PLP.part.metal>
0.0000

> <Gold.PLP.part.buried>
-1.2234

> <Gold.PLP.part.nonpolar>
-32.0535

> <Gold.PLP.part.repulsive>
0.0000

> <Gold.PLP.ligand.clash>
0.0000

> <Gold.PLP.ligand.torsion>
0.5395

> <Gold.PLP.Chemscore.Hbond>
2.3114

> <Gold.PLP.Chemscore.CHOScore>
0.0000

> <Gold.PLP.Chemscore.Metal>
0.0000

> <Gold.Chemscore.Hbonds>
donor molecule, donor type, donor heavy atom, donor atom, acceptor molecule, acceptor atom, score
      L1  H     1    17       P1  7957  0.39
      L1  H     4    20       P1  8028  1.00
      P1  H  7989  7998       L1     1  0.56
      P1  H  8011  8017       L1     1  0.37

> <Gold.PLP.Chemscore.Internal.Correction>
0.0314

> <Gold.Rescore>
     Score         DG    S(hbond)    S(metal)    S(lipo)     H(rot)  DE(clash)    DE(int)     intcor
     15.75     -16.54       1.55        0.00      97.76       2.18       0.25       0.54       ----

> <Gold.Chemscore.Fitness>
15.7506

> <Gold.Chemscore.DG>
-16.5417

> <Gold.Chemscore.ZeroCoef>
-5.4800

> <Gold.Chemscore.Hbond>
1.5548

> <Gold.Chemscore.Metal>
0.0000

> <Gold.Chemscore.Lipo>
97.7646

> <Gold.Chemscore.Internal_Hbond>
0.0000

> <Gold.Chemscore.DEClash>
0.2479

> <Gold.Chemscore.DEInternal>
0.5433

> <Gold.Chemscore.Rot>
2.1756

> <Gold.Chemscore.Internal.Correction>
   9.000000E+99

> <Gold.Chemscore.Hbonds>
donor molecule, donor type, donor heavy atom, donor atom, acceptor molecule, acceptor atom, score
      L1  H     1    17       P1  7957  0.38
      L1  H     4    20       P1  8028  0.99
      P1  H  7989  7998       L1     1  0.04
      P1  H  8011  8017       L1     1  0.08

> <Gold.Chemscore.Hbond.Weighted>
-5.1929

> <Gold.Chemscore.Metal.Weighted>
-0.0000

> <Gold.Chemscore.Lipo.Weighted>
-11.4385

> <Gold.Chemscore.Internal_Hbond.Weighted>
0.0000

> <Gold.Chemscore.DEClash.Weighted>
0.2479

> <Gold.Chemscore.DEInternal.Weighted>
0.5433

> <Gold.Chemscore.Rot.Weighted>
5.5696

> <Gold.Chemscore.Internal.Correction.Weighted>
   9.000000E+99

> <Gold.Protein.RotatedTorsions>
[ 6907 6896 6895 6894 ] final   47.81 input  -60.11 | X-H torsion
[ 7974 7965 7964 7962 ] final   41.92 input  175.53 | X-H torsion
[ 8008 7997 7996 7995 ] final   75.03 input   59.86 | X-H torsion
[ 10167 10162 10161 10158 ] final   92.84 input  -65.29 | X-H torsion
[ 10718 10713 10712 10709 ] final -109.24 input   66.30 | X-H torsion
[ 10763 10752 10751 10750 ] final   52.46 input  -60.55 | X-H torsion
[ 11005 11000 10999 10996 ] final  150.31 input  -57.11 | X-H torsion

> <Gold.Protein.ActiveResidues>
 VAL166  LYS551  ARG553  GLY616  TRP617  ASP618  TYR619  PRO620  LYS621  CYS622 
 ASP623  PHE694  ASN695  SER759  ASP760  ASP761  ALA762  ILE779  LEU786  VAL792 
 PHE793  MET794  SER795  GLU796  ALA797  LYS798  CYS799  TRP800  GLU811  SER814 

> <Gold.Protein.RotatedAtoms>
  152.2724  134.7918  160.0411 H   0  0  0  0  0  0  0  0  0  0  0  0  # atno 6907 bound_to 6896
  151.8527  133.3437  159.3686 H   0  0  0  0  0  0  0  0  0  0  0  0  # atno 6908 bound_to 6896
  150.7157  134.5211  159.5698 H   0  0  0  0  0  0  0  0  0  0  0  0  # atno 6909 bound_to 6896
  146.0783  139.5360  142.9553 H   0  0  0  0  0  0  0  0  0  0  0  0  # atno 7974 bound_to 7965
  155.8070  140.3474  155.5435 H   0  0  0  0  0  0  0  0  0  0  0  0  # atno 8008 bound_to 7997
  155.8480  140.0952  157.1713 H   0  0  0  0  0  0  0  0  0  0  0  0  # atno 8009 bound_to 7997
  154.4007  140.1382  156.3797 H   0  0  0  0  0  0  0  0  0  0  0  0  # atno 8010 bound_to 7997
  139.8237  144.6719  150.9486 H   0  0  0  0  0  0  0  0  0  0  0  0  # atno 10167 bound_to 10162
  156.0526  130.5754  150.8072 H   0  0  0  0  0  0  0  0  0  0  0  0  # atno 10718 bound_to 10713
  152.9789  135.5812  154.4582 H   0  0  0  0  0  0  0  0  0  0  0  0  # atno 10763 bound_to 10752
  154.4162  135.2771  155.2007 H   0  0  0  0  0  0  0  0  0  0  0  0  # atno 10764 bound_to 10752
  154.3776  135.6154  153.5827 H   0  0  0  0  0  0  0  0  0  0  0  0  # atno 10765 bound_to 10752
  140.1120  134.8918  157.1950 H   0  0  0  0  0  0  0  0  0  0  0  0  # atno 11005 bound_to 11000
  145.6264  141.0312  143.1887 LP  0  0  0  0  0  0  0  0  0  0  0  0  # atno 17320 bound_to 7965
  144.7276  139.7825  143.7359 LP  0  0  0  0  0  0  0  0  0  0  0  0  # atno 17321 bound_to 7965
  140.7811  143.4067  151.1060 LP  0  0  0  0  0  0  0  0  0  0  0  0  # atno 17342 bound_to 10162
  139.7725  143.8473  152.3123 LP  0  0  0  0  0  0  0  0  0  0  0  0  # atno 17343 bound_to 10162
  157.5468  131.0942  150.9752 LP  0  0  0  0  0  0  0  0  0  0  0  0  # atno 17370 bound_to 10713
  157.0021  130.5604  149.5312 LP  0  0  0  0  0  0  0  0  0  0  0  0  # atno 17371 bound_to 10713
  140.3078  134.3058  155.7274 LP  0  0  0  0  0  0  0  0  0  0  0  0  # atno 17394 bound_to 11000
  141.2132  133.7631  156.9733 LP  0  0  0  0  0  0  0  0  0  0  0  0  # atno 17395 bound_to 11000

$$$$
