AV-unprocessed.smi:1042|AV-procd|sdf|4538|dock1
  -GOLD-   22720 2563D 1   1.00000     0.00000
 Structure written by MMmdl.
 40 42  0  0  0  0  0  0  0  0  2 V2000
  150.6696  140.8966  155.4471 O   0  0  0  0  0  0  0  0  0  0  0  0
  149.8339  141.7224  155.8154 C   0  0  0  0  0  0  0  0  0  0  0  0
  148.6266  141.8527  155.2462 N   0  0  0  0  0  0  0  0  0  0  0  0
  148.1392  141.0611  154.1208 C   0  0  0  0  0  0  0  0  0  0  0  0
  147.7328  139.6336  154.5365 C   0  0  2  0  0  0  0  0  0  0  0  0
  148.8983  138.7661  155.0017 C   0  0  0  0  0  0  0  0  0  0  0  0
  148.3246  137.3565  154.8854 C   0  0  0  0  0  0  0  0  0  0  0  0
  147.4581  137.3813  153.6875 N   0  3  1  0  0  0  0  0  0  0  0  0
  146.3041  136.4602  153.7640 C   0  0  0  0  0  0  0  0  0  0  0  0
  145.1881  136.8080  152.8080 C   0  0  0  0  0  0  0  0  0  0  0  0
  145.0457  137.1130  154.2838 C   0  0  0  0  0  0  0  0  0  0  0  0
  147.0907  138.7925  153.4228 C   0  0  0  0  0  0  0  0  0  0  0  0
  149.9962  142.6008  156.8205 N   0  0  0  0  0  0  0  0  0  0  0  0
  151.1150  142.7503  157.6826 C   0  0  0  0  0  0  0  0  0  0  0  0
  151.4001  144.0797  158.0681 C   0  0  0  0  0  0  0  0  0  0  0  0
  152.4890  144.3344  158.9243 C   0  0  0  0  0  0  0  0  0  0  0  0
  153.2638  143.2514  159.3760 C   0  0  0  0  0  0  0  0  0  0  0  0
  152.9110  141.9589  158.9461 C   0  0  0  0  0  0  0  0  0  0  0  0
  151.8684  141.7127  158.1247 N   0  0  0  0  0  0  0  0  0  0  0  0
  148.0058  142.5626  155.6066 H   0  0  0  0  0  0  0  0  0  0  0  0
  147.2843  141.5830  153.6897 H   0  0  0  0  0  0  0  0  0  0  0  0
  148.9024  141.0243  153.3415 H   0  0  0  0  0  0  0  0  0  0  0  0
  147.0233  139.6910  155.3640 H   0  0  0  0  0  0  0  0  0  0  0  0
  149.7509  138.8786  154.3301 H   0  0  0  0  0  0  0  0  0  0  0  0
  149.2289  139.0058  156.0128 H   0  0  0  0  0  0  0  0  0  0  0  0
  149.0981  136.5924  154.8038 H   0  0  0  0  0  0  0  0  0  0  0  0
  147.7265  137.1353  155.7712 H   0  0  0  0  0  0  0  0  0  0  0  0
  146.5267  135.4209  154.0004 H   0  0  0  0  0  0  0  0  0  0  0  0
  145.3316  137.6491  152.1320 H   0  0  0  0  0  0  0  0  0  0  0  0
  144.5947  135.9876  152.4092 H   0  0  0  0  0  0  0  0  0  0  0  0
  144.3580  136.4941  154.8561 H   0  0  0  0  0  0  0  0  0  0  0  0
  145.0948  138.1570  154.5887 H   0  0  0  0  0  0  0  0  0  0  0  0
  146.0105  138.9442  153.3862 H   0  0  0  0  0  0  0  0  0  0  0  0
  147.4924  139.0656  152.4463 H   0  0  0  0  0  0  0  0  0  0  0  0
  149.2291  143.2332  156.9936 H   0  0  0  0  0  0  0  0  0  0  0  0
  150.7943  144.9006  157.7124 H   0  0  0  0  0  0  0  0  0  0  0  0
  152.7246  145.3435  159.2291 H   0  0  0  0  0  0  0  0  0  0  0  0
  154.1062  143.4066  160.0337 H   0  0  0  0  0  0  0  0  0  0  0  0
  153.4804  141.1003  159.2696 H   0  0  0  0  0  0  0  0  0  0  0  0
  148.0287  137.0870  152.9079 H   0  0  0  0  0  0  0  0  0  0  0  0
  1  2  2  0  0  0  0
  2  3  1  0  0  0  0
  2 13  1  0  0  0  0
  3  4  1  0  0  0  0
  3 20  1  0  0  0  0
  4  5  1  0  0  0  0
  4 21  1  0  0  0  0
  4 22  1  0  0  0  0
  5 12  1  0  0  0  0
  5  6  1  0  0  0  0
  5 23  1  0  0  0  0
  6  7  1  0  0  0  0
  6 24  1  0  0  0  0
  6 25  1  0  0  0  0
  7  8  1  0  0  0  0
  7 26  1  0  0  0  0
  7 27  1  0  0  0  0
  8  9  1  0  0  0  0
  8 12  1  0  0  0  0
  8 40  1  0  0  0  0
  9 11  1  0  0  0  0
  9 10  1  0  0  0  0
  9 28  1  0  0  0  0
 10 11  1  0  0  0  0
 10 29  1  0  0  0  0
 10 30  1  0  0  0  0
 11 31  1  0  0  0  0
 11 32  1  0  0  0  0
 12 33  1  0  0  0  0
 12 34  1  0  0  0  0
 13 14  1  0  0  0  0
 13 35  1  0  0  0  0
 14 19  1  0  0  0  0
 14 15  2  0  0  0  0
 15 16  1  0  0  0  0
 15 36  1  0  0  0  0
 16 17  2  0  0  0  0
 16 37  1  0  0  0  0
 17 18  1  0  0  0  0
 17 38  1  0  0  0  0
 18 19  2  0  0  0  0
 18 39  1  0  0  0  0
M  CHG  1   8   1
M  END
> <s_m_source_file>
AV-unprocessed.smi

> <i_m_source_file_index>
1042

> <i_lp_mmshare_version>
43012

> <i_f3d_flags>
0

> <s_epik_input>
bjFbY0hdW2NIXVtjSF1bY0hdYzFbTkhdQyg9TylbTkhdW0NIMl1bQ0BASF0yW0NIMl1bQ0gyXU4oW0NIMl0yKVtDSF0zW0NIMl1bQ0gyXTM=

> <s_epik_cmdline>
J2VwaWtfcHl0aG9uJywgJy1waCcsICc3LjAnLCAnLXRuJywgJzgnLCAnLW1hJywgJzIwMCcsICctbWV0YWxfYmluZGluZycsICctaW1hZScsICc8aW5maWxlLm1hZT4nLCAnLW9tYWUnLCAnPG91dGZpbGUubWFlPic=

> <r_lp_tautomer_probability>
1

> <r_epik_Ionization_Penalty>
0.000244736

> <r_epik_Ionization_Penalty_Charging>
0.000203384

> <r_epik_Ionization_Penalty_Neutral>
4.13519e-05

> <r_epik_State_Penalty>
-0

> <r_epik_Charging_Adjusted_Penalty>
0.000203384

> <i_epik_Tot_Q>
1

> <i_epik_Tot_abs_Q>
1

> <r_epik_Metal_State_Penalty>
-0

> <b_epik_Metal_Only>
0

> <s_lp_Force_Field>
OPLS_2005

> <r_lp_Energy>
38.555

> <b_lp_Chiralities_Consistent>
1

> <s_lp_Variant>
AV-unprocessed.smi:1042-3

> <Gold.Version>
5.8.1

> <Gold.Id.Protein>
6NUR|6NUR_protein|mol2

> <Gold.PLP.Fitness>
47.7348

> <Gold.PLP.PLP>
-35.0543

> <Gold.PLP.part.hbond>
-4.0000

> <Gold.PLP.part.metal>
0.0000

> <Gold.PLP.part.buried>
-1.8839

> <Gold.PLP.part.nonpolar>
-28.7088

> <Gold.PLP.part.repulsive>
0.3494

> <Gold.PLP.ligand.clash>
0.0000

> <Gold.PLP.ligand.torsion>
1.0036

> <Gold.PLP.Chemscore.Hbond>
4.4760

> <Gold.PLP.Chemscore.CHOScore>
0.0000

> <Gold.PLP.Chemscore.Metal>
0.0000

> <Gold.Chemscore.Hbonds>
donor molecule, donor type, donor heavy atom, donor atom, acceptor molecule, acceptor atom, score
      L1  H     3    20       P1  8028  0.09
      L1  H     8    40       P1  7948  2.00
      L1  H    13    35       P1  8028  0.38
      P1  H  7989  7998       L1     1  0.51

> <Gold.PLP.Chemscore.Internal.Correction>
1.2596

> <Gold.Rescore>
     Score         DG    S(hbond)    S(metal)    S(lipo)     H(rot)  DE(clash)    DE(int)     intcor
     17.25     -20.79       2.82        0.00      82.64       1.47       0.17       3.37       ----

> <Gold.Chemscore.Fitness>
17.2467

> <Gold.Chemscore.DG>
-20.7933

> <Gold.Chemscore.ZeroCoef>
-5.4800

> <Gold.Chemscore.Hbond>
2.8172

> <Gold.Chemscore.Metal>
0.0000

> <Gold.Chemscore.Lipo>
82.6393

> <Gold.Chemscore.Internal_Hbond>
0.0000

> <Gold.Chemscore.DEClash>
0.1744

> <Gold.Chemscore.DEInternal>
3.3722

> <Gold.Chemscore.Rot>
1.4707

> <Gold.Chemscore.Internal.Correction>
   9.000000E+99

> <Gold.Chemscore.Hbonds>
donor molecule, donor type, donor heavy atom, donor atom, acceptor molecule, acceptor atom, score
      L1  H     3    20       P1  8028  0.08
      L1  H     8    40       P1  7948  0.99
      L1  H    13    35       P1  8028  0.33
      P1  H  7989  7998       L1     1  0.52

> <Gold.Chemscore.Hbond.Weighted>
-9.4095

> <Gold.Chemscore.Metal.Weighted>
-0.0000

> <Gold.Chemscore.Lipo.Weighted>
-9.6688

> <Gold.Chemscore.Internal_Hbond.Weighted>
0.0000

> <Gold.Chemscore.DEClash.Weighted>
0.1744

> <Gold.Chemscore.DEInternal.Weighted>
3.3722

> <Gold.Chemscore.Rot.Weighted>
3.7650

> <Gold.Chemscore.Internal.Correction.Weighted>
   9.000000E+99

> <Gold.Protein.RotatedTorsions>
[ 6907 6896 6895 6894 ] final   46.53 input  -60.11 | X-H torsion
[ 7974 7965 7964 7962 ] final  -84.18 input  175.53 | X-H torsion
[ 8008 7997 7996 7995 ] final  -31.82 input   59.86 | X-H torsion
[ 10167 10162 10161 10158 ] final -176.33 input  -65.29 | X-H torsion
[ 10718 10713 10712 10709 ] final  -53.48 input   66.30 | X-H torsion
[ 10763 10752 10751 10750 ] final   63.23 input  -60.55 | X-H torsion
[ 11005 11000 10999 10996 ] final    9.24 input  -57.11 | X-H torsion

> <Gold.Protein.ActiveResidues>
 VAL166  LYS551  ARG553  GLY616  TRP617  ASP618  TYR619  PRO620  LYS621  CYS622 
 ASP623  PHE694  ASN695  SER759  ASP760  ASP761  ALA762  ILE779  LEU786  VAL792 
 PHE793  MET794  SER795  GLU796  ALA797  LYS798  CYS799  TRP800  GLU811  SER814 

> <Gold.Protein.RotatedAtoms>
  152.2574  134.8069  160.0435 H   0  0  0  0  0  0  0  0  0  0  0  0  # atno 6907 bound_to 6896
  151.8728  133.3474  159.3748 H   0  0  0  0  0  0  0  0  0  0  0  0  # atno 6908 bound_to 6896
  150.7105  134.5023  159.5611 H   0  0  0  0  0  0  0  0  0  0  0  0  # atno 6909 bound_to 6896
  145.5100  140.9540  143.1712 H   0  0  0  0  0  0  0  0  0  0  0  0  # atno 7974 bound_to 7965
  154.4201  140.1754  156.1628 H   0  0  0  0  0  0  0  0  0  0  0  0  # atno 8008 bound_to 7997
  155.9824  140.3376  155.6651 H   0  0  0  0  0  0  0  0  0  0  0  0  # atno 8009 bound_to 7997
  155.6482  140.0687  157.2586 H   0  0  0  0  0  0  0  0  0  0  0  0  # atno 8010 bound_to 7997
  139.5535  144.2048  152.1119 H   0  0  0  0  0  0  0  0  0  0  0  0  # atno 10167 bound_to 10162
  156.1532  130.4151  149.9911 H   0  0  0  0  0  0  0  0  0  0  0  0  # atno 10718 bound_to 10713
  153.0010  135.5436  154.6318 H   0  0  0  0  0  0  0  0  0  0  0  0  # atno 10763 bound_to 10752
  154.5594  135.2832  155.0936 H   0  0  0  0  0  0  0  0  0  0  0  0  # atno 10764 bound_to 10752
  154.2144  135.6461  153.5178 H   0  0  0  0  0  0  0  0  0  0  0  0  # atno 10765 bound_to 10752
  140.5279  134.0495  155.7864 H   0  0  0  0  0  0  0  0  0  0  0  0  # atno 11005 bound_to 11000
  144.7732  139.6687  143.7186 LP  0  0  0  0  0  0  0  0  0  0  0  0  # atno 17320 bound_to 7965
  146.2172  139.5571  142.9642 LP  0  0  0  0  0  0  0  0  0  0  0  0  # atno 17321 bound_to 7965
  140.1548  144.5081  150.6666 LP  0  0  0  0  0  0  0  0  0  0  0  0  # atno 17342 bound_to 10162
  140.6803  143.2324  151.5401 LP  0  0  0  0  0  0  0  0  0  0  0  0  # atno 17343 bound_to 10162
  156.7763  130.9205  151.3645 LP  0  0  0  0  0  0  0  0  0  0  0  0  # atno 17370 bound_to 10713
  157.6674  130.9020  149.9962 LP  0  0  0  0  0  0  0  0  0  0  0  0  # atno 17371 bound_to 10713
  141.1297  133.9322  157.2560 LP  0  0  0  0  0  0  0  0  0  0  0  0  # atno 17394 bound_to 11000
  139.9570  135.0163  156.9155 LP  0  0  0  0  0  0  0  0  0  0  0  0  # atno 17395 bound_to 11000

$$$$
