AV-unprocessed.smi:1779|AV-procd|sdf|7181|dock8
  -GOLD-   22720 8423D 1   1.00000     0.00000
 Structure written by MMmdl.
 47 48  0  0  0  0  0  0  0  0  2 V2000
  150.8984  142.3444  156.3927 C   0  0  0  0  0  0  0  0  0  0  0  0
  150.6053  141.1005  155.6067 C   0  0  0  0  0  0  0  0  0  0  0  0
  149.3921  140.7415  154.9503 C   0  0  0  0  0  0  0  0  0  0  0  0
  149.6946  139.5242  154.4039 C   0  0  0  0  0  0  0  0  0  0  0  0
  148.9119  138.7082  153.6492 N   0  0  0  0  0  0  0  0  0  0  0  0
  147.5821  138.7619  153.4601 C   0  0  0  0  0  0  0  0  0  0  0  0
  146.8203  139.5850  153.9677 O   0  0  0  0  0  0  0  0  0  0  0  0
  147.1687  137.7788  152.6477 N   0  0  0  0  0  0  0  0  0  0  0  0
  145.7880  137.5479  152.2340 C   0  0  0  0  0  0  0  0  0  0  0  0
  145.6262  136.2155  151.4759 C   0  0  2  0  0  0  0  0  0  0  0  0
  145.6122  136.5064  150.0927 O   0  0  0  0  0  0  0  0  0  0  0  0
  144.3322  135.4525  151.8338 C   0  0  0  0  0  0  0  0  0  0  0  0
  144.4874  133.9807  151.7052 N   0  3  0  0  0  0  0  0  0  0  0  0
  145.8278  133.5131  152.1455 C   0  0  0  0  0  0  0  0  0  0  0  0
  145.9123  131.9772  152.1373 C   0  0  0  0  0  0  0  0  0  0  0  0
  145.5656  131.4140  150.7529 C   0  0  0  0  0  0  0  0  0  0  0  0
  144.1942  131.9354  150.3051 C   0  0  0  0  0  0  0  0  0  0  0  0
  144.1487  133.4719  150.3486 C   0  0  0  0  0  0  0  0  0  0  0  0
  150.9961  139.2050  154.7206 N   0  0  0  0  0  0  0  0  0  0  0  0
  151.7690  138.0303  154.3674 C   0  0  0  0  0  0  0  0  0  0  0  0
  151.5545  140.1818  155.4671 N   0  0  0  0  0  0  0  0  0  0  0  0
  150.0563  143.0361  156.3650 H   0  0  0  0  0  0  0  0  0  0  0  0
  151.7685  142.8661  155.9931 H   0  0  0  0  0  0  0  0  0  0  0  0
  151.1002  142.1092  157.4381 H   0  0  0  0  0  0  0  0  0  0  0  0
  148.4696  141.3000  154.8981 H   0  0  0  0  0  0  0  0  0  0  0  0
  149.3987  137.9554  153.1851 H   0  0  0  0  0  0  0  0  0  0  0  0
  147.8638  137.1489  152.2740 H   0  0  0  0  0  0  0  0  0  0  0  0
  145.1022  137.6017  153.0815 H   0  0  0  0  0  0  0  0  0  0  0  0
  145.5200  138.3761  151.5765 H   0  0  0  0  0  0  0  0  0  0  0  0
  146.5037  135.5992  151.6699 H   0  0  0  0  0  0  0  0  0  0  0  0
  144.9781  137.1890  149.9322 H   0  0  0  0  0  0  0  0  0  0  0  0
  144.0098  135.6785  152.8502 H   0  0  0  0  0  0  0  0  0  0  0  0
  143.5330  135.8036  151.1789 H   0  0  0  0  0  0  0  0  0  0  0  0
  146.5949  133.9372  151.4952 H   0  0  0  0  0  0  0  0  0  0  0  0
  146.0314  133.8743  153.1545 H   0  0  0  0  0  0  0  0  0  0  0  0
  146.9129  131.6571  152.4296 H   0  0  0  0  0  0  0  0  0  0  0  0
  145.2268  131.5685  152.8810 H   0  0  0  0  0  0  0  0  0  0  0  0
  146.3280  131.7114  150.0317 H   0  0  0  0  0  0  0  0  0  0  0  0
  145.5659  130.3238  150.7771 H   0  0  0  0  0  0  0  0  0  0  0  0
  143.9729  131.5839  149.2968 H   0  0  0  0  0  0  0  0  0  0  0  0
  143.4166  131.5278  150.9527 H   0  0  0  0  0  0  0  0  0  0  0  0
  143.1534  133.8031  150.0549 H   0  0  0  0  0  0  0  0  0  0  0  0
  144.8454  133.8871  149.6184 H   0  0  0  0  0  0  0  0  0  0  0  0
  151.2122  137.1304  154.6307 H   0  0  0  0  0  0  0  0  0  0  0  0
  152.7215  138.0229  154.8996 H   0  0  0  0  0  0  0  0  0  0  0  0
  151.9621  138.0303  153.2943 H   0  0  0  0  0  0  0  0  0  0  0  0
  143.8235  133.5724  152.3481 H   0  0  0  0  0  0  0  0  0  0  0  0
  1  2  1  0  0  0  0
  1 22  1  0  0  0  0
  1 23  1  0  0  0  0
  1 24  1  0  0  0  0
  2 21  2  0  0  0  0
  2  3  1  0  0  0  0
  3  4  2  0  0  0  0
  3 25  1  0  0  0  0
  4  5  1  0  0  0  0
  4 19  1  0  0  0  0
  5  6  1  0  0  0  0
  5 26  1  0  0  0  0
  6  7  2  0  0  0  0
  6  8  1  0  0  0  0
  8  9  1  0  0  0  0
  8 27  1  0  0  0  0
  9 10  1  0  0  0  0
  9 28  1  0  0  0  0
  9 29  1  0  0  0  0
 10 11  1  0  0  0  0
 10 12  1  0  0  0  0
 10 30  1  0  0  0  0
 11 31  1  0  0  0  0
 12 13  1  0  0  0  0
 12 32  1  0  0  0  0
 12 33  1  0  0  0  0
 13 18  1  0  0  0  0
 13 14  1  0  0  0  0
 13 47  1  0  0  0  0
 14 15  1  0  0  0  0
 14 34  1  0  0  0  0
 14 35  1  0  0  0  0
 15 16  1  0  0  0  0
 15 36  1  0  0  0  0
 15 37  1  0  0  0  0
 16 17  1  0  0  0  0
 16 38  1  0  0  0  0
 16 39  1  0  0  0  0
 17 18  1  0  0  0  0
 17 40  1  0  0  0  0
 17 41  1  0  0  0  0
 18 42  1  0  0  0  0
 18 43  1  0  0  0  0
 19 20  1  0  0  0  0
 19 21  1  0  0  0  0
 20 44  1  0  0  0  0
 20 45  1  0  0  0  0
 20 46  1  0  0  0  0
M  CHG  1  13   1
M  END
> <s_m_source_file>
AV-unprocessed.smi

> <i_m_source_file_index>
1779

> <i_lp_mmshare_version>
43012

> <i_f3d_flags>
0

> <s_epik_input>
W0NIM11jMVtjSF1jKG4objEpW0NIM10pW05IXUMoPU8pW05IXVtDSDJdW0NASF0oW09IXSlbQ0gyXU4yW0NIMl1bQ0gyXVtDSDJdW0NIMl1bQ0gyXTI=

> <s_epik_cmdline>
J2VwaWtfcHl0aG9uJywgJy1waCcsICc3LjAnLCAnLXRuJywgJzgnLCAnLW1hJywgJzIwMCcsICctbWV0YWxfYmluZGluZycsICctaW1hZScsICc8aW5maWxlLm1hZT4nLCAnLW9tYWUnLCAnPG91dGZpbGUubWFlPic=

> <r_lp_tautomer_probability>
1

> <r_epik_Ionization_Penalty>
0.00528203

> <r_epik_Ionization_Penalty_Charging>
0.00519125

> <r_epik_Ionization_Penalty_Neutral>
9.07781e-05

> <r_epik_State_Penalty>
0.0037836

> <r_epik_Charging_Adjusted_Penalty>
0.00897485

> <i_epik_Tot_Q>
1

> <i_epik_Tot_abs_Q>
1

> <r_epik_Metal_State_Penalty>
-0

> <b_epik_Metal_Only>
0

> <s_lp_Force_Field>
OPLS_2005

> <r_lp_Energy>
18.32

> <b_lp_Chiralities_Consistent>
1

> <s_lp_Variant>
AV-unprocessed.smi:1779-1

> <Gold.Version>
5.8.1

> <Gold.Id.Protein>
6NUR|6NUR_protein|mol2

> <Gold.PLP.Fitness>
49.4141

> <Gold.PLP.PLP>
-44.4441

> <Gold.PLP.part.hbond>
-5.9012

> <Gold.PLP.part.metal>
0.0000

> <Gold.PLP.part.buried>
-5.6262

> <Gold.PLP.part.nonpolar>
-35.4988

> <Gold.PLP.part.repulsive>
0.2793

> <Gold.PLP.ligand.clash>
0.0000

> <Gold.PLP.ligand.torsion>
1.3005

> <Gold.PLP.Chemscore.Hbond>
2.5076

> <Gold.PLP.Chemscore.CHOScore>
0.0000

> <Gold.PLP.Chemscore.Metal>
0.0000

> <Gold.Chemscore.Hbonds>
donor molecule, donor type, donor heavy atom, donor atom, acceptor molecule, acceptor atom, score
      L1  H     5    26       P1  7948  0.49
      L1  H     8    27       P1  7948  0.84
      L1  H    11    31       P1 10171  1.00

> <Gold.PLP.Chemscore.Internal.Correction>
0.0481

> <Gold.Rescore>
     Score         DG    S(hbond)    S(metal)    S(lipo)     H(rot)  DE(clash)    DE(int)     intcor
     16.66     -18.99       2.54        0.00      94.67       2.36       0.42       1.91       ----

> <Gold.Chemscore.Fitness>
16.6600

> <Gold.Chemscore.DG>
-18.9948

> <Gold.Chemscore.ZeroCoef>
-5.4800

> <Gold.Chemscore.Hbond>
2.5365

> <Gold.Chemscore.Metal>
0.0000

> <Gold.Chemscore.Lipo>
94.6706

> <Gold.Chemscore.Internal_Hbond>
0.0000

> <Gold.Chemscore.DEClash>
0.4198

> <Gold.Chemscore.DEInternal>
1.9150

> <Gold.Chemscore.Rot>
2.3569

> <Gold.Chemscore.Internal.Correction>
   9.000000E+99

> <Gold.Chemscore.Hbonds>
donor molecule, donor type, donor heavy atom, donor atom, acceptor molecule, acceptor atom, score
      L1  H     5    26       P1  7948  0.45
      L1  H     8    27       P1  7948  0.82
      L1  H    11    31       P1 10171  1.00

> <Gold.Chemscore.Hbond.Weighted>
-8.4720

> <Gold.Chemscore.Metal.Weighted>
-0.0000

> <Gold.Chemscore.Lipo.Weighted>
-11.0765

> <Gold.Chemscore.Internal_Hbond.Weighted>
0.0000

> <Gold.Chemscore.DEClash.Weighted>
0.4198

> <Gold.Chemscore.DEInternal.Weighted>
1.9150

> <Gold.Chemscore.Rot.Weighted>
6.0337

> <Gold.Chemscore.Internal.Correction.Weighted>
   9.000000E+99

> <Gold.Protein.RotatedTorsions>
[ 6907 6896 6895 6894 ] final -135.83 input  -60.11 | X-H torsion
[ 7974 7965 7964 7962 ] final   86.22 input  175.53 | X-H torsion
[ 8008 7997 7996 7995 ] final -154.85 input   59.86 | X-H torsion
[ 10167 10162 10161 10158 ] final  -12.38 input  -65.29 | X-H torsion
[ 10718 10713 10712 10709 ] final  -76.95 input   66.30 | X-H torsion
[ 10763 10752 10751 10750 ] final -169.00 input  -60.55 | X-H torsion
[ 11005 11000 10999 10996 ] final -115.60 input  -57.11 | X-H torsion

> <Gold.Protein.ActiveResidues>
 VAL166  LYS551  ARG553  GLY616  TRP617  ASP618  TYR619  PRO620  LYS621  CYS622 
 ASP623  PHE694  ASN695  SER759  ASP760  ASP761  ALA762  ILE779  LEU786  VAL792 
 PHE793  MET794  SER795  GLU796  ALA797  LYS798  CYS799  TRP800  GLU811  SER814 

> <Gold.Protein.RotatedAtoms>
  151.0027  133.6041  159.2692 H   0  0  0  0  0  0  0  0  0  0  0  0  # atno 6907 bound_to 6896
  151.3221  135.0820  159.9319 H   0  0  0  0  0  0  0  0  0  0  0  0  # atno 6908 bound_to 6896
  152.5278  133.9672  159.7799 H   0  0  0  0  0  0  0  0  0  0  0  0  # atno 6909 bound_to 6896
  145.5752  139.2318  143.2384 H   0  0  0  0  0  0  0  0  0  0  0  0  # atno 7974 bound_to 7965
  155.6928  140.0757  157.2441 H   0  0  0  0  0  0  0  0  0  0  0  0  # atno 8008 bound_to 7997
  154.4086  140.1661  156.2158 H   0  0  0  0  0  0  0  0  0  0  0  0  # atno 8009 bound_to 7997
  155.9436  140.3382  155.6351 H   0  0  0  0  0  0  0  0  0  0  0  0  # atno 8010 bound_to 7997
  140.7160  143.5539  150.9270 H   0  0  0  0  0  0  0  0  0  0  0  0  # atno 10167 bound_to 10162
  156.0159  130.4479  150.3271 H   0  0  0  0  0  0  0  0  0  0  0  0  # atno 10718 bound_to 10713
  154.6569  135.2919  154.9916 H   0  0  0  0  0  0  0  0  0  0  0  0  # atno 10763 bound_to 10752
  154.0989  135.6579  153.4869 H   0  0  0  0  0  0  0  0  0  0  0  0  # atno 10764 bound_to 10752
  153.0407  135.5238  154.7502 H   0  0  0  0  0  0  0  0  0  0  0  0  # atno 10765 bound_to 10752
  141.0477  133.9737  157.2890 H   0  0  0  0  0  0  0  0  0  0  0  0  # atno 11005 bound_to 11000
  146.1756  140.6578  142.9213 LP  0  0  0  0  0  0  0  0  0  0  0  0  # atno 17320 bound_to 7965
  144.7419  140.4966  143.6863 LP  0  0  0  0  0  0  0  0  0  0  0  0  # atno 17321 bound_to 7965
  139.9264  143.6545  152.3086 LP  0  0  0  0  0  0  0  0  0  0  0  0  # atno 17342 bound_to 10162
  139.6980  144.7639  151.1322 LP  0  0  0  0  0  0  0  0  0  0  0  0  # atno 17343 bound_to 10162
  157.1370  131.0286  151.2944 LP  0  0  0  0  0  0  0  0  0  0  0  0  # atno 17370 bound_to 10713
  157.4503  130.7594  149.7145 LP  0  0  0  0  0  0  0  0  0  0  0  0  # atno 17371 bound_to 10713
  139.9325  135.0199  156.8447 LP  0  0  0  0  0  0  0  0  0  0  0  0  # atno 17394 bound_to 11000
  140.6115  134.0078  155.7579 LP  0  0  0  0  0  0  0  0  0  0  0  0  # atno 17395 bound_to 11000

$$$$
