AV-unprocessed.smi:3327|AV-procd|sdf|12787|dock1
  -GOLD-   2272019133D 1   1.00000     0.00000
 Structure written by MMmdl.
 41 42  0  0  0  0  0  0  0  0  2 V2000
  151.7794  145.8468  160.0944 C   0  0  0  0  0  0  0  0  0  0  0  0
  151.8483  144.3137  160.1211 C   0  0  2  0  0  0  0  0  0  0  0  0
  152.5229  143.7990  161.4116 C   0  0  0  0  0  0  0  0  0  0  0  0
  152.7119  142.2701  161.3948 C   0  0  0  0  0  0  0  0  0  0  0  0
  153.3957  141.8172  160.0930 C   0  0  0  0  0  0  0  0  0  0  0  0
  152.5947  142.2881  158.9554 N   0  0  0  0  0  0  0  0  0  0  0  0
  151.8546  141.5030  158.1352 C   0  0  0  0  0  0  0  0  0  0  0  0
  151.8281  140.2758  158.2459 O   0  0  0  0  0  0  0  0  0  0  0  0
  151.0205  142.1621  157.0256 C   0  0  0  0  0  0  0  0  0  0  0  0
  149.5794  142.1972  157.3488 N   0  3  0  0  0  0  0  0  0  0  0  0
  148.7789  141.1654  156.6600 C   0  0  0  0  0  0  0  0  0  0  0  0
  149.0501  141.1607  155.1457 C   0  0  0  0  0  0  0  0  0  0  0  0
  148.1771  140.2556  154.4171 N   0  0  0  0  0  0  0  0  0  0  0  0
  147.1017  140.5675  153.6116 C   0  0  0  0  0  0  0  0  0  0  0  0
  146.6033  139.3929  153.1253 C   0  0  0  0  0  0  0  0  0  0  0  0
  147.4589  138.4040  153.6860 C   0  0  0  0  0  0  0  0  0  0  0  0
  148.4025  138.9241  154.4545 N   0  0  0  0  0  0  0  0  0  0  0  0
  152.5758  143.7550  158.8794 C   0  0  0  0  0  0  0  0  0  0  0  0
  152.7760  146.2890  160.1066 H   0  0  0  0  0  0  0  0  0  0  0  0
  151.2341  146.2299  160.9575 H   0  0  0  0  0  0  0  0  0  0  0  0
  151.2690  146.2014  159.1984 H   0  0  0  0  0  0  0  0  0  0  0  0
  150.8235  143.9390  160.1054 H   0  0  0  0  0  0  0  0  0  0  0  0
  153.4993  144.2731  161.5216 H   0  0  0  0  0  0  0  0  0  0  0  0
  151.9401  144.0915  162.2857 H   0  0  0  0  0  0  0  0  0  0  0  0
  153.3011  141.9584  162.2576 H   0  0  0  0  0  0  0  0  0  0  0  0
  151.7420  141.7797  161.4877 H   0  0  0  0  0  0  0  0  0  0  0  0
  154.3957  142.2489  160.0296 H   0  0  0  0  0  0  0  0  0  0  0  0
  153.5484  140.7393  160.1091 H   0  0  0  0  0  0  0  0  0  0  0  0
  151.3736  143.1822  156.8688 H   0  0  0  0  0  0  0  0  0  0  0  0
  151.1544  141.6091  156.0948 H   0  0  0  0  0  0  0  0  0  0  0  0
  149.4769  142.0693  158.3458 H   0  0  0  0  0  0  0  0  0  0  0  0
  149.0257  140.1888  157.0780 H   0  0  0  0  0  0  0  0  0  0  0  0
  147.7190  141.3332  156.8565 H   0  0  0  0  0  0  0  0  0  0  0  0
  148.9311  142.1659  154.7386 H   0  0  0  0  0  0  0  0  0  0  0  0
  150.0822  140.8651  154.9527 H   0  0  0  0  0  0  0  0  0  0  0  0
  146.7820  141.5872  153.4532 H   0  0  0  0  0  0  0  0  0  0  0  0
  145.7593  139.2601  152.4645 H   0  0  0  0  0  0  0  0  0  0  0  0
  147.4244  137.3323  153.5563 H   0  0  0  0  0  0  0  0  0  0  0  0
  152.0972  144.1214  157.9702 H   0  0  0  0  0  0  0  0  0  0  0  0
  153.6009  144.1270  158.8417 H   0  0  0  0  0  0  0  0  0  0  0  0
  149.2186  143.1083  157.1040 H   0  0  0  0  0  0  0  0  0  0  0  0
  1  2  1  0  0  0  0
  1 19  1  0  0  0  0
  1 20  1  0  0  0  0
  1 21  1  0  0  0  0
  2 18  1  0  0  0  0
  2  3  1  0  0  0  0
  2 22  1  0  0  0  0
  3  4  1  0  0  0  0
  3 23  1  0  0  0  0
  3 24  1  0  0  0  0
  4  5  1  0  0  0  0
  4 25  1  0  0  0  0
  4 26  1  0  0  0  0
  5  6  1  0  0  0  0
  5 27  1  0  0  0  0
  5 28  1  0  0  0  0
  6  7  1  0  0  0  0
  6 18  1  0  0  0  0
  7  8  2  0  0  0  0
  7  9  1  0  0  0  0
  9 10  1  0  0  0  0
  9 29  1  0  0  0  0
  9 30  1  0  0  0  0
 10 11  1  0  0  0  0
 10 31  1  0  0  0  0
 10 41  1  0  0  0  0
 11 12  1  0  0  0  0
 11 32  1  0  0  0  0
 11 33  1  0  0  0  0
 12 13  1  0  0  0  0
 12 34  1  0  0  0  0
 12 35  1  0  0  0  0
 13 17  1  0  0  0  0
 13 14  1  0  0  0  0
 14 15  2  0  0  0  0
 14 36  1  0  0  0  0
 15 16  1  0  0  0  0
 15 37  1  0  0  0  0
 16 17  2  0  0  0  0
 16 38  1  0  0  0  0
 18 39  1  0  0  0  0
 18 40  1  0  0  0  0
M  CHG  1  10   1
M  END
> <s_m_source_file>
AV-unprocessed.smi

> <i_m_source_file_index>
3327

> <i_lp_mmshare_version>
43012

> <i_f3d_flags>
0

> <s_epik_input>
W0NIM11bQ0BASF0xW0NIMl1bQ0gyXVtDSDJdTihbQ0gyXTEpQyg9TylbQ0gyXVtOSF1bQ0gyXVtDSDJdbjJbY0hdW2NIXVtjSF1uMg==

> <s_epik_cmdline>
J2VwaWtfcHl0aG9uJywgJy1waCcsICc3LjAnLCAnLXRuJywgJzgnLCAnLW1hJywgJzIwMCcsICctbWV0YWxfYmluZGluZycsICctaW1hZScsICc8aW5maWxlLm1hZT4nLCAnLW9tYWUnLCAnPG91dGZpbGUubWFlPic=

> <r_lp_tautomer_probability>
1

> <r_epik_Ionization_Penalty>
0.195801

> <r_epik_Ionization_Penalty_Charging>
0.195799

> <r_epik_Ionization_Penalty_Neutral>
2.33113e-06

> <r_epik_State_Penalty>
0.185548

> <r_epik_Charging_Adjusted_Penalty>
0.381347

> <i_epik_Tot_Q>
1

> <i_epik_Tot_abs_Q>
1

> <r_epik_Metal_State_Penalty>
0.186014

> <b_epik_Metal_Only>
0

> <s_lp_Force_Field>
OPLS_2005

> <r_lp_Energy>
21.5547

> <b_lp_Chiralities_Consistent>
1

> <s_lp_Variant>
AV-unprocessed.smi:3327-1

> <Gold.Version>
5.8.1

> <Gold.Id.Protein>
6NUR|6NUR_protein|mol2

> <Gold.PLP.Fitness>
51.8033

> <Gold.PLP.PLP>
-44.1956

> <Gold.PLP.part.hbond>
-1.0000

> <Gold.PLP.part.metal>
0.0000

> <Gold.PLP.part.buried>
-1.9611

> <Gold.PLP.part.nonpolar>
-39.8994

> <Gold.PLP.part.repulsive>
0.1707

> <Gold.PLP.ligand.clash>
0.0000

> <Gold.PLP.ligand.torsion>
0.7258

> <Gold.PLP.Chemscore.Hbond>
2.0000

> <Gold.PLP.Chemscore.CHOScore>
0.9912

> <Gold.PLP.Chemscore.Metal>
0.0000

> <Gold.Chemscore.Hbonds>
donor molecule, donor type, donor heavy atom, donor atom, acceptor molecule, acceptor atom, score
      L1  H    10    41       P1  8028  1.24
      L1  C    16    38       P1  7948  0.78

> <Gold.PLP.Chemscore.Internal.Correction>
0.0859

> <Gold.Rescore>
     Score         DG    S(hbond)    S(metal)    S(lipo)     H(rot)  DE(clash)    DE(int)     intcor
     16.84     -17.58       0.96        0.00     115.20       1.80       0.13       0.61       ----

> <Gold.Chemscore.Fitness>
16.8395

> <Gold.Chemscore.DG>
-17.5762

> <Gold.Chemscore.ZeroCoef>
-5.4800

> <Gold.Chemscore.Hbond>
0.9628

> <Gold.Chemscore.Metal>
0.0000

> <Gold.Chemscore.Lipo>
115.2036

> <Gold.Chemscore.Internal_Hbond>
0.0000

> <Gold.Chemscore.DEClash>
0.1311

> <Gold.Chemscore.DEInternal>
0.6056

> <Gold.Chemscore.Rot>
1.7963

> <Gold.Chemscore.Internal.Correction>
   9.000000E+99

> <Gold.Chemscore.Hbonds>
donor molecule, donor type, donor heavy atom, donor atom, acceptor molecule, acceptor atom, score
      L1  H    10    41       P1  8028  0.55

> <Gold.Chemscore.Hbond.Weighted>
-3.2158

> <Gold.Chemscore.Metal.Weighted>
-0.0000

> <Gold.Chemscore.Lipo.Weighted>
-13.4788

> <Gold.Chemscore.Internal_Hbond.Weighted>
0.0000

> <Gold.Chemscore.DEClash.Weighted>
0.1311

> <Gold.Chemscore.DEInternal.Weighted>
0.6056

> <Gold.Chemscore.Rot.Weighted>
4.5985

> <Gold.Chemscore.Internal.Correction.Weighted>
   9.000000E+99

> <Gold.Protein.RotatedTorsions>
[ 6907 6896 6895 6894 ] final  -57.37 input  -60.11 | X-H torsion
[ 7974 7965 7964 7962 ] final -105.90 input  175.53 | X-H torsion
[ 8008 7997 7996 7995 ] final  154.02 input   59.86 | X-H torsion
[ 10167 10162 10161 10158 ] final  169.56 input  -65.29 | X-H torsion
[ 10718 10713 10712 10709 ] final   81.17 input   66.30 | X-H torsion
[ 10763 10752 10751 10750 ] final   37.93 input  -60.55 | X-H torsion
[ 11005 11000 10999 10996 ] final  -89.87 input  -57.11 | X-H torsion

> <Gold.Protein.ActiveResidues>
 VAL166  LYS551  ARG553  GLY616  TRP617  ASP618  TYR619  PRO620  LYS621  CYS622 
 ASP623  PHE694  ASN695  SER759  ASP760  ASP761  ALA762  ILE779  LEU786  VAL792 
 PHE793  MET794  SER795  GLU796  ALA797  LYS798  CYS799  TRP800  GLU811  SER814 

> <Gold.Protein.RotatedAtoms>
  150.8091  134.7235  159.6671 H   0  0  0  0  0  0  0  0  0  0  0  0  # atno 6907 bound_to 6896
  152.4211  134.5950  159.9994 H   0  0  0  0  0  0  0  0  0  0  0  0  # atno 6908 bound_to 6896
  151.6165  133.3305  159.3114 H   0  0  0  0  0  0  0  0  0  0  0  0  # atno 6909 bound_to 6896
  145.2246  140.9147  143.3239 H   0  0  0  0  0  0  0  0  0  0  0  0  # atno 7974 bound_to 7965
  156.2552  140.1978  156.6581 H   0  0  0  0  0  0  0  0  0  0  0  0  # atno 8008 bound_to 7997
  154.6485  140.0575  156.9954 H   0  0  0  0  0  0  0  0  0  0  0  0  # atno 8009 bound_to 7997
  155.1454  140.3246  155.4445 H   0  0  0  0  0  0  0  0  0  0  0  0  # atno 8010 bound_to 7997
  139.4995  144.3692  151.9742 H   0  0  0  0  0  0  0  0  0  0  0  0  # atno 10167 bound_to 10162
  157.6826  130.9992  150.2188 H   0  0  0  0  0  0  0  0  0  0  0  0  # atno 10718 bound_to 10713
  153.0019  135.6264  154.2224 H   0  0  0  0  0  0  0  0  0  0  0  0  # atno 10763 bound_to 10752
  154.1966  135.2806  155.3006 H   0  0  0  0  0  0  0  0  0  0  0  0  # atno 10764 bound_to 10752
  154.5717  135.5674  153.7160 H   0  0  0  0  0  0  0  0  0  0  0  0  # atno 10765 bound_to 10752
  141.1576  133.7657  156.9656 H   0  0  0  0  0  0  0  0  0  0  0  0  # atno 11005 bound_to 11000
  144.9733  139.3858  143.6298 LP  0  0  0  0  0  0  0  0  0  0  0  0  # atno 17320 bound_to 7965
  146.3368  139.8840  142.8819 LP  0  0  0  0  0  0  0  0  0  0  0  0  # atno 17321 bound_to 7965
  140.3128  144.3518  150.6029 LP  0  0  0  0  0  0  0  0  0  0  0  0  # atno 17342 bound_to 10162
  140.5785  143.2174  151.7472 LP  0  0  0  0  0  0  0  0  0  0  0  0  # atno 17343 bound_to 10162
  156.2844  130.3737  149.7904 LP  0  0  0  0  0  0  0  0  0  0  0  0  # atno 17370 bound_to 10713
  156.5582  130.8372  151.3321 LP  0  0  0  0  0  0  0  0  0  0  0  0  # atno 17371 bound_to 10713
  140.1163  134.9445  157.2139 LP  0  0  0  0  0  0  0  0  0  0  0  0  # atno 17394 bound_to 11000
  140.3129  134.3004  155.7263 LP  0  0  0  0  0  0  0  0  0  0  0  0  # atno 17395 bound_to 11000

$$$$
