AV-unprocessed.smi:21|AV-procd|sdf|128|dock5
  -GOLD-   2262015313D 1   1.00000     0.00000
 Structure written by MMmdl.
 62 65  0  0  0  0  0  0  0  0  2 V2000
  145.4263  133.9735  150.4809 C   0  0  0  0  0  0  0  0  0  0  0  0
  145.4038  132.5548  150.4777 O   0  0  0  0  0  0  0  0  0  0  0  0
  145.4204  131.9838  151.7773 C   0  0  2  0  0  0  0  0  0  0  0  0
  146.7410  132.1935  152.5094 C   0  0  0  0  0  0  0  0  0  0  0  0
  146.7743  131.0593  153.5459 C   0  0  2  0  0  0  0  0  0  0  0  0
  148.2028  130.6598  154.0023 C   0  0  0  0  0  0  0  0  0  0  0  0
  148.3306  130.4921  155.4514 N   0  0  0  0  0  0  0  0  0  0  0  0
  147.5442  129.4330  156.0780 C   0  0  0  0  0  0  0  0  0  0  0  0
  148.6512  131.5810  156.2030 C   0  0  0  0  0  0  0  0  0  0  0  0
  148.8254  131.4274  157.5434 N   0  0  0  0  0  0  0  0  0  0  0  0
  149.0843  132.4810  158.3221 C   0  0  0  0  0  0  0  0  0  0  0  0
  149.2039  133.7625  157.9754 N   0  0  0  0  0  0  0  0  0  0  0  0
  149.0494  133.9266  156.6314 C   0  0  0  0  0  0  0  0  0  0  0  0
  148.7869  132.9006  155.6785 C   0  0  0  0  0  0  0  0  0  0  0  0
  148.7225  133.4548  154.4045 N   0  0  0  0  0  0  0  0  0  0  0  0
  148.9125  134.7312  154.5948 C   0  0  0  0  0  0  0  0  0  0  0  0
  149.0841  135.1054  155.9076 N   0  0  0  0  0  0  0  0  0  0  0  0
  149.2933  136.4530  156.4049 C   0  0  0  0  0  0  0  0  0  0  0  0
  149.3851  137.5471  155.3035 C   0  0  1  0  0  0  0  0  0  0  0  0
  147.9587  137.8755  154.7983 C   0  0  0  0  0  0  0  0  0  0  0  0
  147.9778  138.3589  153.4707 O   0  0  0  0  0  0  0  0  0  0  0  0
  150.1363  138.8319  155.7704 C   0  0  2  0  0  0  0  0  0  0  0  0
  149.4871  140.1450  155.3567 C   0  0  0  0  0  0  0  0  0  0  0  0
  150.6231  141.1425  155.5289 C   0  0  0  0  0  0  0  0  0  0  0  0
  151.7822  140.4385  155.1138 O   0  0  0  0  0  0  0  0  0  0  0  0
  151.5468  139.0362  155.1888 C   0  0  0  0  0  0  0  0  0  0  0  0
  145.9526  129.9597  152.9551 N   0  3  2  0  0  0  0  0  0  0  0  0
  146.5832  128.6272  152.8030 C   0  0  0  0  0  0  0  0  0  0  0  0
  145.3501  130.4617  151.6990 C   0  0  0  0  0  0  0  0  0  0  0  0
  144.5882  132.3540  152.3792 H   0  0  0  0  0  0  0  0  0  0  0  0
  146.2140  131.3900  154.4214 H   0  0  0  0  0  0  0  0  0  0  0  0
  145.3697  134.3399  149.4560 H   0  0  0  0  0  0  0  0  0  0  0  0
  146.3470  134.3593  150.9198 H   0  0  0  0  0  0  0  0  0  0  0  0
  144.5775  134.3816  151.0308 H   0  0  0  0  0  0  0  0  0  0  0  0
  147.5675  132.0828  151.8056 H   0  0  0  0  0  0  0  0  0  0  0  0
  146.8153  133.1818  152.9636 H   0  0  0  0  0  0  0  0  0  0  0  0
  148.4697  129.7002  153.5595 H   0  0  0  0  0  0  0  0  0  0  0  0
  148.9334  131.3679  153.6195 H   0  0  0  0  0  0  0  0  0  0  0  0
  147.9806  129.1389  157.0336 H   0  0  0  0  0  0  0  0  0  0  0  0
  147.5150  128.5483  155.4417 H   0  0  0  0  0  0  0  0  0  0  0  0
  146.5181  129.7596  156.2507 H   0  0  0  0  0  0  0  0  0  0  0  0
  149.2043  132.2681  159.3742 H   0  0  0  0  0  0  0  0  0  0  0  0
  148.9115  135.4410  153.7802 H   0  0  0  0  0  0  0  0  0  0  0  0
  148.4721  136.6661  157.0898 H   0  0  0  0  0  0  0  0  0  0  0  0
  150.2015  136.4607  157.0090 H   0  0  0  0  0  0  0  0  0  0  0  0
  149.9337  137.1380  154.4542 H   0  0  0  0  0  0  0  0  0  0  0  0
  147.3161  136.9963  154.8531 H   0  0  0  0  0  0  0  0  0  0  0  0
  147.4902  138.6533  155.3996 H   0  0  0  0  0  0  0  0  0  0  0  0
  148.2755  137.6656  152.9016 H   0  0  0  0  0  0  0  0  0  0  0  0
  150.2080  138.8256  156.8594 H   0  0  0  0  0  0  0  0  0  0  0  0
  149.1796  140.1079  154.3104 H   0  0  0  0  0  0  0  0  0  0  0  0
  148.6194  140.4078  155.9623 H   0  0  0  0  0  0  0  0  0  0  0  0
  150.4770  142.0533  154.9481 H   0  0  0  0  0  0  0  0  0  0  0  0
  150.7334  141.4191  156.5782 H   0  0  0  0  0  0  0  0  0  0  0  0
  152.3186  138.5714  155.7998 H   0  0  0  0  0  0  0  0  0  0  0  0
  151.6224  138.6296  154.1798 H   0  0  0  0  0  0  0  0  0  0  0  0
  147.4542  128.6681  152.1476 H   0  0  0  0  0  0  0  0  0  0  0  0
  145.8707  127.9258  152.3677 H   0  0  0  0  0  0  0  0  0  0  0  0
  146.8848  128.2202  153.7680 H   0  0  0  0  0  0  0  0  0  0  0  0
  144.3318  130.0957  151.5657 H   0  0  0  0  0  0  0  0  0  0  0  0
  145.9416  130.1171  150.8485 H   0  0  0  0  0  0  0  0  0  0  0  0
  145.1847  129.8312  153.5987 H   0  0  0  0  0  0  0  0  0  0  0  0
  1  2  1  0  0  0  0
  1 32  1  0  0  0  0
  1 33  1  0  0  0  0
  1 34  1  0  0  0  0
  2  3  1  0  0  0  0
  3 30  1  0  0  0  0
  3 29  1  0  0  0  0
  3  4  1  0  0  0  0
  4  5  1  0  0  0  0
  4 35  1  0  0  0  0
  4 36  1  0  0  0  0
  5 31  1  0  0  0  0
  5  6  1  0  0  0  0
  5 27  1  0  0  0  0
  6  7  1  0  0  0  0
  6 37  1  0  0  0  0
  6 38  1  0  0  0  0
  7  8  1  0  0  0  0
  7  9  1  0  0  0  0
  8 39  1  0  0  0  0
  8 40  1  0  0  0  0
  8 41  1  0  0  0  0
  9 14  1  0  0  0  0
  9 10  2  0  0  0  0
 10 11  1  0  0  0  0
 11 12  2  0  0  0  0
 11 42  1  0  0  0  0
 12 13  1  0  0  0  0
 13 17  1  0  0  0  0
 13 14  2  0  0  0  0
 14 15  1  0  0  0  0
 15 16  2  0  0  0  0
 16 17  1  0  0  0  0
 16 43  1  0  0  0  0
 17 18  1  0  0  0  0
 18 19  1  0  0  0  0
 18 44  1  0  0  0  0
 18 45  1  0  0  0  0
 19 20  1  0  0  0  0
 19 22  1  0  0  0  0
 19 46  1  0  0  0  0
 20 21  1  0  0  0  0
 20 47  1  0  0  0  0
 20 48  1  0  0  0  0
 21 49  1  0  0  0  0
 22 26  1  0  0  0  0
 22 23  1  0  0  0  0
 22 50  1  0  0  0  0
 23 24  1  0  0  0  0
 23 51  1  0  0  0  0
 23 52  1  0  0  0  0
 24 25  1  0  0  0  0
 24 53  1  0  0  0  0
 24 54  1  0  0  0  0
 25 26  1  0  0  0  0
 26 55  1  0  0  0  0
 26 56  1  0  0  0  0
 27 28  1  0  0  0  0
 27 29  1  0  0  0  0
 27 62  1  0  0  0  0
 28 57  1  0  0  0  0
 28 58  1  0  0  0  0
 28 59  1  0  0  0  0
 29 60  1  0  0  0  0
 29 61  1  0  0  0  0
M  CHG  1  27   1
M  END
> <s_m_source_file>
AV-unprocessed.smi

> <i_m_source_file_index>
21

> <i_lp_mmshare_version>
43012

> <i_f3d_flags>
0

> <s_epik_input>
W0NIM11PW0NASF0xW0NIMl1bQ0BIXShOKFtDSDNdKVtDSDJdMSlbQ0gyXU4oW0NIM10pYyhuW2NIXW4yKWMoYzIzKW5bY0hdbjNbQ0gyXVtDQEhdKFtDSDJdW09IXSlbQ0BASF00W0NIMl1bQ0gyXU9bQ0gyXTQ=

> <s_epik_cmdline>
J2VwaWtfcHl0aG9uJywgJy1waCcsICc3LjAnLCAnLXRuJywgJzgnLCAnLW1hJywgJzIwMCcsICctbWV0YWxfYmluZGluZycsICctaW1hZScsICc8aW5maWxlLm1hZT4nLCAnLW9tYWUnLCAnPG91dGZpbGUubWFlPic=

> <r_lp_tautomer_probability>
1

> <r_epik_Ionization_Penalty>
0.0157465

> <r_epik_Ionization_Penalty_Charging>
0.015354

> <r_epik_Ionization_Penalty_Neutral>
0.000392529

> <r_epik_State_Penalty>
0.0120612

> <r_epik_Charging_Adjusted_Penalty>
0.0274152

> <i_epik_Tot_Q>
1

> <i_epik_Tot_abs_Q>
1

> <r_epik_Metal_State_Penalty>
0.0121253

> <b_epik_Metal_Only>
0

> <s_lp_Force_Field>
OPLS_2005

> <r_lp_Energy>
60.6524

> <b_lp_Chiralities_Consistent>
1

> <s_lp_Variant>
AV-unprocessed.smi:21-8

> <Gold.Version>
5.8.1

> <Gold.Id.Protein>
6NUR|6NUR_protein|mol2

> <Gold.PLP.Fitness>
49.4172

> <Gold.PLP.PLP>
-39.1031

> <Gold.PLP.part.hbond>
-4.4992

> <Gold.PLP.part.metal>
0.0000

> <Gold.PLP.part.buried>
-6.4016

> <Gold.PLP.part.nonpolar>
-30.8225

> <Gold.PLP.part.repulsive>
0.2507

> <Gold.PLP.ligand.clash>
0.0000

> <Gold.PLP.ligand.torsion>
2.8214

> <Gold.PLP.Chemscore.Hbond>
4.2025

> <Gold.PLP.Chemscore.CHOScore>
0.8738

> <Gold.PLP.Chemscore.Metal>
0.0000

> <Gold.Chemscore.Hbonds>
donor molecule, donor type, donor heavy atom, donor atom, acceptor molecule, acceptor atom, score
      L1  H    21    49       P1  7948  1.00
      L1  H    27    62       P1 10956  0.91
      P1  H  6896  6908       L1    12  0.03
      P1  H  7989  7998       L1    25  0.59
      L1  C    16    43       P1  7948  1.00

> <Gold.PLP.Chemscore.Internal.Correction>
0.7281

> <Gold.Rescore>
     Score         DG    S(hbond)    S(metal)    S(lipo)     H(rot)  DE(clash)    DE(int)     intcor
     14.52     -18.86       3.62        0.00      78.40       3.08       0.12       4.22       ----

> <Gold.Chemscore.Fitness>
14.5172

> <Gold.Chemscore.DG>
-18.8576

> <Gold.Chemscore.ZeroCoef>
-5.4800

> <Gold.Chemscore.Hbond>
3.6163

> <Gold.Chemscore.Metal>
0.0000

> <Gold.Chemscore.Lipo>
78.4038

> <Gold.Chemscore.Internal_Hbond>
0.0000

> <Gold.Chemscore.DEClash>
0.1209

> <Gold.Chemscore.DEInternal>
4.2196

> <Gold.Chemscore.Rot>
3.0758

> <Gold.Chemscore.Internal.Correction>
   9.000000E+99

> <Gold.Chemscore.Hbonds>
donor molecule, donor type, donor heavy atom, donor atom, acceptor molecule, acceptor atom, score
      L1  H    21    49       P1  7948  1.00
      L1  H    27    62       P1 10956  0.14
      P1  H  7989  7998       L1    25  0.05

> <Gold.Chemscore.Hbond.Weighted>
-12.0785

> <Gold.Chemscore.Metal.Weighted>
-0.0000

> <Gold.Chemscore.Lipo.Weighted>
-9.1732

> <Gold.Chemscore.Internal_Hbond.Weighted>
0.0000

> <Gold.Chemscore.DEClash.Weighted>
0.1209

> <Gold.Chemscore.DEInternal.Weighted>
4.2196

> <Gold.Chemscore.Rot.Weighted>
7.8741

> <Gold.Chemscore.Internal.Correction.Weighted>
   9.000000E+99

> <Gold.Protein.RotatedTorsions>
[ 6907 6896 6895 6894 ] final  102.92 input  -60.11 | X-H torsion
[ 7974 7965 7964 7962 ] final  -96.66 input  175.53 | X-H torsion
[ 8008 7997 7996 7995 ] final -134.38 input   59.86 | X-H torsion
[ 10167 10162 10161 10158 ] final  125.80 input  -65.29 | X-H torsion
[ 10718 10713 10712 10709 ] final  -78.30 input   66.30 | X-H torsion
[ 10763 10752 10751 10750 ] final  151.48 input  -60.55 | X-H torsion
[ 11005 11000 10999 10996 ] final -126.37 input  -57.11 | X-H torsion

> <Gold.Protein.ActiveResidues>
 VAL166  LYS551  ARG553  GLY616  TRP617  ASP618  TYR619  PRO620  LYS621  CYS622 
 ASP623  PHE694  ASN695  SER759  ASP760  ASP761  ALA762  ILE779  LEU786  VAL792 
 PHE793  MET794  SER795  GLU796  ALA797  LYS798  CYS799  TRP800  GLU811  SER814 

> <Gold.Protein.RotatedAtoms>
  152.5310  133.9903  159.7847 H   0  0  0  0  0  0  0  0  0  0  0  0  # atno 6907 bound_to 6896
  151.0140  133.5930  159.2686 H   0  0  0  0  0  0  0  0  0  0  0  0  # atno 6908 bound_to 6896
  151.2994  135.0771  159.9286 H   0  0  0  0  0  0  0  0  0  0  0  0  # atno 6909 bound_to 6896
  145.3439  140.9465  143.2592 H   0  0  0  0  0  0  0  0  0  0  0  0  # atno 7974 bound_to 7965
  155.3611  140.0483  157.3046 H   0  0  0  0  0  0  0  0  0  0  0  0  # atno 8008 bound_to 7997
  154.5178  140.2214  155.8997 H   0  0  0  0  0  0  0  0  0  0  0  0  # atno 8009 bound_to 7997
  156.1655  140.3107  155.8888 H   0  0  0  0  0  0  0  0  0  0  0  0  # atno 8010 bound_to 7997
  139.5665  144.6914  151.3895 H   0  0  0  0  0  0  0  0  0  0  0  0  # atno 10167 bound_to 10162
  156.0121  130.4514  150.3476 H   0  0  0  0  0  0  0  0  0  0  0  0  # atno 10718 bound_to 10713
  154.1045  135.2843  155.3244 H   0  0  0  0  0  0  0  0  0  0  0  0  # atno 10763 bound_to 10752
  154.6532  135.5361  153.7930 H   0  0  0  0  0  0  0  0  0  0  0  0  # atno 10764 bound_to 10752
  153.0367  135.6515  154.1207 H   0  0  0  0  0  0  0  0  0  0  0  0  # atno 10765 bound_to 10752
  140.9686  134.0836  157.3893 H   0  0  0  0  0  0  0  0  0  0  0  0  # atno 11005 bound_to 11000
  144.8769  139.4958  143.6741 LP  0  0  0  0  0  0  0  0  0  0  0  0  # atno 17320 bound_to 7965
  146.2996  139.7385  142.9101 LP  0  0  0  0  0  0  0  0  0  0  0  0  # atno 17321 bound_to 7965
  140.6949  143.7773  150.7311 LP  0  0  0  0  0  0  0  0  0  0  0  0  # atno 17342 bound_to 10162
  140.1266  143.4563  152.2280 LP  0  0  0  0  0  0  0  0  0  0  0  0  # atno 17343 bound_to 10162
  157.1569  131.0335  151.2859 LP  0  0  0  0  0  0  0  0  0  0  0  0  # atno 17370 bound_to 10713
  157.4344  130.7509  149.7017 LP  0  0  0  0  0  0  0  0  0  0  0  0  # atno 17371 bound_to 10713
  139.8904  135.0111  156.6733 LP  0  0  0  0  0  0  0  0  0  0  0  0  # atno 17394 bound_to 11000
  140.7362  133.9017  155.8245 LP  0  0  0  0  0  0  0  0  0  0  0  0  # atno 17395 bound_to 11000

$$$$
