AV-unprocessed.smi:1268|AV-procd|sdf|5325|dock5
  -GOLD-   22720 4453D 1   1.00000     0.00000
 Structure written by MMmdl.
 39 40  0  0  0  0  0  0  0  0  3 V2000
  144.3927  136.2060  151.5621 O   0  0  0  0  0  0  0  0  0  0  0  0
  145.5893  135.9111  151.5997 C   0  0  0  0  0  0  0  0  0  0  0  0
  146.5168  136.8627  151.4353 N   0  0  0  0  0  0  0  0  0  0  0  0
  146.2434  138.2789  151.2261 C   0  0  0  0  0  0  0  0  0  0  0  0
  146.8489  139.1221  152.3606 C   0  0  2  0  0  0  0  0  0  0  0  0
  148.1534  138.6388  152.6174 O   0  0  0  0  0  0  0  0  0  0  0  0
  146.0360  138.9828  153.6631 C   0  0  0  0  0  0  0  0  0  0  0  0
  145.5834  140.2937  154.1955 N   0  3  0  0  0  0  0  0  0  0  0  0
  146.6323  141.3402  154.0834 C   0  0  0  0  0  0  0  0  0  0  0  0
  146.0900  142.7179  154.5000 C   0  0  0  0  0  0  0  0  0  0  0  0
  145.5145  142.6751  155.9212 C   0  0  0  0  0  0  0  0  0  0  0  0
  144.4597  141.5663  156.0254 C   0  0  0  0  0  0  0  0  0  0  0  0
  145.0354  140.2124  155.5762 C   0  0  0  0  0  0  0  0  0  0  0  0
  146.1081  134.6791  151.8006 N   0  5  0  0  0  0  0  0  0  0  0  0
  145.4886  133.5986  151.2977 C   0  0  0  0  0  0  0  0  0  0  0  0
  146.1282  132.4604  151.0055 N   0  0  0  0  0  0  0  0  0  0  0  0
  145.2884  131.4656  150.5012 C   0  0  0  0  0  0  0  0  0  0  0  0
  143.9772  131.8520  150.4161 C   0  0  0  0  0  0  0  0  0  0  0  0
  143.7569  133.4872  150.9698 S   0  0  0  0  0  0  0  0  0  0  0  0
  147.4844  136.5775  151.4662 H   0  0  0  0  0  0  0  0  0  0  0  0
  146.6955  138.5584  150.2735 H   0  0  0  0  0  0  0  0  0  0  0  0
  145.1718  138.4659  151.1342 H   0  0  0  0  0  0  0  0  0  0  0  0
  146.9026  140.1655  152.0499 H   0  0  0  0  0  0  0  0  0  0  0  0
  148.2135  137.7542  152.2873 H   0  0  0  0  0  0  0  0  0  0  0  0
  145.1687  138.3390  153.5094 H   0  0  0  0  0  0  0  0  0  0  0  0
  146.6591  138.4775  154.4033 H   0  0  0  0  0  0  0  0  0  0  0  0
  147.4881  141.0674  154.7029 H   0  0  0  0  0  0  0  0  0  0  0  0
  146.9894  141.3957  153.0543 H   0  0  0  0  0  0  0  0  0  0  0  0
  146.8826  143.4642  154.4410 H   0  0  0  0  0  0  0  0  0  0  0  0
  145.3149  143.0331  153.8002 H   0  0  0  0  0  0  0  0  0  0  0  0
  146.3155  142.4916  156.6384 H   0  0  0  0  0  0  0  0  0  0  0  0
  145.0764  143.6395  156.1803 H   0  0  0  0  0  0  0  0  0  0  0  0
  144.0953  141.4953  157.0506 H   0  0  0  0  0  0  0  0  0  0  0  0
  143.5975  141.8206  155.4074 H   0  0  0  0  0  0  0  0  0  0  0  0
  144.2497  139.4600  155.6307 H   0  0  0  0  0  0  0  0  0  0  0  0
  145.8225  139.8956  156.2624 H   0  0  0  0  0  0  0  0  0  0  0  0
  145.7100  130.5094  150.2293 H   0  0  0  0  0  0  0  0  0  0  0  0
  143.1325  131.2786  150.0655 H   0  0  0  0  0  0  0  0  0  0  0  0
  144.8278  140.5905  153.5939 H   0  0  0  0  0  0  0  0  0  0  0  0
  1  2  2  0  0  0  0
  2  3  1  0  0  0  0
  2 14  1  0  0  0  0
  3  4  1  0  0  0  0
  3 20  1  0  0  0  0
  4  5  1  0  0  0  0
  4 21  1  0  0  0  0
  4 22  1  0  0  0  0
  5  6  1  0  0  0  0
  5  7  1  0  0  0  0
  5 23  1  0  0  0  0
  6 24  1  0  0  0  0
  7  8  1  0  0  0  0
  7 25  1  0  0  0  0
  7 26  1  0  0  0  0
  8 13  1  0  0  0  0
  8  9  1  0  0  0  0
  8 39  1  0  0  0  0
  9 10  1  0  0  0  0
  9 27  1  0  0  0  0
  9 28  1  0  0  0  0
 10 11  1  0  0  0  0
 10 29  1  0  0  0  0
 10 30  1  0  0  0  0
 11 12  1  0  0  0  0
 11 31  1  0  0  0  0
 11 32  1  0  0  0  0
 12 13  1  0  0  0  0
 12 33  1  0  0  0  0
 12 34  1  0  0  0  0
 13 35  1  0  0  0  0
 13 36  1  0  0  0  0
 14 15  1  0  0  0  0
 15 19  1  0  0  0  0
 15 16  2  0  0  0  0
 16 17  1  0  0  0  0
 17 18  2  0  0  0  0
 17 37  1  0  0  0  0
 18 19  1  0  0  0  0
 18 38  1  0  0  0  0
M  CHG  1   8   1
M  CHG  1  14  -1
M  END
> <s_m_source_file>
AV-unprocessed.smi

> <i_m_source_file_index>
1268

> <i_lp_mmshare_version>
43012

> <i_f3d_flags>
0

> <s_epik_input>
czFbY0hdW2NIXW5jMVtOSF1DKD1PKVtOSF1bQ0gyXVtDQEhdKFtPSF0pW0NIMl1OMltDSDJdW0NIMl1bQ0gyXVtDSDJdW0NIMl0y

> <s_epik_cmdline>
J2VwaWtfcHl0aG9uJywgJy1waCcsICc3LjAnLCAnLXRuJywgJzgnLCAnLW1hJywgJzIwMCcsICctbWV0YWxfYmluZGluZycsICctaW1hZScsICc8aW5maWxlLm1hZT4nLCAnLW9tYWUnLCAnPG91dGZpbGUubWFlPic=

> <r_lp_tautomer_probability>
0.999

> <r_epik_Ionization_Penalty>
6.36291

> <r_epik_Ionization_Penalty_Charging>
5.4816

> <r_epik_Ionization_Penalty_Neutral>
0.881305

> <r_epik_State_Penalty>
5.4805

> <r_epik_Charging_Adjusted_Penalty>
10.9621

> <i_epik_Tot_Q>
0

> <i_epik_Tot_abs_Q>
2

> <r_epik_Metal_State_Penalty>
1.48871

> <b_epik_Metal_Only>
1

> <s_lp_Force_Field>
OPLS_2005

> <r_lp_Energy>
11.3564

> <b_lp_Chiralities_Consistent>
1

> <s_lp_Variant>
AV-unprocessed.smi:1268-3

> <Gold.Version>
5.8.1

> <Gold.Id.Protein>
6NUR|6NUR_protein|mol2

> <Gold.PLP.Fitness>
44.0636

> <Gold.PLP.PLP>
-31.6664

> <Gold.PLP.part.hbond>
-3.7570

> <Gold.PLP.part.metal>
0.0000

> <Gold.PLP.part.buried>
-1.9623

> <Gold.PLP.part.nonpolar>
-27.7358

> <Gold.PLP.part.repulsive>
0.9832

> <Gold.PLP.ligand.clash>
0.0000

> <Gold.PLP.ligand.torsion>
1.3723

> <Gold.PLP.Chemscore.Hbond>
4.0000

> <Gold.PLP.Chemscore.CHOScore>
0.9981

> <Gold.PLP.Chemscore.Metal>
0.0000

> <Gold.Chemscore.Hbonds>
donor molecule, donor type, donor heavy atom, donor atom, acceptor molecule, acceptor atom, score
      L1  H     3    20       P1  7948  0.98
      L1  H     6    24       P1  7948  1.00
      L1  H     8    39       P1 10175  2.00
      L1  C    18    38       P1 10952  0.97

> <Gold.PLP.Chemscore.Internal.Correction>
0.1475

> <Gold.Rescore>
     Score         DG    S(hbond)    S(metal)    S(lipo)     H(rot)  DE(clash)    DE(int)     intcor
     12.81     -17.23       2.93        0.00      71.12       2.48       1.74       2.68       ----

> <Gold.Chemscore.Fitness>
12.8133

> <Gold.Chemscore.DG>
-17.2297

> <Gold.Chemscore.ZeroCoef>
-5.4800

> <Gold.Chemscore.Hbond>
2.9298

> <Gold.Chemscore.Metal>
0.0000

> <Gold.Chemscore.Lipo>
71.1245

> <Gold.Chemscore.Internal_Hbond>
0.0000

> <Gold.Chemscore.DEClash>
1.7387

> <Gold.Chemscore.DEInternal>
2.6777

> <Gold.Chemscore.Rot>
2.4834

> <Gold.Chemscore.Internal.Correction>
   9.000000E+99

> <Gold.Chemscore.Hbonds>
donor molecule, donor type, donor heavy atom, donor atom, acceptor molecule, acceptor atom, score
      L1  H     3    20       P1  7948  0.92
      L1  H     6    24       P1  7948  0.99
      L1  H     8    39       P1 10175  0.97

> <Gold.Chemscore.Hbond.Weighted>
-9.7857

> <Gold.Chemscore.Metal.Weighted>
-0.0000

> <Gold.Chemscore.Lipo.Weighted>
-8.3216

> <Gold.Chemscore.Internal_Hbond.Weighted>
0.0000

> <Gold.Chemscore.DEClash.Weighted>
1.7387

> <Gold.Chemscore.DEInternal.Weighted>
2.6777

> <Gold.Chemscore.Rot.Weighted>
6.3575

> <Gold.Chemscore.Internal.Correction.Weighted>
   9.000000E+99

> <Gold.Protein.RotatedTorsions>
[ 6907 6896 6895 6894 ] final   85.72 input  -60.11 | X-H torsion
[ 7974 7965 7964 7962 ] final  -57.96 input  175.53 | X-H torsion
[ 8008 7997 7996 7995 ] final -168.47 input   59.86 | X-H torsion
[ 10167 10162 10161 10158 ] final  -46.00 input  -65.29 | X-H torsion
[ 10718 10713 10712 10709 ] final -122.48 input   66.30 | X-H torsion
[ 10763 10752 10751 10750 ] final    5.68 input  -60.55 | X-H torsion
[ 11005 11000 10999 10996 ] final  144.11 input  -57.11 | X-H torsion

> <Gold.Protein.ActiveResidues>
 VAL166  LYS551  ARG553  GLY616  TRP617  ASP618  TYR619  PRO620  LYS621  CYS622 
 ASP623  PHE694  ASN695  SER759  ASP760  ASP761  ALA762  ILE779  LEU786  VAL792 
 PHE793  MET794  SER795  GLU796  ALA797  LYS798  CYS799  TRP800  GLU811  SER814 

> <Gold.Protein.RotatedAtoms>
  152.5380  134.2543  159.8910 H   0  0  0  0  0  0  0  0  0  0  0  0  # atno 6907 bound_to 6896
  151.2505  133.4346  159.2619 H   0  0  0  0  0  0  0  0  0  0  0  0  # atno 6908 bound_to 6896
  151.0544  134.9709  159.8284 H   0  0  0  0  0  0  0  0  0  0  0  0  # atno 6909 bound_to 6896
  145.8449  140.8392  143.0015 H   0  0  0  0  0  0  0  0  0  0  0  0  # atno 7974 bound_to 7965
  155.8918  140.1026  157.1413 H   0  0  0  0  0  0  0  0  0  0  0  0  # atno 8008 bound_to 7997
  154.4016  140.1309  156.4389 H   0  0  0  0  0  0  0  0  0  0  0  0  # atno 8009 bound_to 7997
  155.7525  140.3465  155.5160 H   0  0  0  0  0  0  0  0  0  0  0  0  # atno 8010 bound_to 7997
  140.6835  143.2852  151.3720 H   0  0  0  0  0  0  0  0  0  0  0  0  # atno 10167 bound_to 10162
  156.1422  130.6474  150.9788 H   0  0  0  0  0  0  0  0  0  0  0  0  # atno 10718 bound_to 10713
  153.2566  135.6919  153.7622 H   0  0  0  0  0  0  0  0  0  0  0  0  # atno 10763 bound_to 10752
  153.6697  135.3346  155.3151 H   0  0  0  0  0  0  0  0  0  0  0  0  # atno 10764 bound_to 10752
  154.8414  135.4497  154.1542 H   0  0  0  0  0  0  0  0  0  0  0  0  # atno 10765 bound_to 10752
  140.0606  134.9206  157.1178 H   0  0  0  0  0  0  0  0  0  0  0  0  # atno 11005 bound_to 11000
  144.6731  140.0867  143.7467 LP  0  0  0  0  0  0  0  0  0  0  0  0  # atno 17320 bound_to 7965
  145.9423  139.2677  143.1261 LP  0  0  0  0  0  0  0  0  0  0  0  0  # atno 17321 bound_to 7965
  139.6175  144.0973  152.2360 LP  0  0  0  0  0  0  0  0  0  0  0  0  # atno 17342 bound_to 10162
  140.0407  144.6010  150.7413 LP  0  0  0  0  0  0  0  0  0  0  0  0  # atno 17343 bound_to 10162
  157.6586  131.0885  150.7891 LP  0  0  0  0  0  0  0  0  0  0  0  0  # atno 17370 bound_to 10713
  156.7966  130.4907  149.5376 LP  0  0  0  0  0  0  0  0  0  0  0  0  # atno 17371 bound_to 10713
  140.3775  134.2323  155.7173 LP  0  0  0  0  0  0  0  0  0  0  0  0  # atno 17394 bound_to 11000
  141.1971  133.8066  157.0640 LP  0  0  0  0  0  0  0  0  0  0  0  0  # atno 17395 bound_to 11000

$$$$
