AV-unprocessed.smi:2032|AV-procd|sdf|8242|dock2
  -GOLD-   2272010513D 1   1.00000     0.00000
 Structure written by MMmdl.
 43 44  0  0  0  0  0  0  0  0  2 V2000
  146.9541  128.5664  151.3519 C   0  0  0  0  0  0  0  0  0  0  0  0
  146.3480  129.3465  152.5323 C   0  0  1  0  0  0  0  0  0  0  0  0
  147.4004  130.0710  153.3965 C   0  0  0  0  0  0  0  0  0  0  0  0
  147.9352  131.2810  152.7131 N   0  3  2  0  0  0  0  0  0  0  0  0
  149.0115  132.0306  153.4418 C   0  0  2  0  0  0  0  0  0  0  0  0
  149.9057  131.0355  154.2159 C   0  0  0  0  0  0  0  0  0  0  0  0
  148.4715  133.1410  154.3859 C   0  0  0  0  0  0  0  0  0  0  0  0
  148.9896  134.4693  154.0646 N   0  0  0  0  0  0  0  0  0  0  0  0
  149.9005  135.1415  154.7843 C   0  0  0  0  0  0  0  0  0  0  0  0
  150.4211  134.6938  155.8066 O   0  0  0  0  0  0  0  0  0  0  0  0
  150.1637  136.3419  154.2394 N   0  0  0  0  0  0  0  0  0  0  0  0
  151.0902  137.3217  154.6834 C   0  0  0  0  0  0  0  0  0  0  0  0
  152.2242  137.0459  155.3380 N   0  0  0  0  0  0  0  0  0  0  0  0
  152.9453  138.2017  155.6477 C   0  0  0  0  0  0  0  0  0  0  0  0
  152.3415  139.3570  155.2176 C   0  0  0  0  0  0  0  0  0  0  0  0
  150.8340  139.0375  154.4020 S   0  0  0  0  0  0  0  0  0  0  0  0
  146.8033  132.1568  152.3109 C   0  0  0  0  0  0  0  0  0  0  0  0
  145.8125  131.3967  151.4134 C   0  0  2  0  0  0  0  0  0  0  0  0
  144.6031  132.2588  151.0347 C   0  0  0  0  0  0  0  0  0  0  0  0
  145.3318  130.2542  152.1125 O   0  0  0  0  0  0  0  0  0  0  0  0
  147.6146  127.7762  151.7097 H   0  0  0  0  0  0  0  0  0  0  0  0
  147.5417  129.2033  150.6913 H   0  0  0  0  0  0  0  0  0  0  0  0
  146.1725  128.0947  150.7557 H   0  0  0  0  0  0  0  0  0  0  0  0
  145.8495  128.6130  153.1668 H   0  0  0  0  0  0  0  0  0  0  0  0
  146.9561  130.3672  154.3481 H   0  0  0  0  0  0  0  0  0  0  0  0
  148.1927  129.3566  153.6185 H   0  0  0  0  0  0  0  0  0  0  0  0
  149.6279  132.5300  152.6922 H   0  0  0  0  0  0  0  0  0  0  0  0
  150.7656  131.5310  154.6653 H   0  0  0  0  0  0  0  0  0  0  0  0
  150.3141  130.2512  153.5815 H   0  0  0  0  0  0  0  0  0  0  0  0
  149.3483  130.5508  155.0180 H   0  0  0  0  0  0  0  0  0  0  0  0
  147.3890  133.2255  154.2933 H   0  0  0  0  0  0  0  0  0  0  0  0
  148.6756  132.8883  155.4280 H   0  0  0  0  0  0  0  0  0  0  0  0
  148.6174  134.9142  153.2380 H   0  0  0  0  0  0  0  0  0  0  0  0
  149.6509  136.5794  153.4031 H   0  0  0  0  0  0  0  0  0  0  0  0
  153.8823  138.1100  156.1769 H   0  0  0  0  0  0  0  0  0  0  0  0
  152.6915  140.3723  155.3301 H   0  0  0  0  0  0  0  0  0  0  0  0
  146.2939  132.5237  153.2037 H   0  0  0  0  0  0  0  0  0  0  0  0
  147.1573  133.0340  151.7723 H   0  0  0  0  0  0  0  0  0  0  0  0
  146.3096  131.0896  150.4929 H   0  0  0  0  0  0  0  0  0  0  0  0
  144.9113  133.1507  150.4884 H   0  0  0  0  0  0  0  0  0  0  0  0
  144.0545  132.5812  151.9200 H   0  0  0  0  0  0  0  0  0  0  0  0
  143.9127  131.7033  150.3995 H   0  0  0  0  0  0  0  0  0  0  0  0
  148.3624  130.9440  151.8619 H   0  0  0  0  0  0  0  0  0  0  0  0
  1  2  1  0  0  0  0
  1 21  1  0  0  0  0
  1 22  1  0  0  0  0
  1 23  1  0  0  0  0
  2 20  1  0  0  0  0
  2  3  1  0  0  0  0
  2 24  1  0  0  0  0
  3  4  1  0  0  0  0
  3 25  1  0  0  0  0
  3 26  1  0  0  0  0
  4  5  1  0  0  0  0
  4 17  1  0  0  0  0
  4 43  1  0  0  0  0
  5  6  1  0  0  0  0
  5  7  1  0  0  0  0
  5 27  1  0  0  0  0
  6 28  1  0  0  0  0
  6 29  1  0  0  0  0
  6 30  1  0  0  0  0
  7  8  1  0  0  0  0
  7 31  1  0  0  0  0
  7 32  1  0  0  0  0
  8  9  1  0  0  0  0
  8 33  1  0  0  0  0
  9 10  2  0  0  0  0
  9 11  1  0  0  0  0
 11 12  1  0  0  0  0
 11 34  1  0  0  0  0
 12 16  1  0  0  0  0
 12 13  2  0  0  0  0
 13 14  1  0  0  0  0
 14 15  2  0  0  0  0
 14 35  1  0  0  0  0
 15 16  1  0  0  0  0
 15 36  1  0  0  0  0
 17 18  1  0  0  0  0
 17 37  1  0  0  0  0
 17 38  1  0  0  0  0
 18 19  1  0  0  0  0
 18 20  1  0  0  0  0
 18 39  1  0  0  0  0
 19 40  1  0  0  0  0
 19 41  1  0  0  0  0
 19 42  1  0  0  0  0
M  CHG  1   4   1
M  END
> <s_m_source_file>
AV-unprocessed.smi

> <i_m_source_file_index>
2032

> <i_lp_mmshare_version>
43012

> <i_f3d_flags>
0

> <s_epik_input>
W0NIM11bQ0BASF0xW0NIMl1OKFtDSDJdW0NASF0oTzEpW0NIM10pW0NASF0oW0NIM10pW0NIMl1bTkhdQyg9TylbTkhdYzJuW2NIXVtjSF1zMg==

> <s_epik_cmdline>
J2VwaWtfcHl0aG9uJywgJy1waCcsICc3LjAnLCAnLXRuJywgJzgnLCAnLW1hJywgJzIwMCcsICctbWV0YWxfYmluZGluZycsICctaW1hZScsICc8aW5maWxlLm1hZT4nLCAnLW9tYWUnLCAnPG91dGZpbGUubWFlPic=

> <r_lp_tautomer_probability>
0.999

> <r_epik_Ionization_Penalty>
0.695838

> <r_epik_Ionization_Penalty_Charging>
0.695697

> <r_epik_Ionization_Penalty_Neutral>
0.000141198

> <r_epik_State_Penalty>
0.717972

> <r_epik_Charging_Adjusted_Penalty>
1.41367

> <i_epik_Tot_Q>
1

> <i_epik_Tot_abs_Q>
1

> <r_epik_Metal_State_Penalty>
0.756405

> <b_epik_Metal_Only>
0

> <s_lp_Force_Field>
OPLS_2005

> <r_lp_Energy>
21.4223

> <b_lp_Chiralities_Consistent>
1

> <s_lp_Variant>
AV-unprocessed.smi:2032-12

> <Gold.Version>
5.8.1

> <Gold.Id.Protein>
6NUR|6NUR_protein|mol2

> <Gold.PLP.Fitness>
48.2819

> <Gold.PLP.PLP>
-39.5861

> <Gold.PLP.part.hbond>
-5.0000

> <Gold.PLP.part.metal>
0.0000

> <Gold.PLP.part.buried>
-3.0480

> <Gold.PLP.part.nonpolar>
-31.7537

> <Gold.PLP.part.repulsive>
0.3170

> <Gold.PLP.ligand.clash>
0.0000

> <Gold.PLP.ligand.torsion>
1.5170

> <Gold.PLP.Chemscore.Hbond>
3.8880

> <Gold.PLP.Chemscore.CHOScore>
0.0000

> <Gold.PLP.Chemscore.Metal>
0.0000

> <Gold.Chemscore.Hbonds>
donor molecule, donor type, donor heavy atom, donor atom, acceptor molecule, acceptor atom, score
      L1  H     4    43       P1 10747  1.00
      L1  H     8    33       P1  7948  0.90
      L1  H    11    34       P1  7948  1.00
      P1  H 10752 10763       L1    13  0.85

> <Gold.PLP.Chemscore.Internal.Correction>
0.0657

> <Gold.Rescore>
     Score         DG    S(hbond)    S(metal)    S(lipo)     H(rot)  DE(clash)    DE(int)     intcor
     21.23     -22.87       3.37        0.00      87.66       1.61       0.06       1.58       ----

> <Gold.Chemscore.Fitness>
21.2286

> <Gold.Chemscore.DG>
-22.8651

> <Gold.Chemscore.ZeroCoef>
-5.4800

> <Gold.Chemscore.Hbond>
3.3690

> <Gold.Chemscore.Metal>
0.0000

> <Gold.Chemscore.Lipo>
87.6642

> <Gold.Chemscore.Internal_Hbond>
0.0000

> <Gold.Chemscore.DEClash>
0.0560

> <Gold.Chemscore.DEInternal>
1.5805

> <Gold.Chemscore.Rot>
1.6110

> <Gold.Chemscore.Internal.Correction>
   9.000000E+99

> <Gold.Chemscore.Hbonds>
donor molecule, donor type, donor heavy atom, donor atom, acceptor molecule, acceptor atom, score
      L1  H     4    43       P1 10747  0.99
      L1  H     8    33       P1  7948  0.53
      L1  H    11    34       P1  7948  0.48
      P1  H 10752 10763       L1    13  0.73

> <Gold.Chemscore.Hbond.Weighted>
-11.2526

> <Gold.Chemscore.Metal.Weighted>
-0.0000

> <Gold.Chemscore.Lipo.Weighted>
-10.2567

> <Gold.Chemscore.Internal_Hbond.Weighted>
0.0000

> <Gold.Chemscore.DEClash.Weighted>
0.0560

> <Gold.Chemscore.DEInternal.Weighted>
1.5805

> <Gold.Chemscore.Rot.Weighted>
4.1242

> <Gold.Chemscore.Internal.Correction.Weighted>
   9.000000E+99

> <Gold.Protein.RotatedTorsions>
[ 6907 6896 6895 6894 ] final   33.48 input  -60.11 | X-H torsion
[ 7974 7965 7964 7962 ] final  152.90 input  175.53 | X-H torsion
[ 8008 7997 7996 7995 ] final  100.99 input   59.86 | X-H torsion
[ 10167 10162 10161 10158 ] final  102.01 input  -65.29 | X-H torsion
[ 10718 10713 10712 10709 ] final -132.03 input   66.30 | X-H torsion
[ 10763 10752 10751 10750 ] final   73.82 input  -60.55 | X-H torsion
[ 11005 11000 10999 10996 ] final   23.00 input  -57.11 | X-H torsion

> <Gold.Protein.ActiveResidues>
 VAL166  LYS551  ARG553  GLY616  TRP617  ASP618  TYR619  PRO620  LYS621  CYS622 
 ASP623  PHE694  ASN695  SER759  ASP760  ASP761  ALA762  ILE779  LEU786  VAL792 
 PHE793  MET794  SER795  GLU796  ALA797  LYS798  CYS799  TRP800  GLU811  SER814 

> <Gold.Protein.RotatedAtoms>
  152.0891  134.9420  160.0571 H   0  0  0  0  0  0  0  0  0  0  0  0  # atno 6907 bound_to 6896
  152.0678  133.4087  159.4454 H   0  0  0  0  0  0  0  0  0  0  0  0  # atno 6908 bound_to 6896
  150.6836  134.3046  159.4764 H   0  0  0  0  0  0  0  0  0  0  0  0  # atno 6909 bound_to 6896
  144.8191  139.6729  143.6108 H   0  0  0  0  0  0  0  0  0  0  0  0  # atno 7974 bound_to 7965
  156.1256  140.3204  155.8273 H   0  0  0  0  0  0  0  0  0  0  0  0  # atno 8008 bound_to 7997
  155.4425  140.0526  157.3026 H   0  0  0  0  0  0  0  0  0  0  0  0  # atno 8009 bound_to 7997
  154.4860  140.2073  155.9668 H   0  0  0  0  0  0  0  0  0  0  0  0  # atno 8010 bound_to 7997
  139.7388  144.7017  151.0608 H   0  0  0  0  0  0  0  0  0  0  0  0  # atno 10167 bound_to 10162
  156.2304  130.7034  151.0852 H   0  0  0  0  0  0  0  0  0  0  0  0  # atno 10718 bound_to 10713
  153.0546  135.5048  154.7950 H   0  0  0  0  0  0  0  0  0  0  0  0  # atno 10763 bound_to 10752
  154.6786  135.2964  154.9646 H   0  0  0  0  0  0  0  0  0  0  0  0  # atno 10764 bound_to 10752
  154.0440  135.6713  153.4846 H   0  0  0  0  0  0  0  0  0  0  0  0  # atno 10765 bound_to 10752
  140.3744  134.1988  155.7665 H   0  0  0  0  0  0  0  0  0  0  0  0  # atno 11005 bound_to 11000
  146.2496  139.6171  142.9436 LP  0  0  0  0  0  0  0  0  0  0  0  0  # atno 17320 bound_to 7965
  145.5146  141.0434  143.2469 LP  0  0  0  0  0  0  0  0  0  0  0  0  # atno 17321 bound_to 7965
  140.7783  143.4951  150.9843 LP  0  0  0  0  0  0  0  0  0  0  0  0  # atno 17342 bound_to 10162
  139.8639  143.7279  152.3171 LP  0  0  0  0  0  0  0  0  0  0  0  0  # atno 17343 bound_to 10162
  157.7130  131.0724  150.6430 LP  0  0  0  0  0  0  0  0  0  0  0  0  # atno 17370 bound_to 10713
  156.6498  130.4482  149.5723 LP  0  0  0  0  0  0  0  0  0  0  0  0  # atno 17371 bound_to 10713
  141.1944  133.8129  157.0758 LP  0  0  0  0  0  0  0  0  0  0  0  0  # atno 17394 bound_to 11000
  140.0527  134.9797  157.1165 LP  0  0  0  0  0  0  0  0  0  0  0  0  # atno 17395 bound_to 11000

$$$$
