AV-unprocessed.smi:2253|AV-procd|sdf|9122|dock9
  -GOLD-   2272012323D 1   1.00000     0.00000
 Structure written by MMmdl.
 51 53  0  0  0  0  0  0  0  0  2 V2000
  152.1366  145.1617  159.4473 C   0  0  0  0  0  0  0  0  0  0  0  0
  152.1571  143.9043  158.7131 N   0  0  0  0  0  0  0  0  0  0  0  0
  150.8263  143.6376  158.1754 C   0  0  0  0  0  0  0  0  0  0  0  0
  150.8454  142.3514  157.3325 C   0  0  0  0  0  0  0  0  0  0  0  0
  151.3092  141.1216  158.1503 C   0  0  0  0  0  0  0  0  0  0  0  0
  151.4565  139.8844  157.3114 N   0  3  2  0  0  0  0  0  0  0  0  0
  150.2102  139.3863  156.6614 C   0  0  0  0  0  0  0  0  0  0  0  0
  149.2460  138.7575  157.6844 C   0  0  0  0  0  0  0  0  0  0  0  0
  149.9263  137.5974  158.4311 C   0  0  2  0  0  0  0  0  0  0  0  0
  149.0308  137.0730  159.4586 N   0  0  0  0  0  0  0  0  0  0  0  0
  148.5628  135.8168  159.5030 C   0  0  0  0  0  0  0  0  0  0  0  0
  148.8744  134.9548  158.6825 O   0  0  0  0  0  0  0  0  0  0  0  0
  147.7306  135.6471  160.5454 N   0  0  0  0  0  0  0  0  0  0  0  0
  146.9917  134.4975  160.9456 C   0  0  0  0  0  0  0  0  0  0  0  0
  147.3806  133.1568  160.7019 C   0  0  0  0  0  0  0  0  0  0  0  0
  146.5432  132.1172  161.1544 C   0  0  0  0  0  0  0  0  0  0  0  0
  145.3833  132.3269  161.8114 N   0  0  0  0  0  0  0  0  0  0  0  0
  145.0148  133.6043  162.0418 C   0  0  0  0  0  0  0  0  0  0  0  0
  145.7779  134.7159  161.6321 C   0  0  0  0  0  0  0  0  0  0  0  0
  145.3467  135.9735  161.8951 F   0  0  0  0  0  0  0  0  0  0  0  0
  151.2608  138.0675  159.0435 C   0  0  0  0  0  0  0  0  0  0  0  0
  152.1513  138.7491  157.9849 C   0  0  0  0  0  0  0  0  0  0  0  0
  152.6402  141.4980  158.8440 C   0  0  0  0  0  0  0  0  0  0  0  0
  152.5404  142.8239  159.6171 C   0  0  0  0  0  0  0  0  0  0  0  0
  151.8560  145.9848  158.7893 H   0  0  0  0  0  0  0  0  0  0  0  0
  153.1244  145.3845  159.8518 H   0  0  0  0  0  0  0  0  0  0  0  0
  151.4273  145.1292  160.2756 H   0  0  0  0  0  0  0  0  0  0  0  0
  150.0994  143.5519  158.9851 H   0  0  0  0  0  0  0  0  0  0  0  0
  150.5120  144.4749  157.5507 H   0  0  0  0  0  0  0  0  0  0  0  0
  149.8355  142.2045  156.9508 H   0  0  0  0  0  0  0  0  0  0  0  0
  151.4947  142.4930  156.4671 H   0  0  0  0  0  0  0  0  0  0  0  0
  150.5599  140.9404  158.9211 H   0  0  0  0  0  0  0  0  0  0  0  0
  149.7150  140.1566  156.0734 H   0  0  0  0  0  0  0  0  0  0  0  0
  150.4920  138.6263  155.9306 H   0  0  0  0  0  0  0  0  0  0  0  0
  148.9047  139.5155  158.3907 H   0  0  0  0  0  0  0  0  0  0  0  0
  148.3543  138.3945  157.1717 H   0  0  0  0  0  0  0  0  0  0  0  0
  150.1324  136.8075  157.7058 H   0  0  0  0  0  0  0  0  0  0  0  0
  148.7289  137.7181  160.1742 H   0  0  0  0  0  0  0  0  0  0  0  0
  147.5931  136.4579  161.1313 H   0  0  0  0  0  0  0  0  0  0  0  0
  148.2889  132.8954  160.1835 H   0  0  0  0  0  0  0  0  0  0  0  0
  146.8139  131.0859  160.9824 H   0  0  0  0  0  0  0  0  0  0  0  0
  144.0820  133.7449  162.5676 H   0  0  0  0  0  0  0  0  0  0  0  0
  151.0748  138.7504  159.8728 H   0  0  0  0  0  0  0  0  0  0  0  0
  151.7947  137.2170  159.4693 H   0  0  0  0  0  0  0  0  0  0  0  0
  152.4135  138.0151  157.2217 H   0  0  0  0  0  0  0  0  0  0  0  0
  153.1019  139.0489  158.4202 H   0  0  0  0  0  0  0  0  0  0  0  0
  152.9437  140.7329  159.5561 H   0  0  0  0  0  0  0  0  0  0  0  0
  153.4384  141.5688  158.1033 H   0  0  0  0  0  0  0  0  0  0  0  0
  153.5071  143.0533  160.0675 H   0  0  0  0  0  0  0  0  0  0  0  0
  151.8201  142.7364  160.4324 H   0  0  0  0  0  0  0  0  0  0  0  0
  152.0595  140.1634  156.5504 H   0  0  0  0  0  0  0  0  0  0  0  0
  1  2  1  0  0  0  0
  1 25  1  0  0  0  0
  1 26  1  0  0  0  0
  1 27  1  0  0  0  0
  2 24  1  0  0  0  0
  2  3  1  0  0  0  0
  3  4  1  0  0  0  0
  3 28  1  0  0  0  0
  3 29  1  0  0  0  0
  4  5  1  0  0  0  0
  4 30  1  0  0  0  0
  4 31  1  0  0  0  0
  5  6  1  0  0  0  0
  5 23  1  0  0  0  0
  5 32  1  0  0  0  0
  6 22  1  0  0  0  0
  6  7  1  0  0  0  0
  6 51  1  0  0  0  0
  7  8  1  0  0  0  0
  7 33  1  0  0  0  0
  7 34  1  0  0  0  0
  8  9  1  0  0  0  0
  8 35  1  0  0  0  0
  8 36  1  0  0  0  0
  9 10  1  0  0  0  0
  9 21  1  0  0  0  0
  9 37  1  0  0  0  0
 10 11  1  0  0  0  0
 10 38  1  0  0  0  0
 11 12  2  0  0  0  0
 11 13  1  0  0  0  0
 13 14  1  0  0  0  0
 13 39  1  0  0  0  0
 14 19  1  0  0  0  0
 14 15  2  0  0  0  0
 15 16  1  0  0  0  0
 15 40  1  0  0  0  0
 16 17  2  0  0  0  0
 16 41  1  0  0  0  0
 17 18  1  0  0  0  0
 18 19  2  0  0  0  0
 18 42  1  0  0  0  0
 19 20  1  0  0  0  0
 21 22  1  0  0  0  0
 21 43  1  0  0  0  0
 21 44  1  0  0  0  0
 22 45  1  0  0  0  0
 22 46  1  0  0  0  0
 23 24  1  0  0  0  0
 23 47  1  0  0  0  0
 23 48  1  0  0  0  0
 24 49  1  0  0  0  0
 24 50  1  0  0  0  0
M  CHG  1   6   1
M  END
> <s_m_source_file>
AV-unprocessed.smi

> <i_m_source_file_index>
2253

> <i_lp_mmshare_version>
43012

> <i_f3d_flags>
0

> <s_epik_input>
W0NIM11OMVtDSDJdW0NIMl1bQ0hdKFtDSDJdW0NIMl0xKU4yW0NIMl1bQ0gyXVtDSF0oW0NIMl1bQ0gyXTIpW05IXUMoPU8pW05IXWMzW2NIXVtjSF1uW2NIXWMzRg==

> <s_epik_cmdline>
J2VwaWtfcHl0aG9uJywgJy1waCcsICc3LjAnLCAnLXRuJywgJzgnLCAnLW1hJywgJzIwMCcsICctbWV0YWxfYmluZGluZycsICctaW1hZScsICc8aW5maWxlLm1hZT4nLCAnLW9tYWUnLCAnPG91dGZpbGUubWFlPic=

> <r_epik_Ionization_Penalty>
1.37522

> <r_epik_Ionization_Penalty_Charging>
0.00081195

> <r_epik_Ionization_Penalty_Neutral>
1.3744

> <r_epik_State_Penalty>
1.55149

> <r_epik_Charging_Adjusted_Penalty>
1.5523

> <i_epik_Tot_Q>
1

> <i_epik_Tot_abs_Q>
1

> <r_epik_Metal_State_Penalty>
1.55158

> <b_epik_Metal_Only>
0

> <s_lp_Force_Field>
OPLS_2005

> <r_lp_Energy>
38.6229

> <b_lp_Chiralities_Consistent>
1

> <s_lp_Variant>
AV-unprocessed.smi:2253-8

> <Gold.Version>
5.8.1

> <Gold.Id.Protein>
6NUR|6NUR_protein|mol2

> <Gold.PLP.Fitness>
42.4260

> <Gold.PLP.PLP>
-39.8819

> <Gold.PLP.part.hbond>
-1.0000

> <Gold.PLP.part.metal>
0.0000

> <Gold.PLP.part.buried>
-8.0592

> <Gold.PLP.part.nonpolar>
-32.0377

> <Gold.PLP.part.repulsive>
1.0471

> <Gold.PLP.ligand.clash>
0.0000

> <Gold.PLP.ligand.torsion>
0.2525

> <Gold.PLP.Chemscore.Hbond>
1.0000

> <Gold.PLP.Chemscore.CHOScore>
0.0000

> <Gold.PLP.Chemscore.Metal>
0.0000

> <Gold.Chemscore.Hbonds>
donor molecule, donor type, donor heavy atom, donor atom, acceptor molecule, acceptor atom, score
      P1  H  6896  6908       L1    12  0.95

> <Gold.PLP.Chemscore.Internal.Correction>
0.0490

> <Gold.Rescore>
     Score         DG    S(hbond)    S(metal)    S(lipo)     H(rot)  DE(clash)    DE(int)     intcor
     17.37     -19.52       0.99        0.00     118.87       1.24       1.35       0.81       ----

> <Gold.Chemscore.Fitness>
17.3664

> <Gold.Chemscore.DG>
-19.5226

> <Gold.Chemscore.ZeroCoef>
-5.4800

> <Gold.Chemscore.Hbond>
0.9892

> <Gold.Chemscore.Metal>
0.0000

> <Gold.Chemscore.Lipo>
118.8660

> <Gold.Chemscore.Internal_Hbond>
0.0000

> <Gold.Chemscore.DEClash>
1.3463

> <Gold.Chemscore.DEInternal>
0.8100

> <Gold.Chemscore.Rot>
1.2377

> <Gold.Chemscore.Internal.Correction>
   9.000000E+99

> <Gold.Chemscore.Hbonds>
donor molecule, donor type, donor heavy atom, donor atom, acceptor molecule, acceptor atom, score
      P1  H  6896  6908       L1    12  0.21

> <Gold.Chemscore.Hbond.Weighted>
-3.3038

> <Gold.Chemscore.Metal.Weighted>
-0.0000

> <Gold.Chemscore.Lipo.Weighted>
-13.9073

> <Gold.Chemscore.Internal_Hbond.Weighted>
0.0000

> <Gold.Chemscore.DEClash.Weighted>
1.3463

> <Gold.Chemscore.DEInternal.Weighted>
0.8100

> <Gold.Chemscore.Rot.Weighted>
3.1685

> <Gold.Chemscore.Internal.Correction.Weighted>
   9.000000E+99

> <Gold.Protein.RotatedTorsions>
[ 6907 6896 6895 6894 ] final  157.54 input  -60.11 | X-H torsion
[ 7974 7965 7964 7962 ] final   84.56 input  175.53 | X-H torsion
[ 8008 7997 7996 7995 ] final  166.77 input   59.86 | X-H torsion
[ 10167 10162 10161 10158 ] final  114.25 input  -65.29 | X-H torsion
[ 10718 10713 10712 10709 ] final  -32.58 input   66.30 | X-H torsion
[ 10763 10752 10751 10750 ] final  -36.87 input  -60.55 | X-H torsion
[ 11005 11000 10999 10996 ] final -153.69 input  -57.11 | X-H torsion

> <Gold.Protein.ActiveResidues>
 VAL166  LYS551  ARG553  GLY616  TRP617  ASP618  TYR619  PRO620  LYS621  CYS622 
 ASP623  PHE694  ASN695  SER759  ASP760  ASP761  ALA762  ILE779  LEU786  VAL792 
 PHE793  MET794  SER795  GLU796  ALA797  LYS798  CYS799  TRP800  GLU811  SER814 

> <Gold.Protein.RotatedAtoms>
  152.0137  133.3871  159.4229 H   0  0  0  0  0  0  0  0  0  0  0  0  # atno 6907 bound_to 6896
  150.6897  134.3703  159.4998 H   0  0  0  0  0  0  0  0  0  0  0  0  # atno 6908 bound_to 6896
  152.1467  134.9020  160.0601 H   0  0  0  0  0  0  0  0  0  0  0  0  # atno 6909 bound_to 6896
  145.5972  139.2347  143.2266 H   0  0  0  0  0  0  0  0  0  0  0  0  # atno 7974 bound_to 7965
  156.1690  140.1634  156.8480 H   0  0  0  0  0  0  0  0  0  0  0  0  # atno 8008 bound_to 7997
  154.5237  140.0772  156.8254 H   0  0  0  0  0  0  0  0  0  0  0  0  # atno 8009 bound_to 7997
  155.3551  140.3392  155.4242 H   0  0  0  0  0  0  0  0  0  0  0  0  # atno 8010 bound_to 7997
  139.6402  144.7123  151.2252 H   0  0  0  0  0  0  0  0  0  0  0  0  # atno 10167 bound_to 10162
  156.3731  130.4343  149.7529 H   0  0  0  0  0  0  0  0  0  0  0  0  # atno 10718 bound_to 10713
  153.8870  135.6816  153.4763 H   0  0  0  0  0  0  0  0  0  0  0  0  # atno 10763 bound_to 10752
  153.1202  135.4743  154.9180 H   0  0  0  0  0  0  0  0  0  0  0  0  # atno 10764 bound_to 10752
  154.7641  135.3219  154.8273 H   0  0  0  0  0  0  0  0  0  0  0  0  # atno 10765 bound_to 10752
  140.7054  134.3891  157.5204 H   0  0  0  0  0  0  0  0  0  0  0  0  # atno 11005 bound_to 11000
  146.1603  140.6797  142.9280 LP  0  0  0  0  0  0  0  0  0  0  0  0  # atno 17320 bound_to 7965
  144.7326  140.4715  143.6927 LP  0  0  0  0  0  0  0  0  0  0  0  0  # atno 17321 bound_to 7965
  140.7487  143.6324  150.8410 LP  0  0  0  0  0  0  0  0  0  0  0  0  # atno 17342 bound_to 10162
  139.9961  143.5794  152.2893 LP  0  0  0  0  0  0  0  0  0  0  0  0  # atno 17343 bound_to 10162
  156.4649  130.7969  151.2988 LP  0  0  0  0  0  0  0  0  0  0  0  0  # atno 17370 bound_to 10713
  157.7486  131.0054  150.3113 LP  0  0  0  0  0  0  0  0  0  0  0  0  # atno 17371 bound_to 10713
  139.8885  134.8853  156.2468 LP  0  0  0  0  0  0  0  0  0  0  0  0  # atno 17394 bound_to 11000
  141.0129  133.7085  156.1141 LP  0  0  0  0  0  0  0  0  0  0  0  0  # atno 17395 bound_to 11000

$$$$
