AV-unprocessed.smi:511|AV-procd|sdf|2765|dock2
  -GOLD-   2262023233D 1   1.00000     0.00000
 Structure written by MMmdl.
 45 47  0  0  0  0  0  0  0  0  1 V2000
  148.3512  140.8341  154.2302 C   0  0  0  0  0  0  0  0  0  0  0  0
  148.9215  141.5827  155.2880 O   0  0  0  0  0  0  0  0  0  0  0  0
  150.1462  141.0342  155.7473 C   0  0  0  0  0  0  0  0  0  0  0  0
  150.1865  141.0820  157.2809 C   0  0  0  0  0  0  0  0  0  0  0  0
  151.2653  140.2571  157.8221 N   0  0  0  0  0  0  0  0  0  0  0  0
  152.3652  140.6315  158.5348 C   0  0  0  0  0  0  0  0  0  0  0  0
  152.6025  141.9537  158.9129 N   0  0  0  0  0  0  0  0  0  0  0  0
  153.2919  142.4226  160.1130 C   0  0  0  0  0  0  0  0  0  0  0  0
  152.4744  143.5193  160.8233 C   0  0  0  0  0  0  0  0  0  0  0  0
  152.3227  144.6624  159.9236 N   0  0  0  0  0  0  0  0  0  0  0  0
  151.5454  145.7023  160.5816 C   0  0  0  0  0  0  0  0  0  0  0  0
  151.6284  144.2185  158.7149 C   0  0  0  0  0  0  0  0  0  0  0  0
  152.4439  143.1044  158.0283 C   0  0  0  0  0  0  0  0  0  0  0  0
  153.2193  139.6384  158.8004 N   0  0  0  0  0  0  0  0  0  0  0  0
  152.6002  138.5339  158.2390 C   0  0  0  0  0  0  0  0  0  0  0  0
  151.4310  138.8821  157.6465 C   0  0  0  0  0  0  0  0  0  0  0  0
  150.5866  137.9075  156.9439 C   0  0  0  0  0  0  0  0  0  0  0  0
  149.5323  138.2012  156.3846 O   0  0  0  0  0  0  0  0  0  0  0  0
  151.0916  136.6500  156.9711 N   0  0  0  0  0  0  0  0  0  0  0  0
  152.2585  136.2334  157.5521 C   0  0  0  0  0  0  0  0  0  0  0  0
  152.5827  135.0481  157.4856 O   0  0  0  0  0  0  0  0  0  0  0  0
  153.0247  137.1774  158.1898 N   0  0  0  0  0  0  0  0  0  0  0  0
  154.2966  136.8395  158.8319 C   0  0  0  0  0  0  0  0  0  0  0  0
  150.5466  135.9391  156.5056 H   0  0  0  0  0  0  0  0  0  0  0  0
  147.4146  141.2962  153.9188 H   0  0  0  0  0  0  0  0  0  0  0  0
  148.1351  139.8114  154.5422 H   0  0  0  0  0  0  0  0  0  0  0  0
  149.0163  140.8044  153.3659 H   0  0  0  0  0  0  0  0  0  0  0  0
  150.2431  140.0022  155.4071 H   0  0  0  0  0  0  0  0  0  0  0  0
  150.9854  141.5946  155.3325 H   0  0  0  0  0  0  0  0  0  0  0  0
  150.2916  142.1118  157.6048 H   0  0  0  0  0  0  0  0  0  0  0  0
  149.2371  140.7495  157.6987 H   0  0  0  0  0  0  0  0  0  0  0  0
  153.4938  141.5910  160.7868 H   0  0  0  0  0  0  0  0  0  0  0  0
  154.2717  142.8119  159.8320 H   0  0  0  0  0  0  0  0  0  0  0  0
  151.4977  143.1372  161.1248 H   0  0  0  0  0  0  0  0  0  0  0  0
  152.9918  143.8365  161.7295 H   0  0  0  0  0  0  0  0  0  0  0  0
  151.4243  146.5632  159.9233 H   0  0  0  0  0  0  0  0  0  0  0  0
  152.0523  146.0430  161.4850 H   0  0  0  0  0  0  0  0  0  0  0  0
  150.5538  145.3429  160.8607 H   0  0  0  0  0  0  0  0  0  0  0  0
  150.6270  143.8599  158.9589 H   0  0  0  0  0  0  0  0  0  0  0  0
  151.5115  145.0617  158.0331 H   0  0  0  0  0  0  0  0  0  0  0  0
  153.4245  143.4746  157.7255 H   0  0  0  0  0  0  0  0  0  0  0  0
  151.9330  142.7926  157.1168 H   0  0  0  0  0  0  0  0  0  0  0  0
  154.5495  135.7797  158.7877 H   0  0  0  0  0  0  0  0  0  0  0  0
  154.2699  137.1238  159.8842 H   0  0  0  0  0  0  0  0  0  0  0  0
  155.1095  137.3897  158.3569 H   0  0  0  0  0  0  0  0  0  0  0  0
  1  2  1  0  0  0  0
  1 25  1  0  0  0  0
  1 26  1  0  0  0  0
  1 27  1  0  0  0  0
  2  3  1  0  0  0  0
  3  4  1  0  0  0  0
  3 28  1  0  0  0  0
  3 29  1  0  0  0  0
  4  5  1  0  0  0  0
  4 30  1  0  0  0  0
  4 31  1  0  0  0  0
  5 16  1  0  0  0  0
  5  6  1  0  0  0  0
  6  7  1  0  0  0  0
  6 14  2  0  0  0  0
  7 13  1  0  0  0  0
  7  8  1  0  0  0  0
  8  9  1  0  0  0  0
  8 32  1  0  0  0  0
  8 33  1  0  0  0  0
  9 10  1  0  0  0  0
  9 34  1  0  0  0  0
  9 35  1  0  0  0  0
 10 11  1  0  0  0  0
 10 12  1  0  0  0  0
 11 36  1  0  0  0  0
 11 37  1  0  0  0  0
 11 38  1  0  0  0  0
 12 13  1  0  0  0  0
 12 39  1  0  0  0  0
 12 40  1  0  0  0  0
 13 41  1  0  0  0  0
 13 42  1  0  0  0  0
 14 15  1  0  0  0  0
 15 22  1  0  0  0  0
 15 16  2  0  0  0  0
 16 17  1  0  0  0  0
 17 18  2  0  0  0  0
 17 19  1  0  0  0  0
 19 24  1  0  0  0  0
 19 20  1  0  0  0  0
 20 21  2  0  0  0  0
 20 22  1  0  0  0  0
 22 23  1  0  0  0  0
 23 43  1  0  0  0  0
 23 44  1  0  0  0  0
 23 45  1  0  0  0  0
M  END
> <s_m_source_file>
AV-unprocessed.smi

> <i_m_source_file_index>
511

> <i_lp_mmshare_version>
43012

> <i_f3d_flags>
0

> <s_epik_input>
W0NIM11uMWMoPU8pW25IXWMoPU8pYyhjMTIpbihbQ0gyXVtDSDJdT1tDSDNdKWMobjIpTjNbQ0gyXVtDSDJdTihbQ0gzXSlbQ0gyXVtDSDJdMw==

> <s_epik_cmdline>
J2VwaWtfcHl0aG9uJywgJy1waCcsICc3LjAnLCAnLXRuJywgJzgnLCAnLW1hJywgJzIwMCcsICctbWV0YWxfYmluZGluZycsICctaW1hZScsICc8aW5maWxlLm1hZT4nLCAnLW9tYWUnLCAnPG91dGZpbGUubWFlPic=

> <r_epik_Ionization_Penalty>
1.34394

> <r_epik_Ionization_Penalty_Charging>
1.59275e-05

> <r_epik_Ionization_Penalty_Neutral>
1.34392

> <r_epik_State_Penalty>
1.4212

> <r_epik_Charging_Adjusted_Penalty>
1.42122

> <i_epik_Tot_Q>
0

> <i_epik_Tot_abs_Q>
0

> <r_epik_Metal_State_Penalty>
1.44789

> <b_epik_Metal_Only>
0

> <s_lp_Force_Field>
OPLS_2005

> <r_lp_Energy>
49.2822

> <b_lp_Chiralities_Consistent>
1

> <s_lp_Variant>
AV-unprocessed.smi:511-2

> <Gold.Version>
5.8.1

> <Gold.Id.Protein>
6NUR|6NUR_protein|mol2

> <Gold.PLP.Fitness>
38.5316

> <Gold.PLP.PLP>
-34.9223

> <Gold.PLP.part.hbond>
-2.2769

> <Gold.PLP.part.metal>
0.0000

> <Gold.PLP.part.buried>
-3.2105

> <Gold.PLP.part.nonpolar>
-29.0139

> <Gold.PLP.part.repulsive>
0.7776

> <Gold.PLP.ligand.clash>
0.0000

> <Gold.PLP.ligand.torsion>
0.9603

> <Gold.PLP.Chemscore.Hbond>
1.7373

> <Gold.PLP.Chemscore.CHOScore>
0.0000

> <Gold.PLP.Chemscore.Metal>
0.0000

> <Gold.Chemscore.Hbonds>
donor molecule, donor type, donor heavy atom, donor atom, acceptor molecule, acceptor atom, score
      P1  H  7997  8009       L1    14  0.37

> <Gold.PLP.Chemscore.Internal.Correction>
0.3180

> <Gold.Rescore>
     Score         DG    S(hbond)    S(metal)    S(lipo)     H(rot)  DE(clash)    DE(int)     intcor
     11.75     -14.38       0.84        0.00      84.67       1.49       1.51       1.12       ----

> <Gold.Chemscore.Fitness>
11.7515

> <Gold.Chemscore.DG>
-14.3788

> <Gold.Chemscore.ZeroCoef>
-5.4800

> <Gold.Chemscore.Hbond>
0.8415

> <Gold.Chemscore.Metal>
0.0000

> <Gold.Chemscore.Lipo>
84.6710

> <Gold.Chemscore.Internal_Hbond>
0.0000

> <Gold.Chemscore.DEClash>
1.5094

> <Gold.Chemscore.DEInternal>
1.1180

> <Gold.Chemscore.Rot>
1.4915

> <Gold.Chemscore.Internal.Correction>
   9.000000E+99

> <Gold.Chemscore.Hbonds>
donor molecule, donor type, donor heavy atom, donor atom, acceptor molecule, acceptor atom, score
      P1  H  7997  8009       L1    14  0.02
      P1  H 10752 10763       L1    21  0.01

> <Gold.Chemscore.Hbond.Weighted>
-2.8106

> <Gold.Chemscore.Metal.Weighted>
-0.0000

> <Gold.Chemscore.Lipo.Weighted>
-9.9065

> <Gold.Chemscore.Internal_Hbond.Weighted>
0.0000

> <Gold.Chemscore.DEClash.Weighted>
1.5094

> <Gold.Chemscore.DEInternal.Weighted>
1.1180

> <Gold.Chemscore.Rot.Weighted>
3.8183

> <Gold.Chemscore.Internal.Correction.Weighted>
   9.000000E+99

> <Gold.Protein.RotatedTorsions>
[ 6907 6896 6895 6894 ] final -153.35 input  -60.11 | X-H torsion
[ 7974 7965 7964 7962 ] final   87.60 input  175.53 | X-H torsion
[ 8008 7997 7996 7995 ] final  139.24 input   59.86 | X-H torsion
[ 10167 10162 10161 10158 ] final  139.77 input  -65.29 | X-H torsion
[ 10718 10713 10712 10709 ] final   86.09 input   66.30 | X-H torsion
[ 10763 10752 10751 10750 ] final  135.33 input  -60.55 | X-H torsion
[ 11005 11000 10999 10996 ] final   79.77 input  -57.11 | X-H torsion

> <Gold.Protein.ActiveResidues>
 VAL166  LYS551  ARG553  GLY616  TRP617  ASP618  TYR619  PRO620  LYS621  CYS622 
 ASP623  PHE694  ASN695  SER759  ASP760  ASP761  ALA762  ILE779  LEU786  VAL792 
 PHE793  MET794  SER795  GLU796  ALA797  LYS798  CYS799  TRP800  GLU811  SER814 

> <Gold.Protein.RotatedAtoms>
  151.2412  133.4398  159.2607 H   0  0  0  0  0  0  0  0  0  0  0  0  # atno 6907 bound_to 6896
  151.0703  134.9794  159.8315 H   0  0  0  0  0  0  0  0  0  0  0  0  # atno 6908 bound_to 6896
  152.5411  134.2358  159.8895 H   0  0  0  0  0  0  0  0  0  0  0  0  # atno 6909 bound_to 6896
  145.5569  139.2300  143.2481 H   0  0  0  0  0  0  0  0  0  0  0  0  # atno 7974 bound_to 7965
  156.2991  140.2372  156.4205 H   0  0  0  0  0  0  0  0  0  0  0  0  # atno 8008 bound_to 7997
  154.8359  140.0430  157.1529 H   0  0  0  0  0  0  0  0  0  0  0  0  # atno 8009 bound_to 7997
  154.9156  140.2996  155.5247 H   0  0  0  0  0  0  0  0  0  0  0  0  # atno 8010 bound_to 7997
  139.5069  144.6275  151.5901 H   0  0  0  0  0  0  0  0  0  0  0  0  # atno 10167 bound_to 10162
  157.6924  131.0201  150.2921 H   0  0  0  0  0  0  0  0  0  0  0  0  # atno 10718 bound_to 10713
  153.8383  135.3095  155.3424 H   0  0  0  0  0  0  0  0  0  0  0  0  # atno 10763 bound_to 10752
  154.7944  135.4764  154.0129 H   0  0  0  0  0  0  0  0  0  0  0  0  # atno 10764 bound_to 10752
  153.1591  135.6857  153.8860 H   0  0  0  0  0  0  0  0  0  0  0  0  # atno 10765 bound_to 10752
  139.9159  134.7869  156.1823 H   0  0  0  0  0  0  0  0  0  0  0  0  # atno 11005 bound_to 11000
  146.1878  140.6393  142.9159 LP  0  0  0  0  0  0  0  0  0  0  0  0  # atno 17320 bound_to 7965
  144.7502  140.5171  143.6807 LP  0  0  0  0  0  0  0  0  0  0  0  0  # atno 17321 bound_to 7965
  140.5996  143.9633  150.6377 LP  0  0  0  0  0  0  0  0  0  0  0  0  # atno 17342 bound_to 10162
  140.2841  143.3369  152.1124 LP  0  0  0  0  0  0  0  0  0  0  0  0  # atno 17343 bound_to 10162
  156.3450  130.3821  149.7376 LP  0  0  0  0  0  0  0  0  0  0  0  0  # atno 17370 bound_to 10713
  156.4873  130.8069  151.3080 LP  0  0  0  0  0  0  0  0  0  0  0  0  # atno 17371 bound_to 10713
  141.0635  133.6830  156.1998 LP  0  0  0  0  0  0  0  0  0  0  0  0  # atno 17394 bound_to 11000
  140.6623  134.4955  157.5584 LP  0  0  0  0  0  0  0  0  0  0  0  0  # atno 17395 bound_to 11000

$$$$
