AV-unprocessed.smi:3028|AV-procd|sdf|11519|dock1
  -GOLD-   2272016453D 1   1.00000     0.00000
 Structure written by MMmdl.
 48 49  0  0  0  0  0  0  0  0  2 V2000
  151.1963  142.5777  157.9183 C   0  0  0  0  0  0  0  0  0  0  0  0
  150.8140  141.7232  156.7447 C   0  0  0  0  0  0  0  0  0  0  0  0
  151.6060  140.7462  156.0780 C   0  0  0  0  0  0  0  0  0  0  0  0
  150.9693  140.1697  155.0721 N   0  0  0  0  0  0  0  0  0  0  0  0
  149.7507  140.7543  155.0592 N   0  0  0  0  0  0  0  0  0  0  0  0
  148.7617  140.3745  154.0563 C   0  0  2  0  0  0  0  0  0  0  0  0
  147.4517  141.1489  154.2960 C   0  0  0  0  0  0  0  0  0  0  0  0
  148.5657  138.8350  154.0097 C   0  0  1  0  0  0  0  0  0  0  0  0
  147.7854  138.2931  155.2188 C   0  0  0  0  0  0  0  0  0  0  0  0
  147.8499  138.4467  152.7722 N   0  3  0  0  0  0  0  0  0  0  0  0
  146.3881  138.6637  152.8011 C   0  0  0  0  0  0  0  0  0  0  0  0
  145.6026  137.3594  152.6146 C   0  0  0  0  0  0  0  0  0  0  0  0
  144.3739  137.3687  152.6713 O   0  0  0  0  0  0  0  0  0  0  0  0
  146.2699  136.2152  152.3887 N   0  0  0  0  0  0  0  0  0  0  0  0
  145.7226  134.8743  152.1850 C   0  0  0  0  0  0  0  0  0  0  0  0
  146.8666  133.8539  152.0842 C   0  0  0  0  0  0  0  0  0  0  0  0
  146.3273  132.4688  151.6911 C   0  0  0  0  0  0  0  0  0  0  0  0
  145.5986  132.5575  150.4713 O   0  0  0  0  0  0  0  0  0  0  0  0
  144.4558  133.4008  150.5676 C   0  0  0  0  0  0  0  0  0  0  0  0
  144.8893  134.8392  150.8950 C   0  0  0  0  0  0  0  0  0  0  0  0
  149.6304  141.6922  156.0635 C   0  0  0  0  0  0  0  0  0  0  0  0
  152.2343  142.4222  158.2133 H   0  0  0  0  0  0  0  0  0  0  0  0
  150.5791  142.3615  158.7904 H   0  0  0  0  0  0  0  0  0  0  0  0
  151.0812  143.6389  157.6973 H   0  0  0  0  0  0  0  0  0  0  0  0
  152.6200  140.4422  156.2923 H   0  0  0  0  0  0  0  0  0  0  0  0
  149.1550  140.6935  153.0897 H   0  0  0  0  0  0  0  0  0  0  0  0
  146.7513  141.0224  153.4709 H   0  0  0  0  0  0  0  0  0  0  0  0
  147.6429  142.2187  154.3879 H   0  0  0  0  0  0  0  0  0  0  0  0
  146.9545  140.8220  155.2097 H   0  0  0  0  0  0  0  0  0  0  0  0
  149.5485  138.3599  154.0175 H   0  0  0  0  0  0  0  0  0  0  0  0
  148.3260  138.4499  156.1517 H   0  0  0  0  0  0  0  0  0  0  0  0
  147.6207  137.2191  155.1258 H   0  0  0  0  0  0  0  0  0  0  0  0
  146.8098  138.7718  155.3113 H   0  0  0  0  0  0  0  0  0  0  0  0
  148.2338  138.9671  151.9965 H   0  0  0  0  0  0  0  0  0  0  0  0
  146.1135  139.1068  153.7586 H   0  0  0  0  0  0  0  0  0  0  0  0
  146.1166  139.3678  152.0135 H   0  0  0  0  0  0  0  0  0  0  0  0
  147.2774  136.2821  152.3563 H   0  0  0  0  0  0  0  0  0  0  0  0
  145.0758  134.5714  153.0078 H   0  0  0  0  0  0  0  0  0  0  0  0
  147.5915  134.1792  151.3363 H   0  0  0  0  0  0  0  0  0  0  0  0
  147.4028  133.7909  153.0319 H   0  0  0  0  0  0  0  0  0  0  0  0
  147.1532  131.7702  151.5566 H   0  0  0  0  0  0  0  0  0  0  0  0
  145.6912  132.0614  152.4783 H   0  0  0  0  0  0  0  0  0  0  0  0
  143.9210  133.3783  149.6181 H   0  0  0  0  0  0  0  0  0  0  0  0
  143.7717  133.0186  151.3268 H   0  0  0  0  0  0  0  0  0  0  0  0
  144.0126  135.4806  150.9931 H   0  0  0  0  0  0  0  0  0  0  0  0
  145.4741  135.2335  150.0625 H   0  0  0  0  0  0  0  0  0  0  0  0
  148.7225  142.2594  156.2078 H   0  0  0  0  0  0  0  0  0  0  0  0
  148.0148  137.4640  152.6063 H   0  0  0  0  0  0  0  0  0  0  0  0
  1  2  1  0  0  0  0
  1 22  1  0  0  0  0
  1 23  1  0  0  0  0
  1 24  1  0  0  0  0
  2 21  2  0  0  0  0
  2  3  1  0  0  0  0
  3  4  2  0  0  0  0
  3 25  1  0  0  0  0
  4  5  1  0  0  0  0
  5  6  1  0  0  0  0
  5 21  1  0  0  0  0
  6  7  1  0  0  0  0
  6  8  1  0  0  0  0
  6 26  1  0  0  0  0
  7 27  1  0  0  0  0
  7 28  1  0  0  0  0
  7 29  1  0  0  0  0
  8  9  1  0  0  0  0
  8 10  1  0  0  0  0
  8 30  1  0  0  0  0
  9 31  1  0  0  0  0
  9 32  1  0  0  0  0
  9 33  1  0  0  0  0
 10 11  1  0  0  0  0
 10 34  1  0  0  0  0
 10 48  1  0  0  0  0
 11 12  1  0  0  0  0
 11 35  1  0  0  0  0
 11 36  1  0  0  0  0
 12 13  2  0  0  0  0
 12 14  1  0  0  0  0
 14 15  1  0  0  0  0
 14 37  1  0  0  0  0
 15 20  1  0  0  0  0
 15 16  1  0  0  0  0
 15 38  1  0  0  0  0
 16 17  1  0  0  0  0
 16 39  1  0  0  0  0
 16 40  1  0  0  0  0
 17 18  1  0  0  0  0
 17 41  1  0  0  0  0
 17 42  1  0  0  0  0
 18 19  1  0  0  0  0
 19 20  1  0  0  0  0
 19 43  1  0  0  0  0
 19 44  1  0  0  0  0
 20 45  1  0  0  0  0
 20 46  1  0  0  0  0
 21 47  1  0  0  0  0
M  CHG  1  10   1
M  END
> <s_m_source_file>
AV-unprocessed.smi

> <i_m_source_file_index>
3028

> <i_lp_mmshare_version>
43012

> <i_f3d_flags>
0

> <s_epik_input>
W0NIM11jMVtjSF1ubihbY0hdMSlbQ0BIXShbQ0gzXSlbQ0BIXShbQ0gzXSlbTkhdW0NIMl1DKD1PKVtOSF1bQ0hdMltDSDJdW0NIMl1PW0NIMl1bQ0gyXTI=

> <s_epik_cmdline>
J2VwaWtfcHl0aG9uJywgJy1waCcsICc3LjAnLCAnLXRuJywgJzgnLCAnLW1hJywgJzIwMCcsICctbWV0YWxfYmluZGluZycsICctaW1hZScsICc8aW5maWxlLm1hZT4nLCAnLW9tYWUnLCAnPG91dGZpbGUubWFlPic=

> <r_lp_tautomer_probability>
1

> <r_epik_Ionization_Penalty>
0.151514

> <r_epik_Ionization_Penalty_Charging>
0.151494

> <r_epik_Ionization_Penalty_Neutral>
1.95502e-05

> <r_epik_State_Penalty>
0.141395

> <r_epik_Charging_Adjusted_Penalty>
0.292889

> <i_epik_Tot_Q>
1

> <i_epik_Tot_abs_Q>
1

> <r_epik_Metal_State_Penalty>
0.141632

> <b_epik_Metal_Only>
0

> <s_lp_Force_Field>
OPLS_2005

> <r_lp_Energy>
16.7547

> <b_lp_Chiralities_Consistent>
1

> <s_lp_Variant>
AV-unprocessed.smi:3028-3

> <Gold.Version>
5.8.1

> <Gold.Id.Protein>
6NUR|6NUR_protein|mol2

> <Gold.PLP.Fitness>
52.7963

> <Gold.PLP.PLP>
-36.9989

> <Gold.PLP.part.hbond>
-4.0000

> <Gold.PLP.part.metal>
0.0000

> <Gold.PLP.part.buried>
-1.5070

> <Gold.PLP.part.nonpolar>
-31.5088

> <Gold.PLP.part.repulsive>
0.9902

> <Gold.PLP.ligand.clash>
0.0000

> <Gold.PLP.ligand.torsion>
0.7627

> <Gold.PLP.Chemscore.Hbond>
4.9500

> <Gold.PLP.Chemscore.CHOScore>
0.7482

> <Gold.PLP.Chemscore.Metal>
0.0000

> <Gold.Chemscore.Hbonds>
donor molecule, donor type, donor heavy atom, donor atom, acceptor molecule, acceptor atom, score
      L1  H    10    34       P1  7957  1.00
      L1  H    10    48       P1  7948  1.92
      L1  H    14    37       P1  7948  1.00
      P1  H  7989  7998       L1     4  0.95
      L1  C    21    47       P1  8028  0.72

> <Gold.PLP.Chemscore.Internal.Correction>
0.2283

> <Gold.Rescore>
     Score         DG    S(hbond)    S(metal)    S(lipo)     H(rot)  DE(clash)    DE(int)     intcor
     20.81     -21.88       3.56        0.00      81.98       1.99       0.32       0.75       ----

> <Gold.Chemscore.Fitness>
20.8068

> <Gold.Chemscore.DG>
-21.8770

> <Gold.Chemscore.ZeroCoef>
-5.4800

> <Gold.Chemscore.Hbond>
3.5625

> <Gold.Chemscore.Metal>
0.0000

> <Gold.Chemscore.Lipo>
81.9825

> <Gold.Chemscore.Internal_Hbond>
0.0000

> <Gold.Chemscore.DEClash>
0.3182

> <Gold.Chemscore.DEInternal>
0.7520

> <Gold.Chemscore.Rot>
1.9897

> <Gold.Chemscore.Internal.Correction>
   9.000000E+99

> <Gold.Chemscore.Hbonds>
donor molecule, donor type, donor heavy atom, donor atom, acceptor molecule, acceptor atom, score
      L1  H    10    34       P1  7957  0.94
      L1  H    10    48       P1  7948  0.92
      L1  H    14    37       P1  7948  1.00
      P1  H  7989  7998       L1     4  0.14

> <Gold.Chemscore.Hbond.Weighted>
-11.8986

> <Gold.Chemscore.Metal.Weighted>
-0.0000

> <Gold.Chemscore.Lipo.Weighted>
-9.5920

> <Gold.Chemscore.Internal_Hbond.Weighted>
0.0000

> <Gold.Chemscore.DEClash.Weighted>
0.3182

> <Gold.Chemscore.DEInternal.Weighted>
0.7520

> <Gold.Chemscore.Rot.Weighted>
5.0936

> <Gold.Chemscore.Internal.Correction.Weighted>
   9.000000E+99

> <Gold.Protein.RotatedTorsions>
[ 6907 6896 6895 6894 ] final -159.97 input  -60.11 | X-H torsion
[ 7974 7965 7964 7962 ] final -100.77 input  175.53 | X-H torsion
[ 8008 7997 7996 7995 ] final -149.01 input   59.86 | X-H torsion
[ 10167 10162 10161 10158 ] final  -19.90 input  -65.29 | X-H torsion
[ 10718 10713 10712 10709 ] final -172.54 input   66.30 | X-H torsion
[ 10763 10752 10751 10750 ] final  -82.69 input  -60.55 | X-H torsion
[ 11005 11000 10999 10996 ] final  153.76 input  -57.11 | X-H torsion

> <Gold.Protein.ActiveResidues>
 VAL166  LYS551  ARG553  GLY616  TRP617  ASP618  TYR619  PRO620  LYS621  CYS622 
 ASP623  PHE694  ASN695  SER759  ASP760  ASP761  ALA762  ILE779  LEU786  VAL792 
 PHE793  MET794  SER795  GLU796  ALA797  LYS798  CYS799  TRP800  GLU811  SER814 

> <Gold.Protein.RotatedAtoms>
  151.3418  133.3959  159.2671 H   0  0  0  0  0  0  0  0  0  0  0  0  # atno 6907 bound_to 6896
  150.9872  134.9215  159.7889 H   0  0  0  0  0  0  0  0  0  0  0  0  # atno 6908 bound_to 6896
  152.5236  134.3383  159.9260 H   0  0  0  0  0  0  0  0  0  0  0  0  # atno 6909 bound_to 6896
  145.2903  140.9351  143.2882 H   0  0  0  0  0  0  0  0  0  0  0  0  # atno 7974 bound_to 7965
  155.6007  140.0662  157.2733 H   0  0  0  0  0  0  0  0  0  0  0  0  # atno 8008 bound_to 7997
  154.4279  140.1819  156.1218 H   0  0  0  0  0  0  0  0  0  0  0  0  # atno 8009 bound_to 7997
  156.0161  140.3321  155.6994 H   0  0  0  0  0  0  0  0  0  0  0  0  # atno 8010 bound_to 7997
  140.7272  143.4774  151.0164 H   0  0  0  0  0  0  0  0  0  0  0  0  # atno 10167 bound_to 10162
  156.7571  130.9400  151.3117 H   0  0  0  0  0  0  0  0  0  0  0  0  # atno 10718 bound_to 10713
  154.5788  135.5582  153.7165 H   0  0  0  0  0  0  0  0  0  0  0  0  # atno 10763 bound_to 10752
  153.0074  135.6315  154.2011 H   0  0  0  0  0  0  0  0  0  0  0  0  # atno 10764 bound_to 10752
  154.1952  135.2880  155.2989 H   0  0  0  0  0  0  0  0  0  0  0  0  # atno 10765 bound_to 10752
  140.1427  134.8728  157.2352 H   0  0  0  0  0  0  0  0  0  0  0  0  # atno 11005 bound_to 11000
  144.9179  139.4448  143.6555 LP  0  0  0  0  0  0  0  0  0  0  0  0  # atno 17320 bound_to 7965
  146.3187  139.8023  142.8963 LP  0  0  0  0  0  0  0  0  0  0  0  0  # atno 17321 bound_to 7965
  139.8470  143.7488  152.3179 LP  0  0  0  0  0  0  0  0  0  0  0  0  # atno 17342 bound_to 10162
  139.7657  144.7492  151.0298 LP  0  0  0  0  0  0  0  0  0  0  0  0  # atno 17343 bound_to 10162
  157.6751  130.9087  150.0131 LP  0  0  0  0  0  0  0  0  0  0  0  0  # atno 17370 bound_to 10713
  156.1363  130.3642  149.9652 LP  0  0  0  0  0  0  0  0  0  0  0  0  # atno 17371 bound_to 10713
  140.2702  134.3469  155.7376 LP  0  0  0  0  0  0  0  0  0  0  0  0  # atno 17394 bound_to 11000
  141.2188  133.7419  156.9212 LP  0  0  0  0  0  0  0  0  0  0  0  0  # atno 17395 bound_to 11000

$$$$
