AV-unprocessed.smi:2923|AV-procd|sdf|11217|dock7
  -GOLD-   2272016103D 1   1.00000     0.00000
 Structure written by MMmdl.
 46 48  0  0  0  0  0  0  0  0  1 V2000
  149.3790  128.2819  153.0398 C   0  0  0  0  0  0  0  0  0  0  0  0
  148.1758  129.0603  153.2908 N   0  0  0  0  0  0  0  0  0  0  0  0
  147.0527  128.8163  152.3991 C   0  0  0  0  0  0  0  0  0  0  0  0
  148.4351  130.4239  153.4799 C   0  0  0  0  0  0  0  0  0  0  0  0
  149.3591  130.8685  154.4528 C   0  0  0  0  0  0  0  0  0  0  0  0
  149.5770  132.2518  154.5991 C   0  0  0  0  0  0  0  0  0  0  0  0
  148.8694  133.1475  153.7626 C   0  0  0  0  0  0  0  0  0  0  0  0
  148.9814  134.5621  153.8288 N   0  0  0  0  0  0  0  0  0  0  0  0
  149.0743  135.3447  154.9171 C   0  0  0  0  0  0  0  0  0  0  0  0
  149.1144  134.9478  156.0814 O   0  0  0  0  0  0  0  0  0  0  0  0
  149.1355  136.6382  154.5757 N   0  0  0  0  0  0  0  0  0  0  0  0
  149.2646  137.7478  155.5263 C   0  0  1  0  0  0  0  0  0  0  0  0
  150.7252  138.1046  155.8139 C   0  0  1  0  0  0  0  0  0  0  0  0
  152.0394  137.4342  155.6363 C   0  0  0  0  0  0  0  0  0  0  0  0
  152.8227  138.6745  155.1263 C   0  0  0  0  0  0  0  0  0  0  0  0
  151.8273  139.6993  154.8732 O   0  0  0  0  0  0  0  0  0  0  0  0
  150.6558  138.9677  154.5706 C   0  0  2  0  0  0  0  0  0  0  0  0
  149.1651  139.1983  154.9047 C   0  0  0  0  0  0  0  0  0  0  0  0
  148.2406  139.3813  153.6959 C   0  0  0  0  0  0  0  0  0  0  0  0
  148.8324  140.3559  155.8638 C   0  0  0  0  0  0  0  0  0  0  0  0
  147.9624  132.5991  152.8325 C   0  0  0  0  0  0  0  0  0  0  0  0
  147.7495  131.2744  152.6860 N   0  0  0  0  0  0  0  0  0  0  0  0
  150.1554  128.5217  153.7674 H   0  0  0  0  0  0  0  0  0  0  0  0
  149.7706  128.4757  152.0408 H   0  0  0  0  0  0  0  0  0  0  0  0
  149.1611  127.2166  153.1198 H   0  0  0  0  0  0  0  0  0  0  0  0
  146.2019  129.4455  152.6640 H   0  0  0  0  0  0  0  0  0  0  0  0
  146.7359  127.7755  152.4701 H   0  0  0  0  0  0  0  0  0  0  0  0
  147.3239  129.0212  151.3629 H   0  0  0  0  0  0  0  0  0  0  0  0
  149.8889  130.1667  155.0803 H   0  0  0  0  0  0  0  0  0  0  0  0
  150.2660  132.5945  155.3552 H   0  0  0  0  0  0  0  0  0  0  0  0
  149.0469  135.0319  152.9378 H   0  0  0  0  0  0  0  0  0  0  0  0
  149.0997  136.8772  153.5957 H   0  0  0  0  0  0  0  0  0  0  0  0
  148.6727  137.6232  156.4347 H   0  0  0  0  0  0  0  0  0  0  0  0
  150.7584  138.6914  156.7351 H   0  0  0  0  0  0  0  0  0  0  0  0
  152.4434  137.0358  156.5674 H   0  0  0  0  0  0  0  0  0  0  0  0
  152.0011  136.6383  154.8914 H   0  0  0  0  0  0  0  0  0  0  0  0
  153.5398  139.0356  155.8640 H   0  0  0  0  0  0  0  0  0  0  0  0
  153.3674  138.4396  154.2110 H   0  0  0  0  0  0  0  0  0  0  0  0
  150.7851  138.4148  153.6344 H   0  0  0  0  0  0  0  0  0  0  0  0
  148.3256  140.3830  153.2735 H   0  0  0  0  0  0  0  0  0  0  0  0
  147.1961  139.2252  153.9672 H   0  0  0  0  0  0  0  0  0  0  0  0
  148.4735  138.6823  152.8925 H   0  0  0  0  0  0  0  0  0  0  0  0
  149.0837  141.3194  155.4193 H   0  0  0  0  0  0  0  0  0  0  0  0
  149.3623  140.3018  156.8132 H   0  0  0  0  0  0  0  0  0  0  0  0
  147.7692  140.3767  156.1053 H   0  0  0  0  0  0  0  0  0  0  0  0
  147.3899  133.2425  152.1806 H   0  0  0  0  0  0  0  0  0  0  0  0
  1  2  1  0  0  0  0
  1 23  1  0  0  0  0
  1 24  1  0  0  0  0
  1 25  1  0  0  0  0
  2  3  1  0  0  0  0
  2  4  1  0  0  0  0
  3 26  1  0  0  0  0
  3 27  1  0  0  0  0
  3 28  1  0  0  0  0
  4 22  1  0  0  0  0
  4  5  2  0  0  0  0
  5  6  1  0  0  0  0
  5 29  1  0  0  0  0
  6  7  2  0  0  0  0
  6 30  1  0  0  0  0
  7  8  1  0  0  0  0
  7 21  1  0  0  0  0
  8  9  1  0  0  0  0
  8 31  1  0  0  0  0
  9 10  2  0  0  0  0
  9 11  1  0  0  0  0
 11 12  1  0  0  0  0
 11 32  1  0  0  0  0
 12 18  1  0  0  0  0
 12 13  1  0  0  0  0
 12 33  1  0  0  0  0
 13 17  1  0  0  0  0
 13 14  1  0  0  0  0
 13 34  1  0  0  0  0
 14 15  1  0  0  0  0
 14 35  1  0  0  0  0
 14 36  1  0  0  0  0
 15 16  1  0  0  0  0
 15 37  1  0  0  0  0
 15 38  1  0  0  0  0
 16 17  1  0  0  0  0
 17 18  1  0  0  0  0
 17 39  1  0  0  0  0
 18 19  1  0  0  0  0
 18 20  1  0  0  0  0
 19 40  1  0  0  0  0
 19 41  1  0  0  0  0
 19 42  1  0  0  0  0
 20 43  1  0  0  0  0
 20 44  1  0  0  0  0
 20 45  1  0  0  0  0
 21 22  2  0  0  0  0
 21 46  1  0  0  0  0
M  END
> <s_m_source_file>
AV-unprocessed.smi

> <i_m_source_file_index>
2923

> <i_lp_mmshare_version>
43012

> <i_f3d_flags>
0

> <s_epik_input>
W0NIM11OKFtDSDNdKWMxW2NIXVtjSF1jKFtjSF1uMSlbTkhdQyg9TylbTkhdW0NASF0yQyhbQ0gzXSkoW0NIM10pW0NAQEhdKFtDQEhdMjMpT1tDSDJdW0NIMl0z

> <s_epik_cmdline>
J2VwaWtfcHl0aG9uJywgJy1waCcsICc3LjAnLCAnLXRuJywgJzgnLCAnLW1hJywgJzIwMCcsICctbWV0YWxfYmluZGluZycsICctaW1hZScsICc8aW5maWxlLm1hZT4nLCAnLW9tYWUnLCAnPG91dGZpbGUubWFlPic=

> <r_lp_tautomer_probability>
1

> <r_epik_Ionization_Penalty>
0.628785

> <r_epik_Ionization_Penalty_Charging>
0

> <r_epik_Ionization_Penalty_Neutral>
0.628785

> <r_epik_State_Penalty>
0.644286

> <r_epik_Charging_Adjusted_Penalty>
0.644286

> <i_epik_Tot_Q>
0

> <i_epik_Tot_abs_Q>
0

> <r_epik_Metal_State_Penalty>
0.308404

> <b_epik_Metal_Only>
0

> <s_lp_Force_Field>
OPLS_2005

> <r_lp_Energy>
70.0187

> <b_lp_Chiralities_Consistent>
1

> <s_lp_Variant>
AV-unprocessed.smi:2923-16

> <Gold.Version>
5.8.1

> <Gold.Id.Protein>
6NUR|6NUR_protein|mol2

> <Gold.PLP.Fitness>
39.9157

> <Gold.PLP.PLP>
-32.0272

> <Gold.PLP.part.hbond>
-3.0000

> <Gold.PLP.part.metal>
0.0000

> <Gold.PLP.part.buried>
-2.5817

> <Gold.PLP.part.nonpolar>
-26.9292

> <Gold.PLP.part.repulsive>
0.8249

> <Gold.PLP.ligand.clash>
0.0000

> <Gold.PLP.ligand.torsion>
0.6349

> <Gold.PLP.Chemscore.Hbond>
2.8960

> <Gold.PLP.Chemscore.CHOScore>
0.0000

> <Gold.PLP.Chemscore.Metal>
0.0000

> <Gold.Chemscore.Hbonds>
donor molecule, donor type, donor heavy atom, donor atom, acceptor molecule, acceptor atom, score
      L1  H     8    31       P1  7948  0.70
      L1  H    11    32       P1  7948  0.93
      P1  H  7989  7998       L1    16  0.80

> <Gold.PLP.Chemscore.Internal.Correction>
0.4703

> <Gold.Rescore>
     Score         DG    S(hbond)    S(metal)    S(lipo)     H(rot)  DE(clash)    DE(int)     intcor
     18.82     -19.42       2.47        0.00      74.76       1.19       0.01       0.60       ----

> <Gold.Chemscore.Fitness>
18.8159

> <Gold.Chemscore.DG>
-19.4248

> <Gold.Chemscore.ZeroCoef>
-5.4800

> <Gold.Chemscore.Hbond>
2.4710

> <Gold.Chemscore.Metal>
0.0000

> <Gold.Chemscore.Lipo>
74.7646

> <Gold.Chemscore.Internal_Hbond>
0.0000

> <Gold.Chemscore.DEClash>
0.0050

> <Gold.Chemscore.DEInternal>
0.6038

> <Gold.Chemscore.Rot>
1.1937

> <Gold.Chemscore.Internal.Correction>
   9.000000E+99

> <Gold.Chemscore.Hbonds>
donor molecule, donor type, donor heavy atom, donor atom, acceptor molecule, acceptor atom, score
      L1  H     8    31       P1  7948  0.07
      L1  H    11    32       P1  7948  0.89
      P1  H  7989  7998       L1    16  0.11

> <Gold.Chemscore.Hbond.Weighted>
-8.2532

> <Gold.Chemscore.Metal.Weighted>
-0.0000

> <Gold.Chemscore.Lipo.Weighted>
-8.7475

> <Gold.Chemscore.Internal_Hbond.Weighted>
0.0000

> <Gold.Chemscore.DEClash.Weighted>
0.0050

> <Gold.Chemscore.DEInternal.Weighted>
0.6038

> <Gold.Chemscore.Rot.Weighted>
3.0559

> <Gold.Chemscore.Internal.Correction.Weighted>
   9.000000E+99

> <Gold.Protein.RotatedTorsions>
[ 6907 6896 6895 6894 ] final -107.22 input  -60.11 | X-H torsion
[ 7974 7965 7964 7962 ] final  -82.40 input  175.53 | X-H torsion
[ 8008 7997 7996 7995 ] final  177.13 input   59.86 | X-H torsion
[ 10167 10162 10161 10158 ] final -144.92 input  -65.29 | X-H torsion
[ 10718 10713 10712 10709 ] final -116.96 input   66.30 | X-H torsion
[ 10763 10752 10751 10750 ] final  112.49 input  -60.55 | X-H torsion
[ 11005 11000 10999 10996 ] final   83.96 input  -57.11 | X-H torsion

> <Gold.Protein.ActiveResidues>
 VAL166  LYS551  ARG553  GLY616  TRP617  ASP618  TYR619  PRO620  LYS621  CYS622 
 ASP623  PHE694  ASN695  SER759  ASP760  ASP761  ALA762  ILE779  LEU786  VAL792 
 PHE793  MET794  SER795  GLU796  ALA797  LYS798  CYS799  TRP800  GLU811  SER814 

> <Gold.Protein.RotatedAtoms>
  150.7432  133.9859  159.3591 H   0  0  0  0  0  0  0  0  0  0  0  0  # atno 6907 bound_to 6896
  151.7803  135.0761  160.0382 H   0  0  0  0  0  0  0  0  0  0  0  0  # atno 6908 bound_to 6896
  152.3278  133.5888  159.5825 H   0  0  0  0  0  0  0  0  0  0  0  0  # atno 6909 bound_to 6896
  145.5338  140.9518  143.1588 H   0  0  0  0  0  0  0  0  0  0  0  0  # atno 7974 bound_to 7965
  156.0690  140.1366  156.9851 H   0  0  0  0  0  0  0  0  0  0  0  0  # atno 8008 bound_to 7997
  154.4522  140.0975  156.6702 H   0  0  0  0  0  0  0  0  0  0  0  0  # atno 8009 bound_to 7997
  155.5258  140.3457  155.4418 H   0  0  0  0  0  0  0  0  0  0  0  0  # atno 8010 bound_to 7997
  139.7854  143.8041  152.2644 H   0  0  0  0  0  0  0  0  0  0  0  0  # atno 10167 bound_to 10162
  156.1000  130.6164  150.9103 H   0  0  0  0  0  0  0  0  0  0  0  0  # atno 10718 bound_to 10713
  153.4785  135.3684  155.2429 H   0  0  0  0  0  0  0  0  0  0  0  0  # atno 10763 bound_to 10752
  154.8755  135.3948  154.3727 H   0  0  0  0  0  0  0  0  0  0  0  0  # atno 10764 bound_to 10752
  153.4327  135.7082  153.6285 H   0  0  0  0  0  0  0  0  0  0  0  0  # atno 10765 bound_to 10752
  139.9015  134.8182  156.2380 H   0  0  0  0  0  0  0  0  0  0  0  0  # atno 11005 bound_to 11000
  144.7612  139.6953  143.7233 LP  0  0  0  0  0  0  0  0  0  0  0  0  # atno 17320 bound_to 7965
  146.2026  139.5330  142.9733 LP  0  0  0  0  0  0  0  0  0  0  0  0  # atno 17321 bound_to 7965
  139.8117  144.7333  150.9689 LP  0  0  0  0  0  0  0  0  0  0  0  0  # atno 17342 bound_to 10162
  140.7819  143.4244  151.0790 LP  0  0  0  0  0  0  0  0  0  0  0  0  # atno 17343 bound_to 10162
  157.6168  131.0932  150.8695 LP  0  0  0  0  0  0  0  0  0  0  0  0  # atno 17370 bound_to 10713
  156.8825  130.5184  149.5290 LP  0  0  0  0  0  0  0  0  0  0  0  0  # atno 17371 bound_to 10713
  141.0303  133.6992  156.1418 LP  0  0  0  0  0  0  0  0  0  0  0  0  # atno 17394 bound_to 11000
  140.7106  134.4465  157.5582 LP  0  0  0  0  0  0  0  0  0  0  0  0  # atno 17395 bound_to 11000

$$$$
