AV-unprocessed.smi:946|AV-procd|sdf|4237|dock8
  -GOLD-   22720 2153D 1   1.00000     0.00000
 Structure written by MMmdl.
 42 43  0  0  0  0  0  0  0  0  1 V2000
  150.7509  135.8892  156.6753 C   0  0  0  0  0  0  0  0  0  0  0  0
  150.2159  136.7373  157.8389 C   0  0  1  0  0  0  0  0  0  0  0  0
  149.4949  135.8681  158.7089 O   0  0  0  0  0  0  0  0  0  0  0  0
  148.6065  136.5085  159.6181 C   0  0  0  0  0  0  0  0  0  0  0  0
  148.3897  135.5914  160.8286 C   0  0  1  0  0  0  0  0  0  0  0  0
  147.3259  136.1548  161.7912 C   0  0  0  0  0  0  0  0  0  0  0  0
  147.0636  135.1741  162.9398 C   0  0  0  0  0  0  0  0  0  0  0  0
  146.7231  133.7930  162.3707 C   0  0  0  0  0  0  0  0  0  0  0  0
  147.8029  133.3460  161.3728 C   0  0  0  0  0  0  0  0  0  0  0  0
  147.9478  134.3235  160.3470 O   0  0  0  0  0  0  0  0  0  0  0  0
  151.3566  137.4357  158.5972 C   0  0  0  0  0  0  0  0  0  0  0  0
  152.2035  136.7607  159.1835 O   0  0  0  0  0  0  0  0  0  0  0  0
  151.3330  138.7817  158.5733 N   0  0  0  0  0  0  0  0  0  0  0  0
  152.2361  139.6894  159.1861 C   0  0  0  0  0  0  0  0  0  0  0  0
  151.8992  141.0539  159.0485 C   0  0  0  0  0  0  0  0  0  0  0  0
  152.7311  142.0332  159.6232 C   0  0  0  0  0  0  0  0  0  0  0  0
  153.8808  141.6237  160.3215 C   0  0  0  0  0  0  0  0  0  0  0  0
  154.1505  140.2415  160.4141 C   0  0  0  0  0  0  0  0  0  0  0  0
  155.3757  139.7147  161.1482 C   0  0  0  0  0  0  0  0  0  0  0  0
  155.3819  138.3820  161.1141 F   0  0  0  0  0  0  0  0  0  0  0  0
  156.5076  140.1550  160.5977 F   0  0  0  0  0  0  0  0  0  0  0  0
  155.3434  140.1122  162.4204 F   0  0  0  0  0  0  0  0  0  0  0  0
  153.3473  139.3047  159.8608 N   0  0  0  0  0  0  0  0  0  0  0  0
  151.3294  136.4948  155.9768 H   0  0  0  0  0  0  0  0  0  0  0  0
  149.9294  135.4390  156.1175 H   0  0  0  0  0  0  0  0  0  0  0  0
  151.3906  135.0791  157.0277 H   0  0  0  0  0  0  0  0  0  0  0  0
  149.5327  137.4839  157.4292 H   0  0  0  0  0  0  0  0  0  0  0  0
  149.0378  137.4530  159.9517 H   0  0  0  0  0  0  0  0  0  0  0  0
  147.6525  136.7343  159.1390 H   0  0  0  0  0  0  0  0  0  0  0  0
  149.3353  135.4757  161.3614 H   0  0  0  0  0  0  0  0  0  0  0  0
  147.6477  137.1169  162.1909 H   0  0  0  0  0  0  0  0  0  0  0  0
  146.3973  136.3363  161.2483 H   0  0  0  0  0  0  0  0  0  0  0  0
  147.9493  135.1036  163.5721 H   0  0  0  0  0  0  0  0  0  0  0  0
  146.2526  135.5357  163.5725 H   0  0  0  0  0  0  0  0  0  0  0  0
  146.6272  133.0653  163.1769 H   0  0  0  0  0  0  0  0  0  0  0  0
  145.7566  133.8318  161.8664 H   0  0  0  0  0  0  0  0  0  0  0  0
  148.7578  133.1854  161.8758 H   0  0  0  0  0  0  0  0  0  0  0  0
  147.5206  132.3971  160.9165 H   0  0  0  0  0  0  0  0  0  0  0  0
  150.5758  139.2042  158.0566 H   0  0  0  0  0  0  0  0  0  0  0  0
  151.0124  141.3525  158.5084 H   0  0  0  0  0  0  0  0  0  0  0  0
  152.4908  143.0819  159.5291 H   0  0  0  0  0  0  0  0  0  0  0  0
  154.5332  142.3577  160.7705 H   0  0  0  0  0  0  0  0  0  0  0  0
  1  2  1  0  0  0  0
  1 24  1  0  0  0  0
  1 25  1  0  0  0  0
  1 26  1  0  0  0  0
  2  3  1  0  0  0  0
  2 11  1  0  0  0  0
  2 27  1  0  0  0  0
  3  4  1  0  0  0  0
  4  5  1  0  0  0  0
  4 28  1  0  0  0  0
  4 29  1  0  0  0  0
  5 10  1  0  0  0  0
  5  6  1  0  0  0  0
  5 30  1  0  0  0  0
  6  7  1  0  0  0  0
  6 31  1  0  0  0  0
  6 32  1  0  0  0  0
  7  8  1  0  0  0  0
  7 33  1  0  0  0  0
  7 34  1  0  0  0  0
  8  9  1  0  0  0  0
  8 35  1  0  0  0  0
  8 36  1  0  0  0  0
  9 10  1  0  0  0  0
  9 37  1  0  0  0  0
  9 38  1  0  0  0  0
 11 12  2  0  0  0  0
 11 13  1  0  0  0  0
 13 14  1  0  0  0  0
 13 39  1  0  0  0  0
 14 23  1  0  0  0  0
 14 15  2  0  0  0  0
 15 16  1  0  0  0  0
 15 40  1  0  0  0  0
 16 17  2  0  0  0  0
 16 41  1  0  0  0  0
 17 18  1  0  0  0  0
 17 42  1  0  0  0  0
 18 19  1  0  0  0  0
 18 23  2  0  0  0  0
 19 20  1  0  0  0  0
 19 21  1  0  0  0  0
 19 22  1  0  0  0  0
M  END
> <s_m_source_file>
AV-unprocessed.smi

> <i_m_source_file_index>
946

> <i_lp_mmshare_version>
43012

> <i_f3d_flags>
0

> <s_epik_input>
TzFbQ0gyXVtDSDJdW0NIMl1bQ0gyXVtDQEhdMVtDSDJdT1tDQEBIXShbQ0gzXSlDKD1PKVtOSF1jMltjSF1bY0hdW2NIXWMobjIpQyhGKShGKUY=

> <s_epik_cmdline>
J2VwaWtfcHl0aG9uJywgJy1waCcsICc3LjAnLCAnLXRuJywgJzgnLCAnLW1hJywgJzIwMCcsICctbWV0YWxfYmluZGluZycsICctaW1hZScsICc8aW5maWxlLm1hZT4nLCAnLW9tYWUnLCAnPG91dGZpbGUubWFlPic=

> <r_lp_tautomer_probability>
1

> <r_epik_Ionization_Penalty>
1.32683e-06

> <r_epik_Ionization_Penalty_Charging>
0

> <r_epik_Ionization_Penalty_Neutral>
1.32683e-06

> <r_epik_State_Penalty>
-0

> <r_epik_Charging_Adjusted_Penalty>
0

> <i_epik_Tot_Q>
0

> <i_epik_Tot_abs_Q>
0

> <r_epik_Metal_State_Penalty>
-0

> <b_epik_Metal_Only>
0

> <s_lp_Force_Field>
OPLS_2005

> <r_lp_Energy>
14.7702

> <b_lp_Chiralities_Consistent>
1

> <s_lp_Variant>
AV-unprocessed.smi:946-4

> <Gold.Version>
5.8.1

> <Gold.Id.Protein>
6NUR|6NUR_protein|mol2

> <Gold.PLP.Fitness>
46.3749

> <Gold.PLP.PLP>
-42.0353

> <Gold.PLP.part.hbond>
-2.0000

> <Gold.PLP.part.metal>
0.0000

> <Gold.PLP.part.buried>
-4.2796

> <Gold.PLP.part.nonpolar>
-36.0749

> <Gold.PLP.part.repulsive>
0.1006

> <Gold.PLP.ligand.clash>
0.0000

> <Gold.PLP.ligand.torsion>
0.3103

> <Gold.PLP.Chemscore.Hbond>
1.6415

> <Gold.PLP.Chemscore.CHOScore>
0.0000

> <Gold.PLP.Chemscore.Metal>
0.0000

> <Gold.Chemscore.Hbonds>
donor molecule, donor type, donor heavy atom, donor atom, acceptor molecule, acceptor atom, score
      P1  H  6896  6908       L1     3  1.00
      P1  H  6896  6909       L1    12  0.62

> <Gold.PLP.Chemscore.Internal.Correction>
0.0356

> <Gold.Rescore>
     Score         DG    S(hbond)    S(metal)    S(lipo)     H(rot)  DE(clash)    DE(int)     intcor
     15.15     -17.59       1.62        0.00      95.62       1.76       0.78       1.66       ----

> <Gold.Chemscore.Fitness>
15.1498

> <Gold.Chemscore.DG>
-17.5894

> <Gold.Chemscore.ZeroCoef>
-5.4800

> <Gold.Chemscore.Hbond>
1.6216

> <Gold.Chemscore.Metal>
0.0000

> <Gold.Chemscore.Lipo>
95.6225

> <Gold.Chemscore.Internal_Hbond>
0.0000

> <Gold.Chemscore.DEClash>
0.7807

> <Gold.Chemscore.DEInternal>
1.6589

> <Gold.Chemscore.Rot>
1.7557

> <Gold.Chemscore.Internal.Correction>
   9.000000E+99

> <Gold.Chemscore.Hbonds>
donor molecule, donor type, donor heavy atom, donor atom, acceptor molecule, acceptor atom, score
      P1  H  6896  6908       L1     3  0.72
      P1  H  6896  6909       L1    12  0.59

> <Gold.Chemscore.Hbond.Weighted>
-5.4162

> <Gold.Chemscore.Metal.Weighted>
-0.0000

> <Gold.Chemscore.Lipo.Weighted>
-11.1878

> <Gold.Chemscore.Internal_Hbond.Weighted>
0.0000

> <Gold.Chemscore.DEClash.Weighted>
0.7807

> <Gold.Chemscore.DEInternal.Weighted>
1.6589

> <Gold.Chemscore.Rot.Weighted>
4.4946

> <Gold.Chemscore.Internal.Correction.Weighted>
   9.000000E+99

> <Gold.Protein.RotatedTorsions>
[ 6907 6896 6895 6894 ] final  160.69 input  -60.11 | X-H torsion
[ 7974 7965 7964 7962 ] final   38.38 input  175.53 | X-H torsion
[ 8008 7997 7996 7995 ] final  -53.25 input   59.86 | X-H torsion
[ 10167 10162 10161 10158 ] final  -94.81 input  -65.29 | X-H torsion
[ 10718 10713 10712 10709 ] final   69.42 input   66.30 | X-H torsion
[ 10763 10752 10751 10750 ] final -101.94 input  -60.55 | X-H torsion
[ 11005 11000 10999 10996 ] final   74.57 input  -57.11 | X-H torsion

> <Gold.Protein.ActiveResidues>
 VAL166  LYS551  ARG553  GLY616  TRP617  ASP618  TYR619  PRO620  LYS621  CYS622 
 ASP623  PHE694  ASN695  SER759  ASP760  ASP761  ALA762  ILE779  LEU786  VAL792 
 PHE793  MET794  SER795  GLU796  ALA797  LYS798  CYS799  TRP800  GLU811  SER814 

> <Gold.Protein.RotatedAtoms>
  151.9668  133.3713  159.4055 H   0  0  0  0  0  0  0  0  0  0  0  0  # atno 6907 bound_to 6896
  150.6955  134.4182  159.5202 H   0  0  0  0  0  0  0  0  0  0  0  0  # atno 6908 bound_to 6896
  152.1880  134.8697  160.0571 H   0  0  0  0  0  0  0  0  0  0  0  0  # atno 6909 bound_to 6896
  146.1066  139.5779  142.9379 H   0  0  0  0  0  0  0  0  0  0  0  0  # atno 7974 bound_to 7965
  154.4128  140.1204  156.5123 H   0  0  0  0  0  0  0  0  0  0  0  0  # atno 8008 bound_to 7997
  155.6787  140.3496  155.4827 H   0  0  0  0  0  0  0  0  0  0  0  0  # atno 8009 bound_to 7997
  155.9570  140.1115  157.0918 H   0  0  0  0  0  0  0  0  0  0  0  0  # atno 8010 bound_to 7997
  140.3106  143.3107  152.0152 H   0  0  0  0  0  0  0  0  0  0  0  0  # atno 10167 bound_to 10162
  157.6345  130.9425  150.0511 H   0  0  0  0  0  0  0  0  0  0  0  0  # atno 10718 bound_to 10713
  154.7696  135.4879  153.9623 H   0  0  0  0  0  0  0  0  0  0  0  0  # atno 10763 bound_to 10752
  153.1351  135.6761  153.9123 H   0  0  0  0  0  0  0  0  0  0  0  0  # atno 10764 bound_to 10752
  153.8814  135.3131  155.3424 H   0  0  0  0  0  0  0  0  0  0  0  0  # atno 10765 bound_to 10752
  139.9385  134.7444  156.1164 H   0  0  0  0  0  0  0  0  0  0  0  0  # atno 11005 bound_to 11000
  145.5748  141.0390  143.2154 LP  0  0  0  0  0  0  0  0  0  0  0  0  # atno 17320 bound_to 7965
  144.7476  139.7278  143.7286 LP  0  0  0  0  0  0  0  0  0  0  0  0  # atno 17321 bound_to 7965
  139.4894  144.6387  151.6921 LP  0  0  0  0  0  0  0  0  0  0  0  0  # atno 17342 bound_to 10162
  140.5571  144.0329  150.6153 LP  0  0  0  0  0  0  0  0  0  0  0  0  # atno 17343 bound_to 10162
  156.1573  130.3643  149.9351 LP  0  0  0  0  0  0  0  0  0  0  0  0  # atno 17370 bound_to 10713
  156.7357  130.9060  151.3629 LP  0  0  0  0  0  0  0  0  0  0  0  0  # atno 17371 bound_to 10713
  141.1009  133.6677  156.2752 LP  0  0  0  0  0  0  0  0  0  0  0  0  # atno 17394 bound_to 11000
  140.6014  134.5551  157.5518 LP  0  0  0  0  0  0  0  0  0  0  0  0  # atno 17395 bound_to 11000

$$$$
