AV-unprocessed.smi:274|AV-procd|sdf|2060|dock6
  -GOLD-   2262021303D 1   1.00000     0.00000
 Structure written by MMmdl.
 50 53  0  0  0  0  0  0  0  0  1 V2000
  151.8507  141.5190  156.3488 C   0  0  0  0  0  0  0  0  0  0  0  0
  150.3131  141.6021  156.4295 C   0  0  0  0  0  0  0  0  0  0  0  0
  149.9139  142.1399  157.8187 C   0  0  0  0  0  0  0  0  0  0  0  0
  149.5993  140.2537  156.0964 C   0  0  2  0  0  0  0  0  0  0  0  0
  149.7723  139.8365  154.6136 C   0  0  0  0  0  0  0  0  0  0  0  0
  150.8369  139.3551  154.2320 O   0  0  0  0  0  0  0  0  0  0  0  0
  148.7349  139.9780  153.7686 N   0  0  0  0  0  0  0  0  0  0  0  0
  147.3969  140.4572  154.1161 C   0  0  0  0  0  0  0  0  0  0  0  0
  147.3150  141.0727  155.5245 C   0  0  0  0  0  0  0  0  0  0  0  0
  148.1730  140.3412  156.4536 N   0  0  0  0  0  0  0  0  0  0  0  0
  147.5767  139.2779  157.0530 C   0  0  0  0  0  0  0  0  0  0  0  0
  146.2539  139.0323  156.8555 N   0  0  0  0  0  0  0  0  0  0  0  0
  145.6616  137.9998  157.4623 C   0  0  0  0  0  0  0  0  0  0  0  0
  146.1944  137.1050  158.2966 N   0  0  0  0  0  0  0  0  0  0  0  0
  147.5216  137.3457  158.4986 C   0  0  0  0  0  0  0  0  0  0  0  0
  148.2847  138.3966  157.9165 C   0  0  0  0  0  0  0  0  0  0  0  0
  149.6065  138.3118  158.3365 N   0  0  0  0  0  0  0  0  0  0  0  0
  149.6223  137.2736  159.1270 C   0  0  0  0  0  0  0  0  0  0  0  0
  148.4095  136.6436  159.2959 N   0  0  0  0  0  0  0  0  0  0  0  0
  148.1384  135.4740  160.1186 C   0  0  0  0  0  0  0  0  0  0  0  0
  147.2895  135.7679  161.3826 C   0  0  2  0  0  0  0  0  0  0  0  0
  147.5760  137.0739  161.8482 O   0  0  0  0  0  0  0  0  0  0  0  0
  147.5007  134.7718  162.5256 C   0  0  0  0  0  0  0  0  0  0  0  0
  146.3159  133.8279  162.3817 C   0  0  0  0  0  0  0  0  0  0  0  0
  145.2667  134.7122  162.0333 O   0  0  0  0  0  0  0  0  0  0  0  0
  145.7797  135.6451  161.0903 C   0  0  0  0  0  0  0  0  0  0  0  0
  152.2385  140.7273  156.9904 H   0  0  0  0  0  0  0  0  0  0  0  0
  152.3112  142.4552  156.6653 H   0  0  0  0  0  0  0  0  0  0  0  0
  152.1991  141.3318  155.3336 H   0  0  0  0  0  0  0  0  0  0  0  0
  150.0042  142.3492  155.6977 H   0  0  0  0  0  0  0  0  0  0  0  0
  150.1553  141.4222  158.6033 H   0  0  0  0  0  0  0  0  0  0  0  0
  148.8476  142.3579  157.8829 H   0  0  0  0  0  0  0  0  0  0  0  0
  150.4379  143.0685  158.0470 H   0  0  0  0  0  0  0  0  0  0  0  0
  150.0807  139.4868  156.7061 H   0  0  0  0  0  0  0  0  0  0  0  0
  148.8766  139.6942  152.8100 H   0  0  0  0  0  0  0  0  0  0  0  0
  147.0545  141.1702  153.3662 H   0  0  0  0  0  0  0  0  0  0  0  0
  146.7264  139.5989  154.0605 H   0  0  0  0  0  0  0  0  0  0  0  0
  147.6479  142.1098  155.4913 H   0  0  0  0  0  0  0  0  0  0  0  0
  146.2765  141.1099  155.8547 H   0  0  0  0  0  0  0  0  0  0  0  0
  144.6100  137.8743  157.2511 H   0  0  0  0  0  0  0  0  0  0  0  0
  150.5260  136.9396  159.6158 H   0  0  0  0  0  0  0  0  0  0  0  0
  147.6343  134.7334  159.4958 H   0  0  0  0  0  0  0  0  0  0  0  0
  149.0937  135.0308  160.4029 H   0  0  0  0  0  0  0  0  0  0  0  0
  147.1719  137.1851  162.6952 H   0  0  0  0  0  0  0  0  0  0  0  0
  148.4552  134.2491  162.5019 H   0  0  0  0  0  0  0  0  0  0  0  0
  147.4307  135.2722  163.4930 H   0  0  0  0  0  0  0  0  0  0  0  0
  146.4796  133.1089  161.5771 H   0  0  0  0  0  0  0  0  0  0  0  0
  146.0962  133.2812  163.2988 H   0  0  0  0  0  0  0  0  0  0  0  0
  145.2458  136.5931  161.1678 H   0  0  0  0  0  0  0  0  0  0  0  0
  145.6015  135.2533  160.0881 H   0  0  0  0  0  0  0  0  0  0  0  0
  1  2  1  0  0  0  0
  1 27  1  0  0  0  0
  1 28  1  0  0  0  0
  1 29  1  0  0  0  0
  2  3  1  0  0  0  0
  2  4  1  0  0  0  0
  2 30  1  0  0  0  0
  3 31  1  0  0  0  0
  3 32  1  0  0  0  0
  3 33  1  0  0  0  0
  4 10  1  0  0  0  0
  4  5  1  0  0  0  0
  4 34  1  0  0  0  0
  5  6  2  0  0  0  0
  5  7  1  0  0  0  0
  7  8  1  0  0  0  0
  7 35  1  0  0  0  0
  8  9  1  0  0  0  0
  8 36  1  0  0  0  0
  8 37  1  0  0  0  0
  9 10  1  0  0  0  0
  9 38  1  0  0  0  0
  9 39  1  0  0  0  0
 10 11  1  0  0  0  0
 11 16  1  0  0  0  0
 11 12  2  0  0  0  0
 12 13  1  0  0  0  0
 13 14  2  0  0  0  0
 13 40  1  0  0  0  0
 14 15  1  0  0  0  0
 15 19  1  0  0  0  0
 15 16  2  0  0  0  0
 16 17  1  0  0  0  0
 17 18  2  0  0  0  0
 18 19  1  0  0  0  0
 18 41  1  0  0  0  0
 19 20  1  0  0  0  0
 20 21  1  0  0  0  0
 20 42  1  0  0  0  0
 20 43  1  0  0  0  0
 21 26  1  0  0  0  0
 21 22  1  0  0  0  0
 21 23  1  0  0  0  0
 22 44  1  0  0  0  0
 23 24  1  0  0  0  0
 23 45  1  0  0  0  0
 23 46  1  0  0  0  0
 24 25  1  0  0  0  0
 24 47  1  0  0  0  0
 24 48  1  0  0  0  0
 25 26  1  0  0  0  0
 26 49  1  0  0  0  0
 26 50  1  0  0  0  0
M  END
> <s_m_source_file>
AV-unprocessed.smi

> <i_m_source_file_index>
274

> <i_lp_mmshare_version>
43012

> <i_f3d_flags>
0

> <s_epik_input>
W0NIM11bQ0hdKFtDSDNdKVtDQEBIXTFDKD1PKVtOSF1bQ0gyXVtDSDJdTjFjKG5bY0hdbjIpYyhjMjMpbltjSF1uM1tDSDJdW0NAQF00KFtPSF0pW0NIMl1bQ0gyXU9bQ0gyXTQ=

> <s_epik_cmdline>
J2VwaWtfcHl0aG9uJywgJy1waCcsICc3LjAnLCAnLXRuJywgJzgnLCAnLW1hJywgJzIwMCcsICctbWV0YWxfYmluZGluZycsICctaW1hZScsICc8aW5maWxlLm1hZT4nLCAnLW9tYWUnLCAnPG91dGZpbGUubWFlPic=

> <r_lp_tautomer_probability>
1

> <r_epik_Ionization_Penalty>
0.000690079

> <r_epik_Ionization_Penalty_Charging>
0

> <r_epik_Ionization_Penalty_Neutral>
0.000690079

> <r_epik_State_Penalty>
0.000321372

> <r_epik_Charging_Adjusted_Penalty>
0.000321372

> <i_epik_Tot_Q>
0

> <i_epik_Tot_abs_Q>
0

> <r_epik_Metal_State_Penalty>
-0

> <b_epik_Metal_Only>
0

> <s_lp_Force_Field>
OPLS_2005

> <r_lp_Energy>
42.4

> <b_lp_Chiralities_Consistent>
1

> <s_lp_Variant>
AV-unprocessed.smi:274-3

> <Gold.Version>
5.8.1

> <Gold.Id.Protein>
6NUR|6NUR_protein|mol2

> <Gold.PLP.Fitness>
41.3196

> <Gold.PLP.PLP>
-32.1443

> <Gold.PLP.part.hbond>
-4.0000

> <Gold.PLP.part.metal>
0.0000

> <Gold.PLP.part.buried>
-6.0600

> <Gold.PLP.part.nonpolar>
-21.7673

> <Gold.PLP.part.repulsive>
0.2852

> <Gold.PLP.ligand.clash>
0.0000

> <Gold.PLP.ligand.torsion>
1.1219

> <Gold.PLP.Chemscore.Hbond>
3.6128

> <Gold.PLP.Chemscore.CHOScore>
0.0000

> <Gold.PLP.Chemscore.Metal>
0.0000

> <Gold.Chemscore.Hbonds>
donor molecule, donor type, donor heavy atom, donor atom, acceptor molecule, acceptor atom, score
      L1  H     7    35       P1  7957  0.99
      P1  H  6931  6943       L1    22  1.00
      P1  H  6934  6947       L1    22  0.45
      P1  H  7989  7998       L1     6  1.00

> <Gold.PLP.Chemscore.Internal.Correction>
0.5808

> <Gold.Rescore>
     Score         DG    S(hbond)    S(metal)    S(lipo)     H(rot)  DE(clash)    DE(int)     intcor
     12.98     -16.31       2.77        0.00      68.06       2.50       1.45       1.88       ----

> <Gold.Chemscore.Fitness>
12.9798

> <Gold.Chemscore.DG>
-16.3105

> <Gold.Chemscore.ZeroCoef>
-5.4800

> <Gold.Chemscore.Hbond>
2.7738

> <Gold.Chemscore.Metal>
0.0000

> <Gold.Chemscore.Lipo>
68.0599

> <Gold.Chemscore.Internal_Hbond>
0.0000

> <Gold.Chemscore.DEClash>
1.4484

> <Gold.Chemscore.DEInternal>
1.8824

> <Gold.Chemscore.Rot>
2.4988

> <Gold.Chemscore.Internal.Correction>
   9.000000E+99

> <Gold.Chemscore.Hbonds>
donor molecule, donor type, donor heavy atom, donor atom, acceptor molecule, acceptor atom, score
      L1  H     7    35       P1  7957  0.93
      P1  H  6931  6943       L1    22  0.38
      P1  H  6934  6947       L1    22  0.14
      P1  H  7989  7998       L1     6  0.30

> <Gold.Chemscore.Hbond.Weighted>
-9.2645

> <Gold.Chemscore.Metal.Weighted>
-0.0000

> <Gold.Chemscore.Lipo.Weighted>
-7.9630

> <Gold.Chemscore.Internal_Hbond.Weighted>
0.0000

> <Gold.Chemscore.DEClash.Weighted>
1.4484

> <Gold.Chemscore.DEInternal.Weighted>
1.8824

> <Gold.Chemscore.Rot.Weighted>
6.3970

> <Gold.Chemscore.Internal.Correction.Weighted>
   9.000000E+99

> <Gold.Protein.RotatedTorsions>
[ 6907 6896 6895 6894 ] final -119.68 input  -60.11 | X-H torsion
[ 7974 7965 7964 7962 ] final -171.28 input  175.53 | X-H torsion
[ 8008 7997 7996 7995 ] final    8.57 input   59.86 | X-H torsion
[ 10167 10162 10161 10158 ] final  107.06 input  -65.29 | X-H torsion
[ 10718 10713 10712 10709 ] final  -19.43 input   66.30 | X-H torsion
[ 10763 10752 10751 10750 ] final    9.32 input  -60.55 | X-H torsion
[ 11005 11000 10999 10996 ] final  -11.23 input  -57.11 | X-H torsion

> <Gold.Protein.ActiveResidues>
 VAL166  LYS551  ARG553  GLY616  TRP617  ASP618  TYR619  PRO620  LYS621  CYS622 
 ASP623  PHE694  ASN695  SER759  ASP760  ASP761  ALA762  ILE779  LEU786  VAL792 
 PHE793  MET794  SER795  GLU796  ALA797  LYS798  CYS799  TRP800  GLU811  SER814 

> <Gold.Protein.RotatedAtoms>
  150.8326  133.8065  159.3092 H   0  0  0  0  0  0  0  0  0  0  0  0  # atno 6907 bound_to 6896
  151.5791  135.1057  160.0022 H   0  0  0  0  0  0  0  0  0  0  0  0  # atno 6908 bound_to 6896
  152.4403  133.7395  159.6689 H   0  0  0  0  0  0  0  0  0  0  0  0  # atno 6909 bound_to 6896
  144.7159  140.1946  143.6345 H   0  0  0  0  0  0  0  0  0  0  0  0  # atno 7974 bound_to 7965
  154.7686  140.2797  155.6156 H   0  0  0  0  0  0  0  0  0  0  0  0  # atno 8008 bound_to 7997
  156.2929  140.2646  156.2410 H   0  0  0  0  0  0  0  0  0  0  0  0  # atno 8009 bound_to 7997
  154.9928  140.0373  157.2317 H   0  0  0  0  0  0  0  0  0  0  0  0  # atno 8010 bound_to 7997
  139.6958  144.7101  151.1270 H   0  0  0  0  0  0  0  0  0  0  0  0  # atno 10167 bound_to 10162
  156.5457  130.4689  149.6476 H   0  0  0  0  0  0  0  0  0  0  0  0  # atno 10718 bound_to 10713
  153.2153  135.6874  153.8065 H   0  0  0  0  0  0  0  0  0  0  0  0  # atno 10763 bound_to 10752
  153.7283  135.3256  155.3282 H   0  0  0  0  0  0  0  0  0  0  0  0  # atno 10764 bound_to 10752
  154.8242  135.4629  154.0977 H   0  0  0  0  0  0  0  0  0  0  0  0  # atno 10765 bound_to 10752
  140.7530  133.8576  155.9061 H   0  0  0  0  0  0  0  0  0  0  0  0  # atno 11005 bound_to 11000
  145.8736  139.2285  143.1646 LP  0  0  0  0  0  0  0  0  0  0  0  0  # atno 17320 bound_to 7965
  146.0061  140.8477  142.9994 LP  0  0  0  0  0  0  0  0  0  0  0  0  # atno 17321 bound_to 7965
  140.7696  143.5494  150.9222 LP  0  0  0  0  0  0  0  0  0  0  0  0  # atno 17342 bound_to 10162
  139.9173  143.6648  152.3104 LP  0  0  0  0  0  0  0  0  0  0  0  0  # atno 17343 bound_to 10162
  156.2930  130.7135  151.1988 LP  0  0  0  0  0  0  0  0  0  0  0  0  # atno 17370 bound_to 10713
  157.7397  131.0526  150.5215 LP  0  0  0  0  0  0  0  0  0  0  0  0  # atno 17371 bound_to 10713
  140.9733  134.1502  157.4558 LP  0  0  0  0  0  0  0  0  0  0  0  0  # atno 17394 bound_to 11000
  139.8784  134.9986  156.5908 LP  0  0  0  0  0  0  0  0  0  0  0  0  # atno 17395 bound_to 11000

$$$$
