AV-unprocessed.smi:2542|AV-procd|sdf|9991|dock2
  -GOLD-   2272014 43D 1   1.00000     0.00000
 Structure written by MMmdl.
 41 42  0  0  0  0  0  0  0  0  1 V2000
  152.6337  144.6419  158.0726 C   0  0  0  0  0  0  0  0  0  0  0  0
  151.7419  144.3195  159.2897 C   0  0  0  0  0  0  0  0  0  0  0  0
  151.4823  145.6524  160.0328 C   0  0  0  0  0  0  0  0  0  0  0  0
  150.3824  143.7696  158.7863 C   0  0  0  0  0  0  0  0  0  0  0  0
  150.5563  142.6882  157.8222 N   0  0  0  0  0  0  0  0  0  0  0  0
  149.7645  141.6107  157.7139 C   0  0  0  0  0  0  0  0  0  0  0  0
  148.7982  141.4266  158.4555 O   0  0  0  0  0  0  0  0  0  0  0  0
  150.1059  140.5823  156.6085 C   0  0  0  0  0  0  0  0  0  0  0  0
  151.4805  140.0608  156.7560 C   0  0  0  0  0  0  0  0  0  0  0  0
  152.5572  139.6518  156.8722 N   0  0  0  0  0  0  0  0  0  0  0  0
  149.0788  139.4184  156.6171 C   0  0  0  0  0  0  0  0  0  0  0  0
  148.3462  139.4401  155.2698 C   0  0  0  0  0  0  0  0  0  0  0  0
  148.5394  140.8534  154.7336 C   0  0  0  0  0  0  0  0  0  0  0  0
  149.9415  141.2264  155.2118 C   0  0  0  0  0  0  0  0  0  0  0  0
  152.4431  143.2741  160.1797 C   0  0  0  0  0  0  0  0  0  0  0  0
  152.9810  142.0670  159.6686 C   0  0  0  0  0  0  0  0  0  0  0  0
  153.6238  141.1765  160.5513 C   0  0  0  0  0  0  0  0  0  0  0  0
  153.7585  141.4067  161.8734 N   0  0  0  0  0  0  0  0  0  0  0  0
  153.2480  142.5545  162.3636 C   0  0  0  0  0  0  0  0  0  0  0  0
  152.5891  143.5112  161.5668 C   0  0  0  0  0  0  0  0  0  0  0  0
  152.1738  145.3960  157.4328 H   0  0  0  0  0  0  0  0  0  0  0  0
  152.8136  143.7644  157.4514 H   0  0  0  0  0  0  0  0  0  0  0  0
  153.6050  145.0262  158.3859 H   0  0  0  0  0  0  0  0  0  0  0  0
  150.9909  146.3767  159.3823 H   0  0  0  0  0  0  0  0  0  0  0  0
  152.4118  146.1104  160.3732 H   0  0  0  0  0  0  0  0  0  0  0  0
  150.8368  145.5193  160.9018 H   0  0  0  0  0  0  0  0  0  0  0  0
  149.7800  143.4257  159.6291 H   0  0  0  0  0  0  0  0  0  0  0  0
  149.8066  144.5592  158.3011 H   0  0  0  0  0  0  0  0  0  0  0  0
  151.3305  142.7757  157.1790 H   0  0  0  0  0  0  0  0  0  0  0  0
  149.5622  138.4528  156.7701 H   0  0  0  0  0  0  0  0  0  0  0  0
  148.3523  139.5219  157.4252 H   0  0  0  0  0  0  0  0  0  0  0  0
  148.8145  138.7276  154.5892 H   0  0  0  0  0  0  0  0  0  0  0  0
  147.2945  139.1671  155.3603 H   0  0  0  0  0  0  0  0  0  0  0  0
  148.4360  140.9097  153.6497 H   0  0  0  0  0  0  0  0  0  0  0  0
  147.8009  141.5237  155.1748 H   0  0  0  0  0  0  0  0  0  0  0  0
  150.0940  142.3069  155.2110 H   0  0  0  0  0  0  0  0  0  0  0  0
  150.6754  140.8084  154.5208 H   0  0  0  0  0  0  0  0  0  0  0  0
  152.9214  141.8042  158.6239 H   0  0  0  0  0  0  0  0  0  0  0  0
  154.0431  140.2519  160.1824 H   0  0  0  0  0  0  0  0  0  0  0  0
  153.3702  142.7186  163.4239 H   0  0  0  0  0  0  0  0  0  0  0  0
  152.2091  144.4135  162.0221 H   0  0  0  0  0  0  0  0  0  0  0  0
  1  2  1  0  0  0  0
  1 21  1  0  0  0  0
  1 22  1  0  0  0  0
  1 23  1  0  0  0  0
  2  3  1  0  0  0  0
  2  4  1  0  0  0  0
  2 15  1  0  0  0  0
  3 24  1  0  0  0  0
  3 25  1  0  0  0  0
  3 26  1  0  0  0  0
  4  5  1  0  0  0  0
  4 27  1  0  0  0  0
  4 28  1  0  0  0  0
  5  6  1  0  0  0  0
  5 29  1  0  0  0  0
  6  7  2  0  0  0  0
  6  8  1  0  0  0  0
  8 14  1  0  0  0  0
  8  9  1  0  0  0  0
  8 11  1  0  0  0  0
  9 10  3  0  0  0  0
 11 12  1  0  0  0  0
 11 30  1  0  0  0  0
 11 31  1  0  0  0  0
 12 13  1  0  0  0  0
 12 32  1  0  0  0  0
 12 33  1  0  0  0  0
 13 14  1  0  0  0  0
 13 34  1  0  0  0  0
 13 35  1  0  0  0  0
 14 36  1  0  0  0  0
 14 37  1  0  0  0  0
 15 20  1  0  0  0  0
 15 16  2  0  0  0  0
 16 17  1  0  0  0  0
 16 38  1  0  0  0  0
 17 18  2  0  0  0  0
 17 39  1  0  0  0  0
 18 19  1  0  0  0  0
 19 20  2  0  0  0  0
 19 40  1  0  0  0  0
 20 41  1  0  0  0  0
M  END
> <s_m_source_file>
AV-unprocessed.smi

> <i_m_source_file_index>
2542

> <i_lp_mmshare_version>
43012

> <i_f3d_flags>
0

> <s_epik_input>
W2NIXTFbY0hdbltjSF1bY0hdYzFDKFtDSDNdKShbQ0gzXSlbQ0gyXVtOSF1DKD1PKUMyKEMjTilbQ0gyXVtDSDJdW0NIMl1bQ0gyXTI=

> <s_epik_cmdline>
J2VwaWtfcHl0aG9uJywgJy1waCcsICc3LjAnLCAnLXRuJywgJzgnLCAnLW1hJywgJzIwMCcsICctbWV0YWxfYmluZGluZycsICctaW1hZScsICc8aW5maWxlLm1hZT4nLCAnLW9tYWUnLCAnPG91dGZpbGUubWFlPic=

> <r_epik_Ionization_Penalty>
0.0480096

> <r_epik_Ionization_Penalty_Charging>
0

> <r_epik_Ionization_Penalty_Neutral>
0.0480096

> <r_epik_State_Penalty>
0.04092

> <r_epik_Charging_Adjusted_Penalty>
0.04092

> <i_epik_Tot_Q>
0

> <i_epik_Tot_abs_Q>
0

> <r_epik_Metal_State_Penalty>
0.0377989

> <b_epik_Metal_Only>
0

> <s_lp_Force_Field>
OPLS_2005

> <r_lp_Energy>
29.6926

> <b_lp_Chiralities_Consistent>
1

> <s_lp_Variant>
AV-unprocessed.smi:2542-1

> <Gold.Version>
5.8.1

> <Gold.Id.Protein>
6NUR|6NUR_protein|mol2

> <Gold.PLP.Fitness>
50.1039

> <Gold.PLP.PLP>
-48.1506

> <Gold.PLP.part.hbond>
-1.3079

> <Gold.PLP.part.metal>
0.0000

> <Gold.PLP.part.buried>
-5.7694

> <Gold.PLP.part.nonpolar>
-41.6132

> <Gold.PLP.part.repulsive>
0.0865

> <Gold.PLP.ligand.clash>
0.0000

> <Gold.PLP.ligand.torsion>
0.5433

> <Gold.PLP.Chemscore.Hbond>
1.0000

> <Gold.PLP.Chemscore.CHOScore>
0.0000

> <Gold.PLP.Chemscore.Metal>
0.0000

> <Gold.Chemscore.Hbonds>
donor molecule, donor type, donor heavy atom, donor atom, acceptor molecule, acceptor atom, score
      P1  H  7997  8010       L1    10  1.00

> <Gold.PLP.Chemscore.Internal.Correction>
0.0400

> <Gold.Rescore>
     Score         DG    S(hbond)    S(metal)    S(lipo)     H(rot)  DE(clash)    DE(int)     intcor
     19.55     -20.07       0.99        0.00     129.01       1.49       0.09       0.44       ----

> <Gold.Chemscore.Fitness>
19.5541

> <Gold.Chemscore.DG>
-20.0747

> <Gold.Chemscore.ZeroCoef>
-5.4800

> <Gold.Chemscore.Hbond>
0.9923

> <Gold.Chemscore.Metal>
0.0000

> <Gold.Chemscore.Lipo>
129.0082

> <Gold.Chemscore.Internal_Hbond>
0.0000

> <Gold.Chemscore.DEClash>
0.0856

> <Gold.Chemscore.DEInternal>
0.4351

> <Gold.Chemscore.Rot>
1.4897

> <Gold.Chemscore.Internal.Correction>
   9.000000E+99

> <Gold.Chemscore.Hbonds>
donor molecule, donor type, donor heavy atom, donor atom, acceptor molecule, acceptor atom, score
      P1  H  7997  8010       L1    10  1.00

> <Gold.Chemscore.Hbond.Weighted>
-3.3143

> <Gold.Chemscore.Metal.Weighted>
-0.0000

> <Gold.Chemscore.Lipo.Weighted>
-15.0940

> <Gold.Chemscore.Internal_Hbond.Weighted>
0.0000

> <Gold.Chemscore.DEClash.Weighted>
0.0856

> <Gold.Chemscore.DEInternal.Weighted>
0.4351

> <Gold.Chemscore.Rot.Weighted>
3.8136

> <Gold.Chemscore.Internal.Correction.Weighted>
   9.000000E+99

> <Gold.Protein.RotatedTorsions>
[ 6907 6896 6895 6894 ] final  176.37 input  -60.11 | X-H torsion
[ 7974 7965 7964 7962 ] final -108.46 input  175.53 | X-H torsion
[ 8008 7997 7996 7995 ] final   63.45 input   59.86 | X-H torsion
[ 10167 10162 10161 10158 ] final  -42.80 input  -65.29 | X-H torsion
[ 10718 10713 10712 10709 ] final   -0.33 input   66.30 | X-H torsion
[ 10763 10752 10751 10750 ] final   34.53 input  -60.55 | X-H torsion
[ 11005 11000 10999 10996 ] final -139.19 input  -57.11 | X-H torsion

> <Gold.Protein.ActiveResidues>
 VAL166  LYS551  ARG553  GLY616  TRP617  ASP618  TYR619  PRO620  LYS621  CYS622 
 ASP623  PHE694  ASN695  SER759  ASP760  ASP761  ALA762  ILE779  LEU786  VAL792 
 PHE793  MET794  SER795  GLU796  ALA797  LYS798  CYS799  TRP800  GLU811  SER814 

> <Gold.Protein.RotatedAtoms>
  151.7213  133.3314  159.3315 H   0  0  0  0  0  0  0  0  0  0  0  0  # atno 6907 bound_to 6896
  150.7652  134.6446  159.6264 H   0  0  0  0  0  0  0  0  0  0  0  0  # atno 6908 bound_to 6896
  152.3650  134.6819  160.0246 H   0  0  0  0  0  0  0  0  0  0  0  0  # atno 6909 bound_to 6896
  145.1926  140.9021  143.3416 H   0  0  0  0  0  0  0  0  0  0  0  0  # atno 7974 bound_to 7965
  155.6304  140.3496  155.4681 H   0  0  0  0  0  0  0  0  0  0  0  0  # atno 8008 bound_to 7997
  156.0008  140.1213  157.0573 H   0  0  0  0  0  0  0  0  0  0  0  0  # atno 8009 bound_to 7997
  154.4248  140.1101  156.5680 H   0  0  0  0  0  0  0  0  0  0  0  0  # atno 8010 bound_to 7997
  140.6956  143.3017  151.3261 H   0  0  0  0  0  0  0  0  0  0  0  0  # atno 10167 bound_to 10162
  156.8220  130.5459  149.5696 H   0  0  0  0  0  0  0  0  0  0  0  0  # atno 10718 bound_to 10713
  153.0160  135.6358  154.1683 H   0  0  0  0  0  0  0  0  0  0  0  0  # atno 10763 bound_to 10752
  154.1422  135.2834  155.3159 H   0  0  0  0  0  0  0  0  0  0  0  0  # atno 10764 bound_to 10752
  154.6116  135.5554  153.7541 H   0  0  0  0  0  0  0  0  0  0  0  0  # atno 10765 bound_to 10752
  140.8544  134.2247  157.4743 H   0  0  0  0  0  0  0  0  0  0  0  0  # atno 11005 bound_to 11000
  145.0026  139.3584  143.6160 LP  0  0  0  0  0  0  0  0  0  0  0  0  # atno 17320 bound_to 7965
  146.3433  139.9255  142.8760 LP  0  0  0  0  0  0  0  0  0  0  0  0  # atno 17321 bound_to 7965
  139.6408  144.0543  152.2553 LP  0  0  0  0  0  0  0  0  0  0  0  0  # atno 17342 bound_to 10162
  140.0048  144.6267  150.7698 LP  0  0  0  0  0  0  0  0  0  0  0  0  # atno 17343 bound_to 10162
  156.0983  130.5949  150.9851 LP  0  0  0  0  0  0  0  0  0  0  0  0  # atno 17370 bound_to 10713
  157.6452  131.0905  150.8169 LP  0  0  0  0  0  0  0  0  0  0  0  0  # atno 17371 bound_to 10713
  139.8705  134.9699  156.4682 LP  0  0  0  0  0  0  0  0  0  0  0  0  # atno 17394 bound_to 11000
  140.8754  133.7957  155.9409 LP  0  0  0  0  0  0  0  0  0  0  0  0  # atno 17395 bound_to 11000

$$$$
