AV-unprocessed.smi:1273|AV-procd|sdf|5338|dock9
  -GOLD-   22720 4473D 1   1.00000     0.00000
 Structure written by MMmdl.
 40 41  0  0  0  0  0  0  0  0  1 V2000
  155.9965  134.0185  160.2666 C   0  0  0  0  0  0  0  0  0  0  0  0
  156.4739  135.1943  159.3989 C   0  0  2  0  0  0  0  0  0  0  0  0
  155.4060  136.2913  159.2879 C   0  0  0  0  0  0  0  0  0  0  0  0
  154.3114  136.0324  158.7887 O   0  0  0  0  0  0  0  0  0  0  0  0
  155.7663  137.5042  159.7482 N   0  0  0  0  0  0  0  0  0  0  0  0
  155.0093  138.7061  159.7729 C   0  0  0  0  0  0  0  0  0  0  0  0
  155.2156  139.5943  160.8459 C   0  0  0  0  0  0  0  0  0  0  0  0
  154.4669  140.7846  160.9098 C   0  0  0  0  0  0  0  0  0  0  0  0
  153.5190  141.0586  159.8958 C   0  0  0  0  0  0  0  0  0  0  0  0
  152.7573  142.2471  159.9355 N   0  0  0  0  0  0  0  0  0  0  0  0
  152.6938  143.0619  158.7230 C   0  0  0  0  0  0  0  0  0  0  0  0
  151.6033  144.1381  158.8558 C   0  0  0  0  0  0  0  0  0  0  0  0
  151.8347  144.9133  160.0271 O   0  0  0  0  0  0  0  0  0  0  0  0
  151.7802  144.1177  161.2063 C   0  0  0  0  0  0  0  0  0  0  0  0
  152.8752  143.0379  161.1585 C   0  0  0  0  0  0  0  0  0  0  0  0
  153.3066  140.1930  158.8742 N   0  0  0  0  0  0  0  0  0  0  0  0
  154.0274  139.0535  158.8153 C   0  0  0  0  0  0  0  0  0  0  0  0
  156.9384  134.5848  157.7102 S   0  0  0  0  0  0  0  0  0  0  0  0
  158.7591  134.8619  157.6502 C   0  0  0  0  0  0  0  0  0  0  0  0
  156.6937  133.1349  157.6677 O   0  0  0  0  0  0  0  0  0  0  0  0
  156.3121  135.4502  156.6988 O   0  0  0  0  0  0  0  0  0  0  0  0
  155.6891  134.3550  161.2575 H   0  0  0  0  0  0  0  0  0  0  0  0
  156.7945  133.2883  160.4018 H   0  0  0  0  0  0  0  0  0  0  0  0
  155.1518  133.5004  159.8111 H   0  0  0  0  0  0  0  0  0  0  0  0
  157.3759  135.6124  159.8478 H   0  0  0  0  0  0  0  0  0  0  0  0
  156.7212  137.5905  160.0646 H   0  0  0  0  0  0  0  0  0  0  0  0
  155.9398  139.3695  161.6154 H   0  0  0  0  0  0  0  0  0  0  0  0
  154.6169  141.4597  161.7389 H   0  0  0  0  0  0  0  0  0  0  0  0
  153.6634  143.5319  158.5526 H   0  0  0  0  0  0  0  0  0  0  0  0
  152.4772  142.4358  157.8564 H   0  0  0  0  0  0  0  0  0  0  0  0
  151.6167  144.7953  157.9862 H   0  0  0  0  0  0  0  0  0  0  0  0
  150.6118  143.6840  158.8966 H   0  0  0  0  0  0  0  0  0  0  0  0
  151.9256  144.7607  162.0744 H   0  0  0  0  0  0  0  0  0  0  0  0
  150.7925  143.6651  161.3075 H   0  0  0  0  0  0  0  0  0  0  0  0
  152.7988  142.4190  162.0510 H   0  0  0  0  0  0  0  0  0  0  0  0
  153.8602  143.5056  161.1804 H   0  0  0  0  0  0  0  0  0  0  0  0
  153.7806  138.4092  157.9862 H   0  0  0  0  0  0  0  0  0  0  0  0
  159.1535  134.4515  156.7207 H   0  0  0  0  0  0  0  0  0  0  0  0
  159.2342  134.3630  158.4946 H   0  0  0  0  0  0  0  0  0  0  0  0
  158.9746  135.9296  157.6854 H   0  0  0  0  0  0  0  0  0  0  0  0
  1  2  1  0  0  0  0
  1 22  1  0  0  0  0
  1 23  1  0  0  0  0
  1 24  1  0  0  0  0
  2  3  1  0  0  0  0
  2 18  1  0  0  0  0
  2 25  1  0  0  0  0
  3  4  2  0  0  0  0
  3  5  1  0  0  0  0
  5  6  1  0  0  0  0
  5 26  1  0  0  0  0
  6 17  1  0  0  0  0
  6  7  2  0  0  0  0
  7  8  1  0  0  0  0
  7 27  1  0  0  0  0
  8  9  2  0  0  0  0
  8 28  1  0  0  0  0
  9 10  1  0  0  0  0
  9 16  1  0  0  0  0
 10 15  1  0  0  0  0
 10 11  1  0  0  0  0
 11 12  1  0  0  0  0
 11 29  1  0  0  0  0
 11 30  1  0  0  0  0
 12 13  1  0  0  0  0
 12 31  1  0  0  0  0
 12 32  1  0  0  0  0
 13 14  1  0  0  0  0
 14 15  1  0  0  0  0
 14 33  1  0  0  0  0
 14 34  1  0  0  0  0
 15 35  1  0  0  0  0
 15 36  1  0  0  0  0
 16 17  2  0  0  0  0
 17 37  1  0  0  0  0
 18 19  1  0  0  0  0
 18 20  2  0  0  0  0
 18 21  2  0  0  0  0
 19 38  1  0  0  0  0
 19 39  1  0  0  0  0
 19 40  1  0  0  0  0
M  END
> <s_m_source_file>
AV-unprocessed.smi

> <i_m_source_file_index>
1273

> <i_lp_mmshare_version>
43012

> <i_f3d_flags>
0

> <s_epik_input>
W0NIM11TKD1PKSg9TylbQ0BIXShbQ0gzXSlDKD1PKVtOSF1jMVtjSF1bY0hdYyhuW2NIXTEpTjJbQ0gyXVtDSDJdT1tDSDJdW0NIMl0y

> <s_epik_cmdline>
J2VwaWtfcHl0aG9uJywgJy1waCcsICc3LjAnLCAnLXRuJywgJzgnLCAnLW1hJywgJzIwMCcsICctbWV0YWxfYmluZGluZycsICctaW1hZScsICc8aW5maWxlLm1hZT4nLCAnLW9tYWUnLCAnPG91dGZpbGUubWFlPic=

> <r_lp_tautomer_probability>
1

> <r_epik_Ionization_Penalty>
0.000253983

> <r_epik_Ionization_Penalty_Charging>
0

> <r_epik_Ionization_Penalty_Neutral>
0.000253983

> <r_epik_State_Penalty>
-0

> <r_epik_Charging_Adjusted_Penalty>
0

> <i_epik_Tot_Q>
0

> <i_epik_Tot_abs_Q>
0

> <r_epik_Metal_State_Penalty>
-0

> <b_epik_Metal_Only>
0

> <s_lp_Force_Field>
OPLS_2005

> <r_lp_Energy>
19.002

> <b_lp_Chiralities_Consistent>
1

> <s_lp_Variant>
AV-unprocessed.smi:1273-1

> <Gold.Version>
5.8.1

> <Gold.Id.Protein>
6NUR|6NUR_protein|mol2

> <Gold.PLP.Fitness>
35.7524

> <Gold.PLP.PLP>
-30.6118

> <Gold.PLP.part.hbond>
-2.0000

> <Gold.PLP.part.metal>
0.0000

> <Gold.PLP.part.buried>
-5.5460

> <Gold.PLP.part.nonpolar>
-23.8668

> <Gold.PLP.part.repulsive>
0.1178

> <Gold.PLP.ligand.clash>
0.0000

> <Gold.PLP.ligand.torsion>
0.5198

> <Gold.PLP.Chemscore.Hbond>
1.8960

> <Gold.PLP.Chemscore.CHOScore>
0.0000

> <Gold.PLP.Chemscore.Metal>
0.0000

> <Gold.Chemscore.Hbonds>
donor molecule, donor type, donor heavy atom, donor atom, acceptor molecule, acceptor atom, score
      P1  H 10752 10763       L1    21  0.28

> <Gold.PLP.Chemscore.Internal.Correction>
0.4921

> <Gold.Rescore>
     Score         DG    S(hbond)    S(metal)    S(lipo)     H(rot)  DE(clash)    DE(int)     intcor
     14.62     -16.44       1.97        0.00      71.74       1.56       0.01       1.80       ----

> <Gold.Chemscore.Fitness>
14.6239

> <Gold.Chemscore.DG>
-16.4391

> <Gold.Chemscore.ZeroCoef>
-5.4800

> <Gold.Chemscore.Hbond>
1.9658

> <Gold.Chemscore.Metal>
0.0000

> <Gold.Chemscore.Lipo>
71.7353

> <Gold.Chemscore.Internal_Hbond>
0.0000

> <Gold.Chemscore.DEClash>
0.0110

> <Gold.Chemscore.DEInternal>
1.8041

> <Gold.Chemscore.Rot>
1.5624

> <Gold.Chemscore.Internal.Correction>
   9.000000E+99

> <Gold.Chemscore.Hbonds>
donor molecule, donor type, donor heavy atom, donor atom, acceptor molecule, acceptor atom, score
      P1  H 10752 10763       L1    21  0.29

> <Gold.Chemscore.Hbond.Weighted>
-6.5657

> <Gold.Chemscore.Metal.Weighted>
-0.0000

> <Gold.Chemscore.Lipo.Weighted>
-8.3930

> <Gold.Chemscore.Internal_Hbond.Weighted>
0.0000

> <Gold.Chemscore.DEClash.Weighted>
0.0110

> <Gold.Chemscore.DEInternal.Weighted>
1.8041

> <Gold.Chemscore.Rot.Weighted>
3.9996

> <Gold.Chemscore.Internal.Correction.Weighted>
   9.000000E+99

> <Gold.Protein.RotatedTorsions>
[ 6907 6896 6895 6894 ] final  -60.06 input  -60.11 | X-H torsion
[ 7974 7965 7964 7962 ] final -138.87 input  175.53 | X-H torsion
[ 8008 7997 7996 7995 ] final   16.98 input   59.86 | X-H torsion
[ 10167 10162 10161 10158 ] final   53.00 input  -65.29 | X-H torsion
[ 10718 10713 10712 10709 ] final  -30.64 input   66.30 | X-H torsion
[ 10763 10752 10751 10750 ] final  179.83 input  -60.55 | X-H torsion
[ 11005 11000 10999 10996 ] final -167.79 input  -57.11 | X-H torsion

> <Gold.Protein.ActiveResidues>
 VAL166  LYS551  ARG553  GLY616  TRP617  ASP618  TYR619  PRO620  LYS621  CYS622 
 ASP623  PHE694  ASN695  SER759  ASP760  ASP761  ALA762  ILE779  LEU786  VAL792 
 PHE793  MET794  SER795  GLU796  ALA797  LYS798  CYS799  TRP800  GLU811  SER814 

> <Gold.Protein.RotatedAtoms>
  150.7884  134.6887  159.6484 H   0  0  0  0  0  0  0  0  0  0  0  0  # atno 6907 bound_to 6896
  152.3985  134.6322  160.0088 H   0  0  0  0  0  0  0  0  0  0  0  0  # atno 6908 bound_to 6896
  151.6601  133.3280  159.3208 H   0  0  0  0  0  0  0  0  0  0  0  0  # atno 6909 bound_to 6896
  144.8723  140.6384  143.5259 H   0  0  0  0  0  0  0  0  0  0  0  0  # atno 7974 bound_to 7965
  154.8848  140.2978  155.5404 H   0  0  0  0  0  0  0  0  0  0  0  0  # atno 8008 bound_to 7997
  156.3021  140.2435  156.3789 H   0  0  0  0  0  0  0  0  0  0  0  0  # atno 8009 bound_to 7997
  154.8680  140.0402  157.1696 H   0  0  0  0  0  0  0  0  0  0  0  0  # atno 8010 bound_to 7997
  140.2454  144.3537  150.6366 H   0  0  0  0  0  0  0  0  0  0  0  0  # atno 10167 bound_to 10162
  156.3973  130.4384  149.7349 H   0  0  0  0  0  0  0  0  0  0  0  0  # atno 10718 bound_to 10713
  154.5257  135.2796  155.1224 H   0  0  0  0  0  0  0  0  0  0  0  0  # atno 10763 bound_to 10752
  154.2764  135.6294  153.5334 H   0  0  0  0  0  0  0  0  0  0  0  0  # atno 10764 bound_to 10752
  152.9946  135.5640  154.5757 H   0  0  0  0  0  0  0  0  0  0  0  0  # atno 10765 bound_to 10752
  140.5493  134.5444  157.5118 H   0  0  0  0  0  0  0  0  0  0  0  0  # atno 11005 bound_to 11000
  145.4108  139.1580  143.4127 LP  0  0  0  0  0  0  0  0  0  0  0  0  # atno 17320 bound_to 7965
  146.2938  140.4212  142.8729 LP  0  0  0  0  0  0  0  0  0  0  0  0  # atno 17321 bound_to 7965
  140.6081  143.2168  151.6940 LP  0  0  0  0  0  0  0  0  0  0  0  0  # atno 17342 bound_to 10162
  139.5063  144.3685  152.0493 LP  0  0  0  0  0  0  0  0  0  0  0  0  # atno 17343 bound_to 10162
  156.4379  130.7847  151.2867 LP  0  0  0  0  0  0  0  0  0  0  0  0  # atno 17370 bound_to 10713
  157.7502  131.0134  150.3422 LP  0  0  0  0  0  0  0  0  0  0  0  0  # atno 17371 bound_to 10713
  139.9463  134.7695  156.0553 LP  0  0  0  0  0  0  0  0  0  0  0  0  # atno 17394 bound_to 11000
  141.1181  133.6621  156.3145 LP  0  0  0  0  0  0  0  0  0  0  0  0  # atno 17395 bound_to 11000

$$$$
