AV-unprocessed.smi:1900|AV-procd|sdf|7710|dock8
  -GOLD-   22720 9453D 1   1.00000     0.00000
 Structure written by MMmdl.
 44 45  0  0  0  0  0  0  0  0  2 V2000
  150.9755  142.4083  156.4721 C   0  0  0  0  0  0  0  0  0  0  0  0
  150.6347  140.9718  156.0600 C   0  0  1  0  0  0  0  0  0  0  0  0
  149.4281  140.9115  155.1040 C   0  0  0  0  0  0  0  0  0  0  0  0
  149.1761  139.5174  154.6673 N   0  3  1  0  0  0  0  0  0  0  0  0
  147.9856  139.4090  153.7867 C   0  0  0  0  0  0  0  0  0  0  0  0
  146.9065  138.4754  154.3619 C   0  0  0  0  0  0  0  0  0  0  0  0
  145.8660  138.0691  153.3052 C   0  0  0  0  0  0  0  0  0  0  0  0
  146.2971  136.9042  152.5402 N   0  0  0  0  0  0  0  0  0  0  0  0
  145.4762  135.9912  152.0017 C   0  0  0  0  0  0  0  0  0  0  0  0
  144.2506  136.0300  152.1127 O   0  0  0  0  0  0  0  0  0  0  0  0
  146.1630  135.0472  151.3374 N   0  0  0  0  0  0  0  0  0  0  0  0
  145.6371  133.9282  150.6434 C   0  0  0  0  0  0  0  0  0  0  0  0
  146.3769  132.7607  150.3121 C   0  0  0  0  0  0  0  0  0  0  0  0
  145.6270  131.8798  149.6655 N   0  0  0  0  0  0  0  0  0  0  0  0
  144.4151  132.4735  149.5819 N   0  0  0  0  0  0  0  0  0  0  0  0
  144.3743  133.7214  150.1633 C   0  0  0  0  0  0  0  0  0  0  0  0
  150.4057  138.9323  154.0776 C   0  0  0  0  0  0  0  0  0  0  0  0
  151.5859  139.0477  155.0610 C   0  0  1  0  0  0  0  0  0  0  0  0
  152.8946  138.5273  154.4562 C   0  0  0  0  0  0  0  0  0  0  0  0
  151.7709  140.4155  155.4082 O   0  0  0  0  0  0  0  0  0  0  0  0
  143.6343  132.0195  149.1296 H   0  0  0  0  0  0  0  0  0  0  0  0
  150.1394  142.8769  156.9916 H   0  0  0  0  0  0  0  0  0  0  0  0
  151.2168  143.0225  155.6040 H   0  0  0  0  0  0  0  0  0  0  0  0
  151.8353  142.4280  157.1423 H   0  0  0  0  0  0  0  0  0  0  0  0
  150.4194  140.3949  156.9613 H   0  0  0  0  0  0  0  0  0  0  0  0
  148.5432  141.3048  155.6063 H   0  0  0  0  0  0  0  0  0  0  0  0
  149.6067  141.5396  154.2295 H   0  0  0  0  0  0  0  0  0  0  0  0
  147.5450  140.4001  153.6682 H   0  0  0  0  0  0  0  0  0  0  0  0
  148.2882  139.0847  152.7898 H   0  0  0  0  0  0  0  0  0  0  0  0
  147.3617  137.5731  154.7698 H   0  0  0  0  0  0  0  0  0  0  0  0
  146.4082  138.9748  155.1939 H   0  0  0  0  0  0  0  0  0  0  0  0
  144.9006  137.8695  153.7733 H   0  0  0  0  0  0  0  0  0  0  0  0
  145.7076  138.8907  152.6063 H   0  0  0  0  0  0  0  0  0  0  0  0
  147.2907  136.7929  152.3989 H   0  0  0  0  0  0  0  0  0  0  0  0
  147.1678  135.1425  151.3181 H   0  0  0  0  0  0  0  0  0  0  0  0
  147.4120  132.5280  150.5143 H   0  0  0  0  0  0  0  0  0  0  0  0
  143.4773  134.3223  150.1799 H   0  0  0  0  0  0  0  0  0  0  0  0
  150.2461  137.8829  153.8327 H   0  0  0  0  0  0  0  0  0  0  0  0
  150.6417  139.4462  153.1442 H   0  0  0  0  0  0  0  0  0  0  0  0
  151.3697  138.4739  155.9639 H   0  0  0  0  0  0  0  0  0  0  0  0
  152.8086  137.4764  154.1792 H   0  0  0  0  0  0  0  0  0  0  0  0
  153.7156  138.6166  155.1680 H   0  0  0  0  0  0  0  0  0  0  0  0
  153.1676  139.0880  153.5617 H   0  0  0  0  0  0  0  0  0  0  0  0
  148.9676  138.9916  155.5042 H   0  0  0  0  0  0  0  0  0  0  0  0
  1  2  1  0  0  0  0
  1 22  1  0  0  0  0
  1 23  1  0  0  0  0
  1 24  1  0  0  0  0
  2 20  1  0  0  0  0
  2  3  1  0  0  0  0
  2 25  1  0  0  0  0
  3  4  1  0  0  0  0
  3 26  1  0  0  0  0
  3 27  1  0  0  0  0
  4  5  1  0  0  0  0
  4 17  1  0  0  0  0
  4 44  1  0  0  0  0
  5  6  1  0  0  0  0
  5 28  1  0  0  0  0
  5 29  1  0  0  0  0
  6  7  1  0  0  0  0
  6 30  1  0  0  0  0
  6 31  1  0  0  0  0
  7  8  1  0  0  0  0
  7 32  1  0  0  0  0
  7 33  1  0  0  0  0
  8  9  1  0  0  0  0
  8 34  1  0  0  0  0
  9 10  2  0  0  0  0
  9 11  1  0  0  0  0
 11 12  1  0  0  0  0
 11 35  1  0  0  0  0
 12 16  2  0  0  0  0
 12 13  1  0  0  0  0
 13 14  2  0  0  0  0
 13 36  1  0  0  0  0
 14 15  1  0  0  0  0
 15 21  1  0  0  0  0
 15 16  1  0  0  0  0
 16 37  1  0  0  0  0
 17 18  1  0  0  0  0
 17 38  1  0  0  0  0
 17 39  1  0  0  0  0
 18 19  1  0  0  0  0
 18 20  1  0  0  0  0
 18 40  1  0  0  0  0
 19 41  1  0  0  0  0
 19 42  1  0  0  0  0
 19 43  1  0  0  0  0
M  CHG  1   4   1
M  END
> <s_m_source_file>
AV-unprocessed.smi

> <i_m_source_file_index>
1900

> <i_lp_mmshare_version>
43012

> <i_f3d_flags>
0

> <s_epik_input>
W0NIM11bQ0BASF0xW0NIMl1OKFtDSDJdW0NASF0oTzEpW0NIM10pW0NIMl1bQ0gyXVtDSDJdW05IXUMoPU8pW05IXWMyW2NIXW5bbkhdW2NIXTI=

> <s_epik_cmdline>
J2VwaWtfcHl0aG9uJywgJy1waCcsICc3LjAnLCAnLXRuJywgJzgnLCAnLW1hJywgJzIwMCcsICctbWV0YWxfYmluZGluZycsICctaW1hZScsICc8aW5maWxlLm1hZT4nLCAnLW9tYWUnLCAnPG91dGZpbGUubWFlPic=

> <r_lp_tautomer_probability>
0.5

> <r_epik_Ionization_Penalty>
0.270543

> <r_epik_Ionization_Penalty_Charging>
0.270496

> <r_epik_Ionization_Penalty_Neutral>
4.67091e-05

> <r_epik_State_Penalty>
0.262618

> <r_epik_Charging_Adjusted_Penalty>
0.533114

> <i_epik_Tot_Q>
1

> <i_epik_Tot_abs_Q>
1

> <r_epik_Metal_State_Penalty>
0.262618

> <b_epik_Metal_Only>
0

> <s_lp_Force_Field>
OPLS_2005

> <r_lp_Energy>
18.2287

> <b_lp_Chiralities_Consistent>
1

> <s_lp_Variant>
AV-unprocessed.smi:1900-2

> <Gold.Version>
5.8.1

> <Gold.Id.Protein>
6NUR|6NUR_protein|mol2

> <Gold.PLP.Fitness>
43.8241

> <Gold.PLP.PLP>
-33.5519

> <Gold.PLP.part.hbond>
-2.9203

> <Gold.PLP.part.metal>
0.0000

> <Gold.PLP.part.buried>
-5.2569

> <Gold.PLP.part.nonpolar>
-26.7162

> <Gold.PLP.part.repulsive>
0.6046

> <Gold.PLP.ligand.clash>
0.0000

> <Gold.PLP.ligand.torsion>
1.2198

> <Gold.PLP.Chemscore.Hbond>
2.2233

> <Gold.PLP.Chemscore.CHOScore>
2.0000

> <Gold.PLP.Chemscore.Metal>
0.0000

> <Gold.Chemscore.Hbonds>
donor molecule, donor type, donor heavy atom, donor atom, acceptor molecule, acceptor atom, score
      L1  H     8    34       P1  7948  1.00
      L1  H    11    35       P1  7948  0.81
      P1  H  7989  7998       L1    20  0.35
      L1  C    13    36       P1 10747  1.00
      L1  C    16    37       P1 10186  0.96

> <Gold.PLP.Chemscore.Internal.Correction>
0.0419

> <Gold.Rescore>
     Score         DG    S(hbond)    S(metal)    S(lipo)     H(rot)  DE(clash)    DE(int)     intcor
     14.38     -16.48       1.88        0.00      82.73       1.93       0.01       2.09       ----

> <Gold.Chemscore.Fitness>
14.3771

> <Gold.Chemscore.DG>
-16.4774

> <Gold.Chemscore.ZeroCoef>
-5.4800

> <Gold.Chemscore.Hbond>
1.8774

> <Gold.Chemscore.Metal>
0.0000

> <Gold.Chemscore.Lipo>
82.7335

> <Gold.Chemscore.Internal_Hbond>
0.0000

> <Gold.Chemscore.DEClash>
0.0129

> <Gold.Chemscore.DEInternal>
2.0874

> <Gold.Chemscore.Rot>
1.9347

> <Gold.Chemscore.Internal.Correction>
   9.000000E+99

> <Gold.Chemscore.Hbonds>
donor molecule, donor type, donor heavy atom, donor atom, acceptor molecule, acceptor atom, score
      L1  H     8    34       P1  7948  1.00
      L1  H    11    35       P1  7948  0.60
      P1  H  7989  7998       L1    20  0.01

> <Gold.Chemscore.Hbond.Weighted>
-6.2704

> <Gold.Chemscore.Metal.Weighted>
-0.0000

> <Gold.Chemscore.Lipo.Weighted>
-9.6798

> <Gold.Chemscore.Internal_Hbond.Weighted>
0.0000

> <Gold.Chemscore.DEClash.Weighted>
0.0129

> <Gold.Chemscore.DEInternal.Weighted>
2.0874

> <Gold.Chemscore.Rot.Weighted>
4.9528

> <Gold.Chemscore.Internal.Correction.Weighted>
   9.000000E+99

> <Gold.Protein.RotatedTorsions>
[ 6907 6896 6895 6894 ] final  -10.43 input  -60.11 | X-H torsion
[ 7974 7965 7964 7962 ] final  -43.29 input  175.53 | X-H torsion
[ 8008 7997 7996 7995 ] final -138.90 input   59.86 | X-H torsion
[ 10167 10162 10161 10158 ] final   25.11 input  -65.29 | X-H torsion
[ 10718 10713 10712 10709 ] final -155.91 input   66.30 | X-H torsion
[ 10763 10752 10751 10750 ] final   61.12 input  -60.55 | X-H torsion
[ 11005 11000 10999 10996 ] final   23.75 input  -57.11 | X-H torsion

> <Gold.Protein.ActiveResidues>
 VAL166  LYS551  ARG553  GLY616  TRP617  ASP618  TYR619  PRO620  LYS621  CYS622 
 ASP623  PHE694  ASN695  SER759  ASP760  ASP761  ALA762  ILE779  LEU786  VAL792 
 PHE793  MET794  SER795  GLU796  ALA797  LYS798  CYS799  TRP800  GLU811  SER814 

> <Gold.Protein.RotatedAtoms>
  151.4021  135.0972  159.9558 H   0  0  0  0  0  0  0  0  0  0  0  0  # atno 6907 bound_to 6896
  152.5047  133.8879  159.7389 H   0  0  0  0  0  0  0  0  0  0  0  0  # atno 6908 bound_to 6896
  150.9355  133.6661  159.2830 H   0  0  0  0  0  0  0  0  0  0  0  0  # atno 6909 bound_to 6896
  146.0033  140.7049  142.9260 H   0  0  0  0  0  0  0  0  0  0  0  0  # atno 7974 bound_to 7965
  155.4359  140.0528  157.3014 H   0  0  0  0  0  0  0  0  0  0  0  0  # atno 8008 bound_to 7997
  154.4839  140.2093  155.9657 H   0  0  0  0  0  0  0  0  0  0  0  0  # atno 8009 bound_to 7997
  156.1246  140.3182  155.8264 H   0  0  0  0  0  0  0  0  0  0  0  0  # atno 8010 bound_to 7997
  140.5133  144.0124  150.6382 H   0  0  0  0  0  0  0  0  0  0  0  0  # atno 10167 bound_to 10162
  156.5192  130.8470  151.2676 H   0  0  0  0  0  0  0  0  0  0  0  0  # atno 10718 bound_to 10713
  152.9941  135.5512  154.5983 H   0  0  0  0  0  0  0  0  0  0  0  0  # atno 10763 bound_to 10752
  154.5330  135.2815  155.1165 H   0  0  0  0  0  0  0  0  0  0  0  0  # atno 10764 bound_to 10752
  154.2473  135.6405  153.5280 H   0  0  0  0  0  0  0  0  0  0  0  0  # atno 10765 bound_to 10752
  140.3662  134.2072  155.7669 H   0  0  0  0  0  0  0  0  0  0  0  0  # atno 11005 bound_to 11000
  144.6927  140.3271  143.7222 LP  0  0  0  0  0  0  0  0  0  0  0  0  # atno 17320 bound_to 7965
  145.7454  139.1777  143.2352 LP  0  0  0  0  0  0  0  0  0  0  0  0  # atno 17321 bound_to 7965
  140.3453  143.2995  152.0545 LP  0  0  0  0  0  0  0  0  0  0  0  0  # atno 17342 bound_to 10162
  139.4902  144.6413  151.6871 LP  0  0  0  0  0  0  0  0  0  0  0  0  # atno 17343 bound_to 10162
  157.7439  130.9923  150.2631 LP  0  0  0  0  0  0  0  0  0  0  0  0  # atno 17370 bound_to 10713
  156.3165  130.3779  149.7614 LP  0  0  0  0  0  0  0  0  0  0  0  0  # atno 17371 bound_to 10713
  141.1969  133.8072  157.0652 LP  0  0  0  0  0  0  0  0  0  0  0  0  # atno 17394 bound_to 11000
  140.0587  134.9766  157.1267 LP  0  0  0  0  0  0  0  0  0  0  0  0  # atno 17395 bound_to 11000

$$$$
