AV-unprocessed.smi:2961|AV-procd|sdf|11313|dock7
  -GOLD-   2272016213D 1   1.00000     0.00000
 Structure written by MMmdl.
 48 50  0  0  0  0  0  0  0  0  1 V2000
  155.2534  136.0676  162.3725 C   0  0  0  0  0  0  0  0  0  0  0  0
  154.3573  136.3688  161.1761 C   0  0  0  0  0  0  0  0  0  0  0  0
  154.2167  135.5333  160.2833 O   0  0  0  0  0  0  0  0  0  0  0  0
  153.7550  137.5676  161.1718 N   0  0  0  0  0  0  0  0  0  0  0  0
  152.8537  138.0431  160.1287 C   0  0  0  0  0  0  0  0  0  0  0  0
  153.5642  138.9987  159.1559 C   0  0  0  0  0  0  0  0  0  0  0  0
  153.1033  140.4160  159.3078 C   0  0  0  0  0  0  0  0  0  0  0  0
  153.3303  141.1160  160.4197 N   0  0  0  0  0  0  0  0  0  0  0  0
  152.7320  142.3297  160.1414 C   0  0  0  0  0  0  0  0  0  0  0  0
  152.6302  143.5035  160.9218 C   0  0  0  0  0  0  0  0  0  0  0  0
  151.9594  144.6381  160.4200 C   0  0  0  0  0  0  0  0  0  0  0  0
  151.3828  144.6157  159.1335 C   0  0  0  0  0  0  0  0  0  0  0  0
  151.4721  143.4561  158.3395 C   0  0  0  0  0  0  0  0  0  0  0  0
  152.1415  142.3258  158.8456 C   0  0  0  0  0  0  0  0  0  0  0  0
  152.3988  141.0554  158.3405 N   0  0  0  0  0  0  0  0  0  0  0  0
  151.9850  140.5471  157.0417 C   0  0  0  0  0  0  0  0  0  0  0  0
  150.4724  140.3040  156.9805 C   0  0  0  0  0  0  0  0  0  0  0  0
  150.1848  139.5812  155.7922 O   0  0  0  0  0  0  0  0  0  0  0  0
  149.1093  139.9802  155.0278 C   0  0  0  0  0  0  0  0  0  0  0  0
  148.7755  141.3496  155.0619 C   0  0  0  0  0  0  0  0  0  0  0  0
  147.6908  141.8458  154.3144 C   0  0  0  0  0  0  0  0  0  0  0  0
  146.9254  140.9726  153.5204 C   0  0  0  0  0  0  0  0  0  0  0  0
  147.2448  139.6009  153.4745 C   0  0  0  0  0  0  0  0  0  0  0  0
  146.4252  138.6571  152.6186 C   0  0  0  0  0  0  0  0  0  0  0  0
  148.3337  139.1072  154.2233 C   0  0  0  0  0  0  0  0  0  0  0  0
  155.9578  136.8830  162.5403 H   0  0  0  0  0  0  0  0  0  0  0  0
  155.8243  135.1530  162.2083 H   0  0  0  0  0  0  0  0  0  0  0  0
  154.6522  135.9382  163.2729 H   0  0  0  0  0  0  0  0  0  0  0  0
  153.9287  138.1916  161.9466 H   0  0  0  0  0  0  0  0  0  0  0  0
  152.4306  137.1922  159.5927 H   0  0  0  0  0  0  0  0  0  0  0  0
  152.0169  138.5538  160.6058 H   0  0  0  0  0  0  0  0  0  0  0  0
  154.6403  138.9643  159.3310 H   0  0  0  0  0  0  0  0  0  0  0  0
  153.4224  138.6792  158.1238 H   0  0  0  0  0  0  0  0  0  0  0  0
  153.0688  143.5308  161.9085 H   0  0  0  0  0  0  0  0  0  0  0  0
  151.8872  145.5298  161.0255 H   0  0  0  0  0  0  0  0  0  0  0  0
  150.8709  145.4889  158.7563 H   0  0  0  0  0  0  0  0  0  0  0  0
  151.0313  143.4363  157.3541 H   0  0  0  0  0  0  0  0  0  0  0  0
  152.2916  141.2471  156.2645 H   0  0  0  0  0  0  0  0  0  0  0  0
  152.5212  139.6184  156.8439 H   0  0  0  0  0  0  0  0  0  0  0  0
  150.1516  139.7363  157.8557 H   0  0  0  0  0  0  0  0  0  0  0  0
  149.9427  141.2577  156.9791 H   0  0  0  0  0  0  0  0  0  0  0  0
  149.3572  142.0273  155.6697 H   0  0  0  0  0  0  0  0  0  0  0  0
  147.4458  142.8970  154.3509 H   0  0  0  0  0  0  0  0  0  0  0  0
  146.0944  141.3591  152.9485 H   0  0  0  0  0  0  0  0  0  0  0  0
  146.2975  137.6965  153.1187 H   0  0  0  0  0  0  0  0  0  0  0  0
  146.9242  138.4850  151.6647 H   0  0  0  0  0  0  0  0  0  0  0  0
  145.4346  139.0672  152.4194 H   0  0  0  0  0  0  0  0  0  0  0  0
  148.5574  138.0526  154.1640 H   0  0  0  0  0  0  0  0  0  0  0  0
  1  2  1  0  0  0  0
  1 26  1  0  0  0  0
  1 27  1  0  0  0  0
  1 28  1  0  0  0  0
  2  3  2  0  0  0  0
  2  4  1  0  0  0  0
  4  5  1  0  0  0  0
  4 29  1  0  0  0  0
  5  6  1  0  0  0  0
  5 30  1  0  0  0  0
  5 31  1  0  0  0  0
  6  7  1  0  0  0  0
  6 32  1  0  0  0  0
  6 33  1  0  0  0  0
  7 15  1  0  0  0  0
  7  8  2  0  0  0  0
  8  9  1  0  0  0  0
  9 14  2  0  0  0  0
  9 10  1  0  0  0  0
 10 11  2  0  0  0  0
 10 34  1  0  0  0  0
 11 12  1  0  0  0  0
 11 35  1  0  0  0  0
 12 13  2  0  0  0  0
 12 36  1  0  0  0  0
 13 14  1  0  0  0  0
 13 37  1  0  0  0  0
 14 15  1  0  0  0  0
 15 16  1  0  0  0  0
 16 17  1  0  0  0  0
 16 38  1  0  0  0  0
 16 39  1  0  0  0  0
 17 18  1  0  0  0  0
 17 40  1  0  0  0  0
 17 41  1  0  0  0  0
 18 19  1  0  0  0  0
 19 25  1  0  0  0  0
 19 20  2  0  0  0  0
 20 21  1  0  0  0  0
 20 42  1  0  0  0  0
 21 22  2  0  0  0  0
 21 43  1  0  0  0  0
 22 23  1  0  0  0  0
 22 44  1  0  0  0  0
 23 24  1  0  0  0  0
 23 25  2  0  0  0  0
 24 45  1  0  0  0  0
 24 46  1  0  0  0  0
 24 47  1  0  0  0  0
 25 48  1  0  0  0  0
M  END
> <s_m_source_file>
AV-unprocessed.smi

> <i_m_source_file_index>
2961

> <i_lp_mmshare_version>
43012

> <i_f3d_flags>
0

> <s_epik_input>
W0NIM11DKD1PKVtOSF1bQ0gyXVtDSDJdYyhuMSluKGMoYzEyKVtjSF1bY0hdW2NIXVtjSF0yKVtDSDJdW0NIMl1PYzNbY0hdW2NIXVtjSF1jKFtDSDNdKVtjSF0z

> <s_epik_cmdline>
J2VwaWtfcHl0aG9uJywgJy1waCcsICc3LjAnLCAnLXRuJywgJzgnLCAnLW1hJywgJzIwMCcsICctbWV0YWxfYmluZGluZycsICctaW1hZScsICc8aW5maWxlLm1hZT4nLCAnLW9tYWUnLCAnPG91dGZpbGUubWFlPic=

> <r_lp_tautomer_probability>
1

> <r_epik_Ionization_Penalty>
0.0984942

> <r_epik_Ionization_Penalty_Charging>
0

> <r_epik_Ionization_Penalty_Neutral>
0.0984942

> <r_epik_State_Penalty>
0.0885769

> <r_epik_Charging_Adjusted_Penalty>
0.0885769

> <i_epik_Tot_Q>
0

> <i_epik_Tot_abs_Q>
0

> <r_epik_Metal_State_Penalty>
0.0758518

> <b_epik_Metal_Only>
0

> <s_lp_Force_Field>
OPLS_2005

> <r_lp_Energy>
13.474

> <b_lp_Chiralities_Consistent>
1

> <s_lp_Variant>
AV-unprocessed.smi:2961-1

> <Gold.Version>
5.8.1

> <Gold.Id.Protein>
6NUR|6NUR_protein|mol2

> <Gold.PLP.Fitness>
51.9099

> <Gold.PLP.PLP>
-51.4302

> <Gold.PLP.part.hbond>
-1.0000

> <Gold.PLP.part.metal>
0.0000

> <Gold.PLP.part.buried>
-5.7995

> <Gold.PLP.part.nonpolar>
-44.9069

> <Gold.PLP.part.repulsive>
0.0847

> <Gold.PLP.ligand.clash>
0.0000

> <Gold.PLP.ligand.torsion>
1.3606

> <Gold.PLP.Chemscore.Hbond>
1.0000

> <Gold.PLP.Chemscore.CHOScore>
0.0000

> <Gold.PLP.Chemscore.Metal>
0.0000

> <Gold.Chemscore.Hbonds>
donor molecule, donor type, donor heavy atom, donor atom, acceptor molecule, acceptor atom, score
      P1  H  6896  6907       L1     3  1.00

> <Gold.PLP.Chemscore.Internal.Correction>
0.2010

> <Gold.Rescore>
     Score         DG    S(hbond)    S(metal)    S(lipo)     H(rot)  DE(clash)    DE(int)     intcor
     18.70     -20.24       1.00        0.00     143.77       2.11       0.18       1.36       ----

> <Gold.Chemscore.Fitness>
18.7033

> <Gold.Chemscore.DG>
-20.2390

> <Gold.Chemscore.ZeroCoef>
-5.4800

> <Gold.Chemscore.Hbond>
0.9983

> <Gold.Chemscore.Metal>
0.0000

> <Gold.Chemscore.Lipo>
143.7679

> <Gold.Chemscore.Internal_Hbond>
0.0000

> <Gold.Chemscore.DEClash>
0.1759

> <Gold.Chemscore.DEInternal>
1.3599

> <Gold.Chemscore.Rot>
2.1078

> <Gold.Chemscore.Internal.Correction>
   9.000000E+99

> <Gold.Chemscore.Hbonds>
donor molecule, donor type, donor heavy atom, donor atom, acceptor molecule, acceptor atom, score
      P1  H  6896  6907       L1     3  0.95

> <Gold.Chemscore.Hbond.Weighted>
-3.3343

> <Gold.Chemscore.Metal.Weighted>
-0.0000

> <Gold.Chemscore.Lipo.Weighted>
-16.8208

> <Gold.Chemscore.Internal_Hbond.Weighted>
0.0000

> <Gold.Chemscore.DEClash.Weighted>
0.1759

> <Gold.Chemscore.DEInternal.Weighted>
1.3599

> <Gold.Chemscore.Rot.Weighted>
5.3961

> <Gold.Chemscore.Internal.Correction.Weighted>
   9.000000E+99

> <Gold.Protein.RotatedTorsions>
[ 6907 6896 6895 6894 ] final   75.37 input  -60.11 | X-H torsion
[ 7974 7965 7964 7962 ] final   61.49 input  175.53 | X-H torsion
[ 8008 7997 7996 7995 ] final   78.65 input   59.86 | X-H torsion
[ 10167 10162 10161 10158 ] final  -58.28 input  -65.29 | X-H torsion
[ 10718 10713 10712 10709 ] final  -60.76 input   66.30 | X-H torsion
[ 10763 10752 10751 10750 ] final   59.62 input  -60.55 | X-H torsion
[ 11005 11000 10999 10996 ] final   81.10 input  -57.11 | X-H torsion

> <Gold.Protein.ActiveResidues>
 VAL166  LYS551  ARG553  GLY616  TRP617  ASP618  TYR619  PRO620  LYS621  CYS622 
 ASP623  PHE694  ASN695  SER759  ASP760  ASP761  ALA762  ILE779  LEU786  VAL792 
 PHE793  MET794  SER795  GLU796  ALA797  LYS798  CYS799  TRP800  GLU811  SER814 

> <Gold.Protein.RotatedAtoms>
  152.5022  134.4131  159.9455 H   0  0  0  0  0  0  0  0  0  0  0  0  # atno 6907 bound_to 6896
  151.4100  133.3724  159.2750 H   0  0  0  0  0  0  0  0  0  0  0  0  # atno 6908 bound_to 6896
  150.9298  134.8735  159.7603 H   0  0  0  0  0  0  0  0  0  0  0  0  # atno 6909 bound_to 6896
  145.8841  139.3464  143.0688 H   0  0  0  0  0  0  0  0  0  0  0  0  # atno 7974 bound_to 7965
  155.8587  140.3455  155.5742 H   0  0  0  0  0  0  0  0  0  0  0  0  # atno 8008 bound_to 7997
  155.7957  140.0878  157.2004 H   0  0  0  0  0  0  0  0  0  0  0  0  # atno 8009 bound_to 7997
  154.4011  140.1475  156.3203 H   0  0  0  0  0  0  0  0  0  0  0  0  # atno 8010 bound_to 7997
  140.6207  143.2418  151.5487 H   0  0  0  0  0  0  0  0  0  0  0  0  # atno 10167 bound_to 10162
  156.0968  130.4192  150.0899 H   0  0  0  0  0  0  0  0  0  0  0  0  # atno 10718 bound_to 10713
  152.9899  135.5565  154.5742 H   0  0  0  0  0  0  0  0  0  0  0  0  # atno 10763 bound_to 10752
  154.5136  135.2803  155.1324 H   0  0  0  0  0  0  0  0  0  0  0  0  # atno 10764 bound_to 10752
  154.2705  135.6364  153.5361 H   0  0  0  0  0  0  0  0  0  0  0  0  # atno 10765 bound_to 10752
  139.9110  134.7971  156.1997 H   0  0  0  0  0  0  0  0  0  0  0  0  # atno 11005 bound_to 11000
  145.8988  140.9256  143.0514 LP  0  0  0  0  0  0  0  0  0  0  0  0  # atno 17320 bound_to 7965
  144.6728  140.1004  143.7461 LP  0  0  0  0  0  0  0  0  0  0  0  0  # atno 17321 bound_to 7965
  139.5436  144.2580  152.1399 LP  0  0  0  0  0  0  0  0  0  0  0  0  # atno 17342 bound_to 10162
  140.1800  144.4853  150.6533 LP  0  0  0  0  0  0  0  0  0  0  0  0  # atno 17343 bound_to 10162
  156.8895  130.9584  151.3590 LP  0  0  0  0  0  0  0  0  0  0  0  0  # atno 17370 bound_to 10713
  157.6131  130.8598  149.8984 LP  0  0  0  0  0  0  0  0  0  0  0  0  # atno 17371 bound_to 10713
  141.0532  133.6878  156.1811 LP  0  0  0  0  0  0  0  0  0  0  0  0  # atno 17394 bound_to 11000
  140.6777  134.4800  157.5588 LP  0  0  0  0  0  0  0  0  0  0  0  0  # atno 17395 bound_to 11000

$$$$
