AV-unprocessed.smi:1259|AV-procd|sdf|5291|dock6
  -GOLD-   22720 4413D 1   1.00000     0.00000
 Structure written by MMmdl.
 34 35  0  0  0  0  0  0  0  0  1 V2000
  150.4389  137.4969  154.5261 C   0  0  0  0  0  0  0  0  0  0  0  0
  150.1060  138.9320  154.8095 C   0  0  0  0  0  0  0  0  0  0  0  0
  150.8425  139.8649  155.5958 C   0  0  0  0  0  0  0  0  0  0  0  0
  150.0828  140.9994  155.5074 C   0  0  0  0  0  0  0  0  0  0  0  0
  150.2993  142.2192  156.0674 N   0  0  0  0  0  0  0  0  0  0  0  0
  151.1864  142.5628  157.0176 C   0  0  0  0  0  0  0  0  0  0  0  0
  151.9757  141.7951  157.5683 O   0  0  0  0  0  0  0  0  0  0  0  0
  151.1078  143.8715  157.2998 N   0  0  0  0  0  0  0  0  0  0  0  0
  151.9353  144.5788  158.2721 C   0  0  2  0  0  0  0  0  0  0  0  0
  153.3648  144.6767  157.7218 C   0  0  0  0  0  0  0  0  0  0  0  0
  151.9287  143.9378  159.6499 C   0  0  0  0  0  0  0  0  0  0  0  0
  152.8853  144.3834  160.7308 C   0  0  0  0  0  0  0  0  0  0  0  0
  153.0499  143.0257  160.0881 C   0  0  0  0  0  0  0  0  0  0  0  0
  148.9823  140.7376  154.7214 N   0  0  0  0  0  0  0  0  0  0  0  0
  147.8905  141.6121  154.3399 C   0  0  0  0  0  0  0  0  0  0  0  0
  149.0001  139.4567  154.2938 N   0  0  0  0  0  0  0  0  0  0  0  0
  151.3919  137.2175  154.9759 H   0  0  0  0  0  0  0  0  0  0  0  0
  150.5129  137.3144  153.4537 H   0  0  0  0  0  0  0  0  0  0  0  0
  149.6751  136.8302  154.9271 H   0  0  0  0  0  0  0  0  0  0  0  0
  151.7688  139.7063  156.1270 H   0  0  0  0  0  0  0  0  0  0  0  0
  149.7183  142.9642  155.7121 H   0  0  0  0  0  0  0  0  0  0  0  0
  150.4289  144.4245  156.7977 H   0  0  0  0  0  0  0  0  0  0  0  0
  151.5577  145.5983  158.3719 H   0  0  0  0  0  0  0  0  0  0  0  0
  154.0056  145.2476  158.3941 H   0  0  0  0  0  0  0  0  0  0  0  0
  153.3806  145.1764  156.7526 H   0  0  0  0  0  0  0  0  0  0  0  0
  153.8111  143.6895  157.5962 H   0  0  0  0  0  0  0  0  0  0  0  0
  150.9349  143.6475  159.9870 H   0  0  0  0  0  0  0  0  0  0  0  0
  153.6185  145.1473  160.4796 H   0  0  0  0  0  0  0  0  0  0  0  0
  152.5085  144.4165  161.7510 H   0  0  0  0  0  0  0  0  0  0  0  0
  152.7844  142.1525  160.6804 H   0  0  0  0  0  0  0  0  0  0  0  0
  153.8905  142.8914  159.4098 H   0  0  0  0  0  0  0  0  0  0  0  0
  147.2028  141.7229  155.1781 H   0  0  0  0  0  0  0  0  0  0  0  0
  147.3499  141.1987  153.4875 H   0  0  0  0  0  0  0  0  0  0  0  0
  148.2794  142.5927  154.0650 H   0  0  0  0  0  0  0  0  0  0  0  0
  1  2  1  0  0  0  0
  1 17  1  0  0  0  0
  1 18  1  0  0  0  0
  1 19  1  0  0  0  0
  2 16  2  0  0  0  0
  2  3  1  0  0  0  0
  3  4  2  0  0  0  0
  3 20  1  0  0  0  0
  4  5  1  0  0  0  0
  4 14  1  0  0  0  0
  5  6  1  0  0  0  0
  5 21  1  0  0  0  0
  6  7  2  0  0  0  0
  6  8  1  0  0  0  0
  8  9  1  0  0  0  0
  8 22  1  0  0  0  0
  9 10  1  0  0  0  0
  9 11  1  0  0  0  0
  9 23  1  0  0  0  0
 10 24  1  0  0  0  0
 10 25  1  0  0  0  0
 10 26  1  0  0  0  0
 11 13  1  0  0  0  0
 11 12  1  0  0  0  0
 11 27  1  0  0  0  0
 12 13  1  0  0  0  0
 12 28  1  0  0  0  0
 12 29  1  0  0  0  0
 13 30  1  0  0  0  0
 13 31  1  0  0  0  0
 14 15  1  0  0  0  0
 14 16  1  0  0  0  0
 15 32  1  0  0  0  0
 15 33  1  0  0  0  0
 15 34  1  0  0  0  0
M  END
> <s_m_source_file>
AV-unprocessed.smi

> <i_m_source_file_index>
1259

> <i_lp_mmshare_version>
43012

> <i_f3d_flags>
0

> <s_epik_input>
W0NIM11jMVtjSF1jKG4objEpW0NIM10pW05IXUMoPU8pW05IXVtDQEhdKFtDSDNdKVtDSF0yW0NIMl1bQ0gyXTI=

> <s_epik_cmdline>
J2VwaWtfcHl0aG9uJywgJy1waCcsICc3LjAnLCAnLXRuJywgJzgnLCAnLW1hJywgJzIwMCcsICctbWV0YWxfYmluZGluZycsICctaW1hZScsICc8aW5maWxlLm1hZT4nLCAnLW9tYWUnLCAnPG91dGZpbGUubWFlPic=

> <r_lp_tautomer_probability>
1

> <r_epik_Ionization_Penalty>
0.000100032

> <r_epik_Ionization_Penalty_Charging>
0

> <r_epik_Ionization_Penalty_Neutral>
0.000100032

> <r_epik_State_Penalty>
-0

> <r_epik_Charging_Adjusted_Penalty>
0

> <i_epik_Tot_Q>
0

> <i_epik_Tot_abs_Q>
0

> <r_epik_Metal_State_Penalty>
-0

> <b_epik_Metal_Only>
0

> <s_lp_Force_Field>
OPLS_2005

> <r_lp_Energy>
14.2457

> <b_lp_Chiralities_Consistent>
1

> <s_lp_Variant>
AV-unprocessed.smi:1259-1

> <Gold.Version>
5.8.1

> <Gold.Id.Protein>
6NUR|6NUR_protein|mol2

> <Gold.PLP.Fitness>
47.1001

> <Gold.PLP.PLP>
-41.4133

> <Gold.PLP.part.hbond>
-2.0000

> <Gold.PLP.part.metal>
0.0000

> <Gold.PLP.part.buried>
-5.9409

> <Gold.PLP.part.nonpolar>
-34.2752

> <Gold.PLP.part.repulsive>
1.1729

> <Gold.PLP.ligand.clash>
0.0000

> <Gold.PLP.ligand.torsion>
0.6880

> <Gold.PLP.Chemscore.Hbond>
2.0000

> <Gold.PLP.Chemscore.CHOScore>
0.0000

> <Gold.PLP.Chemscore.Metal>
0.0000

> <Gold.Chemscore.Hbonds>
donor molecule, donor type, donor heavy atom, donor atom, acceptor molecule, acceptor atom, score
      L1  H     5    21       P1  8028  1.00
      L1  H     8    22       P1  8028  1.00

> <Gold.PLP.Chemscore.Internal.Correction>
1.0627

> <Gold.Rescore>
     Score         DG    S(hbond)    S(metal)    S(lipo)     H(rot)  DE(clash)    DE(int)     intcor
     14.79     -19.23       1.85        0.00      91.00       1.20       0.13       4.31       ----

> <Gold.Chemscore.Fitness>
14.7915

> <Gold.Chemscore.DG>
-19.2272

> <Gold.Chemscore.ZeroCoef>
-5.4800

> <Gold.Chemscore.Hbond>
1.8471

> <Gold.Chemscore.Metal>
0.0000

> <Gold.Chemscore.Lipo>
91.0036

> <Gold.Chemscore.Internal_Hbond>
0.0000

> <Gold.Chemscore.DEClash>
0.1271

> <Gold.Chemscore.DEInternal>
4.3086

> <Gold.Chemscore.Rot>
1.1990

> <Gold.Chemscore.Internal.Correction>
   9.000000E+99

> <Gold.Chemscore.Hbonds>
donor molecule, donor type, donor heavy atom, donor atom, acceptor molecule, acceptor atom, score
      L1  H     5    21       P1  8028  0.98
      L1  H     8    22       P1  8028  0.93

> <Gold.Chemscore.Hbond.Weighted>
-6.1693

> <Gold.Chemscore.Metal.Weighted>
-0.0000

> <Gold.Chemscore.Lipo.Weighted>
-10.6474

> <Gold.Chemscore.Internal_Hbond.Weighted>
0.0000

> <Gold.Chemscore.DEClash.Weighted>
0.1271

> <Gold.Chemscore.DEInternal.Weighted>
4.3086

> <Gold.Chemscore.Rot.Weighted>
3.0695

> <Gold.Chemscore.Internal.Correction.Weighted>
   9.000000E+99

> <Gold.Protein.RotatedTorsions>
[ 6907 6896 6895 6894 ] final  121.88 input  -60.11 | X-H torsion
[ 7974 7965 7964 7962 ] final  -39.10 input  175.53 | X-H torsion
[ 8008 7997 7996 7995 ] final -168.96 input   59.86 | X-H torsion
[ 10167 10162 10161 10158 ] final    8.03 input  -65.29 | X-H torsion
[ 10718 10713 10712 10709 ] final  -85.15 input   66.30 | X-H torsion
[ 10763 10752 10751 10750 ] final  129.58 input  -60.55 | X-H torsion
[ 11005 11000 10999 10996 ] final  -95.23 input  -57.11 | X-H torsion

> <Gold.Protein.ActiveResidues>
 VAL166  LYS551  ARG553  GLY616  TRP617  ASP618  TYR619  PRO620  LYS621  CYS622 
 ASP623  PHE694  ASN695  SER759  ASP760  ASP761  ALA762  ILE779  LEU786  VAL792 
 PHE793  MET794  SER795  GLU796  ALA797  LYS798  CYS799  TRP800  GLU811  SER814 

> <Gold.Protein.RotatedAtoms>
  152.4287  133.7239  159.6548 H   0  0  0  0  0  0  0  0  0  0  0  0  # atno 6907 bound_to 6896
  150.8164  133.8318  159.3164 H   0  0  0  0  0  0  0  0  0  0  0  0  # atno 6908 bound_to 6896
  151.6013  135.1049  160.0112 H   0  0  0  0  0  0  0  0  0  0  0  0  # atno 6909 bound_to 6896
  146.0427  140.6587  142.9079 H   0  0  0  0  0  0  0  0  0  0  0  0  # atno 7974 bound_to 7965
  155.8985  140.1037  157.1367 H   0  0  0  0  0  0  0  0  0  0  0  0  # atno 8008 bound_to 7997
  154.4023  140.1297  156.4470 H   0  0  0  0  0  0  0  0  0  0  0  0  # atno 8009 bound_to 7997
  155.7450  140.3466  155.5125 H   0  0  0  0  0  0  0  0  0  0  0  0  # atno 8010 bound_to 7997
  140.6337  143.7934  150.7331 H   0  0  0  0  0  0  0  0  0  0  0  0  # atno 10167 bound_to 10162
  155.9999  130.4721  150.4518 H   0  0  0  0  0  0  0  0  0  0  0  0  # atno 10718 bound_to 10713
  153.7440  135.3220  155.3309 H   0  0  0  0  0  0  0  0  0  0  0  0  # atno 10763 bound_to 10752
  154.8285  135.4551  154.0998 H   0  0  0  0  0  0  0  0  0  0  0  0  # atno 10764 bound_to 10752
  153.2181  135.6944  153.8115 H   0  0  0  0  0  0  0  0  0  0  0  0  # atno 10765 bound_to 10752
  141.1448  133.8011  157.0407 H   0  0  0  0  0  0  0  0  0  0  0  0  # atno 11005 bound_to 11000
  144.7082  140.3937  143.7101 LP  0  0  0  0  0  0  0  0  0  0  0  0  # atno 17320 bound_to 7965
  145.6857  139.1628  143.2675 LP  0  0  0  0  0  0  0  0  0  0  0  0  # atno 17321 bound_to 7965
  140.1551  143.4324  152.2105 LP  0  0  0  0  0  0  0  0  0  0  0  0  # atno 17342 bound_to 10162
  139.5549  144.7365  151.4323 LP  0  0  0  0  0  0  0  0  0  0  0  0  # atno 17343 bound_to 10162
  157.2550  131.0554  151.2356 LP  0  0  0  0  0  0  0  0  0  0  0  0  # atno 17370 bound_to 10713
  157.3491  130.7073  149.6429 LP  0  0  0  0  0  0  0  0  0  0  0  0  # atno 17371 bound_to 10713
  140.0695  134.9710  157.1442 LP  0  0  0  0  0  0  0  0  0  0  0  0  # atno 17394 bound_to 11000
  140.3732  134.2368  155.7176 LP  0  0  0  0  0  0  0  0  0  0  0  0  # atno 17395 bound_to 11000

$$$$
