AV-unprocessed.smi:2474|AV-procd|sdf|9751|dock9
  -GOLD-   2272013393D 1   1.00000     0.00000
 Structure written by MMmdl.
 40 41  0  0  0  0  0  0  0  0  1 V2000
  151.3339  136.7127  156.3481 C   0  0  0  0  0  0  0  0  0  0  0  0
  150.6988  137.7252  155.4571 C   0  0  0  0  0  0  0  0  0  0  0  0
  151.2774  138.8431  154.9092 C   0  0  0  0  0  0  0  0  0  0  0  0
  150.4055  139.6049  154.1288 N   0  0  0  0  0  0  0  0  0  0  0  0
  149.1770  139.0824  154.0748 C   0  0  0  0  0  0  0  0  0  0  0  0
  148.0230  139.7357  153.3736 C   0  0  2  0  0  0  0  0  0  0  0  0
  147.7886  141.1722  153.8628 C   0  0  0  0  0  0  0  0  0  0  0  0
  146.7376  138.8772  153.3850 C   0  0  0  0  0  0  0  0  0  0  0  0
  146.9272  137.6002  152.6994 N   0  0  0  0  0  0  0  0  0  0  0  0
  145.9673  136.6923  152.4724 C   0  0  0  0  0  0  0  0  0  0  0  0
  144.7719  136.8754  152.7023 O   0  0  0  0  0  0  0  0  0  0  0  0
  146.4758  135.5368  152.0238 N   0  0  0  0  0  0  0  0  0  0  0  0
  145.7169  134.3023  151.8501 C   0  0  2  0  0  0  0  0  0  0  0  0
  146.6767  133.1356  151.5291 C   0  0  0  0  0  0  0  0  0  0  0  0
  145.9479  131.7917  151.3787 C   0  0  0  0  0  0  0  0  0  0  0  0
  144.9193  131.8087  150.2395 C   0  0  0  0  0  0  0  0  0  0  0  0
  143.6197  133.0355  150.5466 S   0  0  0  0  0  0  0  0  0  0  0  0
  144.6700  134.5016  150.7406 C   0  0  0  0  0  0  0  0  0  0  0  0
  149.0247  137.5854  154.9897 S   0  0  0  0  0  0  0  0  0  0  0  0
  152.3717  136.9716  156.5596 H   0  0  0  0  0  0  0  0  0  0  0  0
  151.3206  135.7264  155.8839 H   0  0  0  0  0  0  0  0  0  0  0  0
  150.8037  136.6480  157.2986 H   0  0  0  0  0  0  0  0  0  0  0  0
  152.2975  139.1767  155.0290 H   0  0  0  0  0  0  0  0  0  0  0  0
  148.3210  139.8236  152.3279 H   0  0  0  0  0  0  0  0  0  0  0  0
  148.6889  141.7769  153.7505 H   0  0  0  0  0  0  0  0  0  0  0  0
  147.5028  141.1912  154.9149 H   0  0  0  0  0  0  0  0  0  0  0  0
  146.9933  141.6551  153.2946 H   0  0  0  0  0  0  0  0  0  0  0  0
  146.4008  138.7163  154.4107 H   0  0  0  0  0  0  0  0  0  0  0  0
  145.9314  139.4115  152.8819 H   0  0  0  0  0  0  0  0  0  0  0  0
  147.8769  137.3507  152.4655 H   0  0  0  0  0  0  0  0  0  0  0  0
  147.4711  135.4848  151.8647 H   0  0  0  0  0  0  0  0  0  0  0  0
  145.1879  134.0837  152.7800 H   0  0  0  0  0  0  0  0  0  0  0  0
  147.2343  133.3528  150.6172 H   0  0  0  0  0  0  0  0  0  0  0  0
  147.4200  133.0401  152.3219 H   0  0  0  0  0  0  0  0  0  0  0  0
  146.6809  131.0069  151.1897 H   0  0  0  0  0  0  0  0  0  0  0  0
  145.4567  131.5309  152.3169 H   0  0  0  0  0  0  0  0  0  0  0  0
  145.4060  132.0355  149.2904 H   0  0  0  0  0  0  0  0  0  0  0  0
  144.4555  130.8278  150.1352 H   0  0  0  0  0  0  0  0  0  0  0  0
  144.0282  135.3526  150.9708 H   0  0  0  0  0  0  0  0  0  0  0  0
  145.1560  134.7156  149.7878 H   0  0  0  0  0  0  0  0  0  0  0  0
  1  2  1  0  0  0  0
  1 20  1  0  0  0  0
  1 21  1  0  0  0  0
  1 22  1  0  0  0  0
  2 19  1  0  0  0  0
  2  3  2  0  0  0  0
  3  4  1  0  0  0  0
  3 23  1  0  0  0  0
  4  5  2  0  0  0  0
  5  6  1  0  0  0  0
  5 19  1  0  0  0  0
  6  7  1  0  0  0  0
  6  8  1  0  0  0  0
  6 24  1  0  0  0  0
  7 25  1  0  0  0  0
  7 26  1  0  0  0  0
  7 27  1  0  0  0  0
  8  9  1  0  0  0  0
  8 28  1  0  0  0  0
  8 29  1  0  0  0  0
  9 10  1  0  0  0  0
  9 30  1  0  0  0  0
 10 11  2  0  0  0  0
 10 12  1  0  0  0  0
 12 13  1  0  0  0  0
 12 31  1  0  0  0  0
 13 18  1  0  0  0  0
 13 14  1  0  0  0  0
 13 32  1  0  0  0  0
 14 15  1  0  0  0  0
 14 33  1  0  0  0  0
 14 34  1  0  0  0  0
 15 16  1  0  0  0  0
 15 35  1  0  0  0  0
 15 36  1  0  0  0  0
 16 17  1  0  0  0  0
 16 37  1  0  0  0  0
 16 38  1  0  0  0  0
 17 18  1  0  0  0  0
 18 39  1  0  0  0  0
 18 40  1  0  0  0  0
M  END
> <s_m_source_file>
AV-unprocessed.smi

> <i_m_source_file_index>
2474

> <i_lp_mmshare_version>
43012

> <i_f3d_flags>
0

> <s_epik_input>
W0NIM11jMVtjSF1uYyhzMSlbQ0BIXShbQ0gzXSlbQ0gyXVtOSF1DKD1PKVtOSF1bQ0BASF0yW0NIMl1bQ0gyXVtDSDJdU1tDSDJdMg==

> <s_epik_cmdline>
J2VwaWtfcHl0aG9uJywgJy1waCcsICc3LjAnLCAnLXRuJywgJzgnLCAnLW1hJywgJzIwMCcsICctbWV0YWxfYmluZGluZycsICctaW1hZScsICc8aW5maWxlLm1hZT4nLCAnLW9tYWUnLCAnPG91dGZpbGUubWFlPic=

> <r_epik_Ionization_Penalty>
0.000644338

> <r_epik_Ionization_Penalty_Charging>
0

> <r_epik_Ionization_Penalty_Neutral>
0.000644338

> <r_epik_State_Penalty>
0.000374131

> <r_epik_Charging_Adjusted_Penalty>
0.000374131

> <i_epik_Tot_Q>
0

> <i_epik_Tot_abs_Q>
0

> <r_epik_Metal_State_Penalty>
-0

> <b_epik_Metal_Only>
0

> <s_lp_Force_Field>
OPLS_2005

> <r_lp_Energy>
-6.83814

> <b_lp_Chiralities_Consistent>
1

> <s_lp_Variant>
AV-unprocessed.smi:2474-1

> <Gold.Version>
5.8.1

> <Gold.Id.Protein>
6NUR|6NUR_protein|mol2

> <Gold.PLP.Fitness>
40.4139

> <Gold.PLP.PLP>
-31.5908

> <Gold.PLP.part.hbond>
-3.0000

> <Gold.PLP.part.metal>
0.0000

> <Gold.PLP.part.buried>
-0.6799

> <Gold.PLP.part.nonpolar>
-28.9440

> <Gold.PLP.part.repulsive>
0.5388

> <Gold.PLP.ligand.clash>
0.0000

> <Gold.PLP.ligand.torsion>
0.1413

> <Gold.PLP.Chemscore.Hbond>
2.9920

> <Gold.PLP.Chemscore.CHOScore>
0.0000

> <Gold.PLP.Chemscore.Metal>
0.0000

> <Gold.Chemscore.Hbonds>
donor molecule, donor type, donor heavy atom, donor atom, acceptor molecule, acceptor atom, score
      L1  H     9    30       P1  7948  0.99
      L1  H    12    31       P1  7948  1.00
      P1  H  7989  7998       L1     4  0.95

> <Gold.PLP.Chemscore.Internal.Correction>
0.1297

> <Gold.Rescore>
     Score         DG    S(hbond)    S(metal)    S(lipo)     H(rot)  DE(clash)    DE(int)     intcor
     18.78     -20.79       2.70        0.00      85.77       1.46       1.83       0.18       ----

> <Gold.Chemscore.Fitness>
18.7759

> <Gold.Chemscore.DG>
-20.7909

> <Gold.Chemscore.ZeroCoef>
-5.4800

> <Gold.Chemscore.Hbond>
2.6998

> <Gold.Chemscore.Metal>
0.0000

> <Gold.Chemscore.Lipo>
85.7699

> <Gold.Chemscore.Internal_Hbond>
0.0000

> <Gold.Chemscore.DEClash>
1.8317

> <Gold.Chemscore.DEInternal>
0.1832

> <Gold.Chemscore.Rot>
1.4616

> <Gold.Chemscore.Internal.Correction>
   9.000000E+99

> <Gold.Chemscore.Hbonds>
donor molecule, donor type, donor heavy atom, donor atom, acceptor molecule, acceptor atom, score
      L1  H     9    30       P1  7948  0.94
      L1  H    12    31       P1  7948  0.94
      P1  H  7989  7998       L1     4  0.21

> <Gold.Chemscore.Hbond.Weighted>
-9.0174

> <Gold.Chemscore.Metal.Weighted>
-0.0000

> <Gold.Chemscore.Lipo.Weighted>
-10.0351

> <Gold.Chemscore.Internal_Hbond.Weighted>
0.0000

> <Gold.Chemscore.DEClash.Weighted>
1.8317

> <Gold.Chemscore.DEInternal.Weighted>
0.1832

> <Gold.Chemscore.Rot.Weighted>
3.7416

> <Gold.Chemscore.Internal.Correction.Weighted>
   9.000000E+99

> <Gold.Protein.RotatedTorsions>
[ 6907 6896 6895 6894 ] final  163.41 input  -60.11 | X-H torsion
[ 7974 7965 7964 7962 ] final -109.76 input  175.53 | X-H torsion
[ 8008 7997 7996 7995 ] final   -0.75 input   59.86 | X-H torsion
[ 10167 10162 10161 10158 ] final -159.32 input  -65.29 | X-H torsion
[ 10718 10713 10712 10709 ] final  110.01 input   66.30 | X-H torsion
[ 10763 10752 10751 10750 ] final   -0.13 input  -60.55 | X-H torsion
[ 11005 11000 10999 10996 ] final   63.57 input  -57.11 | X-H torsion

> <Gold.Protein.ActiveResidues>
 VAL166  LYS551  ARG553  GLY616  TRP617  ASP618  TYR619  PRO620  LYS621  CYS622 
 ASP623  PHE694  ASN695  SER759  ASP760  ASP761  ALA762  ILE779  LEU786  VAL792 
 PHE793  MET794  SER795  GLU796  ALA797  LYS798  CYS799  TRP800  GLU811  SER814 

> <Gold.Protein.RotatedAtoms>
  151.9256  133.3597  159.3912 H   0  0  0  0  0  0  0  0  0  0  0  0  # atno 6907 bound_to 6896
  150.7028  134.4591  159.5381 H   0  0  0  0  0  0  0  0  0  0  0  0  # atno 6908 bound_to 6896
  152.2222  134.8402  160.0535 H   0  0  0  0  0  0  0  0  0  0  0  0  # atno 6909 bound_to 6896
  145.1765  140.8951  143.3505 H   0  0  0  0  0  0  0  0  0  0  0  0  # atno 7974 bound_to 7965
  154.6545  140.2576  155.7176 H   0  0  0  0  0  0  0  0  0  0  0  0  # atno 8008 bound_to 7997
  156.2590  140.2861  156.0914 H   0  0  0  0  0  0  0  0  0  0  0  0  # atno 8009 bound_to 7997
  155.1400  140.0380  157.2786 H   0  0  0  0  0  0  0  0  0  0  0  0  # atno 8010 bound_to 7997
  139.6624  143.9888  152.2234 H   0  0  0  0  0  0  0  0  0  0  0  0  # atno 10167 bound_to 10162
  157.6514  131.0924  150.6539 H   0  0  0  0  0  0  0  0  0  0  0  0  # atno 10718 bound_to 10713
  153.3279  135.6973  153.6973 H   0  0  0  0  0  0  0  0  0  0  0  0  # atno 10763 bound_to 10752
  153.5787  135.3502  155.2867 H   0  0  0  0  0  0  0  0  0  0  0  0  # atno 10764 bound_to 10752
  154.8612  135.4290  154.2460 H   0  0  0  0  0  0  0  0  0  0  0  0  # atno 10765 bound_to 10752
  140.0016  134.6434  155.9922 H   0  0  0  0  0  0  0  0  0  0  0  0  # atno 11005 bound_to 11000
  145.0179  139.3450  143.6087 LP  0  0  0  0  0  0  0  0  0  0  0  0  # atno 17320 bound_to 7965
  146.3460  139.9468  142.8734 LP  0  0  0  0  0  0  0  0  0  0  0  0  # atno 17321 bound_to 7965
  139.9631  144.6544  150.8060 LP  0  0  0  0  0  0  0  0  0  0  0  0  # atno 17342 bound_to 10162
  140.7585  143.3110  151.2846 LP  0  0  0  0  0  0  0  0  0  0  0  0  # atno 17343 bound_to 10162
  156.6849  130.4578  149.5616 LP  0  0  0  0  0  0  0  0  0  0  0  0  # atno 17370 bound_to 10713
  156.1902  130.6555  151.1053 LP  0  0  0  0  0  0  0  0  0  0  0  0  # atno 17371 bound_to 10713
  141.1646  133.6537  156.4434 LP  0  0  0  0  0  0  0  0  0  0  0  0  # atno 17394 bound_to 11000
  140.4718  134.6746  157.5132 LP  0  0  0  0  0  0  0  0  0  0  0  0  # atno 17395 bound_to 11000

$$$$
