AV-unprocessed.smi:2787|AV-procd|sdf|10756|dock7
  -GOLD-   2272015183D 1   1.00000     0.00000
 Structure written by MMmdl.
 35 36  0  0  0  0  0  0  0  0  1 V2000
  149.6585  140.9413  153.6710 O   0  0  0  0  0  0  0  0  0  0  0  0
  149.7336  140.5000  155.0105 C   0  0  0  0  0  0  0  0  0  0  0  0
  151.0757  139.8020  155.2719 C   0  0  0  0  0  0  0  0  0  0  0  0
  151.3938  139.6450  156.7687 C   0  0  0  0  0  0  0  0  0  0  0  0
  151.5481  140.9632  157.4689 C   0  0  0  0  0  0  0  0  0  0  0  0
  151.1715  142.1022  156.8864 N   0  0  0  0  0  0  0  0  0  0  0  0
  151.4622  143.0493  157.8475 C   0  0  0  0  0  0  0  0  0  0  0  0
  151.2893  144.4518  157.8351 C   0  0  0  0  0  0  0  0  0  0  0  0
  151.6636  145.2269  158.9521 C   0  0  0  0  0  0  0  0  0  0  0  0
  152.2139  144.6118  160.0950 C   0  0  0  0  0  0  0  0  0  0  0  0
  152.3950  143.2157  160.1274 C   0  0  0  0  0  0  0  0  0  0  0  0
  152.0212  142.4458  159.0091 C   0  0  0  0  0  0  0  0  0  0  0  0
  152.0652  141.0842  158.7200 N   0  0  0  0  0  0  0  0  0  0  0  0
  152.5768  140.0406  159.6017 C   0  0  0  0  0  0  0  0  0  0  0  0
  154.1047  139.8570  159.4975 C   0  0  2  0  0  0  0  0  0  0  0  0
  154.4034  138.9688  158.4368 O   0  0  0  0  0  0  0  0  0  0  0  0
  154.7341  139.3272  160.8002 C   0  0  0  0  0  0  0  0  0  0  0  0
  154.5541  140.2048  161.7876 F   0  0  0  0  0  0  0  0  0  0  0  0
  154.1364  138.1877  161.1487 F   0  0  0  0  0  0  0  0  0  0  0  0
  156.0375  139.0934  160.6421 F   0  0  0  0  0  0  0  0  0  0  0  0
  149.4206  140.2070  153.1255 H   0  0  0  0  0  0  0  0  0  0  0  0
  149.5982  141.3476  155.6831 H   0  0  0  0  0  0  0  0  0  0  0  0
  148.9106  139.8085  155.1925 H   0  0  0  0  0  0  0  0  0  0  0  0
  151.0519  138.8140  154.8108 H   0  0  0  0  0  0  0  0  0  0  0  0
  151.8745  140.3474  154.7692 H   0  0  0  0  0  0  0  0  0  0  0  0
  150.6270  139.0438  157.2532 H   0  0  0  0  0  0  0  0  0  0  0  0
  152.3236  139.0869  156.8861 H   0  0  0  0  0  0  0  0  0  0  0  0
  150.8676  144.9319  156.9646 H   0  0  0  0  0  0  0  0  0  0  0  0
  151.5269  146.2982  158.9318 H   0  0  0  0  0  0  0  0  0  0  0  0
  152.4965  145.2125  160.9472 H   0  0  0  0  0  0  0  0  0  0  0  0
  152.8143  142.7437  161.0035 H   0  0  0  0  0  0  0  0  0  0  0  0
  152.2808  140.2639  160.6260 H   0  0  0  0  0  0  0  0  0  0  0  0
  152.0754  139.1050  159.3536 H   0  0  0  0  0  0  0  0  0  0  0  0
  154.5658  140.8151  159.2613 H   0  0  0  0  0  0  0  0  0  0  0  0
  153.6010  138.7675  157.9798 H   0  0  0  0  0  0  0  0  0  0  0  0
  1  2  1  0  0  0  0
  1 21  1  0  0  0  0
  2  3  1  0  0  0  0
  2 22  1  0  0  0  0
  2 23  1  0  0  0  0
  3  4  1  0  0  0  0
  3 24  1  0  0  0  0
  3 25  1  0  0  0  0
  4  5  1  0  0  0  0
  4 26  1  0  0  0  0
  4 27  1  0  0  0  0
  5 13  1  0  0  0  0
  5  6  2  0  0  0  0
  6  7  1  0  0  0  0
  7 12  2  0  0  0  0
  7  8  1  0  0  0  0
  8  9  2  0  0  0  0
  8 28  1  0  0  0  0
  9 10  1  0  0  0  0
  9 29  1  0  0  0  0
 10 11  2  0  0  0  0
 10 30  1  0  0  0  0
 11 12  1  0  0  0  0
 11 31  1  0  0  0  0
 12 13  1  0  0  0  0
 13 14  1  0  0  0  0
 14 15  1  0  0  0  0
 14 32  1  0  0  0  0
 14 33  1  0  0  0  0
 15 16  1  0  0  0  0
 15 17  1  0  0  0  0
 15 34  1  0  0  0  0
 16 35  1  0  0  0  0
 17 18  1  0  0  0  0
 17 19  1  0  0  0  0
 17 20  1  0  0  0  0
M  END
> <s_m_source_file>
AV-unprocessed.smi

> <i_m_source_file_index>
2787

> <i_lp_mmshare_version>
43012

> <i_f3d_flags>
0

> <s_epik_input>
W09IXVtDSDJdW0NIMl1bQ0gyXWMobjEpbihbQ0gyXVtDQEhdKFtPSF0pQyhGKShGKUYpYyhjMTIpW2NIXVtjSF1bY0hdW2NIXTI=

> <s_epik_cmdline>
J2VwaWtfcHl0aG9uJywgJy1waCcsICc3LjAnLCAnLXRuJywgJzgnLCAnLW1hJywgJzIwMCcsICctbWV0YWxfYmluZGluZycsICctaW1hZScsICc8aW5maWxlLm1hZT4nLCAnLW9tYWUnLCAnPG91dGZpbGUubWFlPic=

> <r_epik_Ionization_Penalty>
0.137914

> <r_epik_Ionization_Penalty_Charging>
0

> <r_epik_Ionization_Penalty_Neutral>
0.137914

> <r_epik_State_Penalty>
0.107668

> <r_epik_Charging_Adjusted_Penalty>
0.107668

> <i_epik_Tot_Q>
0

> <i_epik_Tot_abs_Q>
0

> <r_epik_Metal_State_Penalty>
0.000111872

> <b_epik_Metal_Only>
0

> <s_lp_Force_Field>
OPLS_2005

> <r_lp_Energy>
10.5181

> <b_lp_Chiralities_Consistent>
1

> <s_lp_Variant>
AV-unprocessed.smi:2787-1

> <Gold.Version>
5.8.1

> <Gold.Id.Protein>
6NUR|6NUR_protein|mol2

> <Gold.PLP.Fitness>
50.6981

> <Gold.PLP.PLP>
-43.9895

> <Gold.PLP.part.hbond>
-3.8563

> <Gold.PLP.part.metal>
0.0000

> <Gold.PLP.part.buried>
-2.2321

> <Gold.PLP.part.nonpolar>
-37.9075

> <Gold.PLP.part.repulsive>
0.0666

> <Gold.PLP.ligand.clash>
0.0000

> <Gold.PLP.ligand.torsion>
0.9138

> <Gold.PLP.Chemscore.Hbond>
2.8320

> <Gold.PLP.Chemscore.CHOScore>
0.0000

> <Gold.PLP.Chemscore.Metal>
0.0000

> <Gold.Chemscore.Hbonds>
donor molecule, donor type, donor heavy atom, donor atom, acceptor molecule, acceptor atom, score
      L1  H     1    21       P1  7957  0.56
      P1  H  7989  7998       L1     1  0.23
      P1  H  7997  8009       L1    16  1.00
      P1  H  8011  8017       L1     1  1.00

> <Gold.PLP.Chemscore.Internal.Correction>
0.0403

> <Gold.Rescore>
     Score         DG    S(hbond)    S(metal)    S(lipo)     H(rot)  DE(clash)    DE(int)     intcor
     13.69     -14.55       1.61        0.00     106.72       3.44       0.06       0.79       ----

> <Gold.Chemscore.Fitness>
13.6922

> <Gold.Chemscore.DG>
-14.5463

> <Gold.Chemscore.ZeroCoef>
-5.4800

> <Gold.Chemscore.Hbond>
1.6104

> <Gold.Chemscore.Metal>
0.0000

> <Gold.Chemscore.Lipo>
106.7166

> <Gold.Chemscore.Internal_Hbond>
0.0000

> <Gold.Chemscore.DEClash>
0.0593

> <Gold.Chemscore.DEInternal>
0.7948

> <Gold.Chemscore.Rot>
3.4369

> <Gold.Chemscore.Internal.Correction>
   9.000000E+99

> <Gold.Chemscore.Hbonds>
donor molecule, donor type, donor heavy atom, donor atom, acceptor molecule, acceptor atom, score
      L1  H     1    21       P1  7957  0.55
      P1  H  7989  7998       L1     1  0.01
      P1  H  7997  8009       L1    16  0.13
      P1  H  8011  8017       L1     1  0.32

> <Gold.Chemscore.Hbond.Weighted>
-5.3788

> <Gold.Chemscore.Metal.Weighted>
-0.0000

> <Gold.Chemscore.Lipo.Weighted>
-12.4858

> <Gold.Chemscore.Internal_Hbond.Weighted>
0.0000

> <Gold.Chemscore.DEClash.Weighted>
0.0593

> <Gold.Chemscore.DEInternal.Weighted>
0.7948

> <Gold.Chemscore.Rot.Weighted>
8.7984

> <Gold.Chemscore.Internal.Correction.Weighted>
   9.000000E+99

> <Gold.Protein.RotatedTorsions>
[ 6907 6896 6895 6894 ] final  106.04 input  -60.11 | X-H torsion
[ 7974 7965 7964 7962 ] final -120.97 input  175.53 | X-H torsion
[ 8008 7997 7996 7995 ] final  112.04 input   59.86 | X-H torsion
[ 10167 10162 10161 10158 ] final   -6.94 input  -65.29 | X-H torsion
[ 10718 10713 10712 10709 ] final -130.44 input   66.30 | X-H torsion
[ 10763 10752 10751 10750 ] final  -98.53 input  -60.55 | X-H torsion
[ 11005 11000 10999 10996 ] final -127.09 input  -57.11 | X-H torsion

> <Gold.Protein.ActiveResidues>
 VAL166  LYS551  ARG553  GLY616  TRP617  ASP618  TYR619  PRO620  LYS621  CYS622 
 ASP623  PHE694  ASN695  SER759  ASP760  ASP761  ALA762  ILE779  LEU786  VAL792 
 PHE793  MET794  SER795  GLU796  ALA797  LYS798  CYS799  TRP800  GLU811  SER814 

> <Gold.Protein.RotatedAtoms>
  152.5209  133.9440  159.7639 H   0  0  0  0  0  0  0  0  0  0  0  0  # atno 6907 bound_to 6896
  150.9764  133.6282  159.2736 H   0  0  0  0  0  0  0  0  0  0  0  0  # atno 6908 bound_to 6896
  151.3475  135.0883  159.9445 H   0  0  0  0  0  0  0  0  0  0  0  0  # atno 6909 bound_to 6896
  145.0454  140.8177  143.4241 H   0  0  0  0  0  0  0  0  0  0  0  0  # atno 7974 bound_to 7965
  156.2165  140.3007  155.9852 H   0  0  0  0  0  0  0  0  0  0  0  0  # atno 8008 bound_to 7997
  155.2591  140.0429  157.3012 H   0  0  0  0  0  0  0  0  0  0  0  0  # atno 8009 bound_to 7997
  154.5776  140.2366  155.8108 H   0  0  0  0  0  0  0  0  0  0  0  0  # atno 8010 bound_to 7997
  140.7013  143.6137  150.8679 H   0  0  0  0  0  0  0  0  0  0  0  0  # atno 10167 bound_to 10162
  156.2145  130.6939  151.0687 H   0  0  0  0  0  0  0  0  0  0  0  0  # atno 10718 bound_to 10713
  154.7422  135.5006  153.9142 H   0  0  0  0  0  0  0  0  0  0  0  0  # atno 10763 bound_to 10752
  153.1054  135.6696  153.9603 H   0  0  0  0  0  0  0  0  0  0  0  0  # atno 10764 bound_to 10752
  153.9377  135.3071  155.3423 H   0  0  0  0  0  0  0  0  0  0  0  0  # atno 10765 bound_to 10752
  140.9628  134.0913  157.3951 H   0  0  0  0  0  0  0  0  0  0  0  0  # atno 11005 bound_to 11000
  145.1594  139.2467  143.5399 LP  0  0  0  0  0  0  0  0  0  0  0  0  # atno 17320 bound_to 7965
  146.3513  140.1317  142.8597 LP  0  0  0  0  0  0  0  0  0  0  0  0  # atno 17321 bound_to 7965
  139.9859  143.5900  152.2927 LP  0  0  0  0  0  0  0  0  0  0  0  0  # atno 17342 bound_to 10162
  139.6537  144.7661  151.2097 LP  0  0  0  0  0  0  0  0  0  0  0  0  # atno 17343 bound_to 10162
  157.7056  131.0758  150.6678 LP  0  0  0  0  0  0  0  0  0  0  0  0  # atno 17370 bound_to 10713
  156.6739  130.4547  149.5648 LP  0  0  0  0  0  0  0  0  0  0  0  0  # atno 17371 bound_to 10713
  139.8884  135.0097  156.6617 LP  0  0  0  0  0  0  0  0  0  0  0  0  # atno 17394 bound_to 11000
  140.7443  133.8951  155.8300 LP  0  0  0  0  0  0  0  0  0  0  0  0  # atno 17395 bound_to 11000

$$$$
