AV-unprocessed.smi:2775|AV-procd|sdf|10694|dock3
  -GOLD-   2272015133D 1   1.00000     0.00000
 Structure written by MMmdl.
 42 45  0  0  0  0  0  0  0  0  1 V2000
  147.7655  129.9075  152.7494 C   0  0  0  0  0  0  0  0  0  0  0  0
  148.6667  130.8468  153.5291 C   0  0  0  0  0  0  0  0  0  0  0  0
  149.5742  130.2526  154.3338 N   0  0  0  0  0  0  0  0  0  0  0  0
  150.3972  131.0425  155.0526 C   0  0  0  0  0  0  0  0  0  0  0  0
  150.3601  132.4492  155.0051 C   0  0  0  0  0  0  0  0  0  0  0  0
  149.4147  133.0766  154.1576 C   0  0  0  0  0  0  0  0  0  0  0  0
  149.2677  134.4864  154.0253 N   0  0  0  0  0  0  0  0  0  0  0  0
  149.4842  135.4744  154.9149 C   0  0  0  0  0  0  0  0  0  0  0  0
  149.9397  135.3240  156.0459 O   0  0  0  0  0  0  0  0  0  0  0  0
  149.1724  136.6965  154.4499 N   0  0  0  0  0  0  0  0  0  0  0  0
  149.2877  137.9727  155.1554 C   0  0  2  0  0  0  0  0  0  0  0  0
  148.8578  139.1573  154.2878 C   0  0  1  0  0  0  0  0  0  0  0  0
  147.6984  140.0862  154.3057 C   0  0  0  0  0  0  0  0  0  0  0  0
  148.4822  141.4007  154.0601 C   0  0  0  0  0  0  0  0  0  0  0  0
  149.8832  141.0531  154.1794 O   0  0  0  0  0  0  0  0  0  0  0  0
  149.8972  139.9497  155.0648 C   0  0  2  0  0  0  0  0  0  0  0  0
  150.6994  138.6402  155.0499 C   0  0  0  0  0  0  0  0  0  0  0  0
  151.7281  138.3406  153.9434 C   0  0  0  0  0  0  0  0  0  0  0  0
  152.8281  138.6594  154.9615 C   0  0  0  0  0  0  0  0  0  0  0  0
  151.8113  138.3957  156.0774 C   0  0  0  0  0  0  0  0  0  0  0  0
  148.5446  132.2508  153.4066 C   0  0  0  0  0  0  0  0  0  0  0  0
  147.3522  132.9444  152.3575 Cl  0  0  0  0  0  0  0  0  0  0  0  0
  147.8921  130.0639  151.6778 H   0  0  0  0  0  0  0  0  0  0  0  0
  146.7204  130.0857  153.0039 H   0  0  0  0  0  0  0  0  0  0  0  0
  147.9914  128.8624  152.9660 H   0  0  0  0  0  0  0  0  0  0  0  0
  151.1074  130.5373  155.6901 H   0  0  0  0  0  0  0  0  0  0  0  0
  151.0498  133.0024  155.6216 H   0  0  0  0  0  0  0  0  0  0  0  0
  148.9365  134.7893  153.1208 H   0  0  0  0  0  0  0  0  0  0  0  0
  148.8400  136.7477  153.4976 H   0  0  0  0  0  0  0  0  0  0  0  0
  148.8513  137.9910  156.1579 H   0  0  0  0  0  0  0  0  0  0  0  0
  149.1669  138.9819  153.2505 H   0  0  0  0  0  0  0  0  0  0  0  0
  146.9738  139.8756  153.5189 H   0  0  0  0  0  0  0  0  0  0  0  0
  147.1905  140.0869  155.2712 H   0  0  0  0  0  0  0  0  0  0  0  0
  148.2902  141.8118  153.0687 H   0  0  0  0  0  0  0  0  0  0  0  0
  148.2136  142.1567  154.7990 H   0  0  0  0  0  0  0  0  0  0  0  0
  149.5753  140.2336  156.0724 H   0  0  0  0  0  0  0  0  0  0  0  0
  151.7403  137.2950  153.6336 H   0  0  0  0  0  0  0  0  0  0  0  0
  151.6952  139.0150  153.0873 H   0  0  0  0  0  0  0  0  0  0  0  0
  153.6762  137.9743  154.9462 H   0  0  0  0  0  0  0  0  0  0  0  0
  153.1483  139.7018  154.9214 H   0  0  0  0  0  0  0  0  0  0  0  0
  151.8413  139.1110  156.8997 H   0  0  0  0  0  0  0  0  0  0  0  0
  151.8470  137.3674  156.4371 H   0  0  0  0  0  0  0  0  0  0  0  0
  1  2  1  0  0  0  0
  1 23  1  0  0  0  0
  1 24  1  0  0  0  0
  1 25  1  0  0  0  0
  2 21  1  0  0  0  0
  2  3  2  0  0  0  0
  3  4  1  0  0  0  0
  4  5  2  0  0  0  0
  4 26  1  0  0  0  0
  5  6  1  0  0  0  0
  5 27  1  0  0  0  0
  6  7  1  0  0  0  0
  6 21  2  0  0  0  0
  7  8  1  0  0  0  0
  7 28  1  0  0  0  0
  8  9  2  0  0  0  0
  8 10  1  0  0  0  0
 10 11  1  0  0  0  0
 10 29  1  0  0  0  0
 11 17  1  0  0  0  0
 11 12  1  0  0  0  0
 11 30  1  0  0  0  0
 12 16  1  0  0  0  0
 12 13  1  0  0  0  0
 12 31  1  0  0  0  0
 13 14  1  0  0  0  0
 13 32  1  0  0  0  0
 13 33  1  0  0  0  0
 14 15  1  0  0  0  0
 14 34  1  0  0  0  0
 14 35  1  0  0  0  0
 15 16  1  0  0  0  0
 16 17  1  0  0  0  0
 16 36  1  0  0  0  0
 17 20  1  0  0  0  0
 17 18  1  0  0  0  0
 18 19  1  0  0  0  0
 18 37  1  0  0  0  0
 18 38  1  0  0  0  0
 19 20  1  0  0  0  0
 19 39  1  0  0  0  0
 19 40  1  0  0  0  0
 20 41  1  0  0  0  0
 20 42  1  0  0  0  0
 21 22  1  0  0  0  0
M  END
> <s_m_source_file>
AV-unprocessed.smi

> <i_m_source_file_index>
2775

> <i_lp_mmshare_version>
43012

> <i_f3d_flags>
0

> <s_epik_input>
W0NIM11jMW5bY0hdW2NIXWMoYzFDbClbTkhdQyg9TylbTkhdW0NAQEhdMltDQEhdKFtDSDJdW0NIMl1PMylbQ0BASF0zQzI0W0NIMl1bQ0gyXVtDSDJdNA==

> <s_epik_cmdline>
J2VwaWtfcHl0aG9uJywgJy1waCcsICc3LjAnLCAnLXRuJywgJzgnLCAnLW1hJywgJzIwMCcsICctbWV0YWxfYmluZGluZycsICctaW1hZScsICc8aW5maWxlLm1hZT4nLCAnLW9tYWUnLCAnPG91dGZpbGUubWFlPic=

> <r_epik_Ionization_Penalty>
0.01026

> <r_epik_Ionization_Penalty_Charging>
0

> <r_epik_Ionization_Penalty_Neutral>
0.01026

> <r_epik_State_Penalty>
0.00780685

> <r_epik_Charging_Adjusted_Penalty>
0.00780685

> <i_epik_Tot_Q>
0

> <i_epik_Tot_abs_Q>
0

> <r_epik_Metal_State_Penalty>
0.00767411

> <b_epik_Metal_Only>
0

> <s_lp_Force_Field>
OPLS_2005

> <r_lp_Energy>
80.7477

> <b_lp_Chiralities_Consistent>
1

> <s_lp_Variant>
AV-unprocessed.smi:2775-7

> <Gold.Version>
5.8.1

> <Gold.Id.Protein>
6NUR|6NUR_protein|mol2

> <Gold.PLP.Fitness>
43.7883

> <Gold.PLP.PLP>
-37.2625

> <Gold.PLP.part.hbond>
-3.7083

> <Gold.PLP.part.metal>
0.0000

> <Gold.PLP.part.buried>
-2.7958

> <Gold.PLP.part.nonpolar>
-30.6907

> <Gold.PLP.part.repulsive>
0.2813

> <Gold.PLP.ligand.clash>
0.0000

> <Gold.PLP.ligand.torsion>
0.3774

> <Gold.PLP.Chemscore.Hbond>
2.3200

> <Gold.PLP.Chemscore.CHOScore>
0.0000

> <Gold.PLP.Chemscore.Metal>
0.0000

> <Gold.Chemscore.Hbonds>
donor molecule, donor type, donor heavy atom, donor atom, acceptor molecule, acceptor atom, score
      L1  H     7    28       P1  7948  0.72
      L1  H    10    29       P1  7948  0.98
      P1  H  7989  7998       L1    15  0.50

> <Gold.PLP.Chemscore.Internal.Correction>
0.3206

> <Gold.Rescore>
     Score         DG    S(hbond)    S(metal)    S(lipo)     H(rot)  DE(clash)    DE(int)     intcor
     19.19     -20.46       1.97        0.00      93.53       1.00       0.15       1.11       ----

> <Gold.Chemscore.Fitness>
19.1936

> <Gold.Chemscore.DG>
-20.4553

> <Gold.Chemscore.ZeroCoef>
-5.4800

> <Gold.Chemscore.Hbond>
1.9738

> <Gold.Chemscore.Metal>
0.0000

> <Gold.Chemscore.Lipo>
93.5291

> <Gold.Chemscore.Internal_Hbond>
0.0000

> <Gold.Chemscore.DEClash>
0.1506

> <Gold.Chemscore.DEInternal>
1.1111

> <Gold.Chemscore.Rot>
1.0000

> <Gold.Chemscore.Internal.Correction>
   9.000000E+99

> <Gold.Chemscore.Hbonds>
donor molecule, donor type, donor heavy atom, donor atom, acceptor molecule, acceptor atom, score
      L1  H     7    28       P1  7948  0.10
      L1  H    10    29       P1  7948  0.92
      P1  H  7989  7998       L1    15  0.12

> <Gold.Chemscore.Hbond.Weighted>
-6.5924

> <Gold.Chemscore.Metal.Weighted>
-0.0000

> <Gold.Chemscore.Lipo.Weighted>
-10.9429

> <Gold.Chemscore.Internal_Hbond.Weighted>
0.0000

> <Gold.Chemscore.DEClash.Weighted>
0.1506

> <Gold.Chemscore.DEInternal.Weighted>
1.1111

> <Gold.Chemscore.Rot.Weighted>
2.5600

> <Gold.Chemscore.Internal.Correction.Weighted>
   9.000000E+99

> <Gold.Protein.RotatedTorsions>
[ 6907 6896 6895 6894 ] final  177.15 input  -60.11 | X-H torsion
[ 7974 7965 7964 7962 ] final -162.58 input  175.53 | X-H torsion
[ 8008 7997 7996 7995 ] final -131.95 input   59.86 | X-H torsion
[ 10167 10162 10161 10158 ] final  -19.04 input  -65.29 | X-H torsion
[ 10718 10713 10712 10709 ] final  133.34 input   66.30 | X-H torsion
[ 10763 10752 10751 10750 ] final   96.27 input  -60.55 | X-H torsion
[ 11005 11000 10999 10996 ] final   41.68 input  -57.11 | X-H torsion

> <Gold.Protein.ActiveResidues>
 VAL166  LYS551  ARG553  GLY616  TRP617  ASP618  TYR619  PRO620  LYS621  CYS622 
 ASP623  PHE694  ASN695  SER759  ASP760  ASP761  ALA762  ILE779  LEU786  VAL792 
 PHE793  MET794  SER795  GLU796  ALA797  LYS798  CYS799  TRP800  GLU811  SER814 

> <Gold.Protein.RotatedAtoms>
  151.7087  133.3312  159.3284 H   0  0  0  0  0  0  0  0  0  0  0  0  # atno 6907 bound_to 6896
  150.7703  134.6552  159.6319 H   0  0  0  0  0  0  0  0  0  0  0  0  # atno 6908 bound_to 6896
  152.3725  134.6715  160.0223 H   0  0  0  0  0  0  0  0  0  0  0  0  # atno 6909 bound_to 6896
  144.7353  140.3231  143.6167 H   0  0  0  0  0  0  0  0  0  0  0  0  # atno 7974 bound_to 7965
  155.3208  140.0462  157.3039 H   0  0  0  0  0  0  0  0  0  0  0  0  # atno 8008 bound_to 7997
  154.5381  140.2279  155.8654 H   0  0  0  0  0  0  0  0  0  0  0  0  # atno 8009 bound_to 7997
  156.1854  140.3063  155.9235 H   0  0  0  0  0  0  0  0  0  0  0  0  # atno 8010 bound_to 7997
  140.7264  143.4857  151.0058 H   0  0  0  0  0  0  0  0  0  0  0  0  # atno 10167 bound_to 10162
  157.4783  131.1084  150.9715 H   0  0  0  0  0  0  0  0  0  0  0  0  # atno 10718 bound_to 10713
  153.2629  135.4224  155.0912 H   0  0  0  0  0  0  0  0  0  0  0  0  # atno 10763 bound_to 10752
  154.8427  135.3453  154.6352 H   0  0  0  0  0  0  0  0  0  0  0  0  # atno 10764 bound_to 10752
  153.6772  135.7040  153.5186 H   0  0  0  0  0  0  0  0  0  0  0  0  # atno 10765 bound_to 10752
  140.1811  134.4102  155.8199 H   0  0  0  0  0  0  0  0  0  0  0  0  # atno 11005 bound_to 11000
  145.7548  139.1805  143.2301 LP  0  0  0  0  0  0  0  0  0  0  0  0  # atno 17320 bound_to 7965
  146.1033  140.7518  142.9539 LP  0  0  0  0  0  0  0  0  0  0  0  0  # atno 17321 bound_to 7965
  139.8559  143.7378  152.3176 LP  0  0  0  0  0  0  0  0  0  0  0  0  # atno 17342 bound_to 10162
  139.7576  144.7516  151.0412 LP  0  0  0  0  0  0  0  0  0  0  0  0  # atno 17343 bound_to 10162
  157.0457  130.5767  149.5362 LP  0  0  0  0  0  0  0  0  0  0  0  0  # atno 17370 bound_to 10713
  156.0108  130.5199  150.7982 LP  0  0  0  0  0  0  0  0  0  0  0  0  # atno 17371 bound_to 10713
  141.2223  133.7001  156.7933 LP  0  0  0  0  0  0  0  0  0  0  0  0  # atno 17394 bound_to 11000
  140.2266  134.8717  157.3433 LP  0  0  0  0  0  0  0  0  0  0  0  0  # atno 17395 bound_to 11000

$$$$
