AV-unprocessed.smi:3303|AV-procd|sdf|12681|dock5
  -GOLD-   2272019 13D 1   1.00000     0.00000
 Structure written by MMmdl.
 44 45  0  0  0  0  0  0  0  0  2 V2000
  148.1038  141.3347  154.2305 C   0  0  0  0  0  0  0  0  0  0  0  0
  148.5612  139.8685  154.1292 C   0  0  2  0  0  0  0  0  0  0  0  0
  147.3370  138.9322  154.1272 C   0  0  0  0  0  0  0  0  0  0  0  0
  147.7214  137.5020  154.0047 N   0  3  2  0  0  0  0  0  0  0  0  0
  146.5230  136.6430  153.8442 C   0  0  0  0  0  0  0  0  0  0  0  0
  148.6333  137.0763  155.1077 C   0  0  1  0  0  0  0  0  0  0  0  0
  149.0579  135.5989  154.9944 C   0  0  0  0  0  0  0  0  0  0  0  0
  149.8860  137.9739  155.1322 C   0  0  0  0  0  0  0  0  0  0  0  0
  149.5291  139.4629  155.2636 C   0  0  1  0  0  0  0  0  0  0  0  0
  150.7695  140.2208  155.1612 N   0  0  0  0  0  0  0  0  0  0  0  0
  150.6867  141.4875  155.8750 C   0  0  0  0  0  0  0  0  0  0  0  0
  150.6892  141.2639  157.3969 C   0  0  0  0  0  0  0  0  0  0  0  0
  151.2390  142.4482  158.1750 C   0  0  0  0  0  0  0  0  0  0  0  0
  151.5574  143.6531  157.5128 C   0  0  0  0  0  0  0  0  0  0  0  0
  152.0839  144.7172  158.2705 C   0  0  0  0  0  0  0  0  0  0  0  0
  152.2733  144.5360  159.6539 C   0  0  0  0  0  0  0  0  0  0  0  0
  151.9247  143.2941  160.2208 C   0  0  0  0  0  0  0  0  0  0  0  0
  151.4183  142.2681  159.5038 N   0  0  0  0  0  0  0  0  0  0  0  0
  147.6215  141.5352  155.1876 H   0  0  0  0  0  0  0  0  0  0  0  0
  147.3917  141.5786  153.4416 H   0  0  0  0  0  0  0  0  0  0  0  0
  148.9418  142.0244  154.1268 H   0  0  0  0  0  0  0  0  0  0  0  0
  149.0747  139.7478  153.1735 H   0  0  0  0  0  0  0  0  0  0  0  0
  146.7545  139.0722  155.0396 H   0  0  0  0  0  0  0  0  0  0  0  0
  146.6844  139.1998  153.2948 H   0  0  0  0  0  0  0  0  0  0  0  0
  145.9530  136.5888  154.7725 H   0  0  0  0  0  0  0  0  0  0  0  0
  146.7922  135.6315  153.5417 H   0  0  0  0  0  0  0  0  0  0  0  0
  145.8663  137.0349  153.0666 H   0  0  0  0  0  0  0  0  0  0  0  0
  148.1019  137.2018  156.0530 H   0  0  0  0  0  0  0  0  0  0  0  0
  149.7975  135.3485  155.7553 H   0  0  0  0  0  0  0  0  0  0  0  0
  149.5017  135.3842  154.0217 H   0  0  0  0  0  0  0  0  0  0  0  0
  148.2197  134.9186  155.1434 H   0  0  0  0  0  0  0  0  0  0  0  0
  150.5314  137.6812  155.9617 H   0  0  0  0  0  0  0  0  0  0  0  0
  150.4643  137.8097  154.2206 H   0  0  0  0  0  0  0  0  0  0  0  0
  149.0538  139.6228  156.2331 H   0  0  0  0  0  0  0  0  0  0  0  0
  151.5426  139.6822  155.5252 H   0  0  0  0  0  0  0  0  0  0  0  0
  151.5182  142.1367  155.5989 H   0  0  0  0  0  0  0  0  0  0  0  0
  149.7691  141.9962  155.5775 H   0  0  0  0  0  0  0  0  0  0  0  0
  149.6698  141.0725  157.7338 H   0  0  0  0  0  0  0  0  0  0  0  0
  151.2603  140.3682  157.6460 H   0  0  0  0  0  0  0  0  0  0  0  0
  151.4064  143.7600  156.4487 H   0  0  0  0  0  0  0  0  0  0  0  0
  152.3398  145.6542  157.7987 H   0  0  0  0  0  0  0  0  0  0  0  0
  152.6767  145.3291  160.2662 H   0  0  0  0  0  0  0  0  0  0  0  0
  152.0587  143.1192  161.2780 H   0  0  0  0  0  0  0  0  0  0  0  0
  148.2470  137.4211  153.1460 H   0  0  0  0  0  0  0  0  0  0  0  0
  1  2  1  0  0  0  0
  1 19  1  0  0  0  0
  1 20  1  0  0  0  0
  1 21  1  0  0  0  0
  2  9  1  0  0  0  0
  2  3  1  0  0  0  0
  2 22  1  0  0  0  0
  3  4  1  0  0  0  0
  3 23  1  0  0  0  0
  3 24  1  0  0  0  0
  4  5  1  0  0  0  0
  4  6  1  0  0  0  0
  4 44  1  0  0  0  0
  5 25  1  0  0  0  0
  5 26  1  0  0  0  0
  5 27  1  0  0  0  0
  6  7  1  0  0  0  0
  6  8  1  0  0  0  0
  6 28  1  0  0  0  0
  7 29  1  0  0  0  0
  7 30  1  0  0  0  0
  7 31  1  0  0  0  0
  8  9  1  0  0  0  0
  8 32  1  0  0  0  0
  8 33  1  0  0  0  0
  9 10  1  0  0  0  0
  9 34  1  0  0  0  0
 10 11  1  0  0  0  0
 10 35  1  0  0  0  0
 11 12  1  0  0  0  0
 11 36  1  0  0  0  0
 11 37  1  0  0  0  0
 12 13  1  0  0  0  0
 12 38  1  0  0  0  0
 12 39  1  0  0  0  0
 13 18  1  0  0  0  0
 13 14  2  0  0  0  0
 14 15  1  0  0  0  0
 14 40  1  0  0  0  0
 15 16  2  0  0  0  0
 15 41  1  0  0  0  0
 16 17  1  0  0  0  0
 16 42  1  0  0  0  0
 17 18  2  0  0  0  0
 17 43  1  0  0  0  0
M  CHG  1   4   1
M  END
> <s_m_source_file>
AV-unprocessed.smi

> <i_m_source_file_index>
3303

> <i_lp_mmshare_version>
43012

> <i_f3d_flags>
0

> <s_epik_input>
W0NIM11bQ0BASF0xW0NIMl1OKFtDSDNdKVtDQEBIXShbQ0gzXSlbQ0gyXVtDQEhdMVtOSF1bQ0gyXVtDSDJdYzJbY0hdW2NIXVtjSF1bY0hdbjI=

> <s_epik_cmdline>
J2VwaWtfcHl0aG9uJywgJy1waCcsICc3LjAnLCAnLXRuJywgJzgnLCAnLW1hJywgJzIwMCcsICctbWV0YWxfYmluZGluZycsICctaW1hZScsICc8aW5maWxlLm1hZT4nLCAnLW9tYWUnLCAnPG91dGZpbGUubWFlPic=

> <r_epik_Ionization_Penalty>
2.31085

> <r_epik_Ionization_Penalty_Charging>
0.000313057

> <r_epik_Ionization_Penalty_Neutral>
2.31054

> <r_epik_State_Penalty>
2.4087

> <r_epik_Charging_Adjusted_Penalty>
2.40902

> <i_epik_Tot_Q>
1

> <i_epik_Tot_abs_Q>
1

> <r_epik_Metal_State_Penalty>
2.30979

> <b_epik_Metal_Only>
0

> <s_lp_Force_Field>
OPLS_2005

> <r_lp_Energy>
25.5146

> <b_lp_Chiralities_Consistent>
1

> <s_lp_Variant>
AV-unprocessed.smi:3303-25

> <Gold.Version>
5.8.1

> <Gold.Id.Protein>
6NUR|6NUR_protein|mol2

> <Gold.PLP.Fitness>
42.3015

> <Gold.PLP.PLP>
-35.0559

> <Gold.PLP.part.hbond>
-2.2700

> <Gold.PLP.part.metal>
0.0000

> <Gold.PLP.part.buried>
-3.3297

> <Gold.PLP.part.nonpolar>
-29.1981

> <Gold.PLP.part.repulsive>
0.0000

> <Gold.PLP.ligand.clash>
0.0000

> <Gold.PLP.ligand.torsion>
0.5621

> <Gold.PLP.Chemscore.Hbond>
2.7880

> <Gold.PLP.Chemscore.CHOScore>
0.0000

> <Gold.PLP.Chemscore.Metal>
0.0000

> <Gold.Chemscore.Hbonds>
donor molecule, donor type, donor heavy atom, donor atom, acceptor molecule, acceptor atom, score
      L1  H     4    44       P1  7948  1.86
      P1  H  7989  7998       L1    10  0.81

> <Gold.PLP.Chemscore.Internal.Correction>
0.0058

> <Gold.Rescore>
     Score         DG    S(hbond)    S(metal)    S(lipo)     H(rot)  DE(clash)    DE(int)     intcor
     17.37     -18.10       1.01        0.00     107.99       1.33       0.03       0.70       ----

> <Gold.Chemscore.Fitness>
17.3745

> <Gold.Chemscore.DG>
-18.0977

> <Gold.Chemscore.ZeroCoef>
-5.4800

> <Gold.Chemscore.Hbond>
1.0120

> <Gold.Chemscore.Metal>
0.0000

> <Gold.Chemscore.Lipo>
107.9949

> <Gold.Chemscore.Internal_Hbond>
0.0000

> <Gold.Chemscore.DEClash>
0.0252

> <Gold.Chemscore.DEInternal>
0.6980

> <Gold.Chemscore.Rot>
1.3272

> <Gold.Chemscore.Internal.Correction>
   9.000000E+99

> <Gold.Chemscore.Hbonds>
donor molecule, donor type, donor heavy atom, donor atom, acceptor molecule, acceptor atom, score
      L1  H     4    44       P1  7948  0.89
      P1  H  7989  7998       L1    10  0.03

> <Gold.Chemscore.Hbond.Weighted>
-3.3799

> <Gold.Chemscore.Metal.Weighted>
-0.0000

> <Gold.Chemscore.Lipo.Weighted>
-12.6354

> <Gold.Chemscore.Internal_Hbond.Weighted>
0.0000

> <Gold.Chemscore.DEClash.Weighted>
0.0252

> <Gold.Chemscore.DEInternal.Weighted>
0.6980

> <Gold.Chemscore.Rot.Weighted>
3.3976

> <Gold.Chemscore.Internal.Correction.Weighted>
   9.000000E+99

> <Gold.Protein.RotatedTorsions>
[ 6907 6896 6895 6894 ] final   54.49 input  -60.11 | X-H torsion
[ 7974 7965 7964 7962 ] final  145.06 input  175.53 | X-H torsion
[ 8008 7997 7996 7995 ] final   78.62 input   59.86 | X-H torsion
[ 10167 10162 10161 10158 ] final    9.50 input  -65.29 | X-H torsion
[ 10718 10713 10712 10709 ] final -114.16 input   66.30 | X-H torsion
[ 10763 10752 10751 10750 ] final  108.13 input  -60.55 | X-H torsion
[ 11005 11000 10999 10996 ] final -102.01 input  -57.11 | X-H torsion

> <Gold.Protein.ActiveResidues>
 VAL166  LYS551  ARG553  GLY616  TRP617  ASP618  TYR619  PRO620  LYS621  CYS622 
 ASP623  PHE694  ASN695  SER759  ASP760  ASP761  ALA762  ILE779  LEU786  VAL792 
 PHE793  MET794  SER795  GLU796  ALA797  LYS798  CYS799  TRP800  GLU811  SER814 

> <Gold.Protein.RotatedAtoms>
  152.3444  134.7091  160.0254 H   0  0  0  0  0  0  0  0  0  0  0  0  # atno 6907 bound_to 6896
  151.7466  133.3319  159.3388 H   0  0  0  0  0  0  0  0  0  0  0  0  # atno 6908 bound_to 6896
  150.7499  134.6163  159.6157 H   0  0  0  0  0  0  0  0  0  0  0  0  # atno 6909 bound_to 6896
  144.8784  139.5737  143.5854 H   0  0  0  0  0  0  0  0  0  0  0  0  # atno 7974 bound_to 7965
  155.8582  140.3455  155.5738 H   0  0  0  0  0  0  0  0  0  0  0  0  # atno 8008 bound_to 7997
  155.7963  140.0878  157.2001 H   0  0  0  0  0  0  0  0  0  0  0  0  # atno 8009 bound_to 7997
  154.4010  140.1474  156.3209 H   0  0  0  0  0  0  0  0  0  0  0  0  # atno 8010 bound_to 7997
  140.6251  143.8118  150.7223 H   0  0  0  0  0  0  0  0  0  0  0  0  # atno 10167 bound_to 10162
  156.0812  130.6012  150.8739 H   0  0  0  0  0  0  0  0  0  0  0  0  # atno 10718 bound_to 10713
  153.4164  135.3822  155.2083 H   0  0  0  0  0  0  0  0  0  0  0  0  # atno 10763 bound_to 10752
  154.8741  135.3806  154.4437 H   0  0  0  0  0  0  0  0  0  0  0  0  # atno 10764 bound_to 10752
  153.4952  135.7088  153.5924 H   0  0  0  0  0  0  0  0  0  0  0  0  # atno 10765 bound_to 10752
  141.1207  133.8524  157.1306 H   0  0  0  0  0  0  0  0  0  0  0  0  # atno 11005 bound_to 11000
  146.2978  139.7332  142.9114 LP  0  0  0  0  0  0  0  0  0  0  0  0  # atno 17320 bound_to 7965
  145.4000  141.0384  143.3076 LP  0  0  0  0  0  0  0  0  0  0  0  0  # atno 17321 bound_to 7965
  140.1717  143.4189  152.1996 LP  0  0  0  0  0  0  0  0  0  0  0  0  # atno 17342 bound_to 10162
  139.5473  144.7309  151.4544 LP  0  0  0  0  0  0  0  0  0  0  0  0  # atno 17343 bound_to 10162
  157.5930  131.0944  150.9087 LP  0  0  0  0  0  0  0  0  0  0  0  0  # atno 17370 bound_to 10713
  156.9260  130.5332  149.5279 LP  0  0  0  0  0  0  0  0  0  0  0  0  # atno 17371 bound_to 10713
  140.0162  134.9966  157.0498 LP  0  0  0  0  0  0  0  0  0  0  0  0  # atno 17394 bound_to 11000
  140.4516  134.1576  155.7182 LP  0  0  0  0  0  0  0  0  0  0  0  0  # atno 17395 bound_to 11000

$$$$
