AV-unprocessed.smi:3127|AV-procd|sdf|11914|dock3
  -GOLD-   2272017293D 1   1.00000     0.00000
 Structure written by MMmdl.
 34 35  0  0  0  0  0  0  0  0  2 V2000
  151.4076  143.3967  159.9847 C   0  0  0  0  0  0  0  0  0  0  0  0
  152.3726  142.8404  158.9157 C   0  0  0  0  0  0  0  0  0  0  0  0
  153.2001  144.0181  158.3640 C   0  0  0  0  0  0  0  0  0  0  0  0
  153.3038  141.8202  159.5996 C   0  0  0  0  0  0  0  0  0  0  0  0
  151.6131  142.1705  157.7879 C   0  0  0  0  0  0  0  0  0  0  0  0
  150.6510  142.7167  156.9692 C   0  0  0  0  0  0  0  0  0  0  0  0
  150.0395  141.5700  155.8090 S   0  0  0  0  0  0  0  0  0  0  0  0
  151.1377  140.3659  156.4657 C   0  0  0  0  0  0  0  0  0  0  0  0
  151.1928  138.9572  155.9686 C   0  0  2  0  0  0  0  0  0  0  0  0
  150.2990  138.7351  154.7338 C   0  0  0  0  0  0  0  0  0  0  0  0
  150.3221  137.3119  154.3440 N   0  3  0  0  0  0  0  0  0  0  0  0
  149.9501  136.4356  155.4726 C   0  0  0  0  0  0  0  0  0  0  0  0
  150.8453  136.7294  156.6895 C   0  0  0  0  0  0  0  0  0  0  0  0
  150.7573  138.1094  157.0295 O   0  0  0  0  0  0  0  0  0  0  0  0
  151.8652  140.8252  157.4875 N   0  0  0  0  0  0  0  0  0  0  0  0
  151.9512  143.8816  160.7964 H   0  0  0  0  0  0  0  0  0  0  0  0
  150.8018  142.6061  160.4297 H   0  0  0  0  0  0  0  0  0  0  0  0
  150.7284  144.1390  159.5632 H   0  0  0  0  0  0  0  0  0  0  0  0
  152.5622  144.7547  157.8737 H   0  0  0  0  0  0  0  0  0  0  0  0
  153.9378  143.6846  157.6333 H   0  0  0  0  0  0  0  0  0  0  0  0
  153.7422  144.5303  159.1595 H   0  0  0  0  0  0  0  0  0  0  0  0
  153.8485  142.2728  160.4290 H   0  0  0  0  0  0  0  0  0  0  0  0
  154.0450  141.4227  158.9054 H   0  0  0  0  0  0  0  0  0  0  0  0
  152.7402  140.9756  159.9979 H   0  0  0  0  0  0  0  0  0  0  0  0
  150.2585  143.7229  156.9764 H   0  0  0  0  0  0  0  0  0  0  0  0
  152.2316  138.7251  155.7267 H   0  0  0  0  0  0  0  0  0  0  0  0
  149.2702  139.0276  154.9499 H   0  0  0  0  0  0  0  0  0  0  0  0
  150.6385  139.3451  153.8961 H   0  0  0  0  0  0  0  0  0  0  0  0
  149.6812  137.1628  153.5773 H   0  0  0  0  0  0  0  0  0  0  0  0
  148.9027  136.6034  155.7270 H   0  0  0  0  0  0  0  0  0  0  0  0
  150.0447  135.3932  155.1683 H   0  0  0  0  0  0  0  0  0  0  0  0
  150.5259  136.1336  157.5447 H   0  0  0  0  0  0  0  0  0  0  0  0
  151.8828  136.4606  156.4841 H   0  0  0  0  0  0  0  0  0  0  0  0
  151.2565  137.0737  154.0433 H   0  0  0  0  0  0  0  0  0  0  0  0
  1  2  1  0  0  0  0
  1 16  1  0  0  0  0
  1 17  1  0  0  0  0
  1 18  1  0  0  0  0
  2  3  1  0  0  0  0
  2  4  1  0  0  0  0
  2  5  1  0  0  0  0
  3 19  1  0  0  0  0
  3 20  1  0  0  0  0
  3 21  1  0  0  0  0
  4 22  1  0  0  0  0
  4 23  1  0  0  0  0
  4 24  1  0  0  0  0
  5 15  1  0  0  0  0
  5  6  2  0  0  0  0
  6  7  1  0  0  0  0
  6 25  1  0  0  0  0
  7  8  1  0  0  0  0
  8  9  1  0  0  0  0
  8 15  2  0  0  0  0
  9 14  1  0  0  0  0
  9 10  1  0  0  0  0
  9 26  1  0  0  0  0
 10 11  1  0  0  0  0
 10 27  1  0  0  0  0
 10 28  1  0  0  0  0
 11 12  1  0  0  0  0
 11 29  1  0  0  0  0
 11 34  1  0  0  0  0
 12 13  1  0  0  0  0
 12 30  1  0  0  0  0
 12 31  1  0  0  0  0
 13 14  1  0  0  0  0
 13 32  1  0  0  0  0
 13 33  1  0  0  0  0
M  CHG  1  11   1
M  END
> <s_m_source_file>
AV-unprocessed.smi

> <i_m_source_file_index>
3127

> <i_lp_mmshare_version>
43012

> <i_f3d_flags>
0

> <s_epik_input>
W0NIM11DKFtDSDNdKShbQ0gzXSljMVtjSF1zYyhuMSlbQ0BASF0yW0NIMl1bTkhdW0NIMl1bQ0gyXU8y

> <s_epik_cmdline>
J2VwaWtfcHl0aG9uJywgJy1waCcsICc3LjAnLCAnLXRuJywgJzgnLCAnLW1hJywgJzIwMCcsICctbWV0YWxfYmluZGluZycsICctaW1hZScsICc8aW5maWxlLm1hZT4nLCAnLW9tYWUnLCAnPG91dGZpbGUubWFlPic=

> <r_epik_Ionization_Penalty>
0.125708

> <r_epik_Ionization_Penalty_Charging>
0.125708

> <r_epik_Ionization_Penalty_Neutral>
5.37588e-07

> <r_epik_State_Penalty>
0.0155352

> <r_epik_Charging_Adjusted_Penalty>
0.141243

> <i_epik_Tot_Q>
1

> <i_epik_Tot_abs_Q>
1

> <r_epik_Metal_State_Penalty>
0.0155796

> <b_epik_Metal_Only>
0

> <s_lp_Force_Field>
OPLS_2005

> <r_lp_Energy>
5.69116

> <b_lp_Chiralities_Consistent>
1

> <s_lp_Variant>
AV-unprocessed.smi:3127-1

> <Gold.Version>
5.8.1

> <Gold.Id.Protein>
6NUR|6NUR_protein|mol2

> <Gold.PLP.Fitness>
37.2527

> <Gold.PLP.PLP>
-28.3501

> <Gold.PLP.part.hbond>
-2.0000

> <Gold.PLP.part.metal>
0.0000

> <Gold.PLP.part.buried>
-1.4078

> <Gold.PLP.part.nonpolar>
-25.8758

> <Gold.PLP.part.repulsive>
0.0849

> <Gold.PLP.ligand.clash>
0.0000

> <Gold.PLP.ligand.torsion>
0.0548

> <Gold.PLP.Chemscore.Hbond>
2.0000

> <Gold.PLP.Chemscore.CHOScore>
1.0000

> <Gold.PLP.Chemscore.Metal>
0.0000

> <Gold.Chemscore.Hbonds>
donor molecule, donor type, donor heavy atom, donor atom, acceptor molecule, acceptor atom, score
      L1  H    11    29       P1  7948  1.92
      L1  C     6    25       P1  8028  1.00

> <Gold.PLP.Chemscore.Internal.Correction>
0.0123

> <Gold.Rescore>
     Score         DG    S(hbond)    S(metal)    S(lipo)     H(rot)  DE(clash)    DE(int)     intcor
     16.25     -16.43       0.69        0.00      98.92       1.14       0.08       0.10       ----

> <Gold.Chemscore.Fitness>
16.2495

> <Gold.Chemscore.DG>
-16.4339

> <Gold.Chemscore.ZeroCoef>
-5.4800

> <Gold.Chemscore.Hbond>
0.6878

> <Gold.Chemscore.Metal>
0.0000

> <Gold.Chemscore.Lipo>
98.9187

> <Gold.Chemscore.Internal_Hbond>
0.0000

> <Gold.Chemscore.DEClash>
0.0811

> <Gold.Chemscore.DEInternal>
0.1033

> <Gold.Chemscore.Rot>
1.1393

> <Gold.Chemscore.Internal.Correction>
   9.000000E+99

> <Gold.Chemscore.Hbonds>
donor molecule, donor type, donor heavy atom, donor atom, acceptor molecule, acceptor atom, score
      L1  H    11    29       P1  7948  0.66

> <Gold.Chemscore.Hbond.Weighted>
-2.2972

> <Gold.Chemscore.Metal.Weighted>
-0.0000

> <Gold.Chemscore.Lipo.Weighted>
-11.5735

> <Gold.Chemscore.Internal_Hbond.Weighted>
0.0000

> <Gold.Chemscore.DEClash.Weighted>
0.0811

> <Gold.Chemscore.DEInternal.Weighted>
0.1033

> <Gold.Chemscore.Rot.Weighted>
2.9167

> <Gold.Chemscore.Internal.Correction.Weighted>
   9.000000E+99

> <Gold.Protein.RotatedTorsions>
[ 6907 6896 6895 6894 ] final   90.92 input  -60.11 | X-H torsion
[ 7974 7965 7964 7962 ] final   75.48 input  175.53 | X-H torsion
[ 8008 7997 7996 7995 ] final   46.86 input   59.86 | X-H torsion
[ 10167 10162 10161 10158 ] final -117.54 input  -65.29 | X-H torsion
[ 10718 10713 10712 10709 ] final   62.21 input   66.30 | X-H torsion
[ 10763 10752 10751 10750 ] final  -54.90 input  -60.55 | X-H torsion
[ 11005 11000 10999 10996 ] final  -37.20 input  -57.11 | X-H torsion

> <Gold.Protein.ActiveResidues>
 VAL166  LYS551  ARG553  GLY616  TRP617  ASP618  TYR619  PRO620  LYS621  CYS622 
 ASP623  PHE694  ASN695  SER759  ASP760  ASP761  ALA762  ILE779  LEU786  VAL792 
 PHE793  MET794  SER795  GLU796  ALA797  LYS798  CYS799  TRP800  GLU811  SER814 

> <Gold.Protein.RotatedAtoms>
  152.5447  134.1736  159.8606 H   0  0  0  0  0  0  0  0  0  0  0  0  # atno 6907 bound_to 6896
  151.1744  133.4757  159.2601 H   0  0  0  0  0  0  0  0  0  0  0  0  # atno 6908 bound_to 6896
  151.1241  135.0107  159.8607 H   0  0  0  0  0  0  0  0  0  0  0  0  # atno 6909 bound_to 6896
  145.7151  139.2628  143.1628 H   0  0  0  0  0  0  0  0  0  0  0  0  # atno 7974 bound_to 7965
  155.3595  140.3418  155.4240 H   0  0  0  0  0  0  0  0  0  0  0  0  # atno 8008 bound_to 7997
  156.1721  140.1635  156.8463 H   0  0  0  0  0  0  0  0  0  0  0  0  # atno 8009 bound_to 7997
  154.5244  140.0759  156.8214 H   0  0  0  0  0  0  0  0  0  0  0  0  # atno 8010 bound_to 7997
  140.0673  143.4911  152.1999 H   0  0  0  0  0  0  0  0  0  0  0  0  # atno 10167 bound_to 10162
  157.5884  130.9037  149.9558 H   0  0  0  0  0  0  0  0  0  0  0  0  # atno 10718 bound_to 10713
  154.1822  135.6441  153.5037 H   0  0  0  0  0  0  0  0  0  0  0  0  # atno 10763 bound_to 10752
  153.0056  135.5408  154.6502 H   0  0  0  0  0  0  0  0  0  0  0  0  # atno 10764 bound_to 10752
  154.5869  135.2930  155.0648 H   0  0  0  0  0  0  0  0  0  0  0  0  # atno 10765 bound_to 10752
  140.9933  133.6993  156.1889 H   0  0  0  0  0  0  0  0  0  0  0  0  # atno 11005 bound_to 11000
  146.0677  140.7903  142.9703 LP  0  0  0  0  0  0  0  0  0  0  0  0  # atno 17320 bound_to 7965
  144.6931  140.3294  143.7218 LP  0  0  0  0  0  0  0  0  0  0  0  0  # atno 17321 bound_to 7965
  139.5857  144.7530  151.3525 LP  0  0  0  0  0  0  0  0  0  0  0  0  # atno 17342 bound_to 10162
  140.7143  143.7308  150.7625 LP  0  0  0  0  0  0  0  0  0  0  0  0  # atno 17343 bound_to 10162
  156.0936  130.3661  150.0349 LP  0  0  0  0  0  0  0  0  0  0  0  0  # atno 17370 bound_to 10713
  156.8476  130.9447  151.3628 LP  0  0  0  0  0  0  0  0  0  0  0  0  # atno 17371 bound_to 10713
  140.7005  134.4569  157.5586 LP  0  0  0  0  0  0  0  0  0  0  0  0  # atno 17394 bound_to 11000
  139.9003  134.8573  156.1926 LP  0  0  0  0  0  0  0  0  0  0  0  0  # atno 17395 bound_to 11000

$$$$
