AV-unprocessed.smi:249|AV-procd|sdf|1914|dock8
  -GOLD-   2262021 13D 1   1.00000     0.00000
 Structure written by MMmdl.
 64 67  0  0  0  0  0  0  0  0  2 V2000
  143.9549  132.5501  150.4686 C   0  0  0  0  0  0  0  0  0  0  0  0
  143.5410  133.3908  151.6841 C   0  0  0  0  0  0  0  0  0  0  0  0
  144.2264  134.7090  151.7215 N   0  3  2  0  0  0  0  0  0  0  0  0
  145.7083  134.6067  151.8159 C   0  0  0  0  0  0  0  0  0  0  0  0
  146.3684  135.9840  151.6491 C   0  0  0  0  0  0  0  0  0  0  0  0
  145.8349  136.9836  152.6940 C   0  0  1  0  0  0  0  0  0  0  0  0
  146.4822  138.3009  152.6413 N   0  0  0  0  0  0  0  0  0  0  0  0
  146.6467  138.9162  151.3295 C   0  0  0  0  0  0  0  0  0  0  0  0
  147.5071  138.5354  153.4952 C   0  0  0  0  0  0  0  0  0  0  0  0
  148.0846  137.4612  154.0892 N   0  0  0  0  0  0  0  0  0  0  0  0
  149.0926  137.6318  154.9498 C   0  0  0  0  0  0  0  0  0  0  0  0
  149.6641  138.7691  155.3504 N   0  0  0  0  0  0  0  0  0  0  0  0
  149.0839  139.8521  154.7587 C   0  0  0  0  0  0  0  0  0  0  0  0
  148.0076  139.8270  153.8272 C   0  0  0  0  0  0  0  0  0  0  0  0
  147.6893  141.1230  153.4377 N   0  0  0  0  0  0  0  0  0  0  0  0
  148.5253  141.8712  154.1044 C   0  0  0  0  0  0  0  0  0  0  0  0
  149.4023  141.1896  154.9167 N   0  0  0  0  0  0  0  0  0  0  0  0
  150.4301  141.7742  155.7608 C   0  0  0  0  0  0  0  0  0  0  0  0
  150.4015  141.2407  157.2147 C   0  0  2  0  0  0  0  0  0  0  0  0
  149.1631  141.7296  158.0051 C   0  0  0  0  0  0  0  0  0  0  0  0
  148.9974  143.1282  157.8923 O   0  0  0  0  0  0  0  0  0  0  0  0
  151.7280  141.5383  157.9595 C   0  0  2  0  0  0  0  0  0  0  0  0
  151.8206  140.9504  159.3569 C   0  0  0  0  0  0  0  0  0  0  0  0
  152.9492  141.7671  159.9758 C   0  0  0  0  0  0  0  0  0  0  0  0
  152.8587  143.0573  159.3829 O   0  0  0  0  0  0  0  0  0  0  0  0
  151.9747  143.0193  158.2666 C   0  0  0  0  0  0  0  0  0  0  0  0
  144.2965  137.0513  152.5821 C   0  0  0  0  0  0  0  0  0  0  0  0
  143.6433  135.6593  152.7153 C   0  0  2  0  0  0  0  0  0  0  0  0
  143.6790  135.1298  154.1657 C   0  0  0  0  0  0  0  0  0  0  0  0
  143.3794  131.6249  150.4305 H   0  0  0  0  0  0  0  0  0  0  0  0
  145.0082  132.2732  150.4996 H   0  0  0  0  0  0  0  0  0  0  0  0
  143.7750  133.0886  149.5379 H   0  0  0  0  0  0  0  0  0  0  0  0
  142.4626  133.5459  151.6269 H   0  0  0  0  0  0  0  0  0  0  0  0
  143.7274  132.8426  152.6084 H   0  0  0  0  0  0  0  0  0  0  0  0
  145.9961  134.1599  152.7679 H   0  0  0  0  0  0  0  0  0  0  0  0
  146.0884  133.9448  151.0388 H   0  0  0  0  0  0  0  0  0  0  0  0
  147.4506  135.8865  151.7432 H   0  0  0  0  0  0  0  0  0  0  0  0
  146.1725  136.3434  150.6383 H   0  0  0  0  0  0  0  0  0  0  0  0
  146.0821  136.5812  153.6770 H   0  0  0  0  0  0  0  0  0  0  0  0
  147.0823  139.9128  151.4155 H   0  0  0  0  0  0  0  0  0  0  0  0
  145.6774  139.0202  150.8413 H   0  0  0  0  0  0  0  0  0  0  0  0
  147.2874  138.3174  150.6826 H   0  0  0  0  0  0  0  0  0  0  0  0
  149.4985  136.7282  155.3802 H   0  0  0  0  0  0  0  0  0  0  0  0
  148.5283  142.9482  154.0192 H   0  0  0  0  0  0  0  0  0  0  0  0
  151.3923  141.5639  155.2940 H   0  0  0  0  0  0  0  0  0  0  0  0
  150.3170  142.8588  155.7516 H   0  0  0  0  0  0  0  0  0  0  0  0
  150.3103  140.1555  157.1484 H   0  0  0  0  0  0  0  0  0  0  0  0
  148.2545  141.2403  157.6544 H   0  0  0  0  0  0  0  0  0  0  0  0
  149.2513  141.4738  159.0607 H   0  0  0  0  0  0  0  0  0  0  0  0
  149.0985  143.3729  156.9853 H   0  0  0  0  0  0  0  0  0  0  0  0
  152.5687  141.1611  157.3746 H   0  0  0  0  0  0  0  0  0  0  0  0
  150.8926  141.1196  159.9052 H   0  0  0  0  0  0  0  0  0  0  0  0
  152.0320  139.8808  159.3634 H   0  0  0  0  0  0  0  0  0  0  0  0
  152.8799  141.8204  161.0627 H   0  0  0  0  0  0  0  0  0  0  0  0
  153.9167  141.3344  159.7183 H   0  0  0  0  0  0  0  0  0  0  0  0
  152.3969  143.5564  157.4168 H   0  0  0  0  0  0  0  0  0  0  0  0
  151.0461  143.5158  158.5519 H   0  0  0  0  0  0  0  0  0  0  0  0
  143.8832  137.7222  153.3357 H   0  0  0  0  0  0  0  0  0  0  0  0
  144.0189  137.4742  151.6159 H   0  0  0  0  0  0  0  0  0  0  0  0
  142.5919  135.7850  152.4525 H   0  0  0  0  0  0  0  0  0  0  0  0
  143.2299  135.8513  154.8488 H   0  0  0  0  0  0  0  0  0  0  0  0
  144.6932  134.9410  154.5159 H   0  0  0  0  0  0  0  0  0  0  0  0
  143.1157  134.2029  154.2714 H   0  0  0  0  0  0  0  0  0  0  0  0
  144.0397  135.1309  150.8230 H   0  0  0  0  0  0  0  0  0  0  0  0
  1  2  1  0  0  0  0
  1 30  1  0  0  0  0
  1 31  1  0  0  0  0
  1 32  1  0  0  0  0
  2  3  1  0  0  0  0
  2 33  1  0  0  0  0
  2 34  1  0  0  0  0
  3 28  1  0  0  0  0
  3  4  1  0  0  0  0
  3 64  1  0  0  0  0
  4  5  1  0  0  0  0
  4 35  1  0  0  0  0
  4 36  1  0  0  0  0
  5  6  1  0  0  0  0
  5 37  1  0  0  0  0
  5 38  1  0  0  0  0
  6  7  1  0  0  0  0
  6 27  1  0  0  0  0
  6 39  1  0  0  0  0
  7  8  1  0  0  0  0
  7  9  1  0  0  0  0
  8 40  1  0  0  0  0
  8 41  1  0  0  0  0
  8 42  1  0  0  0  0
  9 14  1  0  0  0  0
  9 10  2  0  0  0  0
 10 11  1  0  0  0  0
 11 12  2  0  0  0  0
 11 43  1  0  0  0  0
 12 13  1  0  0  0  0
 13 17  1  0  0  0  0
 13 14  2  0  0  0  0
 14 15  1  0  0  0  0
 15 16  2  0  0  0  0
 16 17  1  0  0  0  0
 16 44  1  0  0  0  0
 17 18  1  0  0  0  0
 18 19  1  0  0  0  0
 18 45  1  0  0  0  0
 18 46  1  0  0  0  0
 19 20  1  0  0  0  0
 19 22  1  0  0  0  0
 19 47  1  0  0  0  0
 20 21  1  0  0  0  0
 20 48  1  0  0  0  0
 20 49  1  0  0  0  0
 21 50  1  0  0  0  0
 22 26  1  0  0  0  0
 22 23  1  0  0  0  0
 22 51  1  0  0  0  0
 23 24  1  0  0  0  0
 23 52  1  0  0  0  0
 23 53  1  0  0  0  0
 24 25  1  0  0  0  0
 24 54  1  0  0  0  0
 24 55  1  0  0  0  0
 25 26  1  0  0  0  0
 26 56  1  0  0  0  0
 26 57  1  0  0  0  0
 27 28  1  0  0  0  0
 27 58  1  0  0  0  0
 27 59  1  0  0  0  0
 28 29  1  0  0  0  0
 28 60  1  0  0  0  0
 29 61  1  0  0  0  0
 29 62  1  0  0  0  0
 29 63  1  0  0  0  0
M  CHG  1   3   1
M  END
> <s_m_source_file>
AV-unprocessed.smi

> <i_m_source_file_index>
249

> <i_lp_mmshare_version>
43012

> <i_f3d_flags>
0

> <s_epik_input>
W0NIM11bQ0gyXU4xW0NIMl1bQ0gyXVtDQEhdKFtDSDJdW0NASF0xW0NIM10pTihbQ0gzXSljKG5bY0hdbjIpYyhjMjMpbltjSF1uM1tDSDJdW0NASF0oW0NIMl1bT0hdKVtDQEBIXTRbQ0gyXVtDSDJdT1tDSDJdNA==

> <s_epik_cmdline>
J2VwaWtfcHl0aG9uJywgJy1waCcsICc3LjAnLCAnLXRuJywgJzgnLCAnLW1hJywgJzIwMCcsICctbWV0YWxfYmluZGluZycsICctaW1hZScsICc8aW5maWxlLm1hZT4nLCAnLW9tYWUnLCAnPG91dGZpbGUubWFlPic=

> <r_lp_tautomer_probability>
1

> <r_epik_Ionization_Penalty>
0.00294688

> <r_epik_Ionization_Penalty_Charging>
0.00169971

> <r_epik_Ionization_Penalty_Neutral>
0.00124717

> <r_epik_State_Penalty>
-0

> <r_epik_Charging_Adjusted_Penalty>
0.00169971

> <i_epik_Tot_Q>
1

> <i_epik_Tot_abs_Q>
1

> <r_epik_Metal_State_Penalty>
-0

> <b_epik_Metal_Only>
0

> <s_lp_Force_Field>
OPLS_2005

> <r_lp_Energy>
54.2474

> <b_lp_Chiralities_Consistent>
1

> <s_lp_Variant>
AV-unprocessed.smi:249-17

> <Gold.Version>
5.8.1

> <Gold.Id.Protein>
6NUR|6NUR_protein|mol2

> <Gold.PLP.Fitness>
46.0437

> <Gold.PLP.PLP>
-41.6193

> <Gold.PLP.part.hbond>
-2.0000

> <Gold.PLP.part.metal>
0.0000

> <Gold.PLP.part.buried>
2.1080

> <Gold.PLP.part.nonpolar>
-43.6001

> <Gold.PLP.part.repulsive>
2.9232

> <Gold.PLP.ligand.clash>
0.0000

> <Gold.PLP.ligand.torsion>
1.3052

> <Gold.PLP.Chemscore.Hbond>
1.0000

> <Gold.PLP.Chemscore.CHOScore>
1.0000

> <Gold.PLP.Chemscore.Metal>
0.0000

> <Gold.Chemscore.Hbonds>
donor molecule, donor type, donor heavy atom, donor atom, acceptor molecule, acceptor atom, score
      L1  H    21    50       P1  8028  0.93
      L1  C    16    44       P1  8028  1.00

> <Gold.PLP.Chemscore.Internal.Correction>
1.0347

> <Gold.Rescore>
     Score         DG    S(hbond)    S(metal)    S(lipo)     H(rot)  DE(clash)    DE(int)     intcor
      8.84     -12.95       0.66        0.00     108.45       2.90       2.90       1.22       ----

> <Gold.Chemscore.Fitness>
8.8374

> <Gold.Chemscore.DG>
-12.9541

> <Gold.Chemscore.ZeroCoef>
-5.4800

> <Gold.Chemscore.Hbond>
0.6620

> <Gold.Chemscore.Metal>
0.0000

> <Gold.Chemscore.Lipo>
108.4497

> <Gold.Chemscore.Internal_Hbond>
0.0000

> <Gold.Chemscore.DEClash>
2.9009

> <Gold.Chemscore.DEInternal>
1.2158

> <Gold.Chemscore.Rot>
2.9006

> <Gold.Chemscore.Internal.Correction>
   9.000000E+99

> <Gold.Chemscore.Hbonds>
donor molecule, donor type, donor heavy atom, donor atom, acceptor molecule, acceptor atom, score
      L1  H    21    50       P1  8028  0.73

> <Gold.Chemscore.Hbond.Weighted>
-2.2111

> <Gold.Chemscore.Metal.Weighted>
-0.0000

> <Gold.Chemscore.Lipo.Weighted>
-12.6886

> <Gold.Chemscore.Internal_Hbond.Weighted>
0.0000

> <Gold.Chemscore.DEClash.Weighted>
2.9009

> <Gold.Chemscore.DEInternal.Weighted>
1.2158

> <Gold.Chemscore.Rot.Weighted>
7.4256

> <Gold.Chemscore.Internal.Correction.Weighted>
   9.000000E+99

> <Gold.Protein.RotatedTorsions>
[ 6907 6896 6895 6894 ] final  -53.59 input  -60.11 | X-H torsion
[ 7974 7965 7964 7962 ] final  169.94 input  175.53 | X-H torsion
[ 8008 7997 7996 7995 ] final -141.68 input   59.86 | X-H torsion
[ 10167 10162 10161 10158 ] final   76.72 input  -65.29 | X-H torsion
[ 10718 10713 10712 10709 ] final  154.86 input   66.30 | X-H torsion
[ 10763 10752 10751 10750 ] final  -18.84 input  -60.55 | X-H torsion
[ 11005 11000 10999 10996 ] final  139.54 input  -57.11 | X-H torsion

> <Gold.Protein.ActiveResidues>
 VAL166  LYS551  ARG553  GLY616  TRP617  ASP618  TYR619  PRO620  LYS621  CYS622 
 ASP623  PHE694  ASN695  SER759  ASP760  ASP761  ALA762  ILE779  LEU786  VAL792 
 PHE793  MET794  SER795  GLU796  ALA797  LYS798  CYS799  TRP800  GLU811  SER814 

> <Gold.Protein.RotatedAtoms>
  150.8413  134.7706  159.6934 H   0  0  0  0  0  0  0  0  0  0  0  0  # atno 6907 bound_to 6896
  152.4500  134.5411  159.9849 H   0  0  0  0  0  0  0  0  0  0  0  0  # atno 6908 bound_to 6896
  151.5550  133.3374  159.2996 H   0  0  0  0  0  0  0  0  0  0  0  0  # atno 6909 bound_to 6896
  144.7339  139.9128  143.6416 H   0  0  0  0  0  0  0  0  0  0  0  0  # atno 7974 bound_to 7965
  155.4818  140.0561  157.2966 H   0  0  0  0  0  0  0  0  0  0  0  0  # atno 8008 bound_to 7997
  154.4657  140.2017  156.0077 H   0  0  0  0  0  0  0  0  0  0  0  0  # atno 8009 bound_to 7997
  156.0970  140.3225  155.7895 H   0  0  0  0  0  0  0  0  0  0  0  0  # atno 8010 bound_to 7997
  139.9892  144.5769  150.7833 H   0  0  0  0  0  0  0  0  0  0  0  0  # atno 10167 bound_to 10162
  157.2260  131.0729  151.1882 H   0  0  0  0  0  0  0  0  0  0  0  0  # atno 10718 bound_to 10713
  153.5955  135.7001  153.5405 H   0  0  0  0  0  0  0  0  0  0  0  0  # atno 10763 bound_to 10752
  153.3141  135.4092  155.1361 H   0  0  0  0  0  0  0  0  0  0  0  0  # atno 10764 bound_to 10752
  154.8592  135.3679  154.5489 H   0  0  0  0  0  0  0  0  0  0  0  0  # atno 10765 bound_to 10752
  140.0262  134.9374  157.0572 H   0  0  0  0  0  0  0  0  0  0  0  0  # atno 11005 bound_to 11000
  146.0988  139.3982  143.0360 LP  0  0  0  0  0  0  0  0  0  0  0  0  # atno 17320 bound_to 7965
  145.7608  140.9936  143.1201 LP  0  0  0  0  0  0  0  0  0  0  0  0  # atno 17321 bound_to 7965
  140.7461  143.2885  151.3395 LP  0  0  0  0  0  0  0  0  0  0  0  0  # atno 17342 bound_to 10162
  139.6352  144.0643  152.2510 LP  0  0  0  0  0  0  0  0  0  0  0  0  # atno 17343 bound_to 10162
  157.3527  130.7090  149.6451 LP  0  0  0  0  0  0  0  0  0  0  0  0  # atno 17370 bound_to 10713
  155.9678  130.4248  150.4625 LP  0  0  0  0  0  0  0  0  0  0  0  0  # atno 17371 bound_to 10713
  140.4303  134.1787  155.7168 LP  0  0  0  0  0  0  0  0  0  0  0  0  # atno 17394 bound_to 11000
  141.1804  133.8426  157.1278 LP  0  0  0  0  0  0  0  0  0  0  0  0  # atno 17395 bound_to 11000

$$$$
