AV-unprocessed.smi:109|AV-procd|sdf|1033|dock5
  -GOLD-   2262018 43D 1   1.00000     0.00000
 Structure written by MMmdl.
 58 61  0  0  0  0  0  0  0  0  1 V2000
  148.9660  142.3055  153.9480 O   0  0  0  0  0  0  0  0  0  0  0  0
  149.4371  141.2100  154.7023 C   0  0  0  0  0  0  0  0  0  0  0  0
  149.4085  141.5549  156.2013 C   0  0  0  0  0  0  0  0  0  0  0  0
  150.7356  141.2626  156.9444 C   0  0  2  0  0  0  0  0  0  0  0  0
  150.7395  139.8723  157.4056 N   0  0  0  0  0  0  0  0  0  0  0  0
  151.0042  138.8359  156.5787 C   0  0  0  0  0  0  0  0  0  0  0  0
  151.8030  138.9809  155.4900 N   0  0  0  0  0  0  0  0  0  0  0  0
  152.0406  137.9375  154.6906 C   0  0  0  0  0  0  0  0  0  0  0  0
  151.5879  136.6869  154.7968 N   0  0  0  0  0  0  0  0  0  0  0  0
  150.7836  136.5331  155.8881 C   0  0  0  0  0  0  0  0  0  0  0  0
  150.4486  137.5535  156.8218 C   0  0  0  0  0  0  0  0  0  0  0  0
  149.6138  137.0381  157.8040 N   0  0  0  0  0  0  0  0  0  0  0  0
  149.4691  135.7846  157.4680 C   0  0  0  0  0  0  0  0  0  0  0  0
  150.1382  135.3939  156.3293 N   0  0  0  0  0  0  0  0  0  0  0  0
  150.1530  134.0256  155.7151 C   0  0  1  0  0  0  0  0  0  0  0  0
  149.5110  133.1257  156.5710 O   0  0  0  0  0  0  0  0  0  0  0  0
  148.3809  132.5363  155.9276 C   0  0  2  0  0  0  0  0  0  0  0  0
  148.1789  131.1066  156.4501 C   0  0  0  0  0  0  0  0  0  0  0  0
  147.8955  131.1368  157.8325 O   0  0  0  0  0  0  0  0  0  0  0  0
  148.7578  132.6049  154.4468 C   0  0  1  0  0  0  0  0  0  0  0  0
  147.6449  132.4830  153.5810 O   0  0  0  0  0  0  0  0  0  0  0  0
  149.4458  133.9592  154.3474 C   0  0  1  0  0  0  0  0  0  0  0  0
  148.5350  135.0244  154.1234 O   0  0  0  0  0  0  0  0  0  0  0  0
  150.9985  142.2088  158.1518 C   0  0  0  0  0  0  0  0  0  0  0  0
  151.4038  143.6430  157.7261 C   0  0  0  0  0  0  0  0  0  0  0  0
  151.7158  144.5508  158.9274 C   0  0  0  0  0  0  0  0  0  0  0  0
  152.8024  143.9441  159.8224 C   0  0  0  0  0  0  0  0  0  0  0  0
  152.3959  142.5396  160.2827 C   0  0  0  0  0  0  0  0  0  0  0  0
  152.0950  141.6287  159.0827 C   0  0  0  0  0  0  0  0  0  0  0  0
  151.2095  133.7609  155.6565 H   0  0  0  0  0  0  0  0  0  0  0  0
  147.4935  133.1465  156.1031 H   0  0  0  0  0  0  0  0  0  0  0  0
  149.4783  131.8189  154.2143 H   0  0  0  0  0  0  0  0  0  0  0  0
  150.1896  133.9746  153.5503 H   0  0  0  0  0  0  0  0  0  0  0  0
  148.8375  143.0385  154.5305 H   0  0  0  0  0  0  0  0  0  0  0  0
  148.8114  140.3455  154.4813 H   0  0  0  0  0  0  0  0  0  0  0  0
  150.4518  140.9713  154.3830 H   0  0  0  0  0  0  0  0  0  0  0  0
  149.1699  142.6146  156.2711 H   0  0  0  0  0  0  0  0  0  0  0  0
  148.5899  141.0223  156.6873 H   0  0  0  0  0  0  0  0  0  0  0  0
  151.5492  141.4346  156.2402 H   0  0  0  0  0  0  0  0  0  0  0  0
  150.5028  139.7395  158.3785 H   0  0  0  0  0  0  0  0  0  0  0  0
  152.6844  138.1323  153.8456 H   0  0  0  0  0  0  0  0  0  0  0  0
  148.8656  135.1026  158.0492 H   0  0  0  0  0  0  0  0  0  0  0  0
  147.3292  130.6387  155.9521 H   0  0  0  0  0  0  0  0  0  0  0  0
  149.0530  130.4850  156.2538 H   0  0  0  0  0  0  0  0  0  0  0  0
  148.0341  130.2709  158.1853 H   0  0  0  0  0  0  0  0  0  0  0  0
  147.6677  133.1952  152.9603 H   0  0  0  0  0  0  0  0  0  0  0  0
  148.5544  135.2430  153.2035 H   0  0  0  0  0  0  0  0  0  0  0  0
  150.0752  142.2853  158.7285 H   0  0  0  0  0  0  0  0  0  0  0  0
  152.2718  143.5999  157.0669 H   0  0  0  0  0  0  0  0  0  0  0  0
  150.6060  144.1203  157.1597 H   0  0  0  0  0  0  0  0  0  0  0  0
  152.0313  145.5338  158.5766 H   0  0  0  0  0  0  0  0  0  0  0  0
  150.8080  144.7090  159.5110 H   0  0  0  0  0  0  0  0  0  0  0  0
  153.7451  143.8945  159.2758 H   0  0  0  0  0  0  0  0  0  0  0  0
  152.9768  144.5852  160.6868 H   0  0  0  0  0  0  0  0  0  0  0  0
  153.1906  142.1036  160.8890 H   0  0  0  0  0  0  0  0  0  0  0  0
  151.5163  142.6031  160.9245 H   0  0  0  0  0  0  0  0  0  0  0  0
  151.8013  140.6506  159.4639 H   0  0  0  0  0  0  0  0  0  0  0  0
  153.0111  141.4692  158.5122 H   0  0  0  0  0  0  0  0  0  0  0  0
  1  2  1  0  0  0  0
  1 34  1  0  0  0  0
  2  3  1  0  0  0  0
  2 35  1  0  0  0  0
  2 36  1  0  0  0  0
  3  4  1  0  0  0  0
  3 37  1  0  0  0  0
  3 38  1  0  0  0  0
  4  5  1  0  0  0  0
  4 24  1  0  0  0  0
  4 39  1  0  0  0  0
  5  6  1  0  0  0  0
  5 40  1  0  0  0  0
  6 11  1  0  0  0  0
  6  7  2  0  0  0  0
  7  8  1  0  0  0  0
  8  9  2  0  0  0  0
  8 41  1  0  0  0  0
  9 10  1  0  0  0  0
 10 14  1  0  0  0  0
 10 11  2  0  0  0  0
 11 12  1  0  0  0  0
 12 13  2  0  0  0  0
 13 14  1  0  0  0  0
 13 42  1  0  0  0  0
 14 15  1  0  0  0  0
 15 30  1  0  0  0  0
 15 22  1  0  0  0  0
 15 16  1  0  0  0  0
 16 17  1  0  0  0  0
 17 31  1  0  0  0  0
 17 18  1  0  0  0  0
 17 20  1  0  0  0  0
 18 19  1  0  0  0  0
 18 43  1  0  0  0  0
 18 44  1  0  0  0  0
 19 45  1  0  0  0  0
 20 32  1  0  0  0  0
 20 21  1  0  0  0  0
 20 22  1  0  0  0  0
 21 46  1  0  0  0  0
 22 33  1  0  0  0  0
 22 23  1  0  0  0  0
 23 47  1  0  0  0  0
 24 29  1  0  0  0  0
 24 25  1  0  0  0  0
 24 48  1  0  0  0  0
 25 26  1  0  0  0  0
 25 49  1  0  0  0  0
 25 50  1  0  0  0  0
 26 27  1  0  0  0  0
 26 51  1  0  0  0  0
 26 52  1  0  0  0  0
 27 28  1  0  0  0  0
 27 53  1  0  0  0  0
 27 54  1  0  0  0  0
 28 29  1  0  0  0  0
 28 55  1  0  0  0  0
 28 56  1  0  0  0  0
 29 57  1  0  0  0  0
 29 58  1  0  0  0  0
M  END
> <s_m_source_file>
AV-unprocessed.smi

> <i_m_source_file_index>
109

> <i_lp_mmshare_version>
43012

> <i_f3d_flags>
0

> <s_epik_input>
W0NIMl0xW0NIMl1bQ0gyXVtDSDJdW0NIMl1bQ0hdMVtDQEhdKFtDSDJdW0NIMl1bT0hdKVtOSF1jKG5bY0hdbjIpYyhjMjMpbltjSF1uM1tDQEBIXTRPW0NASF0oW0NIMl1bT0hdKVtDQEBIXShbT0hdKVtDQEhdNFtPSF0=

> <s_epik_cmdline>
J2VwaWtfcHl0aG9uJywgJy1waCcsICc3LjAnLCAnLXRuJywgJzgnLCAnLW1hJywgJzIwMCcsICctbWV0YWxfYmluZGluZycsICctaW1hZScsICc8aW5maWxlLm1hZT4nLCAnLW9tYWUnLCAnPG91dGZpbGUubWFlPic=

> <r_lp_tautomer_probability>
1

> <r_epik_Ionization_Penalty>
0.000793976

> <r_epik_Ionization_Penalty_Charging>
0

> <r_epik_Ionization_Penalty_Neutral>
0.000793976

> <r_epik_State_Penalty>
-0

> <r_epik_Charging_Adjusted_Penalty>
0

> <i_epik_Tot_Q>
0

> <i_epik_Tot_abs_Q>
0

> <r_epik_Metal_State_Penalty>
-0

> <b_epik_Metal_Only>
0

> <s_epik_Chemistry_Notes>
This compound contains an acetal/aminal-like group ( X-CH(R)-Y where X, Y are N, S, or O) that may be acid/base labile, releasing an aldehyde.

> <s_lp_Force_Field>
OPLS_2005

> <r_lp_Energy>
57.1061

> <b_lp_Chiralities_Consistent>
1

> <s_lp_Variant>
AV-unprocessed.smi:109-3

> <Gold.Version>
5.8.1

> <Gold.Id.Protein>
6NUR|6NUR_protein|mol2

> <Gold.PLP.Fitness>
53.3172

> <Gold.PLP.PLP>
-46.3227

> <Gold.PLP.part.hbond>
-4.0000

> <Gold.PLP.part.metal>
0.0000

> <Gold.PLP.part.buried>
-7.6628

> <Gold.PLP.part.nonpolar>
-36.1791

> <Gold.PLP.part.repulsive>
0.1790

> <Gold.PLP.ligand.clash>
0.0000

> <Gold.PLP.ligand.torsion>
1.5331

> <Gold.PLP.Chemscore.Hbond>
3.2560

> <Gold.PLP.Chemscore.CHOScore>
0.0000

> <Gold.PLP.Chemscore.Metal>
0.0000

> <Gold.Chemscore.Hbonds>
donor molecule, donor type, donor heavy atom, donor atom, acceptor molecule, acceptor atom, score
      L1  H     1    34       P1  8028  1.00
      L1  H    23    47       P1  7948  1.00
      P1  H  8011  8017       L1     1  0.26
      P1  H 10752 10764       L1     9  1.00

> <Gold.PLP.Chemscore.Internal.Correction>
0.2927

> <Gold.Rescore>
     Score         DG    S(hbond)    S(metal)    S(lipo)     H(rot)  DE(clash)    DE(int)     intcor
     11.88     -13.41       2.86        0.00     105.76       5.47       0.05       1.48       ----

> <Gold.Chemscore.Fitness>
11.8782

> <Gold.Chemscore.DG>
-13.4054

> <Gold.Chemscore.ZeroCoef>
-5.4800

> <Gold.Chemscore.Hbond>
2.8577

> <Gold.Chemscore.Metal>
0.0000

> <Gold.Chemscore.Lipo>
105.7618

> <Gold.Chemscore.Internal_Hbond>
0.0000

> <Gold.Chemscore.DEClash>
0.0502

> <Gold.Chemscore.DEInternal>
1.4771

> <Gold.Chemscore.Rot>
5.4662

> <Gold.Chemscore.Internal.Correction>
   9.000000E+99

> <Gold.Chemscore.Hbonds>
donor molecule, donor type, donor heavy atom, donor atom, acceptor molecule, acceptor atom, score
      L1  H     1    34       P1  8028  0.96
      L1  H    23    47       P1  7948  0.86
      P1  H  8011  8017       L1     1  0.21
      P1  H 10752 10764       L1     9  0.55

> <Gold.Chemscore.Hbond.Weighted>
-9.5448

> <Gold.Chemscore.Metal.Weighted>
-0.0000

> <Gold.Chemscore.Lipo.Weighted>
-12.3741

> <Gold.Chemscore.Internal_Hbond.Weighted>
0.0000

> <Gold.Chemscore.DEClash.Weighted>
0.0502

> <Gold.Chemscore.DEInternal.Weighted>
1.4771

> <Gold.Chemscore.Rot.Weighted>
13.9935

> <Gold.Chemscore.Internal.Correction.Weighted>
   9.000000E+99

> <Gold.Protein.RotatedTorsions>
[ 6907 6896 6895 6894 ] final  -25.06 input  -60.11 | X-H torsion
[ 7974 7965 7964 7962 ] final   67.52 input  175.53 | X-H torsion
[ 8008 7997 7996 7995 ] final  111.44 input   59.86 | X-H torsion
[ 10167 10162 10161 10158 ] final   56.76 input  -65.29 | X-H torsion
[ 10718 10713 10712 10709 ] final   86.34 input   66.30 | X-H torsion
[ 10763 10752 10751 10750 ] final  -75.73 input  -60.55 | X-H torsion
[ 11005 11000 10999 10996 ] final  -49.55 input  -57.11 | X-H torsion

> <Gold.Protein.ActiveResidues>
 VAL166  LYS551  ARG553  GLY616  TRP617  ASP618  TYR619  PRO620  LYS621  CYS622 
 ASP623  PHE694  ASN695  SER759  ASP760  ASP761  ALA762  ILE779  LEU786  VAL792 
 PHE793  MET794  SER795  GLU796  ALA797  LYS798  CYS799  TRP800  GLU811  SER814 

> <Gold.Protein.RotatedAtoms>
  151.1806  135.0359  159.8790 H   0  0  0  0  0  0  0  0  0  0  0  0  # atno 6907 bound_to 6896
  152.5445  134.1068  159.8351 H   0  0  0  0  0  0  0  0  0  0  0  0  # atno 6908 bound_to 6896
  151.1184  133.5075  159.2635 H   0  0  0  0  0  0  0  0  0  0  0  0  # atno 6909 bound_to 6896
  145.8136  139.3046  143.1084 H   0  0  0  0  0  0  0  0  0  0  0  0  # atno 7974 bound_to 7965
  156.2124  140.3019  155.9762 H   0  0  0  0  0  0  0  0  0  0  0  0  # atno 8008 bound_to 7997
  155.2691  140.0433  157.3022 H   0  0  0  0  0  0  0  0  0  0  0  0  # atno 8009 bound_to 7997
  154.5718  140.2350  155.8188 H   0  0  0  0  0  0  0  0  0  0  0  0  # atno 8010 bound_to 7997
  140.2053  144.3945  150.6511 H   0  0  0  0  0  0  0  0  0  0  0  0  # atno 10167 bound_to 10162
  157.6927  131.0212  150.2959 H   0  0  0  0  0  0  0  0  0  0  0  0  # atno 10718 bound_to 10713
  154.4905  135.5821  153.6455 H   0  0  0  0  0  0  0  0  0  0  0  0  # atno 10763 bound_to 10752
  152.9861  135.6111  154.3131 H   0  0  0  0  0  0  0  0  0  0  0  0  # atno 10764 bound_to 10752
  154.3030  135.2846  155.2581 H   0  0  0  0  0  0  0  0  0  0  0  0  # atno 10765 bound_to 10752
  141.0765  133.6664  156.3601 H   0  0  0  0  0  0  0  0  0  0  0  0  # atno 11005 bound_to 11000
  145.9750  140.8729  143.0143 LP  0  0  0  0  0  0  0  0  0  0  0  0  # atno 17320 bound_to 7965
  144.6755  140.2000  143.7388 LP  0  0  0  0  0  0  0  0  0  0  0  0  # atno 17321 bound_to 7965
  140.6362  143.2195  151.6390 LP  0  0  0  0  0  0  0  0  0  0  0  0  # atno 17342 bound_to 10162
  139.5201  144.3233  152.0891 LP  0  0  0  0  0  0  0  0  0  0  0  0  # atno 17343 bound_to 10162
  156.3482  130.3826  149.7351 LP  0  0  0  0  0  0  0  0  0  0  0  0  # atno 17370 bound_to 10713
  156.4837  130.8053  151.3066 LP  0  0  0  0  0  0  0  0  0  0  0  0  # atno 17371 bound_to 10713
  140.5561  134.5980  157.5421 LP  0  0  0  0  0  0  0  0  0  0  0  0  # atno 17394 bound_to 11000
  139.9578  134.7505  156.0304 LP  0  0  0  0  0  0  0  0  0  0  0  0  # atno 17395 bound_to 11000

$$$$
