AV-unprocessed.smi:1301|AV-procd|sdf|5424|dock4
  -GOLD-   22720 4583D 1   1.00000     0.00000
 Structure written by MMmdl.
 44 45  0  0  0  0  0  0  0  0  3 V2000
  153.2374  138.1794  158.3229 C   0  0  0  0  0  0  0  0  0  0  0  0
  152.7042  138.1351  156.9320 C   0  0  0  0  0  0  0  0  0  0  0  0
  151.4363  138.1194  156.4238 C   0  0  0  0  0  0  0  0  0  0  0  0
  151.6505  138.0792  155.0191 C   0  0  0  0  0  0  0  0  0  0  0  0
  150.6982  138.0389  154.0746 N   0  5  0  0  0  0  0  0  0  0  0  0
  149.7996  139.0442  153.9712 C   0  0  0  0  0  0  0  0  0  0  0  0
  149.8845  140.1603  154.4883 O   0  0  0  0  0  0  0  0  0  0  0  0
  148.7386  138.7367  153.2119 N   0  0  0  0  0  0  0  0  0  0  0  0
  147.6206  139.6210  152.8847 C   0  0  2  0  0  0  0  0  0  0  0  0
  146.7632  139.8759  154.1357 C   0  0  0  0  0  0  0  0  0  0  0  0
  145.9875  138.6167  154.5657 C   0  0  0  0  0  0  0  0  0  0  0  0
  145.1515  138.0887  153.4566 N   0  3  2  0  0  0  0  0  0  0  0  0
  144.2986  136.9516  153.8896 C   0  0  0  0  0  0  0  0  0  0  0  0
  143.0853  136.7147  152.9635 C   0  0  0  0  0  0  0  0  0  0  0  0
  142.0127  137.8040  153.1322 C   0  0  0  0  0  0  0  0  0  0  0  0
  142.4802  135.3248  153.2116 C   0  0  0  0  0  0  0  0  0  0  0  0
  145.9683  137.7853  152.2513 C   0  0  0  0  0  0  0  0  0  0  0  0
  146.7324  139.0312  151.7716 C   0  0  0  0  0  0  0  0  0  0  0  0
  152.9345  138.0558  154.7033 N   0  0  0  0  0  0  0  0  0  0  0  0
  153.6173  138.0971  155.9247 O   0  0  0  0  0  0  0  0  0  0  0  0
  153.2140  137.1882  158.7753 H   0  0  0  0  0  0  0  0  0  0  0  0
  152.6429  138.8499  158.9437 H   0  0  0  0  0  0  0  0  0  0  0  0
  154.2684  138.5338  158.3362 H   0  0  0  0  0  0  0  0  0  0  0  0
  150.5043  138.1383  156.9686 H   0  0  0  0  0  0  0  0  0  0  0  0
  148.7131  137.8058  152.8219 H   0  0  0  0  0  0  0  0  0  0  0  0
  148.0309  140.5748  152.5484 H   0  0  0  0  0  0  0  0  0  0  0  0
  147.3880  140.2297  154.9568 H   0  0  0  0  0  0  0  0  0  0  0  0
  146.0542  140.6783  153.9274 H   0  0  0  0  0  0  0  0  0  0  0  0
  146.6765  137.8413  154.9043 H   0  0  0  0  0  0  0  0  0  0  0  0
  145.3530  138.8670  155.4169 H   0  0  0  0  0  0  0  0  0  0  0  0
  144.9121  136.0519  153.9602 H   0  0  0  0  0  0  0  0  0  0  0  0
  143.9239  137.1399  154.8970 H   0  0  0  0  0  0  0  0  0  0  0  0
  143.4165  136.7291  151.9258 H   0  0  0  0  0  0  0  0  0  0  0  0
  141.6405  137.8397  154.1564 H   0  0  0  0  0  0  0  0  0  0  0  0
  141.1610  137.6195  152.4766 H   0  0  0  0  0  0  0  0  0  0  0  0
  142.4026  138.7914  152.8843 H   0  0  0  0  0  0  0  0  0  0  0  0
  142.1082  135.2289  154.2322 H   0  0  0  0  0  0  0  0  0  0  0  0
  143.2194  134.5394  153.0514 H   0  0  0  0  0  0  0  0  0  0  0  0
  141.6469  135.1318  152.5353 H   0  0  0  0  0  0  0  0  0  0  0  0
  146.6662  136.9767  152.4747 H   0  0  0  0  0  0  0  0  0  0  0  0
  145.3333  137.4330  151.4398 H   0  0  0  0  0  0  0  0  0  0  0  0
  146.0157  139.7869  151.4474 H   0  0  0  0  0  0  0  0  0  0  0  0
  147.3270  138.7866  150.8908 H   0  0  0  0  0  0  0  0  0  0  0  0
  144.5211  138.8359  153.2034 H   0  0  0  0  0  0  0  0  0  0  0  0
  1  2  1  0  0  0  0
  1 21  1  0  0  0  0
  1 22  1  0  0  0  0
  1 23  1  0  0  0  0
  2 20  1  0  0  0  0
  2  3  2  0  0  0  0
  3  4  1  0  0  0  0
  3 24  1  0  0  0  0
  4  5  1  0  0  0  0
  4 19  2  0  0  0  0
  5  6  1  0  0  0  0
  6  7  2  0  0  0  0
  6  8  1  0  0  0  0
  8  9  1  0  0  0  0
  8 25  1  0  0  0  0
  9 18  1  0  0  0  0
  9 10  1  0  0  0  0
  9 26  1  0  0  0  0
 10 11  1  0  0  0  0
 10 27  1  0  0  0  0
 10 28  1  0  0  0  0
 11 12  1  0  0  0  0
 11 29  1  0  0  0  0
 11 30  1  0  0  0  0
 12 13  1  0  0  0  0
 12 17  1  0  0  0  0
 12 44  1  0  0  0  0
 13 14  1  0  0  0  0
 13 31  1  0  0  0  0
 13 32  1  0  0  0  0
 14 15  1  0  0  0  0
 14 16  1  0  0  0  0
 14 33  1  0  0  0  0
 15 34  1  0  0  0  0
 15 35  1  0  0  0  0
 15 36  1  0  0  0  0
 16 37  1  0  0  0  0
 16 38  1  0  0  0  0
 16 39  1  0  0  0  0
 17 18  1  0  0  0  0
 17 40  1  0  0  0  0
 17 41  1  0  0  0  0
 18 42  1  0  0  0  0
 18 43  1  0  0  0  0
 19 20  1  0  0  0  0
M  CHG  1   5  -1
M  CHG  1  12   1
M  END
> <s_m_source_file>
AV-unprocessed.smi

> <i_m_source_file_index>
1301

> <i_lp_mmshare_version>
43012

> <i_f3d_flags>
0

> <s_epik_input>
W0NIM11jMVtjSF1jKG5vMSlbTkhdQyg9TylbTkhdW0NIXTJbQ0gyXVtDSDJdTihbQ0gyXVtDSDJdMilbQ0gyXVtDSF0oW0NIM10pW0NIM10=

> <s_epik_cmdline>
J2VwaWtfcHl0aG9uJywgJy1waCcsICc3LjAnLCAnLXRuJywgJzgnLCAnLW1hJywgJzIwMCcsICctbWV0YWxfYmluZGluZycsICctaW1hZScsICc8aW5maWxlLm1hZT4nLCAnLW9tYWUnLCAnPG91dGZpbGUubWFlPic=

> <r_epik_Ionization_Penalty>
6.28597

> <r_epik_Ionization_Penalty_Charging>
6.28587

> <r_epik_Ionization_Penalty_Neutral>
9.69304e-05

> <r_epik_State_Penalty>
6.28524

> <r_epik_Charging_Adjusted_Penalty>
12.5711

> <i_epik_Tot_Q>
0

> <i_epik_Tot_abs_Q>
2

> <r_epik_Metal_State_Penalty>
2.21973

> <b_epik_Metal_Only>
1

> <s_lp_Force_Field>
OPLS_2005

> <r_lp_Energy>
6.70583

> <b_lp_Chiralities_Consistent>
1

> <s_lp_Variant>
AV-unprocessed.smi:1301-4

> <Gold.Version>
5.8.1

> <Gold.Id.Protein>
6NUR|6NUR_protein|mol2

> <Gold.PLP.Fitness>
41.8142

> <Gold.PLP.PLP>
-30.1435

> <Gold.PLP.part.hbond>
-5.8657

> <Gold.PLP.part.metal>
0.0000

> <Gold.PLP.part.buried>
0.3663

> <Gold.PLP.part.nonpolar>
-25.2434

> <Gold.PLP.part.repulsive>
0.4832

> <Gold.PLP.ligand.clash>
0.0000

> <Gold.PLP.ligand.torsion>
0.9621

> <Gold.PLP.Chemscore.Hbond>
4.4558

> <Gold.PLP.Chemscore.CHOScore>
0.0000

> <Gold.PLP.Chemscore.Metal>
0.0000

> <Gold.Chemscore.Hbonds>
donor molecule, donor type, donor heavy atom, donor atom, acceptor molecule, acceptor atom, score
      L1  H     8    25       P1  7948  1.00
      L1  H    12    44       P1 10175  2.00
      P1  H  7989  7998       L1     7  0.71
      P1  H  7997  8009       L1    20  0.31

> <Gold.PLP.Chemscore.Internal.Correction>
0.2275

> <Gold.Rescore>
     Score         DG    S(hbond)    S(metal)    S(lipo)     H(rot)  DE(clash)    DE(int)     intcor
     12.94     -17.11       2.38        0.00      62.33       1.41       3.27       0.90       ----

> <Gold.Chemscore.Fitness>
12.9371

> <Gold.Chemscore.DG>
-17.1094

> <Gold.Chemscore.ZeroCoef>
-5.4800

> <Gold.Chemscore.Hbond>
2.3764

> <Gold.Chemscore.Metal>
0.0000

> <Gold.Chemscore.Lipo>
62.3295

> <Gold.Chemscore.Internal_Hbond>
0.0000

> <Gold.Chemscore.DEClash>
3.2683

> <Gold.Chemscore.DEInternal>
0.9039

> <Gold.Chemscore.Rot>
1.4063

> <Gold.Chemscore.Internal.Correction>
   9.000000E+99

> <Gold.Chemscore.Hbonds>
donor molecule, donor type, donor heavy atom, donor atom, acceptor molecule, acceptor atom, score
      L1  H     8    25       P1  7948  1.00
      L1  H    12    44       P1 10175  0.98
      P1  H  7989  7998       L1     7  0.15
      P1  H  7997  8009       L1    20  0.04

> <Gold.Chemscore.Hbond.Weighted>
-7.9370

> <Gold.Chemscore.Metal.Weighted>
-0.0000

> <Gold.Chemscore.Lipo.Weighted>
-7.2926

> <Gold.Chemscore.Internal_Hbond.Weighted>
0.0000

> <Gold.Chemscore.DEClash.Weighted>
3.2683

> <Gold.Chemscore.DEInternal.Weighted>
0.9039

> <Gold.Chemscore.Rot.Weighted>
3.6002

> <Gold.Chemscore.Internal.Correction.Weighted>
   9.000000E+99

> <Gold.Protein.RotatedTorsions>
[ 6907 6896 6895 6894 ] final  145.56 input  -60.11 | X-H torsion
[ 7974 7965 7964 7962 ] final   42.47 input  175.53 | X-H torsion
[ 8008 7997 7996 7995 ] final -139.31 input   59.86 | X-H torsion
[ 10167 10162 10161 10158 ] final  178.22 input  -65.29 | X-H torsion
[ 10718 10713 10712 10709 ] final   -9.78 input   66.30 | X-H torsion
[ 10763 10752 10751 10750 ] final  137.53 input  -60.55 | X-H torsion
[ 11005 11000 10999 10996 ] final  175.22 input  -57.11 | X-H torsion

> <Gold.Protein.ActiveResidues>
 VAL166  LYS551  ARG553  GLY616  TRP617  ASP618  TYR619  PRO620  LYS621  CYS622 
 ASP623  PHE694  ASN695  SER759  ASP760  ASP761  ALA762  ILE779  LEU786  VAL792 
 PHE793  MET794  SER795  GLU796  ALA797  LYS798  CYS799  TRP800  GLU811  SER814 

> <Gold.Protein.RotatedAtoms>
  152.1793  133.4696  159.4949 H   0  0  0  0  0  0  0  0  0  0  0  0  # atno 6907 bound_to 6896
  150.6932  134.1854  159.4273 H   0  0  0  0  0  0  0  0  0  0  0  0  # atno 6908 bound_to 6896
  151.9764  135.0050  160.0606 H   0  0  0  0  0  0  0  0  0  0  0  0  # atno 6909 bound_to 6896
  146.0738  139.5297  142.9581 H   0  0  0  0  0  0  0  0  0  0  0  0  # atno 7974 bound_to 7965
  155.4428  140.0533  157.3009 H   0  0  0  0  0  0  0  0  0  0  0  0  # atno 8008 bound_to 7997
  154.4811  140.2081  155.9719 H   0  0  0  0  0  0  0  0  0  0  0  0  # atno 8009 bound_to 7997
  156.1206  140.3189  155.8208 H   0  0  0  0  0  0  0  0  0  0  0  0  # atno 8010 bound_to 7997
  139.5285  144.2706  152.0631 H   0  0  0  0  0  0  0  0  0  0  0  0  # atno 10167 bound_to 10162
  156.6830  130.5042  149.5965 H   0  0  0  0  0  0  0  0  0  0  0  0  # atno 10718 bound_to 10713
  153.8746  135.3051  155.3443 H   0  0  0  0  0  0  0  0  0  0  0  0  # atno 10763 bound_to 10752
  154.7790  135.4846  153.9807 H   0  0  0  0  0  0  0  0  0  0  0  0  # atno 10764 bound_to 10752
  153.1386  135.6819  153.9159 H   0  0  0  0  0  0  0  0  0  0  0  0  # atno 10765 bound_to 10752
  140.3598  134.7123  157.4323 H   0  0  0  0  0  0  0  0  0  0  0  0  # atno 11005 bound_to 11000
  145.6344  141.0297  143.1846 LP  0  0  0  0  0  0  0  0  0  0  0  0  # atno 17320 bound_to 7965
  144.7248  139.7911  143.7369 LP  0  0  0  0  0  0  0  0  0  0  0  0  # atno 17321 bound_to 7965
  140.2166  144.4509  150.6361 LP  0  0  0  0  0  0  0  0  0  0  0  0  # atno 17342 bound_to 10162
  140.6446  143.2210  151.6215 LP  0  0  0  0  0  0  0  0  0  0  0  0  # atno 17343 bound_to 10162
  156.1853  130.6525  151.0999 LP  0  0  0  0  0  0  0  0  0  0  0  0  # atno 17370 bound_to 10713
  157.7037  131.0765  150.6739 LP  0  0  0  0  0  0  0  0  0  0  0  0  # atno 17371 bound_to 10713
  140.0636  134.5961  155.8721 LP  0  0  0  0  0  0  0  0  0  0  0  0  # atno 17394 bound_to 11000
  141.1987  133.6603  156.5808 LP  0  0  0  0  0  0  0  0  0  0  0  0  # atno 17395 bound_to 11000

$$$$
