AV-unprocessed.smi:629|AV-procd|sdf|3116|dock7
  -GOLD-   22720 0 43D 1   1.00000     0.00000
 Structure written by MMmdl.
 31 32  0  0  0  0  0  0  0  0  1 V2000
  146.7567  138.6200  152.2941 C   0  0  0  0  0  0  0  0  0  0  0  0
  147.5735  139.7553  152.6933 N   0  0  0  0  0  0  0  0  0  0  0  0
  147.5696  140.2940  153.9221 C   0  0  0  0  0  0  0  0  0  0  0  0
  146.8736  139.8681  154.8438 O   0  0  0  0  0  0  0  0  0  0  0  0
  148.4984  141.4883  154.1534 C   0  0  0  0  0  0  0  0  0  0  0  0
  149.6322  141.1169  155.0557 C   0  0  0  0  0  0  0  0  0  0  0  0
  150.4915  140.1594  154.7249 N   0  0  0  0  0  0  0  0  0  0  0  0
  151.3813  140.1337  155.8083 O   0  0  0  0  0  0  0  0  0  0  0  0
  150.9321  141.0701  156.6778 C   0  0  0  0  0  0  0  0  0  0  0  0
  151.7069  141.3259  157.9279 C   0  0  0  0  0  0  0  0  0  0  0  0
  151.2259  142.5786  158.6832 C   0  0  1  0  0  0  0  0  0  0  0  0
  152.0502  142.8727  159.9112 C   0  0  0  0  0  0  0  0  0  0  0  0
  152.5176  144.1187  159.9348 C   0  0  0  0  0  0  0  0  0  0  0  0
  152.1036  144.9100  158.7260 C   0  0  0  0  0  0  0  0  0  0  0  0
  151.3574  143.8801  157.8493 C   0  0  0  0  0  0  0  0  0  0  0  0
  149.8522  141.7227  156.2557 N   0  0  0  0  0  0  0  0  0  0  0  0
  146.9060  138.4096  151.2353 H   0  0  0  0  0  0  0  0  0  0  0  0
  145.6976  138.8261  152.4546 H   0  0  0  0  0  0  0  0  0  0  0  0
  147.0287  137.7290  152.8610 H   0  0  0  0  0  0  0  0  0  0  0  0
  148.1737  140.1631  151.9907 H   0  0  0  0  0  0  0  0  0  0  0  0
  148.8947  141.8395  153.1995 H   0  0  0  0  0  0  0  0  0  0  0  0
  147.9325  142.3153  154.5848 H   0  0  0  0  0  0  0  0  0  0  0  0
  151.6677  140.4437  158.5686 H   0  0  0  0  0  0  0  0  0  0  0  0
  152.7518  141.4503  157.6407 H   0  0  0  0  0  0  0  0  0  0  0  0
  150.1841  142.4574  158.9843 H   0  0  0  0  0  0  0  0  0  0  0  0
  152.2142  142.1345  160.6828 H   0  0  0  0  0  0  0  0  0  0  0  0
  153.1178  144.5446  160.7253 H   0  0  0  0  0  0  0  0  0  0  0  0
  151.4530  145.7316  159.0265 H   0  0  0  0  0  0  0  0  0  0  0  0
  152.9751  145.3218  158.2165 H   0  0  0  0  0  0  0  0  0  0  0  0
  151.9291  143.7010  156.9379 H   0  0  0  0  0  0  0  0  0  0  0  0
  150.3802  144.2548  157.5423 H   0  0  0  0  0  0  0  0  0  0  0  0
  1  2  1  0  0  0  0
  1 17  1  0  0  0  0
  1 18  1  0  0  0  0
  1 19  1  0  0  0  0
  2  3  1  0  0  0  0
  2 20  1  0  0  0  0
  3  4  2  0  0  0  0
  3  5  1  0  0  0  0
  5  6  1  0  0  0  0
  5 21  1  0  0  0  0
  5 22  1  0  0  0  0
  6 16  1  0  0  0  0
  6  7  2  0  0  0  0
  7  8  1  0  0  0  0
  8  9  1  0  0  0  0
  9 10  1  0  0  0  0
  9 16  2  0  0  0  0
 10 11  1  0  0  0  0
 10 23  1  0  0  0  0
 10 24  1  0  0  0  0
 11 15  1  0  0  0  0
 11 12  1  0  0  0  0
 11 25  1  0  0  0  0
 12 13  2  0  0  0  0
 12 26  1  0  0  0  0
 13 14  1  0  0  0  0
 13 27  1  0  0  0  0
 14 15  1  0  0  0  0
 14 28  1  0  0  0  0
 14 29  1  0  0  0  0
 15 30  1  0  0  0  0
 15 31  1  0  0  0  0
M  END
> <s_m_source_file>
AV-unprocessed.smi

> <i_m_source_file_index>
629

> <i_lp_mmshare_version>
43012

> <i_f3d_flags>
0

> <s_epik_input>
W0NIM11bTkhdQyg9TylbQ0gyXWMxbm9jKG4xKVtDSDJdW0NAQEhdMltDSF09W0NIXVtDSDJdW0NIMl0y

> <s_epik_cmdline>
J2VwaWtfcHl0aG9uJywgJy1waCcsICc3LjAnLCAnLXRuJywgJzgnLCAnLW1hJywgJzIwMCcsICctbWV0YWxfYmluZGluZycsICctaW1hZScsICc8aW5maWxlLm1hZT4nLCAnLW9tYWUnLCAnPG91dGZpbGUubWFlPic=

> <r_lp_tautomer_probability>
1

> <r_epik_Ionization_Penalty>
1.02915e-07

> <r_epik_Ionization_Penalty_Charging>
0

> <r_epik_Ionization_Penalty_Neutral>
1.02915e-07

> <r_epik_State_Penalty>
-0

> <r_epik_Charging_Adjusted_Penalty>
0

> <i_epik_Tot_Q>
0

> <i_epik_Tot_abs_Q>
0

> <r_epik_Metal_State_Penalty>
-0

> <b_epik_Metal_Only>
0

> <s_lp_Force_Field>
OPLS_2005

> <r_lp_Energy>
15.6904

> <b_lp_Chiralities_Consistent>
1

> <s_lp_Variant>
AV-unprocessed.smi:629-2

> <Gold.Version>
5.8.1

> <Gold.Id.Protein>
6NUR|6NUR_protein|mol2

> <Gold.PLP.Fitness>
42.5854

> <Gold.PLP.PLP>
-36.9560

> <Gold.PLP.part.hbond>
-1.7314

> <Gold.PLP.part.metal>
0.0000

> <Gold.PLP.part.buried>
-4.0101

> <Gold.PLP.part.nonpolar>
-31.9742

> <Gold.PLP.part.repulsive>
0.3488

> <Gold.PLP.ligand.clash>
0.0000

> <Gold.PLP.ligand.torsion>
0.1593

> <Gold.PLP.Chemscore.Hbond>
1.9760

> <Gold.PLP.Chemscore.CHOScore>
0.0000

> <Gold.PLP.Chemscore.Metal>
0.0000

> <Gold.Chemscore.Hbonds>
donor molecule, donor type, donor heavy atom, donor atom, acceptor molecule, acceptor atom, score
      L1  H     2    20       P1  7957  0.94
      P1  H  7989  7998       L1     7  0.90

> <Gold.PLP.Chemscore.Internal.Correction>
0.0200

> <Gold.Rescore>
     Score         DG    S(hbond)    S(metal)    S(lipo)     H(rot)  DE(clash)    DE(int)     intcor
     13.83     -14.00       1.05        0.00      84.12       1.89       0.02       0.15       ----

> <Gold.Chemscore.Fitness>
13.8314

> <Gold.Chemscore.DG>
-14.0035

> <Gold.Chemscore.ZeroCoef>
-5.4800

> <Gold.Chemscore.Hbond>
1.0520

> <Gold.Chemscore.Metal>
0.0000

> <Gold.Chemscore.Lipo>
84.1218

> <Gold.Chemscore.Internal_Hbond>
0.0000

> <Gold.Chemscore.DEClash>
0.0236

> <Gold.Chemscore.DEInternal>
0.1486

> <Gold.Chemscore.Rot>
1.8877

> <Gold.Chemscore.Internal.Correction>
   9.000000E+99

> <Gold.Chemscore.Hbonds>
donor molecule, donor type, donor heavy atom, donor atom, acceptor molecule, acceptor atom, score
      L1  H     2    20       P1  7957  0.91
      P1  H  7989  7998       L1     7  0.11

> <Gold.Chemscore.Hbond.Weighted>
-3.5138

> <Gold.Chemscore.Metal.Weighted>
-0.0000

> <Gold.Chemscore.Lipo.Weighted>
-9.8423

> <Gold.Chemscore.Internal_Hbond.Weighted>
0.0000

> <Gold.Chemscore.DEClash.Weighted>
0.0236

> <Gold.Chemscore.DEInternal.Weighted>
0.1486

> <Gold.Chemscore.Rot.Weighted>
4.8325

> <Gold.Chemscore.Internal.Correction.Weighted>
   9.000000E+99

> <Gold.Protein.RotatedTorsions>
[ 6907 6896 6895 6894 ] final  -26.84 input  -60.11 | X-H torsion
[ 7974 7965 7964 7962 ] final   54.48 input  175.53 | X-H torsion
[ 8008 7997 7996 7995 ] final  116.10 input   59.86 | X-H torsion
[ 10167 10162 10161 10158 ] final  119.64 input  -65.29 | X-H torsion
[ 10718 10713 10712 10709 ] final   16.42 input   66.30 | X-H torsion
[ 10763 10752 10751 10750 ] final  -15.80 input  -60.55 | X-H torsion
[ 11005 11000 10999 10996 ] final -104.86 input  -57.11 | X-H torsion

> <Gold.Protein.ActiveResidues>
 VAL166  LYS551  ARG553  GLY616  TRP617  ASP618  TYR619  PRO620  LYS621  CYS622 
 ASP623  PHE694  ASN695  SER759  ASP760  ASP761  ALA762  ILE779  LEU786  VAL792 
 PHE793  MET794  SER795  GLU796  ALA797  LYS798  CYS799  TRP800  GLU811  SER814 

> <Gold.Protein.RotatedAtoms>
  151.1552  135.0247  159.8685 H   0  0  0  0  0  0  0  0  0  0  0  0  # atno 6907 bound_to 6896
  152.5452  134.1342  159.8462 H   0  0  0  0  0  0  0  0  0  0  0  0  # atno 6908 bound_to 6896
  151.1432  133.4911  159.2629 H   0  0  0  0  0  0  0  0  0  0  0  0  # atno 6909 bound_to 6896
  145.9604  139.4054  143.0251 H   0  0  0  0  0  0  0  0  0  0  0  0  # atno 7974 bound_to 7965
  156.2420  140.2924  156.0470 H   0  0  0  0  0  0  0  0  0  0  0  0  # atno 8008 bound_to 7997
  155.1923  140.0407  157.2920 H   0  0  0  0  0  0  0  0  0  0  0  0  # atno 8009 bound_to 7997
  154.6186  140.2470  155.7585 H   0  0  0  0  0  0  0  0  0  0  0  0  # atno 8010 bound_to 7997
  139.6033  144.7063  151.3012 H   0  0  0  0  0  0  0  0  0  0  0  0  # atno 10167 bound_to 10162
  157.0676  130.6334  149.5799 H   0  0  0  0  0  0  0  0  0  0  0  0  # atno 10718 bound_to 10713
  153.5489  135.7012  153.5601 H   0  0  0  0  0  0  0  0  0  0  0  0  # atno 10763 bound_to 10752
  153.3533  135.3989  155.1663 H   0  0  0  0  0  0  0  0  0  0  0  0  # atno 10764 bound_to 10752
  154.8664  135.3771  154.4999 H   0  0  0  0  0  0  0  0  0  0  0  0  # atno 10765 bound_to 10752
  141.1081  133.8759  157.1663 H   0  0  0  0  0  0  0  0  0  0  0  0  # atno 11005 bound_to 11000
  145.8047  140.9754  143.0980 LP  0  0  0  0  0  0  0  0  0  0  0  0  # atno 17320 bound_to 7965
  144.6814  139.9846  143.7484 LP  0  0  0  0  0  0  0  0  0  0  0  0  # atno 17321 bound_to 7965
  140.7266  143.6986  150.7863 LP  0  0  0  0  0  0  0  0  0  0  0  0  # atno 17342 bound_to 10162
  140.0567  143.5196  152.2648 LP  0  0  0  0  0  0  0  0  0  0  0  0  # atno 17343 bound_to 10162
  155.9960  130.5028  150.7480 LP  0  0  0  0  0  0  0  0  0  0  0  0  # atno 17370 bound_to 10713
  157.4904  131.0910  151.0433 LP  0  0  0  0  0  0  0  0  0  0  0  0  # atno 17371 bound_to 10713
  139.9960  135.0046  157.0084 LP  0  0  0  0  0  0  0  0  0  0  0  0  # atno 17394 bound_to 11000
  140.4850  134.1251  155.7223 LP  0  0  0  0  0  0  0  0  0  0  0  0  # atno 17395 bound_to 11000

$$$$
