AV-unprocessed.smi:3040|AV-procd|sdf|11596|dock10
  -GOLD-   2272016573D 1   1.00000     0.00000
 Structure written by MMmdl.
 39 40  0  0  0  0  0  0  0  0  1 V2000
  145.0684  141.1104  155.5072 C   0  0  0  0  0  0  0  0  0  0  0  0
  146.4896  141.3163  155.7928 N   0  0  0  0  0  0  0  0  0  0  0  0
  146.8336  141.3778  157.2206 C   0  0  0  0  0  0  0  0  0  0  0  0
  148.1978  142.0236  157.4938 C   0  0  0  0  0  0  0  0  0  0  0  0
  149.2626  141.4070  156.5779 C   0  0  2  0  0  0  0  0  0  0  0  0
  150.6458  142.0090  156.8559 C   0  0  0  0  0  0  0  0  0  0  0  0
  151.5915  141.2792  157.1553 O   0  0  0  0  0  0  0  0  0  0  0  0
  150.7385  143.3473  156.7907 N   0  0  0  0  0  0  0  0  0  0  0  0
  151.9054  144.1349  157.1852 C   0  0  0  0  0  0  0  0  0  0  0  0
  151.7266  144.7739  158.5776 C   0  0  0  0  0  0  0  0  0  0  0  0
  152.3180  143.9400  159.6846 C   0  0  0  0  0  0  0  0  0  0  0  0
  153.0303  142.7116  159.5731 C   0  0  0  0  0  0  0  0  0  0  0  0
  153.3692  142.2054  160.7479 N   0  0  0  0  0  0  0  0  0  0  0  0
  152.8918  143.0914  161.6459 N   0  0  0  0  0  0  0  0  0  0  0  0
  153.0623  142.8400  163.0608 C   0  0  0  0  0  0  0  0  0  0  0  0
  152.2651  144.1542  161.0333 C   0  0  0  0  0  0  0  0  0  0  0  0
  148.8740  141.6244  155.1007 C   0  0  0  0  0  0  0  0  0  0  0  0
  147.3917  141.3701  154.7831 C   0  0  0  0  0  0  0  0  0  0  0  0
  147.0684  141.2498  153.6009 O   0  0  0  0  0  0  0  0  0  0  0  0
  144.9199  140.2326  154.8764 H   0  0  0  0  0  0  0  0  0  0  0  0
  144.6559  141.9771  154.9890 H   0  0  0  0  0  0  0  0  0  0  0  0
  144.4839  140.9569  156.4151 H   0  0  0  0  0  0  0  0  0  0  0  0
  146.0669  141.9282  157.7677 H   0  0  0  0  0  0  0  0  0  0  0  0
  146.8261  140.3596  157.6121 H   0  0  0  0  0  0  0  0  0  0  0  0
  148.1274  143.0991  157.3218 H   0  0  0  0  0  0  0  0  0  0  0  0
  148.4653  141.8918  158.5431 H   0  0  0  0  0  0  0  0  0  0  0  0
  149.3042  140.3337  156.7738 H   0  0  0  0  0  0  0  0  0  0  0  0
  149.9125  143.8638  156.5254 H   0  0  0  0  0  0  0  0  0  0  0  0
  152.8061  143.5189  157.1744 H   0  0  0  0  0  0  0  0  0  0  0  0
  152.0651  144.9146  156.4402 H   0  0  0  0  0  0  0  0  0  0  0  0
  152.1707  145.7694  158.5695 H   0  0  0  0  0  0  0  0  0  0  0  0
  150.6623  144.9329  158.7551 H   0  0  0  0  0  0  0  0  0  0  0  0
  153.2919  142.1666  158.6782 H   0  0  0  0  0  0  0  0  0  0  0  0
  152.9294  143.7654  163.6218 H   0  0  0  0  0  0  0  0  0  0  0  0
  154.0620  142.4496  163.2549 H   0  0  0  0  0  0  0  0  0  0  0  0
  152.3211  142.1130  163.3941 H   0  0  0  0  0  0  0  0  0  0  0  0
  151.8152  144.9545  161.6022 H   0  0  0  0  0  0  0  0  0  0  0  0
  149.0922  142.6491  154.7946 H   0  0  0  0  0  0  0  0  0  0  0  0
  149.4813  140.9803  154.4634 H   0  0  0  0  0  0  0  0  0  0  0  0
  1  2  1  0  0  0  0
  1 20  1  0  0  0  0
  1 21  1  0  0  0  0
  1 22  1  0  0  0  0
  2 18  1  0  0  0  0
  2  3  1  0  0  0  0
  3  4  1  0  0  0  0
  3 23  1  0  0  0  0
  3 24  1  0  0  0  0
  4  5  1  0  0  0  0
  4 25  1  0  0  0  0
  4 26  1  0  0  0  0
  5  6  1  0  0  0  0
  5 17  1  0  0  0  0
  5 27  1  0  0  0  0
  6  7  2  0  0  0  0
  6  8  1  0  0  0  0
  8  9  1  0  0  0  0
  8 28  1  0  0  0  0
  9 10  1  0  0  0  0
  9 29  1  0  0  0  0
  9 30  1  0  0  0  0
 10 11  1  0  0  0  0
 10 31  1  0  0  0  0
 10 32  1  0  0  0  0
 11 16  2  0  0  0  0
 11 12  1  0  0  0  0
 12 13  2  0  0  0  0
 12 33  1  0  0  0  0
 13 14  1  0  0  0  0
 14 15  1  0  0  0  0
 14 16  1  0  0  0  0
 15 34  1  0  0  0  0
 15 35  1  0  0  0  0
 15 36  1  0  0  0  0
 16 37  1  0  0  0  0
 17 18  1  0  0  0  0
 17 38  1  0  0  0  0
 17 39  1  0  0  0  0
 18 19  2  0  0  0  0
M  END
> <s_m_source_file>
AV-unprocessed.smi

> <i_m_source_file_index>
3040

> <i_lp_mmshare_version>
43012

> <i_f3d_flags>
0

> <s_epik_input>
W0NIM11OMVtDSDJdW0NIMl1bQ0BIXShbQ0gyXUMxPU8pQyg9TylbTkhdW0NIMl1bQ0gyXWMyW2NIXW5uKFtDSDNdKVtjSF0y

> <s_epik_cmdline>
J2VwaWtfcHl0aG9uJywgJy1waCcsICc3LjAnLCAnLXRuJywgJzgnLCAnLW1hJywgJzIwMCcsICctbWV0YWxfYmluZGluZycsICctaW1hZScsICc8aW5maWxlLm1hZT4nLCAnLW9tYWUnLCAnPG91dGZpbGUubWFlPic=

> <r_lp_tautomer_probability>
1

> <r_epik_Ionization_Penalty>
0.000456436

> <r_epik_Ionization_Penalty_Charging>
0

> <r_epik_Ionization_Penalty_Neutral>
0.000456436

> <r_epik_State_Penalty>
-0

> <r_epik_Charging_Adjusted_Penalty>
0

> <i_epik_Tot_Q>
0

> <i_epik_Tot_abs_Q>
0

> <r_epik_Metal_State_Penalty>
-0

> <b_epik_Metal_Only>
0

> <s_lp_Force_Field>
OPLS_2005

> <r_lp_Energy>
9.8739

> <b_lp_Chiralities_Consistent>
1

> <s_lp_Variant>
AV-unprocessed.smi:3040-2

> <Gold.Version>
5.8.1

> <Gold.Id.Protein>
6NUR|6NUR_protein|mol2

> <Gold.PLP.Fitness>
43.3868

> <Gold.PLP.PLP>
-41.2513

> <Gold.PLP.part.hbond>
-1.0000

> <Gold.PLP.part.metal>
0.0000

> <Gold.PLP.part.buried>
-5.9527

> <Gold.PLP.part.nonpolar>
-35.0172

> <Gold.PLP.part.repulsive>
0.2366

> <Gold.PLP.ligand.clash>
0.0000

> <Gold.PLP.ligand.torsion>
0.4405

> <Gold.PLP.Chemscore.Hbond>
1.0000

> <Gold.PLP.Chemscore.CHOScore>
0.0000

> <Gold.PLP.Chemscore.Metal>
0.0000

> <Gold.Chemscore.Hbonds>
donor molecule, donor type, donor heavy atom, donor atom, acceptor molecule, acceptor atom, score
      L1  H     8    28       P1  8028  1.00

> <Gold.PLP.Chemscore.Internal.Correction>
0.0164

> <Gold.Rescore>
     Score         DG    S(hbond)    S(metal)    S(lipo)     H(rot)  DE(clash)    DE(int)     intcor
     14.50     -15.05       0.99        0.00      89.70       1.65       0.18       0.37       ----

> <Gold.Chemscore.Fitness>
14.5030

> <Gold.Chemscore.DG>
-15.0509

> <Gold.Chemscore.ZeroCoef>
-5.4800

> <Gold.Chemscore.Hbond>
0.9907

> <Gold.Chemscore.Metal>
0.0000

> <Gold.Chemscore.Lipo>
89.7018

> <Gold.Chemscore.Internal_Hbond>
0.0000

> <Gold.Chemscore.DEClash>
0.1828

> <Gold.Chemscore.DEInternal>
0.3650

> <Gold.Chemscore.Rot>
1.6536

> <Gold.Chemscore.Internal.Correction>
   9.000000E+99

> <Gold.Chemscore.Hbonds>
donor molecule, donor type, donor heavy atom, donor atom, acceptor molecule, acceptor atom, score
      L1  H     8    28       P1  8028  0.98

> <Gold.Chemscore.Hbond.Weighted>
-3.3089

> <Gold.Chemscore.Metal.Weighted>
-0.0000

> <Gold.Chemscore.Lipo.Weighted>
-10.4951

> <Gold.Chemscore.Internal_Hbond.Weighted>
0.0000

> <Gold.Chemscore.DEClash.Weighted>
0.1828

> <Gold.Chemscore.DEInternal.Weighted>
0.3650

> <Gold.Chemscore.Rot.Weighted>
4.2332

> <Gold.Chemscore.Internal.Correction.Weighted>
   9.000000E+99

> <Gold.Protein.RotatedTorsions>
[ 6907 6896 6895 6894 ] final  148.60 input  -60.11 | X-H torsion
[ 7974 7965 7964 7962 ] final -108.26 input  175.53 | X-H torsion
[ 8008 7997 7996 7995 ] final  -14.04 input   59.86 | X-H torsion
[ 10167 10162 10161 10158 ] final  -86.39 input  -65.29 | X-H torsion
[ 10718 10713 10712 10709 ] final  -60.24 input   66.30 | X-H torsion
[ 10763 10752 10751 10750 ] final  -90.80 input  -60.55 | X-H torsion
[ 11005 11000 10999 10996 ] final   69.40 input  -57.11 | X-H torsion

> <Gold.Protein.ActiveResidues>
 VAL166  LYS551  ARG553  GLY616  TRP617  ASP618  TYR619  PRO620  LYS621  CYS622 
 ASP623  PHE694  ASN695  SER759  ASP760  ASP761  ALA762  ILE779  LEU786  VAL792 
 PHE793  MET794  SER795  GLU796  ALA797  LYS798  CYS799  TRP800  GLU811  SER814 

> <Gold.Protein.RotatedAtoms>
  152.1394  133.4454  159.4758 H   0  0  0  0  0  0  0  0  0  0  0  0  # atno 6907 bound_to 6896
  150.6884  134.2324  159.4449 H   0  0  0  0  0  0  0  0  0  0  0  0  # atno 6908 bound_to 6896
  152.0214  134.9820  160.0621 H   0  0  0  0  0  0  0  0  0  0  0  0  # atno 6909 bound_to 6896
  145.1950  140.9031  143.3402 H   0  0  0  0  0  0  0  0  0  0  0  0  # atno 7974 bound_to 7965
  154.5243  140.2233  155.8919 H   0  0  0  0  0  0  0  0  0  0  0  0  # atno 8008 bound_to 7997
  156.1696  140.3124  155.8914 H   0  0  0  0  0  0  0  0  0  0  0  0  # atno 8009 bound_to 7997
  155.3585  140.0460  157.3037 H   0  0  0  0  0  0  0  0  0  0  0  0  # atno 8010 bound_to 7997
  140.3946  143.2689  151.9220 H   0  0  0  0  0  0  0  0  0  0  0  0  # atno 10167 bound_to 10162
  156.1005  130.4187  150.0826 H   0  0  0  0  0  0  0  0  0  0  0  0  # atno 10718 bound_to 10713
  154.6695  135.5291  153.8120 H   0  0  0  0  0  0  0  0  0  0  0  0  # atno 10763 bound_to 10752
  153.0492  135.6525  154.0747 H   0  0  0  0  0  0  0  0  0  0  0  0  # atno 10764 bound_to 10752
  154.0647  135.2959  155.3298 H   0  0  0  0  0  0  0  0  0  0  0  0  # atno 10765 bound_to 10752
  139.9656  134.6987  156.0553 H   0  0  0  0  0  0  0  0  0  0  0  0  # atno 11005 bound_to 11000
  145.0003  139.3604  143.6170 LP  0  0  0  0  0  0  0  0  0  0  0  0  # atno 17320 bound_to 7965
  146.3429  139.9224  142.8765 LP  0  0  0  0  0  0  0  0  0  0  0  0  # atno 17321 bound_to 7965
  139.4787  144.5694  151.8113 LP  0  0  0  0  0  0  0  0  0  0  0  0  # atno 17342 bound_to 10162
  140.4804  144.1458  150.5931 LP  0  0  0  0  0  0  0  0  0  0  0  0  # atno 17343 bound_to 10162
  156.8814  130.9558  151.3599 LP  0  0  0  0  0  0  0  0  0  0  0  0  # atno 17370 bound_to 10713
  157.6174  130.8629  149.9051 LP  0  0  0  0  0  0  0  0  0  0  0  0  # atno 17371 bound_to 10713
  141.1335  133.6580  156.3530 LP  0  0  0  0  0  0  0  0  0  0  0  0  # atno 17394 bound_to 11000
  140.5404  134.6125  157.5378 LP  0  0  0  0  0  0  0  0  0  0  0  0  # atno 17395 bound_to 11000

$$$$
