AV-unprocessed.smi:72|AV-procd|sdf|682|dock2
  -GOLD-   2262016593D 1   1.00000     0.00000
 Structure written by MMmdl.
 29 30  0  0  0  0  0  0  0  0  1 V2000
  146.7076  139.7258  151.5003 N   0  0  0  0  0  0  0  0  0  0  0  0
  146.3131  138.5054  151.5723 C   0  0  0  0  0  0  0  0  0  0  0  0
  146.4533  137.5457  150.5586 N   0  0  0  0  0  0  0  0  0  0  0  0
  146.0063  136.3467  150.7739 C   0  0  0  0  0  0  0  0  0  0  0  0
  145.3616  135.9712  152.0227 N   0  0  0  0  0  0  0  0  0  0  0  0
  144.8558  134.5611  152.2456 C   0  0  1  0  0  0  0  0  0  0  0  0
  144.1854  134.1344  151.0967 O   0  0  0  0  0  0  0  0  0  0  0  0
  144.5118  132.7741  150.8393 C   0  0  1  0  0  0  0  0  0  0  0  0
  144.2166  132.4041  149.3748 C   0  0  0  0  0  0  0  0  0  0  0  0
  142.8274  132.4522  149.1272 O   0  0  0  0  0  0  0  0  0  0  0  0
  145.9672  132.6447  151.3134 C   0  0  1  0  0  0  0  0  0  0  0  0
  146.8734  133.0701  150.3095 O   0  0  0  0  0  0  0  0  0  0  0  0
  145.9833  133.5481  152.5439 C   0  0  1  0  0  0  0  0  0  0  0  0
  147.2579  134.1037  152.8222 O   0  0  0  0  0  0  0  0  0  0  0  0
  145.2218  136.9262  153.0598 C   0  0  0  0  0  0  0  0  0  0  0  0
  144.7055  136.6586  154.1445 O   0  0  0  0  0  0  0  0  0  0  0  0
  145.7009  138.1583  152.7835 N   0  0  0  0  0  0  0  0  0  0  0  0
  144.1250  134.6157  153.0534 H   0  0  0  0  0  0  0  0  0  0  0  0
  143.8790  132.1696  151.4922 H   0  0  0  0  0  0  0  0  0  0  0  0
  146.2134  131.6141  151.5715 H   0  0  0  0  0  0  0  0  0  0  0  0
  145.6670  132.9677  153.4116 H   0  0  0  0  0  0  0  0  0  0  0  0
  146.4914  140.2109  152.3595 H   0  0  0  0  0  0  0  0  0  0  0  0
  146.0854  135.5466  150.0371 H   0  0  0  0  0  0  0  0  0  0  0  0
  144.7084  133.1124  148.7076 H   0  0  0  0  0  0  0  0  0  0  0  0
  144.6020  131.4155  149.1244 H   0  0  0  0  0  0  0  0  0  0  0  0
  142.4462  131.6294  149.3936 H   0  0  0  0  0  0  0  0  0  0  0  0
  147.5155  132.3890  150.1795 H   0  0  0  0  0  0  0  0  0  0  0  0
  147.4626  134.7357  152.1503 H   0  0  0  0  0  0  0  0  0  0  0  0
  145.6180  138.8649  153.4998 H   0  0  0  0  0  0  0  0  0  0  0  0
  1  2  2  0  0  0  0
  1 22  1  0  0  0  0
  2 17  1  0  0  0  0
  2  3  1  0  0  0  0
  3  4  2  0  0  0  0
  4  5  1  0  0  0  0
  4 23  1  0  0  0  0
  5  6  1  0  0  0  0
  5 15  1  0  0  0  0
  6 18  1  0  0  0  0
  6 13  1  0  0  0  0
  6  7  1  0  0  0  0
  7  8  1  0  0  0  0
  8 19  1  0  0  0  0
  8  9  1  0  0  0  0
  8 11  1  0  0  0  0
  9 10  1  0  0  0  0
  9 24  1  0  0  0  0
  9 25  1  0  0  0  0
 10 26  1  0  0  0  0
 11 20  1  0  0  0  0
 11 12  1  0  0  0  0
 11 13  1  0  0  0  0
 12 27  1  0  0  0  0
 13 21  1  0  0  0  0
 13 14  1  0  0  0  0
 14 28  1  0  0  0  0
 15 16  2  0  0  0  0
 15 17  1  0  0  0  0
 17 29  1  0  0  0  0
M  END
> <s_m_source_file>
AV-unprocessed.smi

> <i_m_source_file_index>
72

> <i_lp_mmshare_version>
43012

> <i_f3d_flags>
0

> <s_epik_input>
W05IMl1jMW5bY0hdbihjKD1PKW4xKVtDQEBIXTJPW0NASF0oW0NIMl1bT0hdKVtDQEBIXShbT0hdKVtDQEhdMltPSF0=

> <s_epik_cmdline>
J2VwaWtfcHl0aG9uJywgJy1waCcsICc3LjAnLCAnLXRuJywgJzgnLCAnLW1hJywgJzIwMCcsICctbWV0YWxfYmluZGluZycsICctaW1hZScsICc8aW5maWxlLm1hZT4nLCAnLW9tYWUnLCAnPG91dGZpbGUubWFlPic=

> <r_lp_tautomer_probability>
7.17554e-07

> <r_epik_Ionization_Penalty>
0.0066451

> <r_epik_Ionization_Penalty_Charging>
0.00663793

> <r_epik_Ionization_Penalty_Neutral>
7.17052e-06

> <r_epik_State_Penalty>
0.419231

> <r_epik_Charging_Adjusted_Penalty>
0.425868

> <i_epik_Tot_Q>
0

> <i_epik_Tot_abs_Q>
0

> <r_epik_Metal_State_Penalty>
1.44144

> <b_epik_Metal_Only>
0

> <s_epik_Chemistry_Notes>
This compound contains an acetal/aminal-like group ( X-CH(R)-Y where X, Y are N, S, or O) that may be acid/base labile, releasing an aldehyde.

> <s_lp_Force_Field>
OPLS_2005

> <r_lp_Energy>
48.5612

> <b_lp_Chiralities_Consistent>
1

> <s_lp_Variant>
AV-unprocessed.smi:72-20

> <Gold.Version>
5.8.1

> <Gold.Id.Protein>
6NUR|6NUR_protein|mol2

> <Gold.PLP.Fitness>
39.2089

> <Gold.PLP.PLP>
-26.5761

> <Gold.PLP.part.hbond>
-7.1986

> <Gold.PLP.part.metal>
0.0000

> <Gold.PLP.part.buried>
-4.1686

> <Gold.PLP.part.nonpolar>
-17.9970

> <Gold.PLP.part.repulsive>
2.6302

> <Gold.PLP.ligand.clash>
0.0000

> <Gold.PLP.ligand.torsion>
0.4476

> <Gold.PLP.Chemscore.Hbond>
3.5088

> <Gold.PLP.Chemscore.CHOScore>
1.0000

> <Gold.PLP.Chemscore.Metal>
0.0000

> <Gold.Chemscore.Hbonds>
donor molecule, donor type, donor heavy atom, donor atom, acceptor molecule, acceptor atom, score
      L1  H    10    26       P1 10952  0.89
      L1  H    12    27       P1 10747  0.81
      L1  H    14    28       P1  7948  0.63
      P1  H  7954  7966       L1     3  0.96
      L1  C     4    23       P1  7921  1.00

> <Gold.PLP.Chemscore.Internal.Correction>
0.0016

> <Gold.Rescore>
     Score         DG    S(hbond)    S(metal)    S(lipo)     H(rot)  DE(clash)    DE(int)     intcor
      5.08      -7.24       2.61        0.00      29.29       4.06       1.57       0.59       ----

> <Gold.Chemscore.Fitness>
5.0812

> <Gold.Chemscore.DG>
-7.2423

> <Gold.Chemscore.ZeroCoef>
-5.4800

> <Gold.Chemscore.Hbond>
2.6135

> <Gold.Chemscore.Metal>
0.0000

> <Gold.Chemscore.Lipo>
29.2878

> <Gold.Chemscore.Internal_Hbond>
0.0000

> <Gold.Chemscore.DEClash>
1.5691

> <Gold.Chemscore.DEInternal>
0.5920

> <Gold.Chemscore.Rot>
4.0600

> <Gold.Chemscore.Internal.Correction>
   9.000000E+99

> <Gold.Chemscore.Hbonds>
donor molecule, donor type, donor heavy atom, donor atom, acceptor molecule, acceptor atom, score
      L1  H    10    26       P1 10952  0.82
      L1  H    12    27       P1 10747  0.80
      L1  H    14    28       P1  7948  0.50
      P1  H  7954  7966       L1     3  0.41

> <Gold.Chemscore.Hbond.Weighted>
-8.7292

> <Gold.Chemscore.Metal.Weighted>
-0.0000

> <Gold.Chemscore.Lipo.Weighted>
-3.4267

> <Gold.Chemscore.Internal_Hbond.Weighted>
0.0000

> <Gold.Chemscore.DEClash.Weighted>
1.5691

> <Gold.Chemscore.DEInternal.Weighted>
0.5920

> <Gold.Chemscore.Rot.Weighted>
10.3936

> <Gold.Chemscore.Internal.Correction.Weighted>
   9.000000E+99

> <Gold.Protein.RotatedTorsions>
[ 6907 6896 6895 6894 ] final  150.71 input  -60.11 | X-H torsion
[ 7974 7965 7964 7962 ] final  -20.94 input  175.53 | X-H torsion
[ 8008 7997 7996 7995 ] final  -31.65 input   59.86 | X-H torsion
[ 10167 10162 10161 10158 ] final   48.44 input  -65.29 | X-H torsion
[ 10718 10713 10712 10709 ] final -167.10 input   66.30 | X-H torsion
[ 10763 10752 10751 10750 ] final  -45.42 input  -60.55 | X-H torsion
[ 11005 11000 10999 10996 ] final  -43.74 input  -57.11 | X-H torsion

> <Gold.Protein.ActiveResidues>
 VAL166  LYS551  ARG553  GLY616  TRP617  ASP618  TYR619  PRO620  LYS621  CYS622 
 ASP623  PHE694  ASN695  SER759  ASP760  ASP761  ALA762  ILE779  LEU786  VAL792 
 PHE793  MET794  SER795  GLU796  ALA797  LYS798  CYS799  TRP800  GLU811  SER814 

> <Gold.Protein.RotatedAtoms>
  152.1107  133.4299  159.4629 H   0  0  0  0  0  0  0  0  0  0  0  0  # atno 6907 bound_to 6896
  150.6867  134.2651  159.4574 H   0  0  0  0  0  0  0  0  0  0  0  0  # atno 6908 bound_to 6896
  152.0520  134.9647  160.0625 H   0  0  0  0  0  0  0  0  0  0  0  0  # atno 6909 bound_to 6896
  146.1760  140.4272  142.8513 H   0  0  0  0  0  0  0  0  0  0  0  0  # atno 7974 bound_to 7965
  154.4206  140.1759  156.1600 H   0  0  0  0  0  0  0  0  0  0  0  0  # atno 8008 bound_to 7997
  155.9846  140.3374  155.6670 H   0  0  0  0  0  0  0  0  0  0  0  0  # atno 8009 bound_to 7997
  155.6455  140.0684  157.2595 H   0  0  0  0  0  0  0  0  0  0  0  0  # atno 8010 bound_to 7997
  140.2933  144.3020  150.6235 H   0  0  0  0  0  0  0  0  0  0  0  0  # atno 10167 bound_to 10162
  156.6775  130.9109  151.3052 H   0  0  0  0  0  0  0  0  0  0  0  0  # atno 10718 bound_to 10713
  154.0282  135.6660  153.4778 H   0  0  0  0  0  0  0  0  0  0  0  0  # atno 10763 bound_to 10752
  153.0551  135.5061  154.7958 H   0  0  0  0  0  0  0  0  0  0  0  0  # atno 10764 bound_to 10752
  154.6895  135.3059  154.9465 H   0  0  0  0  0  0  0  0  0  0  0  0  # atno 10765 bound_to 10752
  141.0404  133.6782  156.2775 H   0  0  0  0  0  0  0  0  0  0  0  0  # atno 11005 bound_to 11000
  144.8238  140.6594  143.6336 LP  0  0  0  0  0  0  0  0  0  0  0  0  # atno 17320 bound_to 7965
  145.4209  139.1564  143.4074 LP  0  0  0  0  0  0  0  0  0  0  0  0  # atno 17321 bound_to 7965
  140.5714  143.2180  151.7593 LP  0  0  0  0  0  0  0  0  0  0  0  0  # atno 17342 bound_to 10162
  139.4932  144.4211  151.9976 LP  0  0  0  0  0  0  0  0  0  0  0  0  # atno 17343 bound_to 10162
  157.7055  130.9380  150.0918 LP  0  0  0  0  0  0  0  0  0  0  0  0  # atno 17370 bound_to 10713
  156.1892  130.3654  149.8932 LP  0  0  0  0  0  0  0  0  0  0  0  0  # atno 17371 bound_to 10713
  140.6245  134.5327  157.5552 LP  0  0  0  0  0  0  0  0  0  0  0  0  # atno 17394 bound_to 11000
  139.9271  134.8034  156.1036 LP  0  0  0  0  0  0  0  0  0  0  0  0  # atno 17395 bound_to 11000

$$$$
