AV-unprocessed.smi:672|AV-procd|sdf|3296|dock8
  -GOLD-   22720 0253D 1   1.00000     0.00000
 Structure written by MMmdl.
 35 36  0  0  0  0  0  0  0  0  2 V2000
  149.9111  141.5355  157.3217 C   0  0  0  0  0  0  0  0  0  0  0  0
  151.2748  141.1800  156.7196 C   0  0  0  0  0  0  0  0  0  0  0  0
  151.2222  139.9587  155.8640 C   0  0  0  0  0  0  0  0  0  0  0  0
  150.5533  139.9110  154.7089 N   0  0  0  0  0  0  0  0  0  0  0  0
  150.6286  138.6610  154.1122 N   0  0  0  0  0  0  0  0  0  0  0  0
  151.3303  137.7757  154.8342 C   0  0  0  0  0  0  0  0  0  0  0  0
  151.5203  136.5076  154.4347 N   0  5  0  0  0  0  0  0  0  0  0  0
  150.8220  135.5059  155.0161 C   0  0  0  0  0  0  0  0  0  0  0  0
  151.1099  134.9281  156.0669 O   0  0  0  0  0  0  0  0  0  0  0  0
  149.7260  135.1449  154.3334 N   0  0  0  0  0  0  0  0  0  0  0  0
  148.7888  134.0889  154.7112 C   0  0  1  0  0  0  0  0  0  0  0  0
  147.6950  133.9206  153.6383 C   0  0  0  0  0  0  0  0  0  0  0  0
  147.6614  132.4299  153.2919 C   0  0  0  0  0  0  0  0  0  0  0  0
  149.0819  131.9435  153.5673 C   0  0  2  0  0  0  0  0  0  0  0  0
  149.1757  130.1422  153.7771 S   0  0  0  0  0  0  0  0  0  0  0  0
  150.9157  129.9662  154.2536 C   0  0  0  0  0  0  0  0  0  0  0  0
  149.4906  132.7206  154.8206 C   0  0  0  0  0  0  0  0  0  0  0  0
  151.9826  138.4462  156.3289 S   0  0  0  0  0  0  0  0  0  0  0  0
  149.9813  142.4281  157.9433 H   0  0  0  0  0  0  0  0  0  0  0  0
  149.5342  140.7239  157.9447 H   0  0  0  0  0  0  0  0  0  0  0  0
  149.1743  141.7284  156.5414 H   0  0  0  0  0  0  0  0  0  0  0  0
  151.6473  142.0133  156.1229 H   0  0  0  0  0  0  0  0  0  0  0  0
  152.0010  141.0171  157.5164 H   0  0  0  0  0  0  0  0  0  0  0  0
  149.5287  135.6454  153.4793 H   0  0  0  0  0  0  0  0  0  0  0  0
  148.3277  134.3426  155.6677 H   0  0  0  0  0  0  0  0  0  0  0  0
  146.7241  134.2767  153.9838 H   0  0  0  0  0  0  0  0  0  0  0  0
  147.9431  134.4898  152.7408 H   0  0  0  0  0  0  0  0  0  0  0  0
  146.9582  131.9196  153.9519 H   0  0  0  0  0  0  0  0  0  0  0  0
  147.3463  132.2463  152.2643 H   0  0  0  0  0  0  0  0  0  0  0  0
  149.7229  132.2375  152.7348 H   0  0  0  0  0  0  0  0  0  0  0  0
  151.1624  128.9131  154.3881 H   0  0  0  0  0  0  0  0  0  0  0  0
  151.1128  130.4870  155.1906 H   0  0  0  0  0  0  0  0  0  0  0  0
  151.5662  130.3780  153.4819 H   0  0  0  0  0  0  0  0  0  0  0  0
  150.5741  132.7956  154.9223 H   0  0  0  0  0  0  0  0  0  0  0  0
  149.1221  132.2051  155.7085 H   0  0  0  0  0  0  0  0  0  0  0  0
  1  2  1  0  0  0  0
  1 19  1  0  0  0  0
  1 20  1  0  0  0  0
  1 21  1  0  0  0  0
  2  3  1  0  0  0  0
  2 22  1  0  0  0  0
  2 23  1  0  0  0  0
  3 18  1  0  0  0  0
  3  4  2  0  0  0  0
  4  5  1  0  0  0  0
  5  6  2  0  0  0  0
  6  7  1  0  0  0  0
  6 18  1  0  0  0  0
  7  8  1  0  0  0  0
  8  9  2  0  0  0  0
  8 10  1  0  0  0  0
 10 11  1  0  0  0  0
 10 24  1  0  0  0  0
 11 17  1  0  0  0  0
 11 12  1  0  0  0  0
 11 25  1  0  0  0  0
 12 13  1  0  0  0  0
 12 26  1  0  0  0  0
 12 27  1  0  0  0  0
 13 14  1  0  0  0  0
 13 28  1  0  0  0  0
 13 29  1  0  0  0  0
 14 15  1  0  0  0  0
 14 17  1  0  0  0  0
 14 30  1  0  0  0  0
 15 16  1  0  0  0  0
 16 31  1  0  0  0  0
 16 32  1  0  0  0  0
 16 33  1  0  0  0  0
 17 34  1  0  0  0  0
 17 35  1  0  0  0  0
M  CHG  1   7  -1
M  END
> <s_m_source_file>
AV-unprocessed.smi

> <i_m_source_file_index>
672

> <i_lp_mmshare_version>
43012

> <i_f3d_flags>
0

> <s_epik_input>
W0NIM11bQ0gyXWMxbm5jKHMxKVtOSF1DKD1PKVtOSF1bQ0BASF0yW0NIMl1bQ0gyXVtDQEhdKFtDSDJdMilTW0NIM10=

> <s_epik_cmdline>
J2VwaWtfcHl0aG9uJywgJy1waCcsICc3LjAnLCAnLXRuJywgJzgnLCAnLW1hJywgJzIwMCcsICctbWV0YWxfYmluZGluZycsICctaW1hZScsICc8aW5maWxlLm1hZT4nLCAnLW9tYWUnLCAnPG91dGZpbGUubWFlPic=

> <r_lp_tautomer_probability>
1

> <r_epik_Ionization_Penalty>
4.49964

> <r_epik_Ionization_Penalty_Charging>
4.32991

> <r_epik_Ionization_Penalty_Neutral>
0.169727

> <r_epik_State_Penalty>
4.32952

> <r_epik_Charging_Adjusted_Penalty>
8.65943

> <i_epik_Tot_Q>
-1

> <i_epik_Tot_abs_Q>
1

> <r_epik_Metal_State_Penalty>
0.740482

> <b_epik_Metal_Only>
1

> <s_lp_Force_Field>
OPLS_2005

> <r_lp_Energy>
9.75318

> <b_lp_Chiralities_Consistent>
1

> <s_lp_Variant>
AV-unprocessed.smi:672-8

> <Gold.Version>
5.8.1

> <Gold.Id.Protein>
6NUR|6NUR_protein|mol2

> <Gold.PLP.Fitness>
39.0045

> <Gold.PLP.PLP>
-30.1888

> <Gold.PLP.part.hbond>
-3.0000

> <Gold.PLP.part.metal>
0.0000

> <Gold.PLP.part.buried>
-3.9457

> <Gold.PLP.part.nonpolar>
-24.8450

> <Gold.PLP.part.repulsive>
0.7852

> <Gold.PLP.ligand.clash>
0.0000

> <Gold.PLP.ligand.torsion>
1.5276

> <Gold.PLP.Chemscore.Hbond>
3.9500

> <Gold.PLP.Chemscore.CHOScore>
0.0000

> <Gold.PLP.Chemscore.Metal>
0.0000

> <Gold.Chemscore.Hbonds>
donor molecule, donor type, donor heavy atom, donor atom, acceptor molecule, acceptor atom, score
      L1  H    10    24       P1  7948  0.90
      P1  H  7989  7998       L1     4  0.95
      P1  H 10752 10764       L1     7  1.40

> <Gold.PLP.Chemscore.Internal.Correction>
0.0210

> <Gold.Rescore>
     Score         DG    S(hbond)    S(metal)    S(lipo)     H(rot)  DE(clash)    DE(int)     intcor
     12.21     -14.67       1.99        0.00      50.96       1.34       0.00       2.46       ----

> <Gold.Chemscore.Fitness>
12.2087

> <Gold.Chemscore.DG>
-14.6680

> <Gold.Chemscore.ZeroCoef>
-5.4800

> <Gold.Chemscore.Hbond>
1.9935

> <Gold.Chemscore.Metal>
0.0000

> <Gold.Chemscore.Lipo>
50.9627

> <Gold.Chemscore.Internal_Hbond>
0.0000

> <Gold.Chemscore.DEClash>
0.0000

> <Gold.Chemscore.DEInternal>
2.4593

> <Gold.Chemscore.Rot>
1.3410

> <Gold.Chemscore.Internal.Correction>
   9.000000E+99

> <Gold.Chemscore.Hbonds>
donor molecule, donor type, donor heavy atom, donor atom, acceptor molecule, acceptor atom, score
      L1  H    10    24       P1  7948  0.18
      P1  H  7989  7998       L1     4  0.11
      P1  H 10752 10764       L1     7  0.07

> <Gold.Chemscore.Hbond.Weighted>
-6.6583

> <Gold.Chemscore.Metal.Weighted>
-0.0000

> <Gold.Chemscore.Lipo.Weighted>
-5.9626

> <Gold.Chemscore.Internal_Hbond.Weighted>
0.0000

> <Gold.Chemscore.DEClash.Weighted>
0.0000

> <Gold.Chemscore.DEInternal.Weighted>
2.4593

> <Gold.Chemscore.Rot.Weighted>
3.4329

> <Gold.Chemscore.Internal.Correction.Weighted>
   9.000000E+99

> <Gold.Protein.RotatedTorsions>
[ 6907 6896 6895 6894 ] final  -56.85 input  -60.11 | X-H torsion
[ 7974 7965 7964 7962 ] final  106.50 input  175.53 | X-H torsion
[ 8008 7997 7996 7995 ] final    0.73 input   59.86 | X-H torsion
[ 10167 10162 10161 10158 ] final   27.71 input  -65.29 | X-H torsion
[ 10718 10713 10712 10709 ] final  -26.24 input   66.30 | X-H torsion
[ 10763 10752 10751 10750 ] final  -73.62 input  -60.55 | X-H torsion
[ 11005 11000 10999 10996 ] final   30.09 input  -57.11 | X-H torsion

> <Gold.Protein.ActiveResidues>
 VAL166  LYS551  ARG553  GLY616  TRP617  ASP618  TYR619  PRO620  LYS621  CYS622 
 ASP623  PHE694  ASN695  SER759  ASP760  ASP761  ALA762  ILE779  LEU786  VAL792 
 PHE793  MET794  SER795  GLU796  ALA797  LYS798  CYS799  TRP800  GLU811  SER814 

> <Gold.Protein.RotatedAtoms>
  150.8133  134.7301  159.6707 H   0  0  0  0  0  0  0  0  0  0  0  0  # atno 6907 bound_to 6896
  152.4253  134.5877  159.9975 H   0  0  0  0  0  0  0  0  0  0  0  0  # atno 6908 bound_to 6896
  151.6080  133.3312  159.3097 H   0  0  0  0  0  0  0  0  0  0  0  0  # atno 6909 bound_to 6896
  145.3058  139.2555  143.3789 H   0  0  0  0  0  0  0  0  0  0  0  0  # atno 7974 bound_to 7965
  154.6715  140.2613  155.7002 H   0  0  0  0  0  0  0  0  0  0  0  0  # atno 8008 bound_to 7997
  156.2661  140.2828  156.1148 H   0  0  0  0  0  0  0  0  0  0  0  0  # atno 8009 bound_to 7997
  155.1161  140.0376  157.2727 H   0  0  0  0  0  0  0  0  0  0  0  0  # atno 8010 bound_to 7997
  140.4915  144.0460  150.6299 H   0  0  0  0  0  0  0  0  0  0  0  0  # atno 10167 bound_to 10162
  156.4538  130.4489  149.6973 H   0  0  0  0  0  0  0  0  0  0  0  0  # atno 10718 bound_to 10713
  154.4619  135.5891  153.6262 H   0  0  0  0  0  0  0  0  0  0  0  0  # atno 10763 bound_to 10752
  152.9824  135.6046  154.3475 H   0  0  0  0  0  0  0  0  0  0  0  0  # atno 10764 bound_to 10752
  154.3348  135.2842  155.2432 H   0  0  0  0  0  0  0  0  0  0  0  0  # atno 10765 bound_to 10752
  140.2981  134.2788  155.7760 H   0  0  0  0  0  0  0  0  0  0  0  0  # atno 11005 bound_to 11000
  146.3136  140.3582  142.8662 LP  0  0  0  0  0  0  0  0  0  0  0  0  # atno 17320 bound_to 7965
  144.9056  140.7696  143.5839 LP  0  0  0  0  0  0  0  0  0  0  0  0  # atno 17321 bound_to 7965
  140.3730  143.2844  152.0256 LP  0  0  0  0  0  0  0  0  0  0  0  0  # atno 17342 bound_to 10162
  139.4852  144.6215  151.7246 LP  0  0  0  0  0  0  0  0  0  0  0  0  # atno 17343 bound_to 10162
  156.3788  130.7568  151.2559 LP  0  0  0  0  0  0  0  0  0  0  0  0  # atno 17370 bound_to 10713
  157.7501  131.0301  150.4124 LP  0  0  0  0  0  0  0  0  0  0  0  0  # atno 17371 bound_to 10713
  141.2133  133.7628  156.9725 LP  0  0  0  0  0  0  0  0  0  0  0  0  # atno 17394 bound_to 11000
  140.1134  134.9462  157.2099 LP  0  0  0  0  0  0  0  0  0  0  0  0  # atno 17395 bound_to 11000

$$$$
