AV-unprocessed.smi:880|AV-procd|sdf|4034|dock5
  -GOLD-   22720 1523D 1   1.00000     0.00000
 Structure written by MMmdl.
 32 33  0  0  0  0  0  0  0  0  1 V2000
  150.7717  143.3183  158.2945 C   0  0  0  0  0  0  0  0  0  0  0  0
  151.7953  144.1950  159.0330 C   0  0  0  0  0  0  0  0  0  0  0  0
  152.8600  144.7407  158.0702 C   0  0  0  0  0  0  0  0  0  0  0  0
  152.4416  143.4634  160.1836 C   0  0  0  0  0  0  0  0  0  0  0  0
  152.3378  143.7210  161.5824 C   0  0  0  0  0  0  0  0  0  0  0  0
  153.1016  142.7472  162.1584 C   0  0  0  0  0  0  0  0  0  0  0  0
  153.6130  141.9731  161.1395 N   0  0  0  0  0  0  0  0  0  0  0  0
  154.4680  140.8030  161.2360 C   0  0  0  0  0  0  0  0  0  0  0  0
  154.3528  139.9250  159.9881 C   0  0  0  0  0  0  0  0  0  0  0  0
  155.3351  139.7503  159.2673 O   0  0  0  0  0  0  0  0  0  0  0  0
  153.1483  139.3858  159.7466 N   0  0  0  0  0  0  0  0  0  0  0  0
  152.8241  138.5277  158.6544 C   0  0  0  0  0  0  0  0  0  0  0  0
  151.8161  139.0295  157.6433 C   0  0  0  0  0  0  0  0  0  0  0  0
  151.4269  137.9470  158.6118 C   0  0  0  0  0  0  0  0  0  0  0  0
  153.2088  142.4132  159.9284 N   0  0  0  0  0  0  0  0  0  0  0  0
  149.9976  142.9613  158.9744 H   0  0  0  0  0  0  0  0  0  0  0  0
  151.2438  142.4484  157.8369 H   0  0  0  0  0  0  0  0  0  0  0  0
  150.2776  143.8797  157.5011 H   0  0  0  0  0  0  0  0  0  0  0  0
  151.2491  145.0515  159.4314 H   0  0  0  0  0  0  0  0  0  0  0  0
  153.5455  145.4166  158.5827 H   0  0  0  0  0  0  0  0  0  0  0  0
  152.4022  145.2960  157.2511 H   0  0  0  0  0  0  0  0  0  0  0  0
  153.4516  143.9342  157.6361 H   0  0  0  0  0  0  0  0  0  0  0  0
  151.7831  144.4979  162.0874 H   0  0  0  0  0  0  0  0  0  0  0  0
  153.3165  142.5389  163.1962 H   0  0  0  0  0  0  0  0  0  0  0  0
  155.5037  141.1172  161.3749 H   0  0  0  0  0  0  0  0  0  0  0  0
  154.1829  140.2341  162.1220 H   0  0  0  0  0  0  0  0  0  0  0  0
  152.4058  139.5882  160.4007 H   0  0  0  0  0  0  0  0  0  0  0  0
  153.6177  137.8917  158.2647 H   0  0  0  0  0  0  0  0  0  0  0  0
  151.3889  140.0186  157.7976 H   0  0  0  0  0  0  0  0  0  0  0  0
  151.9642  138.7441  156.6039 H   0  0  0  0  0  0  0  0  0  0  0  0
  151.3140  136.9385  158.2186 H   0  0  0  0  0  0  0  0  0  0  0  0
  150.7409  138.2128  159.4139 H   0  0  0  0  0  0  0  0  0  0  0  0
  1  2  1  0  0  0  0
  1 16  1  0  0  0  0
  1 17  1  0  0  0  0
  1 18  1  0  0  0  0
  2  3  1  0  0  0  0
  2  4  1  0  0  0  0
  2 19  1  0  0  0  0
  3 20  1  0  0  0  0
  3 21  1  0  0  0  0
  3 22  1  0  0  0  0
  4 15  2  0  0  0  0
  4  5  1  0  0  0  0
  5  6  2  0  0  0  0
  5 23  1  0  0  0  0
  6  7  1  0  0  0  0
  6 24  1  0  0  0  0
  7  8  1  0  0  0  0
  7 15  1  0  0  0  0
  8  9  1  0  0  0  0
  8 25  1  0  0  0  0
  8 26  1  0  0  0  0
  9 10  2  0  0  0  0
  9 11  1  0  0  0  0
 11 12  1  0  0  0  0
 11 27  1  0  0  0  0
 12 14  1  0  0  0  0
 12 13  1  0  0  0  0
 12 28  1  0  0  0  0
 13 14  1  0  0  0  0
 13 29  1  0  0  0  0
 13 30  1  0  0  0  0
 14 31  1  0  0  0  0
 14 32  1  0  0  0  0
M  END
> <s_m_source_file>
AV-unprocessed.smi

> <i_m_source_file_index>
880

> <i_lp_mmshare_version>
43012

> <i_f3d_flags>
0

> <s_epik_input>
W0NIM11bQ0hdKFtDSDNdKWMxW2NIXVtjSF1uKG4xKVtDSDJdQyg9TylbTkhdW0NIXTJbQ0gyXVtDSDJdMg==

> <s_epik_cmdline>
J2VwaWtfcHl0aG9uJywgJy1waCcsICc3LjAnLCAnLXRuJywgJzgnLCAnLW1hJywgJzIwMCcsICctbWV0YWxfYmluZGluZycsICctaW1hZScsICc8aW5maWxlLm1hZT4nLCAnLW9tYWUnLCAnPG91dGZpbGUubWFlPic=

> <r_lp_tautomer_probability>
1

> <r_epik_Ionization_Penalty>
5.52855e-05

> <r_epik_Ionization_Penalty_Charging>
0

> <r_epik_Ionization_Penalty_Neutral>
5.52855e-05

> <r_epik_State_Penalty>
-0

> <r_epik_Charging_Adjusted_Penalty>
0

> <i_epik_Tot_Q>
0

> <i_epik_Tot_abs_Q>
0

> <r_epik_Metal_State_Penalty>
-0

> <b_epik_Metal_Only>
0

> <s_lp_Force_Field>
OPLS_2005

> <r_lp_Energy>
12.9381

> <b_lp_Chiralities_Consistent>
1

> <s_lp_Variant>
AV-unprocessed.smi:880-1

> <Gold.Version>
5.8.1

> <Gold.Id.Protein>
6NUR|6NUR_protein|mol2

> <Gold.PLP.Fitness>
40.9489

> <Gold.PLP.PLP>
-38.6520

> <Gold.PLP.part.hbond>
-1.0000

> <Gold.PLP.part.metal>
0.0000

> <Gold.PLP.part.buried>
-5.2561

> <Gold.PLP.part.nonpolar>
-31.7730

> <Gold.PLP.part.repulsive>
0.0856

> <Gold.PLP.ligand.clash>
0.0000

> <Gold.PLP.ligand.torsion>
0.3833

> <Gold.PLP.Chemscore.Hbond>
1.0000

> <Gold.PLP.Chemscore.CHOScore>
0.0000

> <Gold.PLP.Chemscore.Metal>
0.0000

> <Gold.Chemscore.Hbonds>
donor molecule, donor type, donor heavy atom, donor atom, acceptor molecule, acceptor atom, score
      P1  H  7997  8010       L1    10  1.00

> <Gold.PLP.Chemscore.Internal.Correction>
0.0636

> <Gold.Rescore>
     Score         DG    S(hbond)    S(metal)    S(lipo)     H(rot)  DE(clash)    DE(int)     intcor
     15.85     -16.42       1.00        0.00      97.89       1.50       0.05       0.52       ----

> <Gold.Chemscore.Fitness>
15.8539

> <Gold.Chemscore.DG>
-16.4171

> <Gold.Chemscore.ZeroCoef>
-5.4800

> <Gold.Chemscore.Hbond>
0.9974

> <Gold.Chemscore.Metal>
0.0000

> <Gold.Chemscore.Lipo>
97.8857

> <Gold.Chemscore.Internal_Hbond>
0.0000

> <Gold.Chemscore.DEClash>
0.0466

> <Gold.Chemscore.DEInternal>
0.5166

> <Gold.Chemscore.Rot>
1.5026

> <Gold.Chemscore.Internal.Correction>
   9.000000E+99

> <Gold.Chemscore.Hbonds>
donor molecule, donor type, donor heavy atom, donor atom, acceptor molecule, acceptor atom, score
      P1  H  7997  8010       L1    10  0.99

> <Gold.Chemscore.Hbond.Weighted>
-3.3313

> <Gold.Chemscore.Metal.Weighted>
-0.0000

> <Gold.Chemscore.Lipo.Weighted>
-11.4526

> <Gold.Chemscore.Internal_Hbond.Weighted>
0.0000

> <Gold.Chemscore.DEClash.Weighted>
0.0466

> <Gold.Chemscore.DEInternal.Weighted>
0.5166

> <Gold.Chemscore.Rot.Weighted>
3.8468

> <Gold.Chemscore.Internal.Correction.Weighted>
   9.000000E+99

> <Gold.Protein.RotatedTorsions>
[ 6907 6896 6895 6894 ] final -103.43 input  -60.11 | X-H torsion
[ 7974 7965 7964 7962 ] final -138.09 input  175.53 | X-H torsion
[ 8008 7997 7996 7995 ] final  -13.73 input   59.86 | X-H torsion
[ 10167 10162 10161 10158 ] final   77.78 input  -65.29 | X-H torsion
[ 10718 10713 10712 10709 ] final   16.83 input   66.30 | X-H torsion
[ 10763 10752 10751 10750 ] final  -24.28 input  -60.55 | X-H torsion
[ 11005 11000 10999 10996 ] final   63.13 input  -57.11 | X-H torsion

> <Gold.Protein.ActiveResidues>
 VAL166  LYS551  ARG553  GLY616  TRP617  ASP618  TYR619  PRO620  LYS621  CYS622 
 ASP623  PHE694  ASN695  SER759  ASP760  ASP761  ALA762  ILE779  LEU786  VAL792 
 PHE793  MET794  SER795  GLU796  ALA797  LYS798  CYS799  TRP800  GLU811  SER814 

> <Gold.Protein.RotatedAtoms>
  150.7240  134.0430  159.3771 H   0  0  0  0  0  0  0  0  0  0  0  0  # atno 6907 bound_to 6896
  151.8404  135.0590  160.0456 H   0  0  0  0  0  0  0  0  0  0  0  0  # atno 6908 bound_to 6896
  152.2867  133.5486  159.5568 H   0  0  0  0  0  0  0  0  0  0  0  0  # atno 6909 bound_to 6896
  144.8788  140.6476  143.5219 H   0  0  0  0  0  0  0  0  0  0  0  0  # atno 7974 bound_to 7965
  154.5268  140.2242  155.8876 H   0  0  0  0  0  0  0  0  0  0  0  0  # atno 8008 bound_to 7997
  156.1721  140.3119  155.8958 H   0  0  0  0  0  0  0  0  0  0  0  0  # atno 8009 bound_to 7997
  155.3535  140.0457  157.3037 H   0  0  0  0  0  0  0  0  0  0  0  0  # atno 8010 bound_to 7997
  139.9780  144.5847  150.7926 H   0  0  0  0  0  0  0  0  0  0  0  0  # atno 10167 bound_to 10162
  157.0734  130.6358  149.5810 H   0  0  0  0  0  0  0  0  0  0  0  0  # atno 10718 bound_to 10713
  153.6813  135.6966  153.5117 H   0  0  0  0  0  0  0  0  0  0  0  0  # atno 10763 bound_to 10752
  153.2482  135.4283  155.0769 H   0  0  0  0  0  0  0  0  0  0  0  0  # atno 10764 bound_to 10752
  154.8399  135.3525  154.6356 H   0  0  0  0  0  0  0  0  0  0  0  0  # atno 10765 bound_to 10752
  140.0045  134.6390  155.9877 H   0  0  0  0  0  0  0  0  0  0  0  0  # atno 11005 bound_to 11000
  145.3993  139.1601  143.4186 LP  0  0  0  0  0  0  0  0  0  0  0  0  # atno 17320 bound_to 7965
  146.2980  140.4089  142.8714 LP  0  0  0  0  0  0  0  0  0  0  0  0  # atno 17321 bound_to 7965
  140.7499  143.2946  151.3238 LP  0  0  0  0  0  0  0  0  0  0  0  0  # atno 17342 bound_to 10162
  139.6431  144.0501  152.2570 LP  0  0  0  0  0  0  0  0  0  0  0  0  # atno 17343 bound_to 10162
  155.9944  130.5007  150.7417 LP  0  0  0  0  0  0  0  0  0  0  0  0  # atno 17370 bound_to 10713
  157.4859  131.0906  151.0483 LP  0  0  0  0  0  0  0  0  0  0  0  0  # atno 17371 bound_to 10713
  141.1667  133.6537  156.4504 LP  0  0  0  0  0  0  0  0  0  0  0  0  # atno 17394 bound_to 11000
  140.4666  134.6792  157.5110 LP  0  0  0  0  0  0  0  0  0  0  0  0  # atno 17395 bound_to 11000

$$$$
