AV-unprocessed.smi:79|AV-procd|sdf|778|dock10
  -GOLD-   2262017133D 1   1.00000     0.00000
 Structure written by MMmdl.
 56 59  0  0  0  0  0  0  0  0  2 V2000
  152.5244  144.5015  159.5691 C   0  0  0  0  0  0  0  0  0  0  0  0
  151.2672  144.3261  158.7079 C   0  0  1  0  0  0  0  0  0  0  0  0
  150.7577  145.6090  158.4042 O   0  0  0  0  0  0  0  0  0  0  0  0
  151.5633  143.5769  157.3941 C   0  0  0  0  0  0  0  0  0  0  0  0
  150.4611  142.6609  157.0049 N   0  3  2  0  0  0  0  0  0  0  0  0
  149.6850  142.1437  158.1631 C   0  0  0  0  0  0  0  0  0  0  0  0
  148.4971  141.2865  157.6944 C   0  0  0  0  0  0  0  0  0  0  0  0
  148.9495  140.2270  156.7957 N   0  0  0  0  0  0  0  0  0  0  0  0
  149.2514  139.0486  157.4006 C   0  0  0  0  0  0  0  0  0  0  0  0
  150.5041  138.5300  157.2978 N   0  0  0  0  0  0  0  0  0  0  0  0
  150.8105  137.3801  157.9049 C   0  0  0  0  0  0  0  0  0  0  0  0
  150.0285  136.5963  158.6490 N   0  0  0  0  0  0  0  0  0  0  0  0
  148.7666  137.1037  158.7481 C   0  0  0  0  0  0  0  0  0  0  0  0
  148.3002  138.3150  158.1640 C   0  0  0  0  0  0  0  0  0  0  0  0
  146.9616  138.5082  158.4813 N   0  0  0  0  0  0  0  0  0  0  0  0
  146.6557  137.4738  159.2157 C   0  0  0  0  0  0  0  0  0  0  0  0
  147.6754  136.5697  159.4135 N   0  0  0  0  0  0  0  0  0  0  0  0
  147.6096  135.3355  160.1835 C   0  0  0  0  0  0  0  0  0  0  0  0
  147.3090  135.5369  161.6850 C   0  0  0  0  0  0  0  0  0  0  0  0
  147.2743  134.1846  162.4165 C   0  0  0  0  0  0  0  0  0  0  0  0
  146.3548  133.2990  161.8112 O   0  0  0  0  0  0  0  0  0  0  0  0
  148.1390  136.6329  162.3675 C   0  0  0  0  0  0  0  0  0  0  0  0
  147.0164  137.5366  162.4380 O   0  0  0  0  0  0  0  0  0  0  0  0
  146.1372  136.4765  162.0073 C   0  0  0  0  0  0  0  0  0  0  0  0
  149.7511  140.6688  155.6494 C   0  0  1  0  0  0  0  0  0  0  0  0
  148.8780  141.3703  154.5945 C   0  0  0  0  0  0  0  0  0  0  0  0
  150.9223  141.5659  156.1115 C   0  0  0  0  0  0  0  0  0  0  0  0
  152.9448  143.5347  159.8479 H   0  0  0  0  0  0  0  0  0  0  0  0
  152.2978  145.0377  160.4914 H   0  0  0  0  0  0  0  0  0  0  0  0
  153.2978  145.0595  159.0400 H   0  0  0  0  0  0  0  0  0  0  0  0
  150.5210  143.7935  159.2964 H   0  0  0  0  0  0  0  0  0  0  0  0
  149.8205  145.5468  158.2971 H   0  0  0  0  0  0  0  0  0  0  0  0
  151.7293  144.3134  156.6060 H   0  0  0  0  0  0  0  0  0  0  0  0
  152.4909  143.0081  157.4756 H   0  0  0  0  0  0  0  0  0  0  0  0
  150.3411  141.5500  158.8017 H   0  0  0  0  0  0  0  0  0  0  0  0
  149.3106  142.9644  158.7731 H   0  0  0  0  0  0  0  0  0  0  0  0
  147.9769  140.8839  158.5634 H   0  0  0  0  0  0  0  0  0  0  0  0
  147.7706  141.9078  157.1705 H   0  0  0  0  0  0  0  0  0  0  0  0
  151.8270  137.0383  157.7761 H   0  0  0  0  0  0  0  0  0  0  0  0
  145.6690  137.3452  159.6359 H   0  0  0  0  0  0  0  0  0  0  0  0
  146.8661  134.6829  159.7247 H   0  0  0  0  0  0  0  0  0  0  0  0
  148.5625  134.8195  160.0568 H   0  0  0  0  0  0  0  0  0  0  0  0
  148.2551  133.7088  162.3924 H   0  0  0  0  0  0  0  0  0  0  0  0
  147.0232  134.3007  163.4706 H   0  0  0  0  0  0  0  0  0  0  0  0
  146.2449  132.5483  162.3746 H   0  0  0  0  0  0  0  0  0  0  0  0
  148.5037  136.3615  163.3593 H   0  0  0  0  0  0  0  0  0  0  0  0
  148.9493  137.0233  161.7508 H   0  0  0  0  0  0  0  0  0  0  0  0
  145.5377  136.7683  161.1462 H   0  0  0  0  0  0  0  0  0  0  0  0
  145.4979  136.1266  162.8192 H   0  0  0  0  0  0  0  0  0  0  0  0
  150.1711  139.7927  155.1533 H   0  0  0  0  0  0  0  0  0  0  0  0
  149.4634  141.6225  153.7100 H   0  0  0  0  0  0  0  0  0  0  0  0
  148.4396  142.2944  154.9717 H   0  0  0  0  0  0  0  0  0  0  0  0
  148.0618  140.7232  154.2716 H   0  0  0  0  0  0  0  0  0  0  0  0
  151.4306  141.9825  155.2409 H   0  0  0  0  0  0  0  0  0  0  0  0
  151.6634  140.9692  156.6450 H   0  0  0  0  0  0  0  0  0  0  0  0
  149.8217  143.2143  156.4522 H   0  0  0  0  0  0  0  0  0  0  0  0
  1  2  1  0  0  0  0
  1 28  1  0  0  0  0
  1 29  1  0  0  0  0
  1 30  1  0  0  0  0
  2  3  1  0  0  0  0
  2  4  1  0  0  0  0
  2 31  1  0  0  0  0
  3 32  1  0  0  0  0
  4  5  1  0  0  0  0
  4 33  1  0  0  0  0
  4 34  1  0  0  0  0
  5 27  1  0  0  0  0
  5  6  1  0  0  0  0
  5 56  1  0  0  0  0
  6  7  1  0  0  0  0
  6 35  1  0  0  0  0
  6 36  1  0  0  0  0
  7  8  1  0  0  0  0
  7 37  1  0  0  0  0
  7 38  1  0  0  0  0
  8  9  1  0  0  0  0
  8 25  1  0  0  0  0
  9 14  1  0  0  0  0
  9 10  2  0  0  0  0
 10 11  1  0  0  0  0
 11 12  2  0  0  0  0
 11 39  1  0  0  0  0
 12 13  1  0  0  0  0
 13 17  1  0  0  0  0
 13 14  2  0  0  0  0
 14 15  1  0  0  0  0
 15 16  2  0  0  0  0
 16 17  1  0  0  0  0
 16 40  1  0  0  0  0
 17 18  1  0  0  0  0
 18 19  1  0  0  0  0
 18 41  1  0  0  0  0
 18 42  1  0  0  0  0
 19 24  1  0  0  0  0
 19 20  1  0  0  0  0
 19 22  1  0  0  0  0
 20 21  1  0  0  0  0
 20 43  1  0  0  0  0
 20 44  1  0  0  0  0
 21 45  1  0  0  0  0
 22 23  1  0  0  0  0
 22 46  1  0  0  0  0
 22 47  1  0  0  0  0
 23 24  1  0  0  0  0
 24 48  1  0  0  0  0
 24 49  1  0  0  0  0
 25 26  1  0  0  0  0
 25 27  1  0  0  0  0
 25 50  1  0  0  0  0
 26 51  1  0  0  0  0
 26 52  1  0  0  0  0
 26 53  1  0  0  0  0
 27 54  1  0  0  0  0
 27 55  1  0  0  0  0
M  CHG  1   5   1
M  END
> <s_m_source_file>
AV-unprocessed.smi

> <i_m_source_file_index>
79

> <i_lp_mmshare_version>
43012

> <i_f3d_flags>
0

> <s_epik_input>
W0NIM11bQ0BIXShbT0hdKVtDSDJdTjFbQ0gyXVtDSDJdTihbQ0BASF0oW0NIM10pW0NIMl0xKWMobltjSF1uMiljKGMyMyluW2NIXW4zW0NIMl1DNChbQ0gyXVtPSF0pW0NIMl1PW0NIMl00

> <s_epik_cmdline>
J2VwaWtfcHl0aG9uJywgJy1waCcsICc3LjAnLCAnLXRuJywgJzgnLCAnLW1hJywgJzIwMCcsICctbWV0YWxfYmluZGluZycsICctaW1hZScsICc8aW5maWxlLm1hZT4nLCAnLW9tYWUnLCAnPG91dGZpbGUubWFlPic=

> <r_lp_tautomer_probability>
1

> <r_epik_Ionization_Penalty>
0.00515943

> <r_epik_Ionization_Penalty_Charging>
0.00509693

> <r_epik_Ionization_Penalty_Neutral>
6.25007e-05

> <r_epik_State_Penalty>
-0

> <r_epik_Charging_Adjusted_Penalty>
0.00509693

> <i_epik_Tot_Q>
1

> <i_epik_Tot_abs_Q>
1

> <r_epik_Metal_State_Penalty>
-0

> <b_epik_Metal_Only>
0

> <s_lp_Force_Field>
OPLS_2005

> <r_lp_Energy>
48.7837

> <b_lp_Chiralities_Consistent>
1

> <s_lp_Variant>
AV-unprocessed.smi:79-2

> <Gold.Version>
5.8.1

> <Gold.Id.Protein>
6NUR|6NUR_protein|mol2

> <Gold.PLP.Fitness>
57.6204

> <Gold.PLP.PLP>
-46.1031

> <Gold.PLP.part.hbond>
-6.9510

> <Gold.PLP.part.metal>
0.0000

> <Gold.PLP.part.buried>
-3.3597

> <Gold.PLP.part.nonpolar>
-36.2477

> <Gold.PLP.part.repulsive>
0.0255

> <Gold.PLP.ligand.clash>
0.0000

> <Gold.PLP.ligand.torsion>
1.3605

> <Gold.PLP.Chemscore.Hbond>
4.4329

> <Gold.PLP.Chemscore.CHOScore>
0.0000

> <Gold.PLP.Chemscore.Metal>
0.0000

> <Gold.Chemscore.Hbonds>
donor molecule, donor type, donor heavy atom, donor atom, acceptor molecule, acceptor atom, score
      L1  H     3    32       P1  8029  0.59
      L1  H     5    56       P1  8028  2.00
      P1  H  6896  6909       L1    12  0.60
      P1  H  6934  6947       L1    23  0.45

> <Gold.PLP.Chemscore.Internal.Correction>
0.9395

> <Gold.Rescore>
     Score         DG    S(hbond)    S(metal)    S(lipo)     H(rot)  DE(clash)    DE(int)     intcor
     13.45     -16.99       2.78        0.00     100.55       3.72       1.33       2.21       ----

> <Gold.Chemscore.Fitness>
13.4512

> <Gold.Chemscore.DG>
-16.9909

> <Gold.Chemscore.ZeroCoef>
-5.4800

> <Gold.Chemscore.Hbond>
2.7775

> <Gold.Chemscore.Metal>
0.0000

> <Gold.Chemscore.Lipo>
100.5463

> <Gold.Chemscore.Internal_Hbond>
0.0000

> <Gold.Chemscore.DEClash>
1.3283

> <Gold.Chemscore.DEInternal>
2.2115

> <Gold.Chemscore.Rot>
3.7226

> <Gold.Chemscore.Internal.Correction>
   9.000000E+99

> <Gold.Chemscore.Hbonds>
donor molecule, donor type, donor heavy atom, donor atom, acceptor molecule, acceptor atom, score
      L1  H     3    32       P1  8029  0.31
      L1  H     5    56       P1  8028  0.99
      P1  H  6896  6909       L1    12  0.59
      P1  H  6934  6947       L1    23  0.27

> <Gold.Chemscore.Hbond.Weighted>
-9.2768

> <Gold.Chemscore.Metal.Weighted>
-0.0000

> <Gold.Chemscore.Lipo.Weighted>
-11.7639

> <Gold.Chemscore.Internal_Hbond.Weighted>
0.0000

> <Gold.Chemscore.DEClash.Weighted>
1.3283

> <Gold.Chemscore.DEInternal.Weighted>
2.2115

> <Gold.Chemscore.Rot.Weighted>
9.5298

> <Gold.Chemscore.Internal.Correction.Weighted>
   9.000000E+99

> <Gold.Protein.RotatedTorsions>
[ 6907 6896 6895 6894 ] final   65.53 input  -60.11 | X-H torsion
[ 7974 7965 7964 7962 ] final  109.80 input  175.53 | X-H torsion
[ 8008 7997 7996 7995 ] final  -19.38 input   59.86 | X-H torsion
[ 10167 10162 10161 10158 ] final  166.44 input  -65.29 | X-H torsion
[ 10718 10713 10712 10709 ] final  150.20 input   66.30 | X-H torsion
[ 10763 10752 10751 10750 ] final  -55.37 input  -60.55 | X-H torsion
[ 11005 11000 10999 10996 ] final   28.93 input  -57.11 | X-H torsion

> <Gold.Protein.ActiveResidues>
 VAL166  LYS551  ARG553  GLY616  TRP617  ASP618  TYR619  PRO620  LYS621  CYS622 
 ASP623  PHE694  ASN695  SER759  ASP760  ASP761  ALA762  ILE779  LEU786  VAL792 
 PHE793  MET794  SER795  GLU796  ALA797  LYS798  CYS799  TRP800  GLU811  SER814 

> <Gold.Protein.RotatedAtoms>
  152.4414  134.5583  159.9886 H   0  0  0  0  0  0  0  0  0  0  0  0  # atno 6907 bound_to 6896
  151.5679  133.3388  159.2992 H   0  0  0  0  0  0  0  0  0  0  0  0  # atno 6908 bound_to 6896
  150.8321  134.7612  159.6926 H   0  0  0  0  0  0  0  0  0  0  0  0  # atno 6909 bound_to 6896
  145.2631  139.2695  143.4006 H   0  0  0  0  0  0  0  0  0  0  0  0  # atno 7974 bound_to 7965
  154.4840  140.2090  155.9697 H   0  0  0  0  0  0  0  0  0  0  0  0  # atno 8008 bound_to 7997
  156.1209  140.3213  155.8175 H   0  0  0  0  0  0  0  0  0  0  0  0  # atno 8009 bound_to 7997
  155.4470  140.0514  157.2995 H   0  0  0  0  0  0  0  0  0  0  0  0  # atno 8010 bound_to 7997
  139.4925  144.4028  151.9390 H   0  0  0  0  0  0  0  0  0  0  0  0  # atno 10167 bound_to 10162
  157.2864  131.0845  151.1494 H   0  0  0  0  0  0  0  0  0  0  0  0  # atno 10718 bound_to 10713
  154.1896  135.6429  153.5056 H   0  0  0  0  0  0  0  0  0  0  0  0  # atno 10763 bound_to 10752
  153.0038  135.5425  154.6428 H   0  0  0  0  0  0  0  0  0  0  0  0  # atno 10764 bound_to 10752
  154.5814  135.2925  155.0702 H   0  0  0  0  0  0  0  0  0  0  0  0  # atno 10765 bound_to 10752
  140.3103  134.2657  155.7735 H   0  0  0  0  0  0  0  0  0  0  0  0  # atno 11005 bound_to 11000
  146.3269  140.3054  142.8623 LP  0  0  0  0  0  0  0  0  0  0  0  0  # atno 17320 bound_to 7965
  144.9400  140.8068  143.5636 LP  0  0  0  0  0  0  0  0  0  0  0  0  # atno 17321 bound_to 7965
  140.3467  144.3138  150.5957 LP  0  0  0  0  0  0  0  0  0  0  0  0  # atno 17342 bound_to 10162
  140.5520  143.2205  151.7911 LP  0  0  0  0  0  0  0  0  0  0  0  0  # atno 17343 bound_to 10162
  157.2908  130.6795  149.6113 LP  0  0  0  0  0  0  0  0  0  0  0  0  # atno 17370 bound_to 10713
  155.9665  130.4421  150.5369 LP  0  0  0  0  0  0  0  0  0  0  0  0  # atno 17371 bound_to 10713
  141.2109  133.7704  156.9898 LP  0  0  0  0  0  0  0  0  0  0  0  0  # atno 17394 bound_to 11000
  140.1030  134.9523  157.1952 LP  0  0  0  0  0  0  0  0  0  0  0  0  # atno 17395 bound_to 11000

$$$$
