AV-unprocessed.smi:716|AV-procd|sdf|3486|dock4
  -GOLD-   22720 0483D 1   1.00000     0.00000
 Structure written by MMmdl.
 48 50  0  0  0  0  0  0  0  0  1 V2000
  153.2369  141.9293  160.1481 C   0  0  0  0  0  0  0  0  0  0  0  0
  152.3680  142.3381  158.9568 C   0  0  0  0  0  0  0  0  0  0  0  0
  152.3001  141.2546  158.0446 O   0  0  0  0  0  0  0  0  0  0  0  0
  150.9939  141.0516  157.5189 C   0  0  2  0  0  0  0  0  0  0  0  0
  150.0391  140.4401  158.5523 C   0  0  0  0  0  0  0  0  0  0  0  0
  150.5517  139.0786  158.0810 C   0  0  1  0  0  0  0  0  0  0  0  0
  149.4998  138.0709  158.0479 N   0  0  0  0  0  0  0  0  0  0  0  0
  149.3919  137.0515  158.9113 C   0  0  0  0  0  0  0  0  0  0  0  0
  150.1530  136.8844  159.8637 O   0  0  0  0  0  0  0  0  0  0  0  0
  148.2548  136.0588  158.6534 C   0  0  0  0  0  0  0  0  0  0  0  0
  147.9031  135.3243  159.8756 N   0  0  0  0  0  0  0  0  0  0  0  0
  148.0218  133.9486  159.7626 N   0  0  0  0  0  0  0  0  0  0  0  0
  147.7011  133.1689  160.7423 C   0  0  0  0  0  0  0  0  0  0  0  0
  147.8471  131.6912  160.5304 C   0  0  0  0  0  0  0  0  0  0  0  0
  147.2201  133.7431  161.9844 C   0  0  0  0  0  0  0  0  0  0  0  0
  147.1077  135.0841  162.0937 C   0  0  0  0  0  0  0  0  0  0  0  0
  147.4555  135.9763  160.9904 C   0  0  0  0  0  0  0  0  0  0  0  0
  147.3421  137.2005  161.0524 O   0  0  0  0  0  0  0  0  0  0  0  0
  150.8849  139.7345  156.7120 C   0  0  0  0  0  0  0  0  0  0  0  0
  149.8321  139.7097  155.5947 C   0  0  0  0  0  0  0  0  0  0  0  0
  150.1941  138.5718  154.6364 C   0  0  0  0  0  0  0  0  0  0  0  0
  151.6773  138.2809  154.8723 C   0  0  0  0  0  0  0  0  0  0  0  0
  152.1294  139.2462  155.9722 C   0  0  0  0  0  0  0  0  0  0  0  0
  153.3074  142.7391  160.8747 H   0  0  0  0  0  0  0  0  0  0  0  0
  154.2476  141.6776  159.8265 H   0  0  0  0  0  0  0  0  0  0  0  0
  152.8194  141.0596  160.6559 H   0  0  0  0  0  0  0  0  0  0  0  0
  151.3708  142.6118  159.3032 H   0  0  0  0  0  0  0  0  0  0  0  0
  152.7973  143.2125  158.4656 H   0  0  0  0  0  0  0  0  0  0  0  0
  150.5985  141.9212  156.9913 H   0  0  0  0  0  0  0  0  0  0  0  0
  150.2616  140.6722  159.5938 H   0  0  0  0  0  0  0  0  0  0  0  0
  148.9892  140.6208  158.3143 H   0  0  0  0  0  0  0  0  0  0  0  0
  151.4439  138.7729  158.6330 H   0  0  0  0  0  0  0  0  0  0  0  0
  148.8309  138.1289  157.2934 H   0  0  0  0  0  0  0  0  0  0  0  0
  147.3863  136.6082  158.2854 H   0  0  0  0  0  0  0  0  0  0  0  0
  148.5299  135.3783  157.8451 H   0  0  0  0  0  0  0  0  0  0  0  0
  147.5363  131.1330  161.4137 H   0  0  0  0  0  0  0  0  0  0  0  0
  148.8839  131.4292  160.3177 H   0  0  0  0  0  0  0  0  0  0  0  0
  147.2341  131.3574  159.6927 H   0  0  0  0  0  0  0  0  0  0  0  0
  146.9575  133.0971  162.8091 H   0  0  0  0  0  0  0  0  0  0  0  0
  146.7493  135.5109  163.0190 H   0  0  0  0  0  0  0  0  0  0  0  0
  148.8122  139.6071  155.9664 H   0  0  0  0  0  0  0  0  0  0  0  0
  149.8607  140.6511  155.0447 H   0  0  0  0  0  0  0  0  0  0  0  0
  149.6060  137.6825  154.8597 H   0  0  0  0  0  0  0  0  0  0  0  0
  149.9900  138.8430  153.6003 H   0  0  0  0  0  0  0  0  0  0  0  0
  151.8057  137.2475  155.1958 H   0  0  0  0  0  0  0  0  0  0  0  0
  152.2663  138.4123  153.9641 H   0  0  0  0  0  0  0  0  0  0  0  0
  152.6436  140.0930  155.5158 H   0  0  0  0  0  0  0  0  0  0  0  0
  152.8470  138.7695  156.6409 H   0  0  0  0  0  0  0  0  0  0  0  0
  1  2  1  0  0  0  0
  1 24  1  0  0  0  0
  1 25  1  0  0  0  0
  1 26  1  0  0  0  0
  2  3  1  0  0  0  0
  2 27  1  0  0  0  0
  2 28  1  0  0  0  0
  3  4  1  0  0  0  0
  4 19  1  0  0  0  0
  4  5  1  0  0  0  0
  4 29  1  0  0  0  0
  5  6  1  0  0  0  0
  5 30  1  0  0  0  0
  5 31  1  0  0  0  0
  6  7  1  0  0  0  0
  6 19  1  0  0  0  0
  6 32  1  0  0  0  0
  7  8  1  0  0  0  0
  7 33  1  0  0  0  0
  8  9  2  0  0  0  0
  8 10  1  0  0  0  0
 10 11  1  0  0  0  0
 10 34  1  0  0  0  0
 10 35  1  0  0  0  0
 11 17  1  0  0  0  0
 11 12  1  0  0  0  0
 12 13  2  0  0  0  0
 13 14  1  0  0  0  0
 13 15  1  0  0  0  0
 14 36  1  0  0  0  0
 14 37  1  0  0  0  0
 14 38  1  0  0  0  0
 15 16  2  0  0  0  0
 15 39  1  0  0  0  0
 16 17  1  0  0  0  0
 16 40  1  0  0  0  0
 17 18  2  0  0  0  0
 19 23  1  0  0  0  0
 19 20  1  0  0  0  0
 20 21  1  0  0  0  0
 20 41  1  0  0  0  0
 20 42  1  0  0  0  0
 21 22  1  0  0  0  0
 21 43  1  0  0  0  0
 21 44  1  0  0  0  0
 22 23  1  0  0  0  0
 22 45  1  0  0  0  0
 22 46  1  0  0  0  0
 23 47  1  0  0  0  0
 23 48  1  0  0  0  0
M  END
> <s_m_source_file>
AV-unprocessed.smi

> <i_m_source_file_index>
716

> <i_lp_mmshare_version>
43012

> <i_f3d_flags>
0

> <s_epik_input>
W0NIMl0xW0NIMl1bQ0gyXVtDSDJdQzEyW0NASF0oT1tDSDJdW0NIM10pW0NIMl1bQ0BIXTJbTkhdQyg9TylbQ0gyXW4zbmMoW0NIM10pW2NIXVtjSF1jMz1P

> <s_epik_cmdline>
J2VwaWtfcHl0aG9uJywgJy1waCcsICc3LjAnLCAnLXRuJywgJzgnLCAnLW1hJywgJzIwMCcsICctbWV0YWxfYmluZGluZycsICctaW1hZScsICc8aW5maWxlLm1hZT4nLCAnLW9tYWUnLCAnPG91dGZpbGUubWFlPic=

> <r_lp_tautomer_probability>
1

> <r_epik_Ionization_Penalty>
4.75561e-08

> <r_epik_Ionization_Penalty_Charging>
2.86617e-08

> <r_epik_Ionization_Penalty_Neutral>
1.88944e-08

> <r_epik_State_Penalty>
-0

> <r_epik_Charging_Adjusted_Penalty>
2.86617e-08

> <i_epik_Tot_Q>
0

> <i_epik_Tot_abs_Q>
0

> <r_epik_Metal_State_Penalty>
-0

> <b_epik_Metal_Only>
0

> <s_lp_Force_Field>
OPLS_2005

> <r_lp_Energy>
50.4804

> <b_lp_Chiralities_Consistent>
1

> <s_lp_Variant>
AV-unprocessed.smi:716-1

> <Gold.Version>
5.8.1

> <Gold.Id.Protein>
6NUR|6NUR_protein|mol2

> <Gold.PLP.Fitness>
47.6171

> <Gold.PLP.PLP>
-40.5853

> <Gold.PLP.part.hbond>
-3.6842

> <Gold.PLP.part.metal>
0.0000

> <Gold.PLP.part.buried>
-3.8815

> <Gold.PLP.part.nonpolar>
-34.5540

> <Gold.PLP.part.repulsive>
0.1064

> <Gold.PLP.ligand.clash>
0.0000

> <Gold.PLP.ligand.torsion>
0.9271

> <Gold.PLP.Chemscore.Hbond>
2.8400

> <Gold.PLP.Chemscore.CHOScore>
0.0000

> <Gold.PLP.Chemscore.Metal>
0.0000

> <Gold.Chemscore.Hbonds>
donor molecule, donor type, donor heavy atom, donor atom, acceptor molecule, acceptor atom, score
      P1  H  6896  6908       L1     9  0.96
      P1  H  6931  6943       L1    18  0.55
      P1  H  6934  6947       L1    18  1.00

> <Gold.PLP.Chemscore.Internal.Correction>
0.3659

> <Gold.Rescore>
     Score         DG    S(hbond)    S(metal)    S(lipo)     H(rot)  DE(clash)    DE(int)     intcor
     19.43     -21.41       2.78        0.00      94.82       1.73       0.08       1.89       ----

> <Gold.Chemscore.Fitness>
19.4341

> <Gold.Chemscore.DG>
-21.4072

> <Gold.Chemscore.ZeroCoef>
-5.4800

> <Gold.Chemscore.Hbond>
2.7766

> <Gold.Chemscore.Metal>
0.0000

> <Gold.Chemscore.Lipo>
94.8241

> <Gold.Chemscore.Internal_Hbond>
0.0000

> <Gold.Chemscore.DEClash>
0.0849

> <Gold.Chemscore.DEInternal>
1.8882

> <Gold.Chemscore.Rot>
1.7348

> <Gold.Chemscore.Internal.Correction>
   9.000000E+99

> <Gold.Chemscore.Hbonds>
donor molecule, donor type, donor heavy atom, donor atom, acceptor molecule, acceptor atom, score
      P1  H  6896  6908       L1     9  0.83
      P1  H  6931  6943       L1    18  0.51
      P1  H  6934  6947       L1    18  0.98

> <Gold.Chemscore.Hbond.Weighted>
-9.2739

> <Gold.Chemscore.Metal.Weighted>
-0.0000

> <Gold.Chemscore.Lipo.Weighted>
-11.0944

> <Gold.Chemscore.Internal_Hbond.Weighted>
0.0000

> <Gold.Chemscore.DEClash.Weighted>
0.0849

> <Gold.Chemscore.DEInternal.Weighted>
1.8882

> <Gold.Chemscore.Rot.Weighted>
4.4411

> <Gold.Chemscore.Internal.Correction.Weighted>
   9.000000E+99

> <Gold.Protein.RotatedTorsions>
[ 6907 6896 6895 6894 ] final -144.76 input  -60.11 | X-H torsion
[ 7974 7965 7964 7962 ] final  122.67 input  175.53 | X-H torsion
[ 8008 7997 7996 7995 ] final  -94.90 input   59.86 | X-H torsion
[ 10167 10162 10161 10158 ] final   22.20 input  -65.29 | X-H torsion
[ 10718 10713 10712 10709 ] final  -44.08 input   66.30 | X-H torsion
[ 10763 10752 10751 10750 ] final  132.43 input  -60.55 | X-H torsion
[ 11005 11000 10999 10996 ] final  -82.74 input  -57.11 | X-H torsion

> <Gold.Protein.ActiveResidues>
 VAL166  LYS551  ARG553  GLY616  TRP617  ASP618  TYR619  PRO620  LYS621  CYS622 
 ASP623  PHE694  ASN695  SER759  ASP760  ASP761  ALA762  ILE779  LEU786  VAL792 
 PHE793  MET794  SER795  GLU796  ALA797  LYS798  CYS799  TRP800  GLU811  SER814 

> <Gold.Protein.RotatedAtoms>
  151.1185  133.5121  159.2602 H   0  0  0  0  0  0  0  0  0  0  0  0  # atno 6907 bound_to 6896
  151.1888  135.0393  159.8834 H   0  0  0  0  0  0  0  0  0  0  0  0  # atno 6908 bound_to 6896
  152.5454  134.1028  159.8378 H   0  0  0  0  0  0  0  0  0  0  0  0  # atno 6909 bound_to 6896
  145.1049  139.3493  143.4793 H   0  0  0  0  0  0  0  0  0  0  0  0  # atno 7974 bound_to 7965
  154.7543  140.0485  157.0920 H   0  0  0  0  0  0  0  0  0  0  0  0  # atno 8008 bound_to 7997
  155.0017  140.3125  155.4845 H   0  0  0  0  0  0  0  0  0  0  0  0  # atno 8009 bound_to 7997
  156.2891  140.2200  156.5127 H   0  0  0  0  0  0  0  0  0  0  0  0  # atno 8010 bound_to 7997
  140.5367  143.9748  150.6496 H   0  0  0  0  0  0  0  0  0  0  0  0  # atno 10167 bound_to 10162
  156.2423  130.4181  149.8746 H   0  0  0  0  0  0  0  0  0  0  0  0  # atno 10718 bound_to 10713
  153.7905  135.3156  155.3378 H   0  0  0  0  0  0  0  0  0  0  0  0  # atno 10763 bound_to 10752
  154.8127  135.4656  154.0563 H   0  0  0  0  0  0  0  0  0  0  0  0  # atno 10764 bound_to 10752
  153.1880  135.6904  153.8476 H   0  0  0  0  0  0  0  0  0  0  0  0  # atno 10765 bound_to 10752
  141.1661  133.7259  156.8616 H   0  0  0  0  0  0  0  0  0  0  0  0  # atno 11005 bound_to 11000
  146.3528  140.0942  142.8611 LP  0  0  0  0  0  0  0  0  0  0  0  0  # atno 17320 bound_to 7965
  145.0913  140.9286  143.4767 LP  0  0  0  0  0  0  0  0  0  0  0  0  # atno 17321 bound_to 7965
  140.3137  143.3181  152.0853 LP  0  0  0  0  0  0  0  0  0  0  0  0  # atno 17342 bound_to 10162
  139.4973  144.6619  151.6445 LP  0  0  0  0  0  0  0  0  0  0  0  0  # atno 17343 bound_to 10162
  156.6324  130.8671  151.3498 LP  0  0  0  0  0  0  0  0  0  0  0  0  # atno 17370 bound_to 10713
  157.7180  130.9522  150.1329 LP  0  0  0  0  0  0  0  0  0  0  0  0  # atno 17371 bound_to 10713
  140.1844  134.9010  157.2987 LP  0  0  0  0  0  0  0  0  0  0  0  0  # atno 17394 bound_to 11000
  140.2359  134.3854  155.7501 LP  0  0  0  0  0  0  0  0  0  0  0  0  # atno 17395 bound_to 11000

$$$$
