AV-unprocessed.smi:2718|AV-procd|sdf|10492|dock1
  -GOLD-   2272014543D 1   1.00000     0.00000
 Structure written by MMmdl.
 47 48  0  0  0  0  0  0  0  0  1 V2000
  148.4022  127.0801  150.5244 C   0  0  0  0  0  0  0  0  0  0  0  0
  147.9861  127.7590  151.8142 C   0  0  0  0  0  0  0  0  0  0  0  0
  148.8169  127.3794  153.0273 C   0  0  0  0  0  0  0  0  0  0  0  0
  146.9543  128.6239  151.8575 C   0  0  0  0  0  0  0  0  0  0  0  0
  146.4440  129.3491  153.0568 C   0  0  2  0  0  0  0  0  0  0  0  0
  146.2017  130.8541  153.1249 C   0  0  2  0  0  0  0  0  0  0  0  0
  146.4871  131.7457  151.9484 C   0  0  0  0  0  0  0  0  0  0  0  0
  147.2211  132.7333  151.9833 O   0  0  0  0  0  0  0  0  0  0  0  0
  145.8608  131.3568  150.8279 N   0  0  0  0  0  0  0  0  0  0  0  0
  145.9559  132.0150  149.5274 C   0  0  0  0  0  0  0  0  0  0  0  0
  144.9623  133.1870  149.3572 C   0  0  1  0  0  0  0  0  0  0  0  0
  143.7570  132.7894  148.4930 C   0  0  0  0  0  0  0  0  0  0  0  0
  144.5293  133.7830  150.6703 C   0  0  0  0  0  0  0  0  0  0  0  0
  143.7010  133.1668  151.5245 N   0  0  0  0  0  0  0  0  0  0  0  0
  143.5583  134.0272  152.5942 N   0  0  0  0  0  0  0  0  0  0  0  0
  144.3092  135.0809  152.2787 C   0  0  0  0  0  0  0  0  0  0  0  0
  144.9383  134.9970  151.0970 N   0  0  0  0  0  0  0  0  0  0  0  0
  145.8127  135.9698  150.4727 C   0  0  0  0  0  0  0  0  0  0  0  0
  147.3404  130.2224  153.9205 C   0  0  0  0  0  0  0  0  0  0  0  0
  147.1912  130.1656  155.4312 C   0  0  0  0  0  0  0  0  0  0  0  0
  148.8160  130.4148  153.5788 C   0  0  0  0  0  0  0  0  0  0  0  0
  149.4352  127.3296  150.2811 H   0  0  0  0  0  0  0  0  0  0  0  0
  147.7733  127.3867  149.6881 H   0  0  0  0  0  0  0  0  0  0  0  0
  148.3248  125.9974  150.6266 H   0  0  0  0  0  0  0  0  0  0  0  0
  148.7167  126.3128  153.2291 H   0  0  0  0  0  0  0  0  0  0  0  0
  148.5172  127.9203  153.9243 H   0  0  0  0  0  0  0  0  0  0  0  0
  149.8696  127.5952  152.8442 H   0  0  0  0  0  0  0  0  0  0  0  0
  146.4306  128.8366  150.9371 H   0  0  0  0  0  0  0  0  0  0  0  0
  145.7224  128.7317  153.5886 H   0  0  0  0  0  0  0  0  0  0  0  0
  145.3356  131.1571  153.7118 H   0  0  0  0  0  0  0  0  0  0  0  0
  145.2724  130.5373  150.8776 H   0  0  0  0  0  0  0  0  0  0  0  0
  146.9794  132.3508  149.3536 H   0  0  0  0  0  0  0  0  0  0  0  0
  145.7517  131.2539  148.7736 H   0  0  0  0  0  0  0  0  0  0  0  0
  145.4885  133.9589  148.7966 H   0  0  0  0  0  0  0  0  0  0  0  0
  143.1061  133.6452  148.3118 H   0  0  0  0  0  0  0  0  0  0  0  0
  143.1611  132.0134  148.9744 H   0  0  0  0  0  0  0  0  0  0  0  0
  144.0782  132.4079  147.5234 H   0  0  0  0  0  0  0  0  0  0  0  0
  144.4002  135.9396  152.9278 H   0  0  0  0  0  0  0  0  0  0  0  0
  145.9736  136.8150  151.1423 H   0  0  0  0  0  0  0  0  0  0  0  0
  145.3609  136.3293  149.5481 H   0  0  0  0  0  0  0  0  0  0  0  0
  146.7753  135.5117  150.2467 H   0  0  0  0  0  0  0  0  0  0  0  0
  147.5418  131.0944  155.8824 H   0  0  0  0  0  0  0  0  0  0  0  0
  147.7703  129.3375  155.8409 H   0  0  0  0  0  0  0  0  0  0  0  0
  146.1478  130.0218  155.7134 H   0  0  0  0  0  0  0  0  0  0  0  0
  149.1645  131.3792  153.9483 H   0  0  0  0  0  0  0  0  0  0  0  0
  149.0075  130.3675  152.5087 H   0  0  0  0  0  0  0  0  0  0  0  0
  149.4141  129.6336  154.0490 H   0  0  0  0  0  0  0  0  0  0  0  0
  1  2  1  0  0  0  0
  1 22  1  0  0  0  0
  1 23  1  0  0  0  0
  1 24  1  0  0  0  0
  2  3  1  0  0  0  0
  2  4  2  0  0  0  0
  3 25  1  0  0  0  0
  3 26  1  0  0  0  0
  3 27  1  0  0  0  0
  4  5  1  0  0  0  0
  4 28  1  0  0  0  0
  5 19  1  0  0  0  0
  5  6  1  0  0  0  0
  5 29  1  0  0  0  0
  6  7  1  0  0  0  0
  6 19  1  0  0  0  0
  6 30  1  0  0  0  0
  7  8  2  0  0  0  0
  7  9  1  0  0  0  0
  9 10  1  0  0  0  0
  9 31  1  0  0  0  0
 10 11  1  0  0  0  0
 10 32  1  0  0  0  0
 10 33  1  0  0  0  0
 11 12  1  0  0  0  0
 11 13  1  0  0  0  0
 11 34  1  0  0  0  0
 12 35  1  0  0  0  0
 12 36  1  0  0  0  0
 12 37  1  0  0  0  0
 13 17  1  0  0  0  0
 13 14  2  0  0  0  0
 14 15  1  0  0  0  0
 15 16  2  0  0  0  0
 16 17  1  0  0  0  0
 16 38  1  0  0  0  0
 17 18  1  0  0  0  0
 18 39  1  0  0  0  0
 18 40  1  0  0  0  0
 18 41  1  0  0  0  0
 19 20  1  0  0  0  0
 19 21  1  0  0  0  0
 20 42  1  0  0  0  0
 20 43  1  0  0  0  0
 20 44  1  0  0  0  0
 21 45  1  0  0  0  0
 21 46  1  0  0  0  0
 21 47  1  0  0  0  0
M  END
> <s_m_source_file>
AV-unprocessed.smi

> <i_m_source_file_index>
2718

> <i_lp_mmshare_version>
43012

> <i_f3d_flags>
0

> <s_epik_input>
W0NIM11DKFtDSDNdKT1bQ0hdW0NAQEhdKEMxKFtDSDNdKVtDSDNdKVtDQEhdMUMoPU8pW05IXVtDSDJdW0NASF0oW0NIM10pYzJubltjSF1uMltDSDNd

> <s_epik_cmdline>
J2VwaWtfcHl0aG9uJywgJy1waCcsICc3LjAnLCAnLXRuJywgJzgnLCAnLW1hJywgJzIwMCcsICctbWV0YWxfYmluZGluZycsICctaW1hZScsICc8aW5maWxlLm1hZT4nLCAnLW9tYWUnLCAnPG91dGZpbGUubWFlPic=

> <r_lp_tautomer_probability>
1

> <r_epik_Ionization_Penalty>
0.000449586

> <r_epik_Ionization_Penalty_Charging>
0

> <r_epik_Ionization_Penalty_Neutral>
0.000449586

> <r_epik_State_Penalty>
0.000243372

> <r_epik_Charging_Adjusted_Penalty>
0.000243372

> <i_epik_Tot_Q>
0

> <i_epik_Tot_abs_Q>
0

> <r_epik_Metal_State_Penalty>
-0

> <b_epik_Metal_Only>
0

> <s_lp_Force_Field>
OPLS_2005

> <r_lp_Energy>
15.6704

> <b_lp_Chiralities_Consistent>
1

> <s_lp_Variant>
AV-unprocessed.smi:2718-7

> <Gold.Version>
5.8.1

> <Gold.Id.Protein>
6NUR|6NUR_protein|mol2

> <Gold.PLP.Fitness>
38.2482

> <Gold.PLP.PLP>
-39.8786

> <Gold.PLP.part.hbond>
-0.3482

> <Gold.PLP.part.metal>
0.0000

> <Gold.PLP.part.buried>
-1.8911

> <Gold.PLP.part.nonpolar>
-37.8000

> <Gold.PLP.part.repulsive>
0.6082

> <Gold.PLP.ligand.clash>
0.0000

> <Gold.PLP.ligand.torsion>
0.9956

> <Gold.PLP.Chemscore.Hbond>
0.0000

> <Gold.PLP.Chemscore.CHOScore>
0.0000

> <Gold.PLP.Chemscore.Metal>
0.0000

> <Gold.PLP.Chemscore.Internal.Correction>
0.3608

> <Gold.Rescore>
     Score         DG    S(hbond)    S(metal)    S(lipo)     H(rot)  DE(clash)    DE(int)     intcor
      7.91     -12.32       0.00        0.00     101.22       1.95       2.08       2.33       ----

> <Gold.Chemscore.Fitness>
7.9053

> <Gold.Chemscore.DG>
-12.3222

> <Gold.Chemscore.ZeroCoef>
-5.4800

> <Gold.Chemscore.Hbond>
0.0000

> <Gold.Chemscore.Metal>
0.0000

> <Gold.Chemscore.Lipo>
101.2200

> <Gold.Chemscore.Internal_Hbond>
0.0000

> <Gold.Chemscore.DEClash>
2.0832

> <Gold.Chemscore.DEInternal>
2.3337

> <Gold.Chemscore.Rot>
1.9533

> <Gold.Chemscore.Internal.Correction>
   9.000000E+99

> <Gold.Chemscore.Hbond.Weighted>
-0.0000

> <Gold.Chemscore.Metal.Weighted>
-0.0000

> <Gold.Chemscore.Lipo.Weighted>
-11.8427

> <Gold.Chemscore.Internal_Hbond.Weighted>
0.0000

> <Gold.Chemscore.DEClash.Weighted>
2.0832

> <Gold.Chemscore.DEInternal.Weighted>
2.3337

> <Gold.Chemscore.Rot.Weighted>
5.0005

> <Gold.Chemscore.Internal.Correction.Weighted>
   9.000000E+99

> <Gold.Protein.RotatedTorsions>
[ 6907 6896 6895 6894 ] final -130.26 input  -60.11 | X-H torsion
[ 7974 7965 7964 7962 ] final  -66.15 input  175.53 | X-H torsion
[ 8008 7997 7996 7995 ] final -103.84 input   59.86 | X-H torsion
[ 10167 10162 10161 10158 ] final -133.91 input  -65.29 | X-H torsion
[ 10718 10713 10712 10709 ] final  -33.39 input   66.30 | X-H torsion
[ 10763 10752 10751 10750 ] final   39.02 input  -60.55 | X-H torsion
[ 11005 11000 10999 10996 ] final -124.99 input  -57.11 | X-H torsion

> <Gold.Protein.ActiveResidues>
 VAL166  LYS551  ARG553  GLY616  TRP617  ASP618  TYR619  PRO620  LYS621  CYS622 
 ASP623  PHE694  ASN695  SER759  ASP760  ASP761  ALA762  ILE779  LEU786  VAL792 
 PHE793  MET794  SER795  GLU796  ALA797  LYS798  CYS799  TRP800  GLU811  SER814 

> <Gold.Protein.RotatedAtoms>
  150.9377  133.6692  159.2796 H   0  0  0  0  0  0  0  0  0  0  0  0  # atno 6907 bound_to 6896
  151.4092  135.0981  159.9589 H   0  0  0  0  0  0  0  0  0  0  0  0  # atno 6908 bound_to 6896
  152.5055  133.8854  159.7422 H   0  0  0  0  0  0  0  0  0  0  0  0  # atno 6909 bound_to 6896
  145.7453  140.8934  143.0508 H   0  0  0  0  0  0  0  0  0  0  0  0  # atno 7974 bound_to 7965
  154.8768  140.0421  157.1758 H   0  0  0  0  0  0  0  0  0  0  0  0  # atno 8008 bound_to 7997
  154.8681  140.2954  155.5477 H   0  0  0  0  0  0  0  0  0  0  0  0  # atno 8009 bound_to 7997
  156.2999  140.2434  156.3666 H   0  0  0  0  0  0  0  0  0  0  0  0  # atno 8010 bound_to 7997
  139.8935  143.6694  152.2608 H   0  0  0  0  0  0  0  0  0  0  0  0  # atno 10167 bound_to 10162
  156.3632  130.4327  149.7606 H   0  0  0  0  0  0  0  0  0  0  0  0  # atno 10718 bound_to 10713
  152.9981  135.6232  154.2398 H   0  0  0  0  0  0  0  0  0  0  0  0  # atno 10763 bound_to 10752
  154.2139  135.2798  155.2950 H   0  0  0  0  0  0  0  0  0  0  0  0  # atno 10764 bound_to 10752
  154.5584  135.5712  153.7043 H   0  0  0  0  0  0  0  0  0  0  0  0  # atno 10765 bound_to 10752
  140.9797  134.0690  157.3779 H   0  0  0  0  0  0  0  0  0  0  0  0  # atno 11005 bound_to 11000
  144.6861  139.9517  143.7478 LP  0  0  0  0  0  0  0  0  0  0  0  0  # atno 17320 bound_to 7965
  146.0408  139.3420  143.0698 LP  0  0  0  0  0  0  0  0  0  0  0  0  # atno 17321 bound_to 7965
  139.7089  144.7623  151.1146 LP  0  0  0  0  0  0  0  0  0  0  0  0  # atno 17342 bound_to 10162
  140.7722  143.5358  150.9370 LP  0  0  0  0  0  0  0  0  0  0  0  0  # atno 17343 bound_to 10162
  156.4762  130.8019  151.3036 LP  0  0  0  0  0  0  0  0  0  0  0  0  # atno 17370 bound_to 10713
  157.7476  131.0020  150.2985 LP  0  0  0  0  0  0  0  0  0  0  0  0  # atno 17371 bound_to 10713
  139.8945  135.0136  156.6954 LP  0  0  0  0  0  0  0  0  0  0  0  0  # atno 17394 bound_to 11000
  140.7205  133.9145  155.8143 LP  0  0  0  0  0  0  0  0  0  0  0  0  # atno 17395 bound_to 11000

$$$$
