AV-unprocessed.smi:3250|AV-procd|sdf|12431|dock6
  -GOLD-   2272018323D 1   1.00000     0.00000
 Structure written by MMmdl.
 40 41  0  0  0  0  0  0  0  0  3 V2000
  143.7511  132.4189  149.5319 C   0  0  0  0  0  0  0  0  0  0  0  0
  144.8736  133.0498  150.3675 C   0  0  0  0  0  0  0  0  0  0  0  0
  144.4874  134.3628  150.9417 N   0  3  1  0  0  0  0  0  0  0  0  0
  143.5084  134.2271  152.0457 C   0  0  0  0  0  0  0  0  0  0  0  0
  143.1018  135.6104  152.5771 C   0  0  0  0  0  0  0  0  0  0  0  0
  144.2626  136.3171  152.9957 O   0  0  0  0  0  0  0  0  0  0  0  0
  145.1738  136.5472  151.9256 C   0  0  1  0  0  0  0  0  0  0  0  0
  146.3478  137.3731  152.4714 C   0  0  0  0  0  0  0  0  0  0  0  0
  145.9529  138.7406  152.7755 N   0  0  0  0  0  0  0  0  0  0  0  0
  146.7958  139.6743  153.3492 C   0  0  0  0  0  0  0  0  0  0  0  0
  146.3023  140.9007  153.5763 N   0  3  0  0  0  0  0  0  0  0  0  0
  147.0912  141.8512  154.1356 C   0  0  0  0  0  0  0  0  0  0  0  0
  148.4226  141.5569  154.4803 C   0  0  0  0  0  0  0  0  0  0  0  0
  148.8745  140.2531  154.2189 C   0  0  0  0  0  0  0  0  0  0  0  0
  150.1698  139.9048  154.5419 O   0  0  0  0  0  0  0  0  0  0  0  0
  150.5817  138.5594  154.3246 C   0  0  0  0  0  0  0  0  0  0  0  0
  148.0557  139.3332  153.6556 N   0  0  0  0  0  0  0  0  0  0  0  0
  145.6446  135.1847  151.3770 C   0  0  0  0  0  0  0  0  0  0  0  0
  144.0358  131.4195  149.2020 H   0  0  0  0  0  0  0  0  0  0  0  0
  143.5279  133.0014  148.6383 H   0  0  0  0  0  0  0  0  0  0  0  0
  142.8331  132.3242  150.1125 H   0  0  0  0  0  0  0  0  0  0  0  0
  145.1096  132.3617  151.1805 H   0  0  0  0  0  0  0  0  0  0  0  0
  145.7841  133.1516  149.7750 H   0  0  0  0  0  0  0  0  0  0  0  0
  142.6230  133.6959  151.6946 H   0  0  0  0  0  0  0  0  0  0  0  0
  143.9430  133.6304  152.8494 H   0  0  0  0  0  0  0  0  0  0  0  0
  142.5666  136.1805  151.8160 H   0  0  0  0  0  0  0  0  0  0  0  0
  142.4279  135.5025  153.4271 H   0  0  0  0  0  0  0  0  0  0  0  0
  144.6769  137.1062  151.1300 H   0  0  0  0  0  0  0  0  0  0  0  0
  146.7582  136.8990  153.3639 H   0  0  0  0  0  0  0  0  0  0  0  0
  147.1484  137.4094  151.7316 H   0  0  0  0  0  0  0  0  0  0  0  0
  145.0201  139.0389  152.5297 H   0  0  0  0  0  0  0  0  0  0  0  0
  146.6299  142.8158  154.2899 H   0  0  0  0  0  0  0  0  0  0  0  0
  149.0679  142.2989  154.9279 H   0  0  0  0  0  0  0  0  0  0  0  0
  151.6215  138.4463  154.6312 H   0  0  0  0  0  0  0  0  0  0  0  0
  150.5167  138.2871  153.2701 H   0  0  0  0  0  0  0  0  0  0  0  0
  149.9857  137.8600  154.9127 H   0  0  0  0  0  0  0  0  0  0  0  0
  146.2067  134.6450  152.1411 H   0  0  0  0  0  0  0  0  0  0  0  0
  146.3228  135.3504  150.5403 H   0  0  0  0  0  0  0  0  0  0  0  0
  144.0173  134.8720  150.2065 H   0  0  0  0  0  0  0  0  0  0  0  0
  145.3386  141.1318  153.3338 H   0  0  0  0  0  0  0  0  0  0  0  0
  1  2  1  0  0  0  0
  1 19  1  0  0  0  0
  1 20  1  0  0  0  0
  1 21  1  0  0  0  0
  2  3  1  0  0  0  0
  2 22  1  0  0  0  0
  2 23  1  0  0  0  0
  3 18  1  0  0  0  0
  3  4  1  0  0  0  0
  3 39  1  0  0  0  0
  4  5  1  0  0  0  0
  4 24  1  0  0  0  0
  4 25  1  0  0  0  0
  5  6  1  0  0  0  0
  5 26  1  0  0  0  0
  5 27  1  0  0  0  0
  6  7  1  0  0  0  0
  7  8  1  0  0  0  0
  7 18  1  0  0  0  0
  7 28  1  0  0  0  0
  8  9  1  0  0  0  0
  8 29  1  0  0  0  0
  8 30  1  0  0  0  0
  9 10  1  0  0  0  0
  9 31  1  0  0  0  0
 10 17  1  0  0  0  0
 10 11  2  0  0  0  0
 11 12  1  0  0  0  0
 11 40  1  0  0  0  0
 12 13  2  0  0  0  0
 12 32  1  0  0  0  0
 13 14  1  0  0  0  0
 13 33  1  0  0  0  0
 14 15  1  0  0  0  0
 14 17  2  0  0  0  0
 15 16  1  0  0  0  0
 16 34  1  0  0  0  0
 16 35  1  0  0  0  0
 16 36  1  0  0  0  0
 18 37  1  0  0  0  0
 18 38  1  0  0  0  0
M  CHG  1   3   1
M  CHG  1  11   1
M  END
> <s_m_source_file>
AV-unprocessed.smi

> <i_m_source_file_index>
3250

> <i_lp_mmshare_version>
43012

> <i_f3d_flags>
0

> <s_epik_input>
W0NIM11bQ0gyXU4xW0NIMl1bQ0gyXU9bQ0BIXShbQ0gyXTEpW0NIMl1bTkhdYzJuW2NIXVtjSF1jKG4yKU9bQ0gzXQ==

> <s_epik_cmdline>
J2VwaWtfcHl0aG9uJywgJy1waCcsICc3LjAnLCAnLXRuJywgJzgnLCAnLW1hJywgJzIwMCcsICctbWV0YWxfYmluZGluZycsICctaW1hZScsICc8aW5maWxlLm1hZT4nLCAnLW9tYWUnLCAnPG91dGZpbGUubWFlPic=

> <r_lp_tautomer_probability>
0.999985

> <r_epik_Ionization_Penalty>
2.24691

> <r_epik_Ionization_Penalty_Charging>
2.24686

> <r_epik_Ionization_Penalty_Neutral>
4.52111e-05

> <r_epik_State_Penalty>
2.24709

> <r_epik_Charging_Adjusted_Penalty>
4.49395

> <i_epik_Tot_Q>
2

> <i_epik_Tot_abs_Q>
2

> <r_epik_Metal_State_Penalty>
2.26327

> <b_epik_Metal_Only>
0

> <s_lp_Force_Field>
OPLS_2005

> <r_lp_Energy>
18.3796

> <b_lp_Chiralities_Consistent>
1

> <s_lp_Variant>
AV-unprocessed.smi:3250-7

> <Gold.Version>
5.8.1

> <Gold.Id.Protein>
6NUR|6NUR_protein|mol2

> <Gold.PLP.Fitness>
47.0604

> <Gold.PLP.PLP>
-32.8912

> <Gold.PLP.part.hbond>
-3.0000

> <Gold.PLP.part.metal>
0.0000

> <Gold.PLP.part.buried>
-3.5884

> <Gold.PLP.part.nonpolar>
-28.6141

> <Gold.PLP.part.repulsive>
1.5695

> <Gold.PLP.ligand.clash>
0.0000

> <Gold.PLP.ligand.torsion>
0.1872

> <Gold.PLP.Chemscore.Hbond>
4.8400

> <Gold.PLP.Chemscore.CHOScore>
0.0000

> <Gold.PLP.Chemscore.Metal>
0.0000

> <Gold.Chemscore.Hbonds>
donor molecule, donor type, donor heavy atom, donor atom, acceptor molecule, acceptor atom, score
      L1  H     9    31       P1 10175  1.98
      L1  H    11    40       P1 10175  1.86
      P1  H  7989  7998       L1    15  0.94

> <Gold.PLP.Chemscore.Internal.Correction>
0.0235

> <Gold.Rescore>
     Score         DG    S(hbond)    S(metal)    S(lipo)     H(rot)  DE(clash)    DE(int)     intcor
     13.65     -14.50       1.73        0.00      66.09       1.75       0.77       0.08       ----

> <Gold.Chemscore.Fitness>
13.6501

> <Gold.Chemscore.DG>
-14.5049

> <Gold.Chemscore.ZeroCoef>
-5.4800

> <Gold.Chemscore.Hbond>
1.7306

> <Gold.Chemscore.Metal>
0.0000

> <Gold.Chemscore.Lipo>
66.0890

> <Gold.Chemscore.Internal_Hbond>
0.0000

> <Gold.Chemscore.DEClash>
0.7708

> <Gold.Chemscore.DEInternal>
0.0841

> <Gold.Chemscore.Rot>
1.7530

> <Gold.Chemscore.Internal.Correction>
   9.000000E+99

> <Gold.Chemscore.Hbonds>
donor molecule, donor type, donor heavy atom, donor atom, acceptor molecule, acceptor atom, score
      L1  H     9    31       P1 10175  0.92
      L1  H    11    40       P1 10175  0.31
      P1  H  7989  7998       L1    15  0.18

> <Gold.Chemscore.Hbond.Weighted>
-5.7802

> <Gold.Chemscore.Metal.Weighted>
-0.0000

> <Gold.Chemscore.Lipo.Weighted>
-7.7324

> <Gold.Chemscore.Internal_Hbond.Weighted>
0.0000

> <Gold.Chemscore.DEClash.Weighted>
0.7708

> <Gold.Chemscore.DEInternal.Weighted>
0.0841

> <Gold.Chemscore.Rot.Weighted>
4.4876

> <Gold.Chemscore.Internal.Correction.Weighted>
   9.000000E+99

> <Gold.Protein.RotatedTorsions>
[ 6907 6896 6895 6894 ] final  122.47 input  -60.11 | X-H torsion
[ 7974 7965 7964 7962 ] final   58.59 input  175.53 | X-H torsion
[ 8008 7997 7996 7995 ] final -163.08 input   59.86 | X-H torsion
[ 10167 10162 10161 10158 ] final   12.73 input  -65.29 | X-H torsion
[ 10718 10713 10712 10709 ] final    1.59 input   66.30 | X-H torsion
[ 10763 10752 10751 10750 ] final  123.64 input  -60.55 | X-H torsion
[ 11005 11000 10999 10996 ] final  -13.64 input  -57.11 | X-H torsion

> <Gold.Protein.ActiveResidues>
 VAL166  LYS551  ARG553  GLY616  TRP617  ASP618  TYR619  PRO620  LYS621  CYS622 
 ASP623  PHE694  ASN695  SER759  ASP760  ASP761  ALA762  ILE779  LEU786  VAL792 
 PHE793  MET794  SER795  GLU796  ALA797  LYS798  CYS799  TRP800  GLU811  SER814 

> <Gold.Protein.RotatedAtoms>
  152.4240  133.7164  159.6508 H   0  0  0  0  0  0  0  0  0  0  0  0  # atno 6907 bound_to 6896
  150.8117  133.8400  159.3185 H   0  0  0  0  0  0  0  0  0  0  0  0  # atno 6908 bound_to 6896
  151.6108  135.1042  160.0132 H   0  0  0  0  0  0  0  0  0  0  0  0  # atno 6909 bound_to 6896
  145.9165  139.3695  143.0504 H   0  0  0  0  0  0  0  0  0  0  0  0  # atno 7974 bound_to 7965
  155.8161  140.0912  157.1876 H   0  0  0  0  0  0  0  0  0  0  0  0  # atno 8008 bound_to 7997
  154.3979  140.1445  156.3504 H   0  0  0  0  0  0  0  0  0  0  0  0  # atno 8009 bound_to 7997
  155.8315  140.3442  155.5577 H   0  0  0  0  0  0  0  0  0  0  0  0  # atno 8010 bound_to 7997
  140.6049  143.8529  150.7003 H   0  0  0  0  0  0  0  0  0  0  0  0  # atno 10167 bound_to 10162
  156.8504  130.5552  149.5670 H   0  0  0  0  0  0  0  0  0  0  0  0  # atno 10718 bound_to 10713
  153.6487  135.3366  155.3093 H   0  0  0  0  0  0  0  0  0  0  0  0  # atno 10763 bound_to 10752
  154.8543  135.4335  154.1927 H   0  0  0  0  0  0  0  0  0  0  0  0  # atno 10764 bound_to 10752
  153.2865  135.7013  153.7409 H   0  0  0  0  0  0  0  0  0  0  0  0  # atno 10765 bound_to 10752
  140.7782  133.8384  155.9268 H   0  0  0  0  0  0  0  0  0  0  0  0  # atno 11005 bound_to 11000
  145.8604  140.9478  143.0703 LP  0  0  0  0  0  0  0  0  0  0  0  0  # atno 17320 bound_to 7965
  144.6748  140.0524  143.7478 LP  0  0  0  0  0  0  0  0  0  0  0  0  # atno 17321 bound_to 7965
  140.2083  143.3903  152.1738 LP  0  0  0  0  0  0  0  0  0  0  0  0  # atno 17342 bound_to 10162
  139.5317  144.7167  151.5031 LP  0  0  0  0  0  0  0  0  0  0  0  0  # atno 17343 bound_to 10162
  156.0831  130.5836  150.9599 LP  0  0  0  0  0  0  0  0  0  0  0  0  # atno 17370 bound_to 10713
  157.6306  131.0921  150.8448 LP  0  0  0  0  0  0  0  0  0  0  0  0  # atno 17371 bound_to 10713
  140.9508  134.1781  157.4729 LP  0  0  0  0  0  0  0  0  0  0  0  0  # atno 17394 bound_to 11000
  139.8746  134.9908  156.5521 LP  0  0  0  0  0  0  0  0  0  0  0  0  # atno 17395 bound_to 11000

$$$$
