AV-unprocessed.smi:266|AV-procd|sdf|2038|dock6
  -GOLD-   2262021253D 1   1.00000     0.00000
 Structure written by MMmdl.
 52 55  0  0  0  0  0  0  0  0  1 V2000
  151.2026  136.2803  155.5053 C   0  0  0  0  0  0  0  0  0  0  0  0
  149.7283  136.6044  155.2185 C   0  0  1  0  0  0  0  0  0  0  0  0
  149.0261  136.5118  156.4564 O   0  0  0  0  0  0  0  0  0  0  0  0
  147.9708  137.4569  156.4644 C   0  0  0  0  0  0  0  0  0  0  0  0
  148.6012  138.6598  155.7802 C   0  0  0  0  0  0  0  0  0  0  0  0
  149.4207  138.0234  154.6614 C   0  0  2  0  0  0  0  0  0  0  0  0
  148.5689  137.8683  153.5378 O   0  0  0  0  0  0  0  0  0  0  0  0
  150.6396  138.8743  154.2161 C   0  0  0  0  0  0  0  0  0  0  0  0
  151.4055  139.4092  155.3320 N   0  0  0  0  0  0  0  0  0  0  0  0
  152.6622  139.0168  155.7370 C   0  0  0  0  0  0  0  0  0  0  0  0
  153.1450  139.6635  156.7632 N   0  0  0  0  0  0  0  0  0  0  0  0
  152.1401  140.5631  157.0961 C   0  0  0  0  0  0  0  0  0  0  0  0
  151.9954  141.5679  158.0922 C   0  0  0  0  0  0  0  0  0  0  0  0
  152.9385  141.8775  159.0041 N   0  0  0  0  0  0  0  0  0  0  0  0
  152.6241  143.0683  159.7822 C   0  0  0  0  0  0  0  0  0  0  0  0
  153.4453  140.7126  159.7230 C   0  0  0  0  0  0  0  0  0  0  0  0
  154.5173  141.0862  160.7605 C   0  0  1  0  0  0  0  0  0  0  0  0
  153.8968  141.5841  162.0800 C   0  0  0  0  0  0  0  0  0  0  0  0
  154.9967  141.6490  163.1440 C   0  0  0  0  0  0  0  0  0  0  0  0
  156.1203  140.2519  162.7728 S   0  0  0  0  0  0  0  0  0  0  0  0
  157.4962  140.7593  162.6620 O   0  0  0  0  0  0  0  0  0  0  0  0
  155.7995  139.1177  163.6524 O   0  0  0  0  0  0  0  0  0  0  0  0
  155.4536  139.9132  161.0991 C   0  0  0  0  0  0  0  0  0  0  0  0
  150.8434  142.2807  158.1213 N   0  0  0  0  0  0  0  0  0  0  0  0
  149.8813  142.0256  157.2292 C   0  0  0  0  0  0  0  0  0  0  0  0
  149.8735  141.1248  156.2439 N   0  0  0  0  0  0  0  0  0  0  0  0
  151.0360  140.4112  156.2122 C   0  0  0  0  0  0  0  0  0  0  0  0
  151.8047  136.3232  154.5977 H   0  0  0  0  0  0  0  0  0  0  0  0
  151.3017  135.2747  155.9144 H   0  0  0  0  0  0  0  0  0  0  0  0
  151.6295  136.9708  156.2333 H   0  0  0  0  0  0  0  0  0  0  0  0
  149.3313  135.8372  154.5511 H   0  0  0  0  0  0  0  0  0  0  0  0
  147.1262  137.0737  155.8897 H   0  0  0  0  0  0  0  0  0  0  0  0
  147.6321  137.6752  157.4773 H   0  0  0  0  0  0  0  0  0  0  0  0
  147.8701  139.3911  155.4324 H   0  0  0  0  0  0  0  0  0  0  0  0
  149.2602  139.1597  156.4908 H   0  0  0  0  0  0  0  0  0  0  0  0
  148.8196  137.0817  153.0781 H   0  0  0  0  0  0  0  0  0  0  0  0
  151.3206  138.2790  153.6077 H   0  0  0  0  0  0  0  0  0  0  0  0
  150.3174  139.7083  153.5911 H   0  0  0  0  0  0  0  0  0  0  0  0
  153.2178  138.2365  155.2372 H   0  0  0  0  0  0  0  0  0  0  0  0
  152.1079  143.8138  159.1752 H   0  0  0  0  0  0  0  0  0  0  0  0
  153.5384  143.5255  160.1592 H   0  0  0  0  0  0  0  0  0  0  0  0
  151.9893  142.8205  160.6336 H   0  0  0  0  0  0  0  0  0  0  0  0
  152.6101  140.2182  160.2210 H   0  0  0  0  0  0  0  0  0  0  0  0
  153.8585  139.9852  159.0216 H   0  0  0  0  0  0  0  0  0  0  0  0
  155.1281  141.9009  160.3696 H   0  0  0  0  0  0  0  0  0  0  0  0
  153.4049  142.5492  161.9563 H   0  0  0  0  0  0  0  0  0  0  0  0
  153.1329  140.8774  162.4067 H   0  0  0  0  0  0  0  0  0  0  0  0
  155.5670  142.5738  163.0553 H   0  0  0  0  0  0  0  0  0  0  0  0
  154.6147  141.5686  164.1619 H   0  0  0  0  0  0  0  0  0  0  0  0
  154.9047  138.9719  161.1435 H   0  0  0  0  0  0  0  0  0  0  0  0
  156.2693  139.8022  160.3847 H   0  0  0  0  0  0  0  0  0  0  0  0
  148.9921  142.6326  157.3149 H   0  0  0  0  0  0  0  0  0  0  0  0
  1  2  1  0  0  0  0
  1 28  1  0  0  0  0
  1 29  1  0  0  0  0
  1 30  1  0  0  0  0
  2  6  1  0  0  0  0
  2  3  1  0  0  0  0
  2 31  1  0  0  0  0
  3  4  1  0  0  0  0
  4  5  1  0  0  0  0
  4 32  1  0  0  0  0
  4 33  1  0  0  0  0
  5  6  1  0  0  0  0
  5 34  1  0  0  0  0
  5 35  1  0  0  0  0
  6  7  1  0  0  0  0
  6  8  1  0  0  0  0
  7 36  1  0  0  0  0
  8  9  1  0  0  0  0
  8 37  1  0  0  0  0
  8 38  1  0  0  0  0
  9 27  1  0  0  0  0
  9 10  1  0  0  0  0
 10 11  2  0  0  0  0
 10 39  1  0  0  0  0
 11 12  1  0  0  0  0
 12 27  2  0  0  0  0
 12 13  1  0  0  0  0
 13 14  1  0  0  0  0
 13 24  2  0  0  0  0
 14 15  1  0  0  0  0
 14 16  1  0  0  0  0
 15 40  1  0  0  0  0
 15 41  1  0  0  0  0
 15 42  1  0  0  0  0
 16 17  1  0  0  0  0
 16 43  1  0  0  0  0
 16 44  1  0  0  0  0
 17 23  1  0  0  0  0
 17 18  1  0  0  0  0
 17 45  1  0  0  0  0
 18 19  1  0  0  0  0
 18 46  1  0  0  0  0
 18 47  1  0  0  0  0
 19 20  1  0  0  0  0
 19 48  1  0  0  0  0
 19 49  1  0  0  0  0
 20 21  2  0  0  0  0
 20 22  2  0  0  0  0
 20 23  1  0  0  0  0
 23 50  1  0  0  0  0
 23 51  1  0  0  0  0
 24 25  1  0  0  0  0
 25 26  2  0  0  0  0
 25 52  1  0  0  0  0
 26 27  1  0  0  0  0
M  END
> <s_m_source_file>
AV-unprocessed.smi

> <i_m_source_file_index>
266

> <i_lp_mmshare_version>
43012

> <i_f3d_flags>
0

> <s_epik_input>
W0NIMl0xW0NIMl1PW0NAQEhdKFtDSDNdKVtDQEBdMShbT0hdKVtDSDJdbihbY0hdbjIpYyhjMjMpbltjSF1uYzNOKFtDSDNdKVtDSDJdW0NAQEhdKFtDSDJdNClbQ0gyXVtDSDJdUzQoPU8pPU8=

> <s_epik_cmdline>
J2VwaWtfcHl0aG9uJywgJy1waCcsICc3LjAnLCAnLXRuJywgJzgnLCAnLW1hJywgJzIwMCcsICctbWV0YWxfYmluZGluZycsICctaW1hZScsICc8aW5maWxlLm1hZT4nLCAnLW9tYWUnLCAnPG91dGZpbGUubWFlPic=

> <r_lp_tautomer_probability>
1

> <r_epik_Ionization_Penalty>
0.00155497

> <r_epik_Ionization_Penalty_Charging>
0

> <r_epik_Ionization_Penalty_Neutral>
0.00155497

> <r_epik_State_Penalty>
-0

> <r_epik_Charging_Adjusted_Penalty>
0

> <i_epik_Tot_Q>
0

> <i_epik_Tot_abs_Q>
0

> <r_epik_Metal_State_Penalty>
-0

> <b_epik_Metal_Only>
0

> <s_lp_Force_Field>
OPLS_2005

> <r_lp_Energy>
32.9828

> <b_lp_Chiralities_Consistent>
1

> <s_lp_Variant>
AV-unprocessed.smi:266-8

> <Gold.Version>
5.8.1

> <Gold.Id.Protein>
6NUR|6NUR_protein|mol2

> <Gold.PLP.Fitness>
45.6600

> <Gold.PLP.PLP>
-38.3904

> <Gold.PLP.part.hbond>
-2.6923

> <Gold.PLP.part.metal>
0.0000

> <Gold.PLP.part.buried>
0.0643

> <Gold.PLP.part.nonpolar>
-35.2571

> <Gold.PLP.part.repulsive>
0.1585

> <Gold.PLP.ligand.clash>
0.0000

> <Gold.PLP.ligand.torsion>
0.7124

> <Gold.PLP.Chemscore.Hbond>
2.0000

> <Gold.PLP.Chemscore.CHOScore>
0.7547

> <Gold.PLP.Chemscore.Metal>
0.0000

> <Gold.Chemscore.Hbonds>
donor molecule, donor type, donor heavy atom, donor atom, acceptor molecule, acceptor atom, score
      L1  H     7    36       P1  7948  0.86
      P1  H  7997  8009       L1    11  0.60
      L1  C    25    52       P1  8028  0.49

> <Gold.PLP.Chemscore.Internal.Correction>
0.4304

> <Gold.Rescore>
     Score         DG    S(hbond)    S(metal)    S(lipo)     H(rot)  DE(clash)    DE(int)     intcor
     10.45     -13.52       1.58        0.00      84.02       2.76       1.32       1.75       ----

> <Gold.Chemscore.Fitness>
10.4492

> <Gold.Chemscore.DG>
-13.5214

> <Gold.Chemscore.ZeroCoef>
-5.4800

> <Gold.Chemscore.Hbond>
1.5828

> <Gold.Chemscore.Metal>
0.0000

> <Gold.Chemscore.Lipo>
84.0155

> <Gold.Chemscore.Internal_Hbond>
0.0000

> <Gold.Chemscore.DEClash>
1.3218

> <Gold.Chemscore.DEInternal>
1.7504

> <Gold.Chemscore.Rot>
2.7637

> <Gold.Chemscore.Internal.Correction>
   9.000000E+99

> <Gold.Chemscore.Hbonds>
donor molecule, donor type, donor heavy atom, donor atom, acceptor molecule, acceptor atom, score
      L1  H     7    36       P1  7948  0.82
      P1  H  7997  8009       L1    11  0.22

> <Gold.Chemscore.Hbond.Weighted>
-5.2866

> <Gold.Chemscore.Metal.Weighted>
-0.0000

> <Gold.Chemscore.Lipo.Weighted>
-9.8298

> <Gold.Chemscore.Internal_Hbond.Weighted>
0.0000

> <Gold.Chemscore.DEClash.Weighted>
1.3218

> <Gold.Chemscore.DEInternal.Weighted>
1.7504

> <Gold.Chemscore.Rot.Weighted>
7.0750

> <Gold.Chemscore.Internal.Correction.Weighted>
   9.000000E+99

> <Gold.Protein.RotatedTorsions>
[ 6907 6896 6895 6894 ] final  -53.72 input  -60.11 | X-H torsion
[ 7974 7965 7964 7962 ] final  153.49 input  175.53 | X-H torsion
[ 8008 7997 7996 7995 ] final -158.05 input   59.86 | X-H torsion
[ 10167 10162 10161 10158 ] final  122.30 input  -65.29 | X-H torsion
[ 10718 10713 10712 10709 ] final  142.18 input   66.30 | X-H torsion
[ 10763 10752 10751 10750 ] final  -86.83 input  -60.55 | X-H torsion
[ 11005 11000 10999 10996 ] final  -35.11 input  -57.11 | X-H torsion

> <Gold.Protein.ActiveResidues>
 VAL166  LYS551  ARG553  GLY616  TRP617  ASP618  TYR619  PRO620  LYS621  CYS622 
 ASP623  PHE694  ASN695  SER759  ASP760  ASP761  ALA762  ILE779  LEU786  VAL792 
 PHE793  MET794  SER795  GLU796  ALA797  LYS798  CYS799  TRP800  GLU811  SER814 

> <Gold.Protein.RotatedAtoms>
  150.8401  134.7690  159.6924 H   0  0  0  0  0  0  0  0  0  0  0  0  # atno 6907 bound_to 6896
  152.4490  134.5430  159.9854 H   0  0  0  0  0  0  0  0  0  0  0  0  # atno 6908 bound_to 6896
  151.5572  133.3370  159.3000 H   0  0  0  0  0  0  0  0  0  0  0  0  # atno 6909 bound_to 6896
  144.8151  139.6807  143.6125 H   0  0  0  0  0  0  0  0  0  0  0  0  # atno 7974 bound_to 7965
  155.7417  140.0815  157.2242 H   0  0  0  0  0  0  0  0  0  0  0  0  # atno 8008 bound_to 7997
  154.4021  140.1576  156.2679 H   0  0  0  0  0  0  0  0  0  0  0  0  # atno 8009 bound_to 7997
  155.9013  140.3409  155.6032 H   0  0  0  0  0  0  0  0  0  0  0  0  # atno 8010 bound_to 7997
  139.5867  144.7009  151.3392 H   0  0  0  0  0  0  0  0  0  0  0  0  # atno 10167 bound_to 10162
  157.3835  131.0995  151.0716 H   0  0  0  0  0  0  0  0  0  0  0  0  # atno 10718 bound_to 10713
  154.6268  135.5435  153.7636 H   0  0  0  0  0  0  0  0  0  0  0  0  # atno 10763 bound_to 10752
  153.0265  135.6426  154.1360 H   0  0  0  0  0  0  0  0  0  0  0  0  # atno 10764 bound_to 10752
  154.1292  135.2915  155.3169 H   0  0  0  0  0  0  0  0  0  0  0  0  # atno 10765 bound_to 10752
  140.9770  133.7077  156.1619 H   0  0  0  0  0  0  0  0  0  0  0  0  # atno 11005 bound_to 11000
  146.2453  139.6086  142.9463 LP  0  0  0  0  0  0  0  0  0  0  0  0  # atno 17320 bound_to 7965
  145.5233  141.0431  143.2423 LP  0  0  0  0  0  0  0  0  0  0  0  0  # atno 17321 bound_to 7965
  140.7137  143.7323  150.7615 LP  0  0  0  0  0  0  0  0  0  0  0  0  # atno 17342 bound_to 10162
  140.0868  143.4915  152.2500 LP  0  0  0  0  0  0  0  0  0  0  0  0  # atno 17343 bound_to 10162
  157.1776  130.6295  149.5661 LP  0  0  0  0  0  0  0  0  0  0  0  0  # atno 17370 bound_to 10713
  155.9781  130.4764  150.6636 LP  0  0  0  0  0  0  0  0  0  0  0  0  # atno 17371 bound_to 10713
  140.7244  134.4323  157.5572 LP  0  0  0  0  0  0  0  0  0  0  0  0  # atno 17394 bound_to 11000
  139.8934  134.8730  156.2223 LP  0  0  0  0  0  0  0  0  0  0  0  0  # atno 17395 bound_to 11000

$$$$
