AV-unprocessed.smi:3295|AV-procd|sdf|12635|dock8
  -GOLD-   2272018573D 1   1.00000     0.00000
 Structure written by MMmdl.
 37 38  0  0  0  0  0  0  0  0  1 V2000
  151.1710  137.8794  154.1920 C   0  0  0  0  0  0  0  0  0  0  0  0
  150.5162  139.2026  154.5488 C   0  0  0  0  0  0  0  0  0  0  0  0
  151.2521  140.1859  155.2445 C   0  0  0  0  0  0  0  0  0  0  0  0
  150.7479  141.3868  155.5950 N   0  0  0  0  0  0  0  0  0  0  0  0
  149.4713  141.6557  155.2533 C   0  0  0  0  0  0  0  0  0  0  0  0
  148.6461  140.7490  154.5599 C   0  0  0  0  0  0  0  0  0  0  0  0
  149.1706  139.4822  154.2054 C   0  0  0  0  0  0  0  0  0  0  0  0
  148.4301  138.4981  153.4897 N   0  0  0  0  0  0  0  0  0  0  0  0
  147.0977  138.3580  153.3759 C   0  0  0  0  0  0  0  0  0  0  0  0
  146.2550  139.0907  153.8933 O   0  0  0  0  0  0  0  0  0  0  0  0
  146.7896  137.2890  152.6282 N   0  0  0  0  0  0  0  0  0  0  0  0
  145.4359  136.8574  152.2903 C   0  0  0  0  0  0  0  0  0  0  0  0
  145.3882  135.8963  151.0744 C   0  0  0  0  0  0  0  0  0  0  0  0
  145.7985  136.6103  149.9246 O   0  0  0  0  0  0  0  0  0  0  0  0
  146.1954  134.5990  151.2452 C   0  0  0  0  0  0  0  0  0  0  0  0
  145.2776  133.6697  152.0457 C   0  0  0  0  0  0  0  0  0  0  0  0
  143.8421  134.1168  151.7280 C   0  0  0  0  0  0  0  0  0  0  0  0
  143.9647  135.3677  150.8457 C   0  0  0  0  0  0  0  0  0  0  0  0
  152.2010  137.8385  154.5473 H   0  0  0  0  0  0  0  0  0  0  0  0
  151.1818  137.7390  153.1109 H   0  0  0  0  0  0  0  0  0  0  0  0
  150.6254  137.0505  154.6436 H   0  0  0  0  0  0  0  0  0  0  0  0
  152.2785  140.0066  155.5290 H   0  0  0  0  0  0  0  0  0  0  0  0
  149.0962  142.6282  155.5360 H   0  0  0  0  0  0  0  0  0  0  0  0
  147.6413  141.0486  154.3062 H   0  0  0  0  0  0  0  0  0  0  0  0
  148.9855  137.7706  153.0646 H   0  0  0  0  0  0  0  0  0  0  0  0
  147.5467  136.7397  152.2494 H   0  0  0  0  0  0  0  0  0  0  0  0
  145.0536  136.3471  153.1748 H   0  0  0  0  0  0  0  0  0  0  0  0
  144.7739  137.7117  152.1367 H   0  0  0  0  0  0  0  0  0  0  0  0
  145.3375  137.4347  149.9012 H   0  0  0  0  0  0  0  0  0  0  0  0
  146.3766  134.1496  150.2674 H   0  0  0  0  0  0  0  0  0  0  0  0
  147.1703  134.7353  151.7134 H   0  0  0  0  0  0  0  0  0  0  0  0
  145.4475  132.6215  151.7980 H   0  0  0  0  0  0  0  0  0  0  0  0
  145.4704  133.7885  153.1125 H   0  0  0  0  0  0  0  0  0  0  0  0
  143.2784  133.3338  151.2196 H   0  0  0  0  0  0  0  0  0  0  0  0
  143.3122  134.3507  152.6520 H   0  0  0  0  0  0  0  0  0  0  0  0
  143.1947  136.1100  151.0599 H   0  0  0  0  0  0  0  0  0  0  0  0
  143.8400  135.0685  149.8035 H   0  0  0  0  0  0  0  0  0  0  0  0
  1  2  1  0  0  0  0
  1 19  1  0  0  0  0
  1 20  1  0  0  0  0
  1 21  1  0  0  0  0
  2  7  1  0  0  0  0
  2  3  2  0  0  0  0
  3  4  1  0  0  0  0
  3 22  1  0  0  0  0
  4  5  2  0  0  0  0
  5  6  1  0  0  0  0
  5 23  1  0  0  0  0
  6  7  2  0  0  0  0
  6 24  1  0  0  0  0
  7  8  1  0  0  0  0
  8  9  1  0  0  0  0
  8 25  1  0  0  0  0
  9 10  2  0  0  0  0
  9 11  1  0  0  0  0
 11 12  1  0  0  0  0
 11 26  1  0  0  0  0
 12 13  1  0  0  0  0
 12 27  1  0  0  0  0
 12 28  1  0  0  0  0
 13 18  1  0  0  0  0
 13 14  1  0  0  0  0
 13 15  1  0  0  0  0
 14 29  1  0  0  0  0
 15 16  1  0  0  0  0
 15 30  1  0  0  0  0
 15 31  1  0  0  0  0
 16 17  1  0  0  0  0
 16 32  1  0  0  0  0
 16 33  1  0  0  0  0
 17 18  1  0  0  0  0
 17 34  1  0  0  0  0
 17 35  1  0  0  0  0
 18 36  1  0  0  0  0
 18 37  1  0  0  0  0
M  END
> <s_m_source_file>
AV-unprocessed.smi

> <i_m_source_file_index>
3295

> <i_lp_mmshare_version>
43012

> <i_f3d_flags>
0

> <s_epik_input>
W0NIM11jMVtjSF1uW2NIXVtjSF1jMVtOSF1DKD1PKVtOSF1bQ0gyXUMyKFtPSF0pW0NIMl1bQ0gyXVtDSDJdW0NIMl0y

> <s_epik_cmdline>
J2VwaWtfcHl0aG9uJywgJy1waCcsICc3LjAnLCAnLXRuJywgJzgnLCAnLW1hJywgJzIwMCcsICctbWV0YWxfYmluZGluZycsICctaW1hZScsICc8aW5maWxlLm1hZT4nLCAnLW9tYWUnLCAnPG91dGZpbGUubWFlPic=

> <r_epik_Ionization_Penalty>
0.224243

> <r_epik_Ionization_Penalty_Charging>
0

> <r_epik_Ionization_Penalty_Neutral>
0.224243

> <r_epik_State_Penalty>
0.214648

> <r_epik_Charging_Adjusted_Penalty>
0.214648

> <i_epik_Tot_Q>
0

> <i_epik_Tot_abs_Q>
0

> <r_epik_Metal_State_Penalty>
0.155078

> <b_epik_Metal_Only>
0

> <s_lp_Force_Field>
OPLS_2005

> <r_lp_Energy>
30.8814

> <b_lp_Chiralities_Consistent>
1

> <s_lp_Variant>
AV-unprocessed.smi:3295-1

> <Gold.Version>
5.8.1

> <Gold.Id.Protein>
6NUR|6NUR_protein|mol2

> <Gold.PLP.Fitness>
44.1558

> <Gold.PLP.PLP>
-32.8502

> <Gold.PLP.part.hbond>
-5.8339

> <Gold.PLP.part.metal>
0.0000

> <Gold.PLP.part.buried>
0.9471

> <Gold.PLP.part.nonpolar>
-28.9766

> <Gold.PLP.part.repulsive>
0.3053

> <Gold.PLP.ligand.clash>
0.0000

> <Gold.PLP.ligand.torsion>
0.2441

> <Gold.PLP.Chemscore.Hbond>
2.9280

> <Gold.PLP.Chemscore.CHOScore>
1.0000

> <Gold.PLP.Chemscore.Metal>
0.0000

> <Gold.Chemscore.Hbonds>
donor molecule, donor type, donor heavy atom, donor atom, acceptor molecule, acceptor atom, score
      L1  H     8    25       P1  7948  0.91
      L1  H    11    26       P1  7948  1.00
      L1  H    14    29       P1 10171  1.00
      L1  C     5    23       P1  8028  1.00

> <Gold.PLP.Chemscore.Internal.Correction>
0.0097

> <Gold.Rescore>
     Score         DG    S(hbond)    S(metal)    S(lipo)     H(rot)  DE(clash)    DE(int)     intcor
     18.15     -19.50       2.96        0.00      72.73       1.71       0.06       1.29       ----

> <Gold.Chemscore.Fitness>
18.1472

> <Gold.Chemscore.DG>
-19.5016

> <Gold.Chemscore.ZeroCoef>
-5.4800

> <Gold.Chemscore.Hbond>
2.9613

> <Gold.Chemscore.Metal>
0.0000

> <Gold.Chemscore.Lipo>
72.7289

> <Gold.Chemscore.Internal_Hbond>
0.0000

> <Gold.Chemscore.DEClash>
0.0624

> <Gold.Chemscore.DEInternal>
1.2920

> <Gold.Chemscore.Rot>
1.7103

> <Gold.Chemscore.Internal.Correction>
   9.000000E+99

> <Gold.Chemscore.Hbonds>
donor molecule, donor type, donor heavy atom, donor atom, acceptor molecule, acceptor atom, score
      L1  H     8    25       P1  7948  0.89
      L1  H    11    26       P1  7948  0.93
      L1  H    14    29       P1 10171  0.99

> <Gold.Chemscore.Hbond.Weighted>
-9.8908

> <Gold.Chemscore.Metal.Weighted>
-0.0000

> <Gold.Chemscore.Lipo.Weighted>
-8.5093

> <Gold.Chemscore.Internal_Hbond.Weighted>
0.0000

> <Gold.Chemscore.DEClash.Weighted>
0.0624

> <Gold.Chemscore.DEInternal.Weighted>
1.2920

> <Gold.Chemscore.Rot.Weighted>
4.3785

> <Gold.Chemscore.Internal.Correction.Weighted>
   9.000000E+99

> <Gold.Protein.RotatedTorsions>
[ 6907 6896 6895 6894 ] final  -51.98 input  -60.11 | X-H torsion
[ 7974 7965 7964 7962 ] final  -12.54 input  175.53 | X-H torsion
[ 8008 7997 7996 7995 ] final   -1.02 input   59.86 | X-H torsion
[ 10167 10162 10161 10158 ] final -170.75 input  -65.29 | X-H torsion
[ 10718 10713 10712 10709 ] final -130.12 input   66.30 | X-H torsion
[ 10763 10752 10751 10750 ] final  161.72 input  -60.55 | X-H torsion
[ 11005 11000 10999 10996 ] final -168.59 input  -57.11 | X-H torsion

> <Gold.Protein.ActiveResidues>
 VAL166  LYS551  ARG553  GLY616  TRP617  ASP618  TYR619  PRO620  LYS621  CYS622 
 ASP623  PHE694  ASN695  SER759  ASP760  ASP761  ALA762  ILE779  LEU786  VAL792 
 PHE793  MET794  SER795  GLU796  ALA797  LYS798  CYS799  TRP800  GLU811  SER814 

> <Gold.Protein.RotatedAtoms>
  150.8560  134.7899  159.7045 H   0  0  0  0  0  0  0  0  0  0  0  0  # atno 6907 bound_to 6896
  152.4611  134.5178  159.9783 H   0  0  0  0  0  0  0  0  0  0  0  0  # atno 6908 bound_to 6896
  151.5290  133.3414  159.2950 H   0  0  0  0  0  0  0  0  0  0  0  0  # atno 6909 bound_to 6896
  146.2148  140.3073  142.8380 H   0  0  0  0  0  0  0  0  0  0  0  0  # atno 7974 bound_to 7965
  154.6515  140.2570  155.7208 H   0  0  0  0  0  0  0  0  0  0  0  0  # atno 8008 bound_to 7997
  156.2577  140.2867  156.0872 H   0  0  0  0  0  0  0  0  0  0  0  0  # atno 8009 bound_to 7997
  155.1443  140.0381  157.2796 H   0  0  0  0  0  0  0  0  0  0  0  0  # atno 8010 bound_to 7997
  139.5843  144.1353  152.1556 H   0  0  0  0  0  0  0  0  0  0  0  0  # atno 10167 bound_to 10162
  156.2113  130.6920  151.0652 H   0  0  0  0  0  0  0  0  0  0  0  0  # atno 10718 bound_to 10713
  154.2673  135.2766  155.2753 H   0  0  0  0  0  0  0  0  0  0  0  0  # atno 10763 bound_to 10752
  154.5332  135.5724  153.6779 H   0  0  0  0  0  0  0  0  0  0  0  0  # atno 10764 bound_to 10752
  152.9951  135.6233  154.2826 H   0  0  0  0  0  0  0  0  0  0  0  0  # atno 10765 bound_to 10752
  140.5403  134.5529  157.5098 H   0  0  0  0  0  0  0  0  0  0  0  0  # atno 11005 bound_to 11000
  144.9014  140.7647  143.5865 LP  0  0  0  0  0  0  0  0  0  0  0  0  # atno 17320 bound_to 7965
  145.2999  139.1854  143.4695 LP  0  0  0  0  0  0  0  0  0  0  0  0  # atno 17321 bound_to 7965
  140.0913  144.5618  150.7053 LP  0  0  0  0  0  0  0  0  0  0  0  0  # atno 17342 bound_to 10162
  140.7117  143.2510  151.4560 LP  0  0  0  0  0  0  0  0  0  0  0  0  # atno 17343 bound_to 10162
  157.7040  131.0764  150.6729 LP  0  0  0  0  0  0  0  0  0  0  0  0  # atno 17370 bound_to 10713
  156.6788  130.4561  149.5634 LP  0  0  0  0  0  0  0  0  0  0  0  0  # atno 17371 bound_to 10713
  139.9508  134.7621  156.0454 LP  0  0  0  0  0  0  0  0  0  0  0  0  # atno 17394 bound_to 11000
  141.1231  133.6607  156.3266 LP  0  0  0  0  0  0  0  0  0  0  0  0  # atno 17395 bound_to 11000

$$$$
