AV-unprocessed.smi:83|AV-procd|sdf|802|dock10
  -GOLD-   2262017193D 1   1.00000     0.00000
 Structure written by MMmdl.
 56 59  0  0  0  0  0  0  0  0  1 V2000
  152.0006  144.1980  159.5620 C   0  0  0  0  0  0  0  0  0  0  0  0
  152.1419  142.6793  159.4491 C   0  0  0  0  0  0  0  0  0  0  0  0
  152.4915  142.0383  160.4398 O   0  0  0  0  0  0  0  0  0  0  0  0
  151.8771  142.0943  158.2633 N   0  0  0  0  0  0  0  0  0  0  0  0
  151.9797  140.6573  158.0239 C   0  0  0  0  0  0  0  0  0  0  0  0
  151.6626  140.4669  156.5372 C   0  0  0  0  0  0  0  0  0  0  0  0
  150.7922  141.6702  156.1765 C   0  0  1  0  0  0  0  0  0  0  0  0
  149.3039  141.3573  156.4685 C   0  0  0  0  0  0  0  0  0  0  0  0
  148.5476  140.8890  155.3058 N   0  0  0  0  0  0  0  0  0  0  0  0
  147.7622  141.8862  154.5803 C   0  0  0  0  0  0  0  0  0  0  0  0
  148.2674  139.5635  155.1167 C   0  0  0  0  0  0  0  0  0  0  0  0
  148.9107  138.6569  155.9029 N   0  0  0  0  0  0  0  0  0  0  0  0
  148.7211  137.3452  155.7445 C   0  0  0  0  0  0  0  0  0  0  0  0
  147.9408  136.7180  154.8661 N   0  0  0  0  0  0  0  0  0  0  0  0
  147.2746  137.6079  154.0793 C   0  0  0  0  0  0  0  0  0  0  0  0
  147.3664  139.0311  154.1388 C   0  0  0  0  0  0  0  0  0  0  0  0
  146.5199  139.5768  153.1779 N   0  0  0  0  0  0  0  0  0  0  0  0
  145.9884  138.5509  152.5752 C   0  0  0  0  0  0  0  0  0  0  0  0
  146.3917  137.3278  153.0513 N   0  0  0  0  0  0  0  0  0  0  0  0
  145.9694  136.0294  152.5569 C   0  0  0  0  0  0  0  0  0  0  0  0
  145.1964  136.1360  151.2278 C   0  0  1  0  0  0  0  0  0  0  0  0
  146.0500  136.6733  150.2358 O   0  0  0  0  0  0  0  0  0  0  0  0
  144.6736  134.7711  150.7450 C   0  0  2  0  0  0  0  0  0  0  0  0
  143.7027  134.0859  151.7088 C   0  0  0  0  0  0  0  0  0  0  0  0
  143.8560  132.6074  151.3867 C   0  0  0  0  0  0  0  0  0  0  0  0
  145.1438  132.5370  150.5621 C   0  0  0  0  0  0  0  0  0  0  0  0
  145.7301  133.8253  150.6816 O   0  0  0  0  0  0  0  0  0  0  0  0
  151.4031  142.7709  157.0584 C   0  0  0  0  0  0  0  0  0  0  0  0
  152.6216  144.7005  158.8201 H   0  0  0  0  0  0  0  0  0  0  0  0
  152.3091  144.5422  160.5495 H   0  0  0  0  0  0  0  0  0  0  0  0
  150.9645  144.4996  159.4122 H   0  0  0  0  0  0  0  0  0  0  0  0
  152.9691  140.2724  158.2745 H   0  0  0  0  0  0  0  0  0  0  0  0
  151.2459  140.1386  158.6429 H   0  0  0  0  0  0  0  0  0  0  0  0
  152.5891  140.5054  155.9626 H   0  0  0  0  0  0  0  0  0  0  0  0
  151.1879  139.5080  156.3265 H   0  0  0  0  0  0  0  0  0  0  0  0
  150.9024  141.9207  155.1206 H   0  0  0  0  0  0  0  0  0  0  0  0
  149.2682  140.5572  157.2086 H   0  0  0  0  0  0  0  0  0  0  0  0
  148.8222  142.1888  156.9708 H   0  0  0  0  0  0  0  0  0  0  0  0
  147.7961  141.7010  153.5061 H   0  0  0  0  0  0  0  0  0  0  0  0
  148.1484  142.8911  154.7526 H   0  0  0  0  0  0  0  0  0  0  0  0
  146.7214  141.8685  154.9055 H   0  0  0  0  0  0  0  0  0  0  0  0
  149.2801  136.7072  156.4132 H   0  0  0  0  0  0  0  0  0  0  0  0
  145.2896  138.6595  151.7584 H   0  0  0  0  0  0  0  0  0  0  0  0
  146.8456  135.3892  152.4456 H   0  0  0  0  0  0  0  0  0  0  0  0
  145.3437  135.5678  153.3217 H   0  0  0  0  0  0  0  0  0  0  0  0
  144.3549  136.8186  151.3544 H   0  0  0  0  0  0  0  0  0  0  0  0
  145.6118  137.4046  149.8279 H   0  0  0  0  0  0  0  0  0  0  0  0
  144.2184  134.8611  149.7564 H   0  0  0  0  0  0  0  0  0  0  0  0
  144.0057  134.2664  152.7411 H   0  0  0  0  0  0  0  0  0  0  0  0
  142.6778  134.4398  151.5938 H   0  0  0  0  0  0  0  0  0  0  0  0
  143.9286  132.0167  152.3005 H   0  0  0  0  0  0  0  0  0  0  0  0
  143.0094  132.2326  150.8105 H   0  0  0  0  0  0  0  0  0  0  0  0
  145.8250  131.7618  150.9132 H   0  0  0  0  0  0  0  0  0  0  0  0
  144.9171  132.3422  149.5128 H   0  0  0  0  0  0  0  0  0  0  0  0
  150.7125  143.5856  157.2608 H   0  0  0  0  0  0  0  0  0  0  0  0
  152.2679  143.2089  156.5579 H   0  0  0  0  0  0  0  0  0  0  0  0
  1  2  1  0  0  0  0
  1 29  1  0  0  0  0
  1 30  1  0  0  0  0
  1 31  1  0  0  0  0
  2  3  2  0  0  0  0
  2  4  1  0  0  0  0
  4 28  1  0  0  0  0
  4  5  1  0  0  0  0
  5  6  1  0  0  0  0
  5 32  1  0  0  0  0
  5 33  1  0  0  0  0
  6  7  1  0  0  0  0
  6 34  1  0  0  0  0
  6 35  1  0  0  0  0
  7  8  1  0  0  0  0
  7 28  1  0  0  0  0
  7 36  1  0  0  0  0
  8  9  1  0  0  0  0
  8 37  1  0  0  0  0
  8 38  1  0  0  0  0
  9 10  1  0  0  0  0
  9 11  1  0  0  0  0
 10 39  1  0  0  0  0
 10 40  1  0  0  0  0
 10 41  1  0  0  0  0
 11 16  1  0  0  0  0
 11 12  2  0  0  0  0
 12 13  1  0  0  0  0
 13 14  2  0  0  0  0
 13 42  1  0  0  0  0
 14 15  1  0  0  0  0
 15 19  1  0  0  0  0
 15 16  2  0  0  0  0
 16 17  1  0  0  0  0
 17 18  2  0  0  0  0
 18 19  1  0  0  0  0
 18 43  1  0  0  0  0
 19 20  1  0  0  0  0
 20 21  1  0  0  0  0
 20 44  1  0  0  0  0
 20 45  1  0  0  0  0
 21 22  1  0  0  0  0
 21 23  1  0  0  0  0
 21 46  1  0  0  0  0
 22 47  1  0  0  0  0
 23 27  1  0  0  0  0
 23 24  1  0  0  0  0
 23 48  1  0  0  0  0
 24 25  1  0  0  0  0
 24 49  1  0  0  0  0
 24 50  1  0  0  0  0
 25 26  1  0  0  0  0
 25 51  1  0  0  0  0
 25 52  1  0  0  0  0
 26 27  1  0  0  0  0
 26 53  1  0  0  0  0
 26 54  1  0  0  0  0
 28 55  1  0  0  0  0
 28 56  1  0  0  0  0
M  END
> <s_m_source_file>
AV-unprocessed.smi

> <i_m_source_file_index>
83

> <i_lp_mmshare_version>
43012

> <i_f3d_flags>
0

> <s_epik_input>
W0NIM11DKD1PKU4xW0NIMl1bQ0gyXVtDQEhdKFtDSDJdMSlbQ0gyXU4oW0NIM10pYyhuW2NIXW4yKWMoYzIzKW5bY0hdbjNbQ0gyXVtDQEhdKFtPSF0pW0NAQEhdNFtDSDJdW0NIMl1bQ0gyXU80

> <s_epik_cmdline>
J2VwaWtfcHl0aG9uJywgJy1waCcsICc3LjAnLCAnLXRuJywgJzgnLCAnLW1hJywgJzIwMCcsICctbWV0YWxfYmluZGluZycsICctaW1hZScsICc8aW5maWxlLm1hZT4nLCAnLW9tYWUnLCAnPG91dGZpbGUubWFlPic=

> <r_lp_tautomer_probability>
1

> <r_epik_Ionization_Penalty>
0.00109752

> <r_epik_Ionization_Penalty_Charging>
0

> <r_epik_Ionization_Penalty_Neutral>
0.00109752

> <r_epik_State_Penalty>
0.000634803

> <r_epik_Charging_Adjusted_Penalty>
0.000634803

> <i_epik_Tot_Q>
0

> <i_epik_Tot_abs_Q>
0

> <r_epik_Metal_State_Penalty>
-0

> <b_epik_Metal_Only>
0

> <s_lp_Force_Field>
OPLS_2005

> <r_lp_Energy>
53.2546

> <b_lp_Chiralities_Consistent>
1

> <s_lp_Variant>
AV-unprocessed.smi:83-3

> <Gold.Version>
5.8.1

> <Gold.Id.Protein>
6NUR|6NUR_protein|mol2

> <Gold.PLP.Fitness>
45.8522

> <Gold.PLP.PLP>
-39.7137

> <Gold.PLP.part.hbond>
-1.6356

> <Gold.PLP.part.metal>
0.0000

> <Gold.PLP.part.buried>
-1.2435

> <Gold.PLP.part.nonpolar>
-37.4432

> <Gold.PLP.part.repulsive>
1.4139

> <Gold.PLP.ligand.clash>
0.0000

> <Gold.PLP.ligand.torsion>
0.9073

> <Gold.PLP.Chemscore.Hbond>
0.9760

> <Gold.PLP.Chemscore.CHOScore>
1.5451

> <Gold.PLP.Chemscore.Metal>
0.0000

> <Gold.Chemscore.Hbonds>
donor molecule, donor type, donor heavy atom, donor atom, acceptor molecule, acceptor atom, score
      L1  H    22    47       P1 10171  0.80
      L1  C    18    43       P1 10171  1.00
      L1  C    18    43       P1 10175  0.54

> <Gold.PLP.Chemscore.Internal.Correction>
0.3897

> <Gold.Rescore>
     Score         DG    S(hbond)    S(metal)    S(lipo)     H(rot)  DE(clash)    DE(int)     intcor
      8.53     -12.80       0.97        0.00      91.92       2.62       1.21       3.06       ----

> <Gold.Chemscore.Fitness>
8.5263

> <Gold.Chemscore.DG>
-12.7951

> <Gold.Chemscore.ZeroCoef>
-5.4800

> <Gold.Chemscore.Hbond>
0.9747

> <Gold.Chemscore.Metal>
0.0000

> <Gold.Chemscore.Lipo>
91.9171

> <Gold.Chemscore.Internal_Hbond>
0.0000

> <Gold.Chemscore.DEClash>
1.2130

> <Gold.Chemscore.DEInternal>
3.0558

> <Gold.Chemscore.Rot>
2.6152

> <Gold.Chemscore.Internal.Correction>
   9.000000E+99

> <Gold.Chemscore.Hbonds>
donor molecule, donor type, donor heavy atom, donor atom, acceptor molecule, acceptor atom, score
      L1  H    22    47       P1 10171  0.75

> <Gold.Chemscore.Hbond.Weighted>
-3.2557

> <Gold.Chemscore.Metal.Weighted>
-0.0000

> <Gold.Chemscore.Lipo.Weighted>
-10.7543

> <Gold.Chemscore.Internal_Hbond.Weighted>
0.0000

> <Gold.Chemscore.DEClash.Weighted>
1.2130

> <Gold.Chemscore.DEInternal.Weighted>
3.0558

> <Gold.Chemscore.Rot.Weighted>
6.6949

> <Gold.Chemscore.Internal.Correction.Weighted>
   9.000000E+99

> <Gold.Protein.RotatedTorsions>
[ 6907 6896 6895 6894 ] final   76.37 input  -60.11 | X-H torsion
[ 7974 7965 7964 7962 ] final -170.00 input  175.53 | X-H torsion
[ 8008 7997 7996 7995 ] final   36.41 input   59.86 | X-H torsion
[ 10167 10162 10161 10158 ] final  -61.16 input  -65.29 | X-H torsion
[ 10718 10713 10712 10709 ] final -134.66 input   66.30 | X-H torsion
[ 10763 10752 10751 10750 ] final -129.66 input  -60.55 | X-H torsion
[ 11005 11000 10999 10996 ] final  115.31 input  -57.11 | X-H torsion

> <Gold.Protein.ActiveResidues>
 VAL166  LYS551  ARG553  GLY616  TRP617  ASP618  TYR619  PRO620  LYS621  CYS622 
 ASP623  PHE694  ASN695  SER759  ASP760  ASP761  ALA762  ILE779  LEU786  VAL792 
 PHE793  MET794  SER795  GLU796  ALA797  LYS798  CYS799  TRP800  GLU811  SER814 

> <Gold.Protein.RotatedAtoms>
  152.5070  134.3979  159.9406 H   0  0  0  0  0  0  0  0  0  0  0  0  # atno 6907 bound_to 6896
  151.3941  133.3773  159.2732 H   0  0  0  0  0  0  0  0  0  0  0  0  # atno 6908 bound_to 6896
  150.9410  134.8840  159.7671 H   0  0  0  0  0  0  0  0  0  0  0  0  # atno 6909 bound_to 6896
  144.7176  140.2137  143.6324 H   0  0  0  0  0  0  0  0  0  0  0  0  # atno 7974 bound_to 7965
  155.1869  140.3304  155.4365 H   0  0  0  0  0  0  0  0  0  0  0  0  # atno 8008 bound_to 7997
  156.2456  140.1917  156.6914 H   0  0  0  0  0  0  0  0  0  0  0  0  # atno 8009 bound_to 7997
  154.6232  140.0592  156.9627 H   0  0  0  0  0  0  0  0  0  0  0  0  # atno 8010 bound_to 7997
  140.6024  143.2365  151.5898 H   0  0  0  0  0  0  0  0  0  0  0  0  # atno 10167 bound_to 10162
  156.2578  130.7191  151.1114 H   0  0  0  0  0  0  0  0  0  0  0  0  # atno 10718 bound_to 10713
  154.8757  135.3888  154.3955 H   0  0  0  0  0  0  0  0  0  0  0  0  # atno 10763 bound_to 10752
  153.4686  135.7030  153.6012 H   0  0  0  0  0  0  0  0  0  0  0  0  # atno 10764 bound_to 10752
  153.4479  135.3840  155.2235 H   0  0  0  0  0  0  0  0  0  0  0  0  # atno 10765 bound_to 10752
  139.9006  134.9582  156.7025 H   0  0  0  0  0  0  0  0  0  0  0  0  # atno 11005 bound_to 11000
  145.8566  139.2202  143.1741 LP  0  0  0  0  0  0  0  0  0  0  0  0  # atno 17320 bound_to 7965
  146.0211  140.8346  142.9922 LP  0  0  0  0  0  0  0  0  0  0  0  0  # atno 17321 bound_to 7965
  139.5301  144.2942  152.1127 LP  0  0  0  0  0  0  0  0  0  0  0  0  # atno 17342 bound_to 10162
  140.2126  144.4547  150.6379 LP  0  0  0  0  0  0  0  0  0  0  0  0  # atno 17343 bound_to 10162
  157.7239  131.0663  150.6017 LP  0  0  0  0  0  0  0  0  0  0  0  0  # atno 17370 bound_to 10713
  156.6102  130.4378  149.5862 LP  0  0  0  0  0  0  0  0  0  0  0  0  # atno 17371 bound_to 10713
  140.7139  133.9199  155.8102 LP  0  0  0  0  0  0  0  0  0  0  0  0  # atno 17394 bound_to 11000
  141.0279  134.0797  157.4047 LP  0  0  0  0  0  0  0  0  0  0  0  0  # atno 17395 bound_to 11000

$$$$
