AV-unprocessed.smi:3343|AV-procd|sdf|12891|dock3
  -GOLD-   2272019293D 1   1.00000     0.00000
 Structure written by MMmdl.
 42 43  0  0  0  0  0  0  0  0  2 V2000
  147.3870  132.4410  160.8299 C   0  0  0  0  0  0  0  0  0  0  0  0
  147.2502  133.7822  160.0816 C   0  0  2  0  0  0  0  0  0  0  0  0
  148.2321  133.8961  158.9060 C   0  0  0  0  0  0  0  0  0  0  0  0
  149.0716  134.7964  158.8762 O   0  0  0  0  0  0  0  0  0  0  0  0
  148.1160  132.9711  157.9400 N   0  0  0  0  0  0  0  0  0  0  0  0
  148.9305  132.9025  156.7302 C   0  0  0  0  0  0  0  0  0  0  0  0
  148.0872  132.8533  155.4383 C   0  0  0  0  0  0  0  0  0  0  0  0
  148.8980  132.6488  154.2345 N   0  0  0  0  0  0  0  0  0  0  0  0
  149.2924  131.2469  154.0666 C   0  0  0  0  0  0  0  0  0  0  0  0
  148.0973  130.3478  153.6803 C   0  0  0  0  0  0  0  0  0  0  0  0
  147.4552  130.8421  152.4401 N   0  3  0  0  0  0  0  0  0  0  0  0
  146.3380  129.9833  151.9935 C   0  0  0  0  0  0  0  0  0  0  0  0
  147.0629  132.2634  152.5848 C   0  0  0  0  0  0  0  0  0  0  0  0
  148.2839  133.1172  152.9871 C   0  0  0  0  0  0  0  0  0  0  0  0
  147.3954  134.9293  160.9694 N   0  0  0  0  0  0  0  0  0  0  0  0
  147.4094  136.2342  160.6885 C   0  0  0  0  0  0  0  0  0  0  0  0
  147.6109  137.0110  161.7437 N   0  0  0  0  0  0  0  0  0  0  0  0
  147.7347  136.0540  162.7105 C   0  0  0  0  0  0  0  0  0  0  0  0
  147.6231  134.7911  162.2995 N   0  0  0  0  0  0  0  0  0  0  0  0
  147.2258  131.5984  160.1566 H   0  0  0  0  0  0  0  0  0  0  0  0
  146.6489  132.3659  161.6289 H   0  0  0  0  0  0  0  0  0  0  0  0
  148.3728  132.3189  161.2805 H   0  0  0  0  0  0  0  0  0  0  0  0
  146.2382  133.8205  159.6744 H   0  0  0  0  0  0  0  0  0  0  0  0
  147.3963  132.2703  158.0413 H   0  0  0  0  0  0  0  0  0  0  0  0
  149.6279  133.7409  156.7122 H   0  0  0  0  0  0  0  0  0  0  0  0
  149.5459  132.0035  156.7915 H   0  0  0  0  0  0  0  0  0  0  0  0
  147.4236  131.9918  155.5231 H   0  0  0  0  0  0  0  0  0  0  0  0
  147.4337  133.7206  155.3540 H   0  0  0  0  0  0  0  0  0  0  0  0
  150.0567  131.1909  153.2901 H   0  0  0  0  0  0  0  0  0  0  0  0
  149.7608  130.8826  154.9819 H   0  0  0  0  0  0  0  0  0  0  0  0
  148.4513  129.3292  153.5184 H   0  0  0  0  0  0  0  0  0  0  0  0
  147.3652  130.2960  154.4873 H   0  0  0  0  0  0  0  0  0  0  0  0
  145.5316  129.9751  152.7282 H   0  0  0  0  0  0  0  0  0  0  0  0
  146.6776  128.9575  151.8457 H   0  0  0  0  0  0  0  0  0  0  0  0
  145.9345  130.3407  151.0455 H   0  0  0  0  0  0  0  0  0  0  0  0
  146.6694  132.6247  151.6341 H   0  0  0  0  0  0  0  0  0  0  0  0
  146.2553  132.3621  153.3116 H   0  0  0  0  0  0  0  0  0  0  0  0
  148.0066  134.1673  153.0686 H   0  0  0  0  0  0  0  0  0  0  0  0
  149.0338  133.0703  152.1961 H   0  0  0  0  0  0  0  0  0  0  0  0
  147.2732  136.6245  159.6907 H   0  0  0  0  0  0  0  0  0  0  0  0
  147.9180  136.2950  163.7472 H   0  0  0  0  0  0  0  0  0  0  0  0
  148.1591  130.8076  151.7163 H   0  0  0  0  0  0  0  0  0  0  0  0
  1  2  1  0  0  0  0
  1 20  1  0  0  0  0
  1 21  1  0  0  0  0
  1 22  1  0  0  0  0
  2  3  1  0  0  0  0
  2 15  1  0  0  0  0
  2 23  1  0  0  0  0
  3  4  2  0  0  0  0
  3  5  1  0  0  0  0
  5  6  1  0  0  0  0
  5 24  1  0  0  0  0
  6  7  1  0  0  0  0
  6 25  1  0  0  0  0
  6 26  1  0  0  0  0
  7  8  1  0  0  0  0
  7 27  1  0  0  0  0
  7 28  1  0  0  0  0
  8 14  1  0  0  0  0
  8  9  1  0  0  0  0
  9 10  1  0  0  0  0
  9 29  1  0  0  0  0
  9 30  1  0  0  0  0
 10 11  1  0  0  0  0
 10 31  1  0  0  0  0
 10 32  1  0  0  0  0
 11 12  1  0  0  0  0
 11 13  1  0  0  0  0
 11 42  1  0  0  0  0
 12 33  1  0  0  0  0
 12 34  1  0  0  0  0
 12 35  1  0  0  0  0
 13 14  1  0  0  0  0
 13 36  1  0  0  0  0
 13 37  1  0  0  0  0
 14 38  1  0  0  0  0
 14 39  1  0  0  0  0
 15 19  1  0  0  0  0
 15 16  1  0  0  0  0
 16 17  2  0  0  0  0
 16 40  1  0  0  0  0
 17 18  1  0  0  0  0
 18 19  2  0  0  0  0
 18 41  1  0  0  0  0
M  CHG  1  11   1
M  END
> <s_m_source_file>
AV-unprocessed.smi

> <i_m_source_file_index>
3343

> <i_lp_mmshare_version>
43012

> <i_f3d_flags>
0

> <s_epik_input>
bjFbY0hdbltjSF1uMVtDQEhdKFtDSDNdKUMoPU8pW05IXVtDSDJdW0NIMl1OMltDSDJdW0NIMl1OKFtDSDNdKVtDSDJdW0NIMl0y

> <s_epik_cmdline>
J2VwaWtfcHl0aG9uJywgJy1waCcsICc3LjAnLCAnLXRuJywgJzgnLCAnLW1hJywgJzIwMCcsICctbWV0YWxfYmluZGluZycsICctaW1hZScsICc8aW5maWxlLm1hZT4nLCAnLW9tYWUnLCAnPG91dGZpbGUubWFlPic=

> <r_lp_tautomer_probability>
1

> <r_epik_Ionization_Penalty>
0.0359277

> <r_epik_Ionization_Penalty_Charging>
0.0358005

> <r_epik_Ionization_Penalty_Neutral>
0.000127293

> <r_epik_State_Penalty>
0.0476325

> <r_epik_Charging_Adjusted_Penalty>
0.0834329

> <i_epik_Tot_Q>
1

> <i_epik_Tot_abs_Q>
1

> <r_epik_Metal_State_Penalty>
0.0476323

> <b_epik_Metal_Only>
0

> <s_lp_Force_Field>
OPLS_2005

> <r_lp_Energy>
27.0486

> <b_lp_Chiralities_Consistent>
1

> <s_lp_Variant>
AV-unprocessed.smi:3343-1

> <Gold.Version>
5.8.1

> <Gold.Id.Protein>
6NUR|6NUR_protein|mol2

> <Gold.PLP.Fitness>
41.4885

> <Gold.PLP.PLP>
-30.8297

> <Gold.PLP.part.hbond>
-4.0000

> <Gold.PLP.part.metal>
0.0000

> <Gold.PLP.part.buried>
-4.1936

> <Gold.PLP.part.nonpolar>
-22.2778

> <Gold.PLP.part.repulsive>
0.1334

> <Gold.PLP.ligand.clash>
0.0000

> <Gold.PLP.ligand.torsion>
0.3480

> <Gold.PLP.Chemscore.Hbond>
3.7280

> <Gold.PLP.Chemscore.CHOScore>
0.0000

> <Gold.PLP.Chemscore.Metal>
0.0000

> <Gold.Chemscore.Hbonds>
donor molecule, donor type, donor heavy atom, donor atom, acceptor molecule, acceptor atom, score
      L1  H    11    42       P1 10747  1.00
      P1  H  6896  6909       L1     4  1.00
      P1  H  6931  6943       L1    17  1.00
      P1  H  6934  6947       L1    17  0.44

> <Gold.PLP.Chemscore.Internal.Correction>
0.1709

> <Gold.Rescore>
     Score         DG    S(hbond)    S(metal)    S(lipo)     H(rot)  DE(clash)    DE(int)     intcor
     12.85     -14.59       3.11        0.00      46.68       2.63       0.02       1.71       ----

> <Gold.Chemscore.Fitness>
12.8533

> <Gold.Chemscore.DG>
-14.5864

> <Gold.Chemscore.ZeroCoef>
-5.4800

> <Gold.Chemscore.Hbond>
3.1053

> <Gold.Chemscore.Metal>
0.0000

> <Gold.Chemscore.Lipo>
46.6811

> <Gold.Chemscore.Internal_Hbond>
0.0000

> <Gold.Chemscore.DEClash>
0.0239

> <Gold.Chemscore.DEInternal>
1.7093

> <Gold.Chemscore.Rot>
2.6278

> <Gold.Chemscore.Internal.Correction>
   9.000000E+99

> <Gold.Chemscore.Hbonds>
donor molecule, donor type, donor heavy atom, donor atom, acceptor molecule, acceptor atom, score
      L1  H    11    42       P1 10747  1.00
      P1  H  6896  6909       L1     4  0.69
      P1  H  6931  6943       L1    17  0.68
      P1  H  6934  6947       L1    17  0.17

> <Gold.Chemscore.Hbond.Weighted>
-10.3718

> <Gold.Chemscore.Metal.Weighted>
-0.0000

> <Gold.Chemscore.Lipo.Weighted>
-5.4617

> <Gold.Chemscore.Internal_Hbond.Weighted>
0.0000

> <Gold.Chemscore.DEClash.Weighted>
0.0239

> <Gold.Chemscore.DEInternal.Weighted>
1.7093

> <Gold.Chemscore.Rot.Weighted>
6.7271

> <Gold.Chemscore.Internal.Correction.Weighted>
   9.000000E+99

> <Gold.Protein.RotatedTorsions>
[ 6907 6896 6895 6894 ] final   22.32 input  -60.11 | X-H torsion
[ 7974 7965 7964 7962 ] final -105.93 input  175.53 | X-H torsion
[ 8008 7997 7996 7995 ] final -176.26 input   59.86 | X-H torsion
[ 10167 10162 10161 10158 ] final  -22.73 input  -65.29 | X-H torsion
[ 10718 10713 10712 10709 ] final  -76.09 input   66.30 | X-H torsion
[ 10763 10752 10751 10750 ] final -173.29 input  -60.55 | X-H torsion
[ 11005 11000 10999 10996 ] final -170.69 input  -57.11 | X-H torsion

> <Gold.Protein.ActiveResidues>
 VAL166  LYS551  ARG553  GLY616  TRP617  ASP618  TYR619  PRO620  LYS621  CYS622 
 ASP623  PHE694  ASN695  SER759  ASP760  ASP761  ALA762  ILE779  LEU786  VAL792 
 PHE793  MET794  SER795  GLU796  ALA797  LYS798  CYS799  TRP800  GLU811  SER814 

> <Gold.Protein.RotatedAtoms>
  151.9254  135.0280  160.0524 H   0  0  0  0  0  0  0  0  0  0  0  0  # atno 6907 bound_to 6896
  152.2164  133.4945  159.5146 H   0  0  0  0  0  0  0  0  0  0  0  0  # atno 6908 bound_to 6896
  150.6989  134.1316  159.4114 H   0  0  0  0  0  0  0  0  0  0  0  0  # atno 6909 bound_to 6896
  145.2242  140.9146  143.3242 H   0  0  0  0  0  0  0  0  0  0  0  0  # atno 7974 bound_to 7965
  155.9927  140.1204  157.0623 H   0  0  0  0  0  0  0  0  0  0  0  0  # atno 8008 bound_to 7997
  154.4216  140.1122  156.5656 H   0  0  0  0  0  0  0  0  0  0  0  0  # atno 8009 bound_to 7997
  155.6321  140.3473  155.4688 H   0  0  0  0  0  0  0  0  0  0  0  0  # atno 8010 bound_to 7997
  140.7286  143.4508  151.0520 H   0  0  0  0  0  0  0  0  0  0  0  0  # atno 10167 bound_to 10162
  156.0186  130.4457  150.3141 H   0  0  0  0  0  0  0  0  0  0  0  0  # atno 10718 bound_to 10713
  154.6096  135.2863  155.0447 H   0  0  0  0  0  0  0  0  0  0  0  0  # atno 10763 bound_to 10752
  154.1682  135.6477  153.5006 H   0  0  0  0  0  0  0  0  0  0  0  0  # atno 10764 bound_to 10752
  153.0189  135.5394  154.6844 H   0  0  0  0  0  0  0  0  0  0  0  0  # atno 10765 bound_to 10752
  140.5166  134.5750  157.5035 H   0  0  0  0  0  0  0  0  0  0  0  0  # atno 11005 bound_to 11000
  144.9737  139.3854  143.6296 LP  0  0  0  0  0  0  0  0  0  0  0  0  # atno 17320 bound_to 7965
  146.3369  139.8846  142.8819 LP  0  0  0  0  0  0  0  0  0  0  0  0  # atno 17321 bound_to 7965
  139.8184  143.7854  152.3175 LP  0  0  0  0  0  0  0  0  0  0  0  0  # atno 17342 bound_to 10162
  139.7928  144.7404  150.9931 LP  0  0  0  0  0  0  0  0  0  0  0  0  # atno 17343 bound_to 10162
  157.1243  131.0255  151.2996 LP  0  0  0  0  0  0  0  0  0  0  0  0  # atno 17370 bound_to 10713
  157.4603  130.7649  149.7230 LP  0  0  0  0  0  0  0  0  0  0  0  0  # atno 17371 bound_to 10713
  139.9629  134.7422  156.0199 LP  0  0  0  0  0  0  0  0  0  0  0  0  # atno 17394 bound_to 11000
  141.1357  133.6576  156.3586 LP  0  0  0  0  0  0  0  0  0  0  0  0  # atno 17395 bound_to 11000

$$$$
