AV-unprocessed.smi:2498|AV-procd|sdf|9830|dock5
  -GOLD-   2272013463D 1   1.00000     0.00000
 Structure written by MMmdl.
 36 36  0  0  0  0  0  0  0  0  2 V2000
  152.1898  138.2475  159.1674 C   0  0  0  0  0  0  0  0  0  0  0  0
  151.6025  139.6218  159.0128 C   0  0  0  0  0  0  0  0  0  0  0  0
  151.9557  140.5635  159.8708 N   0  0  0  0  0  0  0  0  0  0  0  0
  151.3132  141.6737  159.4529 N   0  0  0  0  0  0  0  0  0  0  0  0
  151.4630  142.9132  160.1958 C   0  0  0  0  0  0  0  0  0  0  0  0
  152.4127  142.7734  161.1204 F   0  0  0  0  0  0  0  0  0  0  0  0
  151.7715  143.9207  159.3775 F   0  0  0  0  0  0  0  0  0  0  0  0
  150.5192  141.4198  158.3512 C   0  0  0  0  0  0  0  0  0  0  0  0
  149.6875  142.4823  157.7090 C   0  0  0  0  0  0  0  0  0  0  0  0
  150.6837  140.0986  158.0302 C   0  0  0  0  0  0  0  0  0  0  0  0
  150.0572  139.3253  156.8952 C   0  0  0  0  0  0  0  0  0  0  0  0
  149.4037  138.0552  157.4396 C   0  0  0  0  0  0  0  0  0  0  0  0
  150.0791  137.0347  157.5652 O   0  0  0  0  0  0  0  0  0  0  0  0
  148.0980  138.1652  157.7476 N   0  0  0  0  0  0  0  0  0  0  0  0
  147.1600  137.2407  158.3996 C   0  0  0  0  0  0  0  0  0  0  0  0
  145.8276  137.9925  158.6105 C   0  0  0  0  0  0  0  0  0  0  0  0
  146.8812  135.9335  157.6113 C   0  0  0  0  0  0  0  0  0  0  0  0
  147.8023  136.8936  159.7632 C   0  0  0  0  0  0  0  0  0  0  0  0
  147.1638  137.1729  160.8028 O   0  0  0  0  0  0  0  0  0  0  0  0
  148.9082  136.3071  159.7532 O   0  5  0  0  0  0  0  0  0  0  0  0
  151.7414  137.5359  158.4750 H   0  0  0  0  0  0  0  0  0  0  0  0
  152.0378  137.8652  160.1770 H   0  0  0  0  0  0  0  0  0  0  0  0
  153.2628  138.2600  158.9734 H   0  0  0  0  0  0  0  0  0  0  0  0
  150.5304  143.1708  160.6979 H   0  0  0  0  0  0  0  0  0  0  0  0
  149.0378  142.0676  156.9389 H   0  0  0  0  0  0  0  0  0  0  0  0
  150.3207  143.2347  157.2388 H   0  0  0  0  0  0  0  0  0  0  0  0
  149.0564  142.9805  158.4451 H   0  0  0  0  0  0  0  0  0  0  0  0
  149.3050  139.9153  156.3712 H   0  0  0  0  0  0  0  0  0  0  0  0
  150.7967  139.0542  156.1414 H   0  0  0  0  0  0  0  0  0  0  0  0
  147.6993  139.0761  157.5719 H   0  0  0  0  0  0  0  0  0  0  0  0
  145.1216  137.3970  159.1910 H   0  0  0  0  0  0  0  0  0  0  0  0
  145.3534  138.2195  157.6553 H   0  0  0  0  0  0  0  0  0  0  0  0
  145.9672  138.9416  159.1303 H   0  0  0  0  0  0  0  0  0  0  0  0
  146.2526  135.2537  158.1882 H   0  0  0  0  0  0  0  0  0  0  0  0
  147.7964  135.3944  157.3622 H   0  0  0  0  0  0  0  0  0  0  0  0
  146.3518  136.1348  156.6797 H   0  0  0  0  0  0  0  0  0  0  0  0
  1  2  1  0  0  0  0
  1 21  1  0  0  0  0
  1 22  1  0  0  0  0
  1 23  1  0  0  0  0
  2 10  1  0  0  0  0
  2  3  2  0  0  0  0
  3  4  1  0  0  0  0
  4  5  1  0  0  0  0
  4  8  1  0  0  0  0
  5  6  1  0  0  0  0
  5  7  1  0  0  0  0
  5 24  1  0  0  0  0
  8  9  1  0  0  0  0
  8 10  2  0  0  0  0
  9 25  1  0  0  0  0
  9 26  1  0  0  0  0
  9 27  1  0  0  0  0
 10 11  1  0  0  0  0
 11 12  1  0  0  0  0
 11 28  1  0  0  0  0
 11 29  1  0  0  0  0
 12 13  2  0  0  0  0
 12 14  1  0  0  0  0
 14 15  1  0  0  0  0
 14 30  1  0  0  0  0
 15 16  1  0  0  0  0
 15 17  1  0  0  0  0
 15 18  1  0  0  0  0
 16 31  1  0  0  0  0
 16 32  1  0  0  0  0
 16 33  1  0  0  0  0
 17 34  1  0  0  0  0
 17 35  1  0  0  0  0
 17 36  1  0  0  0  0
 18 19  2  0  0  0  0
 18 20  1  0  0  0  0
M  CHG  1  20  -1
M  END
> <s_m_source_file>
AV-unprocessed.smi

> <i_m_source_file_index>
2498

> <i_lp_mmshare_version>
43012

> <i_f3d_flags>
0

> <s_epik_input>
W0NIM11jMW5uKFtDSF0oRilGKWMoW0NIM10pYzFbQ0gyXUMoPU8pW05IXUMoW0NIM10pKFtDSDNdKUMoPU8pW09IXQ==

> <s_epik_cmdline>
J2VwaWtfcHl0aG9uJywgJy1waCcsICc3LjAnLCAnLXRuJywgJzgnLCAnLW1hJywgJzIwMCcsICctbWV0YWxfYmluZGluZycsICctaW1hZScsICc8aW5maWxlLm1hZT4nLCAnLW9tYWUnLCAnPG91dGZpbGUubWFlPic=

> <r_lp_tautomer_probability>
1

> <r_epik_Ionization_Penalty>
0.000275972

> <r_epik_Ionization_Penalty_Charging>
0.000275542

> <r_epik_Ionization_Penalty_Neutral>
4.29922e-07

> <r_epik_State_Penalty>
-0

> <r_epik_Charging_Adjusted_Penalty>
0.000275542

> <i_epik_Tot_Q>
-1

> <i_epik_Tot_abs_Q>
1

> <r_epik_Metal_State_Penalty>
-0

> <b_epik_Metal_Only>
0

> <s_lp_Force_Field>
OPLS_2005

> <r_lp_Energy>
1.362

> <b_lp_Chiralities_Consistent>
1

> <s_lp_Variant>
AV-unprocessed.smi:2498-1

> <Gold.Version>
5.8.1

> <Gold.Id.Protein>
6NUR|6NUR_protein|mol2

> <Gold.PLP.Fitness>
44.6152

> <Gold.PLP.PLP>
-29.2771

> <Gold.PLP.part.hbond>
-3.0000

> <Gold.PLP.part.metal>
0.0000

> <Gold.PLP.part.buried>
-4.5116

> <Gold.PLP.part.nonpolar>
-22.7893

> <Gold.PLP.part.repulsive>
0.0713

> <Gold.PLP.ligand.clash>
0.0000

> <Gold.PLP.ligand.torsion>
0.6055

> <Gold.PLP.Chemscore.Hbond>
5.4880

> <Gold.PLP.Chemscore.CHOScore>
0.0000

> <Gold.PLP.Chemscore.Metal>
0.0000

> <Gold.Chemscore.Hbonds>
donor molecule, donor type, donor heavy atom, donor atom, acceptor molecule, acceptor atom, score
      P1  H  6896  6909       L1    20  0.10
      P1  H  6931  6943       L1    19  0.04
      P1  H  6934  6947       L1    19  2.00

> <Gold.PLP.Chemscore.Internal.Correction>
0.0852

> <Gold.Rescore>
     Score         DG    S(hbond)    S(metal)    S(lipo)     H(rot)  DE(clash)    DE(int)     intcor
      9.19     -13.49       2.47        0.00      44.90       2.15       0.00       4.29       ----

> <Gold.Chemscore.Fitness>
9.1932

> <Gold.Chemscore.DG>
-13.4862

> <Gold.Chemscore.ZeroCoef>
-5.4800

> <Gold.Chemscore.Hbond>
2.4723

> <Gold.Chemscore.Metal>
0.0000

> <Gold.Chemscore.Lipo>
44.8971

> <Gold.Chemscore.Internal_Hbond>
0.0000

> <Gold.Chemscore.DEClash>
0.0048

> <Gold.Chemscore.DEInternal>
4.2882

> <Gold.Chemscore.Rot>
2.1501

> <Gold.Chemscore.Internal.Correction>
   9.000000E+99

> <Gold.Chemscore.Hbonds>
donor molecule, donor type, donor heavy atom, donor atom, acceptor molecule, acceptor atom, score
      P1  H  6896  6909       L1    20  0.10
      P1  H  6931  6943       L1    19  0.01
      P1  H  6934  6947       L1    19  0.55

> <Gold.Chemscore.Hbond.Weighted>
-8.2576

> <Gold.Chemscore.Metal.Weighted>
-0.0000

> <Gold.Chemscore.Lipo.Weighted>
-5.2530

> <Gold.Chemscore.Internal_Hbond.Weighted>
0.0000

> <Gold.Chemscore.DEClash.Weighted>
0.0048

> <Gold.Chemscore.DEInternal.Weighted>
4.2882

> <Gold.Chemscore.Rot.Weighted>
5.5043

> <Gold.Chemscore.Internal.Correction.Weighted>
   9.000000E+99

> <Gold.Protein.RotatedTorsions>
[ 6907 6896 6895 6894 ] final   60.27 input  -60.11 | X-H torsion
[ 7974 7965 7964 7962 ] final  -77.55 input  175.53 | X-H torsion
[ 8008 7997 7996 7995 ] final  124.06 input   59.86 | X-H torsion
[ 10167 10162 10161 10158 ] final  -26.31 input  -65.29 | X-H torsion
[ 10718 10713 10712 10709 ] final  142.79 input   66.30 | X-H torsion
[ 10763 10752 10751 10750 ] final   77.68 input  -60.55 | X-H torsion
[ 11005 11000 10999 10996 ] final   67.50 input  -57.11 | X-H torsion

> <Gold.Protein.ActiveResidues>
 VAL166  LYS551  ARG553  GLY616  TRP617  ASP618  TYR619  PRO620  LYS621  CYS622 
 ASP623  PHE694  ASN695  SER759  ASP760  ASP761  ALA762  ILE779  LEU786  VAL792 
 PHE793  MET794  SER795  GLU796  ALA797  LYS798  CYS799  TRP800  GLU811  SER814 

> <Gold.Protein.RotatedAtoms>
  152.3988  134.6321  160.0077 H   0  0  0  0  0  0  0  0  0  0  0  0  # atno 6907 bound_to 6896
  151.6532  133.3314  159.3165 H   0  0  0  0  0  0  0  0  0  0  0  0  # atno 6908 bound_to 6896
  150.7891  134.6944  159.6559 H   0  0  0  0  0  0  0  0  0  0  0  0  # atno 6909 bound_to 6896
  145.5982  140.9414  143.1255 H   0  0  0  0  0  0  0  0  0  0  0  0  # atno 7974 bound_to 7965
  156.2788  140.2748  156.1727 H   0  0  0  0  0  0  0  0  0  0  0  0  # atno 8008 bound_to 7997
  155.0638  140.0387  157.2603 H   0  0  0  0  0  0  0  0  0  0  0  0  # atno 8009 bound_to 7997
  154.7096  140.2666  155.6647 H   0  0  0  0  0  0  0  0  0  0  0  0  # atno 8010 bound_to 7997
  140.7283  143.4189  151.0983 H   0  0  0  0  0  0  0  0  0  0  0  0  # atno 10167 bound_to 10162
  157.3765  131.0986  151.0779 H   0  0  0  0  0  0  0  0  0  0  0  0  # atno 10718 bound_to 10713
  153.0817  135.4905  154.8515 H   0  0  0  0  0  0  0  0  0  0  0  0  # atno 10763 bound_to 10752
  154.7159  135.3029  154.9127 H   0  0  0  0  0  0  0  0  0  0  0  0  # atno 10764 bound_to 10752
  153.9806  135.6790  153.4803 H   0  0  0  0  0  0  0  0  0  0  0  0  # atno 10765 bound_to 10752
  139.9767  134.6810  156.0340 H   0  0  0  0  0  0  0  0  0  0  0  0  # atno 11005 bound_to 11000
  144.7321  139.7694  143.7343 LP  0  0  0  0  0  0  0  0  0  0  0  0  # atno 17320 bound_to 7965
  146.1596  139.4705  142.9997 LP  0  0  0  0  0  0  0  0  0  0  0  0  # atno 17321 bound_to 7965
  139.7832  143.8325  152.3141 LP  0  0  0  0  0  0  0  0  0  0  0  0  # atno 17342 bound_to 10162
  139.8283  144.7265  150.9483 LP  0  0  0  0  0  0  0  0  0  0  0  0  # atno 17343 bound_to 10162
  157.1864  130.6332  149.5689 LP  0  0  0  0  0  0  0  0  0  0  0  0  # atno 17370 bound_to 10713
  155.9766  130.4736  150.6541 LP  0  0  0  0  0  0  0  0  0  0  0  0  # atno 17371 bound_to 10713
  141.1443  133.6559  156.3822 LP  0  0  0  0  0  0  0  0  0  0  0  0  # atno 17394 bound_to 11000
  140.5180  134.6332  157.5308 LP  0  0  0  0  0  0  0  0  0  0  0  0  # atno 17395 bound_to 11000

$$$$
