AV-unprocessed.smi:1587|AV-procd|sdf|6387|dock1
  -GOLD-   22720 7 23D 1   1.00000     0.00000
 Structure written by MMmdl.
 36 37  0  0  0  0  0  0  0  0  1 V2000
  144.8161  136.0570  153.3486 O   0  0  0  0  0  0  0  0  0  0  0  0
  145.9725  136.0158  152.9276 C   0  0  0  0  0  0  0  0  0  0  0  0
  146.9424  136.8382  153.3532 N   0  0  0  0  0  0  0  0  0  0  0  0
  146.7749  137.8774  154.3618 C   0  0  0  0  0  0  0  0  0  0  0  0
  147.5463  139.1565  153.9851 C   0  0  0  0  0  0  0  0  0  0  0  0
  148.7727  139.3825  154.7473 N   0  0  0  0  0  0  0  0  0  0  0  0
  149.8976  138.5929  154.2503 C   0  0  0  0  0  0  0  0  0  0  0  0
  151.1878  138.8675  155.0430 C   0  0  0  0  0  0  0  0  0  0  0  0
  151.4867  140.2591  155.0079 O   0  0  0  0  0  0  0  0  0  0  0  0
  150.4316  141.0588  155.5315 C   0  0  0  0  0  0  0  0  0  0  0  0
  149.1427  140.7941  154.7344 C   0  0  0  0  0  0  0  0  0  0  0  0
  146.4328  135.1589  151.9988 N   0  0  0  0  0  0  0  0  0  0  0  0
  145.7149  134.1507  151.3015 C   0  0  0  0  0  0  0  0  0  0  0  0
  146.5125  133.1288  150.7383 C   0  0  0  0  0  0  0  0  0  0  0  0
  145.8962  132.0827  150.0244 C   0  0  0  0  0  0  0  0  0  0  0  0
  144.4962  132.0853  149.8915 C   0  0  0  0  0  0  0  0  0  0  0  0
  143.7765  133.1404  150.4818 C   0  0  0  0  0  0  0  0  0  0  0  0
  144.3650  134.1440  151.1663 N   0  0  0  0  0  0  0  0  0  0  0  0
  147.8638  136.7370  152.9536 H   0  0  0  0  0  0  0  0  0  0  0  0
  145.7148  138.0968  154.5001 H   0  0  0  0  0  0  0  0  0  0  0  0
  147.1358  137.4713  155.3060 H   0  0  0  0  0  0  0  0  0  0  0  0
  147.7727  139.1464  152.9177 H   0  0  0  0  0  0  0  0  0  0  0  0
  146.8807  140.0069  154.1403 H   0  0  0  0  0  0  0  0  0  0  0  0
  149.6723  137.5290  154.3141 H   0  0  0  0  0  0  0  0  0  0  0  0
  150.0687  138.8148  153.1958 H   0  0  0  0  0  0  0  0  0  0  0  0
  151.0821  138.5376  156.0777 H   0  0  0  0  0  0  0  0  0  0  0  0
  152.0221  138.3127  154.6136 H   0  0  0  0  0  0  0  0  0  0  0  0
  150.2850  140.8345  156.5893 H   0  0  0  0  0  0  0  0  0  0  0  0
  150.7123  142.1097  155.4624 H   0  0  0  0  0  0  0  0  0  0  0  0
  149.2802  141.1313  153.7058 H   0  0  0  0  0  0  0  0  0  0  0  0
  148.3332  141.3935  155.1526 H   0  0  0  0  0  0  0  0  0  0  0  0
  147.4104  135.2378  151.7614 H   0  0  0  0  0  0  0  0  0  0  0  0
  147.5870  133.1415  150.8502 H   0  0  0  0  0  0  0  0  0  0  0  0
  146.4878  131.2924  149.5867 H   0  0  0  0  0  0  0  0  0  0  0  0
  143.9872  131.3005  149.3517 H   0  0  0  0  0  0  0  0  0  0  0  0
  142.7002  133.1804  150.4022 H   0  0  0  0  0  0  0  0  0  0  0  0
  1  2  2  0  0  0  0
  2  3  1  0  0  0  0
  2 12  1  0  0  0  0
  3  4  1  0  0  0  0
  3 19  1  0  0  0  0
  4  5  1  0  0  0  0
  4 20  1  0  0  0  0
  4 21  1  0  0  0  0
  5  6  1  0  0  0  0
  5 22  1  0  0  0  0
  5 23  1  0  0  0  0
  6 11  1  0  0  0  0
  6  7  1  0  0  0  0
  7  8  1  0  0  0  0
  7 24  1  0  0  0  0
  7 25  1  0  0  0  0
  8  9  1  0  0  0  0
  8 26  1  0  0  0  0
  8 27  1  0  0  0  0
  9 10  1  0  0  0  0
 10 11  1  0  0  0  0
 10 28  1  0  0  0  0
 10 29  1  0  0  0  0
 11 30  1  0  0  0  0
 11 31  1  0  0  0  0
 12 13  1  0  0  0  0
 12 32  1  0  0  0  0
 13 18  1  0  0  0  0
 13 14  2  0  0  0  0
 14 15  1  0  0  0  0
 14 33  1  0  0  0  0
 15 16  2  0  0  0  0
 15 34  1  0  0  0  0
 16 17  1  0  0  0  0
 16 35  1  0  0  0  0
 17 18  2  0  0  0  0
 17 36  1  0  0  0  0
M  END
> <s_m_source_file>
AV-unprocessed.smi

> <i_m_source_file_index>
1587

> <i_lp_mmshare_version>
43012

> <i_f3d_flags>
0

> <s_epik_input>
bjFbY0hdW2NIXVtjSF1bY0hdYzFbTkhdQyg9TylbTkhdW0NIMl1bQ0gyXU4yW0NIMl1bQ0gyXU9bQ0gyXVtDSDJdMg==

> <s_epik_cmdline>
J2VwaWtfcHl0aG9uJywgJy1waCcsICc3LjAnLCAnLXRuJywgJzgnLCAnLW1hJywgJzIwMCcsICctbWV0YWxfYmluZGluZycsICctaW1hZScsICc8aW5maWxlLm1hZT4nLCAnLW9tYWUnLCAnPG91dGZpbGUubWFlPic=

> <r_epik_Ionization_Penalty>
0.266037

> <r_epik_Ionization_Penalty_Charging>
0

> <r_epik_Ionization_Penalty_Neutral>
0.266037

> <r_epik_State_Penalty>
0.257924

> <r_epik_Charging_Adjusted_Penalty>
0.257924

> <i_epik_Tot_Q>
0

> <i_epik_Tot_abs_Q>
0

> <r_epik_Metal_State_Penalty>
0.257923

> <b_epik_Metal_Only>
0

> <s_lp_Force_Field>
OPLS_2005

> <r_lp_Energy>
22.0776

> <b_lp_Chiralities_Consistent>
1

> <s_lp_Variant>
AV-unprocessed.smi:1587-1

> <Gold.Version>
5.8.1

> <Gold.Id.Protein>
6NUR|6NUR_protein|mol2

> <Gold.PLP.Fitness>
41.6593

> <Gold.PLP.PLP>
-31.1497

> <Gold.PLP.part.hbond>
-3.0000

> <Gold.PLP.part.metal>
0.0000

> <Gold.PLP.part.buried>
-3.5619

> <Gold.PLP.part.nonpolar>
-25.0711

> <Gold.PLP.part.repulsive>
0.4036

> <Gold.PLP.ligand.clash>
0.0000

> <Gold.PLP.ligand.torsion>
0.7651

> <Gold.PLP.Chemscore.Hbond>
3.0000

> <Gold.PLP.Chemscore.CHOScore>
1.0000

> <Gold.PLP.Chemscore.Metal>
0.0000

> <Gold.Chemscore.Hbonds>
donor molecule, donor type, donor heavy atom, donor atom, acceptor molecule, acceptor atom, score
      L1  H     3    19       P1  7948  1.00
      L1  H    12    32       P1  7948  0.99
      P1  H  7989  7998       L1     9  1.00
      L1  C    17    36       P1 10186  1.00

> <Gold.PLP.Chemscore.Internal.Correction>
0.0397

> <Gold.Rescore>
     Score         DG    S(hbond)    S(metal)    S(lipo)     H(rot)  DE(clash)    DE(int)     intcor
     17.65     -19.59       2.77        0.00      75.38       1.55       0.06       1.88       ----

> <Gold.Chemscore.Fitness>
17.6509

> <Gold.Chemscore.DG>
-19.5889

> <Gold.Chemscore.ZeroCoef>
-5.4800

> <Gold.Chemscore.Hbond>
2.7706

> <Gold.Chemscore.Metal>
0.0000

> <Gold.Chemscore.Lipo>
75.3752

> <Gold.Chemscore.Internal_Hbond>
0.0000

> <Gold.Chemscore.DEClash>
0.0554

> <Gold.Chemscore.DEInternal>
1.8827

> <Gold.Chemscore.Rot>
1.5484

> <Gold.Chemscore.Internal.Correction>
   9.000000E+99

> <Gold.Chemscore.Hbonds>
donor molecule, donor type, donor heavy atom, donor atom, acceptor molecule, acceptor atom, score
      L1  H     3    19       P1  7948  0.97
      L1  H    12    32       P1  7948  0.88
      P1  H  7989  7998       L1     9  0.30

> <Gold.Chemscore.Hbond.Weighted>
-9.2539

> <Gold.Chemscore.Metal.Weighted>
-0.0000

> <Gold.Chemscore.Lipo.Weighted>
-8.8189

> <Gold.Chemscore.Internal_Hbond.Weighted>
0.0000

> <Gold.Chemscore.DEClash.Weighted>
0.0554

> <Gold.Chemscore.DEInternal.Weighted>
1.8827

> <Gold.Chemscore.Rot.Weighted>
3.9639

> <Gold.Chemscore.Internal.Correction.Weighted>
   9.000000E+99

> <Gold.Protein.RotatedTorsions>
[ 6907 6896 6895 6894 ] final   16.12 input  -60.11 | X-H torsion
[ 7974 7965 7964 7962 ] final   11.63 input  175.53 | X-H torsion
[ 8008 7997 7996 7995 ] final    9.79 input   59.86 | X-H torsion
[ 10167 10162 10161 10158 ] final   81.38 input  -65.29 | X-H torsion
[ 10718 10713 10712 10709 ] final   12.72 input   66.30 | X-H torsion
[ 10763 10752 10751 10750 ] final -146.20 input  -60.55 | X-H torsion
[ 11005 11000 10999 10996 ] final  -71.40 input  -57.11 | X-H torsion

> <Gold.Protein.ActiveResidues>
 VAL166  LYS551  ARG553  GLY616  TRP617  ASP618  TYR619  PRO620  LYS621  CYS622 
 ASP623  PHE694  ASN695  SER759  ASP760  ASP761  ALA762  ILE779  LEU786  VAL792 
 PHE793  MET794  SER795  GLU796  ALA797  LYS798  CYS799  TRP800  GLU811  SER814 

> <Gold.Protein.RotatedAtoms>
  151.8289  135.0628  160.0434 H   0  0  0  0  0  0  0  0  0  0  0  0  # atno 6907 bound_to 6896
  152.2895  133.5543  159.5557 H   0  0  0  0  0  0  0  0  0  0  0  0  # atno 6908 bound_to 6896
  150.7224  134.0365  159.3793 H   0  0  0  0  0  0  0  0  0  0  0  0  # atno 6909 bound_to 6896
  146.2367  139.9457  142.8477 H   0  0  0  0  0  0  0  0  0  0  0  0  # atno 7974 bound_to 7965
  154.7847  140.2825  155.6037 H   0  0  0  0  0  0  0  0  0  0  0  0  # atno 8008 bound_to 7997
  156.2955  140.2616  156.2609 H   0  0  0  0  0  0  0  0  0  0  0  0  # atno 8009 bound_to 7997
  154.9742  140.0375  157.2238 H   0  0  0  0  0  0  0  0  0  0  0  0  # atno 8010 bound_to 7997
  139.9398  144.6097  150.8263 H   0  0  0  0  0  0  0  0  0  0  0  0  # atno 10167 bound_to 10162
  157.0143  130.6129  149.5712 H   0  0  0  0  0  0  0  0  0  0  0  0  # atno 10718 bound_to 10713
  154.8347  135.3393  154.6624 H   0  0  0  0  0  0  0  0  0  0  0  0  # atno 10763 bound_to 10752
  153.7240  135.6956  153.5010 H   0  0  0  0  0  0  0  0  0  0  0  0  # atno 10764 bound_to 10752
  153.2360  135.4400  155.0600 H   0  0  0  0  0  0  0  0  0  0  0  0  # atno 10765 bound_to 10752
  141.1591  133.6816  156.6899 H   0  0  0  0  0  0  0  0  0  0  0  0  # atno 11005 bound_to 11000
  145.1910  140.9811  143.4211 LP  0  0  0  0  0  0  0  0  0  0  0  0  # atno 17320 bound_to 7965
  144.9857  139.3738  143.6239 LP  0  0  0  0  0  0  0  0  0  0  0  0  # atno 17321 bound_to 7965
  140.7614  143.3173  151.2702 LP  0  0  0  0  0  0  0  0  0  0  0  0  # atno 17342 bound_to 10162
  139.6714  144.0014  152.2755 LP  0  0  0  0  0  0  0  0  0  0  0  0  # atno 17343 bound_to 10162
  156.0125  130.5217  150.8032 LP  0  0  0  0  0  0  0  0  0  0  0  0  # atno 17370 bound_to 10713
  157.5297  131.0936  150.9971 LP  0  0  0  0  0  0  0  0  0  0  0  0  # atno 17371 bound_to 10713
  140.3038  134.8142  157.4120 LP  0  0  0  0  0  0  0  0  0  0  0  0  # atno 17394 bound_to 11000
  140.1238  134.5184  155.8161 LP  0  0  0  0  0  0  0  0  0  0  0  0  # atno 17395 bound_to 11000

$$$$
