AV-unprocessed.smi:1645|AV-procd|sdf|6607|dock3
  -GOLD-   22720 7313D 1   1.00000     0.00000
 Structure written by MMmdl.
 55 58  0  0  0  0  0  0  0  0  2 V2000
  146.1933  137.4593  154.8769 O   0  0  0  0  0  0  0  0  0  0  0  0
  147.0588  137.0985  154.0800 C   0  0  0  0  0  0  0  0  0  0  0  0
  148.3306  137.5323  154.0591 N   0  0  0  0  0  0  0  0  0  0  0  0
  148.9761  138.4429  154.9395 C   0  0  0  0  0  0  0  0  0  0  0  0
  148.6550  138.6015  156.3079 C   0  0  0  0  0  0  0  0  0  0  0  0
  149.3859  139.5269  157.0773 C   0  0  0  0  0  0  0  0  0  0  0  0
  150.4258  140.2677  156.4680 C   0  0  0  0  0  0  0  0  0  0  0  0
  151.1715  141.1978  157.2245 N   0  0  0  0  0  0  0  0  0  0  0  0
  151.7914  140.7248  158.4654 C   0  0  0  0  0  0  0  0  0  0  0  0
  152.8617  141.7106  158.9639 C   0  0  0  0  0  0  0  0  0  0  0  0
  152.2883  143.1292  159.0941 C   0  0  0  0  0  0  0  0  0  0  0  0
  151.6618  143.5662  157.7618 C   0  0  0  0  0  0  0  0  0  0  0  0
  150.6111  142.5495  157.2835 C   0  0  0  0  0  0  0  0  0  0  0  0
  150.7341  140.1092  155.1576 N   0  0  0  0  0  0  0  0  0  0  0  0
  150.0324  139.2203  154.4243 C   0  0  0  0  0  0  0  0  0  0  0  0
  146.8325  136.2146  153.0980 N   0  0  0  0  0  0  0  0  0  0  0  0
  145.5551  135.5558  152.8396 C   0  0  1  0  0  0  0  0  0  0  0  0
  144.5083  136.4993  152.2210 C   0  0  0  0  0  0  0  0  0  0  0  0
  143.7326  135.6391  151.2036 C   0  0  0  0  0  0  0  0  0  0  0  0
  144.2788  134.2761  151.3466 N   0  3  1  0  0  0  0  0  0  0  0  0
  144.1523  133.3733  150.1817 C   0  0  0  0  0  0  0  0  0  0  0  0
  144.6970  131.9809  150.5573 C   0  0  0  0  0  0  0  0  0  0  0  0
  146.1301  132.0610  151.1216 C   0  0  0  0  0  0  0  0  0  0  0  0
  146.2209  133.0860  152.2686 C   0  0  0  0  0  0  0  0  0  0  0  0
  145.6700  134.4421  151.7948 C   0  0  2  0  0  0  0  0  0  0  0  0
  148.8999  137.2002  153.2942 H   0  0  0  0  0  0  0  0  0  0  0  0
  147.8760  138.0306  156.7879 H   0  0  0  0  0  0  0  0  0  0  0  0
  149.1358  139.6639  158.1188 H   0  0  0  0  0  0  0  0  0  0  0  0
  151.0191  140.5978  159.2252 H   0  0  0  0  0  0  0  0  0  0  0  0
  152.2532  139.7493  158.3074 H   0  0  0  0  0  0  0  0  0  0  0  0
  153.2586  141.3768  159.9231 H   0  0  0  0  0  0  0  0  0  0  0  0
  153.7011  141.7195  158.2672 H   0  0  0  0  0  0  0  0  0  0  0  0
  151.5341  143.1512  159.8818 H   0  0  0  0  0  0  0  0  0  0  0  0
  153.0720  143.8271  159.3896 H   0  0  0  0  0  0  0  0  0  0  0  0
  151.2060  144.5510  157.8676 H   0  0  0  0  0  0  0  0  0  0  0  0
  152.4423  143.6654  157.0061 H   0  0  0  0  0  0  0  0  0  0  0  0
  150.2257  142.8699  156.3164 H   0  0  0  0  0  0  0  0  0  0  0  0
  149.7629  142.5430  157.9693 H   0  0  0  0  0  0  0  0  0  0  0  0
  150.3248  139.1301  153.3882 H   0  0  0  0  0  0  0  0  0  0  0  0
  147.5995  135.9813  152.4841 H   0  0  0  0  0  0  0  0  0  0  0  0
  145.1418  135.1463  153.7639 H   0  0  0  0  0  0  0  0  0  0  0  0
  143.8517  136.9133  152.9872 H   0  0  0  0  0  0  0  0  0  0  0  0
  144.9811  137.3382  151.7078 H   0  0  0  0  0  0  0  0  0  0  0  0
  142.6578  135.6451  151.3869 H   0  0  0  0  0  0  0  0  0  0  0  0
  143.9061  136.0096  150.1919 H   0  0  0  0  0  0  0  0  0  0  0  0
  143.1051  133.3010  149.8864 H   0  0  0  0  0  0  0  0  0  0  0  0
  144.7011  133.7827  149.3321 H   0  0  0  0  0  0  0  0  0  0  0  0
  144.0429  131.5277  151.3036 H   0  0  0  0  0  0  0  0  0  0  0  0
  144.6735  131.3230  149.6881 H   0  0  0  0  0  0  0  0  0  0  0  0
  146.4529  131.0791  151.4690 H   0  0  0  0  0  0  0  0  0  0  0  0
  146.8171  132.3477  150.3244 H   0  0  0  0  0  0  0  0  0  0  0  0
  145.6566  132.7305  153.1317 H   0  0  0  0  0  0  0  0  0  0  0  0
  147.2573  133.1871  152.5913 H   0  0  0  0  0  0  0  0  0  0  0  0
  146.2661  134.8014  150.9525 H   0  0  0  0  0  0  0  0  0  0  0  0
  143.7821  133.8474  152.1146 H   0  0  0  0  0  0  0  0  0  0  0  0
  1  2  2  0  0  0  0
  2  3  1  0  0  0  0
  2 16  1  0  0  0  0
  3  4  1  0  0  0  0
  3 26  1  0  0  0  0
  4 15  1  0  0  0  0
  4  5  2  0  0  0  0
  5  6  1  0  0  0  0
  5 27  1  0  0  0  0
  6  7  2  0  0  0  0
  6 28  1  0  0  0  0
  7  8  1  0  0  0  0
  7 14  1  0  0  0  0
  8 13  1  0  0  0  0
  8  9  1  0  0  0  0
  9 10  1  0  0  0  0
  9 29  1  0  0  0  0
  9 30  1  0  0  0  0
 10 11  1  0  0  0  0
 10 31  1  0  0  0  0
 10 32  1  0  0  0  0
 11 12  1  0  0  0  0
 11 33  1  0  0  0  0
 11 34  1  0  0  0  0
 12 13  1  0  0  0  0
 12 35  1  0  0  0  0
 12 36  1  0  0  0  0
 13 37  1  0  0  0  0
 13 38  1  0  0  0  0
 14 15  2  0  0  0  0
 15 39  1  0  0  0  0
 16 17  1  0  0  0  0
 16 40  1  0  0  0  0
 17 25  1  0  0  0  0
 17 18  1  0  0  0  0
 17 41  1  0  0  0  0
 18 19  1  0  0  0  0
 18 42  1  0  0  0  0
 18 43  1  0  0  0  0
 19 20  1  0  0  0  0
 19 44  1  0  0  0  0
 19 45  1  0  0  0  0
 20 25  1  0  0  0  0
 20 21  1  0  0  0  0
 20 55  1  0  0  0  0
 21 22  1  0  0  0  0
 21 46  1  0  0  0  0
 21 47  1  0  0  0  0
 22 23  1  0  0  0  0
 22 48  1  0  0  0  0
 22 49  1  0  0  0  0
 23 24  1  0  0  0  0
 23 50  1  0  0  0  0
 23 51  1  0  0  0  0
 24 25  1  0  0  0  0
 24 52  1  0  0  0  0
 24 53  1  0  0  0  0
 25 54  1  0  0  0  0
M  CHG  1  20   1
M  END
> <s_m_source_file>
AV-unprocessed.smi

> <i_m_source_file_index>
1645

> <i_lp_mmshare_version>
43012

> <i_f3d_flags>
0

> <s_epik_input>
W0NIMl0xW0NIMl1bQ0gyXVtDSDJdW0NASF0oTjEyKVtDQEBIXShbQ0gyXVtDSDJdMilbTkhdQyg9TylbTkhdYzNbY0hdW2NIXWMobltjSF0zKU40W0NIMl1bQ0gyXVtDSDJdW0NIMl1bQ0gyXTQ=

> <s_epik_cmdline>
J2VwaWtfcHl0aG9uJywgJy1waCcsICc3LjAnLCAnLXRuJywgJzgnLCAnLW1hJywgJzIwMCcsICctbWV0YWxfYmluZGluZycsICctaW1hZScsICc8aW5maWxlLm1hZT4nLCAnLW9tYWUnLCAnPG91dGZpbGUubWFlPic=

> <r_lp_tautomer_probability>
1

> <r_epik_Ionization_Penalty>
0.0808019

> <r_epik_Ionization_Penalty_Charging>
0.000974069

> <r_epik_Ionization_Penalty_Neutral>
0.0798278

> <r_epik_State_Penalty>
0.0653665

> <r_epik_Charging_Adjusted_Penalty>
0.0663406

> <i_epik_Tot_Q>
1

> <i_epik_Tot_abs_Q>
1

> <r_epik_Metal_State_Penalty>
0.0585673

> <b_epik_Metal_Only>
0

> <s_lp_Force_Field>
OPLS_2005

> <r_lp_Energy>
50.6971

> <b_lp_Chiralities_Consistent>
1

> <s_lp_Variant>
AV-unprocessed.smi:1645-8

> <Gold.Version>
5.8.1

> <Gold.Id.Protein>
6NUR|6NUR_protein|mol2

> <Gold.PLP.Fitness>
47.1959

> <Gold.PLP.PLP>
-37.2680

> <Gold.PLP.part.hbond>
-2.8115

> <Gold.PLP.part.metal>
0.0000

> <Gold.PLP.part.buried>
-4.6423

> <Gold.PLP.part.nonpolar>
-30.5037

> <Gold.PLP.part.repulsive>
0.1250

> <Gold.PLP.ligand.clash>
0.0000

> <Gold.PLP.ligand.torsion>
0.7159

> <Gold.PLP.Chemscore.Hbond>
2.6440

> <Gold.PLP.Chemscore.CHOScore>
1.0000

> <Gold.PLP.Chemscore.Metal>
0.0000

> <Gold.Chemscore.Hbonds>
donor molecule, donor type, donor heavy atom, donor atom, acceptor molecule, acceptor atom, score
      L1  H     3    26       P1  7948  0.94
      L1  H    16    40       P1  7948  0.93
      P1  H  7989  7998       L1    14  0.59
      L1  C    15    39       P1  7957  1.00

> <Gold.PLP.Chemscore.Internal.Correction>
0.4277

> <Gold.Rescore>
     Score         DG    S(hbond)    S(metal)    S(lipo)     H(rot)  DE(clash)    DE(int)     intcor
     20.87     -21.92       2.02        0.00     108.48       1.17       0.41       0.64       ----

> <Gold.Chemscore.Fitness>
20.8714

> <Gold.Chemscore.DG>
-21.9184

> <Gold.Chemscore.ZeroCoef>
-5.4800

> <Gold.Chemscore.Hbond>
2.0209

> <Gold.Chemscore.Metal>
0.0000

> <Gold.Chemscore.Lipo>
108.4780

> <Gold.Chemscore.Internal_Hbond>
0.0000

> <Gold.Chemscore.DEClash>
0.4092

> <Gold.Chemscore.DEInternal>
0.6378

> <Gold.Chemscore.Rot>
1.1731

> <Gold.Chemscore.Internal.Correction>
   9.000000E+99

> <Gold.Chemscore.Hbonds>
donor molecule, donor type, donor heavy atom, donor atom, acceptor molecule, acceptor atom, score
      L1  H     3    26       P1  7948  0.91
      L1  H    16    40       P1  7948  0.87
      P1  H  7989  7998       L1    14  0.04

> <Gold.Chemscore.Hbond.Weighted>
-6.7497

> <Gold.Chemscore.Metal.Weighted>
-0.0000

> <Gold.Chemscore.Lipo.Weighted>
-12.6919

> <Gold.Chemscore.Internal_Hbond.Weighted>
0.0000

> <Gold.Chemscore.DEClash.Weighted>
0.4092

> <Gold.Chemscore.DEInternal.Weighted>
0.6378

> <Gold.Chemscore.Rot.Weighted>
3.0032

> <Gold.Chemscore.Internal.Correction.Weighted>
   9.000000E+99

> <Gold.Protein.RotatedTorsions>
[ 6907 6896 6895 6894 ] final -136.24 input  -60.11 | X-H torsion
[ 7974 7965 7964 7962 ] final  -67.77 input  175.53 | X-H torsion
[ 8008 7997 7996 7995 ] final  -86.69 input   59.86 | X-H torsion
[ 10167 10162 10161 10158 ] final   18.01 input  -65.29 | X-H torsion
[ 10718 10713 10712 10709 ] final  -12.79 input   66.30 | X-H torsion
[ 10763 10752 10751 10750 ] final -111.73 input  -60.55 | X-H torsion
[ 11005 11000 10999 10996 ] final  161.22 input  -57.11 | X-H torsion

> <Gold.Protein.ActiveResidues>
 VAL166  LYS551  ARG553  GLY616  TRP617  ASP618  TYR619  PRO620  LYS621  CYS622 
 ASP623  PHE694  ASN695  SER759  ASP760  ASP761  ALA762  ILE779  LEU786  VAL792 
 PHE793  MET794  SER795  GLU796  ALA797  LYS798  CYS799  TRP800  GLU811  SER814 

> <Gold.Protein.RotatedAtoms>
  151.0077  133.5995  159.2686 H   0  0  0  0  0  0  0  0  0  0  0  0  # atno 6907 bound_to 6896
  151.3158  135.0805  159.9298 H   0  0  0  0  0  0  0  0  0  0  0  0  # atno 6908 bound_to 6896
  152.5291  133.9733  159.7826 H   0  0  0  0  0  0  0  0  0  0  0  0  # atno 6909 bound_to 6896
  145.7249  140.9022  143.0610 H   0  0  0  0  0  0  0  0  0  0  0  0  # atno 7974 bound_to 7965
  154.6548  140.0575  156.9996 H   0  0  0  0  0  0  0  0  0  0  0  0  # atno 8008 bound_to 7997
  155.1317  140.3257  155.4454 H   0  0  0  0  0  0  0  0  0  0  0  0  # atno 8009 bound_to 7997
  156.2592  140.1979  156.6436 H   0  0  0  0  0  0  0  0  0  0  0  0  # atno 8010 bound_to 7997
  140.5684  143.9207  150.6694 H   0  0  0  0  0  0  0  0  0  0  0  0  # atno 10167 bound_to 10162
  156.6396  130.4924  149.6100 H   0  0  0  0  0  0  0  0  0  0  0  0  # atno 10718 bound_to 10713
  154.8315  135.4516  154.1084 H   0  0  0  0  0  0  0  0  0  0  0  0  # atno 10763 bound_to 10752
  153.2353  135.6910  153.7849 H   0  0  0  0  0  0  0  0  0  0  0  0  # atno 10764 bound_to 10752
  153.7217  135.3340  155.3244 H   0  0  0  0  0  0  0  0  0  0  0  0  # atno 10765 bound_to 10752
  140.2136  134.8249  157.3147 H   0  0  0  0  0  0  0  0  0  0  0  0  # atno 11005 bound_to 11000
  144.6907  139.9253  143.7469 LP  0  0  0  0  0  0  0  0  0  0  0  0  # atno 17320 bound_to 7965
  146.0591  139.3586  143.0592 LP  0  0  0  0  0  0  0  0  0  0  0  0  # atno 17321 bound_to 7965
  140.2676  143.3479  152.1267 LP  0  0  0  0  0  0  0  0  0  0  0  0  # atno 17342 bound_to 10162
  139.5105  144.6885  151.5824 LP  0  0  0  0  0  0  0  0  0  0  0  0  # atno 17343 bound_to 10162
  156.2170  130.6714  151.1329 LP  0  0  0  0  0  0  0  0  0  0  0  0  # atno 17370 bound_to 10713
  157.7175  131.0701  150.6269 LP  0  0  0  0  0  0  0  0  0  0  0  0  # atno 17371 bound_to 10713
  140.1924  134.4355  155.7708 LP  0  0  0  0  0  0  0  0  0  0  0  0  # atno 17394 bound_to 11000
  141.2225  133.7033  156.8049 LP  0  0  0  0  0  0  0  0  0  0  0  0  # atno 17395 bound_to 11000

$$$$
