AV-unprocessed.smi:693|AV-procd|sdf|3372|dock8
  -GOLD-   22720 0353D 1   1.00000     0.00000
 Structure written by MMmdl.
 46 47  0  0  0  0  0  0  0  0  1 V2000
  153.1980  144.3029  163.1046 C   0  0  0  0  0  0  0  0  0  0  0  0
  152.7975  144.0561  161.6651 C   0  0  0  0  0  0  0  0  0  0  0  0
  153.2372  142.9040  160.9793 C   0  0  0  0  0  0  0  0  0  0  0  0
  152.8376  142.7274  159.6406 C   0  0  0  0  0  0  0  0  0  0  0  0
  152.0181  143.7055  159.0408 C   0  0  0  0  0  0  0  0  0  0  0  0
  151.5590  143.5617  157.6034 C   0  0  0  0  0  0  0  0  0  0  0  0
  151.1847  142.1116  157.2577 C   0  0  0  0  0  0  0  0  0  0  0  0
  149.7634  141.9834  156.9598 N   0  0  0  0  0  0  0  0  0  0  0  0
  149.2433  141.3448  155.8979 C   0  0  0  0  0  0  0  0  0  0  0  0
  149.9532  140.8169  155.0406 O   0  0  0  0  0  0  0  0  0  0  0  0
  147.8871  141.3534  155.8390 N   0  0  0  0  0  0  0  0  0  0  0  0
  147.0690  141.1729  154.6289 C   0  0  0  0  0  0  0  0  0  0  0  0
  146.5312  142.5475  154.2003 C   0  0  0  0  0  0  0  0  0  0  0  0
  145.7320  143.2064  155.3408 C   0  0  0  0  0  0  0  0  0  0  0  0
  146.5083  143.2097  156.6830 C   0  0  1  0  0  0  0  0  0  0  0  0
  145.6654  143.7144  157.8767 C   0  0  0  0  0  0  0  0  0  0  0  0
  146.4971  144.3141  159.0155 C   0  0  0  0  0  0  0  0  0  0  0  0
  147.2974  145.3380  158.7090 N   0  0  0  0  0  0  0  0  0  0  0  0
  146.4380  143.8474  160.1509 O   0  0  0  0  0  0  0  0  0  0  0  0
  147.0627  141.7958  156.9708 C   0  0  0  0  0  0  0  0  0  0  0  0
  151.6339  144.8212  159.8142 C   0  0  0  0  0  0  0  0  0  0  0  0
  152.0117  144.9984  161.0987 N   0  0  0  0  0  0  0  0  0  0  0  0
  153.6804  143.4254  163.5364 H   0  0  0  0  0  0  0  0  0  0  0  0
  152.3232  144.5411  163.7104 H   0  0  0  0  0  0  0  0  0  0  0  0
  153.8951  145.1391  163.1633 H   0  0  0  0  0  0  0  0  0  0  0  0
  153.8660  142.1720  161.4643 H   0  0  0  0  0  0  0  0  0  0  0  0
  153.1549  141.8560  159.0868 H   0  0  0  0  0  0  0  0  0  0  0  0
  150.7070  144.2230  157.4403 H   0  0  0  0  0  0  0  0  0  0  0  0
  152.3510  143.9122  156.9401 H   0  0  0  0  0  0  0  0  0  0  0  0
  151.7407  141.7849  156.3786 H   0  0  0  0  0  0  0  0  0  0  0  0
  151.4613  141.4371  158.0698 H   0  0  0  0  0  0  0  0  0  0  0  0
  149.1213  142.4032  157.6161 H   0  0  0  0  0  0  0  0  0  0  0  0
  147.5990  140.7061  153.7990 H   0  0  0  0  0  0  0  0  0  0  0  0
  146.2384  140.5019  154.8524 H   0  0  0  0  0  0  0  0  0  0  0  0
  147.3643  143.1923  153.9169 H   0  0  0  0  0  0  0  0  0  0  0  0
  145.9024  142.4461  153.3154 H   0  0  0  0  0  0  0  0  0  0  0  0
  145.4655  144.2204  155.0442 H   0  0  0  0  0  0  0  0  0  0  0  0
  144.7930  142.6668  155.4706 H   0  0  0  0  0  0  0  0  0  0  0  0
  147.3646  143.8778  156.5716 H   0  0  0  0  0  0  0  0  0  0  0  0
  144.9503  144.4644  157.5361 H   0  0  0  0  0  0  0  0  0  0  0  0
  145.0687  142.8934  158.2773 H   0  0  0  0  0  0  0  0  0  0  0  0
  147.8668  145.7662  159.4244 H   0  0  0  0  0  0  0  0  0  0  0  0
  147.3312  145.6795  157.7595 H   0  0  0  0  0  0  0  0  0  0  0  0
  146.2420  141.0918  157.1166 H   0  0  0  0  0  0  0  0  0  0  0  0
  147.6189  141.7910  157.9094 H   0  0  0  0  0  0  0  0  0  0  0  0
  151.0054  145.5917  159.3921 H   0  0  0  0  0  0  0  0  0  0  0  0
  1  2  1  0  0  0  0
  1 23  1  0  0  0  0
  1 24  1  0  0  0  0
  1 25  1  0  0  0  0
  2 22  1  0  0  0  0
  2  3  2  0  0  0  0
  3  4  1  0  0  0  0
  3 26  1  0  0  0  0
  4  5  2  0  0  0  0
  4 27  1  0  0  0  0
  5  6  1  0  0  0  0
  5 21  1  0  0  0  0
  6  7  1  0  0  0  0
  6 28  1  0  0  0  0
  6 29  1  0  0  0  0
  7  8  1  0  0  0  0
  7 30  1  0  0  0  0
  7 31  1  0  0  0  0
  8  9  1  0  0  0  0
  8 32  1  0  0  0  0
  9 10  2  0  0  0  0
  9 11  1  0  0  0  0
 11 20  1  0  0  0  0
 11 12  1  0  0  0  0
 12 13  1  0  0  0  0
 12 33  1  0  0  0  0
 12 34  1  0  0  0  0
 13 14  1  0  0  0  0
 13 35  1  0  0  0  0
 13 36  1  0  0  0  0
 14 15  1  0  0  0  0
 14 37  1  0  0  0  0
 14 38  1  0  0  0  0
 15 16  1  0  0  0  0
 15 20  1  0  0  0  0
 15 39  1  0  0  0  0
 16 17  1  0  0  0  0
 16 40  1  0  0  0  0
 16 41  1  0  0  0  0
 17 18  1  0  0  0  0
 17 19  2  0  0  0  0
 18 42  1  0  0  0  0
 18 43  1  0  0  0  0
 20 44  1  0  0  0  0
 20 45  1  0  0  0  0
 21 22  2  0  0  0  0
 21 46  1  0  0  0  0
M  END
> <s_m_source_file>
AV-unprocessed.smi

> <i_m_source_file_index>
693

> <i_lp_mmshare_version>
43012

> <i_f3d_flags>
0

> <s_epik_input>
W0NIM11jMVtjSF1bY0hdYyhbY0hdbjEpW0NIMl1bQ0gyXVtOSF1DKD1PKU4yW0NIMl1bQ0gyXVtDSDJdW0NASF0oW0NIMl0yKVtDSDJdQyg9TylbTkgyXQ==

> <s_epik_cmdline>
J2VwaWtfcHl0aG9uJywgJy1waCcsICc3LjAnLCAnLXRuJywgJzgnLCAnLW1hJywgJzIwMCcsICctbWV0YWxfYmluZGluZycsICctaW1hZScsICc8aW5maWxlLm1hZT4nLCAnLW9tYWUnLCAnPG91dGZpbGUubWFlPic=

> <r_epik_Ionization_Penalty>
0.056948

> <r_epik_Ionization_Penalty_Charging>
0

> <r_epik_Ionization_Penalty_Neutral>
0.056948

> <r_epik_State_Penalty>
0.0490937

> <r_epik_Charging_Adjusted_Penalty>
0.0490937

> <i_epik_Tot_Q>
0

> <i_epik_Tot_abs_Q>
0

> <r_epik_Metal_State_Penalty>
0.0447689

> <b_epik_Metal_Only>
0

> <s_lp_Force_Field>
OPLS_2005

> <r_lp_Energy>
25.6146

> <b_lp_Chiralities_Consistent>
1

> <s_lp_Variant>
AV-unprocessed.smi:693-1

> <Gold.Version>
5.8.1

> <Gold.Id.Protein>
6NUR|6NUR_protein|mol2

> <Gold.PLP.Fitness>
52.5295

> <Gold.PLP.PLP>
-47.0270

> <Gold.PLP.part.hbond>
-4.1134

> <Gold.PLP.part.metal>
0.0000

> <Gold.PLP.part.buried>
-7.2320

> <Gold.PLP.part.nonpolar>
-35.9029

> <Gold.PLP.part.repulsive>
0.4105

> <Gold.PLP.ligand.clash>
1.5421

> <Gold.PLP.ligand.torsion>
1.1117

> <Gold.PLP.Chemscore.Hbond>
3.0698

> <Gold.PLP.Chemscore.CHOScore>
0.0000

> <Gold.PLP.Chemscore.Metal>
0.0000

> <Gold.Chemscore.Hbonds>
donor molecule, donor type, donor heavy atom, donor atom, acceptor molecule, acceptor atom, score
      P1  H  7989  7998       L1    10  0.32

> <Gold.PLP.Chemscore.Internal.Correction>
0.0586

> <Gold.Rescore>
     Score         DG    S(hbond)    S(metal)    S(lipo)     H(rot)  DE(clash)    DE(int)     intcor
     21.28     -22.71       3.15        0.00     106.73       2.25       0.59       0.85       ----

> <Gold.Chemscore.Fitness>
21.2755

> <Gold.Chemscore.DG>
-22.7142

> <Gold.Chemscore.ZeroCoef>
-5.4800

> <Gold.Chemscore.Hbond>
3.1465

> <Gold.Chemscore.Metal>
0.0000

> <Gold.Chemscore.Lipo>
106.7334

> <Gold.Chemscore.Internal_Hbond>
0.0000

> <Gold.Chemscore.DEClash>
0.5919

> <Gold.Chemscore.DEInternal>
0.8468

> <Gold.Chemscore.Rot>
2.2512

> <Gold.Chemscore.Internal.Correction>
   9.000000E+99

> <Gold.Chemscore.Hbonds>
donor molecule, donor type, donor heavy atom, donor atom, acceptor molecule, acceptor atom, score
      P1  H  7989  7998       L1    10  0.31

> <Gold.Chemscore.Hbond.Weighted>
-10.5095

> <Gold.Chemscore.Metal.Weighted>
-0.0000

> <Gold.Chemscore.Lipo.Weighted>
-12.4878

> <Gold.Chemscore.Internal_Hbond.Weighted>
0.0000

> <Gold.Chemscore.DEClash.Weighted>
0.5919

> <Gold.Chemscore.DEInternal.Weighted>
0.8468

> <Gold.Chemscore.Rot.Weighted>
5.7631

> <Gold.Chemscore.Internal.Correction.Weighted>
   9.000000E+99

> <Gold.Protein.RotatedTorsions>
[ 6907 6896 6895 6894 ] final   -4.91 input  -60.11 | X-H torsion
[ 7974 7965 7964 7962 ] final    4.38 input  175.53 | X-H torsion
[ 8008 7997 7996 7995 ] final   91.94 input   59.86 | X-H torsion
[ 10167 10162 10161 10158 ] final -111.77 input  -65.29 | X-H torsion
[ 10718 10713 10712 10709 ] final -103.12 input   66.30 | X-H torsion
[ 10763 10752 10751 10750 ] final  -34.62 input  -60.55 | X-H torsion
[ 11005 11000 10999 10996 ] final  -94.40 input  -57.11 | X-H torsion

> <Gold.Protein.ActiveResidues>
 VAL166  LYS551  ARG553  GLY616  TRP617  ASP618  TYR619  PRO620  LYS621  CYS622 
 ASP623  PHE694  ASN695  SER759  ASP760  ASP761  ALA762  ILE779  LEU786  VAL792 
 PHE793  MET794  SER795  GLU796  ALA797  LYS798  CYS799  TRP800  GLU811  SER814 

> <Gold.Protein.RotatedAtoms>
  151.4901  135.1057  159.9800 H   0  0  0  0  0  0  0  0  0  0  0  0  # atno 6907 bound_to 6896
  152.4744  133.8101  159.7009 H   0  0  0  0  0  0  0  0  0  0  0  0  # atno 6908 bound_to 6896
  150.8773  133.7358  159.2969 H   0  0  0  0  0  0  0  0  0  0  0  0  # atno 6909 bound_to 6896
  146.2444  140.0543  142.8373 H   0  0  0  0  0  0  0  0  0  0  0  0  # atno 7974 bound_to 7965
  156.0296  140.3331  155.7126 H   0  0  0  0  0  0  0  0  0  0  0  0  # atno 8008 bound_to 7997
  155.5904  140.0645  157.2778 H   0  0  0  0  0  0  0  0  0  0  0  0  # atno 8009 bound_to 7997
  154.4348  140.1828  156.1056 H   0  0  0  0  0  0  0  0  0  0  0  0  # atno 8010 bound_to 7997
  140.1300  143.4369  152.1634 H   0  0  0  0  0  0  0  0  0  0  0  0  # atno 10167 bound_to 10162
  156.0253  130.5452  150.7207 H   0  0  0  0  0  0  0  0  0  0  0  0  # atno 10718 bound_to 10713
  153.8497  135.6850  153.4793 H   0  0  0  0  0  0  0  0  0  0  0  0  # atno 10763 bound_to 10752
  153.1404  135.4659  154.9485 H   0  0  0  0  0  0  0  0  0  0  0  0  # atno 10764 bound_to 10752
  154.7808  135.3268  154.7942 H   0  0  0  0  0  0  0  0  0  0  0  0  # atno 10765 bound_to 10752
  141.1471  133.7953  157.0292 H   0  0  0  0  0  0  0  0  0  0  0  0  # atno 11005 bound_to 11000
  145.0956  140.9313  143.4743 LP  0  0  0  0  0  0  0  0  0  0  0  0  # atno 17320 bound_to 7965
  145.0725  139.3020  143.5825 LP  0  0  0  0  0  0  0  0  0  0  0  0  # atno 17321 bound_to 7965
  139.5525  144.7348  151.4393 LP  0  0  0  0  0  0  0  0  0  0  0  0  # atno 17342 bound_to 10162
  140.6823  143.8054  150.7138 LP  0  0  0  0  0  0  0  0  0  0  0  0  # atno 17343 bound_to 10162
  157.4823  131.0903  151.0522 LP  0  0  0  0  0  0  0  0  0  0  0  0  # atno 17370 bound_to 10713
  157.0952  130.5958  149.5448 LP  0  0  0  0  0  0  0  0  0  0  0  0  # atno 17371 bound_to 10713
  140.0765  134.9673  157.1553 LP  0  0  0  0  0  0  0  0  0  0  0  0  # atno 17394 bound_to 11000
  140.3637  134.2466  155.7184 LP  0  0  0  0  0  0  0  0  0  0  0  0  # atno 17395 bound_to 11000

$$$$
