AV-unprocessed.smi:2132|AV-procd|sdf|8691|dock5
  -GOLD-   2272011443D 1   1.00000     0.00000
 Structure written by MMmdl.
 38 39  0  0  0  0  0  0  0  0  1 V2000
  151.8061  144.9464  160.3463 C   0  0  0  0  0  0  0  0  0  0  0  0
  152.3091  145.2701  159.0623 O   0  0  0  0  0  0  0  0  0  0  0  0
  151.4617  144.8211  158.0174 C   0  0  0  0  0  0  0  0  0  0  0  0
  151.5102  143.2885  157.9517 C   0  0  0  0  0  0  0  0  0  0  0  0
  150.6184  142.7706  156.9217 N   0  0  0  0  0  0  0  0  0  0  0  0
  150.2904  141.4791  156.7564 C   0  0  0  0  0  0  0  0  0  0  0  0
  150.7353  140.5718  157.4596 O   0  0  0  0  0  0  0  0  0  0  0  0
  149.3892  141.1701  155.5887 C   0  0  0  0  0  0  0  0  0  0  0  0
  148.5599  142.2002  155.0900 C   0  0  0  0  0  0  0  0  0  0  0  0
  147.7002  141.9405  154.0085 C   0  0  0  0  0  0  0  0  0  0  0  0
  147.7038  140.6503  153.4524 C   0  0  0  0  0  0  0  0  0  0  0  0
  148.5005  139.6589  153.8988 N   0  0  0  0  0  0  0  0  0  0  0  0
  149.3386  139.8995  154.9376 C   0  0  0  0  0  0  0  0  0  0  0  0
  150.1875  138.8383  155.3113 N   0  0  0  0  0  0  0  0  0  0  0  0
  151.6075  139.1561  155.2277 C   0  0  0  0  0  0  0  0  0  0  0  0
  152.4288  138.0610  155.9295 C   0  0  0  0  0  0  0  0  0  0  0  0
  152.1134  136.7891  155.3687 O   0  0  0  0  0  0  0  0  0  0  0  0
  150.7356  136.4596  155.5239 C   0  0  0  0  0  0  0  0  0  0  0  0
  149.8708  137.5079  154.8035 C   0  0  0  0  0  0  0  0  0  0  0  0
  152.4894  145.3159  161.1109 H   0  0  0  0  0  0  0  0  0  0  0  0
  151.7127  143.8671  160.4724 H   0  0  0  0  0  0  0  0  0  0  0  0
  150.8312  145.4050  160.5158 H   0  0  0  0  0  0  0  0  0  0  0  0
  150.4386  145.1655  158.1783 H   0  0  0  0  0  0  0  0  0  0  0  0
  151.7998  145.2385  157.0678 H   0  0  0  0  0  0  0  0  0  0  0  0
  152.5313  142.9525  157.7647 H   0  0  0  0  0  0  0  0  0  0  0  0
  151.2169  142.8634  158.9118 H   0  0  0  0  0  0  0  0  0  0  0  0
  150.2250  143.4440  156.2801 H   0  0  0  0  0  0  0  0  0  0  0  0
  148.5693  143.1833  155.5383 H   0  0  0  0  0  0  0  0  0  0  0  0
  147.0522  142.7107  153.6174 H   0  0  0  0  0  0  0  0  0  0  0  0
  147.0559  140.4094  152.6229 H   0  0  0  0  0  0  0  0  0  0  0  0
  151.8960  139.2265  154.1782 H   0  0  0  0  0  0  0  0  0  0  0  0
  151.8155  140.1252  155.6816 H   0  0  0  0  0  0  0  0  0  0  0  0
  153.4946  138.2513  155.8033 H   0  0  0  0  0  0  0  0  0  0  0  0
  152.2302  138.0558  157.0025 H   0  0  0  0  0  0  0  0  0  0  0  0
  150.5562  135.4702  155.1034 H   0  0  0  0  0  0  0  0  0  0  0  0
  150.4808  136.4078  156.5840 H   0  0  0  0  0  0  0  0  0  0  0  0
  148.8129  137.2929  154.9585 H   0  0  0  0  0  0  0  0  0  0  0  0
  150.0596  137.4676  153.7299 H   0  0  0  0  0  0  0  0  0  0  0  0
  1  2  1  0  0  0  0
  1 20  1  0  0  0  0
  1 21  1  0  0  0  0
  1 22  1  0  0  0  0
  2  3  1  0  0  0  0
  3  4  1  0  0  0  0
  3 23  1  0  0  0  0
  3 24  1  0  0  0  0
  4  5  1  0  0  0  0
  4 25  1  0  0  0  0
  4 26  1  0  0  0  0
  5  6  1  0  0  0  0
  5 27  1  0  0  0  0
  6  7  2  0  0  0  0
  6  8  1  0  0  0  0
  8 13  1  0  0  0  0
  8  9  2  0  0  0  0
  9 10  1  0  0  0  0
  9 28  1  0  0  0  0
 10 11  2  0  0  0  0
 10 29  1  0  0  0  0
 11 12  1  0  0  0  0
 11 30  1  0  0  0  0
 12 13  2  0  0  0  0
 13 14  1  0  0  0  0
 14 19  1  0  0  0  0
 14 15  1  0  0  0  0
 15 16  1  0  0  0  0
 15 31  1  0  0  0  0
 15 32  1  0  0  0  0
 16 17  1  0  0  0  0
 16 33  1  0  0  0  0
 16 34  1  0  0  0  0
 17 18  1  0  0  0  0
 18 19  1  0  0  0  0
 18 35  1  0  0  0  0
 18 36  1  0  0  0  0
 19 37  1  0  0  0  0
 19 38  1  0  0  0  0
M  END
> <s_m_source_file>
AV-unprocessed.smi

> <i_m_source_file_index>
2132

> <i_lp_mmshare_version>
43012

> <i_f3d_flags>
0

> <s_epik_input>
W0NIM11PW0NIMl1bQ0gyXVtOSF1DKD1PKWMxW2NIXVtjSF1bY0hdbmMxTjJbQ0gyXVtDSDJdT1tDSDJdW0NIMl0y

> <s_epik_cmdline>
J2VwaWtfcHl0aG9uJywgJy1waCcsICc3LjAnLCAnLXRuJywgJzgnLCAnLW1hJywgJzIwMCcsICctbWV0YWxfYmluZGluZycsICctaW1hZScsICc8aW5maWxlLm1hZT4nLCAnLW9tYWUnLCAnPG91dGZpbGUubWFlPic=

> <r_lp_tautomer_probability>
1

> <r_epik_Ionization_Penalty>
1.38099e-05

> <r_epik_Ionization_Penalty_Charging>
0

> <r_epik_Ionization_Penalty_Neutral>
1.38099e-05

> <r_epik_State_Penalty>
-0

> <r_epik_Charging_Adjusted_Penalty>
0

> <i_epik_Tot_Q>
0

> <i_epik_Tot_abs_Q>
0

> <r_epik_Metal_State_Penalty>
-0

> <b_epik_Metal_Only>
0

> <s_lp_Force_Field>
OPLS_2005

> <r_lp_Energy>
24.8445

> <b_lp_Chiralities_Consistent>
1

> <s_lp_Variant>
AV-unprocessed.smi:2132-1

> <Gold.Version>
5.8.1

> <Gold.Id.Protein>
6NUR|6NUR_protein|mol2

> <Gold.PLP.Fitness>
38.3993

> <Gold.PLP.PLP>
-33.4383

> <Gold.PLP.part.hbond>
-1.9839

> <Gold.PLP.part.metal>
0.0000

> <Gold.PLP.part.buried>
-1.5628

> <Gold.PLP.part.nonpolar>
-31.3695

> <Gold.PLP.part.repulsive>
1.3397

> <Gold.PLP.ligand.clash>
0.0000

> <Gold.PLP.ligand.torsion>
0.4767

> <Gold.PLP.Chemscore.Hbond>
1.8800

> <Gold.PLP.Chemscore.CHOScore>
0.0000

> <Gold.PLP.Chemscore.Metal>
0.0000

> <Gold.Chemscore.Hbonds>
donor molecule, donor type, donor heavy atom, donor atom, acceptor molecule, acceptor atom, score
      L1  H     5    27       P1  8028  1.00
      P1  H 10752 10764       L1    17  0.96

> <Gold.PLP.Chemscore.Internal.Correction>
0.2745

> <Gold.Rescore>
     Score         DG    S(hbond)    S(metal)    S(lipo)     H(rot)  DE(clash)    DE(int)     intcor
     12.98     -18.30       1.94        0.00      89.70       1.62       2.10       3.22       ----

> <Gold.Chemscore.Fitness>
12.9812

> <Gold.Chemscore.DG>
-18.2977

> <Gold.Chemscore.ZeroCoef>
-5.4800

> <Gold.Chemscore.Hbond>
1.9378

> <Gold.Chemscore.Metal>
0.0000

> <Gold.Chemscore.Lipo>
89.7007

> <Gold.Chemscore.Internal_Hbond>
0.0000

> <Gold.Chemscore.DEClash>
2.0974

> <Gold.Chemscore.DEInternal>
3.2192

> <Gold.Chemscore.Rot>
1.6209

> <Gold.Chemscore.Internal.Correction>
   9.000000E+99

> <Gold.Chemscore.Hbonds>
donor molecule, donor type, donor heavy atom, donor atom, acceptor molecule, acceptor atom, score
      L1  H     5    27       P1  8028  0.97
      P1  H 10752 10764       L1    17  0.75

> <Gold.Chemscore.Hbond.Weighted>
-6.4723

> <Gold.Chemscore.Metal.Weighted>
-0.0000

> <Gold.Chemscore.Lipo.Weighted>
-10.4950

> <Gold.Chemscore.Internal_Hbond.Weighted>
0.0000

> <Gold.Chemscore.DEClash.Weighted>
2.0974

> <Gold.Chemscore.DEInternal.Weighted>
3.2192

> <Gold.Chemscore.Rot.Weighted>
4.1496

> <Gold.Chemscore.Internal.Correction.Weighted>
   9.000000E+99

> <Gold.Protein.RotatedTorsions>
[ 6907 6896 6895 6894 ] final   23.04 input  -60.11 | X-H torsion
[ 7974 7965 7964 7962 ] final   19.28 input  175.53 | X-H torsion
[ 8008 7997 7996 7995 ] final  -73.76 input   59.86 | X-H torsion
[ 10167 10162 10161 10158 ] final  143.46 input  -65.29 | X-H torsion
[ 10718 10713 10712 10709 ] final  -26.37 input   66.30 | X-H torsion
[ 10763 10752 10751 10750 ] final  -58.94 input  -60.55 | X-H torsion
[ 11005 11000 10999 10996 ] final -105.90 input  -57.11 | X-H torsion

> <Gold.Protein.ActiveResidues>
 VAL166  LYS551  ARG553  GLY616  TRP617  ASP618  TYR619  PRO620  LYS621  CYS622 
 ASP623  PHE694  ASN695  SER759  ASP760  ASP761  ALA762  ILE779  LEU786  VAL792 
 PHE793  MET794  SER795  GLU796  ALA797  LYS798  CYS799  TRP800  GLU811  SER814 

> <Gold.Protein.RotatedAtoms>
  151.9362  135.0234  160.0532 H   0  0  0  0  0  0  0  0  0  0  0  0  # atno 6907 bound_to 6896
  152.2075  133.4882  159.5100 H   0  0  0  0  0  0  0  0  0  0  0  0  # atno 6908 bound_to 6896
  150.6968  134.1427  159.4153 H   0  0  0  0  0  0  0  0  0  0  0  0  # atno 6909 bound_to 6896
  146.2155  139.8336  142.8655 H   0  0  0  0  0  0  0  0  0  0  0  0  # atno 7974 bound_to 7965
  154.5274  140.0773  156.8284 H   0  0  0  0  0  0  0  0  0  0  0  0  # atno 8008 bound_to 7997
  155.3446  140.3409  155.4221 H   0  0  0  0  0  0  0  0  0  0  0  0  # atno 8009 bound_to 7997
  156.1746  140.1631  156.8373 H   0  0  0  0  0  0  0  0  0  0  0  0  # atno 8010 bound_to 7997
  139.4969  144.6039  151.6421 H   0  0  0  0  0  0  0  0  0  0  0  0  # atno 10167 bound_to 10162
  156.4521  130.4486  149.6983 H   0  0  0  0  0  0  0  0  0  0  0  0  # atno 10718 bound_to 10713
  154.2459  135.6335  153.5223 H   0  0  0  0  0  0  0  0  0  0  0  0  # atno 10763 bound_to 10752
  152.9921  135.5553  154.5860 H   0  0  0  0  0  0  0  0  0  0  0  0  # atno 10764 bound_to 10752
  154.5376  135.2892  155.1099 H   0  0  0  0  0  0  0  0  0  0  0  0  # atno 10765 bound_to 10752
  141.1031  133.8847  157.1790 H   0  0  0  0  0  0  0  0  0  0  0  0  # atno 11005 bound_to 11000
  145.2972  141.0184  143.3629 LP  0  0  0  0  0  0  0  0  0  0  0  0  # atno 17320 bound_to 7965
  144.9033  139.4621  143.6622 LP  0  0  0  0  0  0  0  0  0  0  0  0  # atno 17321 bound_to 7965
  140.5696  144.0132  150.6210 LP  0  0  0  0  0  0  0  0  0  0  0  0  # atno 17342 bound_to 10162
  140.3245  143.3116  152.0750 LP  0  0  0  0  0  0  0  0  0  0  0  0  # atno 17343 bound_to 10162
  156.3805  130.7576  151.2569 LP  0  0  0  0  0  0  0  0  0  0  0  0  # atno 17370 bound_to 10713
  157.7502  131.0297  150.4104 LP  0  0  0  0  0  0  0  0  0  0  0  0  # atno 17371 bound_to 10713
  139.9890  135.0071  156.9930 LP  0  0  0  0  0  0  0  0  0  0  0  0  # atno 17394 bound_to 11000
  140.4972  134.1134  155.7243 LP  0  0  0  0  0  0  0  0  0  0  0  0  # atno 17395 bound_to 11000

$$$$
