AV-unprocessed.smi:2175|AV-procd|sdf|8845|dock8
  -GOLD-   2272012 33D 1   1.00000     0.00000
 Structure written by MMmdl.
 33 34  0  0  0  0  0  0  0  0  2 V2000
  148.3974  141.3504  153.8715 C   0  0  0  0  0  0  0  0  0  0  0  0
  149.3200  140.7924  154.9339 C   0  0  0  0  0  0  0  0  0  0  0  0
  150.4253  140.2557  154.5815 N   0  0  0  0  0  0  0  0  0  0  0  0
  151.2866  139.7380  155.5636 C   0  0  0  0  0  0  0  0  0  0  0  0
  152.5799  139.1259  155.0542 C   0  0  0  0  0  0  0  0  0  0  0  0
  150.9630  139.7945  156.8874 C   0  0  0  0  0  0  0  0  0  0  0  0
  151.8712  139.2540  157.9918 C   0  0  0  0  0  0  0  0  0  0  0  0
  152.7082  140.2976  158.7355 C   0  0  0  0  0  0  0  0  0  0  0  0
  153.9140  140.1206  158.9090 O   0  0  0  0  0  0  0  0  0  0  0  0
  152.0542  141.3868  159.1662 N   0  0  0  0  0  0  0  0  0  0  0  0
  152.6629  142.5019  159.8793 C   0  0  0  0  0  0  0  0  0  0  0  0
  152.8330  143.7686  159.0624 C   0  0  0  0  0  0  0  0  0  0  0  0
  152.0069  144.9998  159.3516 C   0  0  0  0  0  0  0  0  0  0  0  0
  151.7583  144.2027  158.0935 C   0  0  0  0  0  0  0  0  0  0  0  0
  149.6766  140.4159  157.2512 C   0  0  0  0  0  0  0  0  0  0  0  0
  149.3290  140.4813  158.4296 O   0  0  0  0  0  0  0  0  0  0  0  0
  148.9014  140.9034  156.2406 N   0  5  0  0  0  0  0  0  0  0  0  0
  148.7371  141.0748  152.8722 H   0  0  0  0  0  0  0  0  0  0  0  0
  148.3654  142.4383  153.9354 H   0  0  0  0  0  0  0  0  0  0  0  0
  147.3861  140.9649  154.0048 H   0  0  0  0  0  0  0  0  0  0  0  0
  153.4397  139.6812  155.4294 H   0  0  0  0  0  0  0  0  0  0  0  0
  152.6213  139.1415  153.9643 H   0  0  0  0  0  0  0  0  0  0  0  0
  152.6676  138.0881  155.3760 H   0  0  0  0  0  0  0  0  0  0  0  0
  151.2474  138.7222  158.7111 H   0  0  0  0  0  0  0  0  0  0  0  0
  152.5472  138.4929  157.6015 H   0  0  0  0  0  0  0  0  0  0  0  0
  151.0635  141.4484  158.9814 H   0  0  0  0  0  0  0  0  0  0  0  0
  152.0708  142.7354  160.7656 H   0  0  0  0  0  0  0  0  0  0  0  0
  153.6381  142.1764  160.2428 H   0  0  0  0  0  0  0  0  0  0  0  0
  153.8552  143.9437  158.7315 H   0  0  0  0  0  0  0  0  0  0  0  0
  151.2612  144.9368  160.1419 H   0  0  0  0  0  0  0  0  0  0  0  0
  152.4948  145.9666  159.2473 H   0  0  0  0  0  0  0  0  0  0  0  0
  152.0787  144.6394  157.1498 H   0  0  0  0  0  0  0  0  0  0  0  0
  150.8462  143.6110  158.0475 H   0  0  0  0  0  0  0  0  0  0  0  0
  1  2  1  0  0  0  0
  1 18  1  0  0  0  0
  1 19  1  0  0  0  0
  1 20  1  0  0  0  0
  2 17  1  0  0  0  0
  2  3  2  0  0  0  0
  3  4  1  0  0  0  0
  4  5  1  0  0  0  0
  4  6  2  0  0  0  0
  5 21  1  0  0  0  0
  5 22  1  0  0  0  0
  5 23  1  0  0  0  0
  6  7  1  0  0  0  0
  6 15  1  0  0  0  0
  7  8  1  0  0  0  0
  7 24  1  0  0  0  0
  7 25  1  0  0  0  0
  8  9  2  0  0  0  0
  8 10  1  0  0  0  0
 10 11  1  0  0  0  0
 10 26  1  0  0  0  0
 11 12  1  0  0  0  0
 11 27  1  0  0  0  0
 11 28  1  0  0  0  0
 12 14  1  0  0  0  0
 12 13  1  0  0  0  0
 12 29  1  0  0  0  0
 13 14  1  0  0  0  0
 13 30  1  0  0  0  0
 13 31  1  0  0  0  0
 14 32  1  0  0  0  0
 14 33  1  0  0  0  0
 15 16  2  0  0  0  0
 15 17  1  0  0  0  0
M  CHG  1  17  -1
M  END
> <s_m_source_file>
AV-unprocessed.smi

> <i_m_source_file_index>
2175

> <i_lp_mmshare_version>
43012

> <i_f3d_flags>
0

> <s_epik_input>
W0NIM11jMW5jKFtDSDNdKWMoYyg9TylbbkhdMSlbQ0gyXUMoPU8pW05IXVtDSDJdW0NIXTJbQ0gyXVtDSDJdMg==

> <s_epik_cmdline>
J2VwaWtfcHl0aG9uJywgJy1waCcsICc3LjAnLCAnLXRuJywgJzgnLCAnLW1hJywgJzIwMCcsICctbWV0YWxfYmluZGluZycsICctaW1hZScsICc8aW5maWxlLm1hZT4nLCAnLW9tYWUnLCAnPG91dGZpbGUubWFlPic=

> <r_lp_tautomer_probability>
0.839158

> <r_epik_Ionization_Penalty>
6.60351

> <r_epik_Ionization_Penalty_Charging>
6.70818e-08

> <r_epik_Ionization_Penalty_Neutral>
6.60351

> <r_epik_State_Penalty>
4.42903

> <r_epik_Charging_Adjusted_Penalty>
4.42903

> <i_epik_Tot_Q>
-1

> <i_epik_Tot_abs_Q>
1

> <r_epik_Metal_State_Penalty>
0.797668

> <b_epik_Metal_Only>
1

> <s_lp_Force_Field>
OPLS_2005

> <r_lp_Energy>
17.43

> <b_lp_Chiralities_Consistent>
1

> <s_lp_Variant>
AV-unprocessed.smi:2175-3

> <Gold.Version>
5.8.1

> <Gold.Id.Protein>
6NUR|6NUR_protein|mol2

> <Gold.PLP.Fitness>
42.1017

> <Gold.PLP.PLP>
-37.4206

> <Gold.PLP.part.hbond>
-2.4156

> <Gold.PLP.part.metal>
0.0000

> <Gold.PLP.part.buried>
-1.7143

> <Gold.PLP.part.nonpolar>
-33.1381

> <Gold.PLP.part.repulsive>
0.2769

> <Gold.PLP.ligand.clash>
0.0000

> <Gold.PLP.ligand.torsion>
0.9306

> <Gold.PLP.Chemscore.Hbond>
2.0000

> <Gold.PLP.Chemscore.CHOScore>
0.0000

> <Gold.PLP.Chemscore.Metal>
0.0000

> <Gold.Chemscore.Hbonds>
donor molecule, donor type, donor heavy atom, donor atom, acceptor molecule, acceptor atom, score
      P1  H  7989  7998       L1     3  0.95
      P1  H  7997  8008       L1     9  0.98

> <Gold.PLP.Chemscore.Internal.Correction>
0.5423

> <Gold.Rescore>
     Score         DG    S(hbond)    S(metal)    S(lipo)     H(rot)  DE(clash)    DE(int)     intcor
     14.69     -15.76       1.37        0.00      85.88       1.70       0.11       0.96       ----

> <Gold.Chemscore.Fitness>
14.6897

> <Gold.Chemscore.DG>
-15.7618

> <Gold.Chemscore.ZeroCoef>
-5.4800

> <Gold.Chemscore.Hbond>
1.3738

> <Gold.Chemscore.Metal>
0.0000

> <Gold.Chemscore.Lipo>
85.8765

> <Gold.Chemscore.Internal_Hbond>
0.0000

> <Gold.Chemscore.DEClash>
0.1119

> <Gold.Chemscore.DEInternal>
0.9601

> <Gold.Chemscore.Rot>
1.7009

> <Gold.Chemscore.Internal.Correction>
   9.000000E+99

> <Gold.Chemscore.Hbonds>
donor molecule, donor type, donor heavy atom, donor atom, acceptor molecule, acceptor atom, score
      P1  H  7989  7998       L1     3  0.21
      P1  H  7997  8008       L1     9  0.69

> <Gold.Chemscore.Hbond.Weighted>
-4.5885

> <Gold.Chemscore.Metal.Weighted>
-0.0000

> <Gold.Chemscore.Lipo.Weighted>
-10.0475

> <Gold.Chemscore.Internal_Hbond.Weighted>
0.0000

> <Gold.Chemscore.DEClash.Weighted>
0.1119

> <Gold.Chemscore.DEInternal.Weighted>
0.9601

> <Gold.Chemscore.Rot.Weighted>
4.3543

> <Gold.Chemscore.Internal.Correction.Weighted>
   9.000000E+99

> <Gold.Protein.RotatedTorsions>
[ 6907 6896 6895 6894 ] final -143.07 input  -60.11 | X-H torsion
[ 7974 7965 7964 7962 ] final   70.44 input  175.53 | X-H torsion
[ 8008 7997 7996 7995 ] final -101.85 input   59.86 | X-H torsion
[ 10167 10162 10161 10158 ] final  -16.14 input  -65.29 | X-H torsion
[ 10718 10713 10712 10709 ] final  -30.92 input   66.30 | X-H torsion
[ 10763 10752 10751 10750 ] final   35.16 input  -60.55 | X-H torsion
[ 11005 11000 10999 10996 ] final   76.59 input  -57.11 | X-H torsion

> <Gold.Protein.ActiveResidues>
 VAL166  LYS551  ARG553  GLY616  TRP617  ASP618  TYR619  PRO620  LYS621  CYS622 
 ASP623  PHE694  ASN695  SER759  ASP760  ASP761  ALA762  ILE779  LEU786  VAL792 
 PHE793  MET794  SER795  GLU796  ALA797  LYS798  CYS799  TRP800  GLU811  SER814 

> <Gold.Protein.RotatedAtoms>
  151.0956  133.5282  159.2612 H   0  0  0  0  0  0  0  0  0  0  0  0  # atno 6907 bound_to 6896
  151.2133  135.0489  159.8930 H   0  0  0  0  0  0  0  0  0  0  0  0  # atno 6908 bound_to 6896
  152.5438  134.0768  159.8272 H   0  0  0  0  0  0  0  0  0  0  0  0  # atno 6909 bound_to 6896
  145.7782  139.2875  143.1281 H   0  0  0  0  0  0  0  0  0  0  0  0  # atno 7974 bound_to 7965
  154.8483  140.0432  157.1587 H   0  0  0  0  0  0  0  0  0  0  0  0  # atno 8008 bound_to 7997
  154.8970  140.2995  155.5318 H   0  0  0  0  0  0  0  0  0  0  0  0  # atno 8009 bound_to 7997
  156.2995  140.2383  156.3993 H   0  0  0  0  0  0  0  0  0  0  0  0  # atno 8010 bound_to 7997
  140.7229  143.5146  150.9707 H   0  0  0  0  0  0  0  0  0  0  0  0  # atno 10167 bound_to 10162
  156.3937  130.4377  149.7375 H   0  0  0  0  0  0  0  0  0  0  0  0  # atno 10718 bound_to 10713
  153.0131  135.6340  154.1784 H   0  0  0  0  0  0  0  0  0  0  0  0  # atno 10763 bound_to 10752
  154.1524  135.2828  155.3133 H   0  0  0  0  0  0  0  0  0  0  0  0  # atno 10764 bound_to 10752
  154.6043  135.5577  153.7467 H   0  0  0  0  0  0  0  0  0  0  0  0  # atno 10765 bound_to 10752
  139.9291  134.7613  156.1414 H   0  0  0  0  0  0  0  0  0  0  0  0  # atno 11005 bound_to 11000
  146.0101  140.8443  142.9975 LP  0  0  0  0  0  0  0  0  0  0  0  0  # atno 17320 bound_to 7965
  144.6801  140.2478  143.7335 LP  0  0  0  0  0  0  0  0  0  0  0  0  # atno 17321 bound_to 7965
  139.8861  143.7011  152.3151 LP  0  0  0  0  0  0  0  0  0  0  0  0  # atno 17342 bound_to 10162
  139.7310  144.7582  151.0802 LP  0  0  0  0  0  0  0  0  0  0  0  0  # atno 17343 bound_to 10162
  156.4418  130.7864  151.2886 LP  0  0  0  0  0  0  0  0  0  0  0  0  # atno 17370 bound_to 10713
  157.7500  131.0122  150.3377 LP  0  0  0  0  0  0  0  0  0  0  0  0  # atno 17371 bound_to 10713
  141.0869  133.6730  156.2456 LP  0  0  0  0  0  0  0  0  0  0  0  0  # atno 17394 bound_to 11000
  140.6251  134.5322  157.5552 LP  0  0  0  0  0  0  0  0  0  0  0  0  # atno 17395 bound_to 11000

$$$$
