AV-unprocessed.smi:2735|AV-procd|sdf|10541|dock2
  -GOLD-   2272014583D 1   1.00000     0.00000
 Structure written by MMmdl.
 42 42  0  0  0  0  0  0  0  0  2 V2000
  154.3752  140.2336  160.5307 C   0  0  0  0  0  0  0  0  0  0  0  0
  153.4128  141.2655  160.0216 C   0  0  0  0  0  0  0  0  0  0  0  0
  153.3331  142.6423  160.3661 C   0  0  0  0  0  0  0  0  0  0  0  0
  152.2964  143.1189  159.6145 C   0  0  0  0  0  0  0  0  0  0  0  0
  151.7414  144.5030  159.5268 C   0  0  0  0  0  0  0  0  0  0  0  0
  151.7943  142.0511  158.8870 N   0  0  0  0  0  0  0  0  0  0  0  0
  150.7152  142.0443  157.8983 C   0  0  2  0  0  0  0  0  0  0  0  0
  149.3821  142.5807  158.4601 C   0  0  0  0  0  0  0  0  0  0  0  0
  150.5541  140.6372  157.3045 C   0  0  0  0  0  0  0  0  0  0  0  0
  150.1542  139.7063  158.0046 O   0  0  0  0  0  0  0  0  0  0  0  0
  150.8771  140.5001  156.0089 N   0  0  0  0  0  0  0  0  0  0  0  0
  150.8723  139.2469  155.2559 C   0  0  1  0  0  0  0  0  0  0  0  0
  149.7338  139.2887  154.2083 C   0  0  0  0  0  0  0  0  0  0  0  0
  148.4133  139.9267  154.6980 C   0  0  0  0  0  0  0  0  0  0  0  0
  147.1766  139.3267  154.0081 C   0  0  0  0  0  0  0  0  0  0  0  0
  148.4470  141.4502  154.5044 C   0  0  0  0  0  0  0  0  0  0  0  0
  152.2074  139.0986  154.5081 C   0  0  0  0  0  0  0  0  0  0  0  0
  152.3830  138.0390  153.8681 O   0  0  0  0  0  0  0  0  0  0  0  0
  153.0259  140.0436  154.5790 O   0  5  0  0  0  0  0  0  0  0  0  0
  152.4978  140.9200  159.1326 N   0  0  0  0  0  0  0  0  0  0  0  0
  150.7424  138.3928  155.9221 H   0  0  0  0  0  0  0  0  0  0  0  0
  155.0820  140.6693  161.2372 H   0  0  0  0  0  0  0  0  0  0  0  0
  154.9497  139.7954  159.7143 H   0  0  0  0  0  0  0  0  0  0  0  0
  153.8504  139.4262  161.0414 H   0  0  0  0  0  0  0  0  0  0  0  0
  153.9510  143.1999  161.0543 H   0  0  0  0  0  0  0  0  0  0  0  0
  152.2669  145.1756  160.2046 H   0  0  0  0  0  0  0  0  0  0  0  0
  150.6851  144.5175  159.7946 H   0  0  0  0  0  0  0  0  0  0  0  0
  151.8450  144.9009  158.5177 H   0  0  0  0  0  0  0  0  0  0  0  0
  151.0085  142.7211  157.0947 H   0  0  0  0  0  0  0  0  0  0  0  0
  148.6232  142.6337  157.6788 H   0  0  0  0  0  0  0  0  0  0  0  0
  149.5061  143.5867  158.8614 H   0  0  0  0  0  0  0  0  0  0  0  0
  148.9861  141.9512  159.2581 H   0  0  0  0  0  0  0  0  0  0  0  0
  151.2064  141.3166  155.5155 H   0  0  0  0  0  0  0  0  0  0  0  0
  150.0766  139.8346  153.3272 H   0  0  0  0  0  0  0  0  0  0  0  0
  149.5234  138.2747  153.8637 H   0  0  0  0  0  0  0  0  0  0  0  0
  148.3161  139.7466  155.7690 H   0  0  0  0  0  0  0  0  0  0  0  0
  147.2388  139.4269  152.9240 H   0  0  0  0  0  0  0  0  0  0  0  0
  146.2646  139.8260  154.3361 H   0  0  0  0  0  0  0  0  0  0  0  0
  147.0608  138.2684  154.2407 H   0  0  0  0  0  0  0  0  0  0  0  0
  148.5388  141.7135  153.4501 H   0  0  0  0  0  0  0  0  0  0  0  0
  149.2896  141.8961  155.0335 H   0  0  0  0  0  0  0  0  0  0  0  0
  147.5382  141.9161  154.8863 H   0  0  0  0  0  0  0  0  0  0  0  0
  1  2  1  0  0  0  0
  1 22  1  0  0  0  0
  1 23  1  0  0  0  0
  1 24  1  0  0  0  0
  2 20  2  0  0  0  0
  2  3  1  0  0  0  0
  3  4  2  0  0  0  0
  3 25  1  0  0  0  0
  4  5  1  0  0  0  0
  4  6  1  0  0  0  0
  5 26  1  0  0  0  0
  5 27  1  0  0  0  0
  5 28  1  0  0  0  0
  6  7  1  0  0  0  0
  6 20  1  0  0  0  0
  7  8  1  0  0  0  0
  7  9  1  0  0  0  0
  7 29  1  0  0  0  0
  8 30  1  0  0  0  0
  8 31  1  0  0  0  0
  8 32  1  0  0  0  0
  9 10  2  0  0  0  0
  9 11  1  0  0  0  0
 11 12  1  0  0  0  0
 11 33  1  0  0  0  0
 12 21  1  0  0  0  0
 12 13  1  0  0  0  0
 12 17  1  0  0  0  0
 13 14  1  0  0  0  0
 13 34  1  0  0  0  0
 13 35  1  0  0  0  0
 14 15  1  0  0  0  0
 14 16  1  0  0  0  0
 14 36  1  0  0  0  0
 15 37  1  0  0  0  0
 15 38  1  0  0  0  0
 15 39  1  0  0  0  0
 16 40  1  0  0  0  0
 16 41  1  0  0  0  0
 16 42  1  0  0  0  0
 17 18  2  0  0  0  0
 17 19  1  0  0  0  0
M  CHG  1  19  -1
M  END
> <s_m_source_file>
AV-unprocessed.smi

> <i_m_source_file_index>
2735

> <i_lp_mmshare_version>
43012

> <i_f3d_flags>
0

> <s_epik_input>
W0NIM11jMVtjSF1jKFtDSDNdKW4objEpW0NASF0oW0NIM10pQyg9TylbTkhdW0NASF0oQyg9TylbT0hdKVtDSDJdW0NIXShbQ0gzXSlbQ0gzXQ==

> <s_epik_cmdline>
J2VwaWtfcHl0aG9uJywgJy1waCcsICc3LjAnLCAnLXRuJywgJzgnLCAnLW1hJywgJzIwMCcsICctbWV0YWxfYmluZGluZycsICctaW1hZScsICc8aW5maWxlLm1hZT4nLCAnLW9tYWUnLCAnPG91dGZpbGUubWFlPic=

> <r_lp_tautomer_probability>
1

> <r_epik_Ionization_Penalty>
0.0012303

> <r_epik_Ionization_Penalty_Charging>
0.000186407

> <r_epik_Ionization_Penalty_Neutral>
0.0010439

> <r_epik_State_Penalty>
-0

> <r_epik_Charging_Adjusted_Penalty>
0.000186407

> <i_epik_Tot_Q>
-1

> <i_epik_Tot_abs_Q>
1

> <r_epik_Metal_State_Penalty>
-0

> <b_epik_Metal_Only>
0

> <s_lp_Force_Field>
OPLS_2005

> <r_lp_Energy>
6.85708

> <b_lp_Chiralities_Consistent>
1

> <s_lp_Variant>
AV-unprocessed.smi:2735-1

> <Gold.Version>
5.8.1

> <Gold.Id.Protein>
6NUR|6NUR_protein|mol2

> <Gold.PLP.Fitness>
52.6943

> <Gold.PLP.PLP>
-43.0535

> <Gold.PLP.part.hbond>
-3.0000

> <Gold.PLP.part.metal>
0.0000

> <Gold.PLP.part.buried>
-5.2028

> <Gold.PLP.part.nonpolar>
-35.9258

> <Gold.PLP.part.repulsive>
0.2779

> <Gold.PLP.ligand.clash>
0.0000

> <Gold.PLP.ligand.torsion>
0.7445

> <Gold.PLP.Chemscore.Hbond>
3.6691

> <Gold.PLP.Chemscore.CHOScore>
0.0000

> <Gold.PLP.Chemscore.Metal>
0.0000

> <Gold.Chemscore.Hbonds>
donor molecule, donor type, donor heavy atom, donor atom, acceptor molecule, acceptor atom, score
      P1  H  7989  7998       L1    19  0.01
      P1  H  7997  8010       L1    19  2.00

> <Gold.PLP.Chemscore.Internal.Correction>
0.1227

> <Gold.Rescore>
     Score         DG    S(hbond)    S(metal)    S(lipo)     H(rot)  DE(clash)    DE(int)     intcor
     15.73     -17.58       1.87        0.00      99.04       2.24       0.02       1.83       ----

> <Gold.Chemscore.Fitness>
15.7293

> <Gold.Chemscore.DG>
-17.5813

> <Gold.Chemscore.ZeroCoef>
-5.4800

> <Gold.Chemscore.Hbond>
1.8698

> <Gold.Chemscore.Metal>
0.0000

> <Gold.Chemscore.Lipo>
99.0382

> <Gold.Chemscore.Internal_Hbond>
0.0000

> <Gold.Chemscore.DEClash>
0.0224

> <Gold.Chemscore.DEInternal>
1.8297

> <Gold.Chemscore.Rot>
2.2388

> <Gold.Chemscore.Internal.Correction>
   9.000000E+99

> <Gold.Chemscore.Hbonds>
donor molecule, donor type, donor heavy atom, donor atom, acceptor molecule, acceptor atom, score
      P1  H  7997  8010       L1    19  0.99
      P1  H 10752 10765       L1    18  0.04

> <Gold.Chemscore.Hbond.Weighted>
-6.2452

> <Gold.Chemscore.Metal.Weighted>
-0.0000

> <Gold.Chemscore.Lipo.Weighted>
-11.5875

> <Gold.Chemscore.Internal_Hbond.Weighted>
0.0000

> <Gold.Chemscore.DEClash.Weighted>
0.0224

> <Gold.Chemscore.DEInternal.Weighted>
1.8297

> <Gold.Chemscore.Rot.Weighted>
5.7314

> <Gold.Chemscore.Internal.Correction.Weighted>
   9.000000E+99

> <Gold.Protein.RotatedTorsions>
[ 6907 6896 6895 6894 ] final   26.60 input  -60.11 | X-H torsion
[ 7974 7965 7964 7962 ] final  158.50 input  175.53 | X-H torsion
[ 8008 7997 7996 7995 ] final  123.61 input   59.86 | X-H torsion
[ 10167 10162 10161 10158 ] final   56.68 input  -65.29 | X-H torsion
[ 10718 10713 10712 10709 ] final  169.10 input   66.30 | X-H torsion
[ 10763 10752 10751 10750 ] final  158.35 input  -60.55 | X-H torsion
[ 11005 11000 10999 10996 ] final  139.79 input  -57.11 | X-H torsion

> <Gold.Protein.ActiveResidues>
 VAL166  LYS551  ARG553  GLY616  TRP617  ASP618  TYR619  PRO620  LYS621  CYS622 
 ASP623  PHE694  ASN695  SER759  ASP760  ASP761  ALA762  ILE779  LEU786  VAL792 
 PHE793  MET794  SER795  GLU796  ALA797  LYS798  CYS799  TRP800  GLU811  SER814 

> <Gold.Protein.RotatedAtoms>
  151.9899  134.9985  160.0560 H   0  0  0  0  0  0  0  0  0  0  0  0  # atno 6907 bound_to 6896
  152.1618  133.4582  159.4873 H   0  0  0  0  0  0  0  0  0  0  0  0  # atno 6908 bound_to 6896
  150.6889  134.1980  159.4354 H   0  0  0  0  0  0  0  0  0  0  0  0  # atno 6909 bound_to 6896
  144.7842  139.7486  143.6247 H   0  0  0  0  0  0  0  0  0  0  0  0  # atno 7974 bound_to 7965
  156.2772  140.2759  156.1655 H   0  0  0  0  0  0  0  0  0  0  0  0  # atno 8008 bound_to 7997
  155.0709  140.0387  157.2626 H   0  0  0  0  0  0  0  0  0  0  0  0  # atno 8009 bound_to 7997
  154.7041  140.2655  155.6697 H   0  0  0  0  0  0  0  0  0  0  0  0  # atno 8010 bound_to 7997
  140.2062  144.3937  150.6508 H   0  0  0  0  0  0  0  0  0  0  0  0  # atno 10167 bound_to 10162
  157.0275  131.0250  151.2755 H   0  0  0  0  0  0  0  0  0  0  0  0  # atno 10718 bound_to 10713
  154.2147  135.2784  155.2946 H   0  0  0  0  0  0  0  0  0  0  0  0  # atno 10763 bound_to 10752
  154.5750  135.5607  153.7134 H   0  0  0  0  0  0  0  0  0  0  0  0  # atno 10764 bound_to 10752
  153.0056  135.6330  154.2286 H   0  0  0  0  0  0  0  0  0  0  0  0  # atno 10765 bound_to 10752
  140.0280  134.9365  157.0607 H   0  0  0  0  0  0  0  0  0  0  0  0  # atno 11005 bound_to 11000
  146.2066  139.5395  142.9708 LP  0  0  0  0  0  0  0  0  0  0  0  0  # atno 17320 bound_to 7965
  145.5966  141.0362  143.2041 LP  0  0  0  0  0  0  0  0  0  0  0  0  # atno 17321 bound_to 7965
  140.6356  143.2194  151.6402 LP  0  0  0  0  0  0  0  0  0  0  0  0  # atno 17342 bound_to 10162
  139.5198  144.3243  152.0883 LP  0  0  0  0  0  0  0  0  0  0  0  0  # atno 17343 bound_to 10162
  157.5203  130.7994  149.7802 LP  0  0  0  0  0  0  0  0  0  0  0  0  # atno 17370 bound_to 10713
  156.0081  130.3846  150.2360 LP  0  0  0  0  0  0  0  0  0  0  0  0  # atno 17371 bound_to 10713
  140.4273  134.1817  155.7166 LP  0  0  0  0  0  0  0  0  0  0  0  0  # atno 17394 bound_to 11000
  141.1814  133.8405  157.1243 LP  0  0  0  0  0  0  0  0  0  0  0  0  # atno 17395 bound_to 11000

$$$$
