AV-unprocessed.smi:112|AV-procd|sdf|1089|dock4
  -GOLD-   2262018193D 1   1.00000     0.00000
 Structure written by MMmdl.
 54 57  0  0  0  0  0  0  0  0  3 V2000
  152.1085  138.6977  158.0557 C   0  0  0  0  0  0  0  0  0  0  0  0
  152.7206  139.5947  159.1207 C   0  0  0  0  0  0  0  0  0  0  0  0
  152.7358  140.9427  159.0048 C   0  0  0  0  0  0  0  0  0  0  0  0
  153.2799  141.7872  159.9579 N   0  0  0  0  0  0  0  0  0  0  0  0
  153.2754  143.2958  159.8083 C   0  0  2  0  0  0  0  0  0  0  0  0
  152.4501  143.9624  160.9172 C   0  0  0  0  0  0  0  0  0  0  0  0
  151.7996  145.0998  160.1614 C   0  0  2  0  0  0  0  0  0  0  0  0
  150.6536  145.5962  160.8240 O   0  0  0  0  0  0  0  0  0  0  0  0
  151.5267  144.4722  158.7886 C   0  0  2  0  0  0  0  0  0  0  0  0
  150.2648  143.5832  158.7195 C   0  0  0  0  0  0  0  0  0  0  0  0
  150.1166  143.0614  157.4162 O   0  0  0  0  0  0  0  0  0  0  0  0
  152.6861  143.6594  158.5892 O   0  0  0  0  0  0  0  0  0  0  0  0
  153.8941  141.2371  161.1013 C   0  0  0  0  0  0  0  0  0  0  0  0
  154.4083  141.9675  161.9518 O   0  0  0  0  0  0  0  0  0  0  0  0
  153.8996  139.8322  161.2502 N   0  0  0  0  0  0  0  0  0  0  0  0
  154.5190  139.2529  162.4639 C   0  0  0  0  0  0  0  0  0  0  0  0
  155.4524  138.0564  162.1748 C   0  0  0  0  0  0  0  0  0  0  0  0
  156.4103  138.2188  161.4180 O   0  0  0  0  0  0  0  0  0  0  0  0
  155.1723  136.8741  162.7775 N   0  0  0  0  0  0  0  0  0  0  0  0
  154.0280  136.6746  163.6837 C   0  0  0  0  0  0  0  0  0  0  0  0
  154.0964  135.2050  164.1528 C   0  0  0  0  0  0  0  0  0  0  0  0
  155.3068  134.6778  163.4408 C   0  0  0  0  0  0  0  0  0  0  0  0
  155.8218  133.3724  163.5153 C   0  0  0  0  0  0  0  0  0  0  0  0
  156.9836  133.0513  162.7700 C   0  0  0  0  0  0  0  0  0  0  0  0
  157.5544  131.6908  162.8259 N   0  3  0  0  0  0  0  0  0  0  0  0
  158.5256  131.4382  162.1201 O   0  0  0  0  0  0  0  0  0  0  0  0
  157.0327  130.8722  163.5761 O   0  5  0  0  0  0  0  0  0  0  0  0
  157.5905  134.0562  161.9705 C   0  0  0  0  0  0  0  0  0  0  0  0
  157.0588  135.3629  161.9069 C   0  0  0  0  0  0  0  0  0  0  0  0
  155.9018  135.6611  162.6588 C   0  0  0  0  0  0  0  0  0  0  0  0
  153.3124  138.9608  160.3008 C   0  0  0  0  0  0  0  0  0  0  0  0
  153.3103  137.7419  160.4841 O   0  0  0  0  0  0  0  0  0  0  0  0
  151.7070  139.2727  157.2206 H   0  0  0  0  0  0  0  0  0  0  0  0
  151.2927  138.1083  158.4760 H   0  0  0  0  0  0  0  0  0  0  0  0
  152.8575  138.0119  157.6581 H   0  0  0  0  0  0  0  0  0  0  0  0
  152.2959  141.3623  158.1133 H   0  0  0  0  0  0  0  0  0  0  0  0
  154.3250  143.5951  159.8010 H   0  0  0  0  0  0  0  0  0  0  0  0
  151.7015  143.2626  161.2932 H   0  0  0  0  0  0  0  0  0  0  0  0
  153.0814  144.2896  161.7437 H   0  0  0  0  0  0  0  0  0  0  0  0
  152.5184  145.9129  160.0488 H   0  0  0  0  0  0  0  0  0  0  0  0
  150.5210  145.0953  161.6145 H   0  0  0  0  0  0  0  0  0  0  0  0
  151.4726  145.2505  158.0261 H   0  0  0  0  0  0  0  0  0  0  0  0
  150.2884  142.7751  159.4501 H   0  0  0  0  0  0  0  0  0  0  0  0
  149.3688  144.1688  158.9245 H   0  0  0  0  0  0  0  0  0  0  0  0
  149.8082  143.7515  156.8494 H   0  0  0  0  0  0  0  0  0  0  0  0
  155.0832  140.0111  163.0086 H   0  0  0  0  0  0  0  0  0  0  0  0
  153.7433  138.9437  163.1652 H   0  0  0  0  0  0  0  0  0  0  0  0
  154.0858  137.3501  164.5382 H   0  0  0  0  0  0  0  0  0  0  0  0
  153.0875  136.8588  163.1630 H   0  0  0  0  0  0  0  0  0  0  0  0
  154.2262  135.1290  165.2327 H   0  0  0  0  0  0  0  0  0  0  0  0
  153.2074  134.6441  163.8628 H   0  0  0  0  0  0  0  0  0  0  0  0
  155.3301  132.6375  164.1353 H   0  0  0  0  0  0  0  0  0  0  0  0
  158.4762  133.8338  161.3940 H   0  0  0  0  0  0  0  0  0  0  0  0
  157.5507  136.0957  161.2873 H   0  0  0  0  0  0  0  0  0  0  0  0
  1  2  1  0  0  0  0
  1 33  1  0  0  0  0
  1 34  1  0  0  0  0
  1 35  1  0  0  0  0
  2 31  1  0  0  0  0
  2  3  2  0  0  0  0
  3  4  1  0  0  0  0
  3 36  1  0  0  0  0
  4  5  1  0  0  0  0
  4 13  1  0  0  0  0
  5 12  1  0  0  0  0
  5  6  1  0  0  0  0
  5 37  1  0  0  0  0
  6  7  1  0  0  0  0
  6 38  1  0  0  0  0
  6 39  1  0  0  0  0
  7  8  1  0  0  0  0
  7  9  1  0  0  0  0
  7 40  1  0  0  0  0
  8 41  1  0  0  0  0
  9 10  1  0  0  0  0
  9 12  1  0  0  0  0
  9 42  1  0  0  0  0
 10 11  1  0  0  0  0
 10 43  1  0  0  0  0
 10 44  1  0  0  0  0
 11 45  1  0  0  0  0
 13 14  2  0  0  0  0
 13 15  1  0  0  0  0
 15 16  1  0  0  0  0
 15 31  1  0  0  0  0
 16 17  1  0  0  0  0
 16 46  1  0  0  0  0
 16 47  1  0  0  0  0
 17 18  2  0  0  0  0
 17 19  1  0  0  0  0
 19 30  1  0  0  0  0
 19 20  1  0  0  0  0
 20 21  1  0  0  0  0
 20 48  1  0  0  0  0
 20 49  1  0  0  0  0
 21 22  1  0  0  0  0
 21 50  1  0  0  0  0
 21 51  1  0  0  0  0
 22 30  2  0  0  0  0
 22 23  1  0  0  0  0
 23 24  2  0  0  0  0
 23 52  1  0  0  0  0
 24 25  1  0  0  0  0
 24 28  1  0  0  0  0
 25 26  2  0  0  0  0
 25 27  1  0  0  0  0
 28 29  2  0  0  0  0
 28 53  1  0  0  0  0
 29 30  1  0  0  0  0
 29 54  1  0  0  0  0
 31 32  2  0  0  0  0
M  CHG  1  25   1
M  CHG  1  27  -1
M  END
> <s_m_source_file>
AV-unprocessed.smi

> <i_m_source_file_index>
112

> <i_lp_mmshare_version>
43012

> <i_f3d_flags>
0

> <s_epik_input>
W09IXVtDSDJdW0NAQEhdKE8xKVtDQEhdKFtPSF0pW0NIMl1bQ0BIXTFuKFtjSF1jMltDSDNdKWMoPU8pbihjMj1PKVtDSDJdQyg9TylOKFtDSDJdW0NIMl0zKWMoYzM0KVtjSF1bY0hdYyhbY0hdNClbTitdKD1PKVtPLV0=

> <s_epik_cmdline>
J2VwaWtfcHl0aG9uJywgJy1waCcsICc3LjAnLCAnLXRuJywgJzgnLCAnLW1hJywgJzIwMCcsICctbWV0YWxfYmluZGluZycsICctaW1hZScsICc8aW5maWxlLm1hZT4nLCAnLW9tYWUnLCAnPG91dGZpbGUubWFlPic=

> <r_lp_tautomer_probability>
1

> <r_epik_Ionization_Penalty>
2.5696e-07

> <r_epik_Ionization_Penalty_Charging>
1.04886e-08

> <r_epik_Ionization_Penalty_Neutral>
2.46472e-07

> <r_epik_State_Penalty>
-0

> <r_epik_Charging_Adjusted_Penalty>
1.04886e-08

> <i_epik_Tot_Q>
0

> <i_epik_Tot_abs_Q>
2

> <r_epik_Metal_State_Penalty>
-0

> <b_epik_Metal_Only>
0

> <s_epik_Chemistry_Notes>
This compound contains an acetal/aminal-like group ( X-CH(R)-Y where X, Y are N, S, or O) that may be acid/base labile, releasing an aldehyde.

> <s_lp_Force_Field>
OPLS_2005

> <r_lp_Energy>
59.9345

> <b_lp_Chiralities_Consistent>
1

> <s_lp_Variant>
AV-unprocessed.smi:112-7

> <Gold.Version>
5.8.1

> <Gold.Id.Protein>
6NUR|6NUR_protein|mol2

> <Gold.PLP.Fitness>
49.5285

> <Gold.PLP.PLP>
-47.0073

> <Gold.PLP.part.hbond>
-3.5885

> <Gold.PLP.part.metal>
0.0000

> <Gold.PLP.part.buried>
-5.3383

> <Gold.PLP.part.nonpolar>
-38.1873

> <Gold.PLP.part.repulsive>
0.0000

> <Gold.PLP.ligand.clash>
0.1083

> <Gold.PLP.ligand.torsion>
0.1995

> <Gold.PLP.Chemscore.Hbond>
1.0000

> <Gold.PLP.Chemscore.CHOScore>
0.0000

> <Gold.PLP.Chemscore.Metal>
0.0000

> <Gold.Chemscore.Hbonds>
donor molecule, donor type, donor heavy atom, donor atom, acceptor molecule, acceptor atom, score
      L1  H    11    45       P1  8028  1.00

> <Gold.PLP.Chemscore.Internal.Correction>
0.0285

> <Gold.Rescore>
     Score         DG    S(hbond)    S(metal)    S(lipo)     H(rot)  DE(clash)    DE(int)     intcor
      7.48     -11.46       0.99        0.00      94.79       3.29       0.14       3.83       ----

> <Gold.Chemscore.Fitness>
7.4822

> <Gold.Chemscore.DG>
-11.4577

> <Gold.Chemscore.ZeroCoef>
-5.4800

> <Gold.Chemscore.Hbond>
0.9922

> <Gold.Chemscore.Metal>
0.0000

> <Gold.Chemscore.Lipo>
94.7896

> <Gold.Chemscore.Internal_Hbond>
0.0000

> <Gold.Chemscore.DEClash>
0.1425

> <Gold.Chemscore.DEInternal>
3.8330

> <Gold.Chemscore.Rot>
3.2916

> <Gold.Chemscore.Internal.Correction>
   9.000000E+99

> <Gold.Chemscore.Hbonds>
donor molecule, donor type, donor heavy atom, donor atom, acceptor molecule, acceptor atom, score
      L1  H    11    45       P1  8028  0.98

> <Gold.Chemscore.Hbond.Weighted>
-3.3138

> <Gold.Chemscore.Metal.Weighted>
-0.0000

> <Gold.Chemscore.Lipo.Weighted>
-11.0904

> <Gold.Chemscore.Internal_Hbond.Weighted>
0.0000

> <Gold.Chemscore.DEClash.Weighted>
0.1425

> <Gold.Chemscore.DEInternal.Weighted>
3.8330

> <Gold.Chemscore.Rot.Weighted>
8.4265

> <Gold.Chemscore.Internal.Correction.Weighted>
   9.000000E+99

> <Gold.Protein.RotatedTorsions>
[ 6907 6896 6895 6894 ] final  159.45 input  -60.11 | X-H torsion
[ 7974 7965 7964 7962 ] final   10.38 input  175.53 | X-H torsion
[ 8008 7997 7996 7995 ] final -140.38 input   59.86 | X-H torsion
[ 10167 10162 10161 10158 ] final   -9.31 input  -65.29 | X-H torsion
[ 10718 10713 10712 10709 ] final    1.03 input   66.30 | X-H torsion
[ 10763 10752 10751 10750 ] final  -64.22 input  -60.55 | X-H torsion
[ 11005 11000 10999 10996 ] final  -63.96 input  -57.11 | X-H torsion

> <Gold.Protein.ActiveResidues>
 VAL166  LYS551  ARG553  GLY616  TRP617  ASP618  TYR619  PRO620  LYS621  CYS622 
 ASP623  PHE694  ASN695  SER759  ASP760  ASP761  ALA762  ILE779  LEU786  VAL792 
 PHE793  MET794  SER795  GLU796  ALA797  LYS798  CYS799  TRP800  GLU811  SER814 

> <Gold.Protein.RotatedAtoms>
  151.9854  133.3772  159.4123 H   0  0  0  0  0  0  0  0  0  0  0  0  # atno 6907 bound_to 6896
  150.6929  134.3994  159.5121 H   0  0  0  0  0  0  0  0  0  0  0  0  # atno 6908 bound_to 6896
  152.1719  134.8827  160.0584 H   0  0  0  0  0  0  0  0  0  0  0  0  # atno 6909 bound_to 6896
  146.2389  139.9643  142.8455 H   0  0  0  0  0  0  0  0  0  0  0  0  # atno 7974 bound_to 7965
  155.4603  140.0545  157.2991 H   0  0  0  0  0  0  0  0  0  0  0  0  # atno 8008 bound_to 7997
  154.4740  140.2053  155.9879 H   0  0  0  0  0  0  0  0  0  0  0  0  # atno 8009 bound_to 7997
  156.1102  140.3205  155.8066 H   0  0  0  0  0  0  0  0  0  0  0  0  # atno 8010 bound_to 7997
  140.7084  143.5872  150.8931 H   0  0  0  0  0  0  0  0  0  0  0  0  # atno 10167 bound_to 10162
  156.8422  130.5525  149.5676 H   0  0  0  0  0  0  0  0  0  0  0  0  # atno 10718 bound_to 10713
  154.3269  135.6184  153.5533 H   0  0  0  0  0  0  0  0  0  0  0  0  # atno 10763 bound_to 10752
  152.9815  135.5737  154.5006 H   0  0  0  0  0  0  0  0  0  0  0  0  # atno 10764 bound_to 10752
  154.4685  135.2858  155.1637 H   0  0  0  0  0  0  0  0  0  0  0  0  # atno 10765 bound_to 10752
  141.1410  133.6659  156.5760 H   0  0  0  0  0  0  0  0  0  0  0  0  # atno 11005 bound_to 11000
  145.1742  140.9735  143.4304 LP  0  0  0  0  0  0  0  0  0  0  0  0  # atno 17320 bound_to 7965
  145.0001  139.3606  143.6172 LP  0  0  0  0  0  0  0  0  0  0  0  0  # atno 17321 bound_to 7965
  139.9597  143.6177  152.3006 LP  0  0  0  0  0  0  0  0  0  0  0  0  # atno 17342 bound_to 10162
  139.6726  144.7660  151.1755 LP  0  0  0  0  0  0  0  0  0  0  0  0  # atno 17343 bound_to 10162
  156.0874  130.5869  150.9673 LP  0  0  0  0  0  0  0  0  0  0  0  0  # atno 17370 bound_to 10713
  157.6349  131.0917  150.8367 LP  0  0  0  0  0  0  0  0  0  0  0  0  # atno 17371 bound_to 10713
  140.3875  134.7469  157.4700 LP  0  0  0  0  0  0  0  0  0  0  0  0  # atno 17394 bound_to 11000
  140.0591  134.6021  155.8770 LP  0  0  0  0  0  0  0  0  0  0  0  0  # atno 17395 bound_to 11000

$$$$
