AV-unprocessed.smi:105|AV-procd|sdf|1010|dock2
  -GOLD-   2262018 03D 1   1.00000     0.00000
 Structure written by MMmdl.
 42 45  0  0  0  0  0  0  0  0  1 V2000
  151.8210  145.1792  159.2907 C   0  0  0  0  0  0  0  0  0  0  0  0
  152.2027  145.0674  160.6418 C   0  0  0  0  0  0  0  0  0  0  0  0
  152.7705  143.8688  161.1166 C   0  0  0  0  0  0  0  0  0  0  0  0
  152.9597  142.7796  160.2406 C   0  0  0  0  0  0  0  0  0  0  0  0
  153.5608  141.4878  160.7540 C   0  0  0  0  0  0  0  0  0  0  0  0
  154.8497  141.6854  161.4023 N   0  0  0  0  0  0  0  0  0  0  0  0
  155.4146  140.6801  162.1048 C   0  0  0  0  0  0  0  0  0  0  0  0
  156.4692  140.9094  162.9311 N   0  0  0  0  0  0  0  0  0  0  0  0
  157.0147  139.8989  163.6159 C   0  0  0  0  0  0  0  0  0  0  0  0
  156.6683  138.6093  163.6203 N   0  0  0  0  0  0  0  0  0  0  0  0
  155.6103  138.3779  162.7906 C   0  0  0  0  0  0  0  0  0  0  0  0
  154.9297  139.3502  162.0048 C   0  0  0  0  0  0  0  0  0  0  0  0
  153.9025  138.7511  161.2874 N   0  0  0  0  0  0  0  0  0  0  0  0
  153.9727  137.4928  161.6282 C   0  0  0  0  0  0  0  0  0  0  0  0
  154.9689  137.1799  162.5278 N   0  0  0  0  0  0  0  0  0  0  0  0
  155.2751  135.8677  163.0699 C   0  0  1  0  0  0  0  0  0  0  0  0
  155.0328  135.8117  164.5913 C   0  0  0  0  0  0  0  0  0  0  0  0
  155.3539  134.3942  165.0799 C   0  0  0  0  0  0  0  0  0  0  0  0
  154.5071  133.3839  164.2996 C   0  0  0  0  0  0  0  0  0  0  0  0
  154.7145  133.5884  162.7896 C   0  0  0  0  0  0  0  0  0  0  0  0
  154.4360  134.9424  162.4415 O   0  0  0  0  0  0  0  0  0  0  0  0
  152.5753  142.8941  158.8884 C   0  0  0  0  0  0  0  0  0  0  0  0
  152.0073  144.0928  158.4142 C   0  0  0  0  0  0  0  0  0  0  0  0
  151.3848  146.0980  158.9269 H   0  0  0  0  0  0  0  0  0  0  0  0
  152.0590  145.9007  161.3138 H   0  0  0  0  0  0  0  0  0  0  0  0
  153.0597  143.7871  162.1543 H   0  0  0  0  0  0  0  0  0  0  0  0
  152.8663  141.0250  161.4568 H   0  0  0  0  0  0  0  0  0  0  0  0
  153.6766  140.7975  159.9173 H   0  0  0  0  0  0  0  0  0  0  0  0
  155.2638  142.6016  161.3068 H   0  0  0  0  0  0  0  0  0  0  0  0
  157.8483  140.1612  164.2506 H   0  0  0  0  0  0  0  0  0  0  0  0
  153.2960  136.7510  161.2287 H   0  0  0  0  0  0  0  0  0  0  0  0
  156.3123  135.6331  162.8234 H   0  0  0  0  0  0  0  0  0  0  0  0
  155.6705  136.5463  165.0844 H   0  0  0  0  0  0  0  0  0  0  0  0
  153.9950  136.0714  164.8046 H   0  0  0  0  0  0  0  0  0  0  0  0
  156.4143  134.1812  164.9390 H   0  0  0  0  0  0  0  0  0  0  0  0
  155.1551  134.3093  166.1486 H   0  0  0  0  0  0  0  0  0  0  0  0
  154.7702  132.3649  164.5847 H   0  0  0  0  0  0  0  0  0  0  0  0
  153.4532  133.5184  164.5464 H   0  0  0  0  0  0  0  0  0  0  0  0
  155.7336  133.3296  162.4976 H   0  0  0  0  0  0  0  0  0  0  0  0
  154.0476  132.9350  162.2271 H   0  0  0  0  0  0  0  0  0  0  0  0
  152.7133  142.0631  158.2121 H   0  0  0  0  0  0  0  0  0  0  0  0
  151.7135  144.1785  157.3783 H   0  0  0  0  0  0  0  0  0  0  0  0
  1 23  1  0  0  0  0
  1  2  2  0  0  0  0
  1 24  1  0  0  0  0
  2  3  1  0  0  0  0
  2 25  1  0  0  0  0
  3  4  2  0  0  0  0
  3 26  1  0  0  0  0
  4  5  1  0  0  0  0
  4 22  1  0  0  0  0
  5  6  1  0  0  0  0
  5 27  1  0  0  0  0
  5 28  1  0  0  0  0
  6  7  1  0  0  0  0
  6 29  1  0  0  0  0
  7 12  1  0  0  0  0
  7  8  2  0  0  0  0
  8  9  1  0  0  0  0
  9 10  2  0  0  0  0
  9 30  1  0  0  0  0
 10 11  1  0  0  0  0
 11 15  1  0  0  0  0
 11 12  2  0  0  0  0
 12 13  1  0  0  0  0
 13 14  2  0  0  0  0
 14 15  1  0  0  0  0
 14 31  1  0  0  0  0
 15 16  1  0  0  0  0
 16 21  1  0  0  0  0
 16 17  1  0  0  0  0
 16 32  1  0  0  0  0
 17 18  1  0  0  0  0
 17 33  1  0  0  0  0
 17 34  1  0  0  0  0
 18 19  1  0  0  0  0
 18 35  1  0  0  0  0
 18 36  1  0  0  0  0
 19 20  1  0  0  0  0
 19 37  1  0  0  0  0
 19 38  1  0  0  0  0
 20 21  1  0  0  0  0
 20 39  1  0  0  0  0
 20 40  1  0  0  0  0
 22 23  2  0  0  0  0
 22 41  1  0  0  0  0
 23 42  1  0  0  0  0
M  END
> <s_m_source_file>
AV-unprocessed.smi

> <i_m_source_file_index>
105

> <i_lp_mmshare_version>
43012

> <i_f3d_flags>
0

> <s_epik_input>
W2NIXTFbY0hdW2NIXVtjSF1bY0hdYzFbQ0gyXVtOSF1jKG5bY0hdbjIpYyhjMjMpbltjSF1uM1tDQEBIXTRbQ0gyXVtDSDJdW0NIMl1bQ0gyXU80

> <s_epik_cmdline>
J2VwaWtfcHl0aG9uJywgJy1waCcsICc3LjAnLCAnLXRuJywgJzgnLCAnLW1hJywgJzIwMCcsICctbWV0YWxfYmluZGluZycsICctaW1hZScsICc8aW5maWxlLm1hZT4nLCAnLW9tYWUnLCAnPG91dGZpbGUubWFlPic=

> <r_lp_tautomer_probability>
1

> <r_epik_Ionization_Penalty>
0.000653933

> <r_epik_Ionization_Penalty_Charging>
0

> <r_epik_Ionization_Penalty_Neutral>
0.000653933

> <r_epik_State_Penalty>
-0

> <r_epik_Charging_Adjusted_Penalty>
0

> <i_epik_Tot_Q>
0

> <i_epik_Tot_abs_Q>
0

> <r_epik_Metal_State_Penalty>
-0

> <b_epik_Metal_Only>
0

> <s_epik_Chemistry_Notes>
This compound contains an acetal/aminal-like group ( X-CH(R)-Y where X, Y are N, S, or O) that may be acid/base labile, releasing an aldehyde.

> <s_lp_Force_Field>
OPLS_2005

> <r_lp_Energy>
23.9687

> <b_lp_Chiralities_Consistent>
1

> <s_lp_Variant>
AV-unprocessed.smi:105-2

> <Gold.Version>
5.8.1

> <Gold.Id.Protein>
6NUR|6NUR_protein|mol2

> <Gold.PLP.Fitness>
52.0405

> <Gold.PLP.PLP>
-52.3292

> <Gold.PLP.part.hbond>
-1.9203

> <Gold.PLP.part.metal>
0.0000

> <Gold.PLP.part.buried>
-3.6111

> <Gold.PLP.part.nonpolar>
-46.1037

> <Gold.PLP.part.repulsive>
0.0181

> <Gold.PLP.ligand.clash>
0.0000

> <Gold.PLP.ligand.torsion>
0.1641

> <Gold.PLP.Chemscore.Hbond>
0.0000

> <Gold.PLP.Chemscore.CHOScore>
0.0000

> <Gold.PLP.Chemscore.Metal>
0.0000

> <Gold.PLP.Chemscore.Internal.Correction>
0.0394

> <Gold.Rescore>
     Score         DG    S(hbond)    S(metal)    S(lipo)     H(rot)  DE(clash)    DE(int)     intcor
     13.30     -15.21       0.00        0.00     117.16       1.55       0.03       1.87       ----

> <Gold.Chemscore.Fitness>
13.3045

> <Gold.Chemscore.DG>
-15.2078

> <Gold.Chemscore.ZeroCoef>
-5.4800

> <Gold.Chemscore.Hbond>
0.0000

> <Gold.Chemscore.Metal>
0.0000

> <Gold.Chemscore.Lipo>
117.1606

> <Gold.Chemscore.Internal_Hbond>
0.0000

> <Gold.Chemscore.DEClash>
0.0284

> <Gold.Chemscore.DEInternal>
1.8750

> <Gold.Chemscore.Rot>
1.5547

> <Gold.Chemscore.Internal.Correction>
   9.000000E+99

> <Gold.Chemscore.Hbond.Weighted>
-0.0000

> <Gold.Chemscore.Metal.Weighted>
-0.0000

> <Gold.Chemscore.Lipo.Weighted>
-13.7078

> <Gold.Chemscore.Internal_Hbond.Weighted>
0.0000

> <Gold.Chemscore.DEClash.Weighted>
0.0284

> <Gold.Chemscore.DEInternal.Weighted>
1.8750

> <Gold.Chemscore.Rot.Weighted>
3.9800

> <Gold.Chemscore.Internal.Correction.Weighted>
   9.000000E+99

> <Gold.Protein.RotatedTorsions>
[ 6907 6896 6895 6894 ] final  139.15 input  -60.11 | X-H torsion
[ 7974 7965 7964 7962 ] final  -72.41 input  175.53 | X-H torsion
[ 8008 7997 7996 7995 ] final  110.72 input   59.86 | X-H torsion
[ 10167 10162 10161 10158 ] final  -65.99 input  -65.29 | X-H torsion
[ 10718 10713 10712 10709 ] final  -68.16 input   66.30 | X-H torsion
[ 10763 10752 10751 10750 ] final  -60.89 input  -60.55 | X-H torsion
[ 11005 11000 10999 10996 ] final   78.39 input  -57.11 | X-H torsion

> <Gold.Protein.ActiveResidues>
 VAL166  LYS551  ARG553  GLY616  TRP617  ASP618  TYR619  PRO620  LYS621  CYS622 
 ASP623  PHE694  ASN695  SER759  ASP760  ASP761  ALA762  ILE779  LEU786  VAL792 
 PHE793  MET794  SER795  GLU796  ALA797  LYS798  CYS799  TRP800  GLU811  SER814 

> <Gold.Protein.RotatedAtoms>
  152.2583  133.5275  159.5366 H   0  0  0  0  0  0  0  0  0  0  0  0  # atno 6907 bound_to 6896
  150.7116  134.0865  159.3925 H   0  0  0  0  0  0  0  0  0  0  0  0  # atno 6908 bound_to 6896
  151.8783  135.0463  160.0537 H   0  0  0  0  0  0  0  0  0  0  0  0  # atno 6909 bound_to 6896
  145.6654  140.9239  143.0911 H   0  0  0  0  0  0  0  0  0  0  0  0  # atno 7974 bound_to 7965
  156.2073  140.3033  155.9655 H   0  0  0  0  0  0  0  0  0  0  0  0  # atno 8008 bound_to 7997
  155.2809  140.0438  157.3032 H   0  0  0  0  0  0  0  0  0  0  0  0  # atno 8009 bound_to 7997
  154.5651  140.2332  155.8284 H   0  0  0  0  0  0  0  0  0  0  0  0  # atno 8010 bound_to 7997
  140.5690  143.2316  151.6577 H   0  0  0  0  0  0  0  0  0  0  0  0  # atno 10167 bound_to 10162
  156.0520  130.4290  150.1959 H   0  0  0  0  0  0  0  0  0  0  0  0  # atno 10718 bound_to 10713
  154.2761  135.6281  153.5329 H   0  0  0  0  0  0  0  0  0  0  0  0  # atno 10763 bound_to 10752
  152.9872  135.5622  154.5546 H   0  0  0  0  0  0  0  0  0  0  0  0  # atno 10764 bound_to 10752
  154.5127  135.2878  155.1304 H   0  0  0  0  0  0  0  0  0  0  0  0  # atno 10765 bound_to 10752
  139.9214  134.7760  156.1644 H   0  0  0  0  0  0  0  0  0  0  0  0  # atno 11005 bound_to 11000
  144.7074  139.8504  143.7425 LP  0  0  0  0  0  0  0  0  0  0  0  0  # atno 17320 bound_to 7965
  146.1090  139.4092  143.0299 LP  0  0  0  0  0  0  0  0  0  0  0  0  # atno 17321 bound_to 7965
  139.5107  144.3533  152.0632 LP  0  0  0  0  0  0  0  0  0  0  0  0  # atno 17342 bound_to 10162
  140.2668  144.4008  150.6165 LP  0  0  0  0  0  0  0  0  0  0  0  0  # atno 17343 bound_to 10162
  157.0041  130.9931  151.3383 LP  0  0  0  0  0  0  0  0  0  0  0  0  # atno 17370 bound_to 10713
  157.5455  130.8147  149.8080 LP  0  0  0  0  0  0  0  0  0  0  0  0  # atno 17371 bound_to 10713
  141.0738  133.6784  156.2195 LP  0  0  0  0  0  0  0  0  0  0  0  0  # atno 17394 bound_to 11000
  140.6462  134.5115  157.5574 LP  0  0  0  0  0  0  0  0  0  0  0  0  # atno 17395 bound_to 11000

$$$$
