AV-unprocessed.smi:2760|AV-procd|sdf|10629|dock10
  -GOLD-   2272015 73D 1   1.00000     0.00000
 Structure written by MMmdl.
 32 33  0  0  0  0  0  0  0  0  1 V2000
  152.5476  139.4445  156.2422 O   0  0  0  0  0  0  0  0  0  0  0  0
  151.7429  140.3736  156.2298 C   0  0  0  0  0  0  0  0  0  0  0  0
  151.8204  141.4526  157.2226 C   0  0  0  0  0  0  0  0  0  0  0  0
  150.9266  142.4610  157.1859 C   0  0  0  0  0  0  0  0  0  0  0  0
  150.9264  143.5994  158.1511 C   0  0  0  0  0  0  0  0  0  0  0  0
  152.0121  144.6541  158.1551 C   0  0  0  0  0  0  0  0  0  0  0  0
  151.9042  143.6788  159.3037 C   0  0  0  0  0  0  0  0  0  0  0  0
  149.9395  142.4773  156.2151 N   0  0  0  0  0  0  0  0  0  0  0  0
  149.8819  141.4449  155.2848 C   0  0  0  0  0  0  0  0  0  0  0  0
  148.5096  141.6497  154.0952 S   0  0  0  0  0  0  0  0  0  0  0  0
  147.0481  141.9337  155.1414 C   0  0  0  0  0  0  0  0  0  0  0  0
  146.0585  142.8885  154.4685 C   0  0  0  0  0  0  0  0  0  0  0  0
  144.9320  143.0466  155.3141 O   0  0  0  0  0  0  0  0  0  0  0  0
  144.0986  144.1263  154.9229 C   0  0  0  0  0  0  0  0  0  0  0  0
  143.5453  144.8256  156.1707 C   0  0  0  0  0  0  0  0  0  0  0  0
  144.5598  145.2638  156.9150 F   0  0  0  0  0  0  0  0  0  0  0  0
  142.7913  145.8670  155.8196 F   0  0  0  0  0  0  0  0  0  0  0  0
  142.8216  143.9716  156.8939 F   0  0  0  0  0  0  0  0  0  0  0  0
  150.7180  140.4470  155.2722 N   0  0  0  0  0  0  0  0  0  0  0  0
  149.2889  143.2492  156.2195 H   0  0  0  0  0  0  0  0  0  0  0  0
  152.5934  141.4326  157.9771 H   0  0  0  0  0  0  0  0  0  0  0  0
  149.9193  143.9571  158.3583 H   0  0  0  0  0  0  0  0  0  0  0  0
  152.8522  144.5345  157.4737 H   0  0  0  0  0  0  0  0  0  0  0  0
  151.7098  145.6826  158.3409 H   0  0  0  0  0  0  0  0  0  0  0  0
  151.5293  144.0592  160.2516 H   0  0  0  0  0  0  0  0  0  0  0  0
  152.6738  142.9136  159.3840 H   0  0  0  0  0  0  0  0  0  0  0  0
  147.3651  142.3507  156.0981 H   0  0  0  0  0  0  0  0  0  0  0  0
  146.5568  140.9810  155.3420 H   0  0  0  0  0  0  0  0  0  0  0  0
  146.5322  143.8553  154.2906 H   0  0  0  0  0  0  0  0  0  0  0  0
  145.7484  142.4877  153.5022 H   0  0  0  0  0  0  0  0  0  0  0  0
  144.6665  144.8372  154.3206 H   0  0  0  0  0  0  0  0  0  0  0  0
  143.2758  143.7593  154.3072 H   0  0  0  0  0  0  0  0  0  0  0  0
  1  2  2  0  0  0  0
  2 19  1  0  0  0  0
  2  3  1  0  0  0  0
  3 21  1  0  0  0  0
  3  4  2  0  0  0  0
  4  5  1  0  0  0  0
  4  8  1  0  0  0  0
  5  7  1  0  0  0  0
  5  6  1  0  0  0  0
  5 22  1  0  0  0  0
  6  7  1  0  0  0  0
  6 23  1  0  0  0  0
  6 24  1  0  0  0  0
  7 25  1  0  0  0  0
  7 26  1  0  0  0  0
  8  9  1  0  0  0  0
  8 20  1  0  0  0  0
  9 10  1  0  0  0  0
  9 19  2  0  0  0  0
 10 11  1  0  0  0  0
 11 12  1  0  0  0  0
 11 27  1  0  0  0  0
 11 28  1  0  0  0  0
 12 13  1  0  0  0  0
 12 29  1  0  0  0  0
 12 30  1  0  0  0  0
 13 14  1  0  0  0  0
 14 15  1  0  0  0  0
 14 31  1  0  0  0  0
 14 32  1  0  0  0  0
 15 16  1  0  0  0  0
 15 17  1  0  0  0  0
 15 18  1  0  0  0  0
M  END
> <s_m_source_file>
AV-unprocessed.smi

> <i_m_source_file_index>
2760

> <i_lp_mmshare_version>
43012

> <i_f3d_flags>
0

> <s_epik_input>
W09IXWMxW2NIXWMoW0NIXTJbQ0gyXVtDSDJdMiluYyhuMSlTW0NIMl1bQ0gyXU9bQ0gyXUMoRikoRilG

> <s_epik_cmdline>
J2VwaWtfcHl0aG9uJywgJy1waCcsICc3LjAnLCAnLXRuJywgJzgnLCAnLW1hJywgJzIwMCcsICctbWV0YWxfYmluZGluZycsICctaW1hZScsICc8aW5maWxlLm1hZT4nLCAnLW9tYWUnLCAnPG91dGZpbGUubWFlPic=

> <r_lp_tautomer_probability>
0.273662

> <r_epik_Ionization_Penalty>
0.0792867

> <r_epik_Ionization_Penalty_Charging>
0.0792819

> <r_epik_Ionization_Penalty_Neutral>
4.79647e-06

> <r_epik_State_Penalty>
1.03359

> <r_epik_Charging_Adjusted_Penalty>
1.11287

> <i_epik_Tot_Q>
0

> <i_epik_Tot_abs_Q>
0

> <r_epik_Metal_State_Penalty>
1.68441

> <b_epik_Metal_Only>
0

> <s_lp_Force_Field>
OPLS_2005

> <r_lp_Energy>
16.1148

> <b_lp_Chiralities_Consistent>
1

> <s_lp_Variant>
AV-unprocessed.smi:2760-2

> <Gold.Version>
5.8.1

> <Gold.Id.Protein>
6NUR|6NUR_protein|mol2

> <Gold.PLP.Fitness>
45.1471

> <Gold.PLP.PLP>
-37.4899

> <Gold.PLP.part.hbond>
-2.8933

> <Gold.PLP.part.metal>
0.0000

> <Gold.PLP.part.buried>
-4.4048

> <Gold.PLP.part.nonpolar>
-30.0954

> <Gold.PLP.part.repulsive>
0.3308

> <Gold.PLP.ligand.clash>
0.0000

> <Gold.PLP.ligand.torsion>
0.6864

> <Gold.PLP.Chemscore.Hbond>
2.9420

> <Gold.PLP.Chemscore.CHOScore>
0.0000

> <Gold.PLP.Chemscore.Metal>
0.0000

> <Gold.Chemscore.Hbonds>
donor molecule, donor type, donor heavy atom, donor atom, acceptor molecule, acceptor atom, score
      L1  H     8    20       P1  8028  0.98
      P1  H  7989  7998       L1    19  0.89
      P1  H  7997  8008       L1     1  1.00

> <Gold.PLP.Chemscore.Internal.Correction>
0.2040

> <Gold.Rescore>
     Score         DG    S(hbond)    S(metal)    S(lipo)     H(rot)  DE(clash)    DE(int)     intcor
     14.12     -14.77       1.93        0.00      80.58       2.57       0.04       0.61       ----

> <Gold.Chemscore.Fitness>
14.1208

> <Gold.Chemscore.DG>
-14.7671

> <Gold.Chemscore.ZeroCoef>
-5.4800

> <Gold.Chemscore.Hbond>
1.9262

> <Gold.Chemscore.Metal>
0.0000

> <Gold.Chemscore.Lipo>
80.5775

> <Gold.Chemscore.Internal_Hbond>
0.0000

> <Gold.Chemscore.DEClash>
0.0402

> <Gold.Chemscore.DEInternal>
0.6061

> <Gold.Chemscore.Rot>
2.5680

> <Gold.Chemscore.Internal.Correction>
   9.000000E+99

> <Gold.Chemscore.Hbonds>
donor molecule, donor type, donor heavy atom, donor atom, acceptor molecule, acceptor atom, score
      L1  H     8    20       P1  8028  0.93
      P1  H  7989  7998       L1    19  0.09
      P1  H  7997  8008       L1     1  0.78

> <Gold.Chemscore.Hbond.Weighted>
-6.4337

> <Gold.Chemscore.Metal.Weighted>
-0.0000

> <Gold.Chemscore.Lipo.Weighted>
-9.4276

> <Gold.Chemscore.Internal_Hbond.Weighted>
0.0000

> <Gold.Chemscore.DEClash.Weighted>
0.0402

> <Gold.Chemscore.DEInternal.Weighted>
0.6061

> <Gold.Chemscore.Rot.Weighted>
6.5741

> <Gold.Chemscore.Internal.Correction.Weighted>
   9.000000E+99

> <Gold.Protein.RotatedTorsions>
[ 6907 6896 6895 6894 ] final  174.20 input  -60.11 | X-H torsion
[ 7974 7965 7964 7962 ] final  -30.86 input  175.53 | X-H torsion
[ 8008 7997 7996 7995 ] final  -61.96 input   59.86 | X-H torsion
[ 10167 10162 10161 10158 ] final   47.31 input  -65.29 | X-H torsion
[ 10718 10713 10712 10709 ] final  -87.44 input   66.30 | X-H torsion
[ 10763 10752 10751 10750 ] final  158.84 input  -60.55 | X-H torsion
[ 11005 11000 10999 10996 ] final -131.61 input  -57.11 | X-H torsion

> <Gold.Protein.ActiveResidues>
 VAL166  LYS551  ARG553  GLY616  TRP617  ASP618  TYR619  PRO620  LYS621  CYS622 
 ASP623  PHE694  ASN695  SER759  ASP760  ASP761  ALA762  ILE779  LEU786  VAL792 
 PHE793  MET794  SER795  GLU796  ALA797  LYS798  CYS799  TRP800  GLU811  SER814 

> <Gold.Protein.RotatedAtoms>
  151.7561  133.3330  159.3404 H   0  0  0  0  0  0  0  0  0  0  0  0  # atno 6907 bound_to 6896
  150.7516  134.6148  159.6114 H   0  0  0  0  0  0  0  0  0  0  0  0  # atno 6908 bound_to 6896
  152.3437  134.7102  160.0308 H   0  0  0  0  0  0  0  0  0  0  0  0  # atno 6909 bound_to 6896
  146.1111  140.5594  142.8777 H   0  0  0  0  0  0  0  0  0  0  0  0  # atno 7974 bound_to 7965
  154.4475  140.1006  156.6512 H   0  0  0  0  0  0  0  0  0  0  0  0  # atno 8008 bound_to 7997
  155.5395  140.3483  155.4425 H   0  0  0  0  0  0  0  0  0  0  0  0  # atno 8009 bound_to 7997
  156.0607  140.1326  156.9933 H   0  0  0  0  0  0  0  0  0  0  0  0  # atno 8010 bound_to 7997
  140.3050  144.2889  150.6211 H   0  0  0  0  0  0  0  0  0  0  0  0  # atno 10167 bound_to 10162
  155.9985  130.4800  150.4868 H   0  0  0  0  0  0  0  0  0  0  0  0  # atno 10718 bound_to 10713
  154.2224  135.2781  155.2920 H   0  0  0  0  0  0  0  0  0  0  0  0  # atno 10763 bound_to 10752
  154.5691  135.5624  153.7081 H   0  0  0  0  0  0  0  0  0  0  0  0  # atno 10764 bound_to 10752
  153.0038  135.6317  154.2365 H   0  0  0  0  0  0  0  0  0  0  0  0  # atno 10765 bound_to 10752
  140.9243  134.1403  157.4288 H   0  0  0  0  0  0  0  0  0  0  0  0  # atno 11005 bound_to 11000
  144.7512  140.5196  143.6800 LP  0  0  0  0  0  0  0  0  0  0  0  0  # atno 17320 bound_to 7965
  145.5662  139.1481  143.3314 LP  0  0  0  0  0  0  0  0  0  0  0  0  # atno 17321 bound_to 7965
  140.5618  143.2191  151.7751 LP  0  0  0  0  0  0  0  0  0  0  0  0  # atno 17342 bound_to 10162
  139.4906  144.4338  151.9842 LP  0  0  0  0  0  0  0  0  0  0  0  0  # atno 17343 bound_to 10162
  157.2867  131.0618  151.2161 LP  0  0  0  0  0  0  0  0  0  0  0  0  # atno 17370 bound_to 10713
  157.3189  130.6927  149.6257 LP  0  0  0  0  0  0  0  0  0  0  0  0  # atno 17371 bound_to 10713
  139.8782  134.9983  156.5891 LP  0  0  0  0  0  0  0  0  0  0  0  0  # atno 17394 bound_to 11000
  140.7946  133.8554  155.8675 LP  0  0  0  0  0  0  0  0  0  0  0  0  # atno 17395 bound_to 11000

$$$$
