AV-unprocessed.smi:169|AV-procd|sdf|1402|dock10
  -GOLD-   2262019153D 1   1.00000     0.00000
 Structure written by MMmdl.
 56 60  0  0  0  0  0  0  0  0  2 V2000
  146.5422  142.4834  154.9059 C   0  0  0  0  0  0  0  0  0  0  0  0
  146.8668  141.0723  154.3849 C   0  0  0  0  0  0  0  0  0  0  0  0
  148.1899  140.5599  154.8279 N   0  3  2  0  0  0  0  0  0  0  0  0
  149.2513  141.6291  154.8308 C   0  0  0  0  0  0  0  0  0  0  0  0
  150.4845  141.3401  155.7666 C   0  0  0  0  0  0  0  0  0  0  0  0
  150.9034  139.8570  155.7730 C   0  0  3  0  0  0  0  0  0  0  0  0
  151.8527  138.9529  154.9761 C   0  0  0  0  0  0  0  0  0  0  0  0
  150.8310  137.9170  154.4020 C   0  0  0  0  0  0  0  0  0  0  0  0
  149.4504  138.2966  155.0341 C   0  0  2  0  0  0  0  0  0  0  0  0
  148.5634  139.2563  154.1604 C   0  0  0  0  0  0  0  0  0  0  0  0
  149.8367  138.9924  156.2462 N   0  0  0  0  0  0  0  0  0  0  0  0
  149.9814  138.3006  157.4066 C   0  0  0  0  0  0  0  0  0  0  0  0
  151.1373  138.4136  158.1132 N   0  0  0  0  0  0  0  0  0  0  0  0
  151.2963  137.7490  159.2610 C   0  0  0  0  0  0  0  0  0  0  0  0
  150.4357  136.9413  159.8825 N   0  0  0  0  0  0  0  0  0  0  0  0
  149.2628  136.8436  159.1937 C   0  0  0  0  0  0  0  0  0  0  0  0
  148.9557  137.4810  157.9582 C   0  0  0  0  0  0  0  0  0  0  0  0
  147.6631  137.1512  157.5680 N   0  0  0  0  0  0  0  0  0  0  0  0
  147.2383  136.3528  158.5086 C   0  0  0  0  0  0  0  0  0  0  0  0
  148.1274  136.1284  159.5357 N   0  0  0  0  0  0  0  0  0  0  0  0
  147.9181  135.2946  160.7121 C   0  0  0  0  0  0  0  0  0  0  0  0
  146.8564  135.8197  161.7072 C   0  0  0  0  0  0  0  0  0  0  0  0
  146.4604  134.6168  162.5813 C   0  0  0  0  0  0  0  0  0  0  0  0
  146.0364  133.5022  161.8223 O   0  0  0  0  0  0  0  0  0  0  0  0
  147.1691  137.1452  162.4262 C   0  0  0  0  0  0  0  0  0  0  0  0
  146.3371  137.8915  161.5107 O   0  0  0  0  0  0  0  0  0  0  0  0
  145.7159  136.6542  161.0979 C   0  0  0  0  0  0  0  0  0  0  0  0
  145.5682  142.8094  154.5405 H   0  0  0  0  0  0  0  0  0  0  0  0
  147.2755  143.2174  154.5719 H   0  0  0  0  0  0  0  0  0  0  0  0
  146.5055  142.5148  155.9948 H   0  0  0  0  0  0  0  0  0  0  0  0
  146.0902  140.3769  154.7058 H   0  0  0  0  0  0  0  0  0  0  0  0
  146.8332  141.0686  153.2946 H   0  0  0  0  0  0  0  0  0  0  0  0
  149.5951  141.7793  153.8062 H   0  0  0  0  0  0  0  0  0  0  0  0
  148.8142  142.5799  155.1389 H   0  0  0  0  0  0  0  0  0  0  0  0
  151.3247  141.9802  155.4919 H   0  0  0  0  0  0  0  0  0  0  0  0
  150.2209  141.6194  156.7873 H   0  0  0  0  0  0  0  0  0  0  0  0
  150.7287  140.0881  154.7291 H   0  0  0  0  0  0  0  0  0  0  0  0
  152.4520  139.4526  154.2081 H   0  0  0  0  0  0  0  0  0  0  0  0
  152.5492  138.4543  155.6512 H   0  0  0  0  0  0  0  0  0  0  0  0
  150.7992  137.9261  153.3122 H   0  0  0  0  0  0  0  0  0  0  0  0
  151.1230  136.9115  154.7080 H   0  0  0  0  0  0  0  0  0  0  0  0
  148.8907  137.3852  155.2380 H   0  0  0  0  0  0  0  0  0  0  0  0
  147.6524  138.7088  153.9148 H   0  0  0  0  0  0  0  0  0  0  0  0
  149.0384  139.4686  153.2018 H   0  0  0  0  0  0  0  0  0  0  0  0
  152.2474  137.8874  159.7539 H   0  0  0  0  0  0  0  0  0  0  0  0
  146.2544  135.9084  158.4789 H   0  0  0  0  0  0  0  0  0  0  0  0
  147.6459  134.2975  160.3635 H   0  0  0  0  0  0  0  0  0  0  0  0
  148.8827  135.1794  161.2084 H   0  0  0  0  0  0  0  0  0  0  0  0
  147.2985  134.2980  163.2019 H   0  0  0  0  0  0  0  0  0  0  0  0
  145.6501  134.8833  163.2610 H   0  0  0  0  0  0  0  0  0  0  0  0
  145.1115  133.5900  161.6485 H   0  0  0  0  0  0  0  0  0  0  0  0
  146.7905  137.2051  163.4477 H   0  0  0  0  0  0  0  0  0  0  0  0
  148.2134  137.4507  162.3967 H   0  0  0  0  0  0  0  0  0  0  0  0
  145.6167  136.5662  160.0172 H   0  0  0  0  0  0  0  0  0  0  0  0
  144.7453  136.5165  161.5767 H   0  0  0  0  0  0  0  0  0  0  0  0
  148.0485  140.3238  155.8001 H   0  0  0  0  0  0  0  0  0  0  0  0
  1  2  1  0  0  0  0
  1 28  1  0  0  0  0
  1 29  1  0  0  0  0
  1 30  1  0  0  0  0
  2  3  1  0  0  0  0
  2 31  1  0  0  0  0
  2 32  1  0  0  0  0
  3 10  1  0  0  0  0
  3  4  1  0  0  0  0
  3 56  1  0  0  0  0
  4  5  1  0  0  0  0
  4 33  1  0  0  0  0
  4 34  1  0  0  0  0
  5  6  1  0  0  0  0
  5 35  1  0  0  0  0
  5 36  1  0  0  0  0
  6 11  1  0  0  0  0
  6  7  1  0  0  0  0
  6 37  1  0  0  0  0
  7  8  1  0  0  0  0
  7 38  1  0  0  0  0
  7 39  1  0  0  0  0
  8  9  1  0  0  0  0
  8 40  1  0  0  0  0
  8 41  1  0  0  0  0
  9 10  1  0  0  0  0
  9 11  1  0  0  0  0
  9 42  1  0  0  0  0
 10 43  1  0  0  0  0
 10 44  1  0  0  0  0
 11 12  1  0  0  0  0
 12 17  1  0  0  0  0
 12 13  2  0  0  0  0
 13 14  1  0  0  0  0
 14 15  2  0  0  0  0
 14 45  1  0  0  0  0
 15 16  1  0  0  0  0
 16 20  1  0  0  0  0
 16 17  2  0  0  0  0
 17 18  1  0  0  0  0
 18 19  2  0  0  0  0
 19 20  1  0  0  0  0
 19 46  1  0  0  0  0
 20 21  1  0  0  0  0
 21 22  1  0  0  0  0
 21 47  1  0  0  0  0
 21 48  1  0  0  0  0
 22 27  1  0  0  0  0
 22 23  1  0  0  0  0
 22 25  1  0  0  0  0
 23 24  1  0  0  0  0
 23 49  1  0  0  0  0
 23 50  1  0  0  0  0
 24 51  1  0  0  0  0
 25 26  1  0  0  0  0
 25 52  1  0  0  0  0
 25 53  1  0  0  0  0
 26 27  1  0  0  0  0
 27 54  1  0  0  0  0
 27 55  1  0  0  0  0
M  CHG  1   3   1
M  END
> <s_m_source_file>
AV-unprocessed.smi

> <i_m_source_file_index>
169

> <i_lp_mmshare_version>
43012

> <i_f3d_flags>
0

> <s_epik_input>
W0NASF0xMltDSDJdW0NIMl1OKFtDSDJdW0NIM10pW0NIMl1bQ0BIXShbQ0gyXVtDSDJdMSlOMmMobltjSF1uMyljKGMzNCluW2NIXW40W0NIMl1DNShbQ0gyXVtPSF0pW0NIMl1PW0NIMl01

> <s_epik_cmdline>
J2VwaWtfcHl0aG9uJywgJy1waCcsICc3LjAnLCAnLXRuJywgJzgnLCAnLW1hJywgJzIwMCcsICctbWV0YWxfYmluZGluZycsICctaW1hZScsICc8aW5maWxlLm1hZT4nLCAnLW9tYWUnLCAnPG91dGZpbGUubWFlPic=

> <r_lp_tautomer_probability>
1

> <r_epik_Ionization_Penalty>
0.00274162

> <r_epik_Ionization_Penalty_Charging>
0.00243722

> <r_epik_Ionization_Penalty_Neutral>
0.000304399

> <r_epik_State_Penalty>
-0

> <r_epik_Charging_Adjusted_Penalty>
0.00243722

> <i_epik_Tot_Q>
1

> <i_epik_Tot_abs_Q>
1

> <r_epik_Metal_State_Penalty>
-0

> <b_epik_Metal_Only>
0

> <s_lp_Force_Field>
OPLS_2005

> <r_lp_Energy>
131.144

> <b_lp_Chiralities_Consistent>
1

> <s_lp_Variant>
AV-unprocessed.smi:169-5

> <Gold.Version>
5.8.1

> <Gold.Id.Protein>
6NUR|6NUR_protein|mol2

> <Gold.PLP.Fitness>
48.8703

> <Gold.PLP.PLP>
-43.6027

> <Gold.PLP.part.hbond>
-2.4518

> <Gold.PLP.part.metal>
0.0000

> <Gold.PLP.part.buried>
-4.3625

> <Gold.PLP.part.nonpolar>
-37.4726

> <Gold.PLP.part.repulsive>
0.0622

> <Gold.PLP.ligand.clash>
0.0000

> <Gold.PLP.ligand.torsion>
0.5803

> <Gold.PLP.Chemscore.Hbond>
2.0000

> <Gold.PLP.Chemscore.CHOScore>
0.0000

> <Gold.PLP.Chemscore.Metal>
0.0000

> <Gold.Chemscore.Hbonds>
donor molecule, donor type, donor heavy atom, donor atom, acceptor molecule, acceptor atom, score
      P1  H  6896  6907       L1    15  1.00
      P1  H  6934  6947       L1    26  0.87

> <Gold.PLP.Chemscore.Internal.Correction>
0.4283

> <Gold.Rescore>
     Score         DG    S(hbond)    S(metal)    S(lipo)     H(rot)  DE(clash)    DE(int)     intcor
     15.31     -16.00       1.80        0.00      95.75       2.62       0.08       0.61       ----

> <Gold.Chemscore.Fitness>
15.3096

> <Gold.Chemscore.DG>
-15.9989

> <Gold.Chemscore.ZeroCoef>
-5.4800

> <Gold.Chemscore.Hbond>
1.8044

> <Gold.Chemscore.Metal>
0.0000

> <Gold.Chemscore.Lipo>
95.7469

> <Gold.Chemscore.Internal_Hbond>
0.0000

> <Gold.Chemscore.DEClash>
0.0830

> <Gold.Chemscore.DEInternal>
0.6063

> <Gold.Chemscore.Rot>
2.6212

> <Gold.Chemscore.Internal.Correction>
   9.000000E+99

> <Gold.Chemscore.Hbonds>
donor molecule, donor type, donor heavy atom, donor atom, acceptor molecule, acceptor atom, score
      P1  H  6896  6907       L1    15  0.33
      P1  H  6934  6947       L1    26  0.53

> <Gold.Chemscore.Hbond.Weighted>
-6.0267

> <Gold.Chemscore.Metal.Weighted>
-0.0000

> <Gold.Chemscore.Lipo.Weighted>
-11.2024

> <Gold.Chemscore.Internal_Hbond.Weighted>
0.0000

> <Gold.Chemscore.DEClash.Weighted>
0.0830

> <Gold.Chemscore.DEInternal.Weighted>
0.6063

> <Gold.Chemscore.Rot.Weighted>
6.7102

> <Gold.Chemscore.Internal.Correction.Weighted>
   9.000000E+99

> <Gold.Protein.RotatedTorsions>
[ 6907 6896 6895 6894 ] final  -26.21 input  -60.11 | X-H torsion
[ 7974 7965 7964 7962 ] final  -50.69 input  175.53 | X-H torsion
[ 8008 7997 7996 7995 ] final  -65.42 input   59.86 | X-H torsion
[ 10167 10162 10161 10158 ] final -141.52 input  -65.29 | X-H torsion
[ 10718 10713 10712 10709 ] final   41.63 input   66.30 | X-H torsion
[ 10763 10752 10751 10750 ] final   95.87 input  -60.55 | X-H torsion
[ 11005 11000 10999 10996 ] final -171.35 input  -57.11 | X-H torsion

> <Gold.Protein.ActiveResidues>
 VAL166  LYS551  ARG553  GLY616  TRP617  ASP618  TYR619  PRO620  LYS621  CYS622 
 ASP623  PHE694  ASN695  SER759  ASP760  ASP761  ALA762  ILE779  LEU786  VAL792 
 PHE793  MET794  SER795  GLU796  ALA797  LYS798  CYS799  TRP800  GLU811  SER814 

> <Gold.Protein.RotatedAtoms>
  151.1641  135.0287  159.8722 H   0  0  0  0  0  0  0  0  0  0  0  0  # atno 6907 bound_to 6896
  152.5451  134.1245  159.8423 H   0  0  0  0  0  0  0  0  0  0  0  0  # atno 6908 bound_to 6896
  151.1344  133.4968  159.2631 H   0  0  0  0  0  0  0  0  0  0  0  0  # atno 6909 bound_to 6896
  145.9271  140.7782  142.9618 H   0  0  0  0  0  0  0  0  0  0  0  0  # atno 7974 bound_to 7965
  154.4671  140.0933  156.7048 H   0  0  0  0  0  0  0  0  0  0  0  0  # atno 8008 bound_to 7997
  155.4828  140.3468  155.4324 H   0  0  0  0  0  0  0  0  0  0  0  0  # atno 8009 bound_to 7997
  156.0975  140.1413  156.9500 H   0  0  0  0  0  0  0  0  0  0  0  0  # atno 8010 bound_to 7997
  139.8176  143.7617  152.2665 H   0  0  0  0  0  0  0  0  0  0  0  0  # atno 10167 bound_to 10162
  157.3958  130.7832  149.7307 H   0  0  0  0  0  0  0  0  0  0  0  0  # atno 10718 bound_to 10713
  153.2582  135.4239  155.0867 H   0  0  0  0  0  0  0  0  0  0  0  0  # atno 10763 bound_to 10752
  154.8409  135.3442  154.6415 H   0  0  0  0  0  0  0  0  0  0  0  0  # atno 10764 bound_to 10752
  153.6835  135.7037  153.5168 H   0  0  0  0  0  0  0  0  0  0  0  0  # atno 10765 bound_to 10752
  140.5092  134.5818  157.5013 H   0  0  0  0  0  0  0  0  0  0  0  0  # atno 11005 bound_to 11000
  144.6760  140.2068  143.7381 LP  0  0  0  0  0  0  0  0  0  0  0  0  # atno 17320 bound_to 7965
  145.8474  139.2159  143.1792 LP  0  0  0  0  0  0  0  0  0  0  0  0  # atno 17321 bound_to 7965
  139.7785  144.7452  151.0122 LP  0  0  0  0  0  0  0  0  0  0  0  0  # atno 17342 bound_to 10162
  140.7815  143.4567  151.0335 LP  0  0  0  0  0  0  0  0  0  0  0  0  # atno 17343 bound_to 10162
  155.9810  130.4024  150.3497 LP  0  0  0  0  0  0  0  0  0  0  0  0  # atno 17370 bound_to 10713
  157.1619  131.0347  151.2837 LP  0  0  0  0  0  0  0  0  0  0  0  0  # atno 17371 bound_to 10713
  139.9668  134.7359  156.0121 LP  0  0  0  0  0  0  0  0  0  0  0  0  # atno 17394 bound_to 11000
  141.1394  133.6568  156.3687 LP  0  0  0  0  0  0  0  0  0  0  0  0  # atno 17395 bound_to 11000

$$$$
