AV-unprocessed.smi:2229|AV-procd|sdf|9030|dock4
  -GOLD-   2272012233D 1   1.00000     0.00000
 Structure written by MMmdl.
 44 45  0  0  0  0  0  0  0  0  1 V2000
  152.7697  142.9014  159.9861 C   0  0  0  0  0  0  0  0  0  0  0  0
  152.3737  142.9367  158.5003 C   0  0  0  0  0  0  0  0  0  0  0  0
  152.2737  144.3898  158.0107 C   0  0  0  0  0  0  0  0  0  0  0  0
  151.0619  142.1750  158.2179 C   0  0  0  0  0  0  0  0  0  0  0  0
  150.7253  142.0315  156.7218 C   0  0  0  0  0  0  0  0  0  0  0  0
  149.4128  141.2685  156.4608 C   0  0  1  0  0  0  0  0  0  0  0  0
  148.1502  142.0070  156.9205 C   0  0  0  0  0  0  0  0  0  0  0  0
  147.0298  141.3777  156.1002 C   0  0  0  0  0  0  0  0  0  0  0  0
  147.6565  141.1403  154.7264 C   0  0  0  0  0  0  0  0  0  0  0  0
  149.1707  140.9592  154.9668 C   0  0  2  0  0  0  0  0  0  0  0  0
  149.6130  139.6058  154.6397 N   0  0  0  0  0  0  0  0  0  0  0  0
  150.8926  139.2125  154.5519 C   0  0  0  0  0  0  0  0  0  0  0  0
  151.8456  139.9662  154.7545 O   0  0  0  0  0  0  0  0  0  0  0  0
  151.1259  137.7370  154.2039 C   0  0  0  0  0  0  0  0  0  0  0  0
  150.5069  136.8263  155.1685 N   0  0  0  0  0  0  0  0  0  0  0  0
  149.1435  136.7032  155.3340 C   0  0  0  0  0  0  0  0  0  0  0  0
  148.8459  135.8450  156.2491 N   0  0  0  0  0  0  0  0  0  0  0  0
  150.0643  135.4243  156.6660 N   0  0  0  0  0  0  0  0  0  0  0  0
  151.0880  136.0001  156.0337 C   0  0  0  0  0  0  0  0  0  0  0  0
  152.2892  135.8065  156.2121 O   0  0  0  0  0  0  0  0  0  0  0  0
  150.1236  134.7323  157.3992 H   0  0  0  0  0  0  0  0  0  0  0  0
  151.9915  143.3364  160.6139 H   0  0  0  0  0  0  0  0  0  0  0  0
  153.6870  143.4646  160.1584 H   0  0  0  0  0  0  0  0  0  0  0  0
  152.9509  141.8847  160.3334 H   0  0  0  0  0  0  0  0  0  0  0  0
  153.1710  142.4588  157.9297 H   0  0  0  0  0  0  0  0  0  0  0  0
  151.4868  144.9318  158.5360 H   0  0  0  0  0  0  0  0  0  0  0  0
  152.0528  144.4330  156.9438 H   0  0  0  0  0  0  0  0  0  0  0  0
  153.2102  144.9249  158.1710 H   0  0  0  0  0  0  0  0  0  0  0  0
  151.1023  141.1890  158.6827 H   0  0  0  0  0  0  0  0  0  0  0  0
  150.2436  142.7044  158.7067 H   0  0  0  0  0  0  0  0  0  0  0  0
  150.6744  143.0180  156.2594 H   0  0  0  0  0  0  0  0  0  0  0  0
  151.5332  141.5009  156.2184 H   0  0  0  0  0  0  0  0  0  0  0  0
  149.4475  140.3248  157.0092 H   0  0  0  0  0  0  0  0  0  0  0  0
  147.9768  141.9169  157.9932 H   0  0  0  0  0  0  0  0  0  0  0  0
  148.2258  143.0690  156.6826 H   0  0  0  0  0  0  0  0  0  0  0  0
  146.7432  140.4231  156.5431 H   0  0  0  0  0  0  0  0  0  0  0  0
  146.1391  142.0047  156.0528 H   0  0  0  0  0  0  0  0  0  0  0  0
  147.1917  140.2959  154.2152 H   0  0  0  0  0  0  0  0  0  0  0  0
  147.4971  142.0178  154.0985 H   0  0  0  0  0  0  0  0  0  0  0  0
  149.7136  141.6758  154.3469 H   0  0  0  0  0  0  0  0  0  0  0  0
  148.8920  138.9210  154.4637 H   0  0  0  0  0  0  0  0  0  0  0  0
  150.7417  137.5511  153.1996 H   0  0  0  0  0  0  0  0  0  0  0  0
  152.1973  137.5321  154.1664 H   0  0  0  0  0  0  0  0  0  0  0  0
  148.4680  137.3025  154.7213 H   0  0  0  0  0  0  0  0  0  0  0  0
  1  2  1  0  0  0  0
  1 22  1  0  0  0  0
  1 23  1  0  0  0  0
  1 24  1  0  0  0  0
  2  3  1  0  0  0  0
  2  4  1  0  0  0  0
  2 25  1  0  0  0  0
  3 26  1  0  0  0  0
  3 27  1  0  0  0  0
  3 28  1  0  0  0  0
  4  5  1  0  0  0  0
  4 29  1  0  0  0  0
  4 30  1  0  0  0  0
  5  6  1  0  0  0  0
  5 31  1  0  0  0  0
  5 32  1  0  0  0  0
  6 10  1  0  0  0  0
  6  7  1  0  0  0  0
  6 33  1  0  0  0  0
  7  8  1  0  0  0  0
  7 34  1  0  0  0  0
  7 35  1  0  0  0  0
  8  9  1  0  0  0  0
  8 36  1  0  0  0  0
  8 37  1  0  0  0  0
  9 10  1  0  0  0  0
  9 38  1  0  0  0  0
  9 39  1  0  0  0  0
 10 11  1  0  0  0  0
 10 40  1  0  0  0  0
 11 12  1  0  0  0  0
 11 41  1  0  0  0  0
 12 13  2  0  0  0  0
 12 14  1  0  0  0  0
 14 15  1  0  0  0  0
 14 42  1  0  0  0  0
 14 43  1  0  0  0  0
 15 19  1  0  0  0  0
 15 16  1  0  0  0  0
 16 17  2  0  0  0  0
 16 44  1  0  0  0  0
 17 18  1  0  0  0  0
 18 21  1  0  0  0  0
 18 19  1  0  0  0  0
 19 20  2  0  0  0  0
M  END
> <s_m_source_file>
AV-unprocessed.smi

> <i_m_source_file_index>
2229

> <i_lp_mmshare_version>
43012

> <i_f3d_flags>
0

> <s_epik_input>
W0NIM11bQ0hdKFtDSDNdKVtDSDJdW0NIMl1bQ0BASF0xW0NIMl1bQ0gyXVtDSDJdW0NASF0xW05IXUMoPU8pW0NIMl1uMltjSF1uW25IXWMyPU8=

> <s_epik_cmdline>
J2VwaWtfcHl0aG9uJywgJy1waCcsICc3LjAnLCAnLXRuJywgJzgnLCAnLW1hJywgJzIwMCcsICctbWV0YWxfYmluZGluZycsICctaW1hZScsICc8aW5maWxlLm1hZT4nLCAnLW9tYWUnLCAnPG91dGZpbGUubWFlPic=

> <r_lp_tautomer_probability>
1

> <r_epik_Ionization_Penalty>
4.14174e-05

> <r_epik_Ionization_Penalty_Charging>
4.13165e-05

> <r_epik_Ionization_Penalty_Neutral>
1.00911e-07

> <r_epik_State_Penalty>
-0

> <r_epik_Charging_Adjusted_Penalty>
4.13165e-05

> <i_epik_Tot_Q>
0

> <i_epik_Tot_abs_Q>
0

> <r_epik_Metal_State_Penalty>
0.0399369

> <b_epik_Metal_Only>
0

> <s_lp_Force_Field>
OPLS_2005

> <r_lp_Energy>
37.2399

> <b_lp_Chiralities_Consistent>
1

> <s_lp_Variant>
AV-unprocessed.smi:2229-4

> <Gold.Version>
5.8.1

> <Gold.Id.Protein>
6NUR|6NUR_protein|mol2

> <Gold.PLP.Fitness>
40.9431

> <Gold.PLP.PLP>
-35.9412

> <Gold.PLP.part.hbond>
-2.0000

> <Gold.PLP.part.metal>
0.0000

> <Gold.PLP.part.buried>
-4.5762

> <Gold.PLP.part.nonpolar>
-30.5009

> <Gold.PLP.part.repulsive>
0.2577

> <Gold.PLP.ligand.clash>
0.0000

> <Gold.PLP.ligand.torsion>
0.2217

> <Gold.PLP.Chemscore.Hbond>
1.7888

> <Gold.PLP.Chemscore.CHOScore>
0.0000

> <Gold.PLP.Chemscore.Metal>
0.0000

> <Gold.Chemscore.Hbonds>
donor molecule, donor type, donor heavy atom, donor atom, acceptor molecule, acceptor atom, score
      P1  H  7989  7998       L1    13  0.86
      P1  H 10752 10763       L1    20  0.83

> <Gold.PLP.Chemscore.Internal.Correction>
0.0790

> <Gold.Rescore>
     Score         DG    S(hbond)    S(metal)    S(lipo)     H(rot)  DE(clash)    DE(int)     intcor
     13.32     -14.58       1.94        0.00      80.03       2.64       0.07       1.20       ----

> <Gold.Chemscore.Fitness>
13.3187

> <Gold.Chemscore.DG>
-14.5845

> <Gold.Chemscore.ZeroCoef>
-5.4800

> <Gold.Chemscore.Hbond>
1.9434

> <Gold.Chemscore.Metal>
0.0000

> <Gold.Chemscore.Lipo>
80.0316

> <Gold.Chemscore.Internal_Hbond>
0.0000

> <Gold.Chemscore.DEClash>
0.0680

> <Gold.Chemscore.DEInternal>
1.1978

> <Gold.Chemscore.Rot>
2.6368

> <Gold.Chemscore.Internal.Correction>
   9.000000E+99

> <Gold.Chemscore.Hbonds>
donor molecule, donor type, donor heavy atom, donor atom, acceptor molecule, acceptor atom, score
      P1  H  7989  7998       L1    13  0.16
      P1  H 10752 10763       L1    20  0.82

> <Gold.Chemscore.Hbond.Weighted>
-6.4909

> <Gold.Chemscore.Metal.Weighted>
-0.0000

> <Gold.Chemscore.Lipo.Weighted>
-9.3637

> <Gold.Chemscore.Internal_Hbond.Weighted>
0.0000

> <Gold.Chemscore.DEClash.Weighted>
0.0680

> <Gold.Chemscore.DEInternal.Weighted>
1.1978

> <Gold.Chemscore.Rot.Weighted>
6.7501

> <Gold.Chemscore.Internal.Correction.Weighted>
   9.000000E+99

> <Gold.Protein.RotatedTorsions>
[ 6907 6896 6895 6894 ] final   37.35 input  -60.11 | X-H torsion
[ 7974 7965 7964 7962 ] final -102.91 input  175.53 | X-H torsion
[ 8008 7997 7996 7995 ] final  -15.93 input   59.86 | X-H torsion
[ 10167 10162 10161 10158 ] final  -21.28 input  -65.29 | X-H torsion
[ 10718 10713 10712 10709 ] final   45.83 input   66.30 | X-H torsion
[ 10763 10752 10751 10750 ] final   96.91 input  -60.55 | X-H torsion
[ 11005 11000 10999 10996 ] final   42.35 input  -57.11 | X-H torsion

> <Gold.Protein.ActiveResidues>
 VAL166  LYS551  ARG553  GLY616  TRP617  ASP618  TYR619  PRO620  LYS621  CYS622 
 ASP623  PHE694  ASN695  SER759  ASP760  ASP761  ALA762  ILE779  LEU786  VAL792 
 PHE793  MET794  SER795  GLU796  ALA797  LYS798  CYS799  TRP800  GLU811  SER814 

> <Gold.Protein.RotatedAtoms>
  152.1420  134.9055  160.0552 H   0  0  0  0  0  0  0  0  0  0  0  0  # atno 6907 bound_to 6896
  152.0119  133.3860  159.4231 H   0  0  0  0  0  0  0  0  0  0  0  0  # atno 6908 bound_to 6896
  150.6866  134.3643  159.5008 H   0  0  0  0  0  0  0  0  0  0  0  0  # atno 6909 bound_to 6896
  145.2627  140.9274  143.3031 H   0  0  0  0  0  0  0  0  0  0  0  0  # atno 7974 bound_to 7965
  154.5092  140.2183  155.9190 H   0  0  0  0  0  0  0  0  0  0  0  0  # atno 8008 bound_to 7997
  156.1531  140.3157  155.8647 H   0  0  0  0  0  0  0  0  0  0  0  0  # atno 8009 bound_to 7997
  155.3899  140.0477  157.3031 H   0  0  0  0  0  0  0  0  0  0  0  0  # atno 8010 bound_to 7997
  140.7281  143.4642  151.0336 H   0  0  0  0  0  0  0  0  0  0  0  0  # atno 10167 bound_to 10162
  157.4417  130.8085  149.7701 H   0  0  0  0  0  0  0  0  0  0  0  0  # atno 10718 bound_to 10713
  153.2706  135.4202  155.0984 H   0  0  0  0  0  0  0  0  0  0  0  0  # atno 10763 bound_to 10752
  154.8454  135.3471  154.6249 H   0  0  0  0  0  0  0  0  0  0  0  0  # atno 10764 bound_to 10752
  153.6669  135.7045  153.5217 H   0  0  0  0  0  0  0  0  0  0  0  0  # atno 10765 bound_to 10752
  140.1747  134.4178  155.8235 H   0  0  0  0  0  0  0  0  0  0  0  0  # atno 11005 bound_to 11000
  144.9404  139.4195  143.6451 LP  0  0  0  0  0  0  0  0  0  0  0  0  # atno 17320 bound_to 7965
  146.3270  139.8361  142.8899 LP  0  0  0  0  0  0  0  0  0  0  0  0  # atno 17321 bound_to 7965
  139.8329  143.7666  152.3180 LP  0  0  0  0  0  0  0  0  0  0  0  0  # atno 17342 bound_to 10162
  139.7788  144.7451  151.0118 LP  0  0  0  0  0  0  0  0  0  0  0  0  # atno 17343 bound_to 10162
  155.9951  130.3913  150.2831 LP  0  0  0  0  0  0  0  0  0  0  0  0  # atno 17370 bound_to 10713
  157.0996  131.0192  151.3090 LP  0  0  0  0  0  0  0  0  0  0  0  0  # atno 17371 bound_to 10713
  141.2219  133.6972  156.7826 LP  0  0  0  0  0  0  0  0  0  0  0  0  # atno 17394 bound_to 11000
  140.2336  134.8667  157.3502 LP  0  0  0  0  0  0  0  0  0  0  0  0  # atno 17395 bound_to 11000

$$$$
