AV-unprocessed.smi:2329|AV-procd|sdf|9307|dock1
  -GOLD-   2272012523D 1   1.00000     0.00000
 Structure written by MMmdl.
 45 48  0  0  0  0  0  0  0  0  1 V2000
  151.5424  144.9342  160.2201 C   0  0  0  0  0  0  0  0  0  0  0  0
  152.0614  143.5117  160.2273 C   0  0  0  0  0  0  0  0  0  0  0  0
  152.8383  143.0284  161.2985 C   0  0  0  0  0  0  0  0  0  0  0  0
  153.2933  141.6991  161.2403 C   0  0  0  0  0  0  0  0  0  0  0  0
  152.9554  140.9133  160.1217 C   0  0  0  0  0  0  0  0  0  0  0  0
  152.1694  141.4744  159.0904 C   0  0  0  0  0  0  0  0  0  0  0  0
  151.8856  140.6010  158.0079 N   0  0  0  0  0  0  0  0  0  0  0  0
  151.2312  140.8751  156.8617 C   0  0  0  0  0  0  0  0  0  0  0  0
  150.7166  141.9579  156.5881 O   0  0  0  0  0  0  0  0  0  0  0  0
  151.1379  139.8287  156.0227 N   0  0  0  0  0  0  0  0  0  0  0  0
  150.4944  139.7898  154.7036 C   0  0  1  0  0  0  0  0  0  0  0  0
  150.3693  138.3657  154.1089 C   0  0  1  0  0  0  0  0  0  0  0  0
  151.0871  137.1639  154.6757 C   0  0  0  0  0  0  0  0  0  0  0  0
  150.0218  136.5186  155.5664 C   0  0  0  0  0  0  0  0  0  0  0  0
  149.0877  137.5624  155.8323 O   0  0  0  0  0  0  0  0  0  0  0  0
  148.9453  138.3320  154.6414 C   0  0  1  0  0  0  0  0  0  0  0  0
  148.9524  139.8651  154.8094 C   0  0  0  0  0  0  0  0  0  0  0  0
  148.2891  140.4481  156.0586 C   0  0  0  0  0  0  0  0  0  0  0  0
  146.8228  140.7125  155.7078 C   0  0  0  0  0  0  0  0  0  0  0  0
  146.7798  140.8322  154.1814 C   0  0  0  0  0  0  0  0  0  0  0  0
  148.2240  140.6372  153.7109 C   0  0  0  0  0  0  0  0  0  0  0  0
  151.7364  142.7581  159.1549 N   0  0  0  0  0  0  0  0  0  0  0  0
  151.7419  145.4323  161.1694 H   0  0  0  0  0  0  0  0  0  0  0  0
  150.4653  144.9467  160.0504 H   0  0  0  0  0  0  0  0  0  0  0  0
  152.0231  145.5066  159.4264 H   0  0  0  0  0  0  0  0  0  0  0  0
  153.0817  143.6574  162.1422 H   0  0  0  0  0  0  0  0  0  0  0  0
  153.8924  141.2884  162.0394 H   0  0  0  0  0  0  0  0  0  0  0  0
  153.2974  139.8903  160.0609 H   0  0  0  0  0  0  0  0  0  0  0  0
  152.2213  139.6550  158.1127 H   0  0  0  0  0  0  0  0  0  0  0  0
  151.4843  138.9442  156.3654 H   0  0  0  0  0  0  0  0  0  0  0  0
  150.8927  140.5158  153.9926 H   0  0  0  0  0  0  0  0  0  0  0  0
  150.3752  138.4033  153.0184 H   0  0  0  0  0  0  0  0  0  0  0  0
  151.4155  136.4750  153.8970 H   0  0  0  0  0  0  0  0  0  0  0  0
  151.9681  137.4403  155.2528 H   0  0  0  0  0  0  0  0  0  0  0  0
  149.5128  135.7150  155.0323 H   0  0  0  0  0  0  0  0  0  0  0  0
  150.4359  136.1080  156.4872 H   0  0  0  0  0  0  0  0  0  0  0  0
  148.2152  137.9236  153.9408 H   0  0  0  0  0  0  0  0  0  0  0  0
  148.3758  139.7958  156.9281 H   0  0  0  0  0  0  0  0  0  0  0  0
  148.7681  141.3912  156.3263 H   0  0  0  0  0  0  0  0  0  0  0  0
  146.2007  139.8768  156.0316 H   0  0  0  0  0  0  0  0  0  0  0  0
  146.4497  141.6107  156.2011 H   0  0  0  0  0  0  0  0  0  0  0  0
  146.1399  140.0512  153.7683 H   0  0  0  0  0  0  0  0  0  0  0  0
  146.3787  141.7925  153.8557 H   0  0  0  0  0  0  0  0  0  0  0  0
  148.6913  141.6130  153.5714 H   0  0  0  0  0  0  0  0  0  0  0  0
  148.2626  140.1310  152.7455 H   0  0  0  0  0  0  0  0  0  0  0  0
  1  2  1  0  0  0  0
  1 23  1  0  0  0  0
  1 24  1  0  0  0  0
  1 25  1  0  0  0  0
  2 22  1  0  0  0  0
  2  3  2  0  0  0  0
  3  4  1  0  0  0  0
  3 26  1  0  0  0  0
  4  5  2  0  0  0  0
  4 27  1  0  0  0  0
  5  6  1  0  0  0  0
  5 28  1  0  0  0  0
  6  7  1  0  0  0  0
  6 22  2  0  0  0  0
  7  8  1  0  0  0  0
  7 29  1  0  0  0  0
  8  9  2  0  0  0  0
  8 10  1  0  0  0  0
 10 11  1  0  0  0  0
 10 30  1  0  0  0  0
 11 17  1  0  0  0  0
 11 12  1  0  0  0  0
 11 31  1  0  0  0  0
 12 16  1  0  0  0  0
 12 13  1  0  0  0  0
 12 32  1  0  0  0  0
 13 14  1  0  0  0  0
 13 33  1  0  0  0  0
 13 34  1  0  0  0  0
 14 15  1  0  0  0  0
 14 35  1  0  0  0  0
 14 36  1  0  0  0  0
 15 16  1  0  0  0  0
 16 17  1  0  0  0  0
 16 37  1  0  0  0  0
 17 21  1  0  0  0  0
 17 18  1  0  0  0  0
 18 19  1  0  0  0  0
 18 38  1  0  0  0  0
 18 39  1  0  0  0  0
 19 20  1  0  0  0  0
 19 40  1  0  0  0  0
 19 41  1  0  0  0  0
 20 21  1  0  0  0  0
 20 42  1  0  0  0  0
 20 43  1  0  0  0  0
 21 44  1  0  0  0  0
 21 45  1  0  0  0  0
M  END
> <s_m_source_file>
AV-unprocessed.smi

> <i_m_source_file_index>
2329

> <i_lp_mmshare_version>
43012

> <i_f3d_flags>
0

> <s_epik_input>
W0NIM11jMVtjSF1bY0hdW2NIXWMobjEpW05IXUMoPU8pW05IXVtDQEBIXTJbQ0BASF0oW0NIMl1bQ0gyXU8zKVtDQEhdM0MyNFtDSDJdW0NIMl1bQ0gyXVtDSDJdNA==

> <s_epik_cmdline>
J2VwaWtfcHl0aG9uJywgJy1waCcsICc3LjAnLCAnLXRuJywgJzgnLCAnLW1hJywgJzIwMCcsICctbWV0YWxfYmluZGluZycsICctaW1hZScsICc8aW5maWxlLm1hZT4nLCAnLW9tYWUnLCAnPG91dGZpbGUubWFlPic=

> <r_lp_tautomer_probability>
1

> <r_epik_Ionization_Penalty>
8.97002e-05

> <r_epik_Ionization_Penalty_Charging>
0

> <r_epik_Ionization_Penalty_Neutral>
8.97002e-05

> <r_epik_State_Penalty>
-0

> <r_epik_Charging_Adjusted_Penalty>
0

> <i_epik_Tot_Q>
0

> <i_epik_Tot_abs_Q>
0

> <r_epik_Metal_State_Penalty>
-0

> <b_epik_Metal_Only>
0

> <s_lp_Force_Field>
OPLS_2005

> <r_lp_Energy>
67.5757

> <b_lp_Chiralities_Consistent>
1

> <s_lp_Variant>
AV-unprocessed.smi:2329-6

> <Gold.Version>
5.8.1

> <Gold.Id.Protein>
6NUR|6NUR_protein|mol2

> <Gold.PLP.Fitness>
41.0705

> <Gold.PLP.PLP>
-41.0779

> <Gold.PLP.part.hbond>
0.0000

> <Gold.PLP.part.metal>
0.0000

> <Gold.PLP.part.buried>
-3.4542

> <Gold.PLP.part.nonpolar>
-37.0250

> <Gold.PLP.part.repulsive>
0.3412

> <Gold.PLP.ligand.clash>
0.0000

> <Gold.PLP.ligand.torsion>
0.1006

> <Gold.PLP.Chemscore.Hbond>
0.0000

> <Gold.PLP.Chemscore.CHOScore>
0.0000

> <Gold.PLP.Chemscore.Metal>
0.0000

> <Gold.PLP.Chemscore.Internal.Correction>
0.1938

> <Gold.Rescore>
     Score         DG    S(hbond)    S(metal)    S(lipo)     H(rot)  DE(clash)    DE(int)     intcor
     13.13     -15.53       0.00        0.00     107.80       1.00       0.15       2.25       ----

> <Gold.Chemscore.Fitness>
13.1289

> <Gold.Chemscore.DG>
-15.5330

> <Gold.Chemscore.ZeroCoef>
-5.4800

> <Gold.Chemscore.Hbond>
0.0000

> <Gold.Chemscore.Metal>
0.0000

> <Gold.Chemscore.Lipo>
107.8036

> <Gold.Chemscore.Internal_Hbond>
0.0000

> <Gold.Chemscore.DEClash>
0.1508

> <Gold.Chemscore.DEInternal>
2.2533

> <Gold.Chemscore.Rot>
1.0000

> <Gold.Chemscore.Internal.Correction>
   9.000000E+99

> <Gold.Chemscore.Hbond.Weighted>
-0.0000

> <Gold.Chemscore.Metal.Weighted>
-0.0000

> <Gold.Chemscore.Lipo.Weighted>
-12.6130

> <Gold.Chemscore.Internal_Hbond.Weighted>
0.0000

> <Gold.Chemscore.DEClash.Weighted>
0.1508

> <Gold.Chemscore.DEInternal.Weighted>
2.2533

> <Gold.Chemscore.Rot.Weighted>
2.5600

> <Gold.Chemscore.Internal.Correction.Weighted>
   9.000000E+99

> <Gold.Protein.RotatedTorsions>
[ 6907 6896 6895 6894 ] final -124.67 input  -60.11 | X-H torsion
[ 7974 7965 7964 7962 ] final  -21.23 input  175.53 | X-H torsion
[ 8008 7997 7996 7995 ] final  -93.54 input   59.86 | X-H torsion
[ 10167 10162 10161 10158 ] final   46.42 input  -65.29 | X-H torsion
[ 10718 10713 10712 10709 ] final  -29.14 input   66.30 | X-H torsion
[ 10763 10752 10751 10750 ] final   76.10 input  -60.55 | X-H torsion
[ 11005 11000 10999 10996 ] final   97.85 input  -57.11 | X-H torsion

> <Gold.Protein.ActiveResidues>
 VAL166  LYS551  ARG553  GLY616  TRP617  ASP618  TYR619  PRO620  LYS621  CYS622 
 ASP623  PHE694  ASN695  SER759  ASP760  ASP761  ALA762  ILE779  LEU786  VAL792 
 PHE793  MET794  SER795  GLU796  ALA797  LYS798  CYS799  TRP800  GLU811  SER814 

> <Gold.Protein.RotatedAtoms>
  150.8791  133.7397  159.2937 H   0  0  0  0  0  0  0  0  0  0  0  0  # atno 6907 bound_to 6896
  151.4985  135.1059  159.9832 H   0  0  0  0  0  0  0  0  0  0  0  0  # atno 6908 bound_to 6896
  152.4747  133.8066  159.7036 H   0  0  0  0  0  0  0  0  0  0  0  0  # atno 6909 bound_to 6896
  146.1745  140.4312  142.8519 H   0  0  0  0  0  0  0  0  0  0  0  0  # atno 7974 bound_to 7965
  154.7370  140.0498  157.0777 H   0  0  0  0  0  0  0  0  0  0  0  0  # atno 8008 bound_to 7997
  155.0228  140.3149  155.4768 H   0  0  0  0  0  0  0  0  0  0  0  0  # atno 8009 bound_to 7997
  156.2855  140.2164  156.5346 H   0  0  0  0  0  0  0  0  0  0  0  0  # atno 8010 bound_to 7997
  140.3141  144.2785  150.6194 H   0  0  0  0  0  0  0  0  0  0  0  0  # atno 10167 bound_to 10162
  156.4163  130.4417  149.7216 H   0  0  0  0  0  0  0  0  0  0  0  0  # atno 10718 bound_to 10713
  153.0701  135.4964  154.8287 H   0  0  0  0  0  0  0  0  0  0  0  0  # atno 10763 bound_to 10752
  154.7011  135.3002  154.9342 H   0  0  0  0  0  0  0  0  0  0  0  0  # atno 10764 bound_to 10752
  154.0066  135.6759  153.4815 H   0  0  0  0  0  0  0  0  0  0  0  0  # atno 10765 bound_to 10752
  139.8774  134.9020  156.4368 H   0  0  0  0  0  0  0  0  0  0  0  0  # atno 11005 bound_to 11000
  144.8214  140.6556  143.6350 LP  0  0  0  0  0  0  0  0  0  0  0  0  # atno 17320 bound_to 7965
  145.4251  139.1558  143.4053 LP  0  0  0  0  0  0  0  0  0  0  0  0  # atno 17321 bound_to 7965
  140.5542  143.2201  151.7876 LP  0  0  0  0  0  0  0  0  0  0  0  0  # atno 17342 bound_to 10162
  139.4887  144.4436  151.9736 LP  0  0  0  0  0  0  0  0  0  0  0  0  # atno 17343 bound_to 10162
  156.4174  130.7752  151.2768 LP  0  0  0  0  0  0  0  0  0  0  0  0  # atno 17370 bound_to 10713
  157.7508  131.0193  150.3661 LP  0  0  0  0  0  0  0  0  0  0  0  0  # atno 17371 bound_to 10713
  140.9028  133.7767  155.9700 LP  0  0  0  0  0  0  0  0  0  0  0  0  # atno 17394 bound_to 11000
  140.8632  134.2815  157.5225 LP  0  0  0  0  0  0  0  0  0  0  0  0  # atno 17395 bound_to 11000

$$$$
