AV-unprocessed.smi:2722|AV-procd|sdf|10505|dock3
  -GOLD-   2272014543D 1   1.00000     0.00000
 Structure written by MMmdl.
 27 27  0  0  0  0  0  0  0  0  2 V2000
  154.3277  137.9431  158.8930 C   0  0  0  0  0  0  0  0  0  0  0  0
  152.8817  138.1911  158.4067 C   0  0  2  0  0  0  0  0  0  0  0  0
  152.9935  139.0309  157.2712 O   0  0  0  0  0  0  0  0  0  0  0  0
  152.0247  138.9712  159.4527 C   0  0  0  0  0  0  0  0  0  0  0  0
  152.5244  140.3106  159.8263 N   0  0  0  0  0  0  0  0  0  0  0  0
  151.9711  141.4185  159.1514 C   0  0  0  0  0  0  0  0  0  0  0  0
  152.3507  142.6888  159.3858 C   0  0  0  0  0  0  0  0  0  0  0  0
  151.6884  143.8609  158.6787 C   0  0  0  0  0  0  0  0  0  0  0  0
  152.1843  145.0238  159.1026 F   0  0  0  0  0  0  0  0  0  0  0  0
  151.8983  143.7746  157.3657 F   0  0  0  0  0  0  0  0  0  0  0  0
  150.3714  143.8657  158.8879 F   0  0  0  0  0  0  0  0  0  0  0  0
  153.3610  142.8813  160.4068 C   0  0  0  0  0  0  0  0  0  0  0  0
  153.9129  141.8343  161.0501 C   0  0  0  0  0  0  0  0  0  0  0  0
  153.5186  140.4552  160.7527 C   0  0  0  0  0  0  0  0  0  0  0  0
  154.0566  139.4930  161.3009 O   0  0  0  0  0  0  0  0  0  0  0  0
  152.2062  136.8652  157.9805 C   0  0  0  0  0  0  0  0  0  0  0  0
  152.7471  136.1827  157.0814 O   0  0  0  0  0  0  0  0  0  0  0  0
  151.1635  136.5349  158.5893 O   0  5  0  0  0  0  0  0  0  0  0  0
  154.3620  137.2834  159.7600 H   0  0  0  0  0  0  0  0  0  0  0  0
  154.8145  138.8766  159.1771 H   0  0  0  0  0  0  0  0  0  0  0  0
  154.9373  137.4833  158.1136 H   0  0  0  0  0  0  0  0  0  0  0  0
  152.1243  139.2714  156.9914 H   0  0  0  0  0  0  0  0  0  0  0  0
  150.9924  139.0385  159.1049 H   0  0  0  0  0  0  0  0  0  0  0  0
  151.9501  138.3736  160.3635 H   0  0  0  0  0  0  0  0  0  0  0  0
  151.2045  141.1689  158.4320 H   0  0  0  0  0  0  0  0  0  0  0  0
  153.6844  143.8801  160.6593 H   0  0  0  0  0  0  0  0  0  0  0  0
  154.6647  142.0141  161.8044 H   0  0  0  0  0  0  0  0  0  0  0  0
  1  2  1  0  0  0  0
  1 19  1  0  0  0  0
  1 20  1  0  0  0  0
  1 21  1  0  0  0  0
  2  3  1  0  0  0  0
  2  4  1  0  0  0  0
  2 16  1  0  0  0  0
  3 22  1  0  0  0  0
  4  5  1  0  0  0  0
  4 23  1  0  0  0  0
  4 24  1  0  0  0  0
  5 14  1  0  0  0  0
  5  6  1  0  0  0  0
  6  7  2  0  0  0  0
  6 25  1  0  0  0  0
  7  8  1  0  0  0  0
  7 12  1  0  0  0  0
  8  9  1  0  0  0  0
  8 10  1  0  0  0  0
  8 11  1  0  0  0  0
 12 13  2  0  0  0  0
 12 26  1  0  0  0  0
 13 14  1  0  0  0  0
 13 27  1  0  0  0  0
 14 15  2  0  0  0  0
 16 17  2  0  0  0  0
 16 18  1  0  0  0  0
M  CHG  1  18  -1
M  END
> <s_m_source_file>
AV-unprocessed.smi

> <i_m_source_file_index>
2722

> <i_lp_mmshare_version>
43012

> <i_f3d_flags>
0

> <s_epik_input>
Tz1DKFtPSF0pW0NAXShbQ0gzXSkoW09IXSlbQ0gyXW4xW2NIXWMoQyhGKShGKUYpW2NIXVtjSF1jMT1P

> <s_epik_cmdline>
J2VwaWtfcHl0aG9uJywgJy1waCcsICc3LjAnLCAnLXRuJywgJzgnLCAnLW1hJywgJzIwMCcsICctbWV0YWxfYmluZGluZycsICctaW1hZScsICc8aW5maWxlLm1hZT4nLCAnLW9tYWUnLCAnPG91dGZpbGUubWFlPic=

> <r_lp_tautomer_probability>
1

> <r_epik_Ionization_Penalty>
0.000391429

> <r_epik_Ionization_Penalty_Charging>
0.000383902

> <r_epik_Ionization_Penalty_Neutral>
7.52792e-06

> <r_epik_State_Penalty>
0.000234534

> <r_epik_Charging_Adjusted_Penalty>
0.000618436

> <i_epik_Tot_Q>
-1

> <i_epik_Tot_abs_Q>
1

> <r_epik_Metal_State_Penalty>
-0

> <b_epik_Metal_Only>
0

> <s_lp_Force_Field>
OPLS_2005

> <r_lp_Energy>
14.9238

> <b_lp_Chiralities_Consistent>
1

> <s_lp_Variant>
AV-unprocessed.smi:2722-2

> <Gold.Version>
5.8.1

> <Gold.Id.Protein>
6NUR|6NUR_protein|mol2

> <Gold.PLP.Fitness>
49.6214

> <Gold.PLP.PLP>
-36.7420

> <Gold.PLP.part.hbond>
-3.0000

> <Gold.PLP.part.metal>
0.0000

> <Gold.PLP.part.buried>
-5.3196

> <Gold.PLP.part.nonpolar>
-29.6700

> <Gold.PLP.part.repulsive>
0.0000

> <Gold.PLP.ligand.clash>
0.0000

> <Gold.PLP.ligand.torsion>
0.3875

> <Gold.PLP.Chemscore.Hbond>
4.4720

> <Gold.PLP.Chemscore.CHOScore>
0.0000

> <Gold.PLP.Chemscore.Metal>
0.0000

> <Gold.Chemscore.Hbonds>
donor molecule, donor type, donor heavy atom, donor atom, acceptor molecule, acceptor atom, score
      P1  H  6896  6908       L1    18  1.60
      P1  H  7997  8008       L1     3  1.00
      P1  H 10752 10763       L1    17  1.79

> <Gold.PLP.Chemscore.Internal.Correction>
0.2385

> <Gold.Rescore>
     Score         DG    S(hbond)    S(metal)    S(lipo)     H(rot)  DE(clash)    DE(int)     intcor
     13.88     -15.43       2.69        0.00      66.04       2.63       0.05       1.51       ----

> <Gold.Chemscore.Fitness>
13.8775

> <Gold.Chemscore.DG>
-15.4338

> <Gold.Chemscore.ZeroCoef>
-5.4800

> <Gold.Chemscore.Hbond>
2.6864

> <Gold.Chemscore.Metal>
0.0000

> <Gold.Chemscore.Lipo>
66.0370

> <Gold.Chemscore.Internal_Hbond>
0.0000

> <Gold.Chemscore.DEClash>
0.0499

> <Gold.Chemscore.DEInternal>
1.5064

> <Gold.Chemscore.Rot>
2.6348

> <Gold.Chemscore.Internal.Correction>
   9.000000E+99

> <Gold.Chemscore.Hbonds>
donor molecule, donor type, donor heavy atom, donor atom, acceptor molecule, acceptor atom, score
      P1  H  6896  6908       L1    18  0.78
      P1  H  7997  8008       L1     3  0.98
      P1  H 10752 10763       L1    17  0.86

> <Gold.Chemscore.Hbond.Weighted>
-8.9725

> <Gold.Chemscore.Metal.Weighted>
-0.0000

> <Gold.Chemscore.Lipo.Weighted>
-7.7263

> <Gold.Chemscore.Internal_Hbond.Weighted>
0.0000

> <Gold.Chemscore.DEClash.Weighted>
0.0499

> <Gold.Chemscore.DEInternal.Weighted>
1.5064

> <Gold.Chemscore.Rot.Weighted>
6.7451

> <Gold.Chemscore.Internal.Correction.Weighted>
   9.000000E+99

> <Gold.Protein.RotatedTorsions>
[ 6907 6896 6895 6894 ] final -145.64 input  -60.11 | X-H torsion
[ 7974 7965 7964 7962 ] final  124.95 input  175.53 | X-H torsion
[ 8008 7997 7996 7995 ] final  -68.13 input   59.86 | X-H torsion
[ 10167 10162 10161 10158 ] final  179.48 input  -65.29 | X-H torsion
[ 10718 10713 10712 10709 ] final  121.49 input   66.30 | X-H torsion
[ 10763 10752 10751 10750 ] final  117.60 input  -60.55 | X-H torsion
[ 11005 11000 10999 10996 ] final   90.42 input  -57.11 | X-H torsion

> <Gold.Protein.ActiveResidues>
 VAL166  LYS551  ARG553  GLY616  TRP617  ASP618  TYR619  PRO620  LYS621  CYS622 
 ASP623  PHE694  ASN695  SER759  ASP760  ASP761  ALA762  ILE779  LEU786  VAL792 
 PHE793  MET794  SER795  GLU796  ALA797  LYS798  CYS799  TRP800  GLU811  SER814 

> <Gold.Protein.RotatedAtoms>
  151.1306  133.5040  159.2599 H   0  0  0  0  0  0  0  0  0  0  0  0  # atno 6907 bound_to 6896
  151.1762  135.0340  159.8783 H   0  0  0  0  0  0  0  0  0  0  0  0  # atno 6908 bound_to 6896
  152.5459  134.1163  159.8433 H   0  0  0  0  0  0  0  0  0  0  0  0  # atno 6909 bound_to 6896
  145.0786  139.3675  143.4921 H   0  0  0  0  0  0  0  0  0  0  0  0  # atno 7974 bound_to 7965
  154.4847  140.0879  156.7458 H   0  0  0  0  0  0  0  0  0  0  0  0  # atno 8008 bound_to 7997
  155.4381  140.3452  155.4269 H   0  0  0  0  0  0  0  0  0  0  0  0  # atno 8009 bound_to 7997
  156.1243  140.1483  156.9147 H   0  0  0  0  0  0  0  0  0  0  0  0  # atno 8010 bound_to 7997
  139.5338  144.2556  152.0749 H   0  0  0  0  0  0  0  0  0  0  0  0  # atno 10167 bound_to 10162
  157.5813  131.1074  150.8181 H   0  0  0  0  0  0  0  0  0  0  0  0  # atno 10718 bound_to 10713
  153.5548  135.3532  155.2775 H   0  0  0  0  0  0  0  0  0  0  0  0  # atno 10763 bound_to 10752
  154.8702  135.4122  154.2896 H   0  0  0  0  0  0  0  0  0  0  0  0  # atno 10764 bound_to 10752
  153.3630  135.7061  153.6766 H   0  0  0  0  0  0  0  0  0  0  0  0  # atno 10765 bound_to 10752
  139.8856  134.8612  156.3282 H   0  0  0  0  0  0  0  0  0  0  0  0  # atno 11005 bound_to 11000
  146.3530  140.0565  142.8632 LP  0  0  0  0  0  0  0  0  0  0  0  0  # atno 17320 bound_to 7965
  145.1206  140.9460  143.4603 LP  0  0  0  0  0  0  0  0  0  0  0  0  # atno 17321 bound_to 7965
  140.2024  144.4645  150.6425 LP  0  0  0  0  0  0  0  0  0  0  0  0  # atno 17342 bound_to 10162
  140.6533  143.2230  151.6028 LP  0  0  0  0  0  0  0  0  0  0  0  0  # atno 17343 bound_to 10162
  156.8626  130.5118  149.5302 LP  0  0  0  0  0  0  0  0  0  0  0  0  # atno 17370 bound_to 10713
  156.0859  130.5858  150.9648 LP  0  0  0  0  0  0  0  0  0  0  0  0  # atno 17371 bound_to 10713
  140.9741  133.7309  156.0576 LP  0  0  0  0  0  0  0  0  0  0  0  0  # atno 17394 bound_to 11000
  140.7834  134.3700  157.5482 LP  0  0  0  0  0  0  0  0  0  0  0  0  # atno 17395 bound_to 11000

$$$$
