AV-unprocessed.smi:34|AV-procd|sdf|240|dock5
  -GOLD-   2262015583D 1   1.00000     0.00000
 Structure written by MMmdl.
 54 58  0  0  0  0  0  0  0  0  2 V2000
  152.4870  140.0872  157.2681 O   0  0  0  0  0  0  0  0  0  0  0  0
  151.8829  141.1358  157.0323 C   0  0  0  0  0  0  0  0  0  0  0  0
  151.0926  141.4219  155.9670 N   0  5  0  0  0  0  0  0  0  0  0  0
  150.1913  140.5229  155.5430 C   0  0  0  0  0  0  0  0  0  0  0  0
  150.4731  139.7109  154.4922 N   0  0  0  0  0  0  0  0  0  0  0  0
  149.5723  138.8173  154.0677 C   0  0  0  0  0  0  0  0  0  0  0  0
  148.3449  138.5740  154.5370 N   0  0  0  0  0  0  0  0  0  0  0  0
  148.0447  139.3919  155.5875 C   0  0  0  0  0  0  0  0  0  0  0  0
  148.9075  140.3839  156.1383 C   0  0  0  0  0  0  0  0  0  0  0  0
  148.2912  141.0415  157.1928 N   0  0  0  0  0  0  0  0  0  0  0  0
  147.1085  140.4319  157.2353 C   0  0  0  0  0  0  0  0  0  0  0  0
  146.8816  139.4522  156.3380 N   0  0  0  0  0  0  0  0  0  0  0  0
  145.6466  138.6269  156.1881 C   0  0  1  0  0  0  0  0  0  0  0  0
  145.3206  138.1108  157.4400 O   0  0  0  0  0  0  0  0  0  0  0  0
  143.9076  138.0225  157.5313 C   0  0  1  0  0  0  0  0  0  0  0  0
  143.4572  137.9050  158.9924 C   0  0  0  0  0  0  0  0  0  0  0  0
  144.4568  137.2286  159.7374 O   0  0  0  0  0  0  0  0  0  0  0  0
  144.8022  137.6743  160.9612 C   0  0  0  0  0  0  0  0  0  0  0  0
  144.4061  138.7409  161.4358 O   0  0  0  0  0  0  0  0  0  0  0  0
  145.7146  136.7408  161.6832 C   0  0  0  0  0  0  0  0  0  0  0  0
  146.8068  137.2659  162.4129 C   0  0  0  0  0  0  0  0  0  0  0  0
  147.6854  136.4098  163.1050 C   0  0  0  0  0  0  0  0  0  0  0  0
  147.4828  135.0179  163.0760 C   0  0  0  0  0  0  0  0  0  0  0  0
  146.4001  134.4828  162.3537 C   0  0  0  0  0  0  0  0  0  0  0  0
  145.5203  135.3375  161.6608 C   0  0  0  0  0  0  0  0  0  0  0  0
  143.4353  139.2948  156.8251 C   0  0  1  0  0  0  0  0  0  0  0  0
  143.4759  140.3415  157.6513 F   0  0  0  0  0  0  0  0  0  0  0  0
  144.4598  139.4850  155.7126 C   0  0  2  0  0  0  0  0  0  0  0  0
  143.9285  139.0169  154.4895 O   0  0  0  0  0  0  0  0  0  0  0  0
  152.0557  142.2988  157.9716 C   0  0  0  0  0  0  0  0  0  0  0  0
  152.6915  142.1031  159.2190 C   0  0  0  0  0  0  0  0  0  0  0  0
  152.8418  143.1736  160.1218 C   0  0  0  0  0  0  0  0  0  0  0  0
  152.3477  144.4495  159.7915 C   0  0  0  0  0  0  0  0  0  0  0  0
  151.6997  144.6531  158.5588 C   0  0  0  0  0  0  0  0  0  0  0  0
  151.5504  143.5834  157.6546 C   0  0  0  0  0  0  0  0  0  0  0  0
  149.8793  138.2098  153.2292 H   0  0  0  0  0  0  0  0  0  0  0  0
  146.3638  140.7128  157.9653 H   0  0  0  0  0  0  0  0  0  0  0  0
  145.9160  137.8251  155.4985 H   0  0  0  0  0  0  0  0  0  0  0  0
  143.5715  137.1547  156.9603 H   0  0  0  0  0  0  0  0  0  0  0  0
  143.2636  138.8929  159.4134 H   0  0  0  0  0  0  0  0  0  0  0  0
  142.5297  137.3334  159.0494 H   0  0  0  0  0  0  0  0  0  0  0  0
  146.9830  138.3313  162.4498 H   0  0  0  0  0  0  0  0  0  0  0  0
  148.5160  136.8224  163.6587 H   0  0  0  0  0  0  0  0  0  0  0  0
  148.1566  134.3616  163.6068 H   0  0  0  0  0  0  0  0  0  0  0  0
  146.2435  133.4143  162.3306 H   0  0  0  0  0  0  0  0  0  0  0  0
  144.6994  134.8939  161.1163 H   0  0  0  0  0  0  0  0  0  0  0  0
  142.4074  139.2219  156.4678 H   0  0  0  0  0  0  0  0  0  0  0  0
  144.7445  140.5326  155.6007 H   0  0  0  0  0  0  0  0  0  0  0  0
  143.6997  139.7639  153.9576 H   0  0  0  0  0  0  0  0  0  0  0  0
  153.0747  141.1294  159.4880 H   0  0  0  0  0  0  0  0  0  0  0  0
  153.3358  143.0146  161.0688 H   0  0  0  0  0  0  0  0  0  0  0  0
  152.4620  145.2699  160.4843 H   0  0  0  0  0  0  0  0  0  0  0  0
  151.3143  145.6298  158.3061 H   0  0  0  0  0  0  0  0  0  0  0  0
  151.0416  143.7582  156.7176 H   0  0  0  0  0  0  0  0  0  0  0  0
  1  2  2  0  0  0  0
  2  3  1  0  0  0  0
  2 30  1  0  0  0  0
  3  4  1  0  0  0  0
  4  9  1  0  0  0  0
  4  5  2  0  0  0  0
  5  6  1  0  0  0  0
  6  7  2  0  0  0  0
  6 36  1  0  0  0  0
  7  8  1  0  0  0  0
  8 12  1  0  0  0  0
  8  9  2  0  0  0  0
  9 10  1  0  0  0  0
 10 11  2  0  0  0  0
 11 12  1  0  0  0  0
 11 37  1  0  0  0  0
 12 13  1  0  0  0  0
 13 28  1  0  0  0  0
 13 14  1  0  0  0  0
 13 38  1  0  0  0  0
 14 15  1  0  0  0  0
 15 16  1  0  0  0  0
 15 26  1  0  0  0  0
 15 39  1  0  0  0  0
 16 17  1  0  0  0  0
 16 40  1  0  0  0  0
 16 41  1  0  0  0  0
 17 18  1  0  0  0  0
 18 19  2  0  0  0  0
 18 20  1  0  0  0  0
 20 25  1  0  0  0  0
 20 21  2  0  0  0  0
 21 22  1  0  0  0  0
 21 42  1  0  0  0  0
 22 23  2  0  0  0  0
 22 43  1  0  0  0  0
 23 24  1  0  0  0  0
 23 44  1  0  0  0  0
 24 25  2  0  0  0  0
 24 45  1  0  0  0  0
 25 46  1  0  0  0  0
 26 27  1  0  0  0  0
 26 28  1  0  0  0  0
 26 47  1  0  0  0  0
 28 29  1  0  0  0  0
 28 48  1  0  0  0  0
 29 49  1  0  0  0  0
 30 35  1  0  0  0  0
 30 31  2  0  0  0  0
 31 32  1  0  0  0  0
 31 50  1  0  0  0  0
 32 33  2  0  0  0  0
 32 51  1  0  0  0  0
 33 34  1  0  0  0  0
 33 52  1  0  0  0  0
 34 35  2  0  0  0  0
 34 53  1  0  0  0  0
 35 54  1  0  0  0  0
M  CHG  1   3  -1
M  END
> <s_m_source_file>
AV-unprocessed.smi

> <i_m_source_file_index>
34

> <i_lp_mmshare_version>
43012

> <i_f3d_flags>
0

> <s_epik_input>
W2NIXTFbY0hdW2NIXVtjSF1bY0hdYzFDKD1PKVtOSF1jKG5bY0hdbjIpYyhjMjMpbltjSF1uM1tDQEBIXTRPW0NASF0oW0NAQEhdKEYpW0NASF00W09IXSlbQ0gyXU9DKD1PKWM1W2NIXVtjSF1bY0hdW2NIXVtjSF01

> <s_epik_cmdline>
J2VwaWtfcHl0aG9uJywgJy1waCcsICc3LjAnLCAnLXRuJywgJzgnLCAnLW1hJywgJzIwMCcsICctbWV0YWxfYmluZGluZycsICctaW1hZScsICc8aW5maWxlLm1hZT4nLCAnLW9tYWUnLCAnPG91dGZpbGUubWFlPic=

> <r_lp_tautomer_probability>
1

> <r_epik_Ionization_Penalty>
4.33227

> <r_epik_Ionization_Penalty_Charging>
3.41027

> <r_epik_Ionization_Penalty_Neutral>
0.922001

> <r_epik_State_Penalty>
3.41358

> <r_epik_Charging_Adjusted_Penalty>
6.82385

> <i_epik_Tot_Q>
-1

> <i_epik_Tot_abs_Q>
1

> <r_epik_Metal_State_Penalty>
0.496292

> <b_epik_Metal_Only>
1

> <s_epik_Chemistry_Notes>
This compound has an ester and may undergo hydrolysis at high or low pH. This compound contains an acetal/aminal-like group ( X-CH(R)-Y where X, Y are N, S, or O) that may be acid/base labile, releasing an aldehyde.

> <s_lp_Force_Field>
OPLS_2005

> <r_lp_Energy>
44.0615

> <b_lp_Chiralities_Consistent>
1

> <s_lp_Variant>
AV-unprocessed.smi:34-26

> <Gold.Version>
5.8.1

> <Gold.Id.Protein>
6NUR|6NUR_protein|mol2

> <Gold.PLP.Fitness>
57.8813

> <Gold.PLP.PLP>
-50.3978

> <Gold.PLP.part.hbond>
-3.7455

> <Gold.PLP.part.metal>
0.0000

> <Gold.PLP.part.buried>
-6.2676

> <Gold.PLP.part.nonpolar>
-40.0683

> <Gold.PLP.part.repulsive>
0.3553

> <Gold.PLP.ligand.clash>
0.0000

> <Gold.PLP.ligand.torsion>
2.7011

> <Gold.PLP.Chemscore.Hbond>
2.9913

> <Gold.PLP.Chemscore.CHOScore>
1.1924

> <Gold.PLP.Chemscore.Metal>
0.0000

> <Gold.Chemscore.Hbonds>
donor molecule, donor type, donor heavy atom, donor atom, acceptor molecule, acceptor atom, score
      L1  H    29    49       P1 10175  0.99
      P1  H  7989  7998       L1     5  1.00
      P1  H  7997  8009       L1     1  1.00
      L1  C     6    36       P1  7948  0.99
      L1  C     6    36       P1  7957  0.19

> <Gold.PLP.Chemscore.Internal.Correction>
0.3349

> <Gold.Rescore>
     Score         DG    S(hbond)    S(metal)    S(lipo)     H(rot)  DE(clash)    DE(int)     intcor
     18.68     -21.40       2.57        0.00     121.56       2.69       0.14       2.58       ----

> <Gold.Chemscore.Fitness>
18.6789

> <Gold.Chemscore.DG>
-21.4021

> <Gold.Chemscore.ZeroCoef>
-5.4800

> <Gold.Chemscore.Hbond>
2.5742

> <Gold.Chemscore.Metal>
0.0000

> <Gold.Chemscore.Lipo>
121.5552

> <Gold.Chemscore.Internal_Hbond>
0.0000

> <Gold.Chemscore.DEClash>
0.1435

> <Gold.Chemscore.DEInternal>
2.5798

> <Gold.Chemscore.Rot>
2.6944

> <Gold.Chemscore.Internal.Correction>
   9.000000E+99

> <Gold.Chemscore.Hbonds>
donor molecule, donor type, donor heavy atom, donor atom, acceptor molecule, acceptor atom, score
      L1  H    29    49       P1 10175  0.94
      P1  H  7989  7998       L1     5  0.25
      P1  H  7997  8009       L1     1  0.86

> <Gold.Chemscore.Hbond.Weighted>
-8.5977

> <Gold.Chemscore.Metal.Weighted>
-0.0000

> <Gold.Chemscore.Lipo.Weighted>
-14.2220

> <Gold.Chemscore.Internal_Hbond.Weighted>
0.0000

> <Gold.Chemscore.DEClash.Weighted>
0.1435

> <Gold.Chemscore.DEInternal.Weighted>
2.5798

> <Gold.Chemscore.Rot.Weighted>
6.8975

> <Gold.Chemscore.Internal.Correction.Weighted>
   9.000000E+99

> <Gold.Protein.RotatedTorsions>
[ 6907 6896 6895 6894 ] final  129.41 input  -60.11 | X-H torsion
[ 7974 7965 7964 7962 ] final   20.05 input  175.53 | X-H torsion
[ 8008 7997 7996 7995 ] final  172.81 input   59.86 | X-H torsion
[ 10167 10162 10161 10158 ] final   84.00 input  -65.29 | X-H torsion
[ 10718 10713 10712 10709 ] final   37.81 input   66.30 | X-H torsion
[ 10763 10752 10751 10750 ] final   81.19 input  -60.55 | X-H torsion
[ 11005 11000 10999 10996 ] final  -99.90 input  -57.11 | X-H torsion

> <Gold.Protein.ActiveResidues>
 VAL166  LYS551  ARG553  GLY616  TRP617  ASP618  TYR619  PRO620  LYS621  CYS622 
 ASP623  PHE694  ASN695  SER759  ASP760  ASP761  ALA762  ILE779  LEU786  VAL792 
 PHE793  MET794  SER795  GLU796  ALA797  LYS798  CYS799  TRP800  GLU811  SER814 

> <Gold.Protein.RotatedAtoms>
  152.3626  133.6316  159.6026 H   0  0  0  0  0  0  0  0  0  0  0  0  # atno 6907 bound_to 6896
  150.7612  133.9399  159.3462 H   0  0  0  0  0  0  0  0  0  0  0  0  # atno 6908 bound_to 6896
  151.7235  135.0890  160.0339 H   0  0  0  0  0  0  0  0  0  0  0  0  # atno 6909 bound_to 6896
  146.2126  139.8226  142.8676 H   0  0  0  0  0  0  0  0  0  0  0  0  # atno 7974 bound_to 7965
  156.1137  140.1476  156.9302 H   0  0  0  0  0  0  0  0  0  0  0  0  # atno 8008 bound_to 7997
  154.4785  140.0887  156.7364 H   0  0  0  0  0  0  0  0  0  0  0  0  # atno 8009 bound_to 7997
  155.4551  140.3436  155.4308 H   0  0  0  0  0  0  0  0  0  0  0  0  # atno 8010 bound_to 7997
  139.9125  144.6263  150.8522 H   0  0  0  0  0  0  0  0  0  0  0  0  # atno 10167 bound_to 10162
  157.3514  130.7600  149.6981 H   0  0  0  0  0  0  0  0  0  0  0  0  # atno 10718 bound_to 10713
  153.1096  135.4774  154.9012 H   0  0  0  0  0  0  0  0  0  0  0  0  # atno 10763 bound_to 10752
  154.7467  135.3095  154.8634 H   0  0  0  0  0  0  0  0  0  0  0  0  # atno 10764 bound_to 10752
  153.9227  135.6853  153.4801 H   0  0  0  0  0  0  0  0  0  0  0  0  # atno 10765 bound_to 10752
  141.1291  133.8357  157.1032 H   0  0  0  0  0  0  0  0  0  0  0  0  # atno 11005 bound_to 11000
  145.3081  141.0212  143.3570 LP  0  0  0  0  0  0  0  0  0  0  0  0  # atno 17320 bound_to 7965
  144.8956  139.4716  143.6657 LP  0  0  0  0  0  0  0  0  0  0  0  0  # atno 17321 bound_to 7965
  140.7682  143.3355  151.2318 LP  0  0  0  0  0  0  0  0  0  0  0  0  # atno 17342 bound_to 10162
  139.6930  143.9660  152.2869 LP  0  0  0  0  0  0  0  0  0  0  0  0  # atno 17343 bound_to 10162
  155.9722  130.4139  150.4108 LP  0  0  0  0  0  0  0  0  0  0  0  0  # atno 17370 bound_to 10713
  157.2171  131.0474  151.2567 LP  0  0  0  0  0  0  0  0  0  0  0  0  # atno 17371 bound_to 10713
  140.0320  134.9896  157.0799 LP  0  0  0  0  0  0  0  0  0  0  0  0  # atno 17394 bound_to 11000
  140.4270  134.1821  155.7166 LP  0  0  0  0  0  0  0  0  0  0  0  0  # atno 17395 bound_to 11000

$$$$
