AV-unprocessed.smi:1014|AV-procd|sdf|4430|dock1
  -GOLD-   22720 2383D 1   1.00000     0.00000
 Structure written by MMmdl.
 34 34  0  0  0  0  0  0  0  0  2 V2000
  148.0585  140.7268  154.0479 C   0  0  0  0  0  0  0  0  0  0  0  0
  149.1506  141.7103  154.4964 C   0  0  0  0  0  0  0  0  0  0  0  0
  149.8181  141.3590  155.8440 C   0  0  2  0  0  0  0  0  0  0  0  0
  150.6221  142.5147  156.3023 N   0  3  0  0  0  0  0  0  0  0  0  0
  151.0145  142.4903  157.7290 C   0  0  0  0  0  0  0  0  0  0  0  0
  152.2169  141.5631  157.9686 C   0  0  0  0  0  0  0  0  0  0  0  0
  152.7934  141.7387  159.2897 N   0  0  0  0  0  0  0  0  0  0  0  0
  152.3387  142.5278  160.3249 C   0  0  0  0  0  0  0  0  0  0  0  0
  153.2074  142.3776  161.3687 C   0  0  0  0  0  0  0  0  0  0  0  0
  153.1654  143.0191  162.7258 C   0  0  0  0  0  0  0  0  0  0  0  0
  154.1738  141.4611  160.8658 C   0  0  0  0  0  0  0  0  0  0  0  0
  153.9248  141.0819  159.6228 N   0  0  0  0  0  0  0  0  0  0  0  0
  150.6865  140.0955  155.7288 C   0  0  0  0  0  0  0  0  0  0  0  0
  150.3109  139.0276  156.4374 N   0  0  0  0  0  0  0  0  0  0  0  0
  151.6795  140.0822  155.0036 O   0  0  0  0  0  0  0  0  0  0  0  0
  147.5851  141.0718  153.1283 H   0  0  0  0  0  0  0  0  0  0  0  0
  147.2796  140.6322  154.8049 H   0  0  0  0  0  0  0  0  0  0  0  0
  148.4619  139.7334  153.8522 H   0  0  0  0  0  0  0  0  0  0  0  0
  149.9068  141.7919  153.7139 H   0  0  0  0  0  0  0  0  0  0  0  0
  148.6975  142.6995  154.5753 H   0  0  0  0  0  0  0  0  0  0  0  0
  149.0291  141.1884  156.5789 H   0  0  0  0  0  0  0  0  0  0  0  0
  151.4522  142.5781  155.7297 H   0  0  0  0  0  0  0  0  0  0  0  0
  151.2534  143.5007  158.0642 H   0  0  0  0  0  0  0  0  0  0  0  0
  150.1702  142.1473  158.3277 H   0  0  0  0  0  0  0  0  0  0  0  0
  151.9035  140.5228  157.8723 H   0  0  0  0  0  0  0  0  0  0  0  0
  152.9898  141.7259  157.2155 H   0  0  0  0  0  0  0  0  0  0  0  0
  151.4439  143.1260  160.2351 H   0  0  0  0  0  0  0  0  0  0  0  0
  153.6056  142.3776  163.4895 H   0  0  0  0  0  0  0  0  0  0  0  0
  152.1442  143.2361  163.0404 H   0  0  0  0  0  0  0  0  0  0  0  0
  153.7138  143.9611  162.7414 H   0  0  0  0  0  0  0  0  0  0  0  0
  155.0450  141.0632  161.3649 H   0  0  0  0  0  0  0  0  0  0  0  0
  150.8531  138.1764  156.4011 H   0  0  0  0  0  0  0  0  0  0  0  0
  149.4850  139.0773  157.0169 H   0  0  0  0  0  0  0  0  0  0  0  0
  150.0720  143.3500  156.1592 H   0  0  0  0  0  0  0  0  0  0  0  0
  1  2  1  0  0  0  0
  1 16  1  0  0  0  0
  1 17  1  0  0  0  0
  1 18  1  0  0  0  0
  2  3  1  0  0  0  0
  2 19  1  0  0  0  0
  2 20  1  0  0  0  0
  3  4  1  0  0  0  0
  3 13  1  0  0  0  0
  3 21  1  0  0  0  0
  4  5  1  0  0  0  0
  4 22  1  0  0  0  0
  4 34  1  0  0  0  0
  5  6  1  0  0  0  0
  5 23  1  0  0  0  0
  5 24  1  0  0  0  0
  6  7  1  0  0  0  0
  6 25  1  0  0  0  0
  6 26  1  0  0  0  0
  7 12  1  0  0  0  0
  7  8  1  0  0  0  0
  8  9  2  0  0  0  0
  8 27  1  0  0  0  0
  9 10  1  0  0  0  0
  9 11  1  0  0  0  0
 10 28  1  0  0  0  0
 10 29  1  0  0  0  0
 10 30  1  0  0  0  0
 11 12  2  0  0  0  0
 11 31  1  0  0  0  0
 13 14  1  0  0  0  0
 13 15  2  0  0  0  0
 14 32  1  0  0  0  0
 14 33  1  0  0  0  0
M  CHG  1   4   1
M  END
> <s_m_source_file>
AV-unprocessed.smi

> <i_m_source_file_index>
1014

> <i_lp_mmshare_version>
43012

> <i_f3d_flags>
0

> <s_epik_input>
W0NIM11bQ0gyXVtDQEBIXShDKD1PKVtOSDJdKVtOSF1bQ0gyXVtDSDJdbjFbY0hdYyhbQ0gzXSlbY0hdbjE=

> <s_epik_cmdline>
J2VwaWtfcHl0aG9uJywgJy1waCcsICc3LjAnLCAnLXRuJywgJzgnLCAnLW1hJywgJzIwMCcsICctbWV0YWxfYmluZGluZycsICctaW1hZScsICc8aW5maWxlLm1hZT4nLCAnLW9tYWUnLCAnPG91dGZpbGUubWFlPic=

> <r_lp_tautomer_probability>
1

> <r_epik_Ionization_Penalty>
0.19042

> <r_epik_Ionization_Penalty_Charging>
0.190412

> <r_epik_Ionization_Penalty_Neutral>
7.5834e-06

> <r_epik_State_Penalty>
0.180404

> <r_epik_Charging_Adjusted_Penalty>
0.370816

> <i_epik_Tot_Q>
1

> <i_epik_Tot_abs_Q>
1

> <r_epik_Metal_State_Penalty>
0.180563

> <b_epik_Metal_Only>
0

> <s_lp_Force_Field>
OPLS_2005

> <r_lp_Energy>
2.67467

> <b_lp_Chiralities_Consistent>
1

> <s_lp_Variant>
AV-unprocessed.smi:1014-1

> <Gold.Version>
5.8.1

> <Gold.Id.Protein>
6NUR|6NUR_protein|mol2

> <Gold.PLP.Fitness>
43.7660

> <Gold.PLP.PLP>
-35.2743

> <Gold.PLP.part.hbond>
-2.0000

> <Gold.PLP.part.metal>
0.0000

> <Gold.PLP.part.buried>
-3.3758

> <Gold.PLP.part.nonpolar>
-29.0208

> <Gold.PLP.part.repulsive>
0.1490

> <Gold.PLP.ligand.clash>
0.0000

> <Gold.PLP.ligand.torsion>
0.3445

> <Gold.PLP.Chemscore.Hbond>
2.9920

> <Gold.PLP.Chemscore.CHOScore>
0.0000

> <Gold.PLP.Chemscore.Metal>
0.0000

> <Gold.Chemscore.Hbonds>
donor molecule, donor type, donor heavy atom, donor atom, acceptor molecule, acceptor atom, score
      L1  H     4    34       P1  8028  2.00
      P1  H  7989  7998       L1    15  0.99

> <Gold.PLP.Chemscore.Internal.Correction>
0.2048

> <Gold.Rescore>
     Score         DG    S(hbond)    S(metal)    S(lipo)     H(rot)  DE(clash)    DE(int)     intcor
     14.31     -14.70       1.97        0.00      79.09       2.59       0.01       0.38       ----

> <Gold.Chemscore.Fitness>
14.3056

> <Gold.Chemscore.DG>
-14.7015

> <Gold.Chemscore.ZeroCoef>
-5.4800

> <Gold.Chemscore.Hbond>
1.9737

> <Gold.Chemscore.Metal>
0.0000

> <Gold.Chemscore.Lipo>
79.0931

> <Gold.Chemscore.Internal_Hbond>
0.0000

> <Gold.Chemscore.DEClash>
0.0115

> <Gold.Chemscore.DEInternal>
0.3844

> <Gold.Chemscore.Rot>
2.5878

> <Gold.Chemscore.Internal.Correction>
   9.000000E+99

> <Gold.Chemscore.Hbonds>
donor molecule, donor type, donor heavy atom, donor atom, acceptor molecule, acceptor atom, score
      L1  H     4    34       P1  8028  1.00
      P1  H  7989  7998       L1    15  0.93

> <Gold.Chemscore.Hbond.Weighted>
-6.5923

> <Gold.Chemscore.Metal.Weighted>
-0.0000

> <Gold.Chemscore.Lipo.Weighted>
-9.2539

> <Gold.Chemscore.Internal_Hbond.Weighted>
0.0000

> <Gold.Chemscore.DEClash.Weighted>
0.0115

> <Gold.Chemscore.DEInternal.Weighted>
0.3844

> <Gold.Chemscore.Rot.Weighted>
6.6247

> <Gold.Chemscore.Internal.Correction.Weighted>
   9.000000E+99

> <Gold.Protein.RotatedTorsions>
[ 6907 6896 6895 6894 ] final  153.63 input  -60.11 | X-H torsion
[ 7974 7965 7964 7962 ] final   37.03 input  175.53 | X-H torsion
[ 8008 7997 7996 7995 ] final -164.75 input   59.86 | X-H torsion
[ 10167 10162 10161 10158 ] final  114.67 input  -65.29 | X-H torsion
[ 10718 10713 10712 10709 ] final  107.50 input   66.30 | X-H torsion
[ 10763 10752 10751 10750 ] final   90.62 input  -60.55 | X-H torsion
[ 11005 11000 10999 10996 ] final  -11.76 input  -57.11 | X-H torsion

> <Gold.Protein.ActiveResidues>
 VAL166  LYS551  ARG553  GLY616  TRP617  ASP618  TYR619  PRO620  LYS621  CYS622 
 ASP623  PHE694  ASN695  SER759  ASP760  ASP761  ALA762  ILE779  LEU786  VAL792 
 PHE793  MET794  SER795  GLU796  ALA797  LYS798  CYS799  TRP800  GLU811  SER814 

> <Gold.Protein.RotatedAtoms>
  152.0700  133.4102  159.4454 H   0  0  0  0  0  0  0  0  0  0  0  0  # atno 6907 bound_to 6896
  150.6864  134.3103  159.4752 H   0  0  0  0  0  0  0  0  0  0  0  0  # atno 6908 bound_to 6896
  152.0933  134.9391  160.0622 H   0  0  0  0  0  0  0  0  0  0  0  0  # atno 6909 bound_to 6896
  146.1168  139.5944  142.9316 H   0  0  0  0  0  0  0  0  0  0  0  0  # atno 7974 bound_to 7965
  155.8401  140.0947  157.1740 H   0  0  0  0  0  0  0  0  0  0  0  0  # atno 8008 bound_to 7997
  154.3981  140.1403  156.3779 H   0  0  0  0  0  0  0  0  0  0  0  0  # atno 8009 bound_to 7997
  155.8074  140.3451  155.5440 H   0  0  0  0  0  0  0  0  0  0  0  0  # atno 8010 bound_to 7997
  139.6372  144.7121  151.2310 H   0  0  0  0  0  0  0  0  0  0  0  0  # atno 10167 bound_to 10162
  157.6626  131.0874  150.6166 H   0  0  0  0  0  0  0  0  0  0  0  0  # atno 10718 bound_to 10713
  153.1995  135.4427  155.0249 H   0  0  0  0  0  0  0  0  0  0  0  0  # atno 10763 bound_to 10752
  154.8138  135.3306  154.7234 H   0  0  0  0  0  0  0  0  0  0  0  0  # atno 10764 bound_to 10752
  153.7680  135.6986  153.4967 H   0  0  0  0  0  0  0  0  0  0  0  0  # atno 10765 bound_to 10752
  140.7586  133.8533  155.9105 H   0  0  0  0  0  0  0  0  0  0  0  0  # atno 11005 bound_to 11000
  145.5551  141.0410  143.2257 LP  0  0  0  0  0  0  0  0  0  0  0  0  # atno 17320 bound_to 7965
  144.7560  139.7074  143.7254 LP  0  0  0  0  0  0  0  0  0  0  0  0  # atno 17321 bound_to 7965
  140.7472  143.6375  150.8365 LP  0  0  0  0  0  0  0  0  0  0  0  0  # atno 17342 bound_to 10162
  140.0008  143.5746  152.2876 LP  0  0  0  0  0  0  0  0  0  0  0  0  # atno 17343 bound_to 10162
  156.6468  130.4474  149.5733 LP  0  0  0  0  0  0  0  0  0  0  0  0  # atno 17370 bound_to 10713
  156.2168  130.6712  151.1327 LP  0  0  0  0  0  0  0  0  0  0  0  0  # atno 17371 bound_to 10713
  140.9684  134.1563  157.4597 LP  0  0  0  0  0  0  0  0  0  0  0  0  # atno 17394 bound_to 11000
  139.8775  134.9970  156.5823 LP  0  0  0  0  0  0  0  0  0  0  0  0  # atno 17395 bound_to 11000

$$$$
