AV-unprocessed.smi:1247|AV-procd|sdf|5244|dock9
  -GOLD-   22720 4353D 1   1.00000     0.00000
 Structure written by MMmdl.
 46 47  0  0  0  0  0  0  0  0  1 V2000
  144.0993  132.0563  150.8007 C   0  0  0  0  0  0  0  0  0  0  0  0
  144.0695  133.4967  151.2193 C   0  0  0  0  0  0  0  0  0  0  0  0
  144.9043  134.5597  150.7668 C   0  0  0  0  0  0  0  0  0  0  0  0
  144.4350  135.6328  151.4742 C   0  0  0  0  0  0  0  0  0  0  0  0
  144.8529  136.9262  151.4434 N   0  0  0  0  0  0  0  0  0  0  0  0
  145.7959  137.5222  152.1938 C   0  0  0  0  0  0  0  0  0  0  0  0
  146.4471  136.9791  153.0867 O   0  0  0  0  0  0  0  0  0  0  0  0
  145.9431  138.8101  151.8522 N   0  0  0  0  0  0  0  0  0  0  0  0
  146.8802  139.7382  152.4732 C   0  0  0  0  0  0  0  0  0  0  0  0
  146.8972  139.5739  154.0043 C   0  0  0  0  0  0  0  0  0  0  0  0
  148.2272  139.4347  154.5947 N   0  0  0  0  0  0  0  0  0  0  0  0
  149.1964  138.8533  153.6682 C   0  0  0  0  0  0  0  0  0  0  0  0
  150.6088  138.7375  154.2767 C   0  0  2  0  0  0  0  0  0  0  0  0
  150.7350  137.6068  155.3122 C   0  0  0  0  0  0  0  0  0  0  0  0
  151.0244  139.9950  154.8122 O   0  0  0  0  0  0  0  0  0  0  0  0
  150.1098  140.5984  155.7254 C   0  0  1  0  0  0  0  0  0  0  0  0
  150.6758  141.9621  156.1348 C   0  0  0  0  0  0  0  0  0  0  0  0
  148.7285  140.7225  155.0576 C   0  0  0  0  0  0  0  0  0  0  0  0
  143.3966  135.2168  152.2773 N   0  0  0  0  0  0  0  0  0  0  0  0
  142.5826  135.9831  153.2007 C   0  0  0  0  0  0  0  0  0  0  0  0
  143.1760  133.8940  152.1186 N   0  0  0  0  0  0  0  0  0  0  0  0
  144.8330  131.8904  150.0116 H   0  0  0  0  0  0  0  0  0  0  0  0
  143.1282  131.7365  150.4218 H   0  0  0  0  0  0  0  0  0  0  0  0
  144.3613  131.4098  151.6385 H   0  0  0  0  0  0  0  0  0  0  0  0
  145.7041  134.5196  150.0431 H   0  0  0  0  0  0  0  0  0  0  0  0
  144.3883  137.5121  150.7654 H   0  0  0  0  0  0  0  0  0  0  0  0
  145.3668  139.1758  151.1085 H   0  0  0  0  0  0  0  0  0  0  0  0
  147.8812  139.5963  152.0617 H   0  0  0  0  0  0  0  0  0  0  0  0
  146.5687  140.7444  152.1948 H   0  0  0  0  0  0  0  0  0  0  0  0
  146.3740  140.4116  154.4678 H   0  0  0  0  0  0  0  0  0  0  0  0
  146.3147  138.6850  154.2509 H   0  0  0  0  0  0  0  0  0  0  0  0
  148.8724  137.8646  153.3448 H   0  0  0  0  0  0  0  0  0  0  0  0
  149.2505  139.4690  152.7690 H   0  0  0  0  0  0  0  0  0  0  0  0
  151.3028  138.5057  153.4683 H   0  0  0  0  0  0  0  0  0  0  0  0
  150.5234  136.6394  154.8566 H   0  0  0  0  0  0  0  0  0  0  0  0
  150.0419  137.7324  156.1437 H   0  0  0  0  0  0  0  0  0  0  0  0
  151.7444  137.5654  155.7216 H   0  0  0  0  0  0  0  0  0  0  0  0
  150.0280  139.9792  156.6191 H   0  0  0  0  0  0  0  0  0  0  0  0
  150.0168  142.4629  156.8445 H   0  0  0  0  0  0  0  0  0  0  0  0
  150.7963  142.6152  155.2700 H   0  0  0  0  0  0  0  0  0  0  0  0
  151.6517  141.8527  156.6083 H   0  0  0  0  0  0  0  0  0  0  0  0
  148.7900  141.4172  154.2183 H   0  0  0  0  0  0  0  0  0  0  0  0
  148.0253  141.1569  155.7693 H   0  0  0  0  0  0  0  0  0  0  0  0
  142.1003  136.8039  152.6695 H   0  0  0  0  0  0  0  0  0  0  0  0
  143.2125  136.3905  153.9920 H   0  0  0  0  0  0  0  0  0  0  0  0
  141.8134  135.3531  153.6497 H   0  0  0  0  0  0  0  0  0  0  0  0
  1  2  1  0  0  0  0
  1 22  1  0  0  0  0
  1 23  1  0  0  0  0
  1 24  1  0  0  0  0
  2 21  2  0  0  0  0
  2  3  1  0  0  0  0
  3  4  2  0  0  0  0
  3 25  1  0  0  0  0
  4  5  1  0  0  0  0
  4 19  1  0  0  0  0
  5  6  1  0  0  0  0
  5 26  1  0  0  0  0
  6  7  2  0  0  0  0
  6  8  1  0  0  0  0
  8  9  1  0  0  0  0
  8 27  1  0  0  0  0
  9 10  1  0  0  0  0
  9 28  1  0  0  0  0
  9 29  1  0  0  0  0
 10 11  1  0  0  0  0
 10 30  1  0  0  0  0
 10 31  1  0  0  0  0
 11 18  1  0  0  0  0
 11 12  1  0  0  0  0
 12 13  1  0  0  0  0
 12 32  1  0  0  0  0
 12 33  1  0  0  0  0
 13 14  1  0  0  0  0
 13 15  1  0  0  0  0
 13 34  1  0  0  0  0
 14 35  1  0  0  0  0
 14 36  1  0  0  0  0
 14 37  1  0  0  0  0
 15 16  1  0  0  0  0
 16 17  1  0  0  0  0
 16 18  1  0  0  0  0
 16 38  1  0  0  0  0
 17 39  1  0  0  0  0
 17 40  1  0  0  0  0
 17 41  1  0  0  0  0
 18 42  1  0  0  0  0
 18 43  1  0  0  0  0
 19 20  1  0  0  0  0
 19 21  1  0  0  0  0
 20 44  1  0  0  0  0
 20 45  1  0  0  0  0
 20 46  1  0  0  0  0
M  END
> <s_m_source_file>
AV-unprocessed.smi

> <i_m_source_file_index>
1247

> <i_lp_mmshare_version>
43012

> <i_f3d_flags>
0

> <s_epik_input>
W0NIM11jMVtjSF1jKG4objEpW0NIM10pW05IXUMoPU8pW05IXVtDSDJdW0NIMl1OMltDSDJdW0NAQEhdKFtDSDNdKU9bQ0BASF0oW0NIM10pW0NIMl0y

> <s_epik_cmdline>
J2VwaWtfcHl0aG9uJywgJy1waCcsICc3LjAnLCAnLXRuJywgJzgnLCAnLW1hJywgJzIwMCcsICctbWV0YWxfYmluZGluZycsICctaW1hZScsICc8aW5maWxlLm1hZT4nLCAnLW9tYWUnLCAnPG91dGZpbGUubWFlPic=

> <r_lp_tautomer_probability>
1

> <r_epik_Ionization_Penalty>
0.233972

> <r_epik_Ionization_Penalty_Charging>
0

> <r_epik_Ionization_Penalty_Neutral>
0.233972

> <r_epik_State_Penalty>
0.224627

> <r_epik_Charging_Adjusted_Penalty>
0.224627

> <i_epik_Tot_Q>
0

> <i_epik_Tot_abs_Q>
0

> <r_epik_Metal_State_Penalty>
0.224624

> <b_epik_Metal_Only>
0

> <s_lp_Force_Field>
OPLS_2005

> <r_lp_Energy>
23.1298

> <b_lp_Chiralities_Consistent>
1

> <s_lp_Variant>
AV-unprocessed.smi:1247-2

> <Gold.Version>
5.8.1

> <Gold.Id.Protein>
6NUR|6NUR_protein|mol2

> <Gold.PLP.Fitness>
40.0489

> <Gold.PLP.PLP>
-34.8471

> <Gold.PLP.part.hbond>
-4.0000

> <Gold.PLP.part.metal>
0.0000

> <Gold.PLP.part.buried>
-3.0826

> <Gold.PLP.part.nonpolar>
-30.4807

> <Gold.PLP.part.repulsive>
2.0414

> <Gold.PLP.ligand.clash>
0.0000

> <Gold.PLP.ligand.torsion>
1.6670

> <Gold.PLP.Chemscore.Hbond>
2.8268

> <Gold.PLP.Chemscore.CHOScore>
0.0000

> <Gold.PLP.Chemscore.Metal>
0.0000

> <Gold.Chemscore.Hbonds>
donor molecule, donor type, donor heavy atom, donor atom, acceptor molecule, acceptor atom, score
      L1  H     5    26       P1 10171  0.99
      L1  H     8    27       P1 10171  0.83
      P1  H  7989  7998       L1    15  1.00

> <Gold.PLP.Chemscore.Internal.Correction>
0.0554

> <Gold.Rescore>
     Score         DG    S(hbond)    S(metal)    S(lipo)     H(rot)  DE(clash)    DE(int)     intcor
     14.52     -20.55       2.77        0.00      82.16       1.48       3.07       2.97       ----

> <Gold.Chemscore.Fitness>
14.5162

> <Gold.Chemscore.DG>
-20.5523

> <Gold.Chemscore.ZeroCoef>
-5.4800

> <Gold.Chemscore.Hbond>
2.7720

> <Gold.Chemscore.Metal>
0.0000

> <Gold.Chemscore.Lipo>
82.1551

> <Gold.Chemscore.Internal_Hbond>
0.0000

> <Gold.Chemscore.DEClash>
3.0665

> <Gold.Chemscore.DEInternal>
2.9695

> <Gold.Chemscore.Rot>
1.4838

> <Gold.Chemscore.Internal.Correction>
   9.000000E+99

> <Gold.Chemscore.Hbonds>
donor molecule, donor type, donor heavy atom, donor atom, acceptor molecule, acceptor atom, score
      L1  H     5    26       P1 10171  0.92
      L1  H     8    27       P1 10171  0.76
      P1  H  7989  7998       L1    15  0.54

> <Gold.Chemscore.Hbond.Weighted>
-9.2586

> <Gold.Chemscore.Metal.Weighted>
-0.0000

> <Gold.Chemscore.Lipo.Weighted>
-9.6121

> <Gold.Chemscore.Internal_Hbond.Weighted>
0.0000

> <Gold.Chemscore.DEClash.Weighted>
3.0665

> <Gold.Chemscore.DEInternal.Weighted>
2.9695

> <Gold.Chemscore.Rot.Weighted>
3.7985

> <Gold.Chemscore.Internal.Correction.Weighted>
   9.000000E+99

> <Gold.Protein.RotatedTorsions>
[ 6907 6896 6895 6894 ] final  -76.48 input  -60.11 | X-H torsion
[ 7974 7965 7964 7962 ] final -141.38 input  175.53 | X-H torsion
[ 8008 7997 7996 7995 ] final  -26.21 input   59.86 | X-H torsion
[ 10167 10162 10161 10158 ] final   22.67 input  -65.29 | X-H torsion
[ 10718 10713 10712 10709 ] final  -86.67 input   66.30 | X-H torsion
[ 10763 10752 10751 10750 ] final  -33.43 input  -60.55 | X-H torsion
[ 11005 11000 10999 10996 ] final  128.78 input  -57.11 | X-H torsion

> <Gold.Protein.ActiveResidues>
 VAL166  LYS551  ARG553  GLY616  TRP617  ASP618  TYR619  PRO620  LYS621  CYS622 
 ASP623  PHE694  ASN695  SER759  ASP760  ASP761  ALA762  ILE779  LEU786  VAL792 
 PHE793  MET794  SER795  GLU796  ALA797  LYS798  CYS799  TRP800  GLU811  SER814 

> <Gold.Protein.RotatedAtoms>
  150.7026  134.4566  159.5360 H   0  0  0  0  0  0  0  0  0  0  0  0  # atno 6907 bound_to 6896
  152.2249  134.8375  160.0490 H   0  0  0  0  0  0  0  0  0  0  0  0  # atno 6908 bound_to 6896
  151.9212  133.3551  159.3934 H   0  0  0  0  0  0  0  0  0  0  0  0  # atno 6909 bound_to 6896
  144.8523  140.6086  143.5382 H   0  0  0  0  0  0  0  0  0  0  0  0  # atno 7974 bound_to 7965
  154.4436  140.1905  156.0740 H   0  0  0  0  0  0  0  0  0  0  0  0  # atno 8008 bound_to 7997
  156.0490  140.3311  155.7302 H   0  0  0  0  0  0  0  0  0  0  0  0  # atno 8009 bound_to 7997
  155.5586  140.0601  157.2824 H   0  0  0  0  0  0  0  0  0  0  0  0  # atno 8010 bound_to 7997
  140.5330  143.9808  150.6476 H   0  0  0  0  0  0  0  0  0  0  0  0  # atno 10167 bound_to 10162
  155.9988  130.4773  150.4750 H   0  0  0  0  0  0  0  0  0  0  0  0  # atno 10718 bound_to 10713
  153.8300  135.6867  153.4815 H   0  0  0  0  0  0  0  0  0  0  0  0  # atno 10763 bound_to 10752
  153.1516  135.4615  154.9643 H   0  0  0  0  0  0  0  0  0  0  0  0  # atno 10764 bound_to 10752
  154.7890  135.3295  154.7764 H   0  0  0  0  0  0  0  0  0  0  0  0  # atno 10765 bound_to 10752
  139.9579  134.9609  156.9052 H   0  0  0  0  0  0  0  0  0  0  0  0  # atno 11005 bound_to 11000
  145.4474  139.1528  143.3937 LP  0  0  0  0  0  0  0  0  0  0  0  0  # atno 17320 bound_to 7965
  146.2795  140.4599  142.8782 LP  0  0  0  0  0  0  0  0  0  0  0  0  # atno 17321 bound_to 7965
  140.3188  143.3150  152.0805 LP  0  0  0  0  0  0  0  0  0  0  0  0  # atno 17342 bound_to 10162
  139.4961  144.6587  151.6513 LP  0  0  0  0  0  0  0  0  0  0  0  0  # atno 17343 bound_to 10162
  157.2761  131.0597  151.2228 LP  0  0  0  0  0  0  0  0  0  0  0  0  # atno 17370 bound_to 10713
  157.3291  130.6976  149.6314 LP  0  0  0  0  0  0  0  0  0  0  0  0  # atno 17371 bound_to 10713
  140.5566  134.0575  155.7385 LP  0  0  0  0  0  0  0  0  0  0  0  0  # atno 17394 bound_to 11000
  141.1253  133.9393  157.2647 LP  0  0  0  0  0  0  0  0  0  0  0  0  # atno 17395 bound_to 11000

$$$$
