AV-unprocessed.smi:2878|AV-procd|sdf|11045|dock3
  -GOLD-   2272015513D 1   1.00000     0.00000
 Structure written by MMmdl.
 42 43  0  0  0  0  0  0  0  0  1 V2000
  154.0252  141.7146  161.7390 C   0  0  0  0  0  0  0  0  0  0  0  0
  152.8341  141.0777  160.5286 S   0  0  0  0  0  0  0  0  0  0  0  0
  152.6761  142.5021  159.4038 C   0  0  2  0  0  0  0  0  0  0  0  0
  152.3730  143.7703  160.2239 C   0  0  0  0  0  0  0  0  0  0  0  0
  152.1928  145.0034  159.3272 C   0  0  0  0  0  0  0  0  0  0  0  0
  151.0890  144.7665  158.2882 C   0  0  0  0  0  0  0  0  0  0  0  0
  151.3857  143.5173  157.4465 C   0  0  0  0  0  0  0  0  0  0  0  0
  151.5896  142.2658  158.3250 C   0  0  1  0  0  0  0  0  0  0  0  0
  151.9574  141.1414  157.4671 N   0  0  0  0  0  0  0  0  0  0  0  0
  151.1860  140.0791  157.1982 C   0  0  0  0  0  0  0  0  0  0  0  0
  150.0414  139.9266  157.6247 O   0  0  0  0  0  0  0  0  0  0  0  0
  151.8177  139.1947  156.4138 N   0  0  0  0  0  0  0  0  0  0  0  0
  151.2544  137.9260  155.9667 C   0  0  0  0  0  0  0  0  0  0  0  0
  150.6660  138.0363  154.5509 C   0  0  0  0  0  0  0  0  0  0  0  0
  149.8455  139.2692  154.3708 C   0  0  0  0  0  0  0  0  0  0  0  0
  148.5521  139.3368  154.0636 N   0  0  0  0  0  0  0  0  0  0  0  0
  148.3756  140.6839  153.9757 C   0  0  0  0  0  0  0  0  0  0  0  0
  147.0615  141.3073  153.6490 C   0  0  0  0  0  0  0  0  0  0  0  0
  149.4557  141.4261  154.1867 N   0  0  0  0  0  0  0  0  0  0  0  0
  150.4553  140.4767  154.4432 O   0  0  0  0  0  0  0  0  0  0  0  0
  154.2094  140.9656  162.5090 H   0  0  0  0  0  0  0  0  0  0  0  0
  153.6373  142.6127  162.2194 H   0  0  0  0  0  0  0  0  0  0  0  0
  154.9756  141.9557  161.2642 H   0  0  0  0  0  0  0  0  0  0  0  0
  153.6396  142.6500  158.9140 H   0  0  0  0  0  0  0  0  0  0  0  0
  151.4681  143.6185  160.8143 H   0  0  0  0  0  0  0  0  0  0  0  0
  153.1779  143.9530  160.9368 H   0  0  0  0  0  0  0  0  0  0  0  0
  151.9491  145.8739  159.9368 H   0  0  0  0  0  0  0  0  0  0  0  0
  153.1323  145.2316  158.8220 H   0  0  0  0  0  0  0  0  0  0  0  0
  150.1288  144.6491  158.7918 H   0  0  0  0  0  0  0  0  0  0  0  0
  150.9946  145.6381  157.6399 H   0  0  0  0  0  0  0  0  0  0  0  0
  150.5691  143.3493  156.7431 H   0  0  0  0  0  0  0  0  0  0  0  0
  152.2782  143.6959  156.8447 H   0  0  0  0  0  0  0  0  0  0  0  0
  150.6502  142.0534  158.8392 H   0  0  0  0  0  0  0  0  0  0  0  0
  152.8821  141.1671  157.0633 H   0  0  0  0  0  0  0  0  0  0  0  0
  152.7569  139.4091  156.1124 H   0  0  0  0  0  0  0  0  0  0  0  0
  152.0155  137.1446  156.0047 H   0  0  0  0  0  0  0  0  0  0  0  0
  150.4742  137.6340  156.6702 H   0  0  0  0  0  0  0  0  0  0  0  0
  151.4668  138.0392  153.8104 H   0  0  0  0  0  0  0  0  0  0  0  0
  150.0395  137.1714  154.3300 H   0  0  0  0  0  0  0  0  0  0  0  0
  146.9904  142.3070  154.0790 H   0  0  0  0  0  0  0  0  0  0  0  0
  146.2439  140.7049  154.0458 H   0  0  0  0  0  0  0  0  0  0  0  0
  146.9424  141.3853  152.5681 H   0  0  0  0  0  0  0  0  0  0  0  0
  1  2  1  0  0  0  0
  1 21  1  0  0  0  0
  1 22  1  0  0  0  0
  1 23  1  0  0  0  0
  2  3  1  0  0  0  0
  3  8  1  0  0  0  0
  3  4  1  0  0  0  0
  3 24  1  0  0  0  0
  4  5  1  0  0  0  0
  4 25  1  0  0  0  0
  4 26  1  0  0  0  0
  5  6  1  0  0  0  0
  5 27  1  0  0  0  0
  5 28  1  0  0  0  0
  6  7  1  0  0  0  0
  6 29  1  0  0  0  0
  6 30  1  0  0  0  0
  7  8  1  0  0  0  0
  7 31  1  0  0  0  0
  7 32  1  0  0  0  0
  8  9  1  0  0  0  0
  8 33  1  0  0  0  0
  9 10  1  0  0  0  0
  9 34  1  0  0  0  0
 10 11  2  0  0  0  0
 10 12  1  0  0  0  0
 12 13  1  0  0  0  0
 12 35  1  0  0  0  0
 13 14  1  0  0  0  0
 13 36  1  0  0  0  0
 13 37  1  0  0  0  0
 14 15  1  0  0  0  0
 14 38  1  0  0  0  0
 14 39  1  0  0  0  0
 15 20  1  0  0  0  0
 15 16  2  0  0  0  0
 16 17  1  0  0  0  0
 17 18  1  0  0  0  0
 17 19  2  0  0  0  0
 18 40  1  0  0  0  0
 18 41  1  0  0  0  0
 18 42  1  0  0  0  0
 19 20  1  0  0  0  0
M  END
> <s_m_source_file>
AV-unprocessed.smi

> <i_m_source_file_index>
2878

> <i_lp_mmshare_version>
43012

> <i_f3d_flags>
0

> <s_epik_input>
W0NIM11TW0NAQEhdMVtDSDJdW0NIMl1bQ0gyXVtDSDJdW0NASF0xW05IXUMoPU8pW05IXVtDSDJdW0NIMl1jMm5jKFtDSDNdKW5vMg==

> <s_epik_cmdline>
J2VwaWtfcHl0aG9uJywgJy1waCcsICc3LjAnLCAnLXRuJywgJzgnLCAnLW1hJywgJzIwMCcsICctbWV0YWxfYmluZGluZycsICctaW1hZScsICc8aW5maWxlLm1hZT4nLCAnLW9tYWUnLCAnPG91dGZpbGUubWFlPic=

> <r_lp_tautomer_probability>
1

> <r_epik_Ionization_Penalty>
4.9299e-05

> <r_epik_Ionization_Penalty_Charging>
0

> <r_epik_Ionization_Penalty_Neutral>
4.9299e-05

> <r_epik_State_Penalty>
-0

> <r_epik_Charging_Adjusted_Penalty>
0

> <i_epik_Tot_Q>
0

> <i_epik_Tot_abs_Q>
0

> <r_epik_Metal_State_Penalty>
-0

> <b_epik_Metal_Only>
0

> <s_lp_Force_Field>
OPLS_2005

> <r_lp_Energy>
1.6378

> <b_lp_Chiralities_Consistent>
1

> <s_lp_Variant>
AV-unprocessed.smi:2878-1

> <Gold.Version>
5.8.1

> <Gold.Id.Protein>
6NUR|6NUR_protein|mol2

> <Gold.PLP.Fitness>
44.8856

> <Gold.PLP.PLP>
-40.9004

> <Gold.PLP.part.hbond>
-2.7599

> <Gold.PLP.part.metal>
0.0000

> <Gold.PLP.part.buried>
-1.8287

> <Gold.PLP.part.nonpolar>
-35.8910

> <Gold.PLP.part.repulsive>
0.6706

> <Gold.PLP.ligand.clash>
0.0000

> <Gold.PLP.ligand.torsion>
0.3290

> <Gold.PLP.Chemscore.Hbond>
1.5330

> <Gold.PLP.Chemscore.CHOScore>
0.0000

> <Gold.PLP.Chemscore.Metal>
0.0000

> <Gold.Chemscore.Hbonds>
donor molecule, donor type, donor heavy atom, donor atom, acceptor molecule, acceptor atom, score
      P1  H  7989  7998       L1    20  0.99
      P1  H  8011  8017       L1    19  0.50

> <Gold.PLP.Chemscore.Internal.Correction>
0.0442

> <Gold.Rescore>
     Score         DG    S(hbond)    S(metal)    S(lipo)     H(rot)  DE(clash)    DE(int)     intcor
     14.05     -15.95       1.03        0.00     105.76       2.09       0.18       1.71       ----

> <Gold.Chemscore.Fitness>
14.0486

> <Gold.Chemscore.DG>
-15.9466

> <Gold.Chemscore.ZeroCoef>
-5.4800

> <Gold.Chemscore.Hbond>
1.0326

> <Gold.Chemscore.Metal>
0.0000

> <Gold.Chemscore.Lipo>
105.7589

> <Gold.Chemscore.Internal_Hbond>
0.0000

> <Gold.Chemscore.DEClash>
0.1834

> <Gold.Chemscore.DEInternal>
1.7146

> <Gold.Chemscore.Rot>
2.0923

> <Gold.Chemscore.Internal.Correction>
   9.000000E+99

> <Gold.Chemscore.Hbonds>
donor molecule, donor type, donor heavy atom, donor atom, acceptor molecule, acceptor atom, score
      P1  H  7989  7998       L1    20  0.40
      P1  H  8011  8017       L1    19  0.19

> <Gold.Chemscore.Hbond.Weighted>
-3.4490

> <Gold.Chemscore.Metal.Weighted>
-0.0000

> <Gold.Chemscore.Lipo.Weighted>
-12.3738

> <Gold.Chemscore.Internal_Hbond.Weighted>
0.0000

> <Gold.Chemscore.DEClash.Weighted>
0.1834

> <Gold.Chemscore.DEInternal.Weighted>
1.7146

> <Gold.Chemscore.Rot.Weighted>
5.3562

> <Gold.Chemscore.Internal.Correction.Weighted>
   9.000000E+99

> <Gold.Protein.RotatedTorsions>
[ 6907 6896 6895 6894 ] final  138.51 input  -60.11 | X-H torsion
[ 7974 7965 7964 7962 ] final  -82.08 input  175.53 | X-H torsion
[ 8008 7997 7996 7995 ] final -110.68 input   59.86 | X-H torsion
[ 10167 10162 10161 10158 ] final  139.18 input  -65.29 | X-H torsion
[ 10718 10713 10712 10709 ] final   41.81 input   66.30 | X-H torsion
[ 10763 10752 10751 10750 ] final -151.95 input  -60.55 | X-H torsion
[ 11005 11000 10999 10996 ] final   55.61 input  -57.11 | X-H torsion

> <Gold.Protein.ActiveResidues>
 VAL166  LYS551  ARG553  GLY616  TRP617  ASP618  TYR619  PRO620  LYS621  CYS622 
 ASP623  PHE694  ASN695  SER759  ASP760  ASP761  ALA762  ILE779  LEU786  VAL792 
 PHE793  MET794  SER795  GLU796  ALA797  LYS798  CYS799  TRP800  GLU811  SER814 

> <Gold.Protein.RotatedAtoms>
  152.2658  133.5337  159.5408 H   0  0  0  0  0  0  0  0  0  0  0  0  # atno 6907 bound_to 6896
  150.7141  134.0767  159.3892 H   0  0  0  0  0  0  0  0  0  0  0  0  # atno 6908 bound_to 6896
  151.8683  135.0499  160.0527 H   0  0  0  0  0  0  0  0  0  0  0  0  # atno 6909 bound_to 6896
  145.5381  140.9513  143.1566 H   0  0  0  0  0  0  0  0  0  0  0  0  # atno 7974 bound_to 7965
  154.9782  140.0396  157.2266 H   0  0  0  0  0  0  0  0  0  0  0  0  # atno 8008 bound_to 7997
  154.7738  140.2806  155.6094 H   0  0  0  0  0  0  0  0  0  0  0  0  # atno 8009 bound_to 7997
  156.2925  140.2605  156.2547 H   0  0  0  0  0  0  0  0  0  0  0  0  # atno 8010 bound_to 7997
  139.5087  144.6310  151.5818 H   0  0  0  0  0  0  0  0  0  0  0  0  # atno 10167 bound_to 10162
  157.3977  130.7842  149.7322 H   0  0  0  0  0  0  0  0  0  0  0  0  # atno 10718 bound_to 10713
  154.8025  135.3248  154.7513 H   0  0  0  0  0  0  0  0  0  0  0  0  # atno 10763 bound_to 10752
  153.8178  135.6890  153.4836 H   0  0  0  0  0  0  0  0  0  0  0  0  # atno 10764 bound_to 10752
  153.1751  135.4608  154.9898 H   0  0  0  0  0  0  0  0  0  0  0  0  # atno 10765 bound_to 10752
  140.0593  134.5625  155.9170 H   0  0  0  0  0  0  0  0  0  0  0  0  # atno 11005 bound_to 11000
  144.7591  139.7000  143.7242 LP  0  0  0  0  0  0  0  0  0  0  0  0  # atno 17320 bound_to 7965
  146.2000  139.5288  142.9750 LP  0  0  0  0  0  0  0  0  0  0  0  0  # atno 17321 bound_to 7965
  140.6042  143.9554  150.6407 LP  0  0  0  0  0  0  0  0  0  0  0  0  # atno 17342 bound_to 10162
  140.2776  143.3412  152.1181 LP  0  0  0  0  0  0  0  0  0  0  0  0  # atno 17343 bound_to 10162
  155.9815  130.4019  150.3469 LP  0  0  0  0  0  0  0  0  0  0  0  0  # atno 17370 bound_to 10713
  157.1593  131.0341  151.2848 LP  0  0  0  0  0  0  0  0  0  0  0  0  # atno 17371 bound_to 10713
  141.1966  133.6592  156.5700 LP  0  0  0  0  0  0  0  0  0  0  0  0  # atno 17394 bound_to 11000
  140.3794  134.7536  157.4651 LP  0  0  0  0  0  0  0  0  0  0  0  0  # atno 17395 bound_to 11000

$$$$
