AV-unprocessed.smi:2089|AV-procd|sdf|8531|dock5
  -GOLD-   2272011253D 1   1.00000     0.00000
 Structure written by MMmdl.
 40 41  0  0  0  0  0  0  0  0  2 V2000
  147.1513  141.9610  157.6920 C   0  0  0  0  0  0  0  0  0  0  0  0
  147.0795  140.1853  157.2182 S   0  0  0  0  0  0  0  0  0  0  0  0
  147.9395  139.4064  158.1221 O   0  0  0  0  0  0  0  0  0  0  0  0
  145.6660  139.8138  157.0512 O   0  0  0  0  0  0  0  0  0  0  0  0
  147.8180  140.1784  155.6509 N   0  0  0  0  0  0  0  0  0  0  0  0
  147.0861  139.5594  154.5370 C   0  0  0  0  0  0  0  0  0  0  0  0
  147.0149  140.6255  153.4479 C   0  0  0  0  0  0  0  0  0  0  0  0
  148.2969  141.4161  153.6576 C   0  0  0  0  0  0  0  0  0  0  0  0
  148.4739  141.4125  155.1847 C   0  0  2  0  0  0  0  0  0  0  0  0
  149.9409  141.5272  155.6161 C   0  0  0  0  0  0  0  0  0  0  0  0
  150.7547  140.6602  155.2962 O   0  0  0  0  0  0  0  0  0  0  0  0
  150.2624  142.5899  156.3675 N   0  0  0  0  0  0  0  0  0  0  0  0
  151.5889  142.8352  156.9143 C   0  0  0  0  0  0  0  0  0  0  0  0
  151.5502  143.9686  157.9480 C   0  0  0  0  0  0  0  0  0  0  0  0
  152.0643  143.5232  159.3035 C   0  0  0  0  0  0  0  0  0  0  0  0
  152.7842  142.3211  159.4776 C   0  0  0  0  0  0  0  0  0  0  0  0
  153.2249  141.9631  160.7689 C   0  0  0  0  0  0  0  0  0  0  0  0
  152.9352  142.8117  161.8574 C   0  0  0  0  0  0  0  0  0  0  0  0
  152.2111  143.9991  161.6270 C   0  0  0  0  0  0  0  0  0  0  0  0
  151.8067  144.3078  160.3752 N   0  3  0  0  0  0  0  0  0  0  0  0
  146.6867  142.0941  158.6686 H   0  0  0  0  0  0  0  0  0  0  0  0
  146.6154  142.5559  156.9528 H   0  0  0  0  0  0  0  0  0  0  0  0
  148.1889  142.2899  157.7395 H   0  0  0  0  0  0  0  0  0  0  0  0
  147.6472  138.6907  154.1911 H   0  0  0  0  0  0  0  0  0  0  0  0
  146.0940  139.2232  154.8397 H   0  0  0  0  0  0  0  0  0  0  0  0
  146.9349  140.2035  152.4459 H   0  0  0  0  0  0  0  0  0  0  0  0
  146.1499  141.2691  153.6143 H   0  0  0  0  0  0  0  0  0  0  0  0
  149.1229  140.9114  153.1537 H   0  0  0  0  0  0  0  0  0  0  0  0
  148.2255  142.4252  153.2507 H   0  0  0  0  0  0  0  0  0  0  0  0
  147.9114  142.2573  155.5872 H   0  0  0  0  0  0  0  0  0  0  0  0
  149.5348  143.2518  156.5965 H   0  0  0  0  0  0  0  0  0  0  0  0
  151.9587  141.9180  157.3754 H   0  0  0  0  0  0  0  0  0  0  0  0
  152.2752  143.0901  156.1050 H   0  0  0  0  0  0  0  0  0  0  0  0
  152.1463  144.8132  157.5992 H   0  0  0  0  0  0  0  0  0  0  0  0
  150.5297  144.3376  158.0623 H   0  0  0  0  0  0  0  0  0  0  0  0
  152.9956  141.6788  158.6348 H   0  0  0  0  0  0  0  0  0  0  0  0
  153.7777  141.0480  160.9228 H   0  0  0  0  0  0  0  0  0  0  0  0
  153.2629  142.5548  162.8543 H   0  0  0  0  0  0  0  0  0  0  0  0
  151.9448  144.7053  162.4001 H   0  0  0  0  0  0  0  0  0  0  0  0
  151.2827  145.1716  160.2315 H   0  0  0  0  0  0  0  0  0  0  0  0
  1  2  1  0  0  0  0
  1 21  1  0  0  0  0
  1 22  1  0  0  0  0
  1 23  1  0  0  0  0
  2  3  2  0  0  0  0
  2  4  2  0  0  0  0
  2  5  1  0  0  0  0
  5  9  1  0  0  0  0
  5  6  1  0  0  0  0
  6  7  1  0  0  0  0
  6 24  1  0  0  0  0
  6 25  1  0  0  0  0
  7  8  1  0  0  0  0
  7 26  1  0  0  0  0
  7 27  1  0  0  0  0
  8  9  1  0  0  0  0
  8 28  1  0  0  0  0
  8 29  1  0  0  0  0
  9 10  1  0  0  0  0
  9 30  1  0  0  0  0
 10 11  2  0  0  0  0
 10 12  1  0  0  0  0
 12 13  1  0  0  0  0
 12 31  1  0  0  0  0
 13 14  1  0  0  0  0
 13 32  1  0  0  0  0
 13 33  1  0  0  0  0
 14 15  1  0  0  0  0
 14 34  1  0  0  0  0
 14 35  1  0  0  0  0
 15 20  1  0  0  0  0
 15 16  2  0  0  0  0
 16 17  1  0  0  0  0
 16 36  1  0  0  0  0
 17 18  2  0  0  0  0
 17 37  1  0  0  0  0
 18 19  1  0  0  0  0
 18 38  1  0  0  0  0
 19 20  2  0  0  0  0
 19 39  1  0  0  0  0
 20 40  1  0  0  0  0
M  CHG  1  20   1
M  END
> <s_m_source_file>
AV-unprocessed.smi

> <i_m_source_file_index>
2089

> <i_lp_mmshare_version>
43012

> <i_f3d_flags>
0

> <s_epik_input>
W0NIM11TKD1PKSg9TylOMVtDSDJdW0NIMl1bQ0gyXVtDQEhdMUMoPU8pW05IXVtDSDJdW0NIMl1jMltjSF1bY0hdW2NIXVtjSF1uMg==

> <s_epik_cmdline>
J2VwaWtfcHl0aG9uJywgJy1waCcsICc3LjAnLCAnLXRuJywgJzgnLCAnLW1hJywgJzIwMCcsICctbWV0YWxfYmluZGluZycsICctaW1hZScsICc8aW5maWxlLm1hZT4nLCAnLW9tYWUnLCAnPG91dGZpbGUubWFlPic=

> <r_epik_Ionization_Penalty>
1.90116

> <r_epik_Ionization_Penalty_Charging>
1.90116

> <r_epik_Ionization_Penalty_Neutral>
1.4017e-07

> <r_epik_State_Penalty>
2.02245

> <r_epik_Charging_Adjusted_Penalty>
3.9236

> <i_epik_Tot_Q>
1

> <i_epik_Tot_abs_Q>
1

> <r_epik_Metal_State_Penalty>
2.04621

> <b_epik_Metal_Only>
0

> <s_lp_Force_Field>
OPLS_2005

> <r_lp_Energy>
13.4041

> <b_lp_Chiralities_Consistent>
1

> <s_lp_Variant>
AV-unprocessed.smi:2089-4

> <Gold.Version>
5.8.1

> <Gold.Id.Protein>
6NUR|6NUR_protein|mol2

> <Gold.PLP.Fitness>
43.9777

> <Gold.PLP.PLP>
-40.4464

> <Gold.PLP.part.hbond>
-3.0000

> <Gold.PLP.part.metal>
0.0000

> <Gold.PLP.part.buried>
-4.3973

> <Gold.PLP.part.nonpolar>
-32.5873

> <Gold.PLP.part.repulsive>
0.2482

> <Gold.PLP.ligand.clash>
0.0000

> <Gold.PLP.ligand.torsion>
0.8427

> <Gold.PLP.Chemscore.Hbond>
1.5760

> <Gold.PLP.Chemscore.CHOScore>
0.0000

> <Gold.PLP.Chemscore.Metal>
0.0000

> <Gold.Chemscore.Hbonds>
donor molecule, donor type, donor heavy atom, donor atom, acceptor molecule, acceptor atom, score
      L1  H    12    31       P1  8028  0.62
      P1  H  7989  7998       L1    11  0.90

> <Gold.PLP.Chemscore.Internal.Correction>
0.4886

> <Gold.Rescore>
     Score         DG    S(hbond)    S(metal)    S(lipo)     H(rot)  DE(clash)    DE(int)     intcor
     15.66     -17.68       1.48        0.00     105.99       2.00       1.14       0.88       ----

> <Gold.Chemscore.Fitness>
15.6601

> <Gold.Chemscore.DG>
-17.6811

> <Gold.Chemscore.ZeroCoef>
-5.4800

> <Gold.Chemscore.Hbond>
1.4765

> <Gold.Chemscore.Metal>
0.0000

> <Gold.Chemscore.Lipo>
105.9873

> <Gold.Chemscore.Internal_Hbond>
0.0000

> <Gold.Chemscore.DEClash>
1.1434

> <Gold.Chemscore.DEInternal>
0.8776

> <Gold.Chemscore.Rot>
2.0043

> <Gold.Chemscore.Internal.Correction>
   9.000000E+99

> <Gold.Chemscore.Hbonds>
donor molecule, donor type, donor heavy atom, donor atom, acceptor molecule, acceptor atom, score
      L1  H    12    31       P1  8028  0.62
      P1  H  7989  7998       L1    11  0.78

> <Gold.Chemscore.Hbond.Weighted>
-4.9315

> <Gold.Chemscore.Metal.Weighted>
-0.0000

> <Gold.Chemscore.Lipo.Weighted>
-12.4005

> <Gold.Chemscore.Internal_Hbond.Weighted>
0.0000

> <Gold.Chemscore.DEClash.Weighted>
1.1434

> <Gold.Chemscore.DEInternal.Weighted>
0.8776

> <Gold.Chemscore.Rot.Weighted>
5.1309

> <Gold.Chemscore.Internal.Correction.Weighted>
   9.000000E+99

> <Gold.Protein.RotatedTorsions>
[ 6907 6896 6895 6894 ] final   23.39 input  -60.11 | X-H torsion
[ 7974 7965 7964 7962 ] final  -12.76 input  175.53 | X-H torsion
[ 8008 7997 7996 7995 ] final  151.28 input   59.86 | X-H torsion
[ 10167 10162 10161 10158 ] final -103.48 input  -65.29 | X-H torsion
[ 10718 10713 10712 10709 ] final   74.79 input   66.30 | X-H torsion
[ 10763 10752 10751 10750 ] final -153.77 input  -60.55 | X-H torsion
[ 11005 11000 10999 10996 ] final   76.20 input  -57.11 | X-H torsion

> <Gold.Protein.ActiveResidues>
 VAL166  LYS551  ARG553  GLY616  TRP617  ASP618  TYR619  PRO620  LYS621  CYS622 
 ASP623  PHE694  ASN695  SER759  ASP760  ASP761  ALA762  ILE779  LEU786  VAL792 
 PHE793  MET794  SER795  GLU796  ALA797  LYS798  CYS799  TRP800  GLU811  SER814 

> <Gold.Protein.RotatedAtoms>
  151.9417  135.0210  160.0535 H   0  0  0  0  0  0  0  0  0  0  0  0  # atno 6907 bound_to 6896
  152.2031  133.4851  159.5077 H   0  0  0  0  0  0  0  0  0  0  0  0  # atno 6908 bound_to 6896
  150.6959  134.1482  159.4173 H   0  0  0  0  0  0  0  0  0  0  0  0  # atno 6909 bound_to 6896
  146.2140  140.3105  142.8382 H   0  0  0  0  0  0  0  0  0  0  0  0  # atno 7974 bound_to 7965
  156.2680  140.2052  156.6151 H   0  0  0  0  0  0  0  0  0  0  0  0  # atno 8008 bound_to 7997
  154.6801  140.0541  157.0281 H   0  0  0  0  0  0  0  0  0  0  0  0  # atno 8009 bound_to 7997
  155.1013  140.3206  155.4549 H   0  0  0  0  0  0  0  0  0  0  0  0  # atno 8010 bound_to 7997
  140.2196  143.3686  152.0981 H   0  0  0  0  0  0  0  0  0  0  0  0  # atno 10167 bound_to 10162
  157.6607  130.9695  150.1261 H   0  0  0  0  0  0  0  0  0  0  0  0  # atno 10718 bound_to 10713
  154.7905  135.3205  154.7789 H   0  0  0  0  0  0  0  0  0  0  0  0  # atno 10763 bound_to 10752
  153.8479  135.6865  153.4800 H   0  0  0  0  0  0  0  0  0  0  0  0  # atno 10764 bound_to 10752
  153.1573  135.4675  154.9662 H   0  0  0  0  0  0  0  0  0  0  0  0  # atno 10765 bound_to 10752
  139.9309  134.7581  156.1366 H   0  0  0  0  0  0  0  0  0  0  0  0  # atno 11005 bound_to 11000
  144.8992  140.7621  143.5878 LP  0  0  0  0  0  0  0  0  0  0  0  0  # atno 17320 bound_to 7965
  145.3030  139.1844  143.4679 LP  0  0  0  0  0  0  0  0  0  0  0  0  # atno 17321 bound_to 7965
  139.5149  144.6955  151.5642 LP  0  0  0  0  0  0  0  0  0  0  0  0  # atno 17342 bound_to 10162
  140.6265  143.9159  150.6569 LP  0  0  0  0  0  0  0  0  0  0  0  0  # atno 17343 bound_to 10162
  156.2120  130.3667  149.8659 LP  0  0  0  0  0  0  0  0  0  0  0  0  # atno 17370 bound_to 10713
  156.6535  130.8753  151.3535 LP  0  0  0  0  0  0  0  0  0  0  0  0  # atno 17371 bound_to 10713
  141.0897  133.6719  156.2513 LP  0  0  0  0  0  0  0  0  0  0  0  0  # atno 17394 bound_to 11000
  140.6205  134.5366  157.5547 LP  0  0  0  0  0  0  0  0  0  0  0  0  # atno 17395 bound_to 11000

$$$$
