AV-unprocessed.smi:707|AV-procd|sdf|3454|dock3
  -GOLD-   22720 0443D 1   1.00000     0.00000
 Structure written by MMmdl.
 44 45  0  0  0  0  0  0  0  0  1 V2000
  145.7068  137.6895  154.1997 C   0  0  0  0  0  0  0  0  0  0  0  0
  146.2688  138.3474  152.9814 C   0  0  0  0  0  0  0  0  0  0  0  0
  146.1492  137.8493  151.7452 N   0  0  0  0  0  0  0  0  0  0  0  0
  146.7970  138.7470  150.9192 N   0  0  0  0  0  0  0  0  0  0  0  0
  147.2430  139.6968  151.7406 C   0  0  0  0  0  0  0  0  0  0  0  0
  146.9498  139.5100  153.0364 N   0  0  0  0  0  0  0  0  0  0  0  0
  147.2834  140.3526  154.1698 C   0  0  0  0  0  0  0  0  0  0  0  0
  148.1712  141.5324  153.7518 C   0  0  0  0  0  0  0  0  0  0  0  0
  149.0716  141.9045  154.8333 N   0  0  0  0  0  0  0  0  0  0  0  0
  150.1433  141.1901  155.2061 C   0  0  0  0  0  0  0  0  0  0  0  0
  150.4779  140.1387  154.6609 O   0  0  0  0  0  0  0  0  0  0  0  0
  150.9748  141.7529  156.3571 C   0  0  0  0  0  0  0  0  0  0  0  0
  150.3194  141.4633  157.5849 O   0  0  0  0  0  0  0  0  0  0  0  0
  150.9598  142.0008  158.7354 C   0  0  1  0  0  0  0  0  0  0  0  0
  152.3458  141.3419  158.8384 C   0  0  0  0  0  0  0  0  0  0  0  0
  153.1498  141.9126  160.0163 C   0  0  0  0  0  0  0  0  0  0  0  0
  153.2820  143.4398  159.9091 C   0  0  0  0  0  0  0  0  0  0  0  0
  151.9036  144.1204  159.8036 C   0  0  1  0  0  0  0  0  0  0  0  0
  152.0388  145.6455  159.6873 C   0  0  0  0  0  0  0  0  0  0  0  0
  151.0984  143.5345  158.6267 C   0  0  0  0  0  0  0  0  0  0  0  0
  145.1066  136.8225  153.9222 H   0  0  0  0  0  0  0  0  0  0  0  0
  145.0722  138.3853  154.7482 H   0  0  0  0  0  0  0  0  0  0  0  0
  146.5137  137.3576  154.8529 H   0  0  0  0  0  0  0  0  0  0  0  0
  147.7982  140.5530  151.3867 H   0  0  0  0  0  0  0  0  0  0  0  0
  146.3600  140.7076  154.6288 H   0  0  0  0  0  0  0  0  0  0  0  0
  147.7918  139.7413  154.9167 H   0  0  0  0  0  0  0  0  0  0  0  0
  148.7595  141.2687  152.8715 H   0  0  0  0  0  0  0  0  0  0  0  0
  147.5530  142.3897  153.4808 H   0  0  0  0  0  0  0  0  0  0  0  0
  148.8671  142.7558  155.3361 H   0  0  0  0  0  0  0  0  0  0  0  0
  151.9722  141.3140  156.3291 H   0  0  0  0  0  0  0  0  0  0  0  0
  151.0796  142.8306  156.2241 H   0  0  0  0  0  0  0  0  0  0  0  0
  150.3901  141.7427  159.6303 H   0  0  0  0  0  0  0  0  0  0  0  0
  152.2375  140.2630  158.9531 H   0  0  0  0  0  0  0  0  0  0  0  0
  152.8985  141.5001  157.9111 H   0  0  0  0  0  0  0  0  0  0  0  0
  152.6592  141.6520  160.9549 H   0  0  0  0  0  0  0  0  0  0  0  0
  154.1393  141.4558  160.0472 H   0  0  0  0  0  0  0  0  0  0  0  0
  153.8215  143.8210  160.7769 H   0  0  0  0  0  0  0  0  0  0  0  0
  153.8858  143.6907  159.0358 H   0  0  0  0  0  0  0  0  0  0  0  0
  151.3541  143.9092  160.7223 H   0  0  0  0  0  0  0  0  0  0  0  0
  152.5856  145.9280  158.7872 H   0  0  0  0  0  0  0  0  0  0  0  0
  152.5714  146.0592  160.5441 H   0  0  0  0  0  0  0  0  0  0  0  0
  151.0600  146.1244  159.6464 H   0  0  0  0  0  0  0  0  0  0  0  0
  151.5869  143.7889  157.6850 H   0  0  0  0  0  0  0  0  0  0  0  0
  150.1148  144.0028  158.5988 H   0  0  0  0  0  0  0  0  0  0  0  0
  1  2  1  0  0  0  0
  1 21  1  0  0  0  0
  1 22  1  0  0  0  0
  1 23  1  0  0  0  0
  2  6  1  0  0  0  0
  2  3  2  0  0  0  0
  3  4  1  0  0  0  0
  4  5  2  0  0  0  0
  5  6  1  0  0  0  0
  5 24  1  0  0  0  0
  6  7  1  0  0  0  0
  7  8  1  0  0  0  0
  7 25  1  0  0  0  0
  7 26  1  0  0  0  0
  8  9  1  0  0  0  0
  8 27  1  0  0  0  0
  8 28  1  0  0  0  0
  9 10  1  0  0  0  0
  9 29  1  0  0  0  0
 10 11  2  0  0  0  0
 10 12  1  0  0  0  0
 12 13  1  0  0  0  0
 12 30  1  0  0  0  0
 12 31  1  0  0  0  0
 13 14  1  0  0  0  0
 14 20  1  0  0  0  0
 14 15  1  0  0  0  0
 14 32  1  0  0  0  0
 15 16  1  0  0  0  0
 15 33  1  0  0  0  0
 15 34  1  0  0  0  0
 16 17  1  0  0  0  0
 16 35  1  0  0  0  0
 16 36  1  0  0  0  0
 17 18  1  0  0  0  0
 17 37  1  0  0  0  0
 17 38  1  0  0  0  0
 18 19  1  0  0  0  0
 18 20  1  0  0  0  0
 18 39  1  0  0  0  0
 19 40  1  0  0  0  0
 19 41  1  0  0  0  0
 19 42  1  0  0  0  0
 20 43  1  0  0  0  0
 20 44  1  0  0  0  0
M  END
> <s_m_source_file>
AV-unprocessed.smi

> <i_m_source_file_index>
707

> <i_lp_mmshare_version>
43012

> <i_f3d_flags>
0

> <s_epik_input>
W0NIM11jMW5uW2NIXW4xW0NIMl1bQ0gyXVtOSF1DKD1PKVtDSDJdT1tDQEBIXTJbQ0gyXVtDSDJdW0NIMl1bQ0BASF0oW0NIM10pW0NIMl0y

> <s_epik_cmdline>
J2VwaWtfcHl0aG9uJywgJy1waCcsICc3LjAnLCAnLXRuJywgJzgnLCAnLW1hJywgJzIwMCcsICctbWV0YWxfYmluZGluZycsICctaW1hZScsICc8aW5maWxlLm1hZT4nLCAnLW9tYWUnLCAnPG91dGZpbGUubWFlPic=

> <r_lp_tautomer_probability>
1

> <r_epik_Ionization_Penalty>
0.000271783

> <r_epik_Ionization_Penalty_Charging>
0

> <r_epik_Ionization_Penalty_Neutral>
0.000271783

> <r_epik_State_Penalty>
-0

> <r_epik_Charging_Adjusted_Penalty>
0

> <i_epik_Tot_Q>
0

> <i_epik_Tot_abs_Q>
0

> <r_epik_Metal_State_Penalty>
-0

> <b_epik_Metal_Only>
0

> <s_lp_Force_Field>
OPLS_2005

> <r_lp_Energy>
13.3019

> <b_lp_Chiralities_Consistent>
1

> <s_lp_Variant>
AV-unprocessed.smi:707-2

> <Gold.Version>
5.8.1

> <Gold.Id.Protein>
6NUR|6NUR_protein|mol2

> <Gold.PLP.Fitness>
48.9587

> <Gold.PLP.PLP>
-39.8240

> <Gold.PLP.part.hbond>
-3.0000

> <Gold.PLP.part.metal>
0.0000

> <Gold.PLP.part.buried>
-3.5226

> <Gold.PLP.part.nonpolar>
-34.5113

> <Gold.PLP.part.repulsive>
1.3640

> <Gold.PLP.ligand.clash>
0.0000

> <Gold.PLP.ligand.torsion>
0.5606

> <Gold.PLP.Chemscore.Hbond>
2.8197

> <Gold.PLP.Chemscore.CHOScore>
0.5442

> <Gold.PLP.Chemscore.Metal>
0.0000

> <Gold.Chemscore.Hbonds>
donor molecule, donor type, donor heavy atom, donor atom, acceptor molecule, acceptor atom, score
      L1  H     9    29       P1  8028  1.00
      P1  H  7954  7966       L1     4  0.90
      P1  H  7989  7998       L1    11  0.80
      L1  C     5    24       P1  7957  0.32

> <Gold.PLP.Chemscore.Internal.Correction>
0.1644

> <Gold.Rescore>
     Score         DG    S(hbond)    S(metal)    S(lipo)     H(rot)  DE(clash)    DE(int)     intcor
     14.17     -16.72       1.88        0.00      95.37       2.42       1.89       0.66       ----

> <Gold.Chemscore.Fitness>
14.1658

> <Gold.Chemscore.DG>
-16.7157

> <Gold.Chemscore.ZeroCoef>
-5.4800

> <Gold.Chemscore.Hbond>
1.8775

> <Gold.Chemscore.Metal>
0.0000

> <Gold.Chemscore.Lipo>
95.3658

> <Gold.Chemscore.Internal_Hbond>
0.0000

> <Gold.Chemscore.DEClash>
1.8941

> <Gold.Chemscore.DEInternal>
0.6558

> <Gold.Chemscore.Rot>
2.4191

> <Gold.Chemscore.Internal.Correction>
   9.000000E+99

> <Gold.Chemscore.Hbonds>
donor molecule, donor type, donor heavy atom, donor atom, acceptor molecule, acceptor atom, score
      L1  H     9    29       P1  8028  0.95
      P1  H  7954  7966       L1     4  0.64
      P1  H  7989  7998       L1    11  0.12

> <Gold.Chemscore.Hbond.Weighted>
-6.2708

> <Gold.Chemscore.Metal.Weighted>
-0.0000

> <Gold.Chemscore.Lipo.Weighted>
-11.1578

> <Gold.Chemscore.Internal_Hbond.Weighted>
0.0000

> <Gold.Chemscore.DEClash.Weighted>
1.8941

> <Gold.Chemscore.DEInternal.Weighted>
0.6558

> <Gold.Chemscore.Rot.Weighted>
6.1929

> <Gold.Chemscore.Internal.Correction.Weighted>
   9.000000E+99

> <Gold.Protein.RotatedTorsions>
[ 6907 6896 6895 6894 ] final  -29.44 input  -60.11 | X-H torsion
[ 7974 7965 7964 7962 ] final  -78.28 input  175.53 | X-H torsion
[ 8008 7997 7996 7995 ] final   91.94 input   59.86 | X-H torsion
[ 10167 10162 10161 10158 ] final  -46.76 input  -65.29 | X-H torsion
[ 10718 10713 10712 10709 ] final -127.26 input   66.30 | X-H torsion
[ 10763 10752 10751 10750 ] final  102.67 input  -60.55 | X-H torsion
[ 11005 11000 10999 10996 ] final   39.46 input  -57.11 | X-H torsion

> <Gold.Protein.ActiveResidues>
 VAL166  LYS551  ARG553  GLY616  TRP617  ASP618  TYR619  PRO620  LYS621  CYS622 
 ASP623  PHE694  ASN695  SER759  ASP760  ASP761  ALA762  ILE779  LEU786  VAL792 
 PHE793  MET794  SER795  GLU796  ALA797  LYS798  CYS799  TRP800  GLU811  SER814 

> <Gold.Protein.RotatedAtoms>
  151.1191  135.0069  159.8529 H   0  0  0  0  0  0  0  0  0  0  0  0  # atno 6907 bound_to 6896
  152.5447  134.1744  159.8620 H   0  0  0  0  0  0  0  0  0  0  0  0  # atno 6908 bound_to 6896
  151.1800  133.4686  159.2627 H   0  0  0  0  0  0  0  0  0  0  0  0  # atno 6909 bound_to 6896
  145.5885  140.9434  143.1305 H   0  0  0  0  0  0  0  0  0  0  0  0  # atno 7974 bound_to 7965
  156.0296  140.3331  155.7125 H   0  0  0  0  0  0  0  0  0  0  0  0  # atno 8008 bound_to 7997
  155.5904  140.0645  157.2777 H   0  0  0  0  0  0  0  0  0  0  0  0  # atno 8009 bound_to 7997
  154.4348  140.1828  156.1057 H   0  0  0  0  0  0  0  0  0  0  0  0  # atno 8010 bound_to 7997
  140.6804  143.2816  151.3829 H   0  0  0  0  0  0  0  0  0  0  0  0  # atno 10167 bound_to 10162
  156.1841  130.6751  151.0342 H   0  0  0  0  0  0  0  0  0  0  0  0  # atno 10718 bound_to 10713
  153.3425  135.4003  155.1583 H   0  0  0  0  0  0  0  0  0  0  0  0  # atno 10763 bound_to 10752
  154.8646  135.3637  154.5326 H   0  0  0  0  0  0  0  0  0  0  0  0  # atno 10764 bound_to 10752
  153.5772  135.7077  153.5538 H   0  0  0  0  0  0  0  0  0  0  0  0  # atno 10765 bound_to 10752
  140.2026  134.3852  155.8088 H   0  0  0  0  0  0  0  0  0  0  0  0  # atno 11005 bound_to 11000
  144.7362  139.7580  143.7328 LP  0  0  0  0  0  0  0  0  0  0  0  0  # atno 17320 bound_to 7965
  146.1664  139.4797  142.9955 LP  0  0  0  0  0  0  0  0  0  0  0  0  # atno 17321 bound_to 7965
  139.6123  144.1074  152.2311 LP  0  0  0  0  0  0  0  0  0  0  0  0  # atno 17342 bound_to 10162
  140.0492  144.5946  150.7350 LP  0  0  0  0  0  0  0  0  0  0  0  0  # atno 17343 bound_to 10162
  157.6887  131.0817  150.7169 LP  0  0  0  0  0  0  0  0  0  0  0  0  # atno 17370 bound_to 10713
  156.7226  130.4685  149.5519 LP  0  0  0  0  0  0  0  0  0  0  0  0  # atno 17371 bound_to 10713
  141.2227  133.7102  156.8283 LP  0  0  0  0  0  0  0  0  0  0  0  0  # atno 17394 bound_to 11000
  140.2038  134.8878  157.3198 LP  0  0  0  0  0  0  0  0  0  0  0  0  # atno 17395 bound_to 11000

$$$$
