AV-unprocessed.smi:260|AV-procd|sdf|1978|dock6
  -GOLD-   2262021153D 1   1.00000     0.00000
 Structure written by MMmdl.
 53 56  0  0  0  0  0  0  0  0  1 V2000
  150.4608  142.5316  156.3978 C   0  0  0  0  0  0  0  0  0  0  0  0
  150.9782  143.2176  157.5714 N   0  0  0  0  0  0  0  0  0  0  0  0
  150.3944  143.2004  158.7803 C   0  0  0  0  0  0  0  0  0  0  0  0
  149.3417  142.5951  158.9875 O   0  0  0  0  0  0  0  0  0  0  0  0
  151.0693  143.9779  159.9407 C   0  0  2  0  0  0  0  0  0  0  0  0
  150.0758  145.0230  160.4844 C   0  0  0  0  0  0  0  0  0  0  0  0
  152.4325  144.6080  159.5740 C   0  0  0  0  0  0  0  0  0  0  0  0
  153.4475  143.4678  159.7266 C   0  0  0  0  0  0  0  0  0  0  0  0
  152.8256  142.5130  160.6331 N   0  0  0  0  0  0  0  0  0  0  0  0
  153.5750  141.7176  161.4400 C   0  0  0  0  0  0  0  0  0  0  0  0
  154.7945  141.3064  161.0018 N   0  0  0  0  0  0  0  0  0  0  0  0
  155.5605  140.5197  161.7625 C   0  0  0  0  0  0  0  0  0  0  0  0
  155.3090  140.0360  162.9796 N   0  0  0  0  0  0  0  0  0  0  0  0
  154.0942  140.4546  163.4349 C   0  0  0  0  0  0  0  0  0  0  0  0
  153.1719  141.2896  162.7397 C   0  0  0  0  0  0  0  0  0  0  0  0
  152.0493  141.5042  163.5334 N   0  0  0  0  0  0  0  0  0  0  0  0
  152.2887  140.8288  164.6238 C   0  0  0  0  0  0  0  0  0  0  0  0
  153.4929  140.1650  164.6471 N   0  0  0  0  0  0  0  0  0  0  0  0
  154.0052  139.3409  165.7283 C   0  0  0  0  0  0  0  0  0  0  0  0
  152.8910  138.5456  166.4366 C   0  0  1  0  0  0  0  0  0  0  0  0
  153.4235  137.3284  166.9226 O   0  0  0  0  0  0  0  0  0  0  0  0
  152.2764  139.3239  167.6143 C   0  0  2  0  0  0  0  0  0  0  0  0
  151.4110  138.4795  168.5516 C   0  0  0  0  0  0  0  0  0  0  0  0
  150.4597  139.4909  169.1718 C   0  0  0  0  0  0  0  0  0  0  0  0
  150.5794  140.7187  168.2650 C   0  0  0  0  0  0  0  0  0  0  0  0
  151.3402  140.2828  167.1471 O   0  0  0  0  0  0  0  0  0  0  0  0
  151.5126  142.9969  161.0432 C   0  0  0  0  0  0  0  0  0  0  0  0
  151.0897  142.7476  155.5342 H   0  0  0  0  0  0  0  0  0  0  0  0
  149.4449  142.8581  156.1710 H   0  0  0  0  0  0  0  0  0  0  0  0
  150.4534  141.4520  156.5541 H   0  0  0  0  0  0  0  0  0  0  0  0
  151.8391  143.7339  157.4629 H   0  0  0  0  0  0  0  0  0  0  0  0
  150.4962  145.5690  161.3296 H   0  0  0  0  0  0  0  0  0  0  0  0
  149.1507  144.5590  160.8288 H   0  0  0  0  0  0  0  0  0  0  0  0
  149.8155  145.7560  159.7199 H   0  0  0  0  0  0  0  0  0  0  0  0
  152.4717  145.0806  158.5920 H   0  0  0  0  0  0  0  0  0  0  0  0
  152.6762  145.3882  160.2967 H   0  0  0  0  0  0  0  0  0  0  0  0
  153.6289  142.9795  158.7686 H   0  0  0  0  0  0  0  0  0  0  0  0
  154.3982  143.8423  160.1079 H   0  0  0  0  0  0  0  0  0  0  0  0
  156.5103  140.2364  161.3334 H   0  0  0  0  0  0  0  0  0  0  0  0
  151.5882  140.7939  165.4457 H   0  0  0  0  0  0  0  0  0  0  0  0
  154.7651  138.6669  165.3309 H   0  0  0  0  0  0  0  0  0  0  0  0
  154.5124  139.9951  166.4384 H   0  0  0  0  0  0  0  0  0  0  0  0
  152.1076  138.3055  165.7163 H   0  0  0  0  0  0  0  0  0  0  0  0
  153.4845  136.7193  166.2027 H   0  0  0  0  0  0  0  0  0  0  0  0
  153.0542  139.8367  168.1842 H   0  0  0  0  0  0  0  0  0  0  0  0
  150.8399  137.7470  167.9796 H   0  0  0  0  0  0  0  0  0  0  0  0
  151.9987  137.9401  169.2948 H   0  0  0  0  0  0  0  0  0  0  0  0
  149.4408  139.1034  169.1973 H   0  0  0  0  0  0  0  0  0  0  0  0
  150.7508  139.7387  170.1932 H   0  0  0  0  0  0  0  0  0  0  0  0
  149.6092  141.1046  167.9516 H   0  0  0  0  0  0  0  0  0  0  0  0
  151.1160  141.5203  168.7746 H   0  0  0  0  0  0  0  0  0  0  0  0
  151.5984  143.5085  162.0031 H   0  0  0  0  0  0  0  0  0  0  0  0
  150.8155  142.1677  161.1729 H   0  0  0  0  0  0  0  0  0  0  0  0
  1  2  1  0  0  0  0
  1 28  1  0  0  0  0
  1 29  1  0  0  0  0
  1 30  1  0  0  0  0
  2  3  1  0  0  0  0
  2 31  1  0  0  0  0
  3  4  2  0  0  0  0
  3  5  1  0  0  0  0
  5 27  1  0  0  0  0
  5  6  1  0  0  0  0
  5  7  1  0  0  0  0
  6 32  1  0  0  0  0
  6 33  1  0  0  0  0
  6 34  1  0  0  0  0
  7  8  1  0  0  0  0
  7 35  1  0  0  0  0
  7 36  1  0  0  0  0
  8  9  1  0  0  0  0
  8 37  1  0  0  0  0
  8 38  1  0  0  0  0
  9 10  1  0  0  0  0
  9 27  1  0  0  0  0
 10 15  1  0  0  0  0
 10 11  2  0  0  0  0
 11 12  1  0  0  0  0
 12 13  2  0  0  0  0
 12 39  1  0  0  0  0
 13 14  1  0  0  0  0
 14 18  1  0  0  0  0
 14 15  2  0  0  0  0
 15 16  1  0  0  0  0
 16 17  2  0  0  0  0
 17 18  1  0  0  0  0
 17 40  1  0  0  0  0
 18 19  1  0  0  0  0
 19 20  1  0  0  0  0
 19 41  1  0  0  0  0
 19 42  1  0  0  0  0
 20 21  1  0  0  0  0
 20 22  1  0  0  0  0
 20 43  1  0  0  0  0
 21 44  1  0  0  0  0
 22 26  1  0  0  0  0
 22 23  1  0  0  0  0
 22 45  1  0  0  0  0
 23 24  1  0  0  0  0
 23 46  1  0  0  0  0
 23 47  1  0  0  0  0
 24 25  1  0  0  0  0
 24 48  1  0  0  0  0
 24 49  1  0  0  0  0
 25 26  1  0  0  0  0
 25 50  1  0  0  0  0
 25 51  1  0  0  0  0
 27 52  1  0  0  0  0
 27 53  1  0  0  0  0
M  END
> <s_m_source_file>
AV-unprocessed.smi

> <i_m_source_file_index>
260

> <i_lp_mmshare_version>
43012

> <i_f3d_flags>
0

> <s_epik_input>
W0NIM11bTkhdQyg9TylbQ0BAXTEoW0NIM10pW0NIMl1bQ0gyXU4oW0NIMl0xKWMobltjSF1uMiljKGMyMyluW2NIXW4zW0NIMl1bQ0BIXShbT0hdKVtDQEBIXTRbQ0gyXVtDSDJdW0NIMl1PNA==

> <s_epik_cmdline>
J2VwaWtfcHl0aG9uJywgJy1waCcsICc3LjAnLCAnLXRuJywgJzgnLCAnLW1hJywgJzIwMCcsICctbWV0YWxfYmluZGluZycsICctaW1hZScsICc8aW5maWxlLm1hZT4nLCAnLW9tYWUnLCAnPG91dGZpbGUubWFlPic=

> <r_lp_tautomer_probability>
1

> <r_epik_Ionization_Penalty>
0.00115068

> <r_epik_Ionization_Penalty_Charging>
0

> <r_epik_Ionization_Penalty_Neutral>
0.00115068

> <r_epik_State_Penalty>
0.000668876

> <r_epik_Charging_Adjusted_Penalty>
0.000668876

> <i_epik_Tot_Q>
0

> <i_epik_Tot_abs_Q>
0

> <r_epik_Metal_State_Penalty>
-0

> <b_epik_Metal_Only>
0

> <s_lp_Force_Field>
OPLS_2005

> <r_lp_Energy>
50.1788

> <b_lp_Chiralities_Consistent>
1

> <s_lp_Variant>
AV-unprocessed.smi:260-4

> <Gold.Version>
5.8.1

> <Gold.Id.Protein>
6NUR|6NUR_protein|mol2

> <Gold.PLP.Fitness>
52.3736

> <Gold.PLP.PLP>
-53.9697

> <Gold.PLP.part.hbond>
-2.6362

> <Gold.PLP.part.metal>
0.0000

> <Gold.PLP.part.buried>
-2.9581

> <Gold.PLP.part.nonpolar>
-48.2645

> <Gold.PLP.part.repulsive>
0.3452

> <Gold.PLP.ligand.clash>
0.0000

> <Gold.PLP.ligand.torsion>
1.2669

> <Gold.PLP.Chemscore.Hbond>
0.1973

> <Gold.PLP.Chemscore.CHOScore>
0.0000

> <Gold.PLP.Chemscore.Metal>
0.0000

> <Gold.Chemscore.Hbonds>
donor molecule, donor type, donor heavy atom, donor atom, acceptor molecule, acceptor atom, score
      P1  H  6933  6945       L1    16  0.15

> <Gold.PLP.Chemscore.Internal.Correction>
0.3457

> <Gold.Rescore>
     Score         DG    S(hbond)    S(metal)    S(lipo)     H(rot)  DE(clash)    DE(int)     intcor
      5.69     -12.18       0.00        0.00     112.46       2.53       3.00       3.49       ----

> <Gold.Chemscore.Fitness>
5.6861

> <Gold.Chemscore.DG>
-12.1771

> <Gold.Chemscore.ZeroCoef>
-5.4800

> <Gold.Chemscore.Hbond>
0.0017

> <Gold.Chemscore.Metal>
0.0000

> <Gold.Chemscore.Lipo>
112.4584

> <Gold.Chemscore.Internal_Hbond>
0.0000

> <Gold.Chemscore.DEClash>
2.9990

> <Gold.Chemscore.DEInternal>
3.4920

> <Gold.Chemscore.Rot>
2.5259

> <Gold.Chemscore.Internal.Correction>
   9.000000E+99

> <Gold.Chemscore.Hbonds>
donor molecule, donor type, donor heavy atom, donor atom, acceptor molecule, acceptor atom, score
      P1  H  6933  6945       L1    16  0.14

> <Gold.Chemscore.Hbond.Weighted>
-0.0058

> <Gold.Chemscore.Metal.Weighted>
-0.0000

> <Gold.Chemscore.Lipo.Weighted>
-13.1576

> <Gold.Chemscore.Internal_Hbond.Weighted>
0.0000

> <Gold.Chemscore.DEClash.Weighted>
2.9990

> <Gold.Chemscore.DEInternal.Weighted>
3.4920

> <Gold.Chemscore.Rot.Weighted>
6.4663

> <Gold.Chemscore.Internal.Correction.Weighted>
   9.000000E+99

> <Gold.Protein.RotatedTorsions>
[ 6907 6896 6895 6894 ] final -127.83 input  -60.11 | X-H torsion
[ 7974 7965 7964 7962 ] final  109.77 input  175.53 | X-H torsion
[ 8008 7997 7996 7995 ] final  175.79 input   59.86 | X-H torsion
[ 10167 10162 10161 10158 ] final  -12.69 input  -65.29 | X-H torsion
[ 10718 10713 10712 10709 ] final  115.90 input   66.30 | X-H torsion
[ 10763 10752 10751 10750 ] final  179.16 input  -60.55 | X-H torsion
[ 11005 11000 10999 10996 ] final   73.96 input  -57.11 | X-H torsion

> <Gold.Protein.ActiveResidues>
 VAL166  LYS551  ARG553  GLY616  TRP617  ASP618  TYR619  PRO620  LYS621  CYS622 
 ASP623  PHE694  ASN695  SER759  ASP760  ASP761  ALA762  ILE779  LEU786  VAL792 
 PHE793  MET794  SER795  GLU796  ALA797  LYS798  CYS799  TRP800  GLU811  SER814 

> <Gold.Protein.RotatedAtoms>
  150.9115  133.6992  159.2853 H   0  0  0  0  0  0  0  0  0  0  0  0  # atno 6907 bound_to 6896
  151.4477  135.1025  159.9698 H   0  0  0  0  0  0  0  0  0  0  0  0  # atno 6908 bound_to 6896
  152.4932  133.8508  159.7256 H   0  0  0  0  0  0  0  0  0  0  0  0  # atno 6909 bound_to 6896
  145.2635  139.2693  143.4004 H   0  0  0  0  0  0  0  0  0  0  0  0  # atno 7974 bound_to 7965
  156.0833  140.1400  156.9685 H   0  0  0  0  0  0  0  0  0  0  0  0  # atno 8008 bound_to 7997
  154.4598  140.0947  156.6909 H   0  0  0  0  0  0  0  0  0  0  0  0  # atno 8009 bound_to 7997
  155.5040  140.3452  155.4378 H   0  0  0  0  0  0  0  0  0  0  0  0  # atno 8010 bound_to 7997
  140.7166  143.5506  150.9306 H   0  0  0  0  0  0  0  0  0  0  0  0  # atno 10167 bound_to 10162
  157.6194  131.1018  150.7396 H   0  0  0  0  0  0  0  0  0  0  0  0  # atno 10718 bound_to 10713
  154.5170  135.2792  155.1295 H   0  0  0  0  0  0  0  0  0  0  0  0  # atno 10763 bound_to 10752
  154.2867  135.6275  153.5372 H   0  0  0  0  0  0  0  0  0  0  0  0  # atno 10764 bound_to 10752
  152.9929  135.5664  154.5649 H   0  0  0  0  0  0  0  0  0  0  0  0  # atno 10765 bound_to 10752
  139.9414  134.7392  156.1090 H   0  0  0  0  0  0  0  0  0  0  0  0  # atno 11005 bound_to 11000
  146.3268  140.3058  142.8623 LP  0  0  0  0  0  0  0  0  0  0  0  0  # atno 17320 bound_to 7965
  144.9397  140.8065  143.5638 LP  0  0  0  0  0  0  0  0  0  0  0  0  # atno 17321 bound_to 7965
  139.9230  143.6583  152.3093 LP  0  0  0  0  0  0  0  0  0  0  0  0  # atno 17342 bound_to 10162
  139.7007  144.7635  151.1278 LP  0  0  0  0  0  0  0  0  0  0  0  0  # atno 17343 bound_to 10162
  156.7756  130.4843  149.5410 LP  0  0  0  0  0  0  0  0  0  0  0  0  # atno 17370 bound_to 10713
  156.1331  130.6192  151.0362 LP  0  0  0  0  0  0  0  0  0  0  0  0  # atno 17371 bound_to 10713
  141.1050  133.6663  156.2842 LP  0  0  0  0  0  0  0  0  0  0  0  0  # atno 17394 bound_to 11000
  140.5942  134.5620  157.5505 LP  0  0  0  0  0  0  0  0  0  0  0  0  # atno 17395 bound_to 11000

$$$$
