AV-unprocessed.smi:1385|AV-procd|sdf|5633|dock2
  -GOLD-   22720 5253D 1   1.00000     0.00000
 Structure written by MMmdl.
 38 39  0  0  0  0  0  0  0  0  3 V2000
  152.8752  140.2671  159.5233 C   0  0  0  0  0  0  0  0  0  0  0  0
  152.4044  139.9985  158.1352 C   0  0  0  0  0  0  0  0  0  0  0  0
  152.9346  139.0476  157.3621 N   0  0  0  0  0  0  0  0  0  0  0  0
  152.3275  138.9882  156.1163 N   0  0  0  0  0  0  0  0  0  0  0  0
  151.3421  139.8848  155.9683 C   0  0  0  0  0  0  0  0  0  0  0  0
  150.6316  139.9908  154.8331 N   0  5  0  0  0  0  0  0  0  0  0  0
  149.3850  140.5132  154.8630 C   0  0  0  0  0  0  0  0  0  0  0  0
  148.8442  141.0650  155.8239 O   0  0  0  0  0  0  0  0  0  0  0  0
  148.7226  140.3819  153.7051 N   0  0  0  0  0  0  0  0  0  0  0  0
  147.3563  140.8271  153.4332 C   0  0  2  0  0  0  0  0  0  0  0  0
  146.3338  140.1200  154.3451 C   0  0  0  0  0  0  0  0  0  0  0  0
  146.1952  138.6272  153.9992 C   0  0  0  0  0  0  0  0  0  0  0  0
  145.8351  138.4409  152.5681 N   0  3  2  0  0  0  0  0  0  0  0  0
  145.5584  137.0240  152.2171 C   0  0  0  0  0  0  0  0  0  0  0  0
  144.0878  136.6359  152.4034 C   0  0  0  0  0  0  0  0  0  0  0  0
  143.1866  137.6135  152.2825 N   0  0  0  0  0  0  0  0  0  0  0  0
  143.7675  135.4789  152.6695 O   0  0  0  0  0  0  0  0  0  0  0  0
  146.8360  139.0638  151.6648 C   0  0  0  0  0  0  0  0  0  0  0  0
  146.9964  140.5666  151.9605 C   0  0  0  0  0  0  0  0  0  0  0  0
  151.1015  140.9055  157.3860 S   0  0  0  0  0  0  0  0  0  0  0  0
  152.3037  139.6674  160.2316 H   0  0  0  0  0  0  0  0  0  0  0  0
  152.7429  141.3211  159.7681 H   0  0  0  0  0  0  0  0  0  0  0  0
  153.9318  140.0168  159.6222 H   0  0  0  0  0  0  0  0  0  0  0  0
  149.2150  139.9305  152.9483 H   0  0  0  0  0  0  0  0  0  0  0  0
  147.3088  141.9027  153.6110 H   0  0  0  0  0  0  0  0  0  0  0  0
  146.6083  140.2355  155.3943 H   0  0  0  0  0  0  0  0  0  0  0  0
  145.3619  140.6027  154.2348 H   0  0  0  0  0  0  0  0  0  0  0  0
  147.1268  138.1014  154.2150 H   0  0  0  0  0  0  0  0  0  0  0  0
  145.4313  138.1845  154.6385 H   0  0  0  0  0  0  0  0  0  0  0  0
  145.7922  136.8538  151.1653 H   0  0  0  0  0  0  0  0  0  0  0  0
  146.2074  136.3618  152.7927 H   0  0  0  0  0  0  0  0  0  0  0  0
  142.2026  137.4141  152.3932 H   0  0  0  0  0  0  0  0  0  0  0  0
  143.4928  138.5541  152.0775 H   0  0  0  0  0  0  0  0  0  0  0  0
  147.7924  138.5491  151.7698 H   0  0  0  0  0  0  0  0  0  0  0  0
  146.5231  138.9386  150.6276 H   0  0  0  0  0  0  0  0  0  0  0  0
  146.0626  141.0783  151.7241 H   0  0  0  0  0  0  0  0  0  0  0  0
  147.7525  140.9995  151.3041 H   0  0  0  0  0  0  0  0  0  0  0  0
  144.9698  138.9399  152.4171 H   0  0  0  0  0  0  0  0  0  0  0  0
  1  2  1  0  0  0  0
  1 21  1  0  0  0  0
  1 22  1  0  0  0  0
  1 23  1  0  0  0  0
  2 20  1  0  0  0  0
  2  3  2  0  0  0  0
  3  4  1  0  0  0  0
  4  5  2  0  0  0  0
  5  6  1  0  0  0  0
  5 20  1  0  0  0  0
  6  7  1  0  0  0  0
  7  8  2  0  0  0  0
  7  9  1  0  0  0  0
  9 10  1  0  0  0  0
  9 24  1  0  0  0  0
 10 19  1  0  0  0  0
 10 11  1  0  0  0  0
 10 25  1  0  0  0  0
 11 12  1  0  0  0  0
 11 26  1  0  0  0  0
 11 27  1  0  0  0  0
 12 13  1  0  0  0  0
 12 28  1  0  0  0  0
 12 29  1  0  0  0  0
 13 14  1  0  0  0  0
 13 18  1  0  0  0  0
 13 38  1  0  0  0  0
 14 15  1  0  0  0  0
 14 30  1  0  0  0  0
 14 31  1  0  0  0  0
 15 16  1  0  0  0  0
 15 17  2  0  0  0  0
 16 32  1  0  0  0  0
 16 33  1  0  0  0  0
 18 19  1  0  0  0  0
 18 34  1  0  0  0  0
 18 35  1  0  0  0  0
 19 36  1  0  0  0  0
 19 37  1  0  0  0  0
M  CHG  1   6  -1
M  CHG  1  13   1
M  END
> <s_m_source_file>
AV-unprocessed.smi

> <i_m_source_file_index>
1385

> <i_lp_mmshare_version>
43012

> <i_f3d_flags>
0

> <s_epik_input>
W0NIM11jMW5uYyhzMSlbTkhdQyg9TylbTkhdW0NIXTJbQ0gyXVtDSDJdTihbQ0gyXVtDSDJdMilbQ0gyXUMoPU8pW05IMl0=

> <s_epik_cmdline>
J2VwaWtfcHl0aG9uJywgJy1waCcsICc3LjAnLCAnLXRuJywgJzgnLCAnLW1hJywgJzIwMCcsICctbWV0YWxfYmluZGluZycsICctaW1hZScsICc8aW5maWxlLm1hZT4nLCAnLW9tYWUnLCAnPG91dGZpbGUubWFlPic=

> <r_lp_tautomer_probability>
1

> <r_epik_Ionization_Penalty>
3.90109

> <r_epik_Ionization_Penalty_Charging>
3.79141

> <r_epik_Ionization_Penalty_Neutral>
0.109679

> <r_epik_State_Penalty>
3.87237

> <r_epik_Charging_Adjusted_Penalty>
7.66378

> <i_epik_Tot_Q>
0

> <i_epik_Tot_abs_Q>
2

> <r_epik_Metal_State_Penalty>
1.33354

> <b_epik_Metal_Only>
1

> <s_lp_Force_Field>
OPLS_2005

> <r_lp_Energy>
6.54798

> <b_lp_Chiralities_Consistent>
1

> <s_lp_Variant>
AV-unprocessed.smi:1385-6

> <Gold.Version>
5.8.1

> <Gold.Id.Protein>
6NUR|6NUR_protein|mol2

> <Gold.PLP.Fitness>
46.4393

> <Gold.PLP.PLP>
-30.3593

> <Gold.PLP.part.hbond>
-6.5580

> <Gold.PLP.part.metal>
0.0000

> <Gold.PLP.part.buried>
-0.5937

> <Gold.PLP.part.nonpolar>
-24.0673

> <Gold.PLP.part.repulsive>
0.4908

> <Gold.PLP.ligand.clash>
0.0102

> <Gold.PLP.ligand.torsion>
0.9678

> <Gold.PLP.Chemscore.Hbond>
5.9920

> <Gold.PLP.Chemscore.CHOScore>
0.0000

> <Gold.PLP.Chemscore.Metal>
0.0000

> <Gold.Chemscore.Hbonds>
donor molecule, donor type, donor heavy atom, donor atom, acceptor molecule, acceptor atom, score
      L1  H     9    24       P1  7957  0.88
      L1  H    13    38       P1 10175  2.00
      L1  H    16    33       P1 10175  1.00
      P1  H  7989  7998       L1     6  1.00
      P1  H  7997  8009       L1     3  0.55

> <Gold.PLP.Chemscore.Internal.Correction>
0.0498

> <Gold.Rescore>
     Score         DG    S(hbond)    S(metal)    S(lipo)     H(rot)  DE(clash)    DE(int)     intcor
     15.43     -19.49       3.70        0.00      58.67       2.04       1.82       2.24       ----

> <Gold.Chemscore.Fitness>
15.4308

> <Gold.Chemscore.DG>
-19.4863

> <Gold.Chemscore.ZeroCoef>
-5.4800

> <Gold.Chemscore.Hbond>
3.7029

> <Gold.Chemscore.Metal>
0.0000

> <Gold.Chemscore.Lipo>
58.6729

> <Gold.Chemscore.Internal_Hbond>
0.0000

> <Gold.Chemscore.DEClash>
1.8192

> <Gold.Chemscore.DEInternal>
2.2364

> <Gold.Chemscore.Rot>
2.0415

> <Gold.Chemscore.Internal.Correction>
   9.000000E+99

> <Gold.Chemscore.Hbonds>
donor molecule, donor type, donor heavy atom, donor atom, acceptor molecule, acceptor atom, score
      L1  H     9    24       P1  7957  0.87
      L1  H    13    38       P1 10175  0.96
      L1  H    16    33       P1 10175  0.97
      P1  H  7989  7998       L1     6  0.55
      P1  H  7997  8009       L1     3  0.01

> <Gold.Chemscore.Hbond.Weighted>
-12.3678

> <Gold.Chemscore.Metal.Weighted>
-0.0000

> <Gold.Chemscore.Lipo.Weighted>
-6.8647

> <Gold.Chemscore.Internal_Hbond.Weighted>
0.0000

> <Gold.Chemscore.DEClash.Weighted>
1.8192

> <Gold.Chemscore.DEInternal.Weighted>
2.2364

> <Gold.Chemscore.Rot.Weighted>
5.2262

> <Gold.Chemscore.Internal.Correction.Weighted>
   9.000000E+99

> <Gold.Protein.RotatedTorsions>
[ 6907 6896 6895 6894 ] final   73.97 input  -60.11 | X-H torsion
[ 7974 7965 7964 7962 ] final  -33.51 input  175.53 | X-H torsion
[ 8008 7997 7996 7995 ] final  175.28 input   59.86 | X-H torsion
[ 10167 10162 10161 10158 ] final  156.31 input  -65.29 | X-H torsion
[ 10718 10713 10712 10709 ] final -162.56 input   66.30 | X-H torsion
[ 10763 10752 10751 10750 ] final   52.83 input  -60.55 | X-H torsion
[ 11005 11000 10999 10996 ] final  -75.28 input  -57.11 | X-H torsion

> <Gold.Protein.ActiveResidues>
 VAL166  LYS551  ARG553  GLY616  TRP617  ASP618  TYR619  PRO620  LYS621  CYS622 
 ASP623  PHE694  ASN695  SER759  ASP760  ASP761  ALA762  ILE779  LEU786  VAL792 
 PHE793  MET794  SER795  GLU796  ALA797  LYS798  CYS799  TRP800  GLU811  SER814 

> <Gold.Protein.RotatedAtoms>
  152.4952  134.4341  159.9521 H   0  0  0  0  0  0  0  0  0  0  0  0  # atno 6907 bound_to 6896
  151.4321  133.3661  159.2778 H   0  0  0  0  0  0  0  0  0  0  0  0  # atno 6908 bound_to 6896
  150.9147  134.8588  159.7509 H   0  0  0  0  0  0  0  0  0  0  0  0  # atno 6909 bound_to 6896
  146.0905  140.5925  142.8867 H   0  0  0  0  0  0  0  0  0  0  0  0  # atno 7974 bound_to 7965
  156.0887  140.1413  156.9620 H   0  0  0  0  0  0  0  0  0  0  0  0  # atno 8008 bound_to 7997
  154.4628  140.0937  156.6988 H   0  0  0  0  0  0  0  0  0  0  0  0  # atno 8009 bound_to 7997
  155.4956  140.3449  155.4364 H   0  0  0  0  0  0  0  0  0  0  0  0  # atno 8010 bound_to 7997
  139.4821  144.5020  151.8154 H   0  0  0  0  0  0  0  0  0  0  0  0  # atno 10167 bound_to 10162
  156.6121  130.8855  151.2939 H   0  0  0  0  0  0  0  0  0  0  0  0  # atno 10718 bound_to 10713
  152.9791  135.5799  154.4642 H   0  0  0  0  0  0  0  0  0  0  0  0  # atno 10763 bound_to 10752
  154.4214  135.2771  155.1975 H   0  0  0  0  0  0  0  0  0  0  0  0  # atno 10764 bound_to 10752
  154.3722  135.6165  153.5800 H   0  0  0  0  0  0  0  0  0  0  0  0  # atno 10765 bound_to 10752
  141.1644  133.6941  156.7492 H   0  0  0  0  0  0  0  0  0  0  0  0  # atno 11005 bound_to 11000
  144.7356  140.4799  143.6906 LP  0  0  0  0  0  0  0  0  0  0  0  0  # atno 17320 bound_to 7965
  145.6049  139.1507  143.3108 LP  0  0  0  0  0  0  0  0  0  0  0  0  # atno 17321 bound_to 7965
  140.4514  144.1849  150.5898 LP  0  0  0  0  0  0  0  0  0  0  0  0  # atno 17342 bound_to 10162
  140.4580  143.2460  151.9258 LP  0  0  0  0  0  0  0  0  0  0  0  0  # atno 17343 bound_to 10162
  157.7251  130.9612  150.1601 LP  0  0  0  0  0  0  0  0  0  0  0  0  # atno 17370 bound_to 10713
  156.2381  130.3688  149.8368 LP  0  0  0  0  0  0  0  0  0  0  0  0  # atno 17371 bound_to 10713
  140.2616  134.8462  157.3764 LP  0  0  0  0  0  0  0  0  0  0  0  0  # atno 17394 bound_to 11000
  140.1605  134.4734  155.7898 LP  0  0  0  0  0  0  0  0  0  0  0  0  # atno 17395 bound_to 11000

$$$$
