AV-unprocessed.smi:115|AV-procd|sdf|1123|dock7
  -GOLD-   2262018243D 1   1.00000     0.00000
 Structure written by MMmdl.
 55 57  0  0  0  0  0  0  0  0  1 V2000
  152.0773  130.8725  165.1074 C   0  0  0  0  0  0  0  0  0  0  0  0
  153.2245  131.6101  164.7146 O   0  0  0  0  0  0  0  0  0  0  0  0
  153.0111  133.0119  164.6100 C   0  0  0  0  0  0  0  0  0  0  0  0
  154.2858  133.7641  164.1684 C   0  0  2  0  0  0  0  0  0  0  0  0
  155.4973  133.5298  165.0911 C   0  0  0  0  0  0  0  0  0  0  0  0
  154.0114  135.1860  163.9008 N   0  0  0  0  0  0  0  0  0  0  0  0
  153.5206  136.0713  164.8598 C   0  0  0  0  0  0  0  0  0  0  0  0
  153.2207  135.6785  166.2725 C   0  0  0  0  0  0  0  0  0  0  0  0
  153.3745  137.2908  164.2712 C   0  0  0  0  0  0  0  0  0  0  0  0
  153.7986  137.1953  162.9195 C   0  0  0  0  0  0  0  0  0  0  0  0
  153.7880  138.2630  161.8860 C   0  0  0  0  0  0  0  0  0  0  0  0
  153.9696  139.4543  162.1413 O   0  0  0  0  0  0  0  0  0  0  0  0
  153.5484  137.7907  160.4395 C   0  0  0  0  0  0  0  0  0  0  0  0
  152.6323  138.6532  159.7021 N   0  0  0  0  0  0  0  0  0  0  0  0
  151.3364  138.1531  159.4227 C   0  0  0  0  0  0  0  0  0  0  0  0
  150.9687  137.0384  159.7979 O   0  0  0  0  0  0  0  0  0  0  0  0
  150.4889  139.0638  158.6625 C   0  0  0  0  0  0  0  0  0  0  0  0
  149.2607  138.6697  158.2856 F   0  0  0  0  0  0  0  0  0  0  0  0
  150.9234  140.2940  158.3137 C   0  0  0  0  0  0  0  0  0  0  0  0
  152.1694  140.7891  158.6647 N   0  0  0  0  0  0  0  0  0  0  0  0
  152.6537  142.1404  158.1792 C   0  0  2  0  0  0  0  0  0  0  0  0
  153.1688  143.0646  159.2965 C   0  0  0  0  0  0  0  0  0  0  0  0
  152.0393  144.0667  159.4357 C   0  0  0  0  0  0  0  0  0  0  0  0
  151.4970  144.1189  158.0129 C   0  0  0  0  0  0  0  0  0  0  0  0
  151.5747  142.7738  157.5589 O   0  0  0  0  0  0  0  0  0  0  0  0
  153.0848  139.9438  159.3332 C   0  0  0  0  0  0  0  0  0  0  0  0
  154.2279  140.3264  159.5941 O   0  0  0  0  0  0  0  0  0  0  0  0
  154.2271  135.9024  162.7126 C   0  0  0  0  0  0  0  0  0  0  0  0
  154.8240  135.2746  161.4832 C   0  0  0  0  0  0  0  0  0  0  0  0
  152.3416  129.8196  165.2047 H   0  0  0  0  0  0  0  0  0  0  0  0
  151.2731  130.9436  164.3757 H   0  0  0  0  0  0  0  0  0  0  0  0
  151.7017  131.2112  166.0736 H   0  0  0  0  0  0  0  0  0  0  0  0
  152.1837  133.2164  163.9282 H   0  0  0  0  0  0  0  0  0  0  0  0
  152.6835  133.3585  165.5876 H   0  0  0  0  0  0  0  0  0  0  0  0
  154.6006  133.3284  163.2240 H   0  0  0  0  0  0  0  0  0  0  0  0
  155.8286  132.4932  165.0240 H   0  0  0  0  0  0  0  0  0  0  0  0
  155.2810  133.7158  166.1407 H   0  0  0  0  0  0  0  0  0  0  0  0
  156.3403  134.1579  164.8015 H   0  0  0  0  0  0  0  0  0  0  0  0
  152.9580  136.5519  166.8699 H   0  0  0  0  0  0  0  0  0  0  0  0
  154.0845  135.2067  166.7419 H   0  0  0  0  0  0  0  0  0  0  0  0
  152.3811  134.9840  166.3154 H   0  0  0  0  0  0  0  0  0  0  0  0
  152.9919  138.1693  164.7696 H   0  0  0  0  0  0  0  0  0  0  0  0
  154.4864  137.7363  159.8853 H   0  0  0  0  0  0  0  0  0  0  0  0
  153.1448  136.7771  160.4215 H   0  0  0  0  0  0  0  0  0  0  0  0
  150.2523  140.9025  157.7292 H   0  0  0  0  0  0  0  0  0  0  0  0
  153.4511  141.9392  157.4623 H   0  0  0  0  0  0  0  0  0  0  0  0
  153.4324  142.5362  160.2124 H   0  0  0  0  0  0  0  0  0  0  0  0
  154.0648  143.5685  158.9315 H   0  0  0  0  0  0  0  0  0  0  0  0
  151.2726  143.6947  160.1157 H   0  0  0  0  0  0  0  0  0  0  0  0
  152.3739  145.0385  159.7992 H   0  0  0  0  0  0  0  0  0  0  0  0
  150.4775  144.5013  157.9626 H   0  0  0  0  0  0  0  0  0  0  0  0
  152.1303  144.7458  157.3834 H   0  0  0  0  0  0  0  0  0  0  0  0
  155.3776  136.0007  160.8902 H   0  0  0  0  0  0  0  0  0  0  0  0
  154.0469  134.8463  160.8502 H   0  0  0  0  0  0  0  0  0  0  0  0
  155.5436  134.4968  161.7205 H   0  0  0  0  0  0  0  0  0  0  0  0
  1  2  1  0  0  0  0
  1 30  1  0  0  0  0
  1 31  1  0  0  0  0
  1 32  1  0  0  0  0
  2  3  1  0  0  0  0
  3  4  1  0  0  0  0
  3 33  1  0  0  0  0
  3 34  1  0  0  0  0
  4  5  1  0  0  0  0
  4  6  1  0  0  0  0
  4 35  1  0  0  0  0
  5 36  1  0  0  0  0
  5 37  1  0  0  0  0
  5 38  1  0  0  0  0
  6 28  1  0  0  0  0
  6  7  1  0  0  0  0
  7  8  1  0  0  0  0
  7  9  2  0  0  0  0
  8 39  1  0  0  0  0
  8 40  1  0  0  0  0
  8 41  1  0  0  0  0
  9 10  1  0  0  0  0
  9 42  1  0  0  0  0
 10 11  1  0  0  0  0
 10 28  2  0  0  0  0
 11 12  2  0  0  0  0
 11 13  1  0  0  0  0
 13 14  1  0  0  0  0
 13 43  1  0  0  0  0
 13 44  1  0  0  0  0
 14 26  1  0  0  0  0
 14 15  1  0  0  0  0
 15 16  2  0  0  0  0
 15 17  1  0  0  0  0
 17 18  1  0  0  0  0
 17 19  2  0  0  0  0
 19 20  1  0  0  0  0
 19 45  1  0  0  0  0
 20 21  1  0  0  0  0
 20 26  1  0  0  0  0
 21 25  1  0  0  0  0
 21 22  1  0  0  0  0
 21 46  1  0  0  0  0
 22 23  1  0  0  0  0
 22 47  1  0  0  0  0
 22 48  1  0  0  0  0
 23 24  1  0  0  0  0
 23 49  1  0  0  0  0
 23 50  1  0  0  0  0
 24 25  1  0  0  0  0
 24 51  1  0  0  0  0
 24 52  1  0  0  0  0
 26 27  2  0  0  0  0
 28 29  1  0  0  0  0
 29 53  1  0  0  0  0
 29 54  1  0  0  0  0
 29 55  1  0  0  0  0
M  END
> <s_m_source_file>
AV-unprocessed.smi

> <i_m_source_file_index>
115

> <i_lp_mmshare_version>
43012

> <i_f3d_flags>
0

> <s_epik_input>
W0NIM11PW0NIMl1bQ0BIXShbQ0gzXSluMWMoW0NIM10pW2NIXWMoYzFbQ0gzXSlDKD1PKVtDSDJdbjJjKD1PKWMoRilbY0hdbihjMj1PKVtDQEBIXTNbQ0gyXVtDSDJdW0NIMl1PMw==

> <s_epik_cmdline>
J2VwaWtfcHl0aG9uJywgJy1waCcsICc3LjAnLCAnLXRuJywgJzgnLCAnLW1hJywgJzIwMCcsICctbWV0YWxfYmluZGluZycsICctaW1hZScsICc8aW5maWxlLm1hZT4nLCAnLW9tYWUnLCAnPG91dGZpbGUubWFlPic=

> <r_lp_tautomer_probability>
1

> <r_epik_Ionization_Penalty>
5.02611e-09

> <r_epik_Ionization_Penalty_Charging>
5.01743e-09

> <r_epik_Ionization_Penalty_Neutral>
8.68114e-12

> <r_epik_State_Penalty>
-0

> <r_epik_Charging_Adjusted_Penalty>
5.01743e-09

> <i_epik_Tot_Q>
0

> <i_epik_Tot_abs_Q>
0

> <r_epik_Metal_State_Penalty>
-0

> <b_epik_Metal_Only>
0

> <s_epik_Chemistry_Notes>
This compound contains an acetal/aminal-like group ( X-CH(R)-Y where X, Y are N, S, or O) that may be acid/base labile, releasing an aldehyde.

> <s_lp_Force_Field>
OPLS_2005

> <r_lp_Energy>
47.9533

> <b_lp_Chiralities_Consistent>
1

> <s_lp_Variant>
AV-unprocessed.smi:115-1

> <Gold.Version>
5.8.1

> <Gold.Id.Protein>
6NUR|6NUR_protein|mol2

> <Gold.PLP.Fitness>
48.1640

> <Gold.PLP.PLP>
-44.8592

> <Gold.PLP.part.hbond>
-1.9739

> <Gold.PLP.part.metal>
0.0000

> <Gold.PLP.part.buried>
-1.7180

> <Gold.PLP.part.nonpolar>
-40.1849

> <Gold.PLP.part.repulsive>
0.0771

> <Gold.PLP.ligand.clash>
0.0000

> <Gold.PLP.ligand.torsion>
0.9790

> <Gold.PLP.Chemscore.Hbond>
1.5863

> <Gold.PLP.Chemscore.CHOScore>
0.0000

> <Gold.PLP.Chemscore.Metal>
0.0000

> <Gold.Chemscore.Hbonds>
donor molecule, donor type, donor heavy atom, donor atom, acceptor molecule, acceptor atom, score
      P1  H  6896  6907       L1    16  1.00

> <Gold.PLP.Chemscore.Internal.Correction>
0.5040

> <Gold.Rescore>
     Score         DG    S(hbond)    S(metal)    S(lipo)     H(rot)  DE(clash)    DE(int)     intcor
     14.76     -17.49       1.88        0.00      96.97       2.19       0.54       2.18       ----

> <Gold.Chemscore.Fitness>
14.7621

> <Gold.Chemscore.DG>
-17.4851

> <Gold.Chemscore.ZeroCoef>
-5.4800

> <Gold.Chemscore.Hbond>
1.8790

> <Gold.Chemscore.Metal>
0.0000

> <Gold.Chemscore.Lipo>
96.9693

> <Gold.Chemscore.Internal_Hbond>
0.0000

> <Gold.Chemscore.DEClash>
0.5385

> <Gold.Chemscore.DEInternal>
2.1845

> <Gold.Chemscore.Rot>
2.1938

> <Gold.Chemscore.Internal.Correction>
   9.000000E+99

> <Gold.Chemscore.Hbonds>
donor molecule, donor type, donor heavy atom, donor atom, acceptor molecule, acceptor atom, score
      P1  H  6896  6907       L1    16  0.97
      P1  H  7997  8010       L1    27  0.01

> <Gold.Chemscore.Hbond.Weighted>
-6.2757

> <Gold.Chemscore.Metal.Weighted>
-0.0000

> <Gold.Chemscore.Lipo.Weighted>
-11.3454

> <Gold.Chemscore.Internal_Hbond.Weighted>
0.0000

> <Gold.Chemscore.DEClash.Weighted>
0.5385

> <Gold.Chemscore.DEInternal.Weighted>
2.1845

> <Gold.Chemscore.Rot.Weighted>
5.6160

> <Gold.Chemscore.Internal.Correction.Weighted>
   9.000000E+99

> <Gold.Protein.RotatedTorsions>
[ 6907 6896 6895 6894 ] final  -30.16 input  -60.11 | X-H torsion
[ 7974 7965 7964 7962 ] final  -82.19 input  175.53 | X-H torsion
[ 8008 7997 7996 7995 ] final    0.37 input   59.86 | X-H torsion
[ 10167 10162 10161 10158 ] final   88.58 input  -65.29 | X-H torsion
[ 10718 10713 10712 10709 ] final -122.11 input   66.30 | X-H torsion
[ 10763 10752 10751 10750 ] final  112.66 input  -60.55 | X-H torsion
[ 11005 11000 10999 10996 ] final   43.26 input  -57.11 | X-H torsion

> <Gold.Protein.ActiveResidues>
 VAL166  LYS551  ARG553  GLY616  TRP617  ASP618  TYR619  PRO620  LYS621  CYS622 
 ASP623  PHE694  ASN695  SER759  ASP760  ASP761  ALA762  ILE779  LEU786  VAL792 
 PHE793  MET794  SER795  GLU796  ALA797  LYS798  CYS799  TRP800  GLU811  SER814 

> <Gold.Protein.RotatedAtoms>
  151.1093  135.0017  159.8486 H   0  0  0  0  0  0  0  0  0  0  0  0  # atno 6907 bound_to 6896
  152.5442  134.1855  159.8663 H   0  0  0  0  0  0  0  0  0  0  0  0  # atno 6908 bound_to 6896
  151.1904  133.4626  159.2628 H   0  0  0  0  0  0  0  0  0  0  0  0  # atno 6909 bound_to 6896
  145.5367  140.9515  143.1573 H   0  0  0  0  0  0  0  0  0  0  0  0  # atno 7974 bound_to 7965
  154.6673  140.2604  155.7045 H   0  0  0  0  0  0  0  0  0  0  0  0  # atno 8008 bound_to 7997
  156.2644  140.2836  156.1090 H   0  0  0  0  0  0  0  0  0  0  0  0  # atno 8009 bound_to 7997
  155.1220  140.0377  157.2742 H   0  0  0  0  0  0  0  0  0  0  0  0  # atno 8010 bound_to 7997
  139.8659  144.6519  150.9005 H   0  0  0  0  0  0  0  0  0  0  0  0  # atno 10167 bound_to 10162
  156.1392  130.6453  150.9744 H   0  0  0  0  0  0  0  0  0  0  0  0  # atno 10718 bound_to 10713
  153.4811  135.3679  155.2442 H   0  0  0  0  0  0  0  0  0  0  0  0  # atno 10763 bound_to 10752
  154.8755  135.3954  154.3699 H   0  0  0  0  0  0  0  0  0  0  0  0  # atno 10764 bound_to 10752
  153.4303  135.7082  153.6300 H   0  0  0  0  0  0  0  0  0  0  0  0  # atno 10765 bound_to 10752
  140.1661  134.4280  155.8286 H   0  0  0  0  0  0  0  0  0  0  0  0  # atno 11005 bound_to 11000
  144.7598  139.6985  143.7239 LP  0  0  0  0  0  0  0  0  0  0  0  0  # atno 17320 bound_to 7965
  146.2008  139.5302  142.9744 LP  0  0  0  0  0  0  0  0  0  0  0  0  # atno 17321 bound_to 7965
  140.7768  143.3705  151.1659 LP  0  0  0  0  0  0  0  0  0  0  0  0  # atno 17342 bound_to 10162
  139.7330  143.9043  152.3025 LP  0  0  0  0  0  0  0  0  0  0  0  0  # atno 17343 bound_to 10162
  157.6560  131.0889  150.7946 LP  0  0  0  0  0  0  0  0  0  0  0  0  # atno 17370 bound_to 10713
  156.8023  130.4925  149.5368 LP  0  0  0  0  0  0  0  0  0  0  0  0  # atno 17371 bound_to 10713
  141.2214  133.6935  156.7681 LP  0  0  0  0  0  0  0  0  0  0  0  0  # atno 17394 bound_to 11000
  140.2432  134.8598  157.3594 LP  0  0  0  0  0  0  0  0  0  0  0  0  # atno 17395 bound_to 11000

$$$$
