AV-unprocessed.smi:1974|AV-procd|sdf|7981|dock5
  -GOLD-   2272010163D 1   1.00000     0.00000
 Structure written by MMmdl.
 34 35  0  0  0  0  0  0  0  0  1 V2000
  150.8641  143.5806  158.0490 C   0  0  0  0  0  0  0  0  0  0  0  0
  151.1820  142.3985  157.1203 C   0  0  1  0  0  0  0  0  0  0  0  0
  151.2996  141.0791  157.9075 C   0  0  0  0  0  0  0  0  0  0  0  0
  152.4493  141.0668  158.7951 N   0  0  0  0  0  0  0  0  0  0  0  0
  152.7682  141.9634  159.7929 C   0  0  0  0  0  0  0  0  0  0  0  0
  153.9435  141.5487  160.3509 C   0  0  0  0  0  0  0  0  0  0  0  0
  154.2699  140.3736  159.6176 C   0  0  0  0  0  0  0  0  0  0  0  0
  153.3734  140.0874  158.6873 N   0  0  0  0  0  0  0  0  0  0  0  0
  150.1476  142.2813  156.0946 N   0  0  0  0  0  0  0  0  0  0  0  0
  150.0576  141.2981  155.1868 C   0  0  0  0  0  0  0  0  0  0  0  0
  150.8532  140.3597  155.1248 O   0  0  0  0  0  0  0  0  0  0  0  0
  148.8711  141.3855  154.2187 C   0  0  0  0  0  0  0  0  0  0  0  0
  147.6709  141.9564  154.8333 N   0  0  0  0  0  0  0  0  0  0  0  0
  146.9362  142.9995  154.1284 C   0  0  0  0  0  0  0  0  0  0  0  0
  145.5731  143.1553  154.8058 C   0  0  0  0  0  0  0  0  0  0  0  0
  145.7251  142.5336  156.4922 S   0  0  0  0  0  0  0  0  0  0  0  0
  147.2203  141.6186  156.1031 C   0  0  0  0  0  0  0  0  0  0  0  0
  147.7268  140.8223  156.8918 O   0  0  0  0  0  0  0  0  0  0  0  0
  151.6330  143.6962  158.8134 H   0  0  0  0  0  0  0  0  0  0  0  0
  149.9088  143.4416  158.5564 H   0  0  0  0  0  0  0  0  0  0  0  0
  150.8127  144.5176  157.4932 H   0  0  0  0  0  0  0  0  0  0  0  0
  152.1442  142.5923  156.6422 H   0  0  0  0  0  0  0  0  0  0  0  0
  150.4080  140.9273  158.5172 H   0  0  0  0  0  0  0  0  0  0  0  0
  151.3595  140.2266  157.2286 H   0  0  0  0  0  0  0  0  0  0  0  0
  152.1404  142.8130  160.0182 H   0  0  0  0  0  0  0  0  0  0  0  0
  154.4875  142.0141  161.1594 H   0  0  0  0  0  0  0  0  0  0  0  0
  155.1256  139.7247  159.7329 H   0  0  0  0  0  0  0  0  0  0  0  0
  149.4412  143.0029  156.0805 H   0  0  0  0  0  0  0  0  0  0  0  0
  149.1722  141.9864  153.3600 H   0  0  0  0  0  0  0  0  0  0  0  0
  148.6370  140.3922  153.8313 H   0  0  0  0  0  0  0  0  0  0  0  0
  147.5031  143.9285  154.2019 H   0  0  0  0  0  0  0  0  0  0  0  0
  146.8223  142.7649  153.0694 H   0  0  0  0  0  0  0  0  0  0  0  0
  145.2229  144.1876  154.7958 H   0  0  0  0  0  0  0  0  0  0  0  0
  144.8299  142.5465  154.2901 H   0  0  0  0  0  0  0  0  0  0  0  0
  1  2  1  0  0  0  0
  1 19  1  0  0  0  0
  1 20  1  0  0  0  0
  1 21  1  0  0  0  0
  2  3  1  0  0  0  0
  2  9  1  0  0  0  0
  2 22  1  0  0  0  0
  3  4  1  0  0  0  0
  3 23  1  0  0  0  0
  3 24  1  0  0  0  0
  4  8  1  0  0  0  0
  4  5  1  0  0  0  0
  5  6  2  0  0  0  0
  5 25  1  0  0  0  0
  6  7  1  0  0  0  0
  6 26  1  0  0  0  0
  7  8  2  0  0  0  0
  7 27  1  0  0  0  0
  9 10  1  0  0  0  0
  9 28  1  0  0  0  0
 10 11  2  0  0  0  0
 10 12  1  0  0  0  0
 12 13  1  0  0  0  0
 12 29  1  0  0  0  0
 12 30  1  0  0  0  0
 13 17  1  0  0  0  0
 13 14  1  0  0  0  0
 14 15  1  0  0  0  0
 14 31  1  0  0  0  0
 14 32  1  0  0  0  0
 15 16  1  0  0  0  0
 15 33  1  0  0  0  0
 15 34  1  0  0  0  0
 16 17  1  0  0  0  0
 17 18  2  0  0  0  0
M  END
> <s_m_source_file>
AV-unprocessed.smi

> <i_m_source_file_index>
1974

> <i_lp_mmshare_version>
43012

> <i_f3d_flags>
0

> <s_epik_input>
bjFbY0hdW2NIXVtjSF1uMVtDSDJdW0NAQEhdKFtDSDNdKVtOSF1DKD1PKVtDSDJdTjJbQ0gyXVtDSDJdU0MyPU8=

> <s_epik_cmdline>
J2VwaWtfcHl0aG9uJywgJy1waCcsICc3LjAnLCAnLXRuJywgJzgnLCAnLW1hJywgJzIwMCcsICctbWV0YWxfYmluZGluZycsICctaW1hZScsICc8aW5maWxlLm1hZT4nLCAnLW9tYWUnLCAnPG91dGZpbGUubWFlPic=

> <r_lp_tautomer_probability>
1

> <r_epik_Ionization_Penalty>
0.000283364

> <r_epik_Ionization_Penalty_Charging>
0

> <r_epik_Ionization_Penalty_Neutral>
0.000283364

> <r_epik_State_Penalty>
-0

> <r_epik_Charging_Adjusted_Penalty>
0

> <i_epik_Tot_Q>
0

> <i_epik_Tot_abs_Q>
0

> <r_epik_Metal_State_Penalty>
-0

> <b_epik_Metal_Only>
0

> <s_lp_Force_Field>
OPLS_2005

> <r_lp_Energy>
3.37474

> <b_lp_Chiralities_Consistent>
1

> <s_lp_Variant>
AV-unprocessed.smi:1974-2

> <Gold.Version>
5.8.1

> <Gold.Id.Protein>
6NUR|6NUR_protein|mol2

> <Gold.PLP.Fitness>
43.9416

> <Gold.PLP.PLP>
-36.8826

> <Gold.PLP.part.hbond>
-3.0000

> <Gold.PLP.part.metal>
0.0000

> <Gold.PLP.part.buried>
-2.1433

> <Gold.PLP.part.nonpolar>
-30.8718

> <Gold.PLP.part.repulsive>
0.1776

> <Gold.PLP.ligand.clash>
0.0000

> <Gold.PLP.ligand.torsion>
0.6322

> <Gold.PLP.Chemscore.Hbond>
2.7600

> <Gold.PLP.Chemscore.CHOScore>
0.0000

> <Gold.PLP.Chemscore.Metal>
0.0000

> <Gold.Chemscore.Hbonds>
donor molecule, donor type, donor heavy atom, donor atom, acceptor molecule, acceptor atom, score
      L1  H     9    28       P1  8028  1.00
      P1  H  7989  7998       L1    11  0.80
      P1  H  7997  8009       L1     8  0.78

> <Gold.PLP.Chemscore.Internal.Correction>
0.0435

> <Gold.Rescore>
     Score         DG    S(hbond)    S(metal)    S(lipo)     H(rot)  DE(clash)    DE(int)     intcor
     10.12     -12.66       1.07        0.00      75.41       2.04       0.12       2.42       ----

> <Gold.Chemscore.Fitness>
10.1201

> <Gold.Chemscore.DG>
-12.6559

> <Gold.Chemscore.ZeroCoef>
-5.4800

> <Gold.Chemscore.Hbond>
1.0710

> <Gold.Chemscore.Metal>
0.0000

> <Gold.Chemscore.Lipo>
75.4059

> <Gold.Chemscore.Internal_Hbond>
0.0000

> <Gold.Chemscore.DEClash>
0.1169

> <Gold.Chemscore.DEInternal>
2.4189

> <Gold.Chemscore.Rot>
2.0405

> <Gold.Chemscore.Internal.Correction>
   9.000000E+99

> <Gold.Chemscore.Hbonds>
donor molecule, donor type, donor heavy atom, donor atom, acceptor molecule, acceptor atom, score
      L1  H     9    28       P1  8028  0.95
      P1  H  7989  7998       L1    11  0.12
      P1  H  7997  8009       L1     8  0.10

> <Gold.Chemscore.Hbond.Weighted>
-3.5772

> <Gold.Chemscore.Metal.Weighted>
-0.0000

> <Gold.Chemscore.Lipo.Weighted>
-8.8225

> <Gold.Chemscore.Internal_Hbond.Weighted>
0.0000

> <Gold.Chemscore.DEClash.Weighted>
0.1169

> <Gold.Chemscore.DEInternal.Weighted>
2.4189

> <Gold.Chemscore.Rot.Weighted>
5.2237

> <Gold.Chemscore.Internal.Correction.Weighted>
   9.000000E+99

> <Gold.Protein.RotatedTorsions>
[ 6907 6896 6895 6894 ] final -164.11 input  -60.11 | X-H torsion
[ 7974 7965 7964 7962 ] final   52.37 input  175.53 | X-H torsion
[ 8008 7997 7996 7995 ] final  148.02 input   59.86 | X-H torsion
[ 10167 10162 10161 10158 ] final   34.08 input  -65.29 | X-H torsion
[ 10718 10713 10712 10709 ] final -158.01 input   66.30 | X-H torsion
[ 10763 10752 10751 10750 ] final  -26.26 input  -60.55 | X-H torsion
[ 11005 11000 10999 10996 ] final   72.75 input  -57.11 | X-H torsion

> <Gold.Protein.ActiveResidues>
 VAL166  LYS551  ARG553  GLY616  TRP617  ASP618  TYR619  PRO620  LYS621  CYS622 
 ASP623  PHE694  ASN695  SER759  ASP760  ASP761  ALA762  ILE779  LEU786  VAL792 
 PHE793  MET794  SER795  GLU796  ALA797  LYS798  CYS799  TRP800  GLU811  SER814 

> <Gold.Protein.RotatedAtoms>
  151.4066  133.3740  159.2738 H   0  0  0  0  0  0  0  0  0  0  0  0  # atno 6907 bound_to 6896
  150.9394  134.8805  159.7613 H   0  0  0  0  0  0  0  0  0  0  0  0  # atno 6908 bound_to 6896
  152.5064  134.4015  159.9470 H   0  0  0  0  0  0  0  0  0  0  0  0  # atno 6909 bound_to 6896
  145.9820  139.4252  143.0126 H   0  0  0  0  0  0  0  0  0  0  0  0  # atno 7974 bound_to 7965
  156.2805  140.2140  156.5631 H   0  0  0  0  0  0  0  0  0  0  0  0  # atno 8008 bound_to 7997
  154.7197  140.0504  157.0650 H   0  0  0  0  0  0  0  0  0  0  0  0  # atno 8009 bound_to 7997
  155.0495  140.3154  155.4700 H   0  0  0  0  0  0  0  0  0  0  0  0  # atno 8010 bound_to 7997
  140.4348  144.1272  150.6165 H   0  0  0  0  0  0  0  0  0  0  0  0  # atno 10167 bound_to 10162
  156.5482  130.8593  151.2771 H   0  0  0  0  0  0  0  0  0  0  0  0  # atno 10718 bound_to 10713
  153.7130  135.6949  153.5032 H   0  0  0  0  0  0  0  0  0  0  0  0  # atno 10763 bound_to 10752
  153.2258  135.4354  155.0540 H   0  0  0  0  0  0  0  0  0  0  0  0  # atno 10764 bound_to 10752
  154.8309  135.3472  154.6666 H   0  0  0  0  0  0  0  0  0  0  0  0  # atno 10765 bound_to 10752
  139.9475  134.7287  156.0944 H   0  0  0  0  0  0  0  0  0  0  0  0  # atno 11005 bound_to 11000
  145.7755  140.9878  143.1127 LP  0  0  0  0  0  0  0  0  0  0  0  0  # atno 17320 bound_to 7965
  144.6864  139.9500  143.7477 LP  0  0  0  0  0  0  0  0  0  0  0  0  # atno 17321 bound_to 7965
  140.4386  143.2536  151.9503 LP  0  0  0  0  0  0  0  0  0  0  0  0  # atno 17342 bound_to 10162
  139.4786  144.5676  151.8139 LP  0  0  0  0  0  0  0  0  0  0  0  0  # atno 17343 bound_to 10162
  157.7392  130.9828  150.2302 LP  0  0  0  0  0  0  0  0  0  0  0  0  # atno 17370 bound_to 10713
  156.2909  130.3745  149.7842 LP  0  0  0  0  0  0  0  0  0  0  0  0  # atno 17371 bound_to 10713
  141.1129  133.6637  156.3023 LP  0  0  0  0  0  0  0  0  0  0  0  0  # atno 17394 bound_to 11000
  140.5799  134.5756  157.5477 LP  0  0  0  0  0  0  0  0  0  0  0  0  # atno 17395 bound_to 11000

$$$$
