AV-unprocessed.smi:1047|AV-procd|sdf|4564|dock10
  -GOLD-   22720 3 13D 1   1.00000     0.00000
 Structure written by MMmdl.
 57 59  0  0  0  0  0  0  0  0  3 V2000
  147.7943  132.9421  153.0628 C   0  0  0  0  0  0  0  0  0  0  0  0
  147.2533  134.0560  153.9707 C   0  0  0  0  0  0  0  0  0  0  0  0
  146.8895  135.2840  153.2196 N   0  3  1  0  0  0  0  0  0  0  0  0
  145.6212  135.1254  152.4684 C   0  0  0  0  0  0  0  0  0  0  0  0
  145.3085  136.3946  151.6583 C   0  0  0  0  0  0  0  0  0  0  0  0
  145.2517  137.5187  152.5287 O   0  0  0  0  0  0  0  0  0  0  0  0
  146.4856  137.7394  153.2036 C   0  0  1  0  0  0  0  0  0  0  0  0
  146.3861  139.0428  154.0146 C   0  0  0  0  0  0  0  0  0  0  0  0
  146.4982  140.2427  153.1591 N   0  3  0  0  0  0  0  0  0  0  0  0
  147.3848  141.2884  153.7058 C   0  0  0  0  0  0  0  0  0  0  0  0
  148.5979  140.6752  154.4312 C   0  0  1  0  0  0  0  0  0  0  0  0
  149.4387  140.0686  153.4686 O   0  0  0  0  0  0  0  0  0  0  0  0
  149.4154  141.7051  155.2417 C   0  0  0  0  0  0  0  0  0  0  0  0
  150.2127  141.1088  156.3017 N   0  0  0  0  0  0  0  0  0  0  0  0
  150.4280  139.7962  156.5164 C   0  0  0  0  0  0  0  0  0  0  0  0
  151.2035  139.4658  157.5443 N   0  0  0  0  0  0  0  0  0  0  0  0
  151.5225  140.7082  158.0638 C   0  0  0  0  0  0  0  0  0  0  0  0
  152.3234  141.0599  159.1720 C   0  0  0  0  0  0  0  0  0  0  0  0
  152.5147  142.4140  159.5275 C   0  0  0  0  0  0  0  0  0  0  0  0
  153.3811  142.7459  160.7295 C   0  0  0  0  0  0  0  0  0  0  0  0
  151.8984  143.4416  158.7694 C   0  0  0  0  0  0  0  0  0  0  0  0
  152.0860  144.9031  159.1359 C   0  0  0  0  0  0  0  0  0  0  0  0
  151.0966  143.1079  157.6580 C   0  0  0  0  0  0  0  0  0  0  0  0
  150.9147  141.7567  157.3132 C   0  0  0  0  0  0  0  0  0  0  0  0
  146.8415  136.5062  154.0608 C   0  0  0  0  0  0  0  0  0  0  0  0
  147.9473  132.0260  153.6339 H   0  0  0  0  0  0  0  0  0  0  0  0
  148.7536  133.2054  152.6177 H   0  0  0  0  0  0  0  0  0  0  0  0
  147.0973  132.7143  152.2559 H   0  0  0  0  0  0  0  0  0  0  0  0
  146.3638  133.6741  154.4735 H   0  0  0  0  0  0  0  0  0  0  0  0
  147.9732  134.2950  154.7548 H   0  0  0  0  0  0  0  0  0  0  0  0
  145.6937  134.2712  151.7940 H   0  0  0  0  0  0  0  0  0  0  0  0
  144.8068  134.9158  153.1639 H   0  0  0  0  0  0  0  0  0  0  0  0
  146.0580  136.5567  150.8819 H   0  0  0  0  0  0  0  0  0  0  0  0
  144.3473  136.2900  151.1546 H   0  0  0  0  0  0  0  0  0  0  0  0
  147.2669  137.8804  152.4542 H   0  0  0  0  0  0  0  0  0  0  0  0
  145.4363  139.0696  154.5506 H   0  0  0  0  0  0  0  0  0  0  0  0
  147.1756  139.0701  154.7666 H   0  0  0  0  0  0  0  0  0  0  0  0
  146.8465  139.9648  152.2526 H   0  0  0  0  0  0  0  0  0  0  0  0
  147.7093  141.9432  152.8957 H   0  0  0  0  0  0  0  0  0  0  0  0
  146.8105  141.9001  154.4029 H   0  0  0  0  0  0  0  0  0  0  0  0
  148.2562  139.8961  155.1138 H   0  0  0  0  0  0  0  0  0  0  0  0
  149.1308  140.3069  152.6067 H   0  0  0  0  0  0  0  0  0  0  0  0
  150.0857  142.2500  154.5761 H   0  0  0  0  0  0  0  0  0  0  0  0
  148.7546  142.4520  155.6842 H   0  0  0  0  0  0  0  0  0  0  0  0
  149.9964  139.0401  155.8767 H   0  0  0  0  0  0  0  0  0  0  0  0
  152.7906  140.2769  159.7512 H   0  0  0  0  0  0  0  0  0  0  0  0
  152.7870  143.2335  161.5026 H   0  0  0  0  0  0  0  0  0  0  0  0
  154.1954  143.4126  160.4452 H   0  0  0  0  0  0  0  0  0  0  0  0
  153.8218  141.8474  161.1624 H   0  0  0  0  0  0  0  0  0  0  0  0
  151.5104  145.5557  158.4789 H   0  0  0  0  0  0  0  0  0  0  0  0
  153.1358  145.1850  159.0533 H   0  0  0  0  0  0  0  0  0  0  0  0
  151.7576  145.0865  160.1590 H   0  0  0  0  0  0  0  0  0  0  0  0
  150.6212  143.8820  157.0742 H   0  0  0  0  0  0  0  0  0  0  0  0
  146.1067  136.3651  154.8550 H   0  0  0  0  0  0  0  0  0  0  0  0
  147.8049  136.6721  154.5420 H   0  0  0  0  0  0  0  0  0  0  0  0
  145.5797  140.6469  153.0428 H   0  0  0  0  0  0  0  0  0  0  0  0
  147.6135  135.4247  152.5290 H   0  0  0  0  0  0  0  0  0  0  0  0
  1  2  1  0  0  0  0
  1 26  1  0  0  0  0
  1 27  1  0  0  0  0
  1 28  1  0  0  0  0
  2  3  1  0  0  0  0
  2 29  1  0  0  0  0
  2 30  1  0  0  0  0
  3 25  1  0  0  0  0
  3  4  1  0  0  0  0
  3 57  1  0  0  0  0
  4  5  1  0  0  0  0
  4 31  1  0  0  0  0
  4 32  1  0  0  0  0
  5  6  1  0  0  0  0
  5 33  1  0  0  0  0
  5 34  1  0  0  0  0
  6  7  1  0  0  0  0
  7  8  1  0  0  0  0
  7 25  1  0  0  0  0
  7 35  1  0  0  0  0
  8  9  1  0  0  0  0
  8 36  1  0  0  0  0
  8 37  1  0  0  0  0
  9 10  1  0  0  0  0
  9 38  1  0  0  0  0
  9 56  1  0  0  0  0
 10 11  1  0  0  0  0
 10 39  1  0  0  0  0
 10 40  1  0  0  0  0
 11 12  1  0  0  0  0
 11 13  1  0  0  0  0
 11 41  1  0  0  0  0
 12 42  1  0  0  0  0
 13 14  1  0  0  0  0
 13 43  1  0  0  0  0
 13 44  1  0  0  0  0
 14 24  1  0  0  0  0
 14 15  1  0  0  0  0
 15 16  2  0  0  0  0
 15 45  1  0  0  0  0
 16 17  1  0  0  0  0
 17 24  2  0  0  0  0
 17 18  1  0  0  0  0
 18 19  2  0  0  0  0
 18 46  1  0  0  0  0
 19 20  1  0  0  0  0
 19 21  1  0  0  0  0
 20 47  1  0  0  0  0
 20 48  1  0  0  0  0
 20 49  1  0  0  0  0
 21 22  1  0  0  0  0
 21 23  2  0  0  0  0
 22 50  1  0  0  0  0
 22 51  1  0  0  0  0
 22 52  1  0  0  0  0
 23 24  1  0  0  0  0
 23 53  1  0  0  0  0
 25 54  1  0  0  0  0
 25 55  1  0  0  0  0
M  CHG  1   3   1
M  CHG  1   9   1
M  END
> <s_m_source_file>
AV-unprocessed.smi

> <i_m_source_file_index>
1047

> <i_lp_mmshare_version>
43012

> <i_f3d_flags>
0

> <s_epik_input>
W0NIM11bQ0gyXU4xW0NIMl1bQ0gyXU9bQ0BIXShbQ0gyXTEpW0NIMl1bTkhdW0NIMl1bQ0BIXShbT0hdKVtDSDJdbihbY0hdbjIpYyhjMjMpW2NIXWMoW0NIM10pYyhbY0hdMylbQ0gzXQ==

> <s_epik_cmdline>
J2VwaWtfcHl0aG9uJywgJy1waCcsICc3LjAnLCAnLXRuJywgJzgnLCAnLW1hJywgJzIwMCcsICctbWV0YWxfYmluZGluZycsICctaW1hZScsICc8aW5maWxlLm1hZT4nLCAnLW9tYWUnLCAnPG91dGZpbGUubWFlPic=

> <r_epik_Ionization_Penalty>
0.528991

> <r_epik_Ionization_Penalty_Charging>
0.438567

> <r_epik_Ionization_Penalty_Neutral>
0.0904237

> <r_epik_State_Penalty>
0.533036

> <r_epik_Charging_Adjusted_Penalty>
0.971603

> <i_epik_Tot_Q>
2

> <i_epik_Tot_abs_Q>
2

> <r_epik_Metal_State_Penalty>
0.448985

> <b_epik_Metal_Only>
0

> <s_lp_Force_Field>
OPLS_2005

> <r_lp_Energy>
29.0334

> <b_lp_Chiralities_Consistent>
1

> <s_lp_Variant>
AV-unprocessed.smi:1047-5

> <Gold.Version>
5.8.1

> <Gold.Id.Protein>
6NUR|6NUR_protein|mol2

> <Gold.PLP.Fitness>
59.7030

> <Gold.PLP.PLP>
-46.7224

> <Gold.PLP.part.hbond>
-3.3235

> <Gold.PLP.part.metal>
0.0000

> <Gold.PLP.part.buried>
-4.9294

> <Gold.PLP.part.nonpolar>
-39.7442

> <Gold.PLP.part.repulsive>
0.2439

> <Gold.PLP.ligand.clash>
0.0000

> <Gold.PLP.ligand.torsion>
1.0918

> <Gold.PLP.Chemscore.Hbond>
5.0256

> <Gold.PLP.Chemscore.CHOScore>
0.0000

> <Gold.PLP.Chemscore.Metal>
0.0000

> <Gold.Chemscore.Hbonds>
donor molecule, donor type, donor heavy atom, donor atom, acceptor molecule, acceptor atom, score
      L1  H     3    57       P1  7948  2.00
      L1  H     9    56       P1 10175  2.00
      L1  H    12    42       P1  7957  0.70
      P1  H  7989  7998       L1    12  0.17

> <Gold.PLP.Chemscore.Internal.Correction>
0.0874

> <Gold.Rescore>
     Score         DG    S(hbond)    S(metal)    S(lipo)     H(rot)  DE(clash)    DE(int)     intcor
     21.15     -22.11       2.58        0.00     127.61       2.70       0.03       0.93       ----

> <Gold.Chemscore.Fitness>
21.1519

> <Gold.Chemscore.DG>
-22.1101

> <Gold.Chemscore.ZeroCoef>
-5.4800

> <Gold.Chemscore.Hbond>
2.5771

> <Gold.Chemscore.Metal>
0.0000

> <Gold.Chemscore.Lipo>
127.6126

> <Gold.Chemscore.Internal_Hbond>
0.0000

> <Gold.Chemscore.DEClash>
0.0321

> <Gold.Chemscore.DEInternal>
0.9261

> <Gold.Chemscore.Rot>
2.6985

> <Gold.Chemscore.Internal.Correction>
   9.000000E+99

> <Gold.Chemscore.Hbonds>
donor molecule, donor type, donor heavy atom, donor atom, acceptor molecule, acceptor atom, score
      L1  H     3    57       P1  7948  0.98
      L1  H     9    56       P1 10175  0.69
      L1  H    12    42       P1  7957  0.68
      P1  H  7989  7998       L1    12  0.05

> <Gold.Chemscore.Hbond.Weighted>
-8.6076

> <Gold.Chemscore.Metal.Weighted>
-0.0000

> <Gold.Chemscore.Lipo.Weighted>
-14.9307

> <Gold.Chemscore.Internal_Hbond.Weighted>
0.0000

> <Gold.Chemscore.DEClash.Weighted>
0.0321

> <Gold.Chemscore.DEInternal.Weighted>
0.9261

> <Gold.Chemscore.Rot.Weighted>
6.9081

> <Gold.Chemscore.Internal.Correction.Weighted>
   9.000000E+99

> <Gold.Protein.RotatedTorsions>
[ 6907 6896 6895 6894 ] final  -25.35 input  -60.11 | X-H torsion
[ 7974 7965 7964 7962 ] final  -63.68 input  175.53 | X-H torsion
[ 8008 7997 7996 7995 ] final    9.54 input   59.86 | X-H torsion
[ 10167 10162 10161 10158 ] final -165.04 input  -65.29 | X-H torsion
[ 10718 10713 10712 10709 ] final   64.88 input   66.30 | X-H torsion
[ 10763 10752 10751 10750 ] final  164.49 input  -60.55 | X-H torsion
[ 11005 11000 10999 10996 ] final  -18.04 input  -57.11 | X-H torsion

> <Gold.Protein.ActiveResidues>
 VAL166  LYS551  ARG553  GLY616  TRP617  ASP618  TYR619  PRO620  LYS621  CYS622 
 ASP623  PHE694  ASN695  SER759  ASP760  ASP761  ALA762  ILE779  LEU786  VAL792 
 PHE793  MET794  SER795  GLU796  ALA797  LYS798  CYS799  TRP800  GLU811  SER814 

> <Gold.Protein.RotatedAtoms>
  151.1765  135.0341  159.8773 H   0  0  0  0  0  0  0  0  0  0  0  0  # atno 6907 bound_to 6896
  152.5446  134.1111  159.8369 H   0  0  0  0  0  0  0  0  0  0  0  0  # atno 6908 bound_to 6896
  151.1223  133.5048  159.2634 H   0  0  0  0  0  0  0  0  0  0  0  0  # atno 6909 bound_to 6896
  145.7760  140.8787  143.0355 H   0  0  0  0  0  0  0  0  0  0  0  0  # atno 7974 bound_to 7965
  154.7813  140.2819  155.6061 H   0  0  0  0  0  0  0  0  0  0  0  0  # atno 8008 bound_to 7997
  156.2950  140.2622  156.2568 H   0  0  0  0  0  0  0  0  0  0  0  0  # atno 8009 bound_to 7997
  154.9780  140.0375  157.2254 H   0  0  0  0  0  0  0  0  0  0  0  0  # atno 8010 bound_to 7997
  139.6209  144.0626  152.1932 H   0  0  0  0  0  0  0  0  0  0  0  0  # atno 10167 bound_to 10162
  157.6069  130.9184  149.9903 H   0  0  0  0  0  0  0  0  0  0  0  0  # atno 10718 bound_to 10713
  154.3097  135.2757  155.2572 H   0  0  0  0  0  0  0  0  0  0  0  0  # atno 10763 bound_to 10752
  154.4972  135.5818  153.6507 H   0  0  0  0  0  0  0  0  0  0  0  0  # atno 10764 bound_to 10752
  152.9889  135.6149  154.3274 H   0  0  0  0  0  0  0  0  0  0  0  0  # atno 10765 bound_to 10752
  140.8228  133.8055  155.9677 H   0  0  0  0  0  0  0  0  0  0  0  0  # atno 11005 bound_to 11000
  144.6804  139.9922  143.7484 LP  0  0  0  0  0  0  0  0  0  0  0  0  # atno 17320 bound_to 7965
  146.0122  139.3179  143.0863 LP  0  0  0  0  0  0  0  0  0  0  0  0  # atno 17321 bound_to 7965
  140.0268  144.6111  150.7521 LP  0  0  0  0  0  0  0  0  0  0  0  0  # atno 17342 bound_to 10162
  140.7381  143.2774  151.3700 LP  0  0  0  0  0  0  0  0  0  0  0  0  # atno 17343 bound_to 10162
  156.1158  130.3648  149.9971 LP  0  0  0  0  0  0  0  0  0  0  0  0  # atno 17370 bound_to 10713
  156.8060  130.9308  151.3645 LP  0  0  0  0  0  0  0  0  0  0  0  0  # atno 17371 bound_to 10713
  140.9081  134.2295  157.5002 LP  0  0  0  0  0  0  0  0  0  0  0  0  # atno 17394 bound_to 11000
  139.8708  134.9737  156.4820 LP  0  0  0  0  0  0  0  0  0  0  0  0  # atno 17395 bound_to 11000

$$$$
