AV-unprocessed.smi:3308|AV-procd|sdf|12709|dock7
  -GOLD-   2272019 43D 1   1.00000     0.00000
 Structure written by MMmdl.
 41 42  0  0  0  0  0  0  0  0  2 V2000
  147.5434  133.4903  152.9606 C   0  0  0  0  0  0  0  0  0  0  0  0
  146.4335  134.5516  152.8529 C   0  0  1  0  0  0  0  0  0  0  0  0
  146.8780  135.7778  153.5526 N   0  3  0  0  0  0  0  0  0  0  0  0
  147.3239  135.5744  154.9480 C   0  0  0  0  0  0  0  0  0  0  0  0
  148.8479  135.6836  155.0963 C   0  0  0  0  0  0  0  0  0  0  0  0
  149.5087  134.6772  155.3584 O   0  0  0  0  0  0  0  0  0  0  0  0
  149.4189  136.8944  154.9313 N   0  0  0  0  0  0  0  0  0  0  0  0
  150.8583  137.1295  155.0284 C   0  0  0  0  0  0  0  0  0  0  0  0
  151.0804  138.5532  154.5169 C   0  0  0  0  0  0  0  0  0  0  0  0
  149.7510  139.2506  154.7688 C   0  0  0  0  0  0  0  0  0  0  0  0
  148.7110  138.1382  154.6281 C   0  0  0  0  0  0  0  0  0  0  0  0
  146.0405  134.8763  151.3860 C   0  0  2  0  0  0  0  0  0  0  0  0
  145.0334  136.0373  151.2774 C   0  0  0  0  0  0  0  0  0  0  0  0
  145.5292  133.7070  150.6817 N   0  0  0  0  0  0  0  0  0  0  0  0
  144.2907  133.5354  150.0979 C   0  0  0  0  0  0  0  0  0  0  0  0
  144.2614  132.2797  149.5630 C   0  0  0  0  0  0  0  0  0  0  0  0
  145.5437  131.7489  149.8747 C   0  0  0  0  0  0  0  0  0  0  0  0
  146.2996  132.6039  150.5445 N   0  0  0  0  0  0  0  0  0  0  0  0
  147.2295  132.5309  152.5489 H   0  0  0  0  0  0  0  0  0  0  0  0
  147.8167  133.3148  154.0016 H   0  0  0  0  0  0  0  0  0  0  0  0
  148.4431  133.8023  152.4291 H   0  0  0  0  0  0  0  0  0  0  0  0
  145.5582  134.1484  153.3659 H   0  0  0  0  0  0  0  0  0  0  0  0
  147.6496  136.1778  153.0378 H   0  0  0  0  0  0  0  0  0  0  0  0
  146.8469  136.3158  155.5901 H   0  0  0  0  0  0  0  0  0  0  0  0
  146.9996  134.5877  155.2815 H   0  0  0  0  0  0  0  0  0  0  0  0
  151.1615  137.0461  156.0730 H   0  0  0  0  0  0  0  0  0  0  0  0
  151.4345  136.4060  154.4492 H   0  0  0  0  0  0  0  0  0  0  0  0
  151.9194  139.0514  155.0037 H   0  0  0  0  0  0  0  0  0  0  0  0
  151.2821  138.5300  153.4451 H   0  0  0  0  0  0  0  0  0  0  0  0
  149.7333  139.6416  155.7870 H   0  0  0  0  0  0  0  0  0  0  0  0
  149.5746  140.0843  154.0884 H   0  0  0  0  0  0  0  0  0  0  0  0
  148.3370  138.0955  153.6043 H   0  0  0  0  0  0  0  0  0  0  0  0
  147.8650  138.3095  155.2950 H   0  0  0  0  0  0  0  0  0  0  0  0
  146.9459  135.1813  150.8588 H   0  0  0  0  0  0  0  0  0  0  0  0
  145.4522  136.9687  151.6583 H   0  0  0  0  0  0  0  0  0  0  0  0
  144.1206  135.8298  151.8369 H   0  0  0  0  0  0  0  0  0  0  0  0
  144.7523  136.2144  150.2387 H   0  0  0  0  0  0  0  0  0  0  0  0
  143.5403  134.3121  150.1107 H   0  0  0  0  0  0  0  0  0  0  0  0
  143.4472  131.8102  149.0310 H   0  0  0  0  0  0  0  0  0  0  0  0
  145.9441  130.7746  149.6362 H   0  0  0  0  0  0  0  0  0  0  0  0
  146.1184  136.4436  153.5506 H   0  0  0  0  0  0  0  0  0  0  0  0
  1  2  1  0  0  0  0
  1 19  1  0  0  0  0
  1 20  1  0  0  0  0
  1 21  1  0  0  0  0
  2  3  1  0  0  0  0
  2 12  1  0  0  0  0
  2 22  1  0  0  0  0
  3  4  1  0  0  0  0
  3 23  1  0  0  0  0
  3 41  1  0  0  0  0
  4  5  1  0  0  0  0
  4 24  1  0  0  0  0
  4 25  1  0  0  0  0
  5  6  2  0  0  0  0
  5  7  1  0  0  0  0
  7 11  1  0  0  0  0
  7  8  1  0  0  0  0
  8  9  1  0  0  0  0
  8 26  1  0  0  0  0
  8 27  1  0  0  0  0
  9 10  1  0  0  0  0
  9 28  1  0  0  0  0
  9 29  1  0  0  0  0
 10 11  1  0  0  0  0
 10 30  1  0  0  0  0
 10 31  1  0  0  0  0
 11 32  1  0  0  0  0
 11 33  1  0  0  0  0
 12 13  1  0  0  0  0
 12 14  1  0  0  0  0
 12 34  1  0  0  0  0
 13 35  1  0  0  0  0
 13 36  1  0  0  0  0
 13 37  1  0  0  0  0
 14 18  1  0  0  0  0
 14 15  1  0  0  0  0
 15 16  2  0  0  0  0
 15 38  1  0  0  0  0
 16 17  1  0  0  0  0
 16 39  1  0  0  0  0
 17 18  2  0  0  0  0
 17 40  1  0  0  0  0
M  CHG  1   3   1
M  END
> <s_m_source_file>
AV-unprocessed.smi

> <i_m_source_file_index>
3308

> <i_lp_mmshare_version>
43012

> <i_f3d_flags>
0

> <s_epik_input>
bjFbY0hdW2NIXVtjSF1uMVtDQEBIXShbQ0gzXSlbQ0BIXShbQ0gzXSlbTkhdW0NIMl1DKD1PKU4yW0NIMl1bQ0gyXVtDSDJdW0NIMl0y

> <s_epik_cmdline>
J2VwaWtfcHl0aG9uJywgJy1waCcsICc3LjAnLCAnLXRuJywgJzgnLCAnLW1hJywgJzIwMCcsICctbWV0YWxfYmluZGluZycsICctaW1hZScsICc8aW5maWxlLm1hZT4nLCAnLW9tYWUnLCAnPG91dGZpbGUubWFlPic=

> <r_lp_tautomer_probability>
1

> <r_epik_Ionization_Penalty>
0.141739

> <r_epik_Ionization_Penalty_Charging>
0.141731

> <r_epik_Ionization_Penalty_Neutral>
8.82171e-06

> <r_epik_State_Penalty>
0.131043

> <r_epik_Charging_Adjusted_Penalty>
0.272773

> <i_epik_Tot_Q>
1

> <i_epik_Tot_abs_Q>
1

> <r_epik_Metal_State_Penalty>
0.131385

> <b_epik_Metal_Only>
0

> <s_lp_Force_Field>
OPLS_2005

> <r_lp_Energy>
34.0204

> <b_lp_Chiralities_Consistent>
1

> <s_lp_Variant>
AV-unprocessed.smi:3308-2

> <Gold.Version>
5.8.1

> <Gold.Id.Protein>
6NUR|6NUR_protein|mol2

> <Gold.PLP.Fitness>
38.7288

> <Gold.PLP.PLP>
-30.6124

> <Gold.PLP.part.hbond>
-1.0000

> <Gold.PLP.part.metal>
0.0000

> <Gold.PLP.part.buried>
-2.8029

> <Gold.PLP.part.nonpolar>
-27.4575

> <Gold.PLP.part.repulsive>
0.2823

> <Gold.PLP.ligand.clash>
0.0000

> <Gold.PLP.ligand.torsion>
0.4853

> <Gold.PLP.Chemscore.Hbond>
2.0000

> <Gold.PLP.Chemscore.CHOScore>
1.0000

> <Gold.PLP.Chemscore.Metal>
0.0000

> <Gold.Chemscore.Hbonds>
donor molecule, donor type, donor heavy atom, donor atom, acceptor molecule, acceptor atom, score
      L1  H     3    23       P1  7948  2.00
      L1  C    15    38       P1 10186  0.85

> <Gold.PLP.Chemscore.Internal.Correction>
0.0871

> <Gold.Rescore>
     Score         DG    S(hbond)    S(metal)    S(lipo)     H(rot)  DE(clash)    DE(int)     intcor
     11.13     -13.03       1.00        0.00      75.04       1.78       0.04       1.86       ----

> <Gold.Chemscore.Fitness>
11.1306

> <Gold.Chemscore.DG>
-13.0262

> <Gold.Chemscore.ZeroCoef>
-5.4800

> <Gold.Chemscore.Hbond>
0.9978

> <Gold.Chemscore.Metal>
0.0000

> <Gold.Chemscore.Lipo>
75.0377

> <Gold.Chemscore.Internal_Hbond>
0.0000

> <Gold.Chemscore.DEClash>
0.0358

> <Gold.Chemscore.DEInternal>
1.8597

> <Gold.Chemscore.Rot>
1.7836

> <Gold.Chemscore.Internal.Correction>
   9.000000E+99

> <Gold.Chemscore.Hbonds>
donor molecule, donor type, donor heavy atom, donor atom, acceptor molecule, acceptor atom, score
      L1  H     3    23       P1  7948  0.99

> <Gold.Chemscore.Hbond.Weighted>
-3.3327

> <Gold.Chemscore.Metal.Weighted>
-0.0000

> <Gold.Chemscore.Lipo.Weighted>
-8.7794

> <Gold.Chemscore.Internal_Hbond.Weighted>
0.0000

> <Gold.Chemscore.DEClash.Weighted>
0.0358

> <Gold.Chemscore.DEInternal.Weighted>
1.8597

> <Gold.Chemscore.Rot.Weighted>
4.5660

> <Gold.Chemscore.Internal.Correction.Weighted>
   9.000000E+99

> <Gold.Protein.RotatedTorsions>
[ 6907 6896 6895 6894 ] final  179.70 input  -60.11 | X-H torsion
[ 7974 7965 7964 7962 ] final   71.92 input  175.53 | X-H torsion
[ 8008 7997 7996 7995 ] final  -86.63 input   59.86 | X-H torsion
[ 10167 10162 10161 10158 ] final   -4.61 input  -65.29 | X-H torsion
[ 10718 10713 10712 10709 ] final  117.89 input   66.30 | X-H torsion
[ 10763 10752 10751 10750 ] final  112.71 input  -60.55 | X-H torsion
[ 11005 11000 10999 10996 ] final  153.13 input  -57.11 | X-H torsion

> <Gold.Protein.ActiveResidues>
 VAL166  LYS551  ARG553  GLY616  TRP617  ASP618  TYR619  PRO620  LYS621  CYS622 
 ASP623  PHE694  ASN695  SER759  ASP760  ASP761  ALA762  ILE779  LEU786  VAL792 
 PHE793  MET794  SER795  GLU796  ALA797  LYS798  CYS799  TRP800  GLU811  SER814 

> <Gold.Protein.RotatedAtoms>
  151.6674  133.3315  159.3188 H   0  0  0  0  0  0  0  0  0  0  0  0  # atno 6907 bound_to 6896
  150.7884  134.6891  159.6496 H   0  0  0  0  0  0  0  0  0  0  0  0  # atno 6908 bound_to 6896
  152.3958  134.6370  160.0141 H   0  0  0  0  0  0  0  0  0  0  0  0  # atno 6909 bound_to 6896
  145.7598  139.2796  143.1383 H   0  0  0  0  0  0  0  0  0  0  0  0  # atno 7974 bound_to 7965
  154.6541  140.0576  156.9988 H   0  0  0  0  0  0  0  0  0  0  0  0  # atno 8008 bound_to 7997
  155.1327  140.3258  155.4452 H   0  0  0  0  0  0  0  0  0  0  0  0  # atno 8009 bound_to 7997
  156.2589  140.1978  156.6446 H   0  0  0  0  0  0  0  0  0  0  0  0  # atno 8010 bound_to 7997
  140.6934  143.6403  150.8441 H   0  0  0  0  0  0  0  0  0  0  0  0  # atno 10167 bound_to 10162
  157.6066  131.1042  150.7679 H   0  0  0  0  0  0  0  0  0  0  0  0  # atno 10718 bound_to 10713
  153.4819  135.3677  155.2446 H   0  0  0  0  0  0  0  0  0  0  0  0  # atno 10763 bound_to 10752
  154.8755  135.3956  154.3690 H   0  0  0  0  0  0  0  0  0  0  0  0  # atno 10764 bound_to 10752
  153.4295  135.7082  153.6305 H   0  0  0  0  0  0  0  0  0  0  0  0  # atno 10765 bound_to 10752
  140.1370  134.8764  157.2280 H   0  0  0  0  0  0  0  0  0  0  0  0  # atno 11005 bound_to 11000
  146.0275  140.8290  142.9892 LP  0  0  0  0  0  0  0  0  0  0  0  0  # atno 17320 bound_to 7965
  144.6832  140.2719  143.7304 LP  0  0  0  0  0  0  0  0  0  0  0  0  # atno 17321 bound_to 7965
  140.0119  143.5634  152.2835 LP  0  0  0  0  0  0  0  0  0  0  0  0  # atno 17342 bound_to 10162
  139.6361  144.7650  151.2436 LP  0  0  0  0  0  0  0  0  0  0  0  0  # atno 17343 bound_to 10162
  156.8066  130.4938  149.5362 LP  0  0  0  0  0  0  0  0  0  0  0  0  # atno 17370 bound_to 10713
  156.1155  130.6072  151.0114 LP  0  0  0  0  0  0  0  0  0  0  0  0  # atno 17371 bound_to 10713
  140.2770  134.3393  155.7355 LP  0  0  0  0  0  0  0  0  0  0  0  0  # atno 17394 bound_to 11000
  141.2180  133.7456  156.9308 LP  0  0  0  0  0  0  0  0  0  0  0  0  # atno 17395 bound_to 11000

$$$$
