AV-unprocessed.smi:36|AV-procd|sdf|280|dock2
  -GOLD-   2262016 53D 1   1.00000     0.00000
 Structure written by MMmdl.
 64 67  0  0  0  0  0  0  0  0  1 V2000
  143.7686  146.6687  155.4812 C   0  0  0  0  0  0  0  0  0  0  0  0
  142.7732  145.4962  155.4871 C   0  0  0  0  0  0  0  0  0  0  0  0
  141.6448  145.7857  156.4914 C   0  0  0  0  0  0  0  0  0  0  0  0
  142.1802  145.3134  154.0804 C   0  0  0  0  0  0  0  0  0  0  0  0
  143.6957  143.8959  155.9916 Si  0  0  0  0  0  0  0  0  0  0  0  0
  144.3666  144.0488  157.7624 C   0  0  0  0  0  0  0  0  0  0  0  0
  142.5491  142.3835  155.8654 C   0  0  0  0  0  0  0  0  0  0  0  0
  145.0194  143.6661  154.9600 O   0  0  0  0  0  0  0  0  0  0  0  0
  146.1465  142.8864  155.3041 C   0  0  0  0  0  0  0  0  0  0  0  0
  146.9197  142.4688  154.0389 C   0  0  1  0  0  0  0  0  0  0  0  0
  148.3103  142.6491  154.3095 O   0  0  0  0  0  0  0  0  0  0  0  0
  148.9498  141.4134  154.4423 C   0  0  1  0  0  0  0  0  0  0  0  0
  149.7304  141.4214  155.7128 N   0  0  0  0  0  0  0  0  0  0  0  0
  149.5127  142.1594  156.8562 C   0  0  0  0  0  0  0  0  0  0  0  0
  150.3706  141.9597  157.8209 N   0  0  0  0  0  0  0  0  0  0  0  0
  151.2421  141.0096  157.3037 C   0  0  0  0  0  0  0  0  0  0  0  0
  152.3936  140.3533  157.8095 C   0  0  0  0  0  0  0  0  0  0  0  0
  152.8434  140.6374  159.0539 N   0  0  0  0  0  0  0  0  0  0  0  0
  152.6903  141.8717  159.8035 C   0  0  0  0  0  0  0  0  0  0  0  0
  152.1861  142.8807  159.3094 O   0  0  0  0  0  0  0  0  0  0  0  0
  153.2605  141.8735  161.1920 C   0  0  0  0  0  0  0  0  0  0  0  0
  154.2566  140.9369  161.5492 C   0  0  0  0  0  0  0  0  0  0  0  0
  154.8137  140.9468  162.8428 C   0  0  0  0  0  0  0  0  0  0  0  0
  154.3852  141.8983  163.7875 C   0  0  0  0  0  0  0  0  0  0  0  0
  153.4014  142.8419  163.4370 C   0  0  0  0  0  0  0  0  0  0  0  0
  152.8424  142.8320  162.1442 C   0  0  0  0  0  0  0  0  0  0  0  0
  153.0093  139.4546  156.9964 N   0  0  0  0  0  0  0  0  0  0  0  0
  152.5286  139.2148  155.7724 C   0  0  0  0  0  0  0  0  0  0  0  0
  151.4661  139.7562  155.1721 N   0  0  0  0  0  0  0  0  0  0  0  0
  150.8463  140.6611  155.9830 C   0  0  0  0  0  0  0  0  0  0  0  0
  147.8644  140.3415  154.4911 C   0  0  0  0  0  0  0  0  0  0  0  0
  146.7995  140.9906  153.6360 C   0  0  1  0  0  0  0  0  0  0  0  0
  145.5253  140.4224  153.8561 O   0  0  0  0  0  0  0  0  0  0  0  0
  143.2825  147.5996  155.1873 H   0  0  0  0  0  0  0  0  0  0  0  0
  144.5872  146.4928  154.7829 H   0  0  0  0  0  0  0  0  0  0  0  0
  144.2050  146.8245  156.4681 H   0  0  0  0  0  0  0  0  0  0  0  0
  142.0302  145.8910  157.5055 H   0  0  0  0  0  0  0  0  0  0  0  0
  140.9033  144.9880  156.5005 H   0  0  0  0  0  0  0  0  0  0  0  0
  141.1212  146.7091  156.2414 H   0  0  0  0  0  0  0  0  0  0  0  0
  141.6295  146.1999  153.7638 H   0  0  0  0  0  0  0  0  0  0  0  0
  141.4920  144.4689  154.0462 H   0  0  0  0  0  0  0  0  0  0  0  0
  142.9598  145.1318  153.3404 H   0  0  0  0  0  0  0  0  0  0  0  0
  143.5662  144.2172  158.4825 H   0  0  0  0  0  0  0  0  0  0  0  0
  145.0686  144.8769  157.8566 H   0  0  0  0  0  0  0  0  0  0  0  0
  144.8913  143.1438  158.0676 H   0  0  0  0  0  0  0  0  0  0  0  0
  141.6906  142.4758  156.5302 H   0  0  0  0  0  0  0  0  0  0  0  0
  143.0698  141.4652  156.1361 H   0  0  0  0  0  0  0  0  0  0  0  0
  142.1635  142.2521  154.8546 H   0  0  0  0  0  0  0  0  0  0  0  0
  146.7898  143.5010  155.9346 H   0  0  0  0  0  0  0  0  0  0  0  0
  145.8526  142.0234  155.9002 H   0  0  0  0  0  0  0  0  0  0  0  0
  146.6343  143.1206  153.2125 H   0  0  0  0  0  0  0  0  0  0  0  0
  149.6734  141.2735  153.6384 H   0  0  0  0  0  0  0  0  0  0  0  0
  148.6957  142.8582  156.9548 H   0  0  0  0  0  0  0  0  0  0  0  0
  153.3178  139.8854  159.5326 H   0  0  0  0  0  0  0  0  0  0  0  0
  154.5983  140.2019  160.8344 H   0  0  0  0  0  0  0  0  0  0  0  0
  155.5717  140.2251  163.1089 H   0  0  0  0  0  0  0  0  0  0  0  0
  154.8140  141.9072  164.7787 H   0  0  0  0  0  0  0  0  0  0  0  0
  153.0769  143.5768  164.1591 H   0  0  0  0  0  0  0  0  0  0  0  0
  152.0953  143.5710  161.8938 H   0  0  0  0  0  0  0  0  0  0  0  0
  153.0751  138.4872  155.1908 H   0  0  0  0  0  0  0  0  0  0  0  0
  148.2291  139.3897  154.1037 H   0  0  0  0  0  0  0  0  0  0  0  0
  147.5186  140.2040  155.5172 H   0  0  0  0  0  0  0  0  0  0  0  0
  147.0620  140.8774  152.5831 H   0  0  0  0  0  0  0  0  0  0  0  0
  145.1121  140.2776  153.0183 H   0  0  0  0  0  0  0  0  0  0  0  0
  1  2  1  0  0  0  0
  1 34  1  0  0  0  0
  1 35  1  0  0  0  0
  1 36  1  0  0  0  0
  2  3  1  0  0  0  0
  2  4  1  0  0  0  0
  2  5  1  0  0  0  0
  3 37  1  0  0  0  0
  3 38  1  0  0  0  0
  3 39  1  0  0  0  0
  4 40  1  0  0  0  0
  4 41  1  0  0  0  0
  4 42  1  0  0  0  0
  5  6  1  0  0  0  0
  5  7  1  0  0  0  0
  5  8  1  0  0  0  0
  6 43  1  0  0  0  0
  6 44  1  0  0  0  0
  6 45  1  0  0  0  0
  7 46  1  0  0  0  0
  7 47  1  0  0  0  0
  7 48  1  0  0  0  0
  8  9  1  0  0  0  0
  9 10  1  0  0  0  0
  9 49  1  0  0  0  0
  9 50  1  0  0  0  0
 10 32  1  0  0  0  0
 10 11  1  0  0  0  0
 10 51  1  0  0  0  0
 11 12  1  0  0  0  0
 12 13  1  0  0  0  0
 12 31  1  0  0  0  0
 12 52  1  0  0  0  0
 13 30  1  0  0  0  0
 13 14  1  0  0  0  0
 14 15  2  0  0  0  0
 14 53  1  0  0  0  0
 15 16  1  0  0  0  0
 16 30  2  0  0  0  0
 16 17  1  0  0  0  0
 17 18  1  0  0  0  0
 17 27  2  0  0  0  0
 18 19  1  0  0  0  0
 18 54  1  0  0  0  0
 19 20  2  0  0  0  0
 19 21  1  0  0  0  0
 21 26  1  0  0  0  0
 21 22  2  0  0  0  0
 22 23  1  0  0  0  0
 22 55  1  0  0  0  0
 23 24  2  0  0  0  0
 23 56  1  0  0  0  0
 24 25  1  0  0  0  0
 24 57  1  0  0  0  0
 25 26  2  0  0  0  0
 25 58  1  0  0  0  0
 26 59  1  0  0  0  0
 27 28  1  0  0  0  0
 28 29  2  0  0  0  0
 28 60  1  0  0  0  0
 29 30  1  0  0  0  0
 31 32  1  0  0  0  0
 31 61  1  0  0  0  0
 31 62  1  0  0  0  0
 32 33  1  0  0  0  0
 32 63  1  0  0  0  0
 33 64  1  0  0  0  0
M  END
> <s_m_source_file>
AV-unprocessed.smi

> <i_m_source_file_index>
36

> <i_lp_mmshare_version>
43012

> <i_f3d_flags>
0

> <s_epik_input>
W0NIM11DKFtDSDNdKShbQ0gzXSlbU2ldKFtDSDNdKShbQ0gzXSlPW0NIMl1bQ0BASF0xT1tDQEhdKFtDSDJdW0NASF0xW09IXSluKFtjSF1uMiljKGMyMyluW2NIXW5jM1tOSF1DKD1PKWM0W2NIXVtjSF1bY0hdW2NIXVtjSF00

> <s_epik_cmdline>
J2VwaWtfcHl0aG9uJywgJy1waCcsICc3LjAnLCAnLXRuJywgJzgnLCAnLW1hJywgJzIwMCcsICctbWV0YWxfYmluZGluZycsICctaW1hZScsICc8aW5maWxlLm1hZT4nLCAnLW9tYWUnLCAnPG91dGZpbGUubWFlPic=

> <r_lp_tautomer_probability>
1

> <r_epik_Ionization_Penalty>
0.00150433

> <r_epik_Ionization_Penalty_Charging>
0

> <r_epik_Ionization_Penalty_Neutral>
0.00150433

> <r_epik_State_Penalty>
0.00724046

> <r_epik_Charging_Adjusted_Penalty>
0.00724046

> <i_epik_Tot_Q>
0

> <i_epik_Tot_abs_Q>
0

> <r_epik_Metal_State_Penalty>
0.323355

> <b_epik_Metal_Only>
0

> <s_epik_Chemistry_Notes>
This compound contains an acetal/aminal-like group ( X-CH(R)-Y where X, Y are N, S, or O) that may be acid/base labile, releasing an aldehyde.

> <s_lp_Force_Field>
OPLS_2005

> <r_lp_Energy>
33.9603

> <b_lp_Chiralities_Consistent>
1

> <s_lp_Variant>
AV-unprocessed.smi:36-2

> <Gold.Version>
5.8.1

> <Gold.Id.Protein>
6NUR|6NUR_protein|mol2

> <Gold.PLP.Fitness>
61.7992

> <Gold.PLP.PLP>
-54.1861

> <Gold.PLP.part.hbond>
-3.7737

> <Gold.PLP.part.metal>
0.0000

> <Gold.PLP.part.buried>
2.1015

> <Gold.PLP.part.nonpolar>
-55.0636

> <Gold.PLP.part.repulsive>
4.4735

> <Gold.PLP.ligand.clash>
0.0000

> <Gold.PLP.ligand.torsion>
2.2133

> <Gold.PLP.Chemscore.Hbond>
3.2237

> <Gold.PLP.Chemscore.CHOScore>
0.7150

> <Gold.PLP.Chemscore.Metal>
0.0000

> <Gold.Chemscore.Hbonds>
donor molecule, donor type, donor heavy atom, donor atom, acceptor molecule, acceptor atom, score
      L1  H    33    64       P1 10175  0.69
      P1  H  7989  7998       L1    29  1.00
      P1  H  7997  8008       L1    27  1.00
      P1  H  8022  8030       L1    11  0.49
      L1  C    14    53       P1  8028  0.71

> <Gold.PLP.Chemscore.Internal.Correction>
0.2235

> <Gold.Rescore>
     Score         DG    S(hbond)    S(metal)    S(lipo)     H(rot)  DE(clash)    DE(int)     intcor
      9.18     -17.38       1.59        0.00     115.56       2.70       2.42       5.78       ----

> <Gold.Chemscore.Fitness>
9.1831

> <Gold.Chemscore.DG>
-17.3839

> <Gold.Chemscore.ZeroCoef>
-5.4800

> <Gold.Chemscore.Hbond>
1.5886

> <Gold.Chemscore.Metal>
0.0000

> <Gold.Chemscore.Lipo>
115.5593

> <Gold.Chemscore.Internal_Hbond>
0.0000

> <Gold.Chemscore.DEClash>
2.4196

> <Gold.Chemscore.DEInternal>
5.7812

> <Gold.Chemscore.Rot>
2.7041

> <Gold.Chemscore.Internal.Correction>
   9.000000E+99

> <Gold.Chemscore.Hbonds>
donor molecule, donor type, donor heavy atom, donor atom, acceptor molecule, acceptor atom, score
      L1  H    33    64       P1 10175  0.63
      P1  H  7989  7998       L1    29  0.24
      P1  H  7997  8008       L1    27  0.26
      P1  H  8022  8030       L1    11  0.12

> <Gold.Chemscore.Hbond.Weighted>
-5.3059

> <Gold.Chemscore.Metal.Weighted>
-0.0000

> <Gold.Chemscore.Lipo.Weighted>
-13.5204

> <Gold.Chemscore.Internal_Hbond.Weighted>
0.0000

> <Gold.Chemscore.DEClash.Weighted>
2.4196

> <Gold.Chemscore.DEInternal.Weighted>
5.7812

> <Gold.Chemscore.Rot.Weighted>
6.9225

> <Gold.Chemscore.Internal.Correction.Weighted>
   9.000000E+99

> <Gold.Protein.RotatedTorsions>
[ 6907 6896 6895 6894 ] final  144.62 input  -60.11 | X-H torsion
[ 7974 7965 7964 7962 ] final  173.16 input  175.53 | X-H torsion
[ 8008 7997 7996 7995 ] final  -71.73 input   59.86 | X-H torsion
[ 10167 10162 10161 10158 ] final   97.14 input  -65.29 | X-H torsion
[ 10718 10713 10712 10709 ] final  124.07 input   66.30 | X-H torsion
[ 10763 10752 10751 10750 ] final  -80.73 input  -60.55 | X-H torsion
[ 11005 11000 10999 10996 ] final -152.15 input  -57.11 | X-H torsion

> <Gold.Protein.ActiveResidues>
 VAL166  LYS551  ARG553  GLY616  TRP617  ASP618  TYR619  PRO620  LYS621  CYS622 
 ASP623  PHE694  ASN695  SER759  ASP760  ASP761  ALA762  ILE779  LEU786  VAL792 
 PHE793  MET794  SER795  GLU796  ALA797  LYS798  CYS799  TRP800  GLU811  SER814 

> <Gold.Protein.RotatedAtoms>
  152.1913  133.4775  159.5009 H   0  0  0  0  0  0  0  0  0  0  0  0  # atno 6907 bound_to 6896
  150.6952  134.1708  159.4221 H   0  0  0  0  0  0  0  0  0  0  0  0  # atno 6908 bound_to 6896
  151.9623  135.0117  160.0599 H   0  0  0  0  0  0  0  0  0  0  0  0  # atno 6909 bound_to 6896
  144.7250  139.9606  143.6434 H   0  0  0  0  0  0  0  0  0  0  0  0  # atno 7974 bound_to 7965
  154.5111  140.0810  156.7991 H   0  0  0  0  0  0  0  0  0  0  0  0  # atno 8008 bound_to 7997
  155.3783  140.3426  155.4227 H   0  0  0  0  0  0  0  0  0  0  0  0  # atno 8009 bound_to 7997
  156.1574  140.1577  156.8657 H   0  0  0  0  0  0  0  0  0  0  0  0  # atno 8010 bound_to 7997
  139.7828  144.6882  150.9998 H   0  0  0  0  0  0  0  0  0  0  0  0  # atno 10167 bound_to 10162
  157.5614  131.1089  150.8531 H   0  0  0  0  0  0  0  0  0  0  0  0  # atno 10718 bound_to 10713
  154.5549  135.5651  153.6955 H   0  0  0  0  0  0  0  0  0  0  0  0  # atno 10763 bound_to 10752
  153.0000  135.6260  154.2324 H   0  0  0  0  0  0  0  0  0  0  0  0  # atno 10764 bound_to 10752
  154.2260  135.2868  155.2887 H   0  0  0  0  0  0  0  0  0  0  0  0  # atno 10765 bound_to 10752
  140.7220  134.3717  157.5182 H   0  0  0  0  0  0  0  0  0  0  0  0  # atno 11005 bound_to 11000
  146.0640  139.3632  143.0564 LP  0  0  0  0  0  0  0  0  0  0  0  0  # atno 17320 bound_to 7965
  145.8055  140.9751  143.0976 LP  0  0  0  0  0  0  0  0  0  0  0  0  # atno 17321 bound_to 7965
  140.7819  143.4464  151.0476 LP  0  0  0  0  0  0  0  0  0  0  0  0  # atno 17342 bound_to 10162
  139.8144  143.7906  152.3173 LP  0  0  0  0  0  0  0  0  0  0  0  0  # atno 17343 bound_to 10162
  156.9028  130.5253  149.5282 LP  0  0  0  0  0  0  0  0  0  0  0  0  # atno 17370 bound_to 10713
  156.0666  130.5708  150.9301 LP  0  0  0  0  0  0  0  0  0  0  0  0  # atno 17371 bound_to 10713
  139.8846  134.8961  156.2694 LP  0  0  0  0  0  0  0  0  0  0  0  0  # atno 17394 bound_to 11000
  140.9995  133.7160  156.0939 LP  0  0  0  0  0  0  0  0  0  0  0  0  # atno 17395 bound_to 11000

$$$$
