AV-unprocessed.smi:963|AV-procd|sdf|4276|dock10
  -GOLD-   22720 2183D 1   1.00000     0.00000
 Structure written by MMmdl.
 36 37  0  0  0  0  0  0  0  0  1 V2000
  152.3413  144.6556  159.0179 C   0  0  0  0  0  0  0  0  0  0  0  0
  151.7089  143.2765  159.2346 C   0  0  0  0  0  0  0  0  0  0  0  0
  152.6318  142.3324  159.9476 C   0  0  0  0  0  0  0  0  0  0  0  0
  153.0646  141.1738  159.2951 N   0  0  0  0  0  0  0  0  0  0  0  0
  153.8699  140.4257  160.0518 C   0  0  0  0  0  0  0  0  0  0  0  0
  154.5043  139.1606  159.5797 C   0  0  0  0  0  0  0  0  0  0  0  0
  153.4804  138.0370  159.3718 C   0  0  0  0  0  0  0  0  0  0  0  0
  152.6453  138.3122  158.2083 N   0  0  0  0  0  0  0  0  0  0  0  0
  152.6790  137.6434  157.0449 C   0  0  0  0  0  0  0  0  0  0  0  0
  153.4525  136.7168  156.8047 O   0  0  0  0  0  0  0  0  0  0  0  0
  151.8335  138.1448  156.1302 N   0  0  0  0  0  0  0  0  0  0  0  0
  151.8935  138.1366  154.6714 C   0  0  0  0  0  0  0  0  0  0  0  0
  150.7211  139.1140  154.7119 C   0  0  0  0  0  0  0  0  0  0  0  0
  151.0263  139.3571  156.1883 C   0  0  0  0  0  0  0  0  0  0  0  0
  154.1689  141.1205  161.6384 S   0  0  0  0  0  0  0  0  0  0  0  0
  153.1264  142.4575  161.2254 C   0  0  0  0  0  0  0  0  0  0  0  0
  152.8685  143.5544  162.2046 C   0  0  0  0  0  0  0  0  0  0  0  0
  151.6513  145.3221  158.5004 H   0  0  0  0  0  0  0  0  0  0  0  0
  153.2476  144.5813  158.4163 H   0  0  0  0  0  0  0  0  0  0  0  0
  152.6058  145.1219  159.9676 H   0  0  0  0  0  0  0  0  0  0  0  0
  150.7845  143.3923  159.8016 H   0  0  0  0  0  0  0  0  0  0  0  0
  151.4132  142.8617  158.2708 H   0  0  0  0  0  0  0  0  0  0  0  0
  155.0325  139.3647  158.6476 H   0  0  0  0  0  0  0  0  0  0  0  0
  155.2585  138.8550  160.3063 H   0  0  0  0  0  0  0  0  0  0  0  0
  153.9930  137.0887  159.2073 H   0  0  0  0  0  0  0  0  0  0  0  0
  152.8810  137.9164  160.2758 H   0  0  0  0  0  0  0  0  0  0  0  0
  151.9929  139.0783  158.2896 H   0  0  0  0  0  0  0  0  0  0  0  0
  152.8103  138.5685  154.2662 H   0  0  0  0  0  0  0  0  0  0  0  0
  151.6517  137.1799  154.2074 H   0  0  0  0  0  0  0  0  0  0  0  0
  150.8413  139.9913  154.0753 H   0  0  0  0  0  0  0  0  0  0  0  0
  149.7575  138.6270  154.5531 H   0  0  0  0  0  0  0  0  0  0  0  0
  150.1510  139.2922  156.8356 H   0  0  0  0  0  0  0  0  0  0  0  0
  151.6055  140.2631  156.3735 H   0  0  0  0  0  0  0  0  0  0  0  0
  151.8027  143.7739  162.2697 H   0  0  0  0  0  0  0  0  0  0  0  0
  153.3851  144.4670  161.9063 H   0  0  0  0  0  0  0  0  0  0  0  0
  153.2151  143.2825  163.2018 H   0  0  0  0  0  0  0  0  0  0  0  0
  1  2  1  0  0  0  0
  1 18  1  0  0  0  0
  1 19  1  0  0  0  0
  1 20  1  0  0  0  0
  2  3  1  0  0  0  0
  2 21  1  0  0  0  0
  2 22  1  0  0  0  0
  3 16  2  0  0  0  0
  3  4  1  0  0  0  0
  4  5  2  0  0  0  0
  5  6  1  0  0  0  0
  5 15  1  0  0  0  0
  6  7  1  0  0  0  0
  6 23  1  0  0  0  0
  6 24  1  0  0  0  0
  7  8  1  0  0  0  0
  7 25  1  0  0  0  0
  7 26  1  0  0  0  0
  8  9  1  0  0  0  0
  8 27  1  0  0  0  0
  9 10  2  0  0  0  0
  9 11  1  0  0  0  0
 11 14  1  0  0  0  0
 11 12  1  0  0  0  0
 12 13  1  0  0  0  0
 12 28  1  0  0  0  0
 12 29  1  0  0  0  0
 13 14  1  0  0  0  0
 13 30  1  0  0  0  0
 13 31  1  0  0  0  0
 14 32  1  0  0  0  0
 14 33  1  0  0  0  0
 15 16  1  0  0  0  0
 16 17  1  0  0  0  0
 17 34  1  0  0  0  0
 17 35  1  0  0  0  0
 17 36  1  0  0  0  0
M  END
> <s_m_source_file>
AV-unprocessed.smi

> <i_m_source_file_index>
963

> <i_lp_mmshare_version>
43012

> <i_f3d_flags>
0

> <s_epik_input>
W0NIM11bQ0gyXWMxbmMoc2MxW0NIM10pW0NIMl1bQ0gyXVtOSF1DKD1PKU4yW0NIMl1bQ0gyXVtDSDJdMg==

> <s_epik_cmdline>
J2VwaWtfcHl0aG9uJywgJy1waCcsICc3LjAnLCAnLXRuJywgJzgnLCAnLW1hJywgJzIwMCcsICctbWV0YWxfYmluZGluZycsICctaW1hZScsICc8aW5maWxlLm1hZT4nLCAnLW9tYWUnLCAnPG91dGZpbGUubWFlPic=

> <r_epik_Ionization_Penalty>
0.00446738

> <r_epik_Ionization_Penalty_Charging>
0

> <r_epik_Ionization_Penalty_Neutral>
0.00446738

> <r_epik_State_Penalty>
0.00317617

> <r_epik_Charging_Adjusted_Penalty>
0.00317617

> <i_epik_Tot_Q>
0

> <i_epik_Tot_abs_Q>
0

> <r_epik_Metal_State_Penalty>
-0

> <b_epik_Metal_Only>
0

> <s_lp_Force_Field>
OPLS_2005

> <r_lp_Energy>
11.733

> <b_lp_Chiralities_Consistent>
1

> <s_lp_Variant>
AV-unprocessed.smi:963-1

> <Gold.Version>
5.8.1

> <Gold.Id.Protein>
6NUR|6NUR_protein|mol2

> <Gold.PLP.Fitness>
41.1072

> <Gold.PLP.PLP>
-38.5983

> <Gold.PLP.part.hbond>
-1.0000

> <Gold.PLP.part.metal>
0.0000

> <Gold.PLP.part.buried>
-3.7371

> <Gold.PLP.part.nonpolar>
-33.6058

> <Gold.PLP.part.repulsive>
0.0788

> <Gold.PLP.ligand.clash>
0.0000

> <Gold.PLP.ligand.torsion>
0.3061

> <Gold.PLP.Chemscore.Hbond>
0.9440

> <Gold.PLP.Chemscore.CHOScore>
0.0000

> <Gold.PLP.Chemscore.Metal>
0.0000

> <Gold.Chemscore.Hbonds>
donor molecule, donor type, donor heavy atom, donor atom, acceptor molecule, acceptor atom, score
      P1  H 10752 10765       L1    10  0.94

> <Gold.PLP.Chemscore.Internal.Correction>
0.2890

> <Gold.Rescore>
     Score         DG    S(hbond)    S(metal)    S(lipo)     H(rot)  DE(clash)    DE(int)     intcor
     17.59     -17.98       0.97        0.00     111.27       1.48       0.02       0.36       ----

> <Gold.Chemscore.Fitness>
17.5942

> <Gold.Chemscore.DG>
-17.9753

> <Gold.Chemscore.ZeroCoef>
-5.4800

> <Gold.Chemscore.Hbond>
0.9745

> <Gold.Chemscore.Metal>
0.0000

> <Gold.Chemscore.Lipo>
111.2693

> <Gold.Chemscore.Internal_Hbond>
0.0000

> <Gold.Chemscore.DEClash>
0.0199

> <Gold.Chemscore.DEInternal>
0.3611

> <Gold.Chemscore.Rot>
1.4758

> <Gold.Chemscore.Internal.Correction>
   9.000000E+99

> <Gold.Chemscore.Hbonds>
donor molecule, donor type, donor heavy atom, donor atom, acceptor molecule, acceptor atom, score
      P1  H 10752 10765       L1    10  0.89

> <Gold.Chemscore.Hbond.Weighted>
-3.2548

> <Gold.Chemscore.Metal.Weighted>
-0.0000

> <Gold.Chemscore.Lipo.Weighted>
-13.0185

> <Gold.Chemscore.Internal_Hbond.Weighted>
0.0000

> <Gold.Chemscore.DEClash.Weighted>
0.0199

> <Gold.Chemscore.DEInternal.Weighted>
0.3611

> <Gold.Chemscore.Rot.Weighted>
3.7780

> <Gold.Chemscore.Internal.Correction.Weighted>
   9.000000E+99

> <Gold.Protein.RotatedTorsions>
[ 6907 6896 6895 6894 ] final    8.01 input  -60.11 | X-H torsion
[ 7974 7965 7964 7962 ] final  107.76 input  175.53 | X-H torsion
[ 8008 7997 7996 7995 ] final -115.31 input   59.86 | X-H torsion
[ 10167 10162 10161 10158 ] final -114.11 input  -65.29 | X-H torsion
[ 10718 10713 10712 10709 ] final   73.87 input   66.30 | X-H torsion
[ 10763 10752 10751 10750 ] final -112.84 input  -60.55 | X-H torsion
[ 11005 11000 10999 10996 ] final  -70.94 input  -57.11 | X-H torsion

> <Gold.Protein.ActiveResidues>
 VAL166  LYS551  ARG553  GLY616  TRP617  ASP618  TYR619  PRO620  LYS621  CYS622 
 ASP623  PHE694  ASN695  SER759  ASP760  ASP761  ALA762  ILE779  LEU786  VAL792 
 PHE793  MET794  SER795  GLU796  ALA797  LYS798  CYS799  TRP800  GLU811  SER814 

> <Gold.Protein.RotatedAtoms>
  151.6990  135.0933  160.0247 H   0  0  0  0  0  0  0  0  0  0  0  0  # atno 6907 bound_to 6896
  152.3732  133.6442  159.6111 H   0  0  0  0  0  0  0  0  0  0  0  0  # atno 6908 bound_to 6896
  150.7689  133.9153  159.3423 H   0  0  0  0  0  0  0  0  0  0  0  0  # atno 6909 bound_to 6896
  145.2895  139.2605  143.3872 H   0  0  0  0  0  0  0  0  0  0  0  0  # atno 7974 bound_to 7965
  155.0500  140.0393  157.2540 H   0  0  0  0  0  0  0  0  0  0  0  0  # atno 8008 bound_to 7997
  154.7145  140.2699  155.6574 H   0  0  0  0  0  0  0  0  0  0  0  0  # atno 8009 bound_to 7997
  156.2799  140.2715  156.1797 H   0  0  0  0  0  0  0  0  0  0  0  0  # atno 8010 bound_to 7997
  140.1045  143.4583  152.1791 H   0  0  0  0  0  0  0  0  0  0  0  0  # atno 10167 bound_to 10162
  157.6567  130.9649  150.1130 H   0  0  0  0  0  0  0  0  0  0  0  0  # atno 10718 bound_to 10713
  154.8368  135.4476  154.1257 H   0  0  0  0  0  0  0  0  0  0  0  0  # atno 10763 bound_to 10752
  153.2481  135.6923  153.7716 H   0  0  0  0  0  0  0  0  0  0  0  0  # atno 10764 bound_to 10752
  153.7038  135.3367  155.3207 H   0  0  0  0  0  0  0  0  0  0  0  0  # atno 10765 bound_to 10752
  141.1583  133.6803  156.6829 H   0  0  0  0  0  0  0  0  0  0  0  0  # atno 11005 bound_to 11000
  146.3190  140.3382  142.8646 LP  0  0  0  0  0  0  0  0  0  0  0  0  # atno 17320 bound_to 7965
  144.9185  140.7840  143.5763 LP  0  0  0  0  0  0  0  0  0  0  0  0  # atno 17321 bound_to 7965
  139.5653  144.7431  151.4040 LP  0  0  0  0  0  0  0  0  0  0  0  0  # atno 17342 bound_to 10162
  140.6960  143.7749  150.7327 LP  0  0  0  0  0  0  0  0  0  0  0  0  # atno 17343 bound_to 10162
  156.2021  130.3661  149.8775 LP  0  0  0  0  0  0  0  0  0  0  0  0  # atno 17370 bound_to 10713
  156.6676  130.8807  151.3557 LP  0  0  0  0  0  0  0  0  0  0  0  0  # atno 17371 bound_to 10713
  140.3089  134.8103  157.4159 LP  0  0  0  0  0  0  0  0  0  0  0  0  # atno 17394 bound_to 11000
  140.1196  134.5237  155.8195 LP  0  0  0  0  0  0  0  0  0  0  0  0  # atno 17395 bound_to 11000

$$$$
