AV-unprocessed.smi:1669|AV-procd|sdf|6686|dock5
  -GOLD-   22720 7413D 1   1.00000     0.00000
 Structure written by MMmdl.
 48 50  0  0  0  0  0  0  0  0  2 V2000
  145.5577  135.7515  150.6755 C   0  0  0  0  0  0  0  0  0  0  0  0
  145.9191  135.9756  152.0950 N   0  3  2  0  0  0  0  0  0  0  0  0
  145.2950  134.9839  153.0085 C   0  0  0  0  0  0  0  0  0  0  0  0
  145.1819  133.6142  152.3641 C   0  0  0  0  0  0  0  0  0  0  0  0
  143.9660  133.2159  151.7689 C   0  0  0  0  0  0  0  0  0  0  0  0
  143.8543  131.9466  151.1690 C   0  0  0  0  0  0  0  0  0  0  0  0
  144.9579  131.0716  151.1607 C   0  0  0  0  0  0  0  0  0  0  0  0
  146.1737  131.4664  151.7520 C   0  0  0  0  0  0  0  0  0  0  0  0
  146.2864  132.7357  152.3519 C   0  0  0  0  0  0  0  0  0  0  0  0
  145.6846  137.3805  152.5149 C   0  0  0  0  0  0  0  0  0  0  0  0
  147.0015  138.1534  152.7258 C   0  0  1  0  0  0  0  0  0  0  0  0
  147.3456  138.7981  151.5148 O   0  0  0  0  0  0  0  0  0  0  0  0
  146.8747  139.2006  153.8491 C   0  0  0  0  0  0  0  0  0  0  0  0
  148.1472  139.8367  154.1651 N   0  0  0  0  0  0  0  0  0  0  0  0
  148.4278  141.1596  154.2865 C   0  0  0  0  0  0  0  0  0  0  0  0
  147.3876  142.2217  154.1001 C   0  0  0  0  0  0  0  0  0  0  0  0
  147.0485  142.8680  155.3082 O   0  0  0  0  0  0  0  0  0  0  0  0
  149.6927  141.4581  154.5841 N   0  0  0  0  0  0  0  0  0  0  0  0
  150.2882  140.2149  154.6702 C   0  0  0  0  0  0  0  0  0  0  0  0
  151.6235  139.8529  154.9581 C   0  0  0  0  0  0  0  0  0  0  0  0
  152.0038  138.4952  154.9900 C   0  0  0  0  0  0  0  0  0  0  0  0
  151.0566  137.4820  154.7362 C   0  0  0  0  0  0  0  0  0  0  0  0
  149.7207  137.8209  154.4476 C   0  0  0  0  0  0  0  0  0  0  0  0
  149.3469  139.1779  154.4153 C   0  0  0  0  0  0  0  0  0  0  0  0
  144.4894  135.9036  150.5157 H   0  0  0  0  0  0  0  0  0  0  0  0
  145.8112  134.7410  150.3557 H   0  0  0  0  0  0  0  0  0  0  0  0
  146.1012  136.4389  150.0263 H   0  0  0  0  0  0  0  0  0  0  0  0
  145.8873  134.8689  153.9161 H   0  0  0  0  0  0  0  0  0  0  0  0
  144.3144  135.3371  153.3316 H   0  0  0  0  0  0  0  0  0  0  0  0
  143.1154  133.8822  151.7720 H   0  0  0  0  0  0  0  0  0  0  0  0
  142.9224  131.6435  150.7146 H   0  0  0  0  0  0  0  0  0  0  0  0
  144.8722  130.0983  150.6999 H   0  0  0  0  0  0  0  0  0  0  0  0
  147.0201  130.7951  151.7446 H   0  0  0  0  0  0  0  0  0  0  0  0
  147.2223  133.0307  152.8038 H   0  0  0  0  0  0  0  0  0  0  0  0
  145.0953  137.9045  151.7602 H   0  0  0  0  0  0  0  0  0  0  0  0
  145.0827  137.3869  153.4251 H   0  0  0  0  0  0  0  0  0  0  0  0
  147.8086  137.4666  152.9789 H   0  0  0  0  0  0  0  0  0  0  0  0
  148.0434  139.4124  151.6886 H   0  0  0  0  0  0  0  0  0  0  0  0
  146.1373  139.9587  153.5860 H   0  0  0  0  0  0  0  0  0  0  0  0
  146.5043  138.7247  154.7580 H   0  0  0  0  0  0  0  0  0  0  0  0
  147.7594  142.9705  153.3995 H   0  0  0  0  0  0  0  0  0  0  0  0
  146.4924  141.7921  153.6509 H   0  0  0  0  0  0  0  0  0  0  0  0
  147.7506  143.4547  155.5432 H   0  0  0  0  0  0  0  0  0  0  0  0
  152.3564  140.6213  155.1551 H   0  0  0  0  0  0  0  0  0  0  0  0
  153.0273  138.2298  155.2115 H   0  0  0  0  0  0  0  0  0  0  0  0
  151.3568  136.4448  154.7643 H   0  0  0  0  0  0  0  0  0  0  0  0
  148.9935  137.0468  154.2538 H   0  0  0  0  0  0  0  0  0  0  0  0
  146.9184  135.8379  152.1553 H   0  0  0  0  0  0  0  0  0  0  0  0
  1  2  1  0  0  0  0
  1 25  1  0  0  0  0
  1 26  1  0  0  0  0
  1 27  1  0  0  0  0
  2  3  1  0  0  0  0
  2 10  1  0  0  0  0
  2 48  1  0  0  0  0
  3  4  1  0  0  0  0
  3 28  1  0  0  0  0
  3 29  1  0  0  0  0
  4  9  1  0  0  0  0
  4  5  2  0  0  0  0
  5  6  1  0  0  0  0
  5 30  1  0  0  0  0
  6  7  2  0  0  0  0
  6 31  1  0  0  0  0
  7  8  1  0  0  0  0
  7 32  1  0  0  0  0
  8  9  2  0  0  0  0
  8 33  1  0  0  0  0
  9 34  1  0  0  0  0
 10 11  1  0  0  0  0
 10 35  1  0  0  0  0
 10 36  1  0  0  0  0
 11 12  1  0  0  0  0
 11 13  1  0  0  0  0
 11 37  1  0  0  0  0
 12 38  1  0  0  0  0
 13 14  1  0  0  0  0
 13 39  1  0  0  0  0
 13 40  1  0  0  0  0
 14 24  1  0  0  0  0
 14 15  1  0  0  0  0
 15 16  1  0  0  0  0
 15 18  2  0  0  0  0
 16 17  1  0  0  0  0
 16 41  1  0  0  0  0
 16 42  1  0  0  0  0
 17 43  1  0  0  0  0
 18 19  1  0  0  0  0
 19 24  2  0  0  0  0
 19 20  1  0  0  0  0
 20 21  2  0  0  0  0
 20 44  1  0  0  0  0
 21 22  1  0  0  0  0
 21 45  1  0  0  0  0
 22 23  2  0  0  0  0
 22 46  1  0  0  0  0
 23 24  1  0  0  0  0
 23 47  1  0  0  0  0
M  CHG  1   2   1
M  END
> <s_m_source_file>
AV-unprocessed.smi

> <i_m_source_file_index>
1669

> <i_lp_mmshare_version>
43012

> <i_f3d_flags>
0

> <s_epik_input>
W2NIXTFbY0hdW2NIXVtjSF1bY0hdYzFbQ0gyXU4oW0NIM10pW0NIMl1bQ0BIXShbT0hdKVtDSDJdbihjKG4yKVtDSDJdW09IXSljKGMyMylbY0hdW2NIXVtjSF1bY0hdMw==

> <s_epik_cmdline>
J2VwaWtfcHl0aG9uJywgJy1waCcsICc3LjAnLCAnLXRuJywgJzgnLCAnLW1hJywgJzIwMCcsICctbWV0YWxfYmluZGluZycsICctaW1hZScsICc8aW5maWxlLm1hZT4nLCAnLW9tYWUnLCAnPG91dGZpbGUubWFlPic=

> <r_epik_Ionization_Penalty>
0.0949884

> <r_epik_Ionization_Penalty_Charging>
0.0475377

> <r_epik_Ionization_Penalty_Neutral>
0.0474507

> <r_epik_State_Penalty>
0.078247

> <r_epik_Charging_Adjusted_Penalty>
0.125785

> <i_epik_Tot_Q>
1

> <i_epik_Tot_abs_Q>
1

> <r_epik_Metal_State_Penalty>
0.0403451

> <b_epik_Metal_Only>
0

> <s_lp_Force_Field>
OPLS_2005

> <r_lp_Energy>
16.6823

> <b_lp_Chiralities_Consistent>
1

> <s_lp_Variant>
AV-unprocessed.smi:1669-4

> <Gold.Version>
5.8.1

> <Gold.Id.Protein>
6NUR|6NUR_protein|mol2

> <Gold.PLP.Fitness>
54.3758

> <Gold.PLP.PLP>
-44.4100

> <Gold.PLP.part.hbond>
-5.9961

> <Gold.PLP.part.metal>
0.0000

> <Gold.PLP.part.buried>
6.2876

> <Gold.PLP.part.nonpolar>
-42.8024

> <Gold.PLP.part.repulsive>
0.1826

> <Gold.PLP.ligand.clash>
0.0123

> <Gold.PLP.ligand.torsion>
1.8876

> <Gold.PLP.Chemscore.Hbond>
4.4660

> <Gold.PLP.Chemscore.CHOScore>
0.0000

> <Gold.PLP.Chemscore.Metal>
0.0000

> <Gold.Chemscore.Hbonds>
donor molecule, donor type, donor heavy atom, donor atom, acceptor molecule, acceptor atom, score
      L1  H     2    48       P1  7948  1.79
      L1  H    12    38       P1  7957  0.88
      L1  H    17    43       P1  8028  0.90
      P1  H  7954  7966       L1    12  0.80

> <Gold.PLP.Chemscore.Internal.Correction>
0.3554

> <Gold.Rescore>
     Score         DG    S(hbond)    S(metal)    S(lipo)     H(rot)  DE(clash)    DE(int)     intcor
     13.65     -17.18       1.72        0.00     120.37       3.17       1.96       1.58       ----

> <Gold.Chemscore.Fitness>
13.6493

> <Gold.Chemscore.DG>
-17.1833

> <Gold.Chemscore.ZeroCoef>
-5.4800

> <Gold.Chemscore.Hbond>
1.7196

> <Gold.Chemscore.Metal>
0.0000

> <Gold.Chemscore.Lipo>
120.3674

> <Gold.Chemscore.Internal_Hbond>
0.0000

> <Gold.Chemscore.DEClash>
1.9554

> <Gold.Chemscore.DEInternal>
1.5786

> <Gold.Chemscore.Rot>
3.1731

> <Gold.Chemscore.Internal.Correction>
   9.000000E+99

> <Gold.Chemscore.Hbonds>
donor molecule, donor type, donor heavy atom, donor atom, acceptor molecule, acceptor atom, score
      L1  H     2    48       P1  7948  0.86
      L1  H    12    38       P1  7957  0.86
      L1  H    17    43       P1  8028  0.18
      P1  H  7954  7966       L1    12  0.12

> <Gold.Chemscore.Hbond.Weighted>
-5.7433

> <Gold.Chemscore.Metal.Weighted>
-0.0000

> <Gold.Chemscore.Lipo.Weighted>
-14.0830

> <Gold.Chemscore.Internal_Hbond.Weighted>
0.0000

> <Gold.Chemscore.DEClash.Weighted>
1.9554

> <Gold.Chemscore.DEInternal.Weighted>
1.5786

> <Gold.Chemscore.Rot.Weighted>
8.1230

> <Gold.Chemscore.Internal.Correction.Weighted>
   9.000000E+99

> <Gold.Protein.RotatedTorsions>
[ 6907 6896 6895 6894 ] final   56.61 input  -60.11 | X-H torsion
[ 7974 7965 7964 7962 ] final  112.96 input  175.53 | X-H torsion
[ 8008 7997 7996 7995 ] final  -61.08 input   59.86 | X-H torsion
[ 10167 10162 10161 10158 ] final   69.30 input  -65.29 | X-H torsion
[ 10718 10713 10712 10709 ] final   35.17 input   66.30 | X-H torsion
[ 10763 10752 10751 10750 ] final  145.59 input  -60.55 | X-H torsion
[ 11005 11000 10999 10996 ] final   10.00 input  -57.11 | X-H torsion

> <Gold.Protein.ActiveResidues>
 VAL166  LYS551  ARG553  GLY616  TRP617  ASP618  TYR619  PRO620  LYS621  CYS622 
 ASP623  PHE694  ASN695  SER759  ASP760  ASP761  ALA762  ILE779  LEU786  VAL792 
 PHE793  MET794  SER795  GLU796  ALA797  LYS798  CYS799  TRP800  GLU811  SER814 

> <Gold.Protein.RotatedAtoms>
  152.3653  134.6813  160.0193 H   0  0  0  0  0  0  0  0  0  0  0  0  # atno 6907 bound_to 6896
  151.7124  133.3307  159.3302 H   0  0  0  0  0  0  0  0  0  0  0  0  # atno 6908 bound_to 6896
  150.7634  134.6455  159.6304 H   0  0  0  0  0  0  0  0  0  0  0  0  # atno 6909 bound_to 6896
  145.2230  139.2853  143.4208 H   0  0  0  0  0  0  0  0  0  0  0  0  # atno 7974 bound_to 7965
  154.4430  140.1025  156.6375 H   0  0  0  0  0  0  0  0  0  0  0  0  # atno 8008 bound_to 7997
  155.5538  140.3486  155.4456 H   0  0  0  0  0  0  0  0  0  0  0  0  # atno 8009 bound_to 7997
  156.0510  140.1304  157.0040 H   0  0  0  0  0  0  0  0  0  0  0  0  # atno 8010 bound_to 7997
  140.0693  144.5166  150.7239 H   0  0  0  0  0  0  0  0  0  0  0  0  # atno 10167 bound_to 10162
  157.3194  130.7440  149.6775 H   0  0  0  0  0  0  0  0  0  0  0  0  # atno 10718 bound_to 10713
  154.0080  135.2917  155.3395 H   0  0  0  0  0  0  0  0  0  0  0  0  # atno 10763 bound_to 10752
  154.7120  135.5145  153.8684 H   0  0  0  0  0  0  0  0  0  0  0  0  # atno 10764 bound_to 10752
  153.0736  135.6656  154.0314 H   0  0  0  0  0  0  0  0  0  0  0  0  # atno 10765 bound_to 10752
  140.5194  134.0573  155.7840 H   0  0  0  0  0  0  0  0  0  0  0  0  # atno 11005 bound_to 11000
  146.3371  140.2541  142.8599 LP  0  0  0  0  0  0  0  0  0  0  0  0  # atno 17320 bound_to 7965
  144.9748  140.8403  143.5433 LP  0  0  0  0  0  0  0  0  0  0  0  0  # atno 17321 bound_to 7965
  140.7134  143.2523  151.4512 LP  0  0  0  0  0  0  0  0  0  0  0  0  # atno 17342 bound_to 10162
  139.5846  144.1633  152.2012 LP  0  0  0  0  0  0  0  0  0  0  0  0  # atno 17343 bound_to 10162
  155.9684  130.4227  150.4530 LP  0  0  0  0  0  0  0  0  0  0  0  0  # atno 17370 bound_to 10713
  157.2543  131.0553  151.2360 LP  0  0  0  0  0  0  0  0  0  0  0  0  # atno 17371 bound_to 10713
  141.1342  133.9250  157.2470 LP  0  0  0  0  0  0  0  0  0  0  0  0  # atno 17394 bound_to 11000
  139.9614  135.0153  156.9271 LP  0  0  0  0  0  0  0  0  0  0  0  0  # atno 17395 bound_to 11000

$$$$
