AV-unprocessed.smi:2042|AV-procd|sdf|8294|dock8
  -GOLD-   2272010563D 1   1.00000     0.00000
 Structure written by MMmdl.
 30 31  0  0  0  0  0  0  0  0  1 V2000
  151.2179  135.1264  155.7400 O   0  0  0  0  0  0  0  0  0  0  0  0
  150.5158  135.4521  154.7857 C   0  0  0  0  0  0  0  0  0  0  0  0
  150.3422  136.7172  154.3547 N   0  0  0  0  0  0  0  0  0  0  0  0
  150.8514  137.9262  154.9023 C   0  0  0  0  0  0  0  0  0  0  0  0
  151.7035  137.9997  156.0312 C   0  0  0  0  0  0  0  0  0  0  0  0
  152.1220  139.2652  156.4861 C   0  0  0  0  0  0  0  0  0  0  0  0
  151.6701  140.4099  155.8017 C   0  0  0  0  0  0  0  0  0  0  0  0
  150.8491  140.3557  154.7321 N   0  0  0  0  0  0  0  0  0  0  0  0
  150.4514  139.1391  154.3024 C   0  0  0  0  0  0  0  0  0  0  0  0
  149.8693  134.5263  154.0545 N   0  0  0  0  0  0  0  0  0  0  0  0
  149.8426  133.0750  154.2434 C   0  0  2  0  0  0  0  0  0  0  0  0
  148.9309  132.4004  153.2013 C   0  0  0  0  0  0  0  0  0  0  0  0
  148.6521  130.9605  153.6497 C   0  0  0  0  0  0  0  0  0  0  0  0
  148.6829  130.9842  155.4825 S   0  0  0  0  0  0  0  0  0  0  0  0
  147.3072  130.9376  156.0005 O   0  0  0  0  0  0  0  0  0  0  0  0
  149.7025  130.0347  155.9539 O   0  0  0  0  0  0  0  0  0  0  0  0
  149.3239  132.6932  155.6394 C   0  0  0  0  0  0  0  0  0  0  0  0
  149.8069  136.8222  153.5053 H   0  0  0  0  0  0  0  0  0  0  0  0
  152.0326  137.1219  156.5646 H   0  0  0  0  0  0  0  0  0  0  0  0
  152.7714  139.3559  157.3441 H   0  0  0  0  0  0  0  0  0  0  0  0
  151.9716  141.3951  156.1258 H   0  0  0  0  0  0  0  0  0  0  0  0
  149.7916  139.1349  153.4468 H   0  0  0  0  0  0  0  0  0  0  0  0
  149.3547  134.8708  153.2567 H   0  0  0  0  0  0  0  0  0  0  0  0
  150.8439  132.6600  154.1130 H   0  0  0  0  0  0  0  0  0  0  0  0
  147.9830  132.9383  153.1506 H   0  0  0  0  0  0  0  0  0  0  0  0
  149.3661  132.4299  152.2018 H   0  0  0  0  0  0  0  0  0  0  0  0
  147.6950  130.5807  153.2921 H   0  0  0  0  0  0  0  0  0  0  0  0
  149.4419  130.2902  153.3096 H   0  0  0  0  0  0  0  0  0  0  0  0
  150.0925  132.7354  156.4112 H   0  0  0  0  0  0  0  0  0  0  0  0
  148.4930  133.3325  155.9406 H   0  0  0  0  0  0  0  0  0  0  0  0
  1  2  2  0  0  0  0
  2  3  1  0  0  0  0
  2 10  1  0  0  0  0
  3  4  1  0  0  0  0
  3 18  1  0  0  0  0
  4  9  1  0  0  0  0
  4  5  2  0  0  0  0
  5  6  1  0  0  0  0
  5 19  1  0  0  0  0
  6  7  2  0  0  0  0
  6 20  1  0  0  0  0
  7  8  1  0  0  0  0
  7 21  1  0  0  0  0
  8  9  2  0  0  0  0
  9 22  1  0  0  0  0
 10 11  1  0  0  0  0
 10 23  1  0  0  0  0
 11 17  1  0  0  0  0
 11 12  1  0  0  0  0
 11 24  1  0  0  0  0
 12 13  1  0  0  0  0
 12 25  1  0  0  0  0
 12 26  1  0  0  0  0
 13 14  1  0  0  0  0
 13 27  1  0  0  0  0
 13 28  1  0  0  0  0
 14 15  2  0  0  0  0
 14 16  2  0  0  0  0
 14 17  1  0  0  0  0
 17 29  1  0  0  0  0
 17 30  1  0  0  0  0
M  END
> <s_m_source_file>
AV-unprocessed.smi

> <i_m_source_file_index>
2042

> <i_lp_mmshare_version>
43012

> <i_f3d_flags>
0

> <s_epik_input>
Tz1TMSg9TylbQ0gyXVtDSDJdW0NASF0oW0NIMl0xKVtOSF1DKD1PKVtOSF1jMltjSF1bY0hdW2NIXW5bY0hdMg==

> <s_epik_cmdline>
J2VwaWtfcHl0aG9uJywgJy1waCcsICc3LjAnLCAnLXRuJywgJzgnLCAnLW1hJywgJzIwMCcsICctbWV0YWxfYmluZGluZycsICctaW1hZScsICc8aW5maWxlLm1hZT4nLCAnLW9tYWUnLCAnPG91dGZpbGUubWFlPic=

> <r_epik_Ionization_Penalty>
0.00421056

> <r_epik_Ionization_Penalty_Charging>
0

> <r_epik_Ionization_Penalty_Neutral>
0.00421056

> <r_epik_State_Penalty>
0.00300625

> <r_epik_Charging_Adjusted_Penalty>
0.00300625

> <i_epik_Tot_Q>
0

> <i_epik_Tot_abs_Q>
0

> <r_epik_Metal_State_Penalty>
-0

> <b_epik_Metal_Only>
0

> <s_lp_Force_Field>
OPLS_2005

> <r_lp_Energy>
18.6302

> <b_lp_Chiralities_Consistent>
1

> <s_lp_Variant>
AV-unprocessed.smi:2042-1

> <Gold.Version>
5.8.1

> <Gold.Id.Protein>
6NUR|6NUR_protein|mol2

> <Gold.PLP.Fitness>
40.0403

> <Gold.PLP.PLP>
-25.9175

> <Gold.PLP.part.hbond>
-4.8963

> <Gold.PLP.part.metal>
0.0000

> <Gold.PLP.part.buried>
-0.8278

> <Gold.PLP.part.nonpolar>
-19.9867

> <Gold.PLP.part.repulsive>
0.2663

> <Gold.PLP.ligand.clash>
0.0000

> <Gold.PLP.ligand.torsion>
0.0074

> <Gold.PLP.Chemscore.Hbond>
3.7200

> <Gold.PLP.Chemscore.CHOScore>
0.9924

> <Gold.PLP.Chemscore.Metal>
0.0000

> <Gold.Chemscore.Hbonds>
donor molecule, donor type, donor heavy atom, donor atom, acceptor molecule, acceptor atom, score
      L1  H     3    18       P1  7948  1.00
      L1  H    10    23       P1  7948  0.50
      P1  H  7989  7998       L1     8  1.00
      P1  H 10752 10763       L1     1  0.90
      L1  C     9    22       P1  7957  1.00

> <Gold.PLP.Chemscore.Internal.Correction>
0.0005

> <Gold.Rescore>
     Score         DG    S(hbond)    S(metal)    S(lipo)     H(rot)  DE(clash)    DE(int)     intcor
     14.90     -16.16       2.05        0.00      54.75       1.00       0.03       1.24       ----

> <Gold.Chemscore.Fitness>
14.8986

> <Gold.Chemscore.DG>
-16.1650

> <Gold.Chemscore.ZeroCoef>
-5.4800

> <Gold.Chemscore.Hbond>
2.0476

> <Gold.Chemscore.Metal>
0.0000

> <Gold.Chemscore.Lipo>
54.7521

> <Gold.Chemscore.Internal_Hbond>
0.0000

> <Gold.Chemscore.DEClash>
0.0300

> <Gold.Chemscore.DEInternal>
1.2363

> <Gold.Chemscore.Rot>
1.0000

> <Gold.Chemscore.Internal.Correction>
   9.000000E+99

> <Gold.Chemscore.Hbonds>
donor molecule, donor type, donor heavy atom, donor atom, acceptor molecule, acceptor atom, score
      L1  H     3    18       P1  7948  0.44
      L1  H    10    23       P1  7948  0.02
      P1  H  7989  7998       L1     8  0.21
      P1  H 10752 10763       L1     1  0.16

> <Gold.Chemscore.Hbond.Weighted>
-6.8390

> <Gold.Chemscore.Metal.Weighted>
-0.0000

> <Gold.Chemscore.Lipo.Weighted>
-6.4060

> <Gold.Chemscore.Internal_Hbond.Weighted>
0.0000

> <Gold.Chemscore.DEClash.Weighted>
0.0300

> <Gold.Chemscore.DEInternal.Weighted>
1.2363

> <Gold.Chemscore.Rot.Weighted>
2.5600

> <Gold.Chemscore.Internal.Correction.Weighted>
   9.000000E+99

> <Gold.Protein.RotatedTorsions>
[ 6907 6896 6895 6894 ] final  -36.15 input  -60.11 | X-H torsion
[ 7974 7965 7964 7962 ] final  -94.85 input  175.53 | X-H torsion
[ 8008 7997 7996 7995 ] final  170.30 input   59.86 | X-H torsion
[ 10167 10162 10161 10158 ] final   41.50 input  -65.29 | X-H torsion
[ 10718 10713 10712 10709 ] final -145.82 input   66.30 | X-H torsion
[ 10763 10752 10751 10750 ] final   78.76 input  -60.55 | X-H torsion
[ 11005 11000 10999 10996 ] final -116.28 input  -57.11 | X-H torsion

> <Gold.Protein.ActiveResidues>
 VAL166  LYS551  ARG553  GLY616  TRP617  ASP618  TYR619  PRO620  LYS621  CYS622 
 ASP623  PHE694  ASN695  SER759  ASP760  ASP761  ALA762  ILE779  LEU786  VAL792 
 PHE793  MET794  SER795  GLU796  ALA797  LYS798  CYS799  TRP800  GLU811  SER814 

> <Gold.Protein.RotatedAtoms>
  151.0308  134.9538  159.8109 H   0  0  0  0  0  0  0  0  0  0  0  0  # atno 6907 bound_to 6896
  152.5345  134.2783  159.9007 H   0  0  0  0  0  0  0  0  0  0  0  0  # atno 6908 bound_to 6896
  151.2792  133.4175  159.2660 H   0  0  0  0  0  0  0  0  0  0  0  0  # atno 6909 bound_to 6896
  145.3678  140.9501  143.2464 H   0  0  0  0  0  0  0  0  0  0  0  0  # atno 7974 bound_to 7965
  156.1378  140.1541  156.8967 H   0  0  0  0  0  0  0  0  0  0  0  0  # atno 8008 bound_to 7997
  154.4962  140.0837  156.7740 H   0  0  0  0  0  0  0  0  0  0  0  0  # atno 8009 bound_to 7997
  155.4135  140.3420  155.4268 H   0  0  0  0  0  0  0  0  0  0  0  0  # atno 8010 bound_to 7997
  140.3637  144.2195  150.6136 H   0  0  0  0  0  0  0  0  0  0  0  0  # atno 10167 bound_to 10162
  156.3872  130.7867  151.2066 H   0  0  0  0  0  0  0  0  0  0  0  0  # atno 10718 bound_to 10713
  153.0900  135.4865  154.8670 H   0  0  0  0  0  0  0  0  0  0  0  0  # atno 10763 bound_to 10752
  154.7257  135.3049  154.8977 H   0  0  0  0  0  0  0  0  0  0  0  0  # atno 10764 bound_to 10752
  153.9628  135.6810  153.4798 H   0  0  0  0  0  0  0  0  0  0  0  0  # atno 10765 bound_to 10752
  141.0432  133.9803  157.2960 H   0  0  0  0  0  0  0  0  0  0  0  0  # atno 11005 bound_to 11000
  144.8599  139.5194  143.6817 LP  0  0  0  0  0  0  0  0  0  0  0  0  # atno 17320 bound_to 7965
  146.2899  139.7109  142.9169 LP  0  0  0  0  0  0  0  0  0  0  0  0  # atno 17321 bound_to 7965
  140.5102  143.2293  151.8547 LP  0  0  0  0  0  0  0  0  0  0  0  0  # atno 17342 bound_to 10162
  139.4811  144.4959  151.9124 LP  0  0  0  0  0  0  0  0  0  0  0  0  # atno 17343 bound_to 10162
  157.7496  131.0326  150.4235 LP  0  0  0  0  0  0  0  0  0  0  0  0  # atno 17370 bound_to 10713
  156.4490  130.4007  149.6648 LP  0  0  0  0  0  0  0  0  0  0  0  0  # atno 17371 bound_to 10713
  139.9292  135.0200  156.8340 LP  0  0  0  0  0  0  0  0  0  0  0  0  # atno 17394 bound_to 11000
  140.6195  134.0007  155.7612 LP  0  0  0  0  0  0  0  0  0  0  0  0  # atno 17395 bound_to 11000

$$$$
