AV-unprocessed.smi:2045|AV-procd|sdf|8310|dock2
  -GOLD-   2272010573D 1   1.00000     0.00000
 Structure written by MMmdl.
 38 39  0  0  0  0  0  0  0  0  3 V2000
  152.8818  142.5640  161.2844 C   0  0  0  0  0  0  0  0  0  0  0  0
  152.7475  141.7879  160.0196 C   0  0  0  0  0  0  0  0  0  0  0  0
  151.8925  141.8795  158.9577 C   0  0  0  0  0  0  0  0  0  0  0  0
  152.3273  140.8311  158.1035 C   0  0  0  0  0  0  0  0  0  0  0  0
  151.6792  140.5926  156.8626 N   0  0  0  0  0  0  0  0  0  0  0  0
  151.9470  139.6518  155.9383 C   0  0  0  0  0  0  0  0  0  0  0  0
  152.8525  138.8307  156.1269 O   0  0  0  0  0  0  0  0  0  0  0  0
  151.1268  139.7466  154.8558 N   0  5  0  0  0  0  0  0  0  0  0  0
  150.5701  138.6059  154.1323 C   0  0  0  0  0  0  0  0  0  0  0  0
  149.2695  138.1462  154.8176 C   0  0  0  0  0  0  0  0  0  0  0  0
  148.9481  136.7263  154.5120 N   0  3  0  0  0  0  0  0  0  0  0  0
  150.0042  135.7886  154.9780 C   0  0  0  0  0  0  0  0  0  0  0  0
  149.7172  134.3493  154.5170 C   0  0  0  0  0  0  0  0  0  0  0  0
  148.3319  133.8853  154.9845 C   0  0  0  0  0  0  0  0  0  0  0  0
  147.2629  134.8814  154.5181 C   0  0  0  0  0  0  0  0  0  0  0  0
  147.5985  136.3070  154.9868 C   0  0  0  0  0  0  0  0  0  0  0  0
  153.3559  140.1606  158.6009 N   0  0  0  0  0  0  0  0  0  0  0  0
  153.6297  140.7697  159.8313 O   0  0  0  0  0  0  0  0  0  0  0  0
  152.0965  143.3157  161.3660 H   0  0  0  0  0  0  0  0  0  0  0  0
  153.8441  143.0744  161.3236 H   0  0  0  0  0  0  0  0  0  0  0  0
  152.8111  141.9059  162.1504 H   0  0  0  0  0  0  0  0  0  0  0  0
  151.0867  142.5841  158.8156 H   0  0  0  0  0  0  0  0  0  0  0  0
  150.9209  141.2200  156.6402 H   0  0  0  0  0  0  0  0  0  0  0  0
  150.3505  138.8462  153.0911 H   0  0  0  0  0  0  0  0  0  0  0  0
  151.2696  137.7697  154.1033 H   0  0  0  0  0  0  0  0  0  0  0  0
  149.3954  138.2724  155.8944 H   0  0  0  0  0  0  0  0  0  0  0  0
  148.4313  138.7872  154.5382 H   0  0  0  0  0  0  0  0  0  0  0  0
  150.9725  136.1000  154.5844 H   0  0  0  0  0  0  0  0  0  0  0  0
  150.0740  135.8304  156.0662 H   0  0  0  0  0  0  0  0  0  0  0  0
  149.7739  134.2955  153.4289 H   0  0  0  0  0  0  0  0  0  0  0  0
  150.4841  133.6755  154.9000 H   0  0  0  0  0  0  0  0  0  0  0  0
  148.1157  132.8894  154.5968 H   0  0  0  0  0  0  0  0  0  0  0  0
  148.3158  133.8082  156.0725 H   0  0  0  0  0  0  0  0  0  0  0  0
  147.1907  134.8610  153.4298 H   0  0  0  0  0  0  0  0  0  0  0  0
  146.2853  134.5844  154.8989 H   0  0  0  0  0  0  0  0  0  0  0  0
  147.5622  136.3603  156.0760 H   0  0  0  0  0  0  0  0  0  0  0  0
  146.8366  136.9925  154.6144 H   0  0  0  0  0  0  0  0  0  0  0  0
  148.9405  136.6594  153.5040 H   0  0  0  0  0  0  0  0  0  0  0  0
  1  2  1  0  0  0  0
  1 19  1  0  0  0  0
  1 20  1  0  0  0  0
  1 21  1  0  0  0  0
  2 18  1  0  0  0  0
  2  3  2  0  0  0  0
  3  4  1  0  0  0  0
  3 22  1  0  0  0  0
  4  5  1  0  0  0  0
  4 17  2  0  0  0  0
  5  6  1  0  0  0  0
  5 23  1  0  0  0  0
  6  7  2  0  0  0  0
  6  8  1  0  0  0  0
  8  9  1  0  0  0  0
  9 10  1  0  0  0  0
  9 24  1  0  0  0  0
  9 25  1  0  0  0  0
 10 11  1  0  0  0  0
 10 26  1  0  0  0  0
 10 27  1  0  0  0  0
 11 16  1  0  0  0  0
 11 12  1  0  0  0  0
 11 38  1  0  0  0  0
 12 13  1  0  0  0  0
 12 28  1  0  0  0  0
 12 29  1  0  0  0  0
 13 14  1  0  0  0  0
 13 30  1  0  0  0  0
 13 31  1  0  0  0  0
 14 15  1  0  0  0  0
 14 32  1  0  0  0  0
 14 33  1  0  0  0  0
 15 16  1  0  0  0  0
 15 34  1  0  0  0  0
 15 35  1  0  0  0  0
 16 36  1  0  0  0  0
 16 37  1  0  0  0  0
 17 18  1  0  0  0  0
M  CHG  1   8  -1
M  CHG  1  11   1
M  END
> <s_m_source_file>
AV-unprocessed.smi

> <i_m_source_file_index>
2045

> <i_lp_mmshare_version>
43012

> <i_f3d_flags>
0

> <s_epik_input>
W0NIM11jMVtjSF1jKG5vMSlbTkhdQyg9TylbTkhdW0NIMl1bQ0gyXU4yW0NIMl1bQ0gyXVtDSDJdW0NIMl1bQ0gyXTI=

> <s_epik_cmdline>
J2VwaWtfcHl0aG9uJywgJy1waCcsICc3LjAnLCAnLXRuJywgJzgnLCAnLW1hJywgJzIwMCcsICctbWV0YWxfYmluZGluZycsICctaW1hZScsICc8aW5maWxlLm1hZT4nLCAnLW9tYWUnLCAnPG91dGZpbGUubWFlPic=

> <r_epik_Ionization_Penalty>
6.7666

> <r_epik_Ionization_Penalty_Charging>
6.7666

> <r_epik_Ionization_Penalty_Neutral>
5.77131e-06

> <r_epik_State_Penalty>
6.79217

> <r_epik_Charging_Adjusted_Penalty>
13.5588

> <i_epik_Tot_Q>
0

> <i_epik_Tot_abs_Q>
2

> <r_epik_Metal_State_Penalty>
2.72569

> <b_epik_Metal_Only>
1

> <s_lp_Force_Field>
OPLS_2005

> <r_lp_Energy>
13.1294

> <b_lp_Chiralities_Consistent>
1

> <s_lp_Variant>
AV-unprocessed.smi:2045-3

> <Gold.Version>
5.8.1

> <Gold.Id.Protein>
6NUR|6NUR_protein|mol2

> <Gold.PLP.Fitness>
41.1500

> <Gold.PLP.PLP>
-30.2371

> <Gold.PLP.part.hbond>
-4.0000

> <Gold.PLP.part.metal>
0.0000

> <Gold.PLP.part.buried>
-4.9644

> <Gold.PLP.part.nonpolar>
-21.3034

> <Gold.PLP.part.repulsive>
0.1740

> <Gold.PLP.ligand.clash>
0.0000

> <Gold.PLP.ligand.torsion>
0.6104

> <Gold.PLP.Chemscore.Hbond>
4.0000

> <Gold.PLP.Chemscore.CHOScore>
0.0000

> <Gold.PLP.Chemscore.Metal>
0.0000

> <Gold.Chemscore.Hbonds>
donor molecule, donor type, donor heavy atom, donor atom, acceptor molecule, acceptor atom, score
      L1  H    11    38       P1  7948  2.00
      P1  H  7989  7998       L1     8  1.00
      P1  H  7997  8009       L1     7  1.00

> <Gold.PLP.Chemscore.Internal.Correction>
0.1337

> <Gold.Rescore>
     Score         DG    S(hbond)    S(metal)    S(lipo)     H(rot)  DE(clash)    DE(int)     intcor
     15.03     -16.92       2.44        0.00      62.13       1.55       0.00       1.88       ----

> <Gold.Chemscore.Fitness>
15.0344

> <Gold.Chemscore.DG>
-16.9219

> <Gold.Chemscore.ZeroCoef>
-5.4800

> <Gold.Chemscore.Hbond>
2.4406

> <Gold.Chemscore.Metal>
0.0000

> <Gold.Chemscore.Lipo>
62.1338

> <Gold.Chemscore.Internal_Hbond>
0.0000

> <Gold.Chemscore.DEClash>
0.0036

> <Gold.Chemscore.DEInternal>
1.8839

> <Gold.Chemscore.Rot>
1.5544

> <Gold.Chemscore.Internal.Correction>
   9.000000E+99

> <Gold.Chemscore.Hbonds>
donor molecule, donor type, donor heavy atom, donor atom, acceptor molecule, acceptor atom, score
      L1  H    11    38       P1  7948  1.00
      P1  H  7989  7998       L1     8  0.33
      P1  H  7997  8009       L1     7  0.23

> <Gold.Chemscore.Hbond.Weighted>
-8.1516

> <Gold.Chemscore.Metal.Weighted>
-0.0000

> <Gold.Chemscore.Lipo.Weighted>
-7.2697

> <Gold.Chemscore.Internal_Hbond.Weighted>
0.0000

> <Gold.Chemscore.DEClash.Weighted>
0.0036

> <Gold.Chemscore.DEInternal.Weighted>
1.8839

> <Gold.Chemscore.Rot.Weighted>
3.9794

> <Gold.Chemscore.Internal.Correction.Weighted>
   9.000000E+99

> <Gold.Protein.RotatedTorsions>
[ 6907 6896 6895 6894 ] final  -94.69 input  -60.11 | X-H torsion
[ 7974 7965 7964 7962 ] final  128.91 input  175.53 | X-H torsion
[ 8008 7997 7996 7995 ] final -178.41 input   59.86 | X-H torsion
[ 10167 10162 10161 10158 ] final -175.47 input  -65.29 | X-H torsion
[ 10718 10713 10712 10709 ] final  127.90 input   66.30 | X-H torsion
[ 10763 10752 10751 10750 ] final  -30.85 input  -60.55 | X-H torsion
[ 11005 11000 10999 10996 ] final  162.45 input  -57.11 | X-H torsion

> <Gold.Protein.ActiveResidues>
 VAL166  LYS551  ARG553  GLY616  TRP617  ASP618  TYR619  PRO620  LYS621  CYS622 
 ASP623  PHE694  ASN695  SER759  ASP760  ASP761  ALA762  ILE779  LEU786  VAL792 
 PHE793  MET794  SER795  GLU796  ALA797  LYS798  CYS799  TRP800  GLU811  SER814 

> <Gold.Protein.RotatedAtoms>
  150.6947  134.1773  159.4234 H   0  0  0  0  0  0  0  0  0  0  0  0  # atno 6907 bound_to 6896
  151.9748  135.0056  160.0564 H   0  0  0  0  0  0  0  0  0  0  0  0  # atno 6908 bound_to 6896
  152.1808  133.4671  159.4994 H   0  0  0  0  0  0  0  0  0  0  0  0  # atno 6909 bound_to 6896
  145.0343  139.4018  143.5134 H   0  0  0  0  0  0  0  0  0  0  0  0  # atno 7974 bound_to 7965
  156.0185  140.1256  157.0382 H   0  0  0  0  0  0  0  0  0  0  0  0  # atno 8008 bound_to 7997
  154.4302  140.1073  156.5999 H   0  0  0  0  0  0  0  0  0  0  0  0  # atno 8009 bound_to 7997
  155.5979  140.3470  155.4587 H   0  0  0  0  0  0  0  0  0  0  0  0  # atno 8010 bound_to 7997
  139.5579  144.1942  152.1190 H   0  0  0  0  0  0  0  0  0  0  0  0  # atno 10167 bound_to 10162
  157.5292  131.1098  150.9035 H   0  0  0  0  0  0  0  0  0  0  0  0  # atno 10718 bound_to 10713
  153.7877  135.6900  153.4877 H   0  0  0  0  0  0  0  0  0  0  0  0  # atno 10763 bound_to 10752
  153.1770  135.4521  154.9977 H   0  0  0  0  0  0  0  0  0  0  0  0  # atno 10764 bound_to 10752
  154.8057  135.3356  154.7375 H   0  0  0  0  0  0  0  0  0  0  0  0  # atno 10765 bound_to 10752
  140.2259  134.8161  157.3268 H   0  0  0  0  0  0  0  0  0  0  0  0  # atno 11005 bound_to 11000
  146.3502  139.9910  142.8685 LP  0  0  0  0  0  0  0  0  0  0  0  0  # atno 17320 bound_to 7965
  145.1729  140.9730  143.4311 LP  0  0  0  0  0  0  0  0  0  0  0  0  # atno 17321 bound_to 7965
  140.1450  144.5167  150.6721 LP  0  0  0  0  0  0  0  0  0  0  0  0  # atno 17342 bound_to 10162
  140.6855  143.2348  151.5272 LP  0  0  0  0  0  0  0  0  0  0  0  0  # atno 17343 bound_to 10162
  156.9622  130.5459  149.5286 LP  0  0  0  0  0  0  0  0  0  0  0  0  # atno 17370 bound_to 10713
  156.0410  130.5492  150.8770 LP  0  0  0  0  0  0  0  0  0  0  0  0  # atno 17371 bound_to 10713
  140.1801  134.4500  155.7777 LP  0  0  0  0  0  0  0  0  0  0  0  0  # atno 17394 bound_to 11000
  141.2220  133.6980  156.7854 LP  0  0  0  0  0  0  0  0  0  0  0  0  # atno 17395 bound_to 11000

$$$$
