AV-unprocessed.smi:2526|AV-procd|sdf|9935|dock6
  -GOLD-   2272013583D 1   1.00000     0.00000
 Structure written by MMmdl.
 29 30  0  0  0  0  0  0  0  0  2 V2000
  140.9782  135.9901  153.7368 C   0  0  0  0  0  0  0  0  0  0  0  0
  142.2599  136.0783  153.0703 N   0  0  0  0  0  0  0  0  0  0  0  0
  143.1119  135.0592  152.7050 C   0  0  0  0  0  0  0  0  0  0  0  0
  144.1991  135.6252  152.0952 C   0  0  0  0  0  0  0  0  0  0  0  0
  145.4249  134.9651  151.4960 C   0  0  1  0  0  0  0  0  0  0  0  0
  146.1944  134.2630  152.5267 N   0  0  0  0  0  0  0  0  0  0  0  0
  146.1491  132.9464  152.8047 C   0  0  0  0  0  0  0  0  0  0  0  0
  146.7474  132.4756  153.7685 O   0  0  0  0  0  0  0  0  0  0  0  0
  145.3746  132.0055  151.8661 C   0  0  0  0  0  0  0  0  0  0  0  0
  144.4337  132.7222  150.8805 C   0  0  0  0  0  0  0  0  0  0  0  0
  145.0766  134.0038  150.3334 C   0  0  1  0  0  0  0  0  0  0  0  0
  144.2360  134.6413  149.3028 N   0  3  0  0  0  0  0  0  0  0  0  0
  143.9112  137.0199  152.1553 C   0  0  0  0  0  0  0  0  0  0  0  0
  142.7509  137.2865  152.7301 N   0  0  0  0  0  0  0  0  0  0  0  0
  140.7210  134.9461  153.9171 H   0  0  0  0  0  0  0  0  0  0  0  0
  140.2056  136.4425  153.1141 H   0  0  0  0  0  0  0  0  0  0  0  0
  141.0220  136.5142  154.6920 H   0  0  0  0  0  0  0  0  0  0  0  0
  142.8737  134.0238  152.9014 H   0  0  0  0  0  0  0  0  0  0  0  0
  146.0870  135.7365  151.1007 H   0  0  0  0  0  0  0  0  0  0  0  0
  146.7520  134.8414  153.1391 H   0  0  0  0  0  0  0  0  0  0  0  0
  146.1153  131.4371  151.3030 H   0  0  0  0  0  0  0  0  0  0  0  0
  144.8145  131.2802  152.4570 H   0  0  0  0  0  0  0  0  0  0  0  0
  144.1898  132.0462  150.0604 H   0  0  0  0  0  0  0  0  0  0  0  0
  143.4888  132.9527  151.3747 H   0  0  0  0  0  0  0  0  0  0  0  0
  146.0051  133.7222  149.8341 H   0  0  0  0  0  0  0  0  0  0  0  0
  143.3025  134.2578  149.3479 H   0  0  0  0  0  0  0  0  0  0  0  0
  144.6288  134.4638  148.3893 H   0  0  0  0  0  0  0  0  0  0  0  0
  144.5081  137.8435  151.7921 H   0  0  0  0  0  0  0  0  0  0  0  0
  144.1986  135.6374  149.4650 H   0  0  0  0  0  0  0  0  0  0  0  0
  1  2  1  0  0  0  0
  1 15  1  0  0  0  0
  1 16  1  0  0  0  0
  1 17  1  0  0  0  0
  2 14  1  0  0  0  0
  2  3  1  0  0  0  0
  3  4  2  0  0  0  0
  3 18  1  0  0  0  0
  4  5  1  0  0  0  0
  4 13  1  0  0  0  0
  5 11  1  0  0  0  0
  5  6  1  0  0  0  0
  5 19  1  0  0  0  0
  6  7  1  0  0  0  0
  6 20  1  0  0  0  0
  7  8  2  0  0  0  0
  7  9  1  0  0  0  0
  9 10  1  0  0  0  0
  9 21  1  0  0  0  0
  9 22  1  0  0  0  0
 10 11  1  0  0  0  0
 10 23  1  0  0  0  0
 10 24  1  0  0  0  0
 11 12  1  0  0  0  0
 11 25  1  0  0  0  0
 12 26  1  0  0  0  0
 12 27  1  0  0  0  0
 12 29  1  0  0  0  0
 13 14  2  0  0  0  0
 13 28  1  0  0  0  0
M  CHG  1  12   1
M  END
> <s_m_source_file>
AV-unprocessed.smi

> <i_m_source_file_index>
2526

> <i_lp_mmshare_version>
43012

> <i_f3d_flags>
0

> <s_epik_input>
W0NIM11uMVtjSF1jKFtjSF1uMSlbQ0BASF0yW05IXUMoPU8pW0NIMl1bQ0gyXVtDQEhdMltOSDJd

> <s_epik_cmdline>
J2VwaWtfcHl0aG9uJywgJy1waCcsICc3LjAnLCAnLXRuJywgJzgnLCAnLW1hJywgJzIwMCcsICctbWV0YWxfYmluZGluZycsICctaW1hZScsICc8aW5maWxlLm1hZT4nLCAnLW9tYWUnLCAnPG91dGZpbGUubWFlPic=

> <r_lp_tautomer_probability>
1

> <r_epik_Ionization_Penalty>
0.00878543

> <r_epik_Ionization_Penalty_Charging>
0.00874185

> <r_epik_Ionization_Penalty_Neutral>
4.35793e-05

> <r_epik_State_Penalty>
0.00660351

> <r_epik_Charging_Adjusted_Penalty>
0.0153454

> <i_epik_Tot_Q>
1

> <i_epik_Tot_abs_Q>
1

> <r_epik_Metal_State_Penalty>
0.00660727

> <b_epik_Metal_Only>
0

> <s_lp_Force_Field>
OPLS_2005

> <r_lp_Energy>
11.1602

> <b_lp_Chiralities_Consistent>
1

> <s_lp_Variant>
AV-unprocessed.smi:2526-2

> <Gold.Version>
5.8.1

> <Gold.Id.Protein>
6NUR|6NUR_protein|mol2

> <Gold.PLP.Fitness>
35.5486

> <Gold.PLP.PLP>
-20.5053

> <Gold.PLP.part.hbond>
-2.0000

> <Gold.PLP.part.metal>
0.0000

> <Gold.PLP.part.buried>
-1.7053

> <Gold.PLP.part.nonpolar>
-17.9354

> <Gold.PLP.part.repulsive>
0.4084

> <Gold.PLP.ligand.clash>
0.0000

> <Gold.PLP.ligand.torsion>
0.0133

> <Gold.PLP.Chemscore.Hbond>
2.7771

> <Gold.PLP.Chemscore.CHOScore>
2.2399

> <Gold.PLP.Chemscore.Metal>
0.0000

> <Gold.Chemscore.Hbonds>
donor molecule, donor type, donor heavy atom, donor atom, acceptor molecule, acceptor atom, score
      L1  H    12    26       P1 10186  0.65
      L1  H    12    27       P1  7921  0.72
      L1  C    13    28       P1 10171  0.67
      L1  C    13    28       P1 10175  0.23

> <Gold.PLP.Chemscore.Internal.Correction>
0.0187

> <Gold.Rescore>
     Score         DG    S(hbond)    S(metal)    S(lipo)     H(rot)  DE(clash)    DE(int)     intcor
     14.31     -14.37       1.77        0.00      47.34       1.00       0.00       0.06       ----

> <Gold.Chemscore.Fitness>
14.3116

> <Gold.Chemscore.DG>
-14.3680

> <Gold.Chemscore.ZeroCoef>
-5.4800

> <Gold.Chemscore.Hbond>
1.7692

> <Gold.Chemscore.Metal>
0.0000

> <Gold.Chemscore.Lipo>
47.3399

> <Gold.Chemscore.Internal_Hbond>
0.0000

> <Gold.Chemscore.DEClash>
0.0000

> <Gold.Chemscore.DEInternal>
0.0564

> <Gold.Chemscore.Rot>
1.0000

> <Gold.Chemscore.Internal.Correction>
   9.000000E+99

> <Gold.Chemscore.Hbonds>
donor molecule, donor type, donor heavy atom, donor atom, acceptor molecule, acceptor atom, score
      L1  H    12    26       P1 10186  0.32
      L1  H    12    27       P1  7921  0.72

> <Gold.Chemscore.Hbond.Weighted>
-5.9092

> <Gold.Chemscore.Metal.Weighted>
-0.0000

> <Gold.Chemscore.Lipo.Weighted>
-5.5388

> <Gold.Chemscore.Internal_Hbond.Weighted>
0.0000

> <Gold.Chemscore.DEClash.Weighted>
0.0000

> <Gold.Chemscore.DEInternal.Weighted>
0.0564

> <Gold.Chemscore.Rot.Weighted>
2.5600

> <Gold.Chemscore.Internal.Correction.Weighted>
   9.000000E+99

> <Gold.Protein.RotatedTorsions>
[ 6907 6896 6895 6894 ] final   57.69 input  -60.11 | X-H torsion
[ 7974 7965 7964 7962 ] final   74.43 input  175.53 | X-H torsion
[ 8008 7997 7996 7995 ] final  -74.42 input   59.86 | X-H torsion
[ 10167 10162 10161 10158 ] final -124.05 input  -65.29 | X-H torsion
[ 10718 10713 10712 10709 ] final  140.96 input   66.30 | X-H torsion
[ 10763 10752 10751 10750 ] final -120.88 input  -60.55 | X-H torsion
[ 11005 11000 10999 10996 ] final -179.35 input  -57.11 | X-H torsion

> <Gold.Protein.ActiveResidues>
 VAL166  LYS551  ARG553  GLY616  TRP617  ASP618  TYR619  PRO620  LYS621  CYS622 
 ASP623  PHE694  ASN695  SER759  ASP760  ASP761  ALA762  ILE779  LEU786  VAL792 
 PHE793  MET794  SER795  GLU796  ALA797  LYS798  CYS799  TRP800  GLU811  SER814 

> <Gold.Protein.RotatedAtoms>
  152.3755  134.6670  160.0161 H   0  0  0  0  0  0  0  0  0  0  0  0  # atno 6907 bound_to 6896
  151.6950  133.3305  159.3260 H   0  0  0  0  0  0  0  0  0  0  0  0  # atno 6908 bound_to 6896
  150.7706  134.6601  159.6379 H   0  0  0  0  0  0  0  0  0  0  0  0  # atno 6909 bound_to 6896
  145.7283  139.2674  143.1556 H   0  0  0  0  0  0  0  0  0  0  0  0  # atno 7974 bound_to 7965
  154.5329  140.0762  156.8377 H   0  0  0  0  0  0  0  0  0  0  0  0  # atno 8008 bound_to 7997
  155.3337  140.3403  155.4221 H   0  0  0  0  0  0  0  0  0  0  0  0  # atno 8009 bound_to 7997
  156.1799  140.1649  156.8279 H   0  0  0  0  0  0  0  0  0  0  0  0  # atno 8010 bound_to 7997
  139.9969  143.5582  152.2319 H   0  0  0  0  0  0  0  0  0  0  0  0  # atno 10167 bound_to 10162
  157.3974  131.1012  151.0586 H   0  0  0  0  0  0  0  0  0  0  0  0  # atno 10718 bound_to 10713
  154.8655  135.4187  154.2530 H   0  0  0  0  0  0  0  0  0  0  0  0  # atno 10763 bound_to 10752
  153.3473  135.6997  153.6823 H   0  0  0  0  0  0  0  0  0  0  0  0  # atno 10764 bound_to 10752
  153.5777  135.3579  155.2835 H   0  0  0  0  0  0  0  0  0  0  0  0  # atno 10765 bound_to 10752
  140.4196  134.6617  157.4657 H   0  0  0  0  0  0  0  0  0  0  0  0  # atno 11005 bound_to 11000
  146.0561  140.8019  142.9758 LP  0  0  0  0  0  0  0  0  0  0  0  0  # atno 17320 bound_to 7965
  144.6899  140.3126  143.7245 LP  0  0  0  0  0  0  0  0  0  0  0  0  # atno 17321 bound_to 7965
  139.6300  144.7643  151.2557 LP  0  0  0  0  0  0  0  0  0  0  0  0  # atno 17342 bound_to 10162
  140.7434  143.6497  150.8260 LP  0  0  0  0  0  0  0  0  0  0  0  0  # atno 17343 bound_to 10162
  157.1597  130.6220  149.5607 LP  0  0  0  0  0  0  0  0  0  0  0  0  # atno 17370 bound_to 10713
  155.9814  130.4821  150.6826 LP  0  0  0  0  0  0  0  0  0  0  0  0  # atno 17371 bound_to 10713
  140.0209  134.6548  155.9241 LP  0  0  0  0  0  0  0  0  0  0  0  0  # atno 17394 bound_to 11000
  141.1789  133.6543  156.4940 LP  0  0  0  0  0  0  0  0  0  0  0  0  # atno 17395 bound_to 11000

$$$$
