AV-unprocessed.smi:2279|AV-procd|sdf|9186|dock3
  -GOLD-   2272012403D 1   1.00000     0.00000
 Structure written by MMmdl.
 58 60  0  0  0  0  0  0  0  0  3 V2000
  153.6092  141.2350  160.2157 C   0  0  0  0  0  0  0  0  0  0  0  0
  152.7167  142.3253  159.6607 C   0  0  0  0  0  0  0  0  0  0  0  0
  152.7777  143.6372  160.1681 C   0  0  0  0  0  0  0  0  0  0  0  0
  151.9219  144.6066  159.6092 C   0  0  0  0  0  0  0  0  0  0  0  0
  151.9299  146.0354  160.1107 C   0  0  0  0  0  0  0  0  0  0  0  0
  151.0553  144.3357  158.6100 N   0  0  0  0  0  0  0  0  0  0  0  0
  150.9890  143.0762  158.1118 C   0  0  0  0  0  0  0  0  0  0  0  0
  150.1057  142.6888  157.0688 N   0  0  0  0  0  0  0  0  0  0  0  0
  150.2233  141.6436  156.2307 C   0  0  0  0  0  0  0  0  0  0  0  0
  151.1200  140.8003  156.2660 O   0  0  0  0  0  0  0  0  0  0  0  0
  149.2197  141.6143  155.3407 N   0  0  0  0  0  0  0  0  0  0  0  0
  149.0464  140.5929  154.3113 C   0  0  2  0  0  0  0  0  0  0  0  0
  147.6315  140.6721  153.7137 C   0  0  0  0  0  0  0  0  0  0  0  0
  147.4088  139.5336  152.7005 C   0  0  0  0  0  0  0  0  0  0  0  0
  147.5984  138.1923  153.3246 N   0  3  2  0  0  0  0  0  0  0  0  0
  146.5226  137.7511  154.2801 C   0  0  2  0  0  0  0  0  0  0  0  0
  146.5410  136.2243  154.5349 C   0  0  0  0  0  0  0  0  0  0  0  0
  146.1120  135.4268  153.2887 C   0  0  0  0  0  0  0  0  0  0  0  0
  144.7596  135.8327  152.8308 N   0  3  2  0  0  0  0  0  0  0  0  0
  144.2908  135.0309  151.6799 C   0  0  0  0  0  0  0  0  0  0  0  0
  144.6634  137.2923  152.5791 C   0  0  0  0  0  0  0  0  0  0  0  0
  145.0835  138.0966  153.8236 C   0  0  0  0  0  0  0  0  0  0  0  0
  148.9890  138.0887  153.8568 C   0  0  0  0  0  0  0  0  0  0  0  0
  149.3031  139.1888  154.8908 C   0  0  0  0  0  0  0  0  0  0  0  0
  151.8076  142.0429  158.6209 C   0  0  0  0  0  0  0  0  0  0  0  0
  154.1439  141.5746  161.1035 H   0  0  0  0  0  0  0  0  0  0  0  0
  154.3436  140.9324  159.4689 H   0  0  0  0  0  0  0  0  0  0  0  0
  153.0165  140.3618  160.4893 H   0  0  0  0  0  0  0  0  0  0  0  0
  153.4609  143.8936  160.9646 H   0  0  0  0  0  0  0  0  0  0  0  0
  152.5257  146.1320  161.0187 H   0  0  0  0  0  0  0  0  0  0  0  0
  150.9155  146.3668  160.3352 H   0  0  0  0  0  0  0  0  0  0  0  0
  152.3494  146.6988  159.3539 H   0  0  0  0  0  0  0  0  0  0  0  0
  149.2934  143.2755  156.9481 H   0  0  0  0  0  0  0  0  0  0  0  0
  148.5249  142.3457  155.3843 H   0  0  0  0  0  0  0  0  0  0  0  0
  149.7571  140.7710  153.5016 H   0  0  0  0  0  0  0  0  0  0  0  0
  146.8805  140.6237  154.5033 H   0  0  0  0  0  0  0  0  0  0  0  0
  147.4939  141.6342  153.2184 H   0  0  0  0  0  0  0  0  0  0  0  0
  146.4449  139.6274  152.2048 H   0  0  0  0  0  0  0  0  0  0  0  0
  148.1367  139.6346  151.8939 H   0  0  0  0  0  0  0  0  0  0  0  0
  146.6890  138.2576  155.2305 H   0  0  0  0  0  0  0  0  0  0  0  0
  147.5060  135.8734  154.8942 H   0  0  0  0  0  0  0  0  0  0  0  0
  145.8476  135.9961  155.3459 H   0  0  0  0  0  0  0  0  0  0  0  0
  146.8329  135.5673  152.4817 H   0  0  0  0  0  0  0  0  0  0  0  0
  146.1069  134.3617  153.5244 H   0  0  0  0  0  0  0  0  0  0  0  0
  144.9258  135.1892  150.8070 H   0  0  0  0  0  0  0  0  0  0  0  0
  143.2686  135.3010  151.4127 H   0  0  0  0  0  0  0  0  0  0  0  0
  144.3004  133.9677  151.9215 H   0  0  0  0  0  0  0  0  0  0  0  0
  145.2853  137.5603  151.7238 H   0  0  0  0  0  0  0  0  0  0  0  0
  143.6362  137.5449  152.3133 H   0  0  0  0  0  0  0  0  0  0  0  0
  144.3945  137.8553  154.6345 H   0  0  0  0  0  0  0  0  0  0  0  0
  144.9442  139.1648  153.6652 H   0  0  0  0  0  0  0  0  0  0  0  0
  149.1988  137.1061  154.2729 H   0  0  0  0  0  0  0  0  0  0  0  0
  149.6785  138.1897  153.0174 H   0  0  0  0  0  0  0  0  0  0  0  0
  150.3444  139.1040  155.2049 H   0  0  0  0  0  0  0  0  0  0  0  0
  148.7067  139.0392  155.7912 H   0  0  0  0  0  0  0  0  0  0  0  0
  151.7446  141.0427  158.2167 H   0  0  0  0  0  0  0  0  0  0  0  0
  147.5509  137.5365  152.5579 H   0  0  0  0  0  0  0  0  0  0  0  0
  144.1267  135.6314  153.5923 H   0  0  0  0  0  0  0  0  0  0  0  0
  1  2  1  0  0  0  0
  1 26  1  0  0  0  0
  1 27  1  0  0  0  0
  1 28  1  0  0  0  0
  2 25  1  0  0  0  0
  2  3  2  0  0  0  0
  3  4  1  0  0  0  0
  3 29  1  0  0  0  0
  4  5  1  0  0  0  0
  4  6  2  0  0  0  0
  5 30  1  0  0  0  0
  5 31  1  0  0  0  0
  5 32  1  0  0  0  0
  6  7  1  0  0  0  0
  7  8  1  0  0  0  0
  7 25  2  0  0  0  0
  8  9  1  0  0  0  0
  8 33  1  0  0  0  0
  9 10  2  0  0  0  0
  9 11  1  0  0  0  0
 11 12  1  0  0  0  0
 11 34  1  0  0  0  0
 12 24  1  0  0  0  0
 12 13  1  0  0  0  0
 12 35  1  0  0  0  0
 13 14  1  0  0  0  0
 13 36  1  0  0  0  0
 13 37  1  0  0  0  0
 14 15  1  0  0  0  0
 14 38  1  0  0  0  0
 14 39  1  0  0  0  0
 15 16  1  0  0  0  0
 15 23  1  0  0  0  0
 15 57  1  0  0  0  0
 16 22  1  0  0  0  0
 16 17  1  0  0  0  0
 16 40  1  0  0  0  0
 17 18  1  0  0  0  0
 17 41  1  0  0  0  0
 17 42  1  0  0  0  0
 18 19  1  0  0  0  0
 18 43  1  0  0  0  0
 18 44  1  0  0  0  0
 19 20  1  0  0  0  0
 19 21  1  0  0  0  0
 19 58  1  0  0  0  0
 20 45  1  0  0  0  0
 20 46  1  0  0  0  0
 20 47  1  0  0  0  0
 21 22  1  0  0  0  0
 21 48  1  0  0  0  0
 21 49  1  0  0  0  0
 22 50  1  0  0  0  0
 22 51  1  0  0  0  0
 23 24  1  0  0  0  0
 23 52  1  0  0  0  0
 23 53  1  0  0  0  0
 24 54  1  0  0  0  0
 24 55  1  0  0  0  0
 25 56  1  0  0  0  0
M  CHG  1  15   1
M  CHG  1  19   1
M  END
> <s_m_source_file>
AV-unprocessed.smi

> <i_m_source_file_index>
2279

> <i_lp_mmshare_version>
43012

> <i_f3d_flags>
0

> <s_epik_input>
W0NIM11jMVtjSF1jKFtDSDNdKW5jKFtjSF0xKVtOSF1DKD1PKVtOSF1bQ0hdMltDSDJdW0NIMl1OKFtDSDJdW0NIMl0yKVtDSF0zW0NIMl1bQ0gyXU4oW0NIM10pW0NIMl1bQ0gyXTM=

> <s_epik_cmdline>
J2VwaWtfcHl0aG9uJywgJy1waCcsICc3LjAnLCAnLXRuJywgJzgnLCAnLW1hJywgJzIwMCcsICctbWV0YWxfYmluZGluZycsICctaW1hZScsICc8aW5maWxlLm1hZT4nLCAnLW9tYWUnLCAnPG91dGZpbGUubWFlPic=

> <r_epik_Ionization_Penalty>
0.180973

> <r_epik_Ionization_Penalty_Charging>
0.180787

> <r_epik_Ionization_Penalty_Neutral>
0.000186186

> <r_epik_State_Penalty>
0.153592

> <r_epik_Charging_Adjusted_Penalty>
0.334379

> <i_epik_Tot_Q>
2

> <i_epik_Tot_abs_Q>
2

> <r_epik_Metal_State_Penalty>
0.153604

> <b_epik_Metal_Only>
0

> <s_lp_Force_Field>
OPLS_2005

> <r_lp_Energy>
49.6144

> <b_lp_Chiralities_Consistent>
1

> <s_lp_Variant>
AV-unprocessed.smi:2279-4

> <Gold.Version>
5.8.1

> <Gold.Id.Protein>
6NUR|6NUR_protein|mol2

> <Gold.PLP.Fitness>
44.7720

> <Gold.PLP.PLP>
-39.6723

> <Gold.PLP.part.hbond>
-2.4080

> <Gold.PLP.part.metal>
0.0000

> <Gold.PLP.part.buried>
2.5150

> <Gold.PLP.part.nonpolar>
-39.9354

> <Gold.PLP.part.repulsive>
0.3304

> <Gold.PLP.ligand.clash>
0.0005

> <Gold.PLP.ligand.torsion>
0.5213

> <Gold.PLP.Chemscore.Hbond>
2.0320

> <Gold.PLP.Chemscore.CHOScore>
0.0000

> <Gold.PLP.Chemscore.Metal>
0.0000

> <Gold.Chemscore.Hbonds>
donor molecule, donor type, donor heavy atom, donor atom, acceptor molecule, acceptor atom, score
      L1  H     8    33       P1  8028  0.66
      L1  H    11    34       P1  8028  0.04
      L1  H    15    57       P1  7948  1.22

> <Gold.PLP.Chemscore.Internal.Correction>
0.0469

> <Gold.Rescore>
     Score         DG    S(hbond)    S(metal)    S(lipo)     H(rot)  DE(clash)    DE(int)     intcor
     15.70     -21.77       1.79        0.00     114.51       1.21       2.60       3.47       ----

> <Gold.Chemscore.Fitness>
15.6976

> <Gold.Chemscore.DG>
-21.7672

> <Gold.Chemscore.ZeroCoef>
-5.4800

> <Gold.Chemscore.Hbond>
1.7923

> <Gold.Chemscore.Metal>
0.0000

> <Gold.Chemscore.Lipo>
114.5052

> <Gold.Chemscore.Internal_Hbond>
0.0000

> <Gold.Chemscore.DEClash>
2.5955

> <Gold.Chemscore.DEInternal>
3.4742

> <Gold.Chemscore.Rot>
1.2095

> <Gold.Chemscore.Internal.Correction>
   9.000000E+99

> <Gold.Chemscore.Hbonds>
donor molecule, donor type, donor heavy atom, donor atom, acceptor molecule, acceptor atom, score
      L1  H     8    33       P1  8028  0.61
      L1  H    11    34       P1  8028  0.06
      L1  H    15    57       P1  7948  0.56

> <Gold.Chemscore.Hbond.Weighted>
-5.9863

> <Gold.Chemscore.Metal.Weighted>
-0.0000

> <Gold.Chemscore.Lipo.Weighted>
-13.3971

> <Gold.Chemscore.Internal_Hbond.Weighted>
0.0000

> <Gold.Chemscore.DEClash.Weighted>
2.5955

> <Gold.Chemscore.DEInternal.Weighted>
3.4742

> <Gold.Chemscore.Rot.Weighted>
3.0963

> <Gold.Chemscore.Internal.Correction.Weighted>
   9.000000E+99

> <Gold.Protein.RotatedTorsions>
[ 6907 6896 6895 6894 ] final   30.80 input  -60.11 | X-H torsion
[ 7974 7965 7964 7962 ] final  -32.38 input  175.53 | X-H torsion
[ 8008 7997 7996 7995 ] final  -83.23 input   59.86 | X-H torsion
[ 10167 10162 10161 10158 ] final  136.89 input  -65.29 | X-H torsion
[ 10718 10713 10712 10709 ] final -153.03 input   66.30 | X-H torsion
[ 10763 10752 10751 10750 ] final  -30.82 input  -60.55 | X-H torsion
[ 11005 11000 10999 10996 ] final   33.45 input  -57.11 | X-H torsion

> <Gold.Protein.ActiveResidues>
 VAL166  LYS551  ARG553  GLY616  TRP617  ASP618  TYR619  PRO620  LYS621  CYS622 
 ASP623  PHE694  ASN695  SER759  ASP760  ASP761  ALA762  ILE779  LEU786  VAL792 
 PHE793  MET794  SER795  GLU796  ALA797  LYS798  CYS799  TRP800  GLU811  SER814 

> <Gold.Protein.RotatedAtoms>
  152.0511  134.9653  160.0574 H   0  0  0  0  0  0  0  0  0  0  0  0  # atno 6907 bound_to 6896
  152.1053  133.4267  159.4614 H   0  0  0  0  0  0  0  0  0  0  0  0  # atno 6908 bound_to 6896
  150.6841  134.2631  159.4601 H   0  0  0  0  0  0  0  0  0  0  0  0  # atno 6909 bound_to 6896
  146.0995  140.5785  142.8827 H   0  0  0  0  0  0  0  0  0  0  0  0  # atno 7974 bound_to 7965
  154.6169  140.0622  156.9566 H   0  0  0  0  0  0  0  0  0  0  0  0  # atno 8008 bound_to 7997
  155.1881  140.3305  155.4345 H   0  0  0  0  0  0  0  0  0  0  0  0  # atno 8009 bound_to 7997
  156.2409  140.1886  156.6973 H   0  0  0  0  0  0  0  0  0  0  0  0  # atno 8010 bound_to 7997
  139.5164  144.6440  151.5491 H   0  0  0  0  0  0  0  0  0  0  0  0  # atno 10167 bound_to 10162
  156.4804  130.8300  151.2527 H   0  0  0  0  0  0  0  0  0  0  0  0  # atno 10718 bound_to 10713
  153.7873  135.6900  153.4877 H   0  0  0  0  0  0  0  0  0  0  0  0  # atno 10763 bound_to 10752
  153.1772  135.4520  154.9980 H   0  0  0  0  0  0  0  0  0  0  0  0  # atno 10764 bound_to 10752
  154.8058  135.3356  154.7372 H   0  0  0  0  0  0  0  0  0  0  0  0  # atno 10765 bound_to 10752
  140.2630  134.3171  155.7852 H   0  0  0  0  0  0  0  0  0  0  0  0  # atno 11005 bound_to 11000
  144.7421  140.4970  143.6862 LP  0  0  0  0  0  0  0  0  0  0  0  0  # atno 17320 bound_to 7965
  145.5883  139.1494  143.3196 LP  0  0  0  0  0  0  0  0  0  0  0  0  # atno 17321 bound_to 7965
  140.6218  143.9244  150.6532 LP  0  0  0  0  0  0  0  0  0  0  0  0  # atno 17342 bound_to 10162
  140.2520  143.3586  152.1397 LP  0  0  0  0  0  0  0  0  0  0  0  0  # atno 17343 bound_to 10162
  157.7484  131.0047  150.3085 LP  0  0  0  0  0  0  0  0  0  0  0  0  # atno 17370 bound_to 10713
  156.3527  130.3833  149.7315 LP  0  0  0  0  0  0  0  0  0  0  0  0  # atno 17371 bound_to 10713
  141.2188  133.7420  156.9216 LP  0  0  0  0  0  0  0  0  0  0  0  0  # atno 17394 bound_to 11000
  140.1447  134.9270  157.2513 LP  0  0  0  0  0  0  0  0  0  0  0  0  # atno 17395 bound_to 11000

$$$$
