AV-unprocessed.smi:2987|AV-procd|sdf|11385|dock8
  -GOLD-   2272016313D 1   1.00000     0.00000
 Structure written by MMmdl.
 25 26  0  0  0  0  0  0  0  0  1 V2000
  154.9969  140.1584  162.4988 C   0  0  0  0  0  0  0  0  0  0  0  0
  154.1695  141.2101  161.8306 C   0  0  0  0  0  0  0  0  0  0  0  0
  153.6327  142.2291  162.5023 N   0  0  0  0  0  0  0  0  0  0  0  0
  152.9683  142.9274  161.5120 C   0  0  0  0  0  0  0  0  0  0  0  0
  152.1968  144.1096  161.5806 C   0  0  0  0  0  0  0  0  0  0  0  0
  151.6033  144.6431  160.4176 C   0  0  0  0  0  0  0  0  0  0  0  0
  151.7713  144.0036  159.1722 C   0  0  0  0  0  0  0  0  0  0  0  0
  152.5364  142.8250  159.0814 C   0  0  0  0  0  0  0  0  0  0  0  0
  153.1275  142.2975  160.2448 C   0  0  0  0  0  0  0  0  0  0  0  0
  153.9194  141.1826  160.4988 N   0  0  0  0  0  0  0  0  0  0  0  0
  154.3646  140.2019  159.5226 C   0  0  0  0  0  0  0  0  0  0  0  0
  153.1773  139.5343  158.8155 C   0  0  0  0  0  0  0  0  0  0  0  0
  153.6372  138.7989  157.7030 O   0  0  0  0  0  0  0  0  0  0  0  0
  154.9947  140.2996  163.5802 H   0  0  0  0  0  0  0  0  0  0  0  0
  156.0275  140.2114  162.1472 H   0  0  0  0  0  0  0  0  0  0  0  0
  154.5994  139.1667  162.2818 H   0  0  0  0  0  0  0  0  0  0  0  0
  152.0609  144.6061  162.5298 H   0  0  0  0  0  0  0  0  0  0  0  0
  151.0162  145.5477  160.4816 H   0  0  0  0  0  0  0  0  0  0  0  0
  151.3127  144.4186  158.2868 H   0  0  0  0  0  0  0  0  0  0  0  0
  152.6671  142.3327  158.1293 H   0  0  0  0  0  0  0  0  0  0  0  0
  155.0034  140.7049  158.7954 H   0  0  0  0  0  0  0  0  0  0  0  0
  154.9892  139.4573  160.0167 H   0  0  0  0  0  0  0  0  0  0  0  0
  152.6497  138.8620  159.4927 H   0  0  0  0  0  0  0  0  0  0  0  0
  152.4613  140.2829  158.4747 H   0  0  0  0  0  0  0  0  0  0  0  0
  153.9755  137.9711  158.0093 H   0  0  0  0  0  0  0  0  0  0  0  0
  1  2  1  0  0  0  0
  1 14  1  0  0  0  0
  1 15  1  0  0  0  0
  1 16  1  0  0  0  0
  2 10  1  0  0  0  0
  2  3  2  0  0  0  0
  3  4  1  0  0  0  0
  4  9  2  0  0  0  0
  4  5  1  0  0  0  0
  5  6  2  0  0  0  0
  5 17  1  0  0  0  0
  6  7  1  0  0  0  0
  6 18  1  0  0  0  0
  7  8  2  0  0  0  0
  7 19  1  0  0  0  0
  8  9  1  0  0  0  0
  8 20  1  0  0  0  0
  9 10  1  0  0  0  0
 10 11  1  0  0  0  0
 11 12  1  0  0  0  0
 11 21  1  0  0  0  0
 11 22  1  0  0  0  0
 12 13  1  0  0  0  0
 12 23  1  0  0  0  0
 12 24  1  0  0  0  0
 13 25  1  0  0  0  0
M  END
> <s_m_source_file>
AV-unprocessed.smi

> <i_m_source_file_index>
2987

> <i_lp_mmshare_version>
43012

> <i_f3d_flags>
0

> <s_epik_input>
W09IXVtDSDJdW0NIMl1uKGMobjEpW0NIM10pYyhjMTIpW2NIXVtjSF1bY0hdW2NIXTI=

> <s_epik_cmdline>
J2VwaWtfcHl0aG9uJywgJy1waCcsICc3LjAnLCAnLXRuJywgJzgnLCAnLW1hJywgJzIwMCcsICctbWV0YWxfYmluZGluZycsICctaW1hZScsICc8aW5maWxlLm1hZT4nLCAnLW9tYWUnLCAnPG91dGZpbGUubWFlPic=

> <r_epik_Ionization_Penalty>
0.129663

> <r_epik_Ionization_Penalty_Charging>
0

> <r_epik_Ionization_Penalty_Neutral>
0.129663

> <r_epik_State_Penalty>
0.119073

> <r_epik_Charging_Adjusted_Penalty>
0.119073

> <i_epik_Tot_Q>
0

> <i_epik_Tot_abs_Q>
0

> <r_epik_Metal_State_Penalty>
0.000131867

> <b_epik_Metal_Only>
0

> <s_lp_Force_Field>
OPLS_2005

> <r_lp_Energy>
7.88102

> <b_lp_Chiralities_Consistent>
1

> <s_lp_Variant>
AV-unprocessed.smi:2987-1

> <Gold.Version>
5.8.1

> <Gold.Id.Protein>
6NUR|6NUR_protein|mol2

> <Gold.PLP.Fitness>
39.5493

> <Gold.PLP.PLP>
-36.6225

> <Gold.PLP.part.hbond>
-1.1328

> <Gold.PLP.part.metal>
0.0000

> <Gold.PLP.part.buried>
-2.6625

> <Gold.PLP.part.nonpolar>
-32.1174

> <Gold.PLP.part.repulsive>
0.0422

> <Gold.PLP.ligand.clash>
0.0000

> <Gold.PLP.ligand.torsion>
0.0366

> <Gold.PLP.Chemscore.Hbond>
1.0000

> <Gold.PLP.Chemscore.CHOScore>
0.0000

> <Gold.PLP.Chemscore.Metal>
0.0000

> <Gold.Chemscore.Hbonds>
donor molecule, donor type, donor heavy atom, donor atom, acceptor molecule, acceptor atom, score
      P1  H  7997  8010       L1    13  1.00

> <Gold.PLP.Chemscore.Internal.Correction>
0.0001

> <Gold.Rescore>
     Score         DG    S(hbond)    S(metal)    S(lipo)     H(rot)  DE(clash)    DE(int)     intcor
     15.15     -15.24       0.94        0.00      93.91       1.70       0.02       0.07       ----

> <Gold.Chemscore.Fitness>
15.1459

> <Gold.Chemscore.DG>
-15.2439

> <Gold.Chemscore.ZeroCoef>
-5.4800

> <Gold.Chemscore.Hbond>
0.9383

> <Gold.Chemscore.Metal>
0.0000

> <Gold.Chemscore.Lipo>
93.9135

> <Gold.Chemscore.Internal_Hbond>
0.0000

> <Gold.Chemscore.DEClash>
0.0237

> <Gold.Chemscore.DEInternal>
0.0743

> <Gold.Chemscore.Rot>
1.7023

> <Gold.Chemscore.Internal.Correction>
   9.000000E+99

> <Gold.Chemscore.Hbonds>
donor molecule, donor type, donor heavy atom, donor atom, acceptor molecule, acceptor atom, score
      P1  H  7997  8010       L1    13  0.25

> <Gold.Chemscore.Hbond.Weighted>
-3.1339

> <Gold.Chemscore.Metal.Weighted>
-0.0000

> <Gold.Chemscore.Lipo.Weighted>
-10.9879

> <Gold.Chemscore.Internal_Hbond.Weighted>
0.0000

> <Gold.Chemscore.DEClash.Weighted>
0.0237

> <Gold.Chemscore.DEInternal.Weighted>
0.0743

> <Gold.Chemscore.Rot.Weighted>
4.3579

> <Gold.Chemscore.Internal.Correction.Weighted>
   9.000000E+99

> <Gold.Protein.RotatedTorsions>
[ 6907 6896 6895 6894 ] final  166.27 input  -60.11 | X-H torsion
[ 7974 7965 7964 7962 ] final -152.34 input  175.53 | X-H torsion
[ 8008 7997 7996 7995 ] final   44.10 input   59.86 | X-H torsion
[ 10167 10162 10161 10158 ] final   -6.02 input  -65.29 | X-H torsion
[ 10718 10713 10712 10709 ] final -126.48 input   66.30 | X-H torsion
[ 10763 10752 10751 10750 ] final   29.59 input  -60.55 | X-H torsion
[ 11005 11000 10999 10996 ] final   10.00 input  -57.11 | X-H torsion

> <Gold.Protein.ActiveResidues>
 VAL166  LYS551  ARG553  GLY616  TRP617  ASP618  TYR619  PRO620  LYS621  CYS622 
 ASP623  PHE694  ASN695  SER759  ASP760  ASP761  ALA762  ILE779  LEU786  VAL792 
 PHE793  MET794  SER795  GLU796  ALA797  LYS798  CYS799  TRP800  GLU811  SER814 

> <Gold.Protein.RotatedAtoms>
  151.8815  133.3496  159.3767 H   0  0  0  0  0  0  0  0  0  0  0  0  # atno 6907 bound_to 6896
  150.7126  134.5014  159.5572 H   0  0  0  0  0  0  0  0  0  0  0  0  # atno 6908 bound_to 6896
  152.2566  134.8077  160.0488 H   0  0  0  0  0  0  0  0  0  0  0  0  # atno 6909 bound_to 6896
  144.7799  140.4675  143.5846 H   0  0  0  0  0  0  0  0  0  0  0  0  # atno 7974 bound_to 7965
  155.3137  140.3392  155.4243 H   0  0  0  0  0  0  0  0  0  0  0  0  # atno 8008 bound_to 7997
  156.1943  140.1709  156.8067 H   0  0  0  0  0  0  0  0  0  0  0  0  # atno 8009 bound_to 7997
  154.5480  140.0711  156.8604 H   0  0  0  0  0  0  0  0  0  0  0  0  # atno 8010 bound_to 7997
  140.6983  143.6242  150.8583 H   0  0  0  0  0  0  0  0  0  0  0  0  # atno 10167 bound_to 10162
  156.1769  130.6705  151.0254 H   0  0  0  0  0  0  0  0  0  0  0  0  # atno 10718 bound_to 10713
  153.0421  135.6485  154.0915 H   0  0  0  0  0  0  0  0  0  0  0  0  # atno 10763 bound_to 10752
  154.0619  135.2887  155.3325 H   0  0  0  0  0  0  0  0  0  0  0  0  # atno 10764 bound_to 10752
  154.6651  135.5377  153.8132 H   0  0  0  0  0  0  0  0  0  0  0  0  # atno 10765 bound_to 10752
  140.5194  134.0574  155.7840 H   0  0  0  0  0  0  0  0  0  0  0  0  # atno 11005 bound_to 11000
  145.6079  139.1510  143.3092 LP  0  0  0  0  0  0  0  0  0  0  0  0  # atno 17320 bound_to 7965
  146.2001  140.6197  142.9106 LP  0  0  0  0  0  0  0  0  0  0  0  0  # atno 17321 bound_to 7965
  139.9962  143.5793  152.2892 LP  0  0  0  0  0  0  0  0  0  0  0  0  # atno 17342 bound_to 10162
  139.6466  144.7658  151.2231 LP  0  0  0  0  0  0  0  0  0  0  0  0  # atno 17343 bound_to 10162
  157.6842  131.0829  150.7289 LP  0  0  0  0  0  0  0  0  0  0  0  0  # atno 17370 bound_to 10713
  156.7347  130.4720  149.5491 LP  0  0  0  0  0  0  0  0  0  0  0  0  # atno 17371 bound_to 10713
  141.1342  133.9249  157.2469 LP  0  0  0  0  0  0  0  0  0  0  0  0  # atno 17394 bound_to 11000
  139.9614  135.0153  156.9272 LP  0  0  0  0  0  0  0  0  0  0  0  0  # atno 17395 bound_to 11000

$$$$
