AV-unprocessed.smi:2623|AV-procd|sdf|10231|dock4
  -GOLD-   2272014233D 1   1.00000     0.00000
 Structure written by MMmdl.
 41 43  0  0  0  0  0  0  0  0  2 V2000
  151.3643  136.4325  153.9955 O   0  0  0  0  0  0  0  0  0  0  0  0
  151.6632  137.6770  154.5871 C   0  0  0  0  0  0  0  0  0  0  0  0
  150.5378  138.6494  154.4591 C   0  0  0  0  0  0  0  0  0  0  0  0
  149.4340  138.4948  153.6752 N   0  3  0  0  0  0  0  0  0  0  0  0
  148.6058  139.6110  153.7995 C   0  0  0  0  0  0  0  0  0  0  0  0
  147.3843  139.9093  153.2032 C   0  0  0  0  0  0  0  0  0  0  0  0
  146.7966  141.1440  153.5482 C   0  0  0  0  0  0  0  0  0  0  0  0
  147.4206  142.0265  154.4537 C   0  0  0  0  0  0  0  0  0  0  0  0
  148.6589  141.7131  155.0520 C   0  0  0  0  0  0  0  0  0  0  0  0
  149.2350  140.4909  154.7045 C   0  0  0  0  0  0  0  0  0  0  0  0
  150.4236  139.8558  155.0852 N   0  0  0  0  0  0  0  0  0  0  0  0
  151.3382  140.5171  156.0298 C   0  0  0  0  0  0  0  0  0  0  0  0
  151.5218  139.7240  157.3392 C   0  0  2  0  0  0  0  0  0  0  0  0
  150.2616  139.3651  157.8687 O   0  0  0  0  0  0  0  0  0  0  0  0
  152.2931  140.5188  158.4027 C   0  0  0  0  0  0  0  0  0  0  0  0
  151.8675  141.8745  158.3589 O   0  0  0  0  0  0  0  0  0  0  0  0
  152.0367  142.6490  159.4863 C   0  0  0  0  0  0  0  0  0  0  0  0
  151.6047  143.9896  159.4118 C   0  0  0  0  0  0  0  0  0  0  0  0
  151.7379  144.8526  160.5164 C   0  0  0  0  0  0  0  0  0  0  0  0
  152.3085  144.3805  161.7128 C   0  0  0  0  0  0  0  0  0  0  0  0
  152.7451  143.0458  161.8008 C   0  0  0  0  0  0  0  0  0  0  0  0
  152.6114  142.1823  160.6960 C   0  0  0  0  0  0  0  0  0  0  0  0
  151.1197  136.5786  153.0943 H   0  0  0  0  0  0  0  0  0  0  0  0
  151.8926  137.5245  155.6419 H   0  0  0  0  0  0  0  0  0  0  0  0
  152.5586  138.0879  154.1208 H   0  0  0  0  0  0  0  0  0  0  0  0
  146.9038  139.2345  152.5099 H   0  0  0  0  0  0  0  0  0  0  0  0
  145.8481  141.4196  153.1103 H   0  0  0  0  0  0  0  0  0  0  0  0
  146.9396  142.9634  154.6953 H   0  0  0  0  0  0  0  0  0  0  0  0
  149.1242  142.3958  155.7473 H   0  0  0  0  0  0  0  0  0  0  0  0
  152.2974  140.6256  155.5222 H   0  0  0  0  0  0  0  0  0  0  0  0
  150.9882  141.5308  156.2251 H   0  0  0  0  0  0  0  0  0  0  0  0
  152.0614  138.7986  157.1348 H   0  0  0  0  0  0  0  0  0  0  0  0
  150.2011  138.4223  157.8819 H   0  0  0  0  0  0  0  0  0  0  0  0
  152.1211  140.0893  159.3914 H   0  0  0  0  0  0  0  0  0  0  0  0
  153.3631  140.4693  158.1924 H   0  0  0  0  0  0  0  0  0  0  0  0
  151.1656  144.3611  158.4974 H   0  0  0  0  0  0  0  0  0  0  0  0
  151.4023  145.8767  160.4452 H   0  0  0  0  0  0  0  0  0  0  0  0
  152.4111  145.0410  162.5614 H   0  0  0  0  0  0  0  0  0  0  0  0
  153.1842  142.6824  162.7182 H   0  0  0  0  0  0  0  0  0  0  0  0
  152.9590  141.1658  160.8024 H   0  0  0  0  0  0  0  0  0  0  0  0
  149.2660  137.6840  153.0934 H   0  0  0  0  0  0  0  0  0  0  0  0
  1  2  1  0  0  0  0
  1 23  1  0  0  0  0
  2  3  1  0  0  0  0
  2 24  1  0  0  0  0
  2 25  1  0  0  0  0
  3 11  1  0  0  0  0
  3  4  2  0  0  0  0
  4  5  1  0  0  0  0
  4 41  1  0  0  0  0
  5 10  2  0  0  0  0
  5  6  1  0  0  0  0
  6  7  2  0  0  0  0
  6 26  1  0  0  0  0
  7  8  1  0  0  0  0
  7 27  1  0  0  0  0
  8  9  2  0  0  0  0
  8 28  1  0  0  0  0
  9 10  1  0  0  0  0
  9 29  1  0  0  0  0
 10 11  1  0  0  0  0
 11 12  1  0  0  0  0
 12 13  1  0  0  0  0
 12 30  1  0  0  0  0
 12 31  1  0  0  0  0
 13 14  1  0  0  0  0
 13 15  1  0  0  0  0
 13 32  1  0  0  0  0
 14 33  1  0  0  0  0
 15 16  1  0  0  0  0
 15 34  1  0  0  0  0
 15 35  1  0  0  0  0
 16 17  1  0  0  0  0
 17 22  1  0  0  0  0
 17 18  2  0  0  0  0
 18 19  1  0  0  0  0
 18 36  1  0  0  0  0
 19 20  2  0  0  0  0
 19 37  1  0  0  0  0
 20 21  1  0  0  0  0
 20 38  1  0  0  0  0
 21 22  2  0  0  0  0
 21 39  1  0  0  0  0
 22 40  1  0  0  0  0
M  CHG  1   4   1
M  END
> <s_m_source_file>
AV-unprocessed.smi

> <i_m_source_file_index>
2623

> <i_lp_mmshare_version>
43012

> <i_f3d_flags>
0

> <s_epik_input>
W2NIXTFbY0hdW2NIXVtjSF1jKGMxMiluKGMobjIpW0NIMl1bT0hdKVtDSDJdW0NASF0oW09IXSlbQ0gyXU9jM1tjSF1bY0hdW2NIXVtjSF1bY0hdMw==

> <s_epik_cmdline>
J2VwaWtfcHl0aG9uJywgJy1waCcsICc3LjAnLCAnLXRuJywgJzgnLCAnLW1hJywgJzIwMCcsICctbWV0YWxfYmluZGluZycsICctaW1hZScsICc8aW5maWxlLm1hZT4nLCAnLW9tYWUnLCAnPG91dGZpbGUubWFlPic=

> <r_lp_tautomer_probability>
1

> <r_epik_Ionization_Penalty>
1.40416

> <r_epik_Ionization_Penalty_Charging>
1.4033

> <r_epik_Ionization_Penalty_Neutral>
0.000858184

> <r_epik_State_Penalty>
1.48564

> <r_epik_Charging_Adjusted_Penalty>
2.88894

> <i_epik_Tot_Q>
1

> <i_epik_Tot_abs_Q>
1

> <r_epik_Metal_State_Penalty>
5.52809

> <b_epik_Metal_Only>
0

> <s_lp_Force_Field>
OPLS_2005

> <r_lp_Energy>
17.9205

> <b_lp_Chiralities_Consistent>
1

> <s_lp_Variant>
AV-unprocessed.smi:2623-3

> <Gold.Version>
5.8.1

> <Gold.Id.Protein>
6NUR|6NUR_protein|mol2

> <Gold.PLP.Fitness>
63.4022

> <Gold.PLP.PLP>
-52.2774

> <Gold.PLP.part.hbond>
-4.4506

> <Gold.PLP.part.metal>
0.0000

> <Gold.PLP.part.buried>
0.9649

> <Gold.PLP.part.nonpolar>
-49.7274

> <Gold.PLP.part.repulsive>
0.0709

> <Gold.PLP.ligand.clash>
0.0000

> <Gold.PLP.ligand.torsion>
0.4984

> <Gold.PLP.Chemscore.Hbond>
4.0000

> <Gold.PLP.Chemscore.CHOScore>
0.0000

> <Gold.PLP.Chemscore.Metal>
0.0000

> <Gold.Chemscore.Hbonds>
donor molecule, donor type, donor heavy atom, donor atom, acceptor molecule, acceptor atom, score
      L1  H     1    23       P1  7949  0.93
      L1  H     4    41       P1  7948  2.00
      P1  H 10752 10763       L1     1  1.00

> <Gold.PLP.Chemscore.Internal.Correction>
0.1216

> <Gold.Rescore>
     Score         DG    S(hbond)    S(metal)    S(lipo)     H(rot)  DE(clash)    DE(int)     intcor
     17.81     -20.30       2.07        0.00     135.98       3.13       2.24       0.25       ----

> <Gold.Chemscore.Fitness>
17.8118

> <Gold.Chemscore.DG>
-20.3010

> <Gold.Chemscore.ZeroCoef>
-5.4800

> <Gold.Chemscore.Hbond>
2.0735

> <Gold.Chemscore.Metal>
0.0000

> <Gold.Chemscore.Lipo>
135.9793

> <Gold.Chemscore.Internal_Hbond>
0.0000

> <Gold.Chemscore.DEClash>
2.2364

> <Gold.Chemscore.DEInternal>
0.2528

> <Gold.Chemscore.Rot>
3.1305

> <Gold.Chemscore.Internal.Correction>
   9.000000E+99

> <Gold.Chemscore.Hbonds>
donor molecule, donor type, donor heavy atom, donor atom, acceptor molecule, acceptor atom, score
      L1  H     1    23       P1  7949  0.36
      L1  H     4    41       P1  7948  0.98
      P1  H 10752 10763       L1     1  0.14

> <Gold.Chemscore.Hbond.Weighted>
-6.9255

> <Gold.Chemscore.Metal.Weighted>
-0.0000

> <Gold.Chemscore.Lipo.Weighted>
-15.9096

> <Gold.Chemscore.Internal_Hbond.Weighted>
0.0000

> <Gold.Chemscore.DEClash.Weighted>
2.2364

> <Gold.Chemscore.DEInternal.Weighted>
0.2528

> <Gold.Chemscore.Rot.Weighted>
8.0141

> <Gold.Chemscore.Internal.Correction.Weighted>
   9.000000E+99

> <Gold.Protein.RotatedTorsions>
[ 6907 6896 6895 6894 ] final   20.42 input  -60.11 | X-H torsion
[ 7974 7965 7964 7962 ] final   89.84 input  175.53 | X-H torsion
[ 8008 7997 7996 7995 ] final -171.39 input   59.86 | X-H torsion
[ 10167 10162 10161 10158 ] final   51.92 input  -65.29 | X-H torsion
[ 10718 10713 10712 10709 ] final  -24.60 input   66.30 | X-H torsion
[ 10763 10752 10751 10750 ] final   20.53 input  -60.55 | X-H torsion
[ 11005 11000 10999 10996 ] final -179.72 input  -57.11 | X-H torsion

> <Gold.Protein.ActiveResidues>
 VAL166  LYS551  ARG553  GLY616  TRP617  ASP618  TYR619  PRO620  LYS621  CYS622 
 ASP623  PHE694  ASN695  SER759  ASP760  ASP761  ALA762  ILE779  LEU786  VAL792 
 PHE793  MET794  SER795  GLU796  ALA797  LYS798  CYS799  TRP800  GLU811  SER814 

> <Gold.Protein.RotatedAtoms>
  151.8961  135.0397  160.0501 H   0  0  0  0  0  0  0  0  0  0  0  0  # atno 6907 bound_to 6896
  152.2397  133.5120  159.5271 H   0  0  0  0  0  0  0  0  0  0  0  0  # atno 6908 bound_to 6896
  150.7050  134.1022  159.4012 H   0  0  0  0  0  0  0  0  0  0  0  0  # atno 6909 bound_to 6896
  145.5269  139.2281  143.2640 H   0  0  0  0  0  0  0  0  0  0  0  0  # atno 7974 bound_to 7965
  155.9309  140.1091  157.1133 H   0  0  0  0  0  0  0  0  0  0  0  0  # atno 8008 bound_to 7997
  154.4071  140.1237  156.4867 H   0  0  0  0  0  0  0  0  0  0  0  0  # atno 8009 bound_to 7997
  155.7080  140.3471  155.4964 H   0  0  0  0  0  0  0  0  0  0  0  0  # atno 8010 bound_to 7997
  140.2568  144.3417  150.6330 H   0  0  0  0  0  0  0  0  0  0  0  0  # atno 10167 bound_to 10162
  156.4756  130.4534  149.6843 H   0  0  0  0  0  0  0  0  0  0  0  0  # atno 10718 bound_to 10713
  153.1070  135.6687  153.9568 H   0  0  0  0  0  0  0  0  0  0  0  0  # atno 10763 bound_to 10752
  153.9123  135.3024  155.3450 H   0  0  0  0  0  0  0  0  0  0  0  0  # atno 10764 bound_to 10752
  154.7491  135.5043  153.9333 H   0  0  0  0  0  0  0  0  0  0  0  0  # atno 10765 bound_to 10752
  140.4155  134.6653  157.4637 H   0  0  0  0  0  0  0  0  0  0  0  0  # atno 11005 bound_to 11000
  146.2069  140.6084  142.9077 LP  0  0  0  0  0  0  0  0  0  0  0  0  # atno 17320 bound_to 7965
  144.7646  140.5501  143.6712 LP  0  0  0  0  0  0  0  0  0  0  0  0  # atno 17321 bound_to 7965
  140.5997  143.2167  151.7096 LP  0  0  0  0  0  0  0  0  0  0  0  0  # atno 17342 bound_to 10162
  139.5029  144.3812  152.0374 LP  0  0  0  0  0  0  0  0  0  0  0  0  # atno 17343 bound_to 10162
  156.3574  130.7464  151.2431 LP  0  0  0  0  0  0  0  0  0  0  0  0  # atno 17370 bound_to 10713
  157.7488  131.0360  150.4388 LP  0  0  0  0  0  0  0  0  0  0  0  0  # atno 17371 bound_to 10713
  140.0237  134.6509  155.9203 LP  0  0  0  0  0  0  0  0  0  0  0  0  # atno 17394 bound_to 11000
  141.1804  133.6546  156.4998 LP  0  0  0  0  0  0  0  0  0  0  0  0  # atno 17395 bound_to 11000

$$$$
