AV-unprocessed.smi:3046|AV-procd|sdf|11617|dock9
  -GOLD-   2272017 03D 1   1.00000     0.00000
 Structure written by MMmdl.
 37 37  0  0  0  0  0  0  0  0  1 V2000
  147.1216  142.0456  154.4880 C   0  0  0  0  0  0  0  0  0  0  0  0
  148.2900  141.5163  154.8804 C   0  0  0  0  0  0  0  0  0  0  0  0
  148.6365  140.0456  154.7911 C   0  0  0  0  0  0  0  0  0  0  0  0
  147.9210  139.4216  153.6894 N   0  0  0  0  0  0  0  0  0  0  0  0
  146.9084  138.5544  153.8302 C   0  0  0  0  0  0  0  0  0  0  0  0
  146.4790  138.1944  154.9270 O   0  0  0  0  0  0  0  0  0  0  0  0
  146.3140  137.9987  152.5301 C   0  0  2  0  0  0  0  0  0  0  0  0
  146.5261  138.9645  151.3471 C   0  0  0  0  0  0  0  0  0  0  0  0
  144.8850  137.7074  152.7237 N   0  0  0  0  0  0  0  0  0  0  0  0
  144.4482  136.4685  152.0835 C   0  0  2  0  0  0  0  0  0  0  0  0
  143.0689  136.1116  152.6540 C   0  0  0  0  0  0  0  0  0  0  0  0
  145.4749  135.3473  152.3551 C   0  0  0  0  0  0  0  0  0  0  0  0
  145.4143  134.2682  151.3842 N   0  0  0  0  0  0  0  0  0  0  0  0
  144.3695  133.9238  150.5526 C   0  0  0  0  0  0  0  0  0  0  0  0
  144.7681  132.8377  149.8275 C   0  0  0  0  0  0  0  0  0  0  0  0
  146.0939  132.5953  150.2838 C   0  0  0  0  0  0  0  0  0  0  0  0
  146.4795  133.4557  151.2123 N   0  0  0  0  0  0  0  0  0  0  0  0
  146.3389  141.4296  154.0698 H   0  0  0  0  0  0  0  0  0  0  0  0
  146.9332  143.1050  154.5809 H   0  0  0  0  0  0  0  0  0  0  0  0
  149.0478  142.1636  155.2981 H   0  0  0  0  0  0  0  0  0  0  0  0
  149.7111  139.9475  154.6310 H   0  0  0  0  0  0  0  0  0  0  0  0
  148.3946  139.5415  155.7285 H   0  0  0  0  0  0  0  0  0  0  0  0
  148.2161  139.6602  152.7536 H   0  0  0  0  0  0  0  0  0  0  0  0
  146.8483  137.0717  152.3162 H   0  0  0  0  0  0  0  0  0  0  0  0
  147.5795  139.2235  151.2338 H   0  0  0  0  0  0  0  0  0  0  0  0
  145.9677  139.8921  151.4790 H   0  0  0  0  0  0  0  0  0  0  0  0
  146.2033  138.5202  150.4056 H   0  0  0  0  0  0  0  0  0  0  0  0
  144.3103  138.4767  152.4102 H   0  0  0  0  0  0  0  0  0  0  0  0
  144.3333  136.5989  151.0063 H   0  0  0  0  0  0  0  0  0  0  0  0
  142.6879  135.1929  152.2073 H   0  0  0  0  0  0  0  0  0  0  0  0
  142.3428  136.8995  152.4500 H   0  0  0  0  0  0  0  0  0  0  0  0
  143.1072  135.9631  153.7339 H   0  0  0  0  0  0  0  0  0  0  0  0
  146.4884  135.7513  152.3630 H   0  0  0  0  0  0  0  0  0  0  0  0
  145.3067  134.9186  153.3442 H   0  0  0  0  0  0  0  0  0  0  0  0
  143.4358  134.4671  150.5543 H   0  0  0  0  0  0  0  0  0  0  0  0
  144.1989  132.2984  149.0849 H   0  0  0  0  0  0  0  0  0  0  0  0
  146.7830  131.8248  149.9707 H   0  0  0  0  0  0  0  0  0  0  0  0
  1  2  2  0  0  0  0
  1 18  1  0  0  0  0
  1 19  1  0  0  0  0
  2  3  1  0  0  0  0
  2 20  1  0  0  0  0
  3  4  1  0  0  0  0
  3 21  1  0  0  0  0
  3 22  1  0  0  0  0
  4  5  1  0  0  0  0
  4 23  1  0  0  0  0
  5  6  2  0  0  0  0
  5  7  1  0  0  0  0
  7  8  1  0  0  0  0
  7  9  1  0  0  0  0
  7 24  1  0  0  0  0
  8 25  1  0  0  0  0
  8 26  1  0  0  0  0
  8 27  1  0  0  0  0
  9 10  1  0  0  0  0
  9 28  1  0  0  0  0
 10 11  1  0  0  0  0
 10 12  1  0  0  0  0
 10 29  1  0  0  0  0
 11 30  1  0  0  0  0
 11 31  1  0  0  0  0
 11 32  1  0  0  0  0
 12 13  1  0  0  0  0
 12 33  1  0  0  0  0
 12 34  1  0  0  0  0
 13 17  1  0  0  0  0
 13 14  1  0  0  0  0
 14 15  2  0  0  0  0
 14 35  1  0  0  0  0
 15 16  1  0  0  0  0
 15 36  1  0  0  0  0
 16 17  2  0  0  0  0
 16 37  1  0  0  0  0
M  END
> <s_m_source_file>
AV-unprocessed.smi

> <i_m_source_file_index>
3046

> <i_lp_mmshare_version>
43012

> <i_f3d_flags>
0

> <s_epik_input>
W0NIMl09W0NIXVtDSDJdW05IXUMoPU8pW0NASF0oW0NIM10pW05IXVtDQEhdKFtDSDNdKVtDSDJdbjFbY0hdW2NIXVtjSF1uMQ==

> <s_epik_cmdline>
J2VwaWtfcHl0aG9uJywgJy1waCcsICc3LjAnLCAnLXRuJywgJzgnLCAnLW1hJywgJzIwMCcsICctbWV0YWxfYmluZGluZycsICctaW1hZScsICc8aW5maWxlLm1hZT4nLCAnLW9tYWUnLCAnPG91dGZpbGUubWFlPic=

> <r_lp_tautomer_probability>
1

> <r_epik_Ionization_Penalty>
0.950627

> <r_epik_Ionization_Penalty_Charging>
0

> <r_epik_Ionization_Penalty_Neutral>
0.950627

> <r_epik_State_Penalty>
0.994814

> <r_epik_Charging_Adjusted_Penalty>
0.994814

> <i_epik_Tot_Q>
0

> <i_epik_Tot_abs_Q>
0

> <r_epik_Metal_State_Penalty>
0.994788

> <b_epik_Metal_Only>
0

> <s_lp_Force_Field>
OPLS_2005

> <r_lp_Energy>
5.49444

> <b_lp_Chiralities_Consistent>
1

> <s_lp_Variant>
AV-unprocessed.smi:3046-5

> <Gold.Version>
5.8.1

> <Gold.Id.Protein>
6NUR|6NUR_protein|mol2

> <Gold.PLP.Fitness>
41.1257

> <Gold.PLP.PLP>
-33.5815

> <Gold.PLP.part.hbond>
-2.8035

> <Gold.PLP.part.metal>
0.0000

> <Gold.PLP.part.buried>
-1.0241

> <Gold.PLP.part.nonpolar>
-30.6787

> <Gold.PLP.part.repulsive>
0.3389

> <Gold.PLP.ligand.clash>
0.0000

> <Gold.PLP.ligand.torsion>
2.1382

> <Gold.PLP.Chemscore.Hbond>
1.9760

> <Gold.PLP.Chemscore.CHOScore>
1.9123

> <Gold.PLP.Chemscore.Metal>
0.0000

> <Gold.Chemscore.Hbonds>
donor molecule, donor type, donor heavy atom, donor atom, acceptor molecule, acceptor atom, score
      L1  H     4    23       P1  7957  0.73
      L1  H     9    28       P1 10175  0.91
      L1  C    14    35       P1 10186  0.77
      L1  C    16    37       P1 10747  1.00

> <Gold.PLP.Chemscore.Internal.Correction>
0.1555

> <Gold.Rescore>
     Score         DG    S(hbond)    S(metal)    S(lipo)     H(rot)  DE(clash)    DE(int)     intcor
     13.12     -15.65       1.95        0.00      78.74       2.17       0.39       2.15       ----

> <Gold.Chemscore.Fitness>
13.1197

> <Gold.Chemscore.DG>
-15.6503

> <Gold.Chemscore.ZeroCoef>
-5.4800

> <Gold.Chemscore.Hbond>
1.9531

> <Gold.Chemscore.Metal>
0.0000

> <Gold.Chemscore.Lipo>
78.7358

> <Gold.Chemscore.Internal_Hbond>
0.0000

> <Gold.Chemscore.DEClash>
0.3854

> <Gold.Chemscore.DEInternal>
2.1451

> <Gold.Chemscore.Rot>
2.1739

> <Gold.Chemscore.Internal.Correction>
   9.000000E+99

> <Gold.Chemscore.Hbonds>
donor molecule, donor type, donor heavy atom, donor atom, acceptor molecule, acceptor atom, score
      L1  H     4    23       P1  7957  0.72
      L1  H     9    28       P1 10175  0.85

> <Gold.Chemscore.Hbond.Weighted>
-6.5233

> <Gold.Chemscore.Metal.Weighted>
-0.0000

> <Gold.Chemscore.Lipo.Weighted>
-9.2121

> <Gold.Chemscore.Internal_Hbond.Weighted>
0.0000

> <Gold.Chemscore.DEClash.Weighted>
0.3854

> <Gold.Chemscore.DEInternal.Weighted>
2.1451

> <Gold.Chemscore.Rot.Weighted>
5.5652

> <Gold.Chemscore.Internal.Correction.Weighted>
   9.000000E+99

> <Gold.Protein.RotatedTorsions>
[ 6907 6896 6895 6894 ] final  172.73 input  -60.11 | X-H torsion
[ 7974 7965 7964 7962 ] final   68.35 input  175.53 | X-H torsion
[ 8008 7997 7996 7995 ] final -150.53 input   59.86 | X-H torsion
[ 10167 10162 10161 10158 ] final  -96.75 input  -65.29 | X-H torsion
[ 10718 10713 10712 10709 ] final  -67.99 input   66.30 | X-H torsion
[ 10763 10752 10751 10750 ] final  161.13 input  -60.55 | X-H torsion
[ 11005 11000 10999 10996 ] final -115.55 input  -57.11 | X-H torsion

> <Gold.Protein.ActiveResidues>
 VAL166  LYS551  ARG553  GLY616  TRP617  ASP618  TYR619  PRO620  LYS621  CYS622 
 ASP623  PHE694  ASN695  SER759  ASP760  ASP761  ALA762  ILE779  LEU786  VAL792 
 PHE793  MET794  SER795  GLU796  ALA797  LYS798  CYS799  TRP800  GLU811  SER814 

> <Gold.Protein.RotatedAtoms>
  151.7796  133.3348  159.3467 H   0  0  0  0  0  0  0  0  0  0  0  0  # atno 6907 bound_to 6896
  150.7431  134.5943  159.6013 H   0  0  0  0  0  0  0  0  0  0  0  0  # atno 6908 bound_to 6896
  152.3285  134.7291  160.0347 H   0  0  0  0  0  0  0  0  0  0  0  0  # atno 6909 bound_to 6896
  145.8036  139.2995  143.1140 H   0  0  0  0  0  0  0  0  0  0  0  0  # atno 7974 bound_to 7965
  155.6250  140.0685  157.2666 H   0  0  0  0  0  0  0  0  0  0  0  0  # atno 8008 bound_to 7997
  154.4220  140.1777  156.1461 H   0  0  0  0  0  0  0  0  0  0  0  0  # atno 8009 bound_to 7997
  155.9979  140.3339  155.6819 H   0  0  0  0  0  0  0  0  0  0  0  0  # atno 8010 bound_to 7997
  140.2905  143.3224  152.0350 H   0  0  0  0  0  0  0  0  0  0  0  0  # atno 10167 bound_to 10162
  156.0528  130.4287  150.1935 H   0  0  0  0  0  0  0  0  0  0  0  0  # atno 10718 bound_to 10713
  154.2581  135.2769  155.2789 H   0  0  0  0  0  0  0  0  0  0  0  0  # atno 10763 bound_to 10752
  154.5407  135.5703  153.6840 H   0  0  0  0  0  0  0  0  0  0  0  0  # atno 10764 bound_to 10752
  152.9967  135.6250  154.2731 H   0  0  0  0  0  0  0  0  0  0  0  0  # atno 10765 bound_to 10752
  141.0480  133.9732  157.2885 H   0  0  0  0  0  0  0  0  0  0  0  0  # atno 11005 bound_to 11000
  145.9852  140.8649  143.0094 LP  0  0  0  0  0  0  0  0  0  0  0  0  # atno 17320 bound_to 7965
  144.6765  140.2136  143.7374 LP  0  0  0  0  0  0  0  0  0  0  0  0  # atno 17321 bound_to 7965
  139.4939  144.6528  151.6638 LP  0  0  0  0  0  0  0  0  0  0  0  0  # atno 17342 bound_to 10162
  140.5736  144.0067  150.6230 LP  0  0  0  0  0  0  0  0  0  0  0  0  # atno 17343 bound_to 10162
  157.0016  130.9924  151.3389 LP  0  0  0  0  0  0  0  0  0  0  0  0  # atno 17370 bound_to 10713
  157.5471  130.8158  149.8099 LP  0  0  0  0  0  0  0  0  0  0  0  0  # atno 17371 bound_to 10713
  139.9327  135.0199  156.8454 LP  0  0  0  0  0  0  0  0  0  0  0  0  # atno 17394 bound_to 11000
  140.6110  134.0083  155.7577 LP  0  0  0  0  0  0  0  0  0  0  0  0  # atno 17395 bound_to 11000

$$$$
