AV-unprocessed.smi:49|AV-procd|sdf|478|dock9
  -GOLD-   2262016343D 1   1.00000     0.00000
 Structure written by MMmdl.
 27 28  0  0  0  0  0  0  0  0  1 V2000
  153.5494  142.0172  160.9176 C   0  0  0  0  0  0  0  0  0  0  0  0
  152.2503  142.2414  160.1355 C   0  0  0  0  0  0  0  0  0  0  0  0
  152.0732  141.2476  159.0356 C   0  0  0  0  0  0  0  0  0  0  0  0
  151.7618  141.6117  157.7554 N   0  0  0  0  0  0  0  0  0  0  0  0
  151.6787  140.4141  157.1820 C   0  0  0  0  0  0  0  0  0  0  0  0
  151.3535  140.1535  155.7430 C   0  0  1  0  0  0  0  0  0  0  0  0
  152.4180  139.2786  155.0542 C   0  0  0  0  0  0  0  0  0  0  0  0
  151.7128  137.9458  154.8234 C   0  0  2  0  0  0  0  0  0  0  0  0
  152.2203  137.2401  153.7110 O   0  0  0  0  0  0  0  0  0  0  0  0
  150.2653  138.3765  154.6265 C   0  0  0  0  0  0  0  0  0  0  0  0
  150.0719  139.4563  155.5840 N   0  0  0  0  0  0  0  0  0  0  0  0
  151.9014  139.4217  158.0463 N   0  0  0  0  0  0  0  0  0  0  0  0
  152.1542  139.9383  159.2675 N   0  0  0  0  0  0  0  0  0  0  0  0
  151.3074  141.1140  155.2278 H   0  0  0  0  0  0  0  0  0  0  0  0
  151.7960  137.3240  155.7162 H   0  0  0  0  0  0  0  0  0  0  0  0
  151.8869  138.4293  157.8596 H   0  0  0  0  0  0  0  0  0  0  0  0
  153.6525  142.7504  161.7177 H   0  0  0  0  0  0  0  0  0  0  0  0
  154.4204  142.1081  160.2680 H   0  0  0  0  0  0  0  0  0  0  0  0
  153.5698  141.0251  161.3696 H   0  0  0  0  0  0  0  0  0  0  0  0
  151.3965  142.1788  160.8112 H   0  0  0  0  0  0  0  0  0  0  0  0
  152.2389  143.2482  159.7160 H   0  0  0  0  0  0  0  0  0  0  0  0
  152.6779  139.7289  154.0947 H   0  0  0  0  0  0  0  0  0  0  0  0
  153.3414  139.1757  155.6259 H   0  0  0  0  0  0  0  0  0  0  0  0
  151.4978  137.0123  153.1459 H   0  0  0  0  0  0  0  0  0  0  0  0
  150.1235  138.7564  153.6137 H   0  0  0  0  0  0  0  0  0  0  0  0
  149.5571  137.5622  154.7815 H   0  0  0  0  0  0  0  0  0  0  0  0
  149.3708  140.0952  155.2232 H   0  0  0  0  0  0  0  0  0  0  0  0
  1  2  1  0  0  0  0
  1 17  1  0  0  0  0
  1 18  1  0  0  0  0
  1 19  1  0  0  0  0
  2 20  1  0  0  0  0
  2 21  1  0  0  0  0
  2  3  1  0  0  0  0
  3  4  1  0  0  0  0
  3 13  2  0  0  0  0
  4  5  2  0  0  0  0
  5  6  1  0  0  0  0
  5 12  1  0  0  0  0
  6 14  1  0  0  0  0
  6 11  1  0  0  0  0
  6  7  1  0  0  0  0
  7  8  1  0  0  0  0
  7 22  1  0  0  0  0
  7 23  1  0  0  0  0
  8 15  1  0  0  0  0
  8  9  1  0  0  0  0
  8 10  1  0  0  0  0
  9 24  1  0  0  0  0
 10 11  1  0  0  0  0
 10 25  1  0  0  0  0
 10 26  1  0  0  0  0
 11 27  1  0  0  0  0
 12 13  1  0  0  0  0
 12 16  1  0  0  0  0
M  END
> <s_m_source_file>
AV-unprocessed.smi

> <i_m_source_file_index>
49

> <i_lp_mmshare_version>
43012

> <i_f3d_flags>
0

> <s_epik_input>
W0NIM11bQ0gyXWMxbmMobltuSF0xKVtDQEBIXTJbQ0gyXVtDQEBIXShbT0hdKVtDSDJdW05IXTI=

> <s_epik_cmdline>
J2VwaWtfcHl0aG9uJywgJy1waCcsICc3LjAnLCAnLXRuJywgJzgnLCAnLW1hJywgJzIwMCcsICctbWV0YWxfYmluZGluZycsICctaW1hZScsICc8aW5maWxlLm1hZT4nLCAnLW9tYWUnLCAnPG91dGZpbGUubWFlPic=

> <r_epik_Ionization_Penalty>
1.31544

> <r_epik_Ionization_Penalty_Charging>
0

> <r_epik_Ionization_Penalty_Neutral>
1.31544

> <r_epik_State_Penalty>
2.06074

> <r_epik_Charging_Adjusted_Penalty>
2.06074

> <i_epik_Tot_Q>
0

> <i_epik_Tot_abs_Q>
0

> <r_epik_Metal_State_Penalty>
2.32913

> <b_epik_Metal_Only>
0

> <s_lp_Force_Field>
OPLS_2005

> <r_lp_Energy>
17.94

> <b_lp_Chiralities_Consistent>
1

> <s_lp_Variant>
AV-unprocessed.smi:49-16

> <Gold.Version>
5.8.1

> <Gold.Id.Protein>
6NUR|6NUR_protein|mol2

> <Gold.PLP.Fitness>
31.1060

> <Gold.PLP.PLP>
-26.0636

> <Gold.PLP.part.hbond>
-2.0000

> <Gold.PLP.part.metal>
0.0000

> <Gold.PLP.part.buried>
-1.2791

> <Gold.PLP.part.nonpolar>
-21.8389

> <Gold.PLP.part.repulsive>
0.0855

> <Gold.PLP.ligand.clash>
0.0000

> <Gold.PLP.ligand.torsion>
0.1338

> <Gold.PLP.Chemscore.Hbond>
1.7680

> <Gold.PLP.Chemscore.CHOScore>
0.0000

> <Gold.PLP.Chemscore.Metal>
0.0000

> <Gold.Chemscore.Hbonds>
donor molecule, donor type, donor heavy atom, donor atom, acceptor molecule, acceptor atom, score
      L1  H     9    24       P1  7949  0.77
      P1  H 10752 10765       L1     9  1.00

> <Gold.PLP.Chemscore.Internal.Correction>
0.0059

> <Gold.Rescore>
     Score         DG    S(hbond)    S(metal)    S(lipo)     H(rot)  DE(clash)    DE(int)     intcor
     11.92     -12.17       1.61        0.00      51.84       1.86       0.02       0.24       ----

> <Gold.Chemscore.Fitness>
11.9179

> <Gold.Chemscore.DG>
-12.1747

> <Gold.Chemscore.ZeroCoef>
-5.4800

> <Gold.Chemscore.Hbond>
1.6107

> <Gold.Chemscore.Metal>
0.0000

> <Gold.Chemscore.Lipo>
51.8419

> <Gold.Chemscore.Internal_Hbond>
0.0000

> <Gold.Chemscore.DEClash>
0.0156

> <Gold.Chemscore.DEInternal>
0.2411

> <Gold.Chemscore.Rot>
1.8558

> <Gold.Chemscore.Internal.Correction>
   9.000000E+99

> <Gold.Chemscore.Hbonds>
donor molecule, donor type, donor heavy atom, donor atom, acceptor molecule, acceptor atom, score
      L1  H     9    24       P1  7949  0.69
      P1  H 10752 10765       L1     9  0.41

> <Gold.Chemscore.Hbond.Weighted>
-5.3799

> <Gold.Chemscore.Metal.Weighted>
-0.0000

> <Gold.Chemscore.Lipo.Weighted>
-6.0655

> <Gold.Chemscore.Internal_Hbond.Weighted>
0.0000

> <Gold.Chemscore.DEClash.Weighted>
0.0156

> <Gold.Chemscore.DEInternal.Weighted>
0.2411

> <Gold.Chemscore.Rot.Weighted>
4.7507

> <Gold.Chemscore.Internal.Correction.Weighted>
   9.000000E+99

> <Gold.Protein.RotatedTorsions>
[ 6907 6896 6895 6894 ] final  149.97 input  -60.11 | X-H torsion
[ 7974 7965 7964 7962 ] final -116.83 input  175.53 | X-H torsion
[ 8008 7997 7996 7995 ] final  -63.41 input   59.86 | X-H torsion
[ 10167 10162 10161 10158 ] final  -60.78 input  -65.29 | X-H torsion
[ 10718 10713 10712 10709 ] final   23.40 input   66.30 | X-H torsion
[ 10763 10752 10751 10750 ] final  140.10 input  -60.55 | X-H torsion
[ 11005 11000 10999 10996 ] final  -11.75 input  -57.11 | X-H torsion

> <Gold.Protein.ActiveResidues>
 VAL166  LYS551  ARG553  GLY616  TRP617  ASP618  TYR619  PRO620  LYS621  CYS622 
 ASP623  PHE694  ASN695  SER759  ASP760  ASP761  ALA762  ILE779  LEU786  VAL792 
 PHE793  MET794  SER795  GLU796  ALA797  LYS798  CYS799  TRP800  GLU811  SER814 

> <Gold.Protein.RotatedAtoms>
  152.1208  133.4352  159.4674 H   0  0  0  0  0  0  0  0  0  0  0  0  # atno 6907 bound_to 6896
  150.6872  134.2537  159.4530 H   0  0  0  0  0  0  0  0  0  0  0  0  # atno 6908 bound_to 6896
  152.0413  134.9709  160.0624 H   0  0  0  0  0  0  0  0  0  0  0  0  # atno 6909 bound_to 6896
  145.0922  140.8497  143.3976 H   0  0  0  0  0  0  0  0  0  0  0  0  # atno 7974 bound_to 7965
  154.4553  140.0975  156.6738 H   0  0  0  0  0  0  0  0  0  0  0  0  # atno 8008 bound_to 7997
  155.5158  140.3477  155.4379 H   0  0  0  0  0  0  0  0  0  0  0  0  # atno 8009 bound_to 7997
  156.0764  140.1362  156.9755 H   0  0  0  0  0  0  0  0  0  0  0  0  # atno 8010 bound_to 7997
  140.6049  143.2371  151.5844 H   0  0  0  0  0  0  0  0  0  0  0  0  # atno 10167 bound_to 10162
  157.1656  130.6736  149.6059 H   0  0  0  0  0  0  0  0  0  0  0  0  # atno 10718 bound_to 10713
  153.9171  135.3004  155.3448 H   0  0  0  0  0  0  0  0  0  0  0  0  # atno 10763 bound_to 10752
  154.7594  135.4941  153.9439 H   0  0  0  0  0  0  0  0  0  0  0  0  # atno 10764 bound_to 10752
  153.1161  135.6771  153.9518 H   0  0  0  0  0  0  0  0  0  0  0  0  # atno 10765 bound_to 10752
  140.7586  133.8534  155.9105 H   0  0  0  0  0  0  0  0  0  0  0  0  # atno 11005 bound_to 11000
  145.1052  139.2794  143.5665 LP  0  0  0  0  0  0  0  0  0  0  0  0  # atno 17320 bound_to 7965
  146.3531  140.0632  142.8628 LP  0  0  0  0  0  0  0  0  0  0  0  0  # atno 17321 bound_to 7965
  139.5317  144.2895  152.1163 LP  0  0  0  0  0  0  0  0  0  0  0  0  # atno 17342 bound_to 10162
  140.2083  144.4588  150.6398 LP  0  0  0  0  0  0  0  0  0  0  0  0  # atno 17343 bound_to 10162
  155.9746  130.4696  150.6402 LP  0  0  0  0  0  0  0  0  0  0  0  0  # atno 17370 bound_to 10713
  157.4091  131.0821  151.1237 LP  0  0  0  0  0  0  0  0  0  0  0  0  # atno 17371 bound_to 10713
  140.9684  134.1563  157.4596 LP  0  0  0  0  0  0  0  0  0  0  0  0  # atno 17394 bound_to 11000
  139.8775  134.9970  156.5824 LP  0  0  0  0  0  0  0  0  0  0  0  0  # atno 17395 bound_to 11000

$$$$
