AV-unprocessed.smi:2623|AV-procd|sdf|10231|dock9
  -GOLD-   2272014243D 1   1.00000     0.00000
 Structure written by MMmdl.
 41 43  0  0  0  0  0  0  0  0  2 V2000
  150.5311  140.3043  154.6882 O   0  0  0  0  0  0  0  0  0  0  0  0
  149.9549  140.2348  155.9732 C   0  0  0  0  0  0  0  0  0  0  0  0
  150.6027  141.1742  156.9356 C   0  0  0  0  0  0  0  0  0  0  0  0
  150.6090  142.5337  156.8432 N   0  3  0  0  0  0  0  0  0  0  0  0
  151.3223  143.0769  157.9125 C   0  0  0  0  0  0  0  0  0  0  0  0
  151.5994  144.3998  158.2438 C   0  0  0  0  0  0  0  0  0  0  0  0
  152.3598  144.6135  159.4121 C   0  0  0  0  0  0  0  0  0  0  0  0
  152.8122  143.5359  160.2008 C   0  0  0  0  0  0  0  0  0  0  0  0
  152.5250  142.1990  159.8549 C   0  0  0  0  0  0  0  0  0  0  0  0
  151.7740  141.9954  158.6969 C   0  0  0  0  0  0  0  0  0  0  0  0
  151.3062  140.8416  158.0558 N   0  0  0  0  0  0  0  0  0  0  0  0
  151.6140  139.5157  158.6157 C   0  0  0  0  0  0  0  0  0  0  0  0
  153.1041  139.1424  158.4847 C   0  0  2  0  0  0  0  0  0  0  0  0
  153.4367  138.9465  157.1251 O   0  0  0  0  0  0  0  0  0  0  0  0
  153.4604  137.8692  159.2657 C   0  0  0  0  0  0  0  0  0  0  0  0
  153.4068  138.1558  160.6570 O   0  0  0  0  0  0  0  0  0  0  0  0
  153.8617  137.1993  161.5389 C   0  0  0  0  0  0  0  0  0  0  0  0
  153.6028  137.4174  162.9082 C   0  0  0  0  0  0  0  0  0  0  0  0
  154.0303  136.4917  163.8792 C   0  0  0  0  0  0  0  0  0  0  0  0
  154.7255  135.3326  163.4879 C   0  0  0  0  0  0  0  0  0  0  0  0
  154.9920  135.1030  162.1255 C   0  0  0  0  0  0  0  0  0  0  0  0
  154.5639  136.0288  161.1540 C   0  0  0  0  0  0  0  0  0  0  0  0
  150.0929  139.6821  154.1276 H   0  0  0  0  0  0  0  0  0  0  0  0
  148.8920  140.4659  155.9003 H   0  0  0  0  0  0  0  0  0  0  0  0
  150.0357  139.2136  156.3457 H   0  0  0  0  0  0  0  0  0  0  0  0
  151.2531  145.2271  157.6417 H   0  0  0  0  0  0  0  0  0  0  0  0
  152.6003  145.6239  159.7098 H   0  0  0  0  0  0  0  0  0  0  0  0
  153.3914  143.7384  161.0903 H   0  0  0  0  0  0  0  0  0  0  0  0
  152.8738  141.3828  160.4699 H   0  0  0  0  0  0  0  0  0  0  0  0
  151.3267  139.5389  159.6676 H   0  0  0  0  0  0  0  0  0  0  0  0
  150.9743  138.7667  158.1487 H   0  0  0  0  0  0  0  0  0  0  0  0
  153.7214  139.9626  158.8529 H   0  0  0  0  0  0  0  0  0  0  0  0
  153.8020  138.0805  157.0291 H   0  0  0  0  0  0  0  0  0  0  0  0
  152.7697  137.0642  159.0079 H   0  0  0  0  0  0  0  0  0  0  0  0
  154.4698  137.5482  159.0018 H   0  0  0  0  0  0  0  0  0  0  0  0
  153.0698  138.3043  163.2182 H   0  0  0  0  0  0  0  0  0  0  0  0
  153.8247  136.6714  164.9241 H   0  0  0  0  0  0  0  0  0  0  0  0
  155.0539  134.6211  164.2314 H   0  0  0  0  0  0  0  0  0  0  0  0
  155.5265  134.2143  161.8238 H   0  0  0  0  0  0  0  0  0  0  0  0
  154.7881  135.8176  160.1193 H   0  0  0  0  0  0  0  0  0  0  0  0
  150.1605  143.0490  156.0966 H   0  0  0  0  0  0  0  0  0  0  0  0
  1  2  1  0  0  0  0
  1 23  1  0  0  0  0
  2  3  1  0  0  0  0
  2 24  1  0  0  0  0
  2 25  1  0  0  0  0
  3 11  1  0  0  0  0
  3  4  2  0  0  0  0
  4  5  1  0  0  0  0
  4 41  1  0  0  0  0
  5 10  2  0  0  0  0
  5  6  1  0  0  0  0
  6  7  2  0  0  0  0
  6 26  1  0  0  0  0
  7  8  1  0  0  0  0
  7 27  1  0  0  0  0
  8  9  2  0  0  0  0
  8 28  1  0  0  0  0
  9 10  1  0  0  0  0
  9 29  1  0  0  0  0
 10 11  1  0  0  0  0
 11 12  1  0  0  0  0
 12 13  1  0  0  0  0
 12 30  1  0  0  0  0
 12 31  1  0  0  0  0
 13 14  1  0  0  0  0
 13 15  1  0  0  0  0
 13 32  1  0  0  0  0
 14 33  1  0  0  0  0
 15 16  1  0  0  0  0
 15 34  1  0  0  0  0
 15 35  1  0  0  0  0
 16 17  1  0  0  0  0
 17 22  1  0  0  0  0
 17 18  2  0  0  0  0
 18 19  1  0  0  0  0
 18 36  1  0  0  0  0
 19 20  2  0  0  0  0
 19 37  1  0  0  0  0
 20 21  1  0  0  0  0
 20 38  1  0  0  0  0
 21 22  2  0  0  0  0
 21 39  1  0  0  0  0
 22 40  1  0  0  0  0
M  CHG  1   4   1
M  END
> <s_m_source_file>
AV-unprocessed.smi

> <i_m_source_file_index>
2623

> <i_lp_mmshare_version>
43012

> <i_f3d_flags>
0

> <s_epik_input>
W2NIXTFbY0hdW2NIXVtjSF1jKGMxMiluKGMobjIpW0NIMl1bT0hdKVtDSDJdW0NASF0oW09IXSlbQ0gyXU9jM1tjSF1bY0hdW2NIXVtjSF1bY0hdMw==

> <s_epik_cmdline>
J2VwaWtfcHl0aG9uJywgJy1waCcsICc3LjAnLCAnLXRuJywgJzgnLCAnLW1hJywgJzIwMCcsICctbWV0YWxfYmluZGluZycsICctaW1hZScsICc8aW5maWxlLm1hZT4nLCAnLW9tYWUnLCAnPG91dGZpbGUubWFlPic=

> <r_lp_tautomer_probability>
1

> <r_epik_Ionization_Penalty>
1.40416

> <r_epik_Ionization_Penalty_Charging>
1.4033

> <r_epik_Ionization_Penalty_Neutral>
0.000858184

> <r_epik_State_Penalty>
1.48564

> <r_epik_Charging_Adjusted_Penalty>
2.88894

> <i_epik_Tot_Q>
1

> <i_epik_Tot_abs_Q>
1

> <r_epik_Metal_State_Penalty>
5.52809

> <b_epik_Metal_Only>
0

> <s_lp_Force_Field>
OPLS_2005

> <r_lp_Energy>
17.9205

> <b_lp_Chiralities_Consistent>
1

> <s_lp_Variant>
AV-unprocessed.smi:2623-3

> <Gold.Version>
5.8.1

> <Gold.Id.Protein>
6NUR|6NUR_protein|mol2

> <Gold.PLP.Fitness>
58.1202

> <Gold.PLP.PLP>
-46.8827

> <Gold.PLP.part.hbond>
-3.0000

> <Gold.PLP.part.metal>
0.0000

> <Gold.PLP.part.buried>
-6.4286

> <Gold.PLP.part.nonpolar>
-37.8091

> <Gold.PLP.part.repulsive>
0.0382

> <Gold.PLP.ligand.clash>
0.0000

> <Gold.PLP.ligand.torsion>
0.3208

> <Gold.PLP.Chemscore.Hbond>
3.9200

> <Gold.PLP.Chemscore.CHOScore>
0.0000

> <Gold.PLP.Chemscore.Metal>
0.0000

> <Gold.Chemscore.Hbonds>
donor molecule, donor type, donor heavy atom, donor atom, acceptor molecule, acceptor atom, score
      L1  H     4    41       P1  8028  1.26
      P1  H  7989  7998       L1     1  0.80
      P1  H  7997  8010       L1    14  0.98

> <Gold.PLP.Chemscore.Internal.Correction>
0.1192

> <Gold.Rescore>
     Score         DG    S(hbond)    S(metal)    S(lipo)     H(rot)  DE(clash)    DE(int)     intcor
     20.05     -20.27       2.21        0.00     131.76       3.13       0.00       0.22       ----

> <Gold.Chemscore.Fitness>
20.0495

> <Gold.Chemscore.DG>
-20.2713

> <Gold.Chemscore.ZeroCoef>
-5.4800

> <Gold.Chemscore.Hbond>
2.2125

> <Gold.Chemscore.Metal>
0.0000

> <Gold.Chemscore.Lipo>
131.7590

> <Gold.Chemscore.Internal_Hbond>
0.0000

> <Gold.Chemscore.DEClash>
0.0000

> <Gold.Chemscore.DEInternal>
0.2219

> <Gold.Chemscore.Rot>
3.1305

> <Gold.Chemscore.Internal.Correction>
   9.000000E+99

> <Gold.Chemscore.Hbonds>
donor molecule, donor type, donor heavy atom, donor atom, acceptor molecule, acceptor atom, score
      L1  H     4    41       P1  8028  0.61
      P1  H  7989  7998       L1     1  0.12
      P1  H  7997  8010       L1    14  0.69

> <Gold.Chemscore.Hbond.Weighted>
-7.3896

> <Gold.Chemscore.Metal.Weighted>
-0.0000

> <Gold.Chemscore.Lipo.Weighted>
-15.4158

> <Gold.Chemscore.Internal_Hbond.Weighted>
0.0000

> <Gold.Chemscore.DEClash.Weighted>
0.0000

> <Gold.Chemscore.DEInternal.Weighted>
0.2219

> <Gold.Chemscore.Rot.Weighted>
8.0141

> <Gold.Chemscore.Internal.Correction.Weighted>
   9.000000E+99

> <Gold.Protein.RotatedTorsions>
[ 6907 6896 6895 6894 ] final   35.91 input  -60.11 | X-H torsion
[ 7974 7965 7964 7962 ] final   53.26 input  175.53 | X-H torsion
[ 8008 7997 7996 7995 ] final   68.06 input   59.86 | X-H torsion
[ 10167 10162 10161 10158 ] final   95.84 input  -65.29 | X-H torsion
[ 10718 10713 10712 10709 ] final -144.45 input   66.30 | X-H torsion
[ 10763 10752 10751 10750 ] final  -43.05 input  -60.55 | X-H torsion
[ 11005 11000 10999 10996 ] final -119.92 input  -57.11 | X-H torsion

> <Gold.Protein.ActiveResidues>
 VAL166  LYS551  ARG553  GLY616  TRP617  ASP618  TYR619  PRO620  LYS621  CYS622 
 ASP623  PHE694  ASN695  SER759  ASP760  ASP761  ALA762  ILE779  LEU786  VAL792 
 PHE793  MET794  SER795  GLU796  ALA797  LYS798  CYS799  TRP800  GLU811  SER814 

> <Gold.Protein.RotatedAtoms>
  152.1226  134.9194  160.0562 H   0  0  0  0  0  0  0  0  0  0  0  0  # atno 6907 bound_to 6896
  152.0329  133.3940  159.4313 H   0  0  0  0  0  0  0  0  0  0  0  0  # atno 6908 bound_to 6896
  150.6850  134.3422  159.4916 H   0  0  0  0  0  0  0  0  0  0  0  0  # atno 6909 bound_to 6896
  145.9730  139.4167  143.0178 H   0  0  0  0  0  0  0  0  0  0  0  0  # atno 7974 bound_to 7965
  155.7025  140.3495  155.4939 H   0  0  0  0  0  0  0  0  0  0  0  0  # atno 8008 bound_to 7997
  155.9428  140.1104  157.1064 H   0  0  0  0  0  0  0  0  0  0  0  0  # atno 8009 bound_to 7997
  154.4106  140.1209  156.4935 H   0  0  0  0  0  0  0  0  0  0  0  0  # atno 8010 bound_to 7997
  139.7950  144.6837  150.9840 H   0  0  0  0  0  0  0  0  0  0  0  0  # atno 10167 bound_to 10162
  156.3703  130.7784  151.1964 H   0  0  0  0  0  0  0  0  0  0  0  0  # atno 10718 bound_to 10713
  153.9892  135.6707  153.4753 H   0  0  0  0  0  0  0  0  0  0  0  0  # atno 10763 bound_to 10752
  153.0713  135.4973  154.8306 H   0  0  0  0  0  0  0  0  0  0  0  0  # atno 10764 bound_to 10752
  154.7119  135.3099  154.9146 H   0  0  0  0  0  0  0  0  0  0  0  0  # atno 10765 bound_to 10752
  141.0181  134.0165  157.3321 H   0  0  0  0  0  0  0  0  0  0  0  0  # atno 11005 bound_to 11000
  145.7879  140.9827  143.1064 LP  0  0  0  0  0  0  0  0  0  0  0  0  # atno 17320 bound_to 7965
  144.6841  139.9646  143.7481 LP  0  0  0  0  0  0  0  0  0  0  0  0  # atno 17321 bound_to 7965
  140.7820  143.4340  151.0651 LP  0  0  0  0  0  0  0  0  0  0  0  0  # atno 17342 bound_to 10162
  139.8015  143.8077  152.3163 LP  0  0  0  0  0  0  0  0  0  0  0  0  # atno 17343 bound_to 10162
  157.7483  131.0374  150.4455 LP  0  0  0  0  0  0  0  0  0  0  0  0  # atno 17370 bound_to 10713
  156.4681  130.4046  149.6535 LP  0  0  0  0  0  0  0  0  0  0  0  0  # atno 17371 bound_to 10713
  139.9129  135.0193  156.7766 LP  0  0  0  0  0  0  0  0  0  0  0  0  # atno 17394 bound_to 11000
  140.6620  133.9637  155.7810 LP  0  0  0  0  0  0  0  0  0  0  0  0  # atno 17395 bound_to 11000

$$$$
