AV-unprocessed.smi:1947|AV-procd|sdf|7870|dock6
  -GOLD-   2272010 23D 1   1.00000     0.00000
 Structure written by MMmdl.
 38 39  0  0  0  0  0  0  0  0  2 V2000
  151.2318  140.9151  157.5607 C   0  0  0  0  0  0  0  0  0  0  0  0
  151.0611  140.3295  156.1509 C   0  0  1  0  0  0  0  0  0  0  0  0
  152.0972  139.2227  155.8689 C   0  0  0  0  0  0  0  0  0  0  0  0
  151.9691  138.6818  154.4363 C   0  0  0  0  0  0  0  0  0  0  0  0
  150.5431  138.1869  154.1523 C   0  0  0  0  0  0  0  0  0  0  0  0
  149.5030  139.2852  154.4336 C   0  0  0  0  0  0  0  0  0  0  0  0
  149.6210  139.8333  155.8679 C   0  0  1  0  0  0  0  0  0  0  0  0
  149.2781  138.7745  156.7527 O   0  0  0  0  0  0  0  0  0  0  0  0
  148.0185  138.1670  156.5100 C   0  0  0  0  0  0  0  0  0  0  0  0
  147.9772  136.8004  157.2107 C   0  0  0  0  0  0  0  0  0  0  0  0
  147.7765  136.9542  158.6486 N   0  0  0  0  0  0  0  0  0  0  0  0
  148.5978  136.5038  159.6083 C   0  0  0  0  0  0  0  0  0  0  0  0
  149.5743  135.8119  159.3103 O   0  0  0  0  0  0  0  0  0  0  0  0
  148.2498  136.8993  160.8538 N   0  5  0  0  0  0  0  0  0  0  0  0
  147.4683  136.1094  161.6085 C   0  0  0  0  0  0  0  0  0  0  0  0
  146.2160  136.4562  161.9481 N   0  0  0  0  0  0  0  0  0  0  0  0
  145.5807  135.5058  162.7358 N   0  0  0  0  0  0  0  0  0  0  0  0
  146.3710  134.4568  162.9623 C   0  0  0  0  0  0  0  0  0  0  0  0
  147.9608  134.5332  162.2322 S   0  0  0  0  0  0  0  0  0  0  0  0
  151.1076  140.1511  158.3282 H   0  0  0  0  0  0  0  0  0  0  0  0
  150.5048  141.7050  157.7506 H   0  0  0  0  0  0  0  0  0  0  0  0
  152.2256  141.3447  157.6874 H   0  0  0  0  0  0  0  0  0  0  0  0
  151.2604  141.1437  155.4525 H   0  0  0  0  0  0  0  0  0  0  0  0
  153.1061  139.6063  156.0244 H   0  0  0  0  0  0  0  0  0  0  0  0
  151.9710  138.4055  156.5796 H   0  0  0  0  0  0  0  0  0  0  0  0
  152.2332  139.4655  153.7251 H   0  0  0  0  0  0  0  0  0  0  0  0
  152.6813  137.8709  154.2818 H   0  0  0  0  0  0  0  0  0  0  0  0
  150.4639  137.8565  153.1164 H   0  0  0  0  0  0  0  0  0  0  0  0
  150.3313  137.3136  154.7706 H   0  0  0  0  0  0  0  0  0  0  0  0
  149.6390  140.1007  153.7224 H   0  0  0  0  0  0  0  0  0  0  0  0
  148.4980  138.8967  154.2657 H   0  0  0  0  0  0  0  0  0  0  0  0
  148.9192  140.6632  155.9706 H   0  0  0  0  0  0  0  0  0  0  0  0
  147.1997  138.7922  156.8679 H   0  0  0  0  0  0  0  0  0  0  0  0
  147.8854  138.0444  155.4345 H   0  0  0  0  0  0  0  0  0  0  0  0
  147.1416  136.2187  156.8213 H   0  0  0  0  0  0  0  0  0  0  0  0
  148.8800  136.2265  156.9966 H   0  0  0  0  0  0  0  0  0  0  0  0
  146.9849  137.5076  158.9413 H   0  0  0  0  0  0  0  0  0  0  0  0
  146.0148  133.6319  163.5609 H   0  0  0  0  0  0  0  0  0  0  0  0
  1  2  1  0  0  0  0
  1 20  1  0  0  0  0
  1 21  1  0  0  0  0
  1 22  1  0  0  0  0
  2  7  1  0  0  0  0
  2  3  1  0  0  0  0
  2 23  1  0  0  0  0
  3  4  1  0  0  0  0
  3 24  1  0  0  0  0
  3 25  1  0  0  0  0
  4  5  1  0  0  0  0
  4 26  1  0  0  0  0
  4 27  1  0  0  0  0
  5  6  1  0  0  0  0
  5 28  1  0  0  0  0
  5 29  1  0  0  0  0
  6  7  1  0  0  0  0
  6 30  1  0  0  0  0
  6 31  1  0  0  0  0
  7  8  1  0  0  0  0
  7 32  1  0  0  0  0
  8  9  1  0  0  0  0
  9 10  1  0  0  0  0
  9 33  1  0  0  0  0
  9 34  1  0  0  0  0
 10 11  1  0  0  0  0
 10 35  1  0  0  0  0
 10 36  1  0  0  0  0
 11 12  1  0  0  0  0
 11 37  1  0  0  0  0
 12 13  2  0  0  0  0
 12 14  1  0  0  0  0
 14 15  1  0  0  0  0
 15 19  1  0  0  0  0
 15 16  2  0  0  0  0
 16 17  1  0  0  0  0
 17 18  2  0  0  0  0
 18 19  1  0  0  0  0
 18 38  1  0  0  0  0
M  CHG  1  14  -1
M  END
> <s_m_source_file>
AV-unprocessed.smi

> <i_m_source_file_index>
1947

> <i_lp_mmshare_version>
43012

> <i_f3d_flags>
0

> <s_epik_input>
W0NIM11bQ0BASF0xW0NIMl1bQ0gyXVtDSDJdW0NIMl1bQ0BIXTFPW0NIMl1bQ0gyXVtOSF1DKD1PKVtOSF1jMm5uW2NIXXMy

> <s_epik_cmdline>
J2VwaWtfcHl0aG9uJywgJy1waCcsICc3LjAnLCAnLXRuJywgJzgnLCAnLW1hJywgJzIwMCcsICctbWV0YWxfYmluZGluZycsICctaW1hZScsICc8aW5maWxlLm1hZT4nLCAnLW9tYWUnLCAnPG91dGZpbGUubWFlPic=

> <r_lp_tautomer_probability>
1

> <r_epik_Ionization_Penalty>
3.35961

> <r_epik_Ionization_Penalty_Charging>
3.31977

> <r_epik_Ionization_Penalty_Neutral>
0.0398394

> <r_epik_State_Penalty>
3.31759

> <r_epik_Charging_Adjusted_Penalty>
6.63736

> <i_epik_Tot_Q>
-1

> <i_epik_Tot_abs_Q>
1

> <r_epik_Metal_State_Penalty>
0.484557

> <b_epik_Metal_Only>
1

> <s_lp_Force_Field>
OPLS_2005

> <r_lp_Energy>
8.55413

> <b_lp_Chiralities_Consistent>
1

> <s_lp_Variant>
AV-unprocessed.smi:1947-6

> <Gold.Version>
5.8.1

> <Gold.Id.Protein>
6NUR|6NUR_protein|mol2

> <Gold.PLP.Fitness>
42.1275

> <Gold.PLP.PLP>
-32.0225

> <Gold.PLP.part.hbond>
-3.0000

> <Gold.PLP.part.metal>
0.0000

> <Gold.PLP.part.buried>
-4.0603

> <Gold.PLP.part.nonpolar>
-25.6853

> <Gold.PLP.part.repulsive>
0.0892

> <Gold.PLP.ligand.clash>
0.0000

> <Gold.PLP.ligand.torsion>
1.5410

> <Gold.PLP.Chemscore.Hbond>
4.3600

> <Gold.PLP.Chemscore.CHOScore>
0.0000

> <Gold.PLP.Chemscore.Metal>
0.0000

> <Gold.Chemscore.Hbonds>
donor molecule, donor type, donor heavy atom, donor atom, acceptor molecule, acceptor atom, score
      P1  H  6896  6907       L1    13  1.00
      P1  H  6931  6943       L1    14  2.00
      P1  H  6934  6947       L1    14  0.20

> <Gold.PLP.Chemscore.Internal.Correction>
0.1070

> <Gold.Rescore>
     Score         DG    S(hbond)    S(metal)    S(lipo)     H(rot)  DE(clash)    DE(int)     intcor
     14.36     -15.54       2.22        0.00      64.18       1.90       0.06       1.12       ----

> <Gold.Chemscore.Fitness>
14.3556

> <Gold.Chemscore.DG>
-15.5432

> <Gold.Chemscore.ZeroCoef>
-5.4800

> <Gold.Chemscore.Hbond>
2.2197

> <Gold.Chemscore.Metal>
0.0000

> <Gold.Chemscore.Lipo>
64.1819

> <Gold.Chemscore.Internal_Hbond>
0.0000

> <Gold.Chemscore.DEClash>
0.0627

> <Gold.Chemscore.DEInternal>
1.1249

> <Gold.Chemscore.Rot>
1.8984

> <Gold.Chemscore.Internal.Correction>
   9.000000E+99

> <Gold.Chemscore.Hbonds>
donor molecule, donor type, donor heavy atom, donor atom, acceptor molecule, acceptor atom, score
      P1  H  6896  6907       L1    13  0.99
      P1  H  6931  6943       L1    14  0.75
      P1  H  6934  6947       L1    14  0.05

> <Gold.Chemscore.Hbond.Weighted>
-7.4137

> <Gold.Chemscore.Metal.Weighted>
-0.0000

> <Gold.Chemscore.Lipo.Weighted>
-7.5093

> <Gold.Chemscore.Internal_Hbond.Weighted>
0.0000

> <Gold.Chemscore.DEClash.Weighted>
0.0627

> <Gold.Chemscore.DEInternal.Weighted>
1.1249

> <Gold.Chemscore.Rot.Weighted>
4.8598

> <Gold.Chemscore.Internal.Correction.Weighted>
   9.000000E+99

> <Gold.Protein.RotatedTorsions>
[ 6907 6896 6895 6894 ] final  -62.98 input  -60.11 | X-H torsion
[ 7974 7965 7964 7962 ] final  -35.68 input  175.53 | X-H torsion
[ 8008 7997 7996 7995 ] final  136.12 input   59.86 | X-H torsion
[ 10167 10162 10161 10158 ] final   19.96 input  -65.29 | X-H torsion
[ 10718 10713 10712 10709 ] final  172.77 input   66.30 | X-H torsion
[ 10763 10752 10751 10750 ] final  -69.91 input  -60.55 | X-H torsion
[ 11005 11000 10999 10996 ] final  -89.51 input  -57.11 | X-H torsion

> <Gold.Protein.ActiveResidues>
 VAL166  LYS551  ARG553  GLY616  TRP617  ASP618  TYR619  PRO620  LYS621  CYS622 
 ASP623  PHE694  ASN695  SER759  ASP760  ASP761  ALA762  ILE779  LEU786  VAL792 
 PHE793  MET794  SER795  GLU796  ALA797  LYS798  CYS799  TRP800  GLU811  SER814 

> <Gold.Protein.RotatedAtoms>
  150.7679  134.6497  159.6280 H   0  0  0  0  0  0  0  0  0  0  0  0  # atno 6907 bound_to 6896
  152.3719  134.6718  160.0182 H   0  0  0  0  0  0  0  0  0  0  0  0  # atno 6908 bound_to 6896
  151.7075  133.3275  159.3318 H   0  0  0  0  0  0  0  0  0  0  0  0  # atno 6909 bound_to 6896
  146.0726  140.6188  142.8945 H   0  0  0  0  0  0  0  0  0  0  0  0  # atno 7974 bound_to 7965
  156.3004  140.2453  156.3694 H   0  0  0  0  0  0  0  0  0  0  0  0  # atno 8008 bound_to 7997
  154.8803  140.0413  157.1798 H   0  0  0  0  0  0  0  0  0  0  0  0  # atno 8009 bound_to 7997
  154.8703  140.2934  155.5489 H   0  0  0  0  0  0  0  0  0  0  0  0  # atno 8010 bound_to 7997
  140.5540  143.9458  150.6597 H   0  0  0  0  0  0  0  0  0  0  0  0  # atno 10167 bound_to 10162
  156.9741  131.0099  151.2898 H   0  0  0  0  0  0  0  0  0  0  0  0  # atno 10718 bound_to 10713
  154.4102  135.6011  153.5948 H   0  0  0  0  0  0  0  0  0  0  0  0  # atno 10763 bound_to 10752
  152.9790  135.5927  154.4079 H   0  0  0  0  0  0  0  0  0  0  0  0  # atno 10764 bound_to 10752
  154.3890  135.2842  155.2144 H   0  0  0  0  0  0  0  0  0  0  0  0  # atno 10765 bound_to 10752
  141.1583  133.7634  156.9605 H   0  0  0  0  0  0  0  0  0  0  0  0  # atno 11005 bound_to 11000
  144.7241  140.4469  143.6986 LP  0  0  0  0  0  0  0  0  0  0  0  0  # atno 17320 bound_to 7965
  145.6364  139.1543  143.2940 LP  0  0  0  0  0  0  0  0  0  0  0  0  # atno 17321 bound_to 7965
  140.2892  143.3336  152.1079 LP  0  0  0  0  0  0  0  0  0  0  0  0  # atno 17342 bound_to 10162
  139.5039  144.6766  151.6114 LP  0  0  0  0  0  0  0  0  0  0  0  0  # atno 17343 bound_to 10162
  157.5572  130.8221  149.8220 LP  0  0  0  0  0  0  0  0  0  0  0  0  # atno 17370 bound_to 10713
  156.0271  130.3776  150.1793 LP  0  0  0  0  0  0  0  0  0  0  0  0  # atno 17371 bound_to 10713
  140.1196  134.9425  157.2184 LP  0  0  0  0  0  0  0  0  0  0  0  0  # atno 17394 bound_to 11000
  140.3089  134.3047  155.7271 LP  0  0  0  0  0  0  0  0  0  0  0  0  # atno 17395 bound_to 11000

$$$$
