AV-unprocessed.smi:1825|AV-procd|sdf|7413|dock3
  -GOLD-   22720 9 93D 1   1.00000     0.00000
 Structure written by MMmdl.
 34 35  0  0  0  0  0  0  0  0  1 V2000
  144.4653  135.9267  152.9146 O   0  0  0  0  0  0  0  0  0  0  0  0
  145.6348  135.9598  152.5306 C   0  0  0  0  0  0  0  0  0  0  0  0
  146.4943  136.9365  152.8532 N   0  0  0  0  0  0  0  0  0  0  0  0
  146.1689  138.1145  153.6538 C   0  0  0  0  0  0  0  0  0  0  0  0
  147.2080  139.2564  153.5152 C   0  0  0  0  0  0  0  0  0  0  0  0
  147.3722  139.5023  152.1303 O   0  0  0  0  0  0  0  0  0  0  0  0
  146.6391  140.5526  154.1417 C   0  0  0  0  0  0  0  0  0  0  0  0
  147.6378  141.7237  154.1230 C   0  0  0  0  0  0  0  0  0  0  0  0
  148.9628  141.3362  154.7935 C   0  0  0  0  0  0  0  0  0  0  0  0
  149.5680  140.0913  154.1305 C   0  0  0  0  0  0  0  0  0  0  0  0
  148.5827  138.9085  154.1429 C   0  0  0  0  0  0  0  0  0  0  0  0
  146.2186  135.0437  151.7386 N   0  0  0  0  0  0  0  0  0  0  0  0
  145.6467  133.8678  151.1867 C   0  0  0  0  0  0  0  0  0  0  0  0
  146.3077  132.9964  150.4154 N   0  0  0  0  0  0  0  0  0  0  0  0
  145.4964  131.9333  150.0114 C   0  0  0  0  0  0  0  0  0  0  0  0
  144.2112  132.0119  150.4871 C   0  0  0  0  0  0  0  0  0  0  0  0
  143.9668  133.4334  151.4663 S   0  0  0  0  0  0  0  0  0  0  0  0
  147.4358  136.8796  152.4942 H   0  0  0  0  0  0  0  0  0  0  0  0
  145.1602  138.4737  153.4409 H   0  0  0  0  0  0  0  0  0  0  0  0
  146.1465  137.7740  154.6894 H   0  0  0  0  0  0  0  0  0  0  0  0
  148.2541  139.8075  151.9831 H   0  0  0  0  0  0  0  0  0  0  0  0
  145.7196  140.8464  153.6333 H   0  0  0  0  0  0  0  0  0  0  0  0
  146.3589  140.3579  155.1780 H   0  0  0  0  0  0  0  0  0  0  0  0
  147.8240  142.0372  153.0950 H   0  0  0  0  0  0  0  0  0  0  0  0
  147.2046  142.5856  154.6309 H   0  0  0  0  0  0  0  0  0  0  0  0
  149.6661  142.1675  154.7365 H   0  0  0  0  0  0  0  0  0  0  0  0
  148.7954  141.1430  155.8539 H   0  0  0  0  0  0  0  0  0  0  0  0
  149.8506  140.3247  153.1033 H   0  0  0  0  0  0  0  0  0  0  0  0
  150.4879  139.8098  154.6437 H   0  0  0  0  0  0  0  0  0  0  0  0
  148.4329  138.5886  155.1750 H   0  0  0  0  0  0  0  0  0  0  0  0
  149.0404  138.0636  153.6268 H   0  0  0  0  0  0  0  0  0  0  0  0
  147.1839  135.2107  151.4959 H   0  0  0  0  0  0  0  0  0  0  0  0
  145.9166  131.1615  149.3835 H   0  0  0  0  0  0  0  0  0  0  0  0
  143.3968  131.3227  150.3209 H   0  0  0  0  0  0  0  0  0  0  0  0
  1  2  2  0  0  0  0
  2  3  1  0  0  0  0
  2 12  1  0  0  0  0
  3  4  1  0  0  0  0
  3 18  1  0  0  0  0
  4  5  1  0  0  0  0
  4 19  1  0  0  0  0
  4 20  1  0  0  0  0
  5 11  1  0  0  0  0
  5  6  1  0  0  0  0
  5  7  1  0  0  0  0
  6 21  1  0  0  0  0
  7  8  1  0  0  0  0
  7 22  1  0  0  0  0
  7 23  1  0  0  0  0
  8  9  1  0  0  0  0
  8 24  1  0  0  0  0
  8 25  1  0  0  0  0
  9 10  1  0  0  0  0
  9 26  1  0  0  0  0
  9 27  1  0  0  0  0
 10 11  1  0  0  0  0
 10 28  1  0  0  0  0
 10 29  1  0  0  0  0
 11 30  1  0  0  0  0
 11 31  1  0  0  0  0
 12 13  1  0  0  0  0
 12 32  1  0  0  0  0
 13 17  1  0  0  0  0
 13 14  2  0  0  0  0
 14 15  1  0  0  0  0
 15 16  2  0  0  0  0
 15 33  1  0  0  0  0
 16 17  1  0  0  0  0
 16 34  1  0  0  0  0
M  END
> <s_m_source_file>
AV-unprocessed.smi

> <i_m_source_file_index>
1825

> <i_lp_mmshare_version>
43012

> <i_f3d_flags>
0

> <s_epik_input>
czFbY0hdW2NIXW5jMVtOSF1DKD1PKVtOSF1bQ0gyXUMyKFtPSF0pW0NIMl1bQ0gyXVtDSDJdW0NIMl1bQ0gyXTI=

> <s_epik_cmdline>
J2VwaWtfcHl0aG9uJywgJy1waCcsICc3LjAnLCAnLXRuJywgJzgnLCAnLW1hJywgJzIwMCcsICctbWV0YWxfYmluZGluZycsICctaW1hZScsICc8aW5maWxlLm1hZT4nLCAnLW9tYWUnLCAnPG91dGZpbGUubWFlPic=

> <r_lp_tautomer_probability>
0.999

> <r_epik_Ionization_Penalty>
0.000358719

> <r_epik_Ionization_Penalty_Charging>
0

> <r_epik_Ionization_Penalty_Neutral>
0.000358719

> <r_epik_State_Penalty>
0.000177984

> <r_epik_Charging_Adjusted_Penalty>
0.000177984

> <i_epik_Tot_Q>
0

> <i_epik_Tot_abs_Q>
0

> <r_epik_Metal_State_Penalty>
0.00708714

> <b_epik_Metal_Only>
0

> <s_lp_Force_Field>
OPLS_2005

> <r_lp_Energy>
11.7205

> <b_lp_Chiralities_Consistent>
1

> <s_lp_Variant>
AV-unprocessed.smi:1825-1

> <Gold.Version>
5.8.1

> <Gold.Id.Protein>
6NUR|6NUR_protein|mol2

> <Gold.PLP.Fitness>
40.7200

> <Gold.PLP.PLP>
-30.9663

> <Gold.PLP.part.hbond>
-2.5793

> <Gold.PLP.part.metal>
0.0000

> <Gold.PLP.part.buried>
-5.1252

> <Gold.PLP.part.nonpolar>
-25.0605

> <Gold.PLP.part.repulsive>
0.7816

> <Gold.PLP.ligand.clash>
0.0000

> <Gold.PLP.ligand.torsion>
0.1829

> <Gold.PLP.Chemscore.Hbond>
2.8775

> <Gold.PLP.Chemscore.CHOScore>
0.4919

> <Gold.PLP.Chemscore.Metal>
0.0000

> <Gold.Chemscore.Hbonds>
donor molecule, donor type, donor heavy atom, donor atom, acceptor molecule, acceptor atom, score
      L1  H     3    18       P1  7948  1.00
      L1  H     6    21       P1  7957  1.00
      L1  H    12    32       P1  7948  1.00
      L1  C    16    34       P1 10952  0.19

> <Gold.PLP.Chemscore.Internal.Correction>
0.0112

> <Gold.Rescore>
     Score         DG    S(hbond)    S(metal)    S(lipo)     H(rot)  DE(clash)    DE(int)     intcor
     16.91     -18.25       2.90        0.00      66.94       1.86       0.00       1.33       ----

> <Gold.Chemscore.Fitness>
16.9145

> <Gold.Chemscore.DG>
-18.2486

> <Gold.Chemscore.ZeroCoef>
-5.4800

> <Gold.Chemscore.Hbond>
2.9014

> <Gold.Chemscore.Metal>
0.0000

> <Gold.Chemscore.Lipo>
66.9439

> <Gold.Chemscore.Internal_Hbond>
0.0000

> <Gold.Chemscore.DEClash>
0.0044

> <Gold.Chemscore.DEInternal>
1.3297

> <Gold.Chemscore.Rot>
1.8572

> <Gold.Chemscore.Internal.Correction>
   9.000000E+99

> <Gold.Chemscore.Hbonds>
donor molecule, donor type, donor heavy atom, donor atom, acceptor molecule, acceptor atom, score
      L1  H     3    18       P1  7948  1.00
      L1  H     6    21       P1  7957  0.95
      L1  H    12    32       P1  7948  0.81

> <Gold.Chemscore.Hbond.Weighted>
-9.6907

> <Gold.Chemscore.Metal.Weighted>
-0.0000

> <Gold.Chemscore.Lipo.Weighted>
-7.8324

> <Gold.Chemscore.Internal_Hbond.Weighted>
0.0000

> <Gold.Chemscore.DEClash.Weighted>
0.0044

> <Gold.Chemscore.DEInternal.Weighted>
1.3297

> <Gold.Chemscore.Rot.Weighted>
4.7545

> <Gold.Chemscore.Internal.Correction.Weighted>
   9.000000E+99

> <Gold.Protein.RotatedTorsions>
[ 6907 6896 6895 6894 ] final  131.86 input  -60.11 | X-H torsion
[ 7974 7965 7964 7962 ] final -100.77 input  175.53 | X-H torsion
[ 8008 7997 7996 7995 ] final   34.04 input   59.86 | X-H torsion
[ 10167 10162 10161 10158 ] final  174.94 input  -65.29 | X-H torsion
[ 10718 10713 10712 10709 ] final   19.62 input   66.30 | X-H torsion
[ 10763 10752 10751 10750 ] final  -91.49 input  -60.55 | X-H torsion
[ 11005 11000 10999 10996 ] final   53.62 input  -57.11 | X-H torsion

> <Gold.Protein.ActiveResidues>
 VAL166  LYS551  ARG553  GLY616  TRP617  ASP618  TYR619  PRO620  LYS621  CYS622 
 ASP623  PHE694  ASN695  SER759  ASP760  ASP761  ALA762  ILE779  LEU786  VAL792 
 PHE793  MET794  SER795  GLU796  ALA797  LYS798  CYS799  TRP800  GLU811  SER814 

> <Gold.Protein.RotatedAtoms>
  152.3383  133.6037  159.5857 H   0  0  0  0  0  0  0  0  0  0  0  0  # atno 6907 bound_to 6896
  150.7463  133.9762  159.3570 H   0  0  0  0  0  0  0  0  0  0  0  0  # atno 6908 bound_to 6896
  151.7629  135.0806  160.0399 H   0  0  0  0  0  0  0  0  0  0  0  0  # atno 6909 bound_to 6896
  145.2902  140.9350  143.2882 H   0  0  0  0  0  0  0  0  0  0  0  0  # atno 7974 bound_to 7965
  155.1484  140.3272  155.4436 H   0  0  0  0  0  0  0  0  0  0  0  0  # atno 8008 bound_to 7997
  156.2582  140.1981  156.6547 H   0  0  0  0  0  0  0  0  0  0  0  0  # atno 8009 bound_to 7997
  154.6491  140.0561  156.9921 H   0  0  0  0  0  0  0  0  0  0  0  0  # atno 8010 bound_to 7997
  139.5159  144.3089  152.0310 H   0  0  0  0  0  0  0  0  0  0  0  0  # atno 10167 bound_to 10162
  157.1130  130.6517  149.5903 H   0  0  0  0  0  0  0  0  0  0  0  0  # atno 10718 bound_to 10713
  154.6766  135.5266  153.8208 H   0  0  0  0  0  0  0  0  0  0  0  0  # atno 10763 bound_to 10752
  153.0536  135.6542  154.0641 H   0  0  0  0  0  0  0  0  0  0  0  0  # atno 10764 bound_to 10752
  154.0534  135.2967  155.3316 H   0  0  0  0  0  0  0  0  0  0  0  0  # atno 10765 bound_to 10752
  140.0752  134.5414  155.9004 H   0  0  0  0  0  0  0  0  0  0  0  0  # atno 11005 bound_to 11000
  144.9179  139.4447  143.6555 LP  0  0  0  0  0  0  0  0  0  0  0  0  # atno 17320 bound_to 7965
  146.3187  139.8023  142.8963 LP  0  0  0  0  0  0  0  0  0  0  0  0  # atno 17321 bound_to 7965
  140.2534  144.4144  150.6213 LP  0  0  0  0  0  0  0  0  0  0  0  0  # atno 17342 bound_to 10162
  140.6208  143.2176  151.6697 LP  0  0  0  0  0  0  0  0  0  0  0  0  # atno 17343 bound_to 10162
  155.9846  130.4871  150.6990 LP  0  0  0  0  0  0  0  0  0  0  0  0  # atno 17370 bound_to 10713
  157.4542  131.0876  151.0814 LP  0  0  0  0  0  0  0  0  0  0  0  0  # atno 17371 bound_to 10713
  141.2027  133.6626  156.6019 LP  0  0  0  0  0  0  0  0  0  0  0  0  # atno 17394 bound_to 11000
  140.3568  134.7721  157.4506 LP  0  0  0  0  0  0  0  0  0  0  0  0  # atno 17395 bound_to 11000

$$$$
