AV-unprocessed.smi:708|AV-procd|sdf|3457|dock3
  -GOLD-   22720 0443D 1   1.00000     0.00000
 Structure written by MMmdl.
 42 43  0  0  0  0  0  0  0  0  1 V2000
  146.2408  136.2140  150.5769 O   0  0  0  0  0  0  0  0  0  0  0  0
  145.4308  136.5300  151.4489 C   0  0  0  0  0  0  0  0  0  0  0  0
  144.3024  135.5703  151.8473 C   0  0  0  0  0  0  0  0  0  0  0  0
  144.5811  134.1781  151.4586 N   0  0  0  0  0  0  0  0  0  0  0  0
  143.5991  133.5113  150.6991 C   0  0  0  0  0  0  0  0  0  0  0  0
  143.7541  132.2394  150.2983 C   0  0  0  0  0  0  0  0  0  0  0  0
  144.9686  131.5506  150.6661 C   0  0  0  0  0  0  0  0  0  0  0  0
  145.9162  132.1801  151.3886 C   0  0  0  0  0  0  0  0  0  0  0  0
  145.7529  133.5715  151.8258 C   0  0  0  0  0  0  0  0  0  0  0  0
  146.6161  134.1556  152.4820 O   0  0  0  0  0  0  0  0  0  0  0  0
  145.4630  137.7050  152.0948 N   0  0  0  0  0  0  0  0  0  0  0  0
  146.4796  138.7365  151.9190 C   0  0  0  0  0  0  0  0  0  0  0  0
  147.0348  139.2618  153.2613 C   0  0  0  0  0  0  0  0  0  0  0  0
  148.1273  140.3430  153.0796 C   0  0  0  0  0  0  0  0  0  0  0  0
  148.7350  140.7567  154.4313 C   0  0  0  0  0  0  0  0  0  0  0  0
  149.2671  139.5613  155.0973 N   0  0  0  0  0  0  0  0  0  0  0  0
  150.5978  139.3351  155.2371 C   0  0  0  0  0  0  0  0  0  0  0  0
  151.4399  140.1509  154.8564 O   0  0  0  0  0  0  0  0  0  0  0  0
  151.0929  138.0305  155.8871 C   0  0  0  0  0  0  0  0  0  0  0  0
  150.6063  137.9273  157.1245 F   0  0  0  0  0  0  0  0  0  0  0  0
  150.7135  136.9830  155.1537 F   0  0  0  0  0  0  0  0  0  0  0  0
  152.4252  138.0381  155.9560 F   0  0  0  0  0  0  0  0  0  0  0  0
  148.1926  138.6219  155.4403 C   0  0  0  0  0  0  0  0  0  0  0  0
  147.5535  138.1019  154.1397 C   0  0  0  0  0  0  0  0  0  0  0  0
  144.1265  135.6253  152.9236 H   0  0  0  0  0  0  0  0  0  0  0  0
  143.3791  135.9254  151.3877 H   0  0  0  0  0  0  0  0  0  0  0  0
  142.7234  134.0973  150.4605 H   0  0  0  0  0  0  0  0  0  0  0  0
  142.9923  131.7452  149.7136 H   0  0  0  0  0  0  0  0  0  0  0  0
  145.1187  130.5258  150.3595 H   0  0  0  0  0  0  0  0  0  0  0  0
  146.8184  131.6488  151.6540 H   0  0  0  0  0  0  0  0  0  0  0  0
  144.7517  137.8820  152.7892 H   0  0  0  0  0  0  0  0  0  0  0  0
  147.2889  138.3494  151.2977 H   0  0  0  0  0  0  0  0  0  0  0  0
  146.0273  139.5560  151.3596 H   0  0  0  0  0  0  0  0  0  0  0  0
  146.2115  139.7262  153.8059 H   0  0  0  0  0  0  0  0  0  0  0  0
  148.9161  139.9673  152.4265 H   0  0  0  0  0  0  0  0  0  0  0  0
  147.7129  141.2244  152.5894 H   0  0  0  0  0  0  0  0  0  0  0  0
  149.4891  141.5296  154.2770 H   0  0  0  0  0  0  0  0  0  0  0  0
  147.9712  141.2140  155.0619 H   0  0  0  0  0  0  0  0  0  0  0  0
  148.5211  137.7826  156.0493 H   0  0  0  0  0  0  0  0  0  0  0  0
  147.4433  139.1383  156.0422 H   0  0  0  0  0  0  0  0  0  0  0  0
  146.7352  137.4215  154.3779 H   0  0  0  0  0  0  0  0  0  0  0  0
  148.2891  137.5175  153.5854 H   0  0  0  0  0  0  0  0  0  0  0  0
  1  2  2  0  0  0  0
  2  3  1  0  0  0  0
  2 11  1  0  0  0  0
  3  4  1  0  0  0  0
  3 25  1  0  0  0  0
  3 26  1  0  0  0  0
  4  9  1  0  0  0  0
  4  5  1  0  0  0  0
  5  6  2  0  0  0  0
  5 27  1  0  0  0  0
  6  7  1  0  0  0  0
  6 28  1  0  0  0  0
  7  8  2  0  0  0  0
  7 29  1  0  0  0  0
  8  9  1  0  0  0  0
  8 30  1  0  0  0  0
  9 10  2  0  0  0  0
 11 12  1  0  0  0  0
 11 31  1  0  0  0  0
 12 13  1  0  0  0  0
 12 32  1  0  0  0  0
 12 33  1  0  0  0  0
 13 24  1  0  0  0  0
 13 14  1  0  0  0  0
 13 34  1  0  0  0  0
 14 15  1  0  0  0  0
 14 35  1  0  0  0  0
 14 36  1  0  0  0  0
 15 16  1  0  0  0  0
 15 37  1  0  0  0  0
 15 38  1  0  0  0  0
 16 17  1  0  0  0  0
 16 23  1  0  0  0  0
 17 18  2  0  0  0  0
 17 19  1  0  0  0  0
 19 20  1  0  0  0  0
 19 21  1  0  0  0  0
 19 22  1  0  0  0  0
 23 24  1  0  0  0  0
 23 39  1  0  0  0  0
 23 40  1  0  0  0  0
 24 41  1  0  0  0  0
 24 42  1  0  0  0  0
M  END
> <s_m_source_file>
AV-unprocessed.smi

> <i_m_source_file_index>
708

> <i_lp_mmshare_version>
43012

> <i_f3d_flags>
0

> <s_epik_input>
Tz1jMVtjSF1bY0hdW2NIXVtjSF1uMVtDSDJdQyg9TylbTkhdW0NIMl1bQ0hdMltDSDJdW0NIMl1OKEMoPU8pQyhGKShGKUYpW0NIMl1bQ0gyXTI=

> <s_epik_cmdline>
J2VwaWtfcHl0aG9uJywgJy1waCcsICc3LjAnLCAnLXRuJywgJzgnLCAnLW1hJywgJzIwMCcsICctbWV0YWxfYmluZGluZycsICctaW1hZScsICc8aW5maWxlLm1hZT4nLCAnLW9tYWUnLCAnPG91dGZpbGUubWFlPic=

> <r_lp_tautomer_probability>
1

> <r_epik_Ionization_Penalty>
3.72594e-07

> <r_epik_Ionization_Penalty_Charging>
3.54487e-07

> <r_epik_Ionization_Penalty_Neutral>
1.81071e-08

> <r_epik_State_Penalty>
-0

> <r_epik_Charging_Adjusted_Penalty>
3.54487e-07

> <i_epik_Tot_Q>
0

> <i_epik_Tot_abs_Q>
0

> <r_epik_Metal_State_Penalty>
-0

> <b_epik_Metal_Only>
0

> <s_lp_Force_Field>
OPLS_2005

> <r_lp_Energy>
36.5202

> <b_lp_Chiralities_Consistent>
1

> <s_lp_Variant>
AV-unprocessed.smi:708-1

> <Gold.Version>
5.8.1

> <Gold.Id.Protein>
6NUR|6NUR_protein|mol2

> <Gold.PLP.Fitness>
39.8286

> <Gold.PLP.PLP>
-34.7400

> <Gold.PLP.part.hbond>
-1.8601

> <Gold.PLP.part.metal>
0.0000

> <Gold.PLP.part.buried>
0.8664

> <Gold.PLP.part.nonpolar>
-36.4377

> <Gold.PLP.part.repulsive>
1.6083

> <Gold.PLP.ligand.clash>
0.0000

> <Gold.PLP.ligand.torsion>
0.4075

> <Gold.PLP.Chemscore.Hbond>
0.9588

> <Gold.PLP.Chemscore.CHOScore>
1.0000

> <Gold.PLP.Chemscore.Metal>
0.0000

> <Gold.Chemscore.Hbonds>
donor molecule, donor type, donor heavy atom, donor atom, acceptor molecule, acceptor atom, score
      P1  H  7989  7998       L1    18  1.00
      L1  C     5    27       P1 10186  0.84

> <Gold.PLP.Chemscore.Internal.Correction>
0.0273

> <Gold.Rescore>
     Score         DG    S(hbond)    S(metal)    S(lipo)     H(rot)  DE(clash)    DE(int)     intcor
      8.94     -12.84       0.99        0.00      76.46       1.91       1.58       2.32       ----

> <Gold.Chemscore.Fitness>
8.9406

> <Gold.Chemscore.DG>
-12.8402

> <Gold.Chemscore.ZeroCoef>
-5.4800

> <Gold.Chemscore.Hbond>
0.9886

> <Gold.Chemscore.Metal>
0.0000

> <Gold.Chemscore.Lipo>
76.4613

> <Gold.Chemscore.Internal_Hbond>
0.0000

> <Gold.Chemscore.DEClash>
1.5839

> <Gold.Chemscore.DEInternal>
2.3156

> <Gold.Chemscore.Rot>
1.9093

> <Gold.Chemscore.Internal.Correction>
   9.000000E+99

> <Gold.Chemscore.Hbonds>
donor molecule, donor type, donor heavy atom, donor atom, acceptor molecule, acceptor atom, score
      P1  H  7989  7998       L1    18  0.93

> <Gold.Chemscore.Hbond.Weighted>
-3.3019

> <Gold.Chemscore.Metal.Weighted>
-0.0000

> <Gold.Chemscore.Lipo.Weighted>
-8.9460

> <Gold.Chemscore.Internal_Hbond.Weighted>
0.0000

> <Gold.Chemscore.DEClash.Weighted>
1.5839

> <Gold.Chemscore.DEInternal.Weighted>
2.3156

> <Gold.Chemscore.Rot.Weighted>
4.8877

> <Gold.Chemscore.Internal.Correction.Weighted>
   9.000000E+99

> <Gold.Protein.RotatedTorsions>
[ 6907 6896 6895 6894 ] final  109.35 input  -60.11 | X-H torsion
[ 7974 7965 7964 7962 ] final  -59.03 input  175.53 | X-H torsion
[ 8008 7997 7996 7995 ] final   79.71 input   59.86 | X-H torsion
[ 10167 10162 10161 10158 ] final -113.71 input  -65.29 | X-H torsion
[ 10718 10713 10712 10709 ] final  148.77 input   66.30 | X-H torsion
[ 10763 10752 10751 10750 ] final  -76.97 input  -60.55 | X-H torsion
[ 11005 11000 10999 10996 ] final  -21.75 input  -57.11 | X-H torsion

> <Gold.Protein.ActiveResidues>
 VAL166  LYS551  ARG553  GLY616  TRP617  ASP618  TYR619  PRO620  LYS621  CYS622 
 ASP623  PHE694  ASN695  SER759  ASP760  ASP761  ALA762  ILE779  LEU786  VAL792 
 PHE793  MET794  SER795  GLU796  ALA797  LYS798  CYS799  TRP800  GLU811  SER814 

> <Gold.Protein.RotatedAtoms>
  152.5071  133.8956  159.7415 H   0  0  0  0  0  0  0  0  0  0  0  0  # atno 6907 bound_to 6896
  150.9384  133.6676  159.2802 H   0  0  0  0  0  0  0  0  0  0  0  0  # atno 6908 bound_to 6896
  151.3996  135.0974  159.9604 H   0  0  0  0  0  0  0  0  0  0  0  0  # atno 6909 bound_to 6896
  145.8323  140.8471  143.0077 H   0  0  0  0  0  0  0  0  0  0  0  0  # atno 7974 bound_to 7965
  155.8735  140.3448  155.5837 H   0  0  0  0  0  0  0  0  0  0  0  0  # atno 8008 bound_to 7997
  155.7801  140.0857  157.2083 H   0  0  0  0  0  0  0  0  0  0  0  0  # atno 8009 bound_to 7997
  154.4019  140.1502  156.3029 H   0  0  0  0  0  0  0  0  0  0  0  0  # atno 8010 bound_to 7997
  140.1089  143.4545  152.1765 H   0  0  0  0  0  0  0  0  0  0  0  0  # atno 10167 bound_to 10162
  157.3045  131.0877  151.1364 H   0  0  0  0  0  0  0  0  0  0  0  0  # atno 10718 bound_to 10713
  154.5068  135.5780  153.6574 H   0  0  0  0  0  0  0  0  0  0  0  0  # atno 10763 bound_to 10752
  152.9889  135.6149  154.2930 H   0  0  0  0  0  0  0  0  0  0  0  0  # atno 10764 bound_to 10752
  154.2842  135.2850  155.2663 H   0  0  0  0  0  0  0  0  0  0  0  0  # atno 10765 bound_to 10752
  140.8591  133.7801  156.0054 H   0  0  0  0  0  0  0  0  0  0  0  0  # atno 11005 bound_to 11000
  144.6739  140.0690  143.7473 LP  0  0  0  0  0  0  0  0  0  0  0  0  # atno 17320 bound_to 7965
  145.9557  139.2765  143.1185 LP  0  0  0  0  0  0  0  0  0  0  0  0  # atno 17321 bound_to 7965
  139.5630  144.7417  151.4102 LP  0  0  0  0  0  0  0  0  0  0  0  0  # atno 17342 bound_to 10162
  140.6936  143.7802  150.7293 LP  0  0  0  0  0  0  0  0  0  0  0  0  # atno 17343 bound_to 10162
  157.2711  130.6704  149.6020 LP  0  0  0  0  0  0  0  0  0  0  0  0  # atno 17370 bound_to 10713
  155.9673  130.4479  150.5598 LP  0  0  0  0  0  0  0  0  0  0  0  0  # atno 17371 bound_to 10713
  140.8703  134.2735  157.5194 LP  0  0  0  0  0  0  0  0  0  0  0  0  # atno 17394 bound_to 11000
  139.8706  134.9564  156.4235 LP  0  0  0  0  0  0  0  0  0  0  0  0  # atno 17395 bound_to 11000

$$$$
