AV-unprocessed.smi:819|AV-procd|sdf|3834|dock10
  -GOLD-   22720 1273D 1   1.00000     0.00000
 Structure written by MMmdl.
 40 41  0  0  0  0  0  0  0  0  1 V2000
  150.4509  133.3096  154.9053 C   0  0  0  0  0  0  0  0  0  0  0  0
  149.4243  134.4538  154.9593 C   0  0  2  0  0  0  0  0  0  0  0  0
  148.6807  134.4613  153.7005 N   0  0  0  0  0  0  0  0  0  0  0  0
  147.6443  133.6586  153.4143 C   0  0  0  0  0  0  0  0  0  0  0  0
  147.2225  132.7969  154.1856 O   0  0  0  0  0  0  0  0  0  0  0  0
  147.1291  133.9405  152.2054 N   0  0  0  0  0  0  0  0  0  0  0  0
  146.0234  133.3302  151.5537 C   0  0  0  0  0  0  0  0  0  0  0  0
  145.6534  132.0306  151.9566 C   0  0  0  0  0  0  0  0  0  0  0  0
  144.5526  131.4076  151.3383 C   0  0  0  0  0  0  0  0  0  0  0  0
  143.8548  132.1166  150.3417 C   0  0  0  0  0  0  0  0  0  0  0  0
  144.1848  133.3666  149.9546 N   0  0  0  0  0  0  0  0  0  0  0  0
  145.2429  133.9577  150.5508 C   0  0  0  0  0  0  0  0  0  0  0  0
  150.1769  135.7822  155.1334 C   0  0  0  0  0  0  0  0  0  0  0  0
  150.8685  135.9829  156.1332 O   0  0  0  0  0  0  0  0  0  0  0  0
  150.0348  136.6773  154.1445 N   0  0  0  0  0  0  0  0  0  0  0  0
  150.6915  137.9800  154.0896 C   0  0  0  0  0  0  0  0  0  0  0  0
  152.2176  137.8298  154.2420 C   0  0  0  0  0  0  0  0  0  0  0  0
  152.6422  138.8601  155.2899 C   0  0  0  0  0  0  0  0  0  0  0  0
  151.4252  138.9968  156.1988 C   0  0  0  0  0  0  0  0  0  0  0  0
  150.2344  138.8938  155.2459 C   0  0  0  0  0  0  0  0  0  0  0  0
  151.0427  133.2661  155.8206 H   0  0  0  0  0  0  0  0  0  0  0  0
  151.1414  133.4191  154.0674 H   0  0  0  0  0  0  0  0  0  0  0  0
  149.9527  132.3458  154.7965 H   0  0  0  0  0  0  0  0  0  0  0  0
  148.7407  134.2894  155.7947 H   0  0  0  0  0  0  0  0  0  0  0  0
  148.9562  135.1484  153.0144 H   0  0  0  0  0  0  0  0  0  0  0  0
  147.5333  134.7307  151.7244 H   0  0  0  0  0  0  0  0  0  0  0  0
  146.2075  131.5129  152.7261 H   0  0  0  0  0  0  0  0  0  0  0  0
  144.2497  130.4105  151.6216 H   0  0  0  0  0  0  0  0  0  0  0  0
  143.0052  131.6703  149.8464 H   0  0  0  0  0  0  0  0  0  0  0  0
  145.4409  134.9643  150.2174 H   0  0  0  0  0  0  0  0  0  0  0  0
  149.4504  136.4272  153.3601 H   0  0  0  0  0  0  0  0  0  0  0  0
  150.4667  138.4596  153.1349 H   0  0  0  0  0  0  0  0  0  0  0  0
  152.4719  136.8328  154.6054 H   0  0  0  0  0  0  0  0  0  0  0  0
  152.7422  137.9702  153.2963 H   0  0  0  0  0  0  0  0  0  0  0  0
  153.5405  138.5627  155.8317 H   0  0  0  0  0  0  0  0  0  0  0  0
  152.8457  139.8157  154.8050 H   0  0  0  0  0  0  0  0  0  0  0  0
  151.4012  138.1687  156.9085 H   0  0  0  0  0  0  0  0  0  0  0  0
  151.4273  139.9258  156.7696 H   0  0  0  0  0  0  0  0  0  0  0  0
  150.0043  139.8837  154.8501 H   0  0  0  0  0  0  0  0  0  0  0  0
  149.3374  138.5392  155.7556 H   0  0  0  0  0  0  0  0  0  0  0  0
  1  2  1  0  0  0  0
  1 21  1  0  0  0  0
  1 22  1  0  0  0  0
  1 23  1  0  0  0  0
  2  3  1  0  0  0  0
  2 13  1  0  0  0  0
  2 24  1  0  0  0  0
  3  4  1  0  0  0  0
  3 25  1  0  0  0  0
  4  5  2  0  0  0  0
  4  6  1  0  0  0  0
  6  7  1  0  0  0  0
  6 26  1  0  0  0  0
  7 12  1  0  0  0  0
  7  8  2  0  0  0  0
  8  9  1  0  0  0  0
  8 27  1  0  0  0  0
  9 10  2  0  0  0  0
  9 28  1  0  0  0  0
 10 11  1  0  0  0  0
 10 29  1  0  0  0  0
 11 12  2  0  0  0  0
 12 30  1  0  0  0  0
 13 14  2  0  0  0  0
 13 15  1  0  0  0  0
 15 16  1  0  0  0  0
 15 31  1  0  0  0  0
 16 20  1  0  0  0  0
 16 17  1  0  0  0  0
 16 32  1  0  0  0  0
 17 18  1  0  0  0  0
 17 33  1  0  0  0  0
 17 34  1  0  0  0  0
 18 19  1  0  0  0  0
 18 35  1  0  0  0  0
 18 36  1  0  0  0  0
 19 20  1  0  0  0  0
 19 37  1  0  0  0  0
 19 38  1  0  0  0  0
 20 39  1  0  0  0  0
 20 40  1  0  0  0  0
M  END
> <s_m_source_file>
AV-unprocessed.smi

> <i_m_source_file_index>
819

> <i_lp_mmshare_version>
43012

> <i_f3d_flags>
0

> <s_epik_input>
W0NIMl0xW0NIMl1bQ0gyXVtDSDJdW0NIXTFbTkhdQyg9TylbQ0BIXShbQ0gzXSlbTkhdQyg9TylbTkhdYzJbY0hdW2NIXVtjSF1uW2NIXTI=

> <s_epik_cmdline>
J2VwaWtfcHl0aG9uJywgJy1waCcsICc3LjAnLCAnLXRuJywgJzgnLCAnLW1hJywgJzIwMCcsICctbWV0YWxfYmluZGluZycsICctaW1hZScsICc8aW5maWxlLm1hZT4nLCAnLW9tYWUnLCAnPG91dGZpbGUubWFlPic=

> <r_epik_Ionization_Penalty>
0.00416979

> <r_epik_Ionization_Penalty_Charging>
0

> <r_epik_Ionization_Penalty_Neutral>
0.00416979

> <r_epik_State_Penalty>
0.00297037

> <r_epik_Charging_Adjusted_Penalty>
0.00297037

> <i_epik_Tot_Q>
0

> <i_epik_Tot_abs_Q>
0

> <r_epik_Metal_State_Penalty>
-0

> <b_epik_Metal_Only>
0

> <s_lp_Force_Field>
OPLS_2005

> <r_lp_Energy>
20.2836

> <b_lp_Chiralities_Consistent>
1

> <s_lp_Variant>
AV-unprocessed.smi:819-1

> <Gold.Version>
5.8.1

> <Gold.Id.Protein>
6NUR|6NUR_protein|mol2

> <Gold.PLP.Fitness>
45.5266

> <Gold.PLP.PLP>
-33.2225

> <Gold.PLP.part.hbond>
-3.7208

> <Gold.PLP.part.metal>
0.0000

> <Gold.PLP.part.buried>
-2.8814

> <Gold.PLP.part.nonpolar>
-28.0723

> <Gold.PLP.part.repulsive>
0.3235

> <Gold.PLP.ligand.clash>
0.0000

> <Gold.PLP.ligand.torsion>
0.4363

> <Gold.PLP.Chemscore.Hbond>
2.8873

> <Gold.PLP.Chemscore.CHOScore>
1.5020

> <Gold.PLP.Chemscore.Metal>
0.0000

> <Gold.Chemscore.Hbonds>
donor molecule, donor type, donor heavy atom, donor atom, acceptor molecule, acceptor atom, score
      L1  H     3    25       P1  7948  1.00
      L1  H     6    26       P1  7948  0.90
      L1  H    15    31       P1  7948  1.00
      L1  C    10    29       P1 10952  0.90
      L1  C    12    30       P1  7921  0.35

> <Gold.PLP.Chemscore.Internal.Correction>
0.0089

> <Gold.Rescore>
     Score         DG    S(hbond)    S(metal)    S(lipo)     H(rot)  DE(clash)    DE(int)     intcor
     15.93     -19.53       2.69        0.00      76.56       1.52       0.00       3.61       ----

> <Gold.Chemscore.Fitness>
15.9267

> <Gold.Chemscore.DG>
-19.5350

> <Gold.Chemscore.ZeroCoef>
-5.4800

> <Gold.Chemscore.Hbond>
2.6933

> <Gold.Chemscore.Metal>
0.0000

> <Gold.Chemscore.Lipo>
76.5557

> <Gold.Chemscore.Internal_Hbond>
0.0000

> <Gold.Chemscore.DEClash>
0.0000

> <Gold.Chemscore.DEInternal>
3.6083

> <Gold.Chemscore.Rot>
1.5225

> <Gold.Chemscore.Internal.Correction>
   9.000000E+99

> <Gold.Chemscore.Hbonds>
donor molecule, donor type, donor heavy atom, donor atom, acceptor molecule, acceptor atom, score
      L1  H     3    25       P1  7948  0.24
      L1  H     6    26       P1  7948  0.42
      L1  H    15    31       P1  7948  0.67

> <Gold.Chemscore.Hbond.Weighted>
-8.9957

> <Gold.Chemscore.Metal.Weighted>
-0.0000

> <Gold.Chemscore.Lipo.Weighted>
-8.9570

> <Gold.Chemscore.Internal_Hbond.Weighted>
0.0000

> <Gold.Chemscore.DEClash.Weighted>
0.0000

> <Gold.Chemscore.DEInternal.Weighted>
3.6083

> <Gold.Chemscore.Rot.Weighted>
3.8977

> <Gold.Chemscore.Internal.Correction.Weighted>
   9.000000E+99

> <Gold.Protein.RotatedTorsions>
[ 6907 6896 6895 6894 ] final   13.61 input  -60.11 | X-H torsion
[ 7974 7965 7964 7962 ] final  -48.55 input  175.53 | X-H torsion
[ 8008 7997 7996 7995 ] final  -37.40 input   59.86 | X-H torsion
[ 10167 10162 10161 10158 ] final  -50.31 input  -65.29 | X-H torsion
[ 10718 10713 10712 10709 ] final  -99.03 input   66.30 | X-H torsion
[ 10763 10752 10751 10750 ] final  173.11 input  -60.55 | X-H torsion
[ 11005 11000 10999 10996 ] final   68.86 input  -57.11 | X-H torsion

> <Gold.Protein.ActiveResidues>
 VAL166  LYS551  ARG553  GLY616  TRP617  ASP618  TYR619  PRO620  LYS621  CYS622 
 ASP623  PHE694  ASN695  SER759  ASP760  ASP761  ALA762  ILE779  LEU786  VAL792 
 PHE793  MET794  SER795  GLU796  ALA797  LYS798  CYS799  TRP800  GLU811  SER814 

> <Gold.Protein.RotatedAtoms>
  151.7891  135.0741  160.0384 H   0  0  0  0  0  0  0  0  0  0  0  0  # atno 6907 bound_to 6896
  152.3169  133.5808  159.5727 H   0  0  0  0  0  0  0  0  0  0  0  0  # atno 6908 bound_to 6896
  150.7349  133.9985  159.3672 H   0  0  0  0  0  0  0  0  0  0  0  0  # atno 6909 bound_to 6896
  145.9499  140.7582  142.9510 H   0  0  0  0  0  0  0  0  0  0  0  0  # atno 7974 bound_to 7965
  154.4054  140.1605  156.2530 H   0  0  0  0  0  0  0  0  0  0  0  0  # atno 8008 bound_to 7997
  155.9102  140.3428  155.6070 H   0  0  0  0  0  0  0  0  0  0  0  0  # atno 8009 bound_to 7997
  155.7345  140.0784  157.2264 H   0  0  0  0  0  0  0  0  0  0  0  0  # atno 8010 bound_to 7997
  140.6644  143.2663  151.4340 H   0  0  0  0  0  0  0  0  0  0  0  0  # atno 10167 bound_to 10162
  156.0123  130.5264  150.6611 H   0  0  0  0  0  0  0  0  0  0  0  0  # atno 10718 bound_to 10713
  154.4355  135.2761  155.1883 H   0  0  0  0  0  0  0  0  0  0  0  0  # atno 10763 bound_to 10752
  154.3771  135.6096  153.5774 H   0  0  0  0  0  0  0  0  0  0  0  0  # atno 10764 bound_to 10752
  152.9838  135.5871  154.4674 H   0  0  0  0  0  0  0  0  0  0  0  0  # atno 10765 bound_to 10752
  139.9687  134.6938  156.0492 H   0  0  0  0  0  0  0  0  0  0  0  0  # atno 11005 bound_to 11000
  144.6794  140.2418  143.7343 LP  0  0  0  0  0  0  0  0  0  0  0  0  # atno 17320 bound_to 7965
  145.8185  139.2033  143.1952 LP  0  0  0  0  0  0  0  0  0  0  0  0  # atno 17321 bound_to 7965
  139.5887  144.1546  152.2062 LP  0  0  0  0  0  0  0  0  0  0  0  0  # atno 17342 bound_to 10162
  140.0894  144.5633  150.7065 LP  0  0  0  0  0  0  0  0  0  0  0  0  # atno 17343 bound_to 10162
  157.4353  131.0854  151.0998 LP  0  0  0  0  0  0  0  0  0  0  0  0  # atno 17370 bound_to 10713
  157.1559  130.6204  149.5596 LP  0  0  0  0  0  0  0  0  0  0  0  0  # atno 17371 bound_to 10713
  141.1366  133.6573  156.3612 LP  0  0  0  0  0  0  0  0  0  0  0  0  # atno 17394 bound_to 11000
  140.5341  134.6184  157.5359 LP  0  0  0  0  0  0  0  0  0  0  0  0  # atno 17395 bound_to 11000

$$$$
