AV-unprocessed.smi:1365|AV-procd|sdf|5568|dock4
  -GOLD-   22720 5163D 1   1.00000     0.00000
 Structure written by MMmdl.
 42 43  0  0  0  0  0  0  0  0  2 V2000
  151.4238  141.0526  156.4783 C   0  0  0  0  0  0  0  0  0  0  0  0
  151.4282  139.7657  155.7261 C   0  0  0  0  0  0  0  0  0  0  0  0
  150.4452  138.8710  155.4082 C   0  0  0  0  0  0  0  0  0  0  0  0
  151.1468  137.8668  154.6895 C   0  0  0  0  0  0  0  0  0  0  0  0
  150.4707  136.7290  154.1792 N   0  0  0  0  0  0  0  0  0  0  0  0
  150.5912  135.4543  154.5879 C   0  0  0  0  0  0  0  0  0  0  0  0
  151.3425  135.0629  155.4818 O   0  0  0  0  0  0  0  0  0  0  0  0
  149.7768  134.6405  153.8998 N   0  0  0  0  0  0  0  0  0  0  0  0
  149.6306  133.2095  154.1415 C   0  0  0  0  0  0  0  0  0  0  0  0
  148.5538  132.5813  153.2413 C   0  0  0  0  0  0  0  0  0  0  0  0
  147.2247  133.3530  153.3038 C   0  0  0  0  0  0  0  0  0  0  0  0
  146.5033  133.3429  152.0062 N   0  3  0  0  0  0  0  0  0  0  0  0
  146.3117  131.9660  151.4786 C   0  0  0  0  0  0  0  0  0  0  0  0
  145.6842  131.9885  150.0742 C   0  0  0  0  0  0  0  0  0  0  0  0
  144.3572  132.7579  150.0779 C   0  0  0  0  0  0  0  0  0  0  0  0
  144.5710  134.1636  150.6537 C   0  0  0  0  0  0  0  0  0  0  0  0
  145.2208  134.0963  152.0460 C   0  0  0  0  0  0  0  0  0  0  0  0
  152.4399  138.1276  154.5737 N   0  0  0  0  0  0  0  0  0  0  0  0
  152.6270  139.3455  155.2382 O   0  0  0  0  0  0  0  0  0  0  0  0
  150.4201  141.4760  156.5190 H   0  0  0  0  0  0  0  0  0  0  0  0
  152.0786  141.7832  156.0028 H   0  0  0  0  0  0  0  0  0  0  0  0
  151.7699  140.9021  157.5011 H   0  0  0  0  0  0  0  0  0  0  0  0
  149.3956  138.9266  155.6570 H   0  0  0  0  0  0  0  0  0  0  0  0
  149.8087  136.9090  153.4389 H   0  0  0  0  0  0  0  0  0  0  0  0
  149.1965  135.0442  153.1789 H   0  0  0  0  0  0  0  0  0  0  0  0
  150.5908  132.7114  153.9963 H   0  0  0  0  0  0  0  0  0  0  0  0
  149.3654  133.0696  155.1898 H   0  0  0  0  0  0  0  0  0  0  0  0
  148.9276  132.5438  152.2182 H   0  0  0  0  0  0  0  0  0  0  0  0
  148.3784  131.5482  153.5444 H   0  0  0  0  0  0  0  0  0  0  0  0
  146.6011  132.8799  154.0637 H   0  0  0  0  0  0  0  0  0  0  0  0
  147.3841  134.3804  153.6348 H   0  0  0  0  0  0  0  0  0  0  0  0
  147.2729  131.4524  151.4295 H   0  0  0  0  0  0  0  0  0  0  0  0
  145.6816  131.3964  152.1637 H   0  0  0  0  0  0  0  0  0  0  0  0
  146.3763  132.4536  149.3708 H   0  0  0  0  0  0  0  0  0  0  0  0
  145.5228  130.9696  149.7207 H   0  0  0  0  0  0  0  0  0  0  0  0
  143.9537  132.8206  149.0668 H   0  0  0  0  0  0  0  0  0  0  0  0
  143.6204  132.2210  150.6767 H   0  0  0  0  0  0  0  0  0  0  0  0
  145.2047  134.7434  149.9814 H   0  0  0  0  0  0  0  0  0  0  0  0
  143.6181  134.6906  150.7124 H   0  0  0  0  0  0  0  0  0  0  0  0
  144.5395  133.6192  152.7526 H   0  0  0  0  0  0  0  0  0  0  0  0
  145.3877  135.1107  152.4064 H   0  0  0  0  0  0  0  0  0  0  0  0
  147.1030  133.8140  151.3436 H   0  0  0  0  0  0  0  0  0  0  0  0
  1  2  1  0  0  0  0
  1 20  1  0  0  0  0
  1 21  1  0  0  0  0
  1 22  1  0  0  0  0
  2 19  1  0  0  0  0
  2  3  2  0  0  0  0
  3  4  1  0  0  0  0
  3 23  1  0  0  0  0
  4  5  1  0  0  0  0
  4 18  2  0  0  0  0
  5  6  1  0  0  0  0
  5 24  1  0  0  0  0
  6  7  2  0  0  0  0
  6  8  1  0  0  0  0
  8  9  1  0  0  0  0
  8 25  1  0  0  0  0
  9 10  1  0  0  0  0
  9 26  1  0  0  0  0
  9 27  1  0  0  0  0
 10 11  1  0  0  0  0
 10 28  1  0  0  0  0
 10 29  1  0  0  0  0
 11 12  1  0  0  0  0
 11 30  1  0  0  0  0
 11 31  1  0  0  0  0
 12 17  1  0  0  0  0
 12 13  1  0  0  0  0
 12 42  1  0  0  0  0
 13 14  1  0  0  0  0
 13 32  1  0  0  0  0
 13 33  1  0  0  0  0
 14 15  1  0  0  0  0
 14 34  1  0  0  0  0
 14 35  1  0  0  0  0
 15 16  1  0  0  0  0
 15 36  1  0  0  0  0
 15 37  1  0  0  0  0
 16 17  1  0  0  0  0
 16 38  1  0  0  0  0
 16 39  1  0  0  0  0
 17 40  1  0  0  0  0
 17 41  1  0  0  0  0
 18 19  1  0  0  0  0
M  CHG  1  12   1
M  END
> <s_m_source_file>
AV-unprocessed.smi

> <i_m_source_file_index>
1365

> <i_lp_mmshare_version>
43012

> <i_f3d_flags>
0

> <s_epik_input>
W0NIM11jMVtjSF1jKG5vMSlbTkhdQyg9TylbTkhdW0NIMl1bQ0gyXVtDSDJdTjJbQ0gyXVtDSDJdW0NIMl1bQ0gyXVtDSDJdMg==

> <s_epik_cmdline>
J2VwaWtfcHl0aG9uJywgJy1waCcsICc3LjAnLCAnLXRuJywgJzgnLCAnLW1hJywgJzIwMCcsICctbWV0YWxfYmluZGluZycsICctaW1hZScsICc8aW5maWxlLm1hZT4nLCAnLW9tYWUnLCAnPG91dGZpbGUubWFlPic=

> <r_epik_Ionization_Penalty>
0.000389345

> <r_epik_Ionization_Penalty_Charging>
0.000358942

> <r_epik_Ionization_Penalty_Neutral>
3.04028e-05

> <r_epik_State_Penalty>
0.000218395

> <r_epik_Charging_Adjusted_Penalty>
0.000577337

> <i_epik_Tot_Q>
1

> <i_epik_Tot_abs_Q>
1

> <r_epik_Metal_State_Penalty>
0.0112716

> <b_epik_Metal_Only>
0

> <s_lp_Force_Field>
OPLS_2005

> <r_lp_Energy>
13.5089

> <b_lp_Chiralities_Consistent>
1

> <s_lp_Variant>
AV-unprocessed.smi:1365-1

> <Gold.Version>
5.8.1

> <Gold.Id.Protein>
6NUR|6NUR_protein|mol2

> <Gold.PLP.Fitness>
45.7244

> <Gold.PLP.PLP>
-36.1413

> <Gold.PLP.part.hbond>
-6.2846

> <Gold.PLP.part.metal>
0.0000

> <Gold.PLP.part.buried>
-3.1709

> <Gold.PLP.part.nonpolar>
-26.4159

> <Gold.PLP.part.repulsive>
0.2488

> <Gold.PLP.ligand.clash>
0.0000

> <Gold.PLP.ligand.torsion>
0.9139

> <Gold.PLP.Chemscore.Hbond>
3.7940

> <Gold.PLP.Chemscore.CHOScore>
0.0000

> <Gold.PLP.Chemscore.Metal>
0.0000

> <Gold.Chemscore.Hbonds>
donor molecule, donor type, donor heavy atom, donor atom, acceptor molecule, acceptor atom, score
      L1  H     5    24       P1  7948  0.91
      L1  H     8    25       P1  7948  0.69
      P1  H  7997  8010       L1    19  0.81
      P1  H 10752 10763       L1     7  0.88

> <Gold.PLP.Chemscore.Internal.Correction>
0.0288

> <Gold.Rescore>
     Score         DG    S(hbond)    S(metal)    S(lipo)     H(rot)  DE(clash)    DE(int)     intcor
     16.55     -17.62       2.49        0.00      72.55       1.82       0.32       0.75       ----

> <Gold.Chemscore.Fitness>
16.5493

> <Gold.Chemscore.DG>
-17.6233

> <Gold.Chemscore.ZeroCoef>
-5.4800

> <Gold.Chemscore.Hbond>
2.4892

> <Gold.Chemscore.Metal>
0.0000

> <Gold.Chemscore.Lipo>
72.5514

> <Gold.Chemscore.Internal_Hbond>
0.0000

> <Gold.Chemscore.DEClash>
0.3210

> <Gold.Chemscore.DEInternal>
0.7529

> <Gold.Chemscore.Rot>
1.8201

> <Gold.Chemscore.Internal.Correction>
   9.000000E+99

> <Gold.Chemscore.Hbonds>
donor molecule, donor type, donor heavy atom, donor atom, acceptor molecule, acceptor atom, score
      L1  H     5    24       P1  7948  0.39
      L1  H     8    25       P1  7948  0.07
      P1  H  7997  8010       L1    19  0.77
      P1  H 10752 10763       L1     7  0.52

> <Gold.Chemscore.Hbond.Weighted>
-8.3141

> <Gold.Chemscore.Metal.Weighted>
-0.0000

> <Gold.Chemscore.Lipo.Weighted>
-8.4885

> <Gold.Chemscore.Internal_Hbond.Weighted>
0.0000

> <Gold.Chemscore.DEClash.Weighted>
0.3210

> <Gold.Chemscore.DEInternal.Weighted>
0.7529

> <Gold.Chemscore.Rot.Weighted>
4.6593

> <Gold.Chemscore.Internal.Correction.Weighted>
   9.000000E+99

> <Gold.Protein.RotatedTorsions>
[ 6907 6896 6895 6894 ] final -125.93 input  -60.11 | X-H torsion
[ 7974 7965 7964 7962 ] final   69.63 input  175.53 | X-H torsion
[ 8008 7997 7996 7995 ] final   91.55 input   59.86 | X-H torsion
[ 10167 10162 10161 10158 ] final   35.88 input  -65.29 | X-H torsion
[ 10718 10713 10712 10709 ] final  -85.89 input   66.30 | X-H torsion
[ 10763 10752 10751 10750 ] final   82.56 input  -60.55 | X-H torsion
[ 11005 11000 10999 10996 ] final   -9.77 input  -57.11 | X-H torsion

> <Gold.Protein.ActiveResidues>
 VAL166  LYS551  ARG553  GLY616  TRP617  ASP618  TYR619  PRO620  LYS621  CYS622 
 ASP623  PHE694  ASN695  SER759  ASP760  ASP761  ALA762  ILE779  LEU786  VAL792 
 PHE793  MET794  SER795  GLU796  ALA797  LYS798  CYS799  TRP800  GLU811  SER814 

> <Gold.Protein.RotatedAtoms>
  150.8918  133.7233  159.2902 H   0  0  0  0  0  0  0  0  0  0  0  0  # atno 6907 bound_to 6896
  151.4781  135.1049  159.9780 H   0  0  0  0  0  0  0  0  0  0  0  0  # atno 6908 bound_to 6896
  152.4824  133.8241  159.7124 H   0  0  0  0  0  0  0  0  0  0  0  0  # atno 6909 bound_to 6896
  145.7881  139.2920  143.1226 H   0  0  0  0  0  0  0  0  0  0  0  0  # atno 7974 bound_to 7965
  156.0251  140.3336  155.7080 H   0  0  0  0  0  0  0  0  0  0  0  0  # atno 8008 bound_to 7997
  155.5966  140.0651  157.2762 H   0  0  0  0  0  0  0  0  0  0  0  0  # atno 8009 bound_to 7997
  154.4331  140.1818  156.1118 H   0  0  0  0  0  0  0  0  0  0  0  0  # atno 8010 bound_to 7997
  140.4180  144.1499  150.6145 H   0  0  0  0  0  0  0  0  0  0  0  0  # atno 10167 bound_to 10162
  155.9993  130.4746  150.4631 H   0  0  0  0  0  0  0  0  0  0  0  0  # atno 10718 bound_to 10713
  153.1213  135.4724  154.9200 H   0  0  0  0  0  0  0  0  0  0  0  0  # atno 10763 bound_to 10752
  154.7578  135.3123  154.8438 H   0  0  0  0  0  0  0  0  0  0  0  0  # atno 10764 bound_to 10752
  153.9002  135.6876  153.4809 H   0  0  0  0  0  0  0  0  0  0  0  0  # atno 10765 bound_to 10752
  140.7377  133.8696  155.8942 H   0  0  0  0  0  0  0  0  0  0  0  0  # atno 11005 bound_to 11000
  146.0005  140.8524  143.0021 LP  0  0  0  0  0  0  0  0  0  0  0  0  # atno 17320 bound_to 7965
  144.6786  140.2345  143.7351 LP  0  0  0  0  0  0  0  0  0  0  0  0  # atno 17321 bound_to 7965
  140.4565  143.2466  151.9278 LP  0  0  0  0  0  0  0  0  0  0  0  0  # atno 17342 bound_to 10162
  139.4782  144.5510  151.8385 LP  0  0  0  0  0  0  0  0  0  0  0  0  # atno 17343 bound_to 10162
  157.2653  131.0575  151.2294 LP  0  0  0  0  0  0  0  0  0  0  0  0  # atno 17370 bound_to 10713
  157.3394  130.7025  149.6372 LP  0  0  0  0  0  0  0  0  0  0  0  0  # atno 17371 bound_to 10713
  140.9865  134.1336  157.4447 LP  0  0  0  0  0  0  0  0  0  0  0  0  # atno 17394 bound_to 11000
  139.8813  135.0027  156.6142 LP  0  0  0  0  0  0  0  0  0  0  0  0  # atno 17395 bound_to 11000

$$$$
