AV-unprocessed.smi:1336|AV-procd|sdf|5496|dock5
  -GOLD-   22720 5 73D 1   1.00000     0.00000
 Structure written by MMmdl.
 43 43  0  0  0  0  0  0  0  0  1 V2000
  152.2126  145.2312  159.2330 C   0  0  0  0  0  0  0  0  0  0  0  0
  151.0696  144.5962  158.4287 C   0  0  0  0  0  0  0  0  0  0  0  0
  151.5338  143.4869  157.4716 C   0  0  0  0  0  0  0  0  0  0  0  0
  150.4124  142.9393  156.7154 N   0  0  0  0  0  0  0  0  0  0  0  0
  150.0148  141.6581  156.7214 C   0  0  0  0  0  0  0  0  0  0  0  0
  150.5756  140.7760  157.3745 O   0  0  0  0  0  0  0  0  0  0  0  0
  148.7762  141.3346  155.8690 C   0  0  2  0  0  0  0  0  0  0  0  0
  149.1688  141.4817  154.3896 C   0  0  0  0  0  0  0  0  0  0  0  0
  147.7065  142.2890  156.1495 N   0  0  0  0  0  0  0  0  0  0  0  0
  146.4557  141.9691  156.5222 C   0  0  0  0  0  0  0  0  0  0  0  0
  146.0435  140.8107  156.5813 O   0  0  0  0  0  0  0  0  0  0  0  0
  145.5289  143.1314  156.8928 C   0  0  0  0  0  0  0  0  0  0  0  0
  145.5115  143.3442  158.3815 C   0  0  0  0  0  0  0  0  0  0  0  0
  146.6015  143.4756  159.2060 C   0  0  0  0  0  0  0  0  0  0  0  0
  146.1367  143.6537  160.8755 S   0  0  0  0  0  0  0  0  0  0  0  0
  144.4489  143.5494  160.3871 C   0  0  0  0  0  0  0  0  0  0  0  0
  143.3088  143.6024  161.3538 C   0  0  0  0  0  0  0  0  0  0  0  0
  142.2630  144.6522  160.9490 C   0  0  0  0  0  0  0  0  0  0  0  0
  143.7870  143.7559  162.8047 C   0  0  0  0  0  0  0  0  0  0  0  0
  144.2939  143.4090  159.0676 N   0  0  0  0  0  0  0  0  0  0  0  0
  151.8398  146.0403  159.8615 H   0  0  0  0  0  0  0  0  0  0  0  0
  152.9744  145.6464  158.5728 H   0  0  0  0  0  0  0  0  0  0  0  0
  152.6952  144.5034  159.8857 H   0  0  0  0  0  0  0  0  0  0  0  0
  150.3202  144.2001  159.1149 H   0  0  0  0  0  0  0  0  0  0  0  0
  150.5695  145.3743  157.8510 H   0  0  0  0  0  0  0  0  0  0  0  0
  152.2553  143.8920  156.7617 H   0  0  0  0  0  0  0  0  0  0  0  0
  152.0566  142.7136  158.0367 H   0  0  0  0  0  0  0  0  0  0  0  0
  149.8890  143.5903  156.1484 H   0  0  0  0  0  0  0  0  0  0  0  0
  148.4353  140.3152  156.0612 H   0  0  0  0  0  0  0  0  0  0  0  0
  149.9681  140.7896  154.1213 H   0  0  0  0  0  0  0  0  0  0  0  0
  149.5109  142.4916  154.1576 H   0  0  0  0  0  0  0  0  0  0  0  0
  148.3210  141.2640  153.7392 H   0  0  0  0  0  0  0  0  0  0  0  0
  147.9572  143.2669  156.1327 H   0  0  0  0  0  0  0  0  0  0  0  0
  145.8697  144.0291  156.3758 H   0  0  0  0  0  0  0  0  0  0  0  0
  144.5225  142.9251  156.5266 H   0  0  0  0  0  0  0  0  0  0  0  0
  147.6469  143.4643  158.9355 H   0  0  0  0  0  0  0  0  0  0  0  0
  142.8113  142.6337  161.2946 H   0  0  0  0  0  0  0  0  0  0  0  0
  141.8885  144.4649  159.9421 H   0  0  0  0  0  0  0  0  0  0  0  0
  142.6841  145.6582  160.9638 H   0  0  0  0  0  0  0  0  0  0  0  0
  141.4098  144.6392  161.6275 H   0  0  0  0  0  0  0  0  0  0  0  0
  144.4692  142.9509  163.0799 H   0  0  0  0  0  0  0  0  0  0  0  0
  142.9472  143.7292  163.4996 H   0  0  0  0  0  0  0  0  0  0  0  0
  144.3098  144.7014  162.9519 H   0  0  0  0  0  0  0  0  0  0  0  0
  1  2  1  0  0  0  0
  1 21  1  0  0  0  0
  1 22  1  0  0  0  0
  1 23  1  0  0  0  0
  2  3  1  0  0  0  0
  2 24  1  0  0  0  0
  2 25  1  0  0  0  0
  3  4  1  0  0  0  0
  3 26  1  0  0  0  0
  3 27  1  0  0  0  0
  4  5  1  0  0  0  0
  4 28  1  0  0  0  0
  5  6  2  0  0  0  0
  5  7  1  0  0  0  0
  7  8  1  0  0  0  0
  7  9  1  0  0  0  0
  7 29  1  0  0  0  0
  8 30  1  0  0  0  0
  8 31  1  0  0  0  0
  8 32  1  0  0  0  0
  9 10  1  0  0  0  0
  9 33  1  0  0  0  0
 10 11  2  0  0  0  0
 10 12  1  0  0  0  0
 12 13  1  0  0  0  0
 12 34  1  0  0  0  0
 12 35  1  0  0  0  0
 13 20  1  0  0  0  0
 13 14  2  0  0  0  0
 14 15  1  0  0  0  0
 14 36  1  0  0  0  0
 15 16  1  0  0  0  0
 16 17  1  0  0  0  0
 16 20  2  0  0  0  0
 17 18  1  0  0  0  0
 17 19  1  0  0  0  0
 17 37  1  0  0  0  0
 18 38  1  0  0  0  0
 18 39  1  0  0  0  0
 18 40  1  0  0  0  0
 19 41  1  0  0  0  0
 19 42  1  0  0  0  0
 19 43  1  0  0  0  0
M  END
> <s_m_source_file>
AV-unprocessed.smi

> <i_m_source_file_index>
1336

> <i_lp_mmshare_version>
43012

> <i_f3d_flags>
0

> <s_epik_input>
W0NIM11bQ0gyXVtDSDJdW05IXUMoPU8pW0NASF0oW0NIM10pW05IXUMoPU8pW0NIMl1jMVtjSF1zYyhuMSlbQ0hdKFtDSDNdKVtDSDNd

> <s_epik_cmdline>
J2VwaWtfcHl0aG9uJywgJy1waCcsICc3LjAnLCAnLXRuJywgJzgnLCAnLW1hJywgJzIwMCcsICctbWV0YWxfYmluZGluZycsICctaW1hZScsICc8aW5maWxlLm1hZT4nLCAnLW9tYWUnLCAnPG91dGZpbGUubWFlPic=

> <r_lp_tautomer_probability>
1

> <r_epik_Ionization_Penalty>
3.10785e-05

> <r_epik_Ionization_Penalty_Charging>
0

> <r_epik_Ionization_Penalty_Neutral>
3.10785e-05

> <r_epik_State_Penalty>
-0

> <r_epik_Charging_Adjusted_Penalty>
0

> <i_epik_Tot_Q>
0

> <i_epik_Tot_abs_Q>
0

> <r_epik_Metal_State_Penalty>
-0

> <b_epik_Metal_Only>
0

> <s_lp_Force_Field>
OPLS_2005

> <r_lp_Energy>
-3.8093

> <b_lp_Chiralities_Consistent>
1

> <s_lp_Variant>
AV-unprocessed.smi:1336-1

> <Gold.Version>
5.8.1

> <Gold.Id.Protein>
6NUR|6NUR_protein|mol2

> <Gold.PLP.Fitness>
40.4990

> <Gold.PLP.PLP>
-35.6869

> <Gold.PLP.part.hbond>
-2.0000

> <Gold.PLP.part.metal>
0.0000

> <Gold.PLP.part.buried>
-4.4735

> <Gold.PLP.part.nonpolar>
-27.8407

> <Gold.PLP.part.repulsive>
0.1164

> <Gold.PLP.ligand.clash>
0.0000

> <Gold.PLP.ligand.torsion>
0.6746

> <Gold.PLP.Chemscore.Hbond>
2.0000

> <Gold.PLP.Chemscore.CHOScore>
0.0000

> <Gold.PLP.Chemscore.Metal>
0.0000

> <Gold.Chemscore.Hbonds>
donor molecule, donor type, donor heavy atom, donor atom, acceptor molecule, acceptor atom, score
      L1  H     4    28       P1  8028  1.00
      L1  H     9    33       P1  8028  1.00

> <Gold.PLP.Chemscore.Internal.Correction>
0.1612

> <Gold.Rescore>
     Score         DG    S(hbond)    S(metal)    S(lipo)     H(rot)  DE(clash)    DE(int)     intcor
     14.60     -15.41       1.50        0.00      86.66       2.04       0.14       0.67       ----

> <Gold.Chemscore.Fitness>
14.6037

> <Gold.Chemscore.DG>
-15.4058

> <Gold.Chemscore.ZeroCoef>
-5.4800

> <Gold.Chemscore.Hbond>
1.4961

> <Gold.Chemscore.Metal>
0.0000

> <Gold.Chemscore.Lipo>
86.6595

> <Gold.Chemscore.Internal_Hbond>
0.0000

> <Gold.Chemscore.DEClash>
0.1367

> <Gold.Chemscore.DEInternal>
0.6655

> <Gold.Chemscore.Rot>
2.0353

> <Gold.Chemscore.Internal.Correction>
   9.000000E+99

> <Gold.Chemscore.Hbonds>
donor molecule, donor type, donor heavy atom, donor atom, acceptor molecule, acceptor atom, score
      L1  H     4    28       P1  8028  0.98
      L1  H     9    33       P1  8028  0.25

> <Gold.Chemscore.Hbond.Weighted>
-4.9971

> <Gold.Chemscore.Metal.Weighted>
-0.0000

> <Gold.Chemscore.Lipo.Weighted>
-10.1392

> <Gold.Chemscore.Internal_Hbond.Weighted>
0.0000

> <Gold.Chemscore.DEClash.Weighted>
0.1367

> <Gold.Chemscore.DEInternal.Weighted>
0.6655

> <Gold.Chemscore.Rot.Weighted>
5.2104

> <Gold.Chemscore.Internal.Correction.Weighted>
   9.000000E+99

> <Gold.Protein.RotatedTorsions>
[ 6907 6896 6895 6894 ] final  132.16 input  -60.11 | X-H torsion
[ 7974 7965 7964 7962 ] final  -12.56 input  175.53 | X-H torsion
[ 8008 7997 7996 7995 ] final   44.92 input   59.86 | X-H torsion
[ 10167 10162 10161 10158 ] final  -92.17 input  -65.29 | X-H torsion
[ 10718 10713 10712 10709 ] final   48.17 input   66.30 | X-H torsion
[ 10763 10752 10751 10750 ] final  107.97 input  -60.55 | X-H torsion
[ 11005 11000 10999 10996 ] final -179.84 input  -57.11 | X-H torsion

> <Gold.Protein.ActiveResidues>
 VAL166  LYS551  ARG553  GLY616  TRP617  ASP618  TYR619  PRO620  LYS621  CYS622 
 ASP623  PHE694  ASN695  SER759  ASP760  ASP761  ALA762  ILE779  LEU786  VAL792 
 PHE793  MET794  SER795  GLU796  ALA797  LYS798  CYS799  TRP800  GLU811  SER814 

> <Gold.Protein.RotatedAtoms>
  152.3352  133.6003  159.5837 H   0  0  0  0  0  0  0  0  0  0  0  0  # atno 6907 bound_to 6896
  150.7446  133.9807  159.3584 H   0  0  0  0  0  0  0  0  0  0  0  0  # atno 6908 bound_to 6896
  151.7677  135.0795  160.0406 H   0  0  0  0  0  0  0  0  0  0  0  0  # atno 6909 bound_to 6896
  146.2147  140.3076  142.8380 H   0  0  0  0  0  0  0  0  0  0  0  0  # atno 7974 bound_to 7965
  155.3273  140.3400  155.4240 H   0  0  0  0  0  0  0  0  0  0  0  0  # atno 8008 bound_to 7997
  156.1879  140.1687  156.8186 H   0  0  0  0  0  0  0  0  0  0  0  0  # atno 8009 bound_to 7997
  154.5407  140.0725  156.8489 H   0  0  0  0  0  0  0  0  0  0  0  0  # atno 8010 bound_to 7997
  140.3375  143.2960  151.9872 H   0  0  0  0  0  0  0  0  0  0  0  0  # atno 10167 bound_to 10162
  157.4660  130.8226  149.7936 H   0  0  0  0  0  0  0  0  0  0  0  0  # atno 10718 bound_to 10713
  153.4142  135.3827  155.2070 H   0  0  0  0  0  0  0  0  0  0  0  0  # atno 10763 bound_to 10752
  154.8740  135.3801  154.4464 H   0  0  0  0  0  0  0  0  0  0  0  0  # atno 10764 bound_to 10752
  153.4976  135.7088  153.5912 H   0  0  0  0  0  0  0  0  0  0  0  0  # atno 10765 bound_to 10752
  140.4142  134.6664  157.4630 H   0  0  0  0  0  0  0  0  0  0  0  0  # atno 11005 bound_to 11000
  144.9012  140.7644  143.5866 LP  0  0  0  0  0  0  0  0  0  0  0  0  # atno 17320 bound_to 7965
  145.3002  139.1853  143.4694 LP  0  0  0  0  0  0  0  0  0  0  0  0  # atno 17321 bound_to 7965
  139.4846  144.6184  151.7302 LP  0  0  0  0  0  0  0  0  0  0  0  0  # atno 17342 bound_to 10162
  140.5340  144.0686  150.6063 LP  0  0  0  0  0  0  0  0  0  0  0  0  # atno 17343 bound_to 10162
  156.0050  130.3860  150.2463 LP  0  0  0  0  0  0  0  0  0  0  0  0  # atno 17370 bound_to 10713
  157.0643  131.0099  151.3212 LP  0  0  0  0  0  0  0  0  0  0  0  0  # atno 17371 bound_to 10713
  140.0246  134.6497  155.9191 LP  0  0  0  0  0  0  0  0  0  0  0  0  # atno 17394 bound_to 11000
  141.1809  133.6546  156.5017 LP  0  0  0  0  0  0  0  0  0  0  0  0  # atno 17395 bound_to 11000

$$$$
