AV-unprocessed.smi:249|AV-procd|sdf|1906|dock1
  -GOLD-   2262020583D 1   1.00000     0.00000
 Structure written by MMmdl.
 64 67  0  0  0  0  0  0  0  0  2 V2000
  145.6778  132.3038  151.5192 C   0  0  0  0  0  0  0  0  0  0  0  0
  146.3013  133.6911  151.2937 C   0  0  0  0  0  0  0  0  0  0  0  0
  147.1085  134.1751  152.4513 N   0  3  2  0  0  0  0  0  0  0  0  0
  147.9378  133.0858  153.0422 C   0  0  0  0  0  0  0  0  0  0  0  0
  148.8788  133.6054  154.1374 C   0  0  0  0  0  0  0  0  0  0  0  0
  148.0836  134.2955  155.2584 C   0  0  1  0  0  0  0  0  0  0  0  0
  148.9276  134.7576  156.3716 N   0  0  0  0  0  0  0  0  0  0  0  0
  149.5223  133.7373  157.2276 C   0  0  0  0  0  0  0  0  0  0  0  0
  149.7459  135.8083  156.1221 C   0  0  0  0  0  0  0  0  0  0  0  0
  150.0808  136.1180  154.8416 N   0  0  0  0  0  0  0  0  0  0  0  0
  150.8279  137.1970  154.5885 C   0  0  0  0  0  0  0  0  0  0  0  0
  151.3218  138.0905  155.4484 N   0  0  0  0  0  0  0  0  0  0  0  0
  151.0034  137.7683  156.7347 C   0  0  0  0  0  0  0  0  0  0  0  0
  150.2460  136.6418  157.1577 C   0  0  0  0  0  0  0  0  0  0  0  0
  150.1411  136.6289  158.5430 N   0  0  0  0  0  0  0  0  0  0  0  0
  150.7764  137.7054  158.9180 C   0  0  0  0  0  0  0  0  0  0  0  0
  151.2880  138.4694  157.8927 N   0  0  0  0  0  0  0  0  0  0  0  0
  151.9881  139.7334  158.0182 C   0  0  0  0  0  0  0  0  0  0  0  0
  151.0617  140.9820  158.0666 C   0  0  2  0  0  0  0  0  0  0  0  0
  150.3640  141.1442  156.6939 C   0  0  0  0  0  0  0  0  0  0  0  0
  149.3159  142.0898  156.7566 O   0  0  0  0  0  0  0  0  0  0  0  0
  151.8014  142.2875  158.4976 C   0  0  1  0  0  0  0  0  0  0  0  0
  150.8973  143.4355  158.9245 C   0  0  0  0  0  0  0  0  0  0  0  0
  151.8494  144.3288  159.7047 C   0  0  0  0  0  0  0  0  0  0  0  0
  152.6555  143.4175  160.4326 O   0  0  0  0  0  0  0  0  0  0  0  0
  152.7035  142.1718  159.7429 C   0  0  0  0  0  0  0  0  0  0  0  0
  147.2203  135.4051  154.6275 C   0  0  0  0  0  0  0  0  0  0  0  0
  146.3043  134.8791  153.5030 C   0  0  1  0  0  0  0  0  0  0  0  0
  145.4836  136.0653  152.9535 C   0  0  0  0  0  0  0  0  0  0  0  0
  145.2391  131.9304  150.5934 H   0  0  0  0  0  0  0  0  0  0  0  0
  144.8788  132.3204  152.2593 H   0  0  0  0  0  0  0  0  0  0  0  0
  146.4276  131.5805  151.8410 H   0  0  0  0  0  0  0  0  0  0  0  0
  146.9274  133.5900  150.4105 H   0  0  0  0  0  0  0  0  0  0  0  0
  145.5295  134.4213  151.0462 H   0  0  0  0  0  0  0  0  0  0  0  0
  147.2860  132.3093  153.4460 H   0  0  0  0  0  0  0  0  0  0  0  0
  148.5543  132.6124  152.2803 H   0  0  0  0  0  0  0  0  0  0  0  0
  149.4570  132.7721  154.5367 H   0  0  0  0  0  0  0  0  0  0  0  0
  149.5951  134.2968  153.6926 H   0  0  0  0  0  0  0  0  0  0  0  0
  147.4014  133.5584  155.6847 H   0  0  0  0  0  0  0  0  0  0  0  0
  149.9509  134.1892  158.1230 H   0  0  0  0  0  0  0  0  0  0  0  0
  150.3108  133.1901  156.7099 H   0  0  0  0  0  0  0  0  0  0  0  0
  148.7646  133.0212  157.5468 H   0  0  0  0  0  0  0  0  0  0  0  0
  151.0483  137.3796  153.5469 H   0  0  0  0  0  0  0  0  0  0  0  0
  150.8610  137.9903  159.9567 H   0  0  0  0  0  0  0  0  0  0  0  0
  152.6046  139.6957  158.9171 H   0  0  0  0  0  0  0  0  0  0  0  0
  152.6792  139.8002  157.1774 H   0  0  0  0  0  0  0  0  0  0  0  0
  150.2756  140.7970  158.8002 H   0  0  0  0  0  0  0  0  0  0  0  0
  151.0551  141.5046  155.9332 H   0  0  0  0  0  0  0  0  0  0  0  0
  149.9691  140.1901  156.3432 H   0  0  0  0  0  0  0  0  0  0  0  0
  149.5354  142.8202  156.1985 H   0  0  0  0  0  0  0  0  0  0  0  0
  152.4076  142.6425  157.6624 H   0  0  0  0  0  0  0  0  0  0  0  0
  150.4402  143.9593  158.0842 H   0  0  0  0  0  0  0  0  0  0  0  0
  150.1032  143.0764  159.5814 H   0  0  0  0  0  0  0  0  0  0  0  0
  152.4811  144.9022  159.0247 H   0  0  0  0  0  0  0  0  0  0  0  0
  151.3318  145.0253  160.3644 H   0  0  0  0  0  0  0  0  0  0  0  0
  152.3484  141.3990  160.4252 H   0  0  0  0  0  0  0  0  0  0  0  0
  153.7358  141.9434  159.4822 H   0  0  0  0  0  0  0  0  0  0  0  0
  146.6114  135.8694  155.4037 H   0  0  0  0  0  0  0  0  0  0  0  0
  147.8542  136.1909  154.2140 H   0  0  0  0  0  0  0  0  0  0  0  0
  145.6094  134.1574  153.9360 H   0  0  0  0  0  0  0  0  0  0  0  0
  145.0445  136.6435  153.7672 H   0  0  0  0  0  0  0  0  0  0  0  0
  144.6486  135.7438  152.3322 H   0  0  0  0  0  0  0  0  0  0  0  0
  146.1056  136.7452  152.3700 H   0  0  0  0  0  0  0  0  0  0  0  0
  147.7509  134.8615  152.0820 H   0  0  0  0  0  0  0  0  0  0  0  0
  1  2  1  0  0  0  0
  1 30  1  0  0  0  0
  1 31  1  0  0  0  0
  1 32  1  0  0  0  0
  2  3  1  0  0  0  0
  2 33  1  0  0  0  0
  2 34  1  0  0  0  0
  3 28  1  0  0  0  0
  3  4  1  0  0  0  0
  3 64  1  0  0  0  0
  4  5  1  0  0  0  0
  4 35  1  0  0  0  0
  4 36  1  0  0  0  0
  5  6  1  0  0  0  0
  5 37  1  0  0  0  0
  5 38  1  0  0  0  0
  6  7  1  0  0  0  0
  6 27  1  0  0  0  0
  6 39  1  0  0  0  0
  7  8  1  0  0  0  0
  7  9  1  0  0  0  0
  8 40  1  0  0  0  0
  8 41  1  0  0  0  0
  8 42  1  0  0  0  0
  9 14  1  0  0  0  0
  9 10  2  0  0  0  0
 10 11  1  0  0  0  0
 11 12  2  0  0  0  0
 11 43  1  0  0  0  0
 12 13  1  0  0  0  0
 13 17  1  0  0  0  0
 13 14  2  0  0  0  0
 14 15  1  0  0  0  0
 15 16  2  0  0  0  0
 16 17  1  0  0  0  0
 16 44  1  0  0  0  0
 17 18  1  0  0  0  0
 18 19  1  0  0  0  0
 18 45  1  0  0  0  0
 18 46  1  0  0  0  0
 19 20  1  0  0  0  0
 19 22  1  0  0  0  0
 19 47  1  0  0  0  0
 20 21  1  0  0  0  0
 20 48  1  0  0  0  0
 20 49  1  0  0  0  0
 21 50  1  0  0  0  0
 22 26  1  0  0  0  0
 22 23  1  0  0  0  0
 22 51  1  0  0  0  0
 23 24  1  0  0  0  0
 23 52  1  0  0  0  0
 23 53  1  0  0  0  0
 24 25  1  0  0  0  0
 24 54  1  0  0  0  0
 24 55  1  0  0  0  0
 25 26  1  0  0  0  0
 26 56  1  0  0  0  0
 26 57  1  0  0  0  0
 27 28  1  0  0  0  0
 27 58  1  0  0  0  0
 27 59  1  0  0  0  0
 28 29  1  0  0  0  0
 28 60  1  0  0  0  0
 29 61  1  0  0  0  0
 29 62  1  0  0  0  0
 29 63  1  0  0  0  0
M  CHG  1   3   1
M  END
> <s_m_source_file>
AV-unprocessed.smi

> <i_m_source_file_index>
249

> <i_lp_mmshare_version>
43012

> <i_f3d_flags>
0

> <s_epik_input>
W0NIM11bQ0gyXU4xW0NIMl1bQ0gyXVtDQEhdKFtDSDJdW0NASF0xW0NIM10pTihbQ0gzXSljKG5bY0hdbjIpYyhjMjMpbltjSF1uM1tDSDJdW0NASF0oW0NIMl1bT0hdKVtDQEBIXTRbQ0gyXVtDSDJdT1tDSDJdNA==

> <s_epik_cmdline>
J2VwaWtfcHl0aG9uJywgJy1waCcsICc3LjAnLCAnLXRuJywgJzgnLCAnLW1hJywgJzIwMCcsICctbWV0YWxfYmluZGluZycsICctaW1hZScsICc8aW5maWxlLm1hZT4nLCAnLW9tYWUnLCAnPG91dGZpbGUubWFlPic=

> <r_lp_tautomer_probability>
1

> <r_epik_Ionization_Penalty>
0.00294688

> <r_epik_Ionization_Penalty_Charging>
0.00169971

> <r_epik_Ionization_Penalty_Neutral>
0.00124717

> <r_epik_State_Penalty>
-0

> <r_epik_Charging_Adjusted_Penalty>
0.00169971

> <i_epik_Tot_Q>
1

> <i_epik_Tot_abs_Q>
1

> <r_epik_Metal_State_Penalty>
-0

> <b_epik_Metal_Only>
0

> <s_lp_Force_Field>
OPLS_2005

> <r_lp_Energy>
53.7377

> <b_lp_Chiralities_Consistent>
1

> <s_lp_Variant>
AV-unprocessed.smi:249-9

> <Gold.Version>
5.8.1

> <Gold.Id.Protein>
6NUR|6NUR_protein|mol2

> <Gold.PLP.Fitness>
54.6306

> <Gold.PLP.PLP>
-42.3324

> <Gold.PLP.part.hbond>
-2.8567

> <Gold.PLP.part.metal>
0.0000

> <Gold.PLP.part.buried>
-5.6649

> <Gold.PLP.part.nonpolar>
-35.0907

> <Gold.PLP.part.repulsive>
0.3840

> <Gold.PLP.ligand.clash>
0.0000

> <Gold.PLP.ligand.torsion>
1.2525

> <Gold.PLP.Chemscore.Hbond>
3.4677

> <Gold.PLP.Chemscore.CHOScore>
1.0044

> <Gold.PLP.Chemscore.Metal>
0.0000

> <Gold.Chemscore.Hbonds>
donor molecule, donor type, donor heavy atom, donor atom, acceptor molecule, acceptor atom, score
      L1  H     3    64       P1  7948  2.00
      L1  H    21    50       P1  8028  0.73
      P1  H  6896  6908       L1    15  0.55
      L1  C    11    43       P1  7948  0.03
      L1  C    11    43       P1  7949  1.00

> <Gold.PLP.Chemscore.Internal.Correction>
1.3870

> <Gold.Rescore>
     Score         DG    S(hbond)    S(metal)    S(lipo)     H(rot)  DE(clash)    DE(int)     intcor
     13.56     -17.63       2.54        0.00      94.79       2.90       0.00       4.07       ----

> <Gold.Chemscore.Fitness>
13.5575

> <Gold.Chemscore.DG>
-17.6265

> <Gold.Chemscore.ZeroCoef>
-5.4800

> <Gold.Chemscore.Hbond>
2.5393

> <Gold.Chemscore.Metal>
0.0000

> <Gold.Chemscore.Lipo>
94.7945

> <Gold.Chemscore.Internal_Hbond>
0.0000

> <Gold.Chemscore.DEClash>
0.0009

> <Gold.Chemscore.DEInternal>
4.0681

> <Gold.Chemscore.Rot>
2.9006

> <Gold.Chemscore.Internal.Correction>
   9.000000E+99

> <Gold.Chemscore.Hbonds>
donor molecule, donor type, donor heavy atom, donor atom, acceptor molecule, acceptor atom, score
      L1  H     3    64       P1  7948  0.70
      L1  H    21    50       P1  8028  0.71
      P1  H  6896  6908       L1    15  0.33

> <Gold.Chemscore.Hbond.Weighted>
-8.4811

> <Gold.Chemscore.Metal.Weighted>
-0.0000

> <Gold.Chemscore.Lipo.Weighted>
-11.0910

> <Gold.Chemscore.Internal_Hbond.Weighted>
0.0000

> <Gold.Chemscore.DEClash.Weighted>
0.0009

> <Gold.Chemscore.DEInternal.Weighted>
4.0681

> <Gold.Chemscore.Rot.Weighted>
7.4256

> <Gold.Chemscore.Internal.Correction.Weighted>
   9.000000E+99

> <Gold.Protein.RotatedTorsions>
[ 6907 6896 6895 6894 ] final -160.99 input  -60.11 | X-H torsion
[ 7974 7965 7964 7962 ] final  115.70 input  175.53 | X-H torsion
[ 8008 7997 7996 7995 ] final   -6.06 input   59.86 | X-H torsion
[ 10167 10162 10161 10158 ] final  -13.60 input  -65.29 | X-H torsion
[ 10718 10713 10712 10709 ] final  147.68 input   66.30 | X-H torsion
[ 10763 10752 10751 10750 ] final   -8.81 input  -60.55 | X-H torsion
[ 11005 11000 10999 10996 ] final   -9.95 input  -57.11 | X-H torsion

> <Gold.Protein.ActiveResidues>
 VAL166  LYS551  ARG553  GLY616  TRP617  ASP618  TYR619  PRO620  LYS621  CYS622 
 ASP623  PHE694  ASN695  SER759  ASP760  ASP761  ALA762  ILE779  LEU786  VAL792 
 PHE793  MET794  SER795  GLU796  ALA797  LYS798  CYS799  TRP800  GLU811  SER814 

> <Gold.Protein.RotatedAtoms>
  151.3577  133.3901  159.2686 H   0  0  0  0  0  0  0  0  0  0  0  0  # atno 6907 bound_to 6896
  150.9750  134.9117  159.7821 H   0  0  0  0  0  0  0  0  0  0  0  0  # atno 6908 bound_to 6896
  152.5198  134.3540  159.9313 H   0  0  0  0  0  0  0  0  0  0  0  0  # atno 6909 bound_to 6896
  145.1887  139.3011  143.4380 H   0  0  0  0  0  0  0  0  0  0  0  0  # atno 7974 bound_to 7965
  154.5975  140.2442  155.7837 H   0  0  0  0  0  0  0  0  0  0  0  0  # atno 8008 bound_to 7997
  156.2289  140.2973  156.0090 H   0  0  0  0  0  0  0  0  0  0  0  0  # atno 8009 bound_to 7997
  155.2267  140.0402  157.2947 H   0  0  0  0  0  0  0  0  0  0  0  0  # atno 8010 bound_to 7997
  140.7185  143.5409  150.9410 H   0  0  0  0  0  0  0  0  0  0  0  0  # atno 10167 bound_to 10162
  157.3179  131.0899  151.1264 H   0  0  0  0  0  0  0  0  0  0  0  0  # atno 10718 bound_to 10713
  153.4459  135.7014  153.6139 H   0  0  0  0  0  0  0  0  0  0  0  0  # atno 10763 bound_to 10752
  153.4495  135.3761  155.2276 H   0  0  0  0  0  0  0  0  0  0  0  0  # atno 10764 bound_to 10752
  154.8728  135.3993  154.3864 H   0  0  0  0  0  0  0  0  0  0  0  0  # atno 10765 bound_to 10752
  140.7396  133.8681  155.8957 H   0  0  0  0  0  0  0  0  0  0  0  0  # atno 11005 bound_to 11000
  146.3440  140.2092  142.8590 LP  0  0  0  0  0  0  0  0  0  0  0  0  # atno 17320 bound_to 7965
  145.0063  140.8675  143.5251 LP  0  0  0  0  0  0  0  0  0  0  0  0  # atno 17321 bound_to 7965
  139.9131  143.6695  152.3111 LP  0  0  0  0  0  0  0  0  0  0  0  0  # atno 17342 bound_to 10162
  139.7086  144.7624  151.1151 LP  0  0  0  0  0  0  0  0  0  0  0  0  # atno 17343 bound_to 10162
  157.2560  130.6636  149.5953 LP  0  0  0  0  0  0  0  0  0  0  0  0  # atno 17370 bound_to 10713
  155.9683  130.4523  150.5770 LP  0  0  0  0  0  0  0  0  0  0  0  0  # atno 17371 bound_to 10713
  140.9849  134.1357  157.4461 LP  0  0  0  0  0  0  0  0  0  0  0  0  # atno 17394 bound_to 11000
  139.8809  135.0022  156.6113 LP  0  0  0  0  0  0  0  0  0  0  0  0  # atno 17395 bound_to 11000

$$$$
