AV-unprocessed.smi:1213|AV-procd|sdf|5087|dock4
  -GOLD-   22720 4133D 1   1.00000     0.00000
 Structure written by MMmdl.
 35 36  0  0  0  0  0  0  0  0  2 V2000
  142.3127  133.0231  148.3170 N   0  0  0  0  0  0  0  0  0  0  0  0
  143.4692  132.5906  148.8258 C   0  0  0  0  0  0  0  0  0  0  0  0
  144.4168  132.2586  148.1173 O   0  0  0  0  0  0  0  0  0  0  0  0
  143.5735  132.5107  150.3532 C   0  0  0  0  0  0  0  0  0  0  0  0
  144.5898  133.4056  150.9535 N   0  0  0  0  0  0  0  0  0  0  0  0
  144.5046  133.4474  152.4212 C   0  0  0  0  0  0  0  0  0  0  0  0
  145.6182  134.3357  153.0042 C   0  0  0  0  0  0  0  0  0  0  0  0
  145.5455  135.7617  152.4409 C   0  0  0  0  0  0  0  0  0  0  0  0
  146.6776  136.5468  152.9255 N   0  0  0  0  0  0  0  0  0  0  0  0
  146.6936  137.3120  154.0267 C   0  0  0  0  0  0  0  0  0  0  0  0
  145.6854  137.3983  154.7321 O   0  0  0  0  0  0  0  0  0  0  0  0
  147.8776  137.9296  154.2422 N   0  5  0  0  0  0  0  0  0  0  0  0
  147.9153  139.2551  154.4547 C   0  0  0  0  0  0  0  0  0  0  0  0
  146.8241  140.0290  154.4298 N   0  0  0  0  0  0  0  0  0  0  0  0
  147.0939  141.3774  154.6705 C   0  0  0  0  0  0  0  0  0  0  0  0
  148.4232  141.6379  154.8741 C   0  0  0  0  0  0  0  0  0  0  0  0
  149.3813  140.1886  154.7689 S   0  0  0  0  0  0  0  0  0  0  0  0
  145.5425  135.6886  150.9054 C   0  0  0  0  0  0  0  0  0  0  0  0
  144.4298  134.7546  150.3991 C   0  0  0  0  0  0  0  0  0  0  0  0
  142.2010  133.1007  147.3165 H   0  0  0  0  0  0  0  0  0  0  0  0
  141.5577  133.2790  148.9370 H   0  0  0  0  0  0  0  0  0  0  0  0
  142.5896  132.7552  150.7566 H   0  0  0  0  0  0  0  0  0  0  0  0
  143.7771  131.4776  150.6415 H   0  0  0  0  0  0  0  0  0  0  0  0
  143.5255  133.8173  152.7306 H   0  0  0  0  0  0  0  0  0  0  0  0
  144.6127  132.4498  152.8467 H   0  0  0  0  0  0  0  0  0  0  0  0
  145.5373  134.3609  154.0916 H   0  0  0  0  0  0  0  0  0  0  0  0
  146.5896  133.8931  152.7770 H   0  0  0  0  0  0  0  0  0  0  0  0
  144.6149  136.2188  152.7823 H   0  0  0  0  0  0  0  0  0  0  0  0
  147.5255  136.5085  152.3788 H   0  0  0  0  0  0  0  0  0  0  0  0
  146.2774  142.0839  154.6774 H   0  0  0  0  0  0  0  0  0  0  0  0
  148.8952  142.5873  155.0770 H   0  0  0  0  0  0  0  0  0  0  0  0
  145.4055  136.6842  150.4815 H   0  0  0  0  0  0  0  0  0  0  0  0
  146.5091  135.3309  150.5465 H   0  0  0  0  0  0  0  0  0  0  0  0
  144.4751  134.7142  149.3099 H   0  0  0  0  0  0  0  0  0  0  0  0
  143.4506  135.1599  150.6605 H   0  0  0  0  0  0  0  0  0  0  0  0
  1  2  1  0  0  0  0
  1 20  1  0  0  0  0
  1 21  1  0  0  0  0
  2  3  2  0  0  0  0
  2  4  1  0  0  0  0
  4  5  1  0  0  0  0
  4 22  1  0  0  0  0
  4 23  1  0  0  0  0
  5 19  1  0  0  0  0
  5  6  1  0  0  0  0
  6  7  1  0  0  0  0
  6 24  1  0  0  0  0
  6 25  1  0  0  0  0
  7  8  1  0  0  0  0
  7 26  1  0  0  0  0
  7 27  1  0  0  0  0
  8  9  1  0  0  0  0
  8 18  1  0  0  0  0
  8 28  1  0  0  0  0
  9 10  1  0  0  0  0
  9 29  1  0  0  0  0
 10 11  2  0  0  0  0
 10 12  1  0  0  0  0
 12 13  1  0  0  0  0
 13 17  1  0  0  0  0
 13 14  2  0  0  0  0
 14 15  1  0  0  0  0
 15 16  2  0  0  0  0
 15 30  1  0  0  0  0
 16 17  1  0  0  0  0
 16 31  1  0  0  0  0
 18 19  1  0  0  0  0
 18 32  1  0  0  0  0
 18 33  1  0  0  0  0
 19 34  1  0  0  0  0
 19 35  1  0  0  0  0
M  CHG  1  12  -1
M  END
> <s_m_source_file>
AV-unprocessed.smi

> <i_m_source_file_index>
1213

> <i_lp_mmshare_version>
43012

> <i_f3d_flags>
0

> <s_epik_input>
W05IMl1DKD1PKVtDSDJdTjFbQ0gyXVtDSDJdW0NIXShbQ0gyXVtDSDJdMSlbTkhdQyg9TylbTkhdYzJuW2NIXVtjSF1zMg==

> <s_epik_cmdline>
J2VwaWtfcHl0aG9uJywgJy1waCcsICc3LjAnLCAnLXRuJywgJzgnLCAnLW1hJywgJzIwMCcsICctbWV0YWxfYmluZGluZycsICctaW1hZScsICc8aW5maWxlLm1hZT4nLCAnLW9tYWUnLCAnPG91dGZpbGUubWFlPic=

> <r_lp_tautomer_probability>
0.999

> <r_epik_Ionization_Penalty>
7.12626

> <r_epik_Ionization_Penalty_Charging>
5.84953

> <r_epik_Ionization_Penalty_Neutral>
1.27674

> <r_epik_State_Penalty>
5.99619

> <r_epik_Charging_Adjusted_Penalty>
11.8457

> <i_epik_Tot_Q>
-1

> <i_epik_Tot_abs_Q>
1

> <r_epik_Metal_State_Penalty>
1.98285

> <b_epik_Metal_Only>
1

> <s_lp_Force_Field>
OPLS_2005

> <r_lp_Energy>
7.2689

> <b_lp_Chiralities_Consistent>
1

> <s_lp_Variant>
AV-unprocessed.smi:1213-4

> <Gold.Version>
5.8.1

> <Gold.Id.Protein>
6NUR|6NUR_protein|mol2

> <Gold.PLP.Fitness>
41.8769

> <Gold.PLP.PLP>
-31.6702

> <Gold.PLP.part.hbond>
-5.0000

> <Gold.PLP.part.metal>
0.0000

> <Gold.PLP.part.buried>
-1.4754

> <Gold.PLP.part.nonpolar>
-26.6175

> <Gold.PLP.part.repulsive>
1.0489

> <Gold.PLP.ligand.clash>
0.0000

> <Gold.PLP.ligand.torsion>
0.8993

> <Gold.PLP.Chemscore.Hbond>
2.9920

> <Gold.PLP.Chemscore.CHOScore>
1.0000

> <Gold.PLP.Chemscore.Metal>
0.0000

> <Gold.Chemscore.Hbonds>
donor molecule, donor type, donor heavy atom, donor atom, acceptor molecule, acceptor atom, score
      L1  H     1    20       P1 10195  1.00
      L1  H     1    21       P1 10186  0.52
      L1  H     9    29       P1  7948  1.00
      P1  H  7918  7932       L1     3  0.01
      L1  C    16    31       P1  8028  1.00

> <Gold.PLP.Chemscore.Internal.Correction>
0.0292

> <Gold.Rescore>
     Score         DG    S(hbond)    S(metal)    S(lipo)     H(rot)  DE(clash)    DE(int)     intcor
     14.27     -16.50       2.92        0.00      54.91       2.01       0.11       2.12       ----

> <Gold.Chemscore.Fitness>
14.2676

> <Gold.Chemscore.DG>
-16.4976

> <Gold.Chemscore.ZeroCoef>
-5.4800

> <Gold.Chemscore.Hbond>
2.9162

> <Gold.Chemscore.Metal>
0.0000

> <Gold.Chemscore.Lipo>
54.9131

> <Gold.Chemscore.Internal_Hbond>
0.0000

> <Gold.Chemscore.DEClash>
0.1095

> <Gold.Chemscore.DEInternal>
2.1205

> <Gold.Chemscore.Rot>
2.0107

> <Gold.Chemscore.Internal.Correction>
   9.000000E+99

> <Gold.Chemscore.Hbonds>
donor molecule, donor type, donor heavy atom, donor atom, acceptor molecule, acceptor atom, score
      L1  H     1    20       P1 10195  0.98
      L1  H     1    21       P1 10186  0.51
      L1  H     9    29       P1  7948  0.93
      P1  H  7918  7932       L1     3  0.02

> <Gold.Chemscore.Hbond.Weighted>
-9.7402

> <Gold.Chemscore.Metal.Weighted>
-0.0000

> <Gold.Chemscore.Lipo.Weighted>
-6.4248

> <Gold.Chemscore.Internal_Hbond.Weighted>
0.0000

> <Gold.Chemscore.DEClash.Weighted>
0.1095

> <Gold.Chemscore.DEInternal.Weighted>
2.1205

> <Gold.Chemscore.Rot.Weighted>
5.1474

> <Gold.Chemscore.Internal.Correction.Weighted>
   9.000000E+99

> <Gold.Protein.RotatedTorsions>
[ 6907 6896 6895 6894 ] final -109.09 input  -60.11 | X-H torsion
[ 7974 7965 7964 7962 ] final -155.64 input  175.53 | X-H torsion
[ 8008 7997 7996 7995 ] final  -64.04 input   59.86 | X-H torsion
[ 10167 10162 10161 10158 ] final -142.94 input  -65.29 | X-H torsion
[ 10718 10713 10712 10709 ] final -152.63 input   66.30 | X-H torsion
[ 10763 10752 10751 10750 ] final -178.77 input  -60.55 | X-H torsion
[ 11005 11000 10999 10996 ] final    7.79 input  -57.11 | X-H torsion

> <Gold.Protein.ActiveResidues>
 VAL166  LYS551  ARG553  GLY616  TRP617  ASP618  TYR619  PRO620  LYS621  CYS622 
 ASP623  PHE694  ASN695  SER759  ASP760  ASP761  ALA762  ILE779  LEU786  VAL792 
 PHE793  MET794  SER795  GLU796  ALA797  LYS798  CYS799  TRP800  GLU811  SER814 

> <Gold.Protein.RotatedAtoms>
  150.7541  133.9580  159.3506 H   0  0  0  0  0  0  0  0  0  0  0  0  # atno 6907 bound_to 6896
  151.7504  135.0832  160.0339 H   0  0  0  0  0  0  0  0  0  0  0  0  # atno 6908 bound_to 6896
  152.3470  133.6097  159.5953 H   0  0  0  0  0  0  0  0  0  0  0  0  # atno 6909 bound_to 6896
  144.7631  140.4221  143.5962 H   0  0  0  0  0  0  0  0  0  0  0  0  # atno 7974 bound_to 7965
  154.4589  140.0962  156.6836 H   0  0  0  0  0  0  0  0  0  0  0  0  # atno 8008 bound_to 7997
  155.5054  140.3475  155.4360 H   0  0  0  0  0  0  0  0  0  0  0  0  # atno 8009 bound_to 7997
  156.0832  140.1378  156.9675 H   0  0  0  0  0  0  0  0  0  0  0  0  # atno 8010 bound_to 7997
  139.8040  143.7794  152.2660 H   0  0  0  0  0  0  0  0  0  0  0  0  # atno 10167 bound_to 10162
  156.4751  130.8276  151.2505 H   0  0  0  0  0  0  0  0  0  0  0  0  # atno 10718 bound_to 10713
  154.5435  135.2808  155.1074 H   0  0  0  0  0  0  0  0  0  0  0  0  # atno 10763 bound_to 10752
  154.2547  135.6333  153.5256 H   0  0  0  0  0  0  0  0  0  0  0  0  # atno 10764 bound_to 10752
  152.9985  135.5591  154.5981 H   0  0  0  0  0  0  0  0  0  0  0  0  # atno 10765 bound_to 10752
  140.5442  134.0345  155.7914 H   0  0  0  0  0  0  0  0  0  0  0  0  # atno 11005 bound_to 11000
  145.6557  139.1572  143.2837 LP  0  0  0  0  0  0  0  0  0  0  0  0  # atno 17320 bound_to 7965
  146.1712  140.6642  142.9232 LP  0  0  0  0  0  0  0  0  0  0  0  0  # atno 17321 bound_to 7965
  139.7922  144.7406  150.9939 LP  0  0  0  0  0  0  0  0  0  0  0  0  # atno 17342 bound_to 10162
  140.7819  143.4430  151.0524 LP  0  0  0  0  0  0  0  0  0  0  0  0  # atno 17343 bound_to 10162
  157.7488  131.0063  150.3148 LP  0  0  0  0  0  0  0  0  0  0  0  0  # atno 17370 bound_to 10713
  156.3579  130.3842  149.7275 LP  0  0  0  0  0  0  0  0  0  0  0  0  # atno 17371 bound_to 10713
  141.1209  133.9462  157.2731 LP  0  0  0  0  0  0  0  0  0  0  0  0  # atno 17394 bound_to 11000
  139.9488  135.0179  156.8932 LP  0  0  0  0  0  0  0  0  0  0  0  0  # atno 17395 bound_to 11000

$$$$
