AV-unprocessed.smi:104|AV-procd|sdf|997|dock1
  -GOLD-   2262017583D 1   1.00000     0.00000
 Structure written by MMmdl.
 47 49  0  0  0  0  0  0  0  0  1 V2000
  153.9172  140.3454  160.2700 C   0  0  0  0  0  0  0  0  0  0  0  0
  153.2458  141.6381  159.8238 C   0  0  0  0  0  0  0  0  0  0  0  0
  153.4805  142.7089  160.3841 O   0  0  0  0  0  0  0  0  0  0  0  0
  152.4093  141.4553  158.7910 O   0  0  0  0  0  0  0  0  0  0  0  0
  151.7805  142.5766  158.1935 C   0  0  0  0  0  0  0  0  0  0  0  0
  150.7292  142.0966  157.1842 C   0  0  2  0  0  0  0  0  0  0  0  0
  149.4608  142.6519  157.5208 O   0  0  0  0  0  0  0  0  0  0  0  0
  148.7073  141.6798  158.1605 C   0  0  1  0  0  0  0  0  0  0  0  0
  147.2579  141.9827  157.9802 N   0  0  0  0  0  0  0  0  0  0  0  0
  146.5292  142.0784  156.8171 C   0  0  0  0  0  0  0  0  0  0  0  0
  147.3153  141.8302  155.1002 Br  0  0  0  0  0  0  0  0  0  0  0  0
  145.2634  142.3695  156.9307 N   0  0  0  0  0  0  0  0  0  0  0  0
  145.1010  142.4963  158.3051 C   0  0  0  0  0  0  0  0  0  0  0  0
  144.0002  142.8059  159.1429 C   0  0  0  0  0  0  0  0  0  0  0  0
  142.7707  143.0561  158.6719 N   0  0  0  0  0  0  0  0  0  0  0  0
  144.1990  142.8548  160.4809 N   0  0  0  0  0  0  0  0  0  0  0  0
  145.4173  142.6131  160.9762 C   0  0  0  0  0  0  0  0  0  0  0  0
  146.5417  142.3113  160.3211 N   0  0  0  0  0  0  0  0  0  0  0  0
  146.3390  142.2595  158.9715 C   0  0  0  0  0  0  0  0  0  0  0  0
  149.0662  140.3615  157.4958 C   0  0  2  0  0  0  0  0  0  0  0  0
  148.8301  139.2879  158.3952 O   0  0  0  0  0  0  0  0  0  0  0  0
  149.2237  138.0447  158.0768 C   0  0  0  0  0  0  0  0  0  0  0  0
  149.1015  137.0797  159.2485 C   0  0  0  0  0  0  0  0  0  0  0  0
  149.6430  137.6750  156.9799 O   0  0  0  0  0  0  0  0  0  0  0  0
  150.5478  140.5654  157.2167 C   0  0  1  0  0  0  0  0  0  0  0  0
  150.8709  139.9752  155.9645 O   0  0  0  0  0  0  0  0  0  0  0  0
  152.0701  139.4000  155.7764 C   0  0  0  0  0  0  0  0  0  0  0  0
  152.1957  138.7556  154.4024 C   0  0  0  0  0  0  0  0  0  0  0  0
  152.9959  139.3717  156.5871 O   0  0  0  0  0  0  0  0  0  0  0  0
  153.4055  139.4769  159.8540 H   0  0  0  0  0  0  0  0  0  0  0  0
  153.8994  140.2671  161.3571 H   0  0  0  0  0  0  0  0  0  0  0  0
  154.9557  140.3267  159.9391 H   0  0  0  0  0  0  0  0  0  0  0  0
  151.2982  143.1645  158.9757 H   0  0  0  0  0  0  0  0  0  0  0  0
  152.5164  143.2187  157.7075 H   0  0  0  0  0  0  0  0  0  0  0  0
  150.9976  142.4324  156.1813 H   0  0  0  0  0  0  0  0  0  0  0  0
  148.9018  141.7023  159.2333 H   0  0  0  0  0  0  0  0  0  0  0  0
  142.5976  143.0282  157.6772 H   0  0  0  0  0  0  0  0  0  0  0  0
  142.0205  143.2740  159.3117 H   0  0  0  0  0  0  0  0  0  0  0  0
  145.5041  142.6710  162.0513 H   0  0  0  0  0  0  0  0  0  0  0  0
  148.4987  140.2712  156.5675 H   0  0  0  0  0  0  0  0  0  0  0  0
  148.0592  136.7964  159.3953 H   0  0  0  0  0  0  0  0  0  0  0  0
  149.4680  137.5425  160.1650 H   0  0  0  0  0  0  0  0  0  0  0  0
  149.6829  136.1768  159.0620 H   0  0  0  0  0  0  0  0  0  0  0  0
  151.1321  140.1299  158.0297 H   0  0  0  0  0  0  0  0  0  0  0  0
  151.6968  137.7864  154.3930 H   0  0  0  0  0  0  0  0  0  0  0  0
  153.2445  138.6083  154.1442 H   0  0  0  0  0  0  0  0  0  0  0  0
  151.7394  139.3883  153.6407 H   0  0  0  0  0  0  0  0  0  0  0  0
  1  2  1  0  0  0  0
  1 30  1  0  0  0  0
  1 31  1  0  0  0  0
  1 32  1  0  0  0  0
  2  3  2  0  0  0  0
  2  4  1  0  0  0  0
  4  5  1  0  0  0  0
  5  6  1  0  0  0  0
  5 33  1  0  0  0  0
  5 34  1  0  0  0  0
  6 25  1  0  0  0  0
  6  7  1  0  0  0  0
  6 35  1  0  0  0  0
  7  8  1  0  0  0  0
  8  9  1  0  0  0  0
  8 20  1  0  0  0  0
  8 36  1  0  0  0  0
  9 19  1  0  0  0  0
  9 10  1  0  0  0  0
 10 11  1  0  0  0  0
 10 12  2  0  0  0  0
 12 13  1  0  0  0  0
 13 19  2  0  0  0  0
 13 14  1  0  0  0  0
 14 15  1  0  0  0  0
 14 16  2  0  0  0  0
 15 37  1  0  0  0  0
 15 38  1  0  0  0  0
 16 17  1  0  0  0  0
 17 18  2  0  0  0  0
 17 39  1  0  0  0  0
 18 19  1  0  0  0  0
 20 21  1  0  0  0  0
 20 25  1  0  0  0  0
 20 40  1  0  0  0  0
 21 22  1  0  0  0  0
 22 23  1  0  0  0  0
 22 24  2  0  0  0  0
 23 41  1  0  0  0  0
 23 42  1  0  0  0  0
 23 43  1  0  0  0  0
 25 26  1  0  0  0  0
 25 44  1  0  0  0  0
 26 27  1  0  0  0  0
 27 28  1  0  0  0  0
 27 29  2  0  0  0  0
 28 45  1  0  0  0  0
 28 46  1  0  0  0  0
 28 47  1  0  0  0  0
M  END
> <s_m_source_file>
AV-unprocessed.smi

> <i_m_source_file_index>
104

> <i_lp_mmshare_version>
43012

> <i_f3d_flags>
0

> <s_epik_input>
W0NIM11DKD1PKU9bQ0gyXVtDQEBIXTFPW0NASF0oW0NAQEhdKE9DKD1PKVtDSDNdKVtDQEhdMU9DKD1PKVtDSDNdKW4oYyhCciluMiljKGMyMyluW2NIXW5jM1tOSDJd

> <s_epik_cmdline>
J2VwaWtfcHl0aG9uJywgJy1waCcsICc3LjAnLCAnLXRuJywgJzgnLCAnLW1hJywgJzIwMCcsICctbWV0YWxfYmluZGluZycsICctaW1hZScsICc8aW5maWxlLm1hZT4nLCAnLW9tYWUnLCAnPG91dGZpbGUubWFlPic=

> <r_lp_tautomer_probability>
1

> <r_epik_Ionization_Penalty>
7.36622e-05

> <r_epik_Ionization_Penalty_Charging>
0

> <r_epik_Ionization_Penalty_Neutral>
7.36622e-05

> <r_epik_State_Penalty>
-0

> <r_epik_Charging_Adjusted_Penalty>
0

> <i_epik_Tot_Q>
0

> <i_epik_Tot_abs_Q>
0

> <r_epik_Metal_State_Penalty>
-0

> <b_epik_Metal_Only>
0

> <s_epik_Chemistry_Notes>
This compound has an ester and may undergo hydrolysis at high or low pH. This compound contains an acetal/aminal-like group ( X-CH(R)-Y where X, Y are N, S, or O) that may be acid/base labile, releasing an aldehyde.

> <s_lp_Force_Field>
OPLS_2005

> <r_lp_Energy>
16.3368

> <b_lp_Chiralities_Consistent>
1

> <s_lp_Variant>
AV-unprocessed.smi:104-5

> <Gold.Version>
5.8.1

> <Gold.Id.Protein>
6NUR|6NUR_protein|mol2

> <Gold.PLP.Fitness>
38.2783

> <Gold.PLP.PLP>
-34.8767

> <Gold.PLP.part.hbond>
-3.0994

> <Gold.PLP.part.metal>
0.0000

> <Gold.PLP.part.buried>
-8.6572

> <Gold.PLP.part.nonpolar>
-26.2328

> <Gold.PLP.part.repulsive>
2.3370

> <Gold.PLP.ligand.clash>
0.0000

> <Gold.PLP.ligand.torsion>
1.4235

> <Gold.PLP.Chemscore.Hbond>
2.0000

> <Gold.PLP.Chemscore.CHOScore>
0.0000

> <Gold.PLP.Chemscore.Metal>
0.0000

> <Gold.Chemscore.Hbonds>
donor molecule, donor type, donor heavy atom, donor atom, acceptor molecule, acceptor atom, score
      P1  H  6933  6944       L1    18  0.30
      P1  H  6934  6946       L1    18  1.00
      P1  H  7997  8008       L1    29  1.00

> <Gold.PLP.Chemscore.Internal.Correction>
0.2486

> <Gold.Rescore>
     Score         DG    S(hbond)    S(metal)    S(lipo)     H(rot)  DE(clash)    DE(int)     intcor
      4.03      -5.56       1.69        0.00      46.70       4.31       0.02       1.51       ----

> <Gold.Chemscore.Fitness>
4.0322

> <Gold.Chemscore.DG>
-5.5611

> <Gold.Chemscore.ZeroCoef>
-5.4800

> <Gold.Chemscore.Hbond>
1.6896

> <Gold.Chemscore.Metal>
0.0000

> <Gold.Chemscore.Lipo>
46.6979

> <Gold.Chemscore.Internal_Hbond>
0.0000

> <Gold.Chemscore.DEClash>
0.0234

> <Gold.Chemscore.DEInternal>
1.5055

> <Gold.Chemscore.Rot>
4.3070

> <Gold.Chemscore.Internal.Correction>
   9.000000E+99

> <Gold.Chemscore.Hbonds>
donor molecule, donor type, donor heavy atom, donor atom, acceptor molecule, acceptor atom, score
      P1  H  6933  6944       L1    18  0.28
      P1  H  6934  6946       L1    18  0.28
      P1  H  7997  8008       L1    29  0.95

> <Gold.Chemscore.Hbond.Weighted>
-5.6433

> <Gold.Chemscore.Metal.Weighted>
-0.0000

> <Gold.Chemscore.Lipo.Weighted>
-5.4637

> <Gold.Chemscore.Internal_Hbond.Weighted>
0.0000

> <Gold.Chemscore.DEClash.Weighted>
0.0234

> <Gold.Chemscore.DEInternal.Weighted>
1.5055

> <Gold.Chemscore.Rot.Weighted>
11.0259

> <Gold.Chemscore.Internal.Correction.Weighted>
   9.000000E+99

> <Gold.Protein.RotatedTorsions>
[ 6907 6896 6895 6894 ] final   44.15 input  -60.11 | X-H torsion
[ 7974 7965 7964 7962 ] final  157.80 input  175.53 | X-H torsion
[ 8008 7997 7996 7995 ] final  -60.37 input   59.86 | X-H torsion
[ 10167 10162 10161 10158 ] final  179.59 input  -65.29 | X-H torsion
[ 10718 10713 10712 10709 ] final  -94.37 input   66.30 | X-H torsion
[ 10763 10752 10751 10750 ] final   29.93 input  -60.55 | X-H torsion
[ 11005 11000 10999 10996 ] final   -4.45 input  -57.11 | X-H torsion

> <Gold.Protein.ActiveResidues>
 VAL166  LYS551  ARG553  GLY616  TRP617  ASP618  TYR619  PRO620  LYS621  CYS622 
 ASP623  PHE694  ASN695  SER759  ASP760  ASP761  ALA762  ILE779  LEU786  VAL792 
 PHE793  MET794  SER795  GLU796  ALA797  LYS798  CYS799  TRP800  GLU811  SER814 

> <Gold.Protein.RotatedAtoms>
  152.2290  134.8340  160.0475 H   0  0  0  0  0  0  0  0  0  0  0  0  # atno 6907 bound_to 6896
  151.9096  133.3553  159.3867 H   0  0  0  0  0  0  0  0  0  0  0  0  # atno 6908 bound_to 6896
  150.7020  134.4671  159.5452 H   0  0  0  0  0  0  0  0  0  0  0  0  # atno 6909 bound_to 6896
  144.7882  139.7390  143.6232 H   0  0  0  0  0  0  0  0  0  0  0  0  # atno 7974 bound_to 7965
  154.4396  140.1041  156.6263 H   0  0  0  0  0  0  0  0  0  0  0  0  # atno 8008 bound_to 7997
  155.5653  140.3488  155.4483 H   0  0  0  0  0  0  0  0  0  0  0  0  # atno 8009 bound_to 7997
  156.0430  140.1286  157.0124 H   0  0  0  0  0  0  0  0  0  0  0  0  # atno 8010 bound_to 7997
  139.5343  144.2543  152.0759 H   0  0  0  0  0  0  0  0  0  0  0  0  # atno 10167 bound_to 10162
  156.0026  130.5065  150.5916 H   0  0  0  0  0  0  0  0  0  0  0  0  # atno 10718 bound_to 10713
  153.0401  135.6477  154.0966 H   0  0  0  0  0  0  0  0  0  0  0  0  # atno 10763 bound_to 10752
  154.0674  135.2883  155.3316 H   0  0  0  0  0  0  0  0  0  0  0  0  # atno 10764 bound_to 10752
  154.6617  135.5389  153.8091 H   0  0  0  0  0  0  0  0  0  0  0  0  # atno 10765 bound_to 10752
  140.6804  133.9158  155.8551 H   0  0  0  0  0  0  0  0  0  0  0  0  # atno 11005 bound_to 11000
  146.2124  139.5489  142.9672 LP  0  0  0  0  0  0  0  0  0  0  0  0  # atno 17320 bound_to 7965
  145.5864  141.0375  143.2094 LP  0  0  0  0  0  0  0  0  0  0  0  0  # atno 17321 bound_to 7965
  140.2011  144.4657  150.6431 LP  0  0  0  0  0  0  0  0  0  0  0  0  # atno 17342 bound_to 10162
  140.6540  143.2232  151.6011 LP  0  0  0  0  0  0  0  0  0  0  0  0  # atno 17343 bound_to 10162
  157.3780  131.0776  151.1502 LP  0  0  0  0  0  0  0  0  0  0  0  0  # atno 17370 bound_to 10713
  157.2233  130.6491  149.5820 LP  0  0  0  0  0  0  0  0  0  0  0  0  # atno 17371 bound_to 10713
  141.0322  134.0740  157.4001 LP  0  0  0  0  0  0  0  0  0  0  0  0  # atno 17394 bound_to 11000
  139.8953  135.0140  156.6997 LP  0  0  0  0  0  0  0  0  0  0  0  0  # atno 17395 bound_to 11000

$$$$
