AV-unprocessed.smi:2458|AV-procd|sdf|9708|dock8
  -GOLD-   2272013343D 1   1.00000     0.00000
 Structure written by MMmdl.
 47 48  0  0  0  0  0  0  0  0  1 V2000
  152.4887  143.4545  161.1134 C   0  0  0  0  0  0  0  0  0  0  0  0
  152.4361  143.6841  159.5903 C   0  0  0  0  0  0  0  0  0  0  0  0
  151.7582  145.0412  159.3186 C   0  0  0  0  0  0  0  0  0  0  0  0
  151.7567  142.5083  158.8275 C   0  0  1  0  0  0  0  0  0  0  0  0
  151.3110  142.9106  157.3997 C   0  0  0  0  0  0  0  0  0  0  0  0
  150.6545  141.7483  156.6371 C   0  0  0  0  0  0  0  0  0  0  0  0
  151.5921  140.5306  156.5524 C   0  0  2  0  0  0  0  0  0  0  0  0
  150.9261  139.3731  155.7955 C   0  0  0  0  0  0  0  0  0  0  0  0
  149.9164  139.5705  155.1189 O   0  0  0  0  0  0  0  0  0  0  0  0
  151.5008  138.1682  155.9186 N   0  0  0  0  0  0  0  0  0  0  0  0
  151.0166  136.9539  155.2750 C   0  0  0  0  0  0  0  0  0  0  0  0
  151.0484  135.7628  156.2492 C   0  0  2  0  0  0  0  0  0  0  0  0
  152.3861  135.5450  156.6529 O   0  0  0  0  0  0  0  0  0  0  0  0
  150.4504  134.5157  155.6176 C   0  0  0  0  0  0  0  0  0  0  0  0
  150.6109  133.2445  156.2105 C   0  0  0  0  0  0  0  0  0  0  0  0
  150.0439  132.1214  155.5781 C   0  0  0  0  0  0  0  0  0  0  0  0
  149.3383  132.3153  154.3741 C   0  0  0  0  0  0  0  0  0  0  0  0
  149.1789  133.5246  153.7951 N   0  0  0  0  0  0  0  0  0  0  0  0
  149.7258  134.5965  154.4083 C   0  0  0  0  0  0  0  0  0  0  0  0
  152.0079  140.1011  157.9712 C   0  0  0  0  0  0  0  0  0  0  0  0
  152.6668  141.2579  158.7400 C   0  0  0  0  0  0  0  0  0  0  0  0
  150.8618  142.2256  159.3841 H   0  0  0  0  0  0  0  0  0  0  0  0
  152.4904  140.8272  156.0078 H   0  0  0  0  0  0  0  0  0  0  0  0
  151.4954  143.2623  161.5202 H   0  0  0  0  0  0  0  0  0  0  0  0
  152.8927  144.3259  161.6293 H   0  0  0  0  0  0  0  0  0  0  0  0
  153.1317  142.6163  161.3792 H   0  0  0  0  0  0  0  0  0  0  0  0
  153.4666  143.7636  159.2412 H   0  0  0  0  0  0  0  0  0  0  0  0
  150.6938  145.0067  159.5528 H   0  0  0  0  0  0  0  0  0  0  0  0
  151.8669  145.3529  158.2806 H   0  0  0  0  0  0  0  0  0  0  0  0
  152.2031  145.8315  159.9240 H   0  0  0  0  0  0  0  0  0  0  0  0
  150.5934  143.7292  157.4352 H   0  0  0  0  0  0  0  0  0  0  0  0
  152.1699  143.2758  156.8350 H   0  0  0  0  0  0  0  0  0  0  0  0
  149.7224  141.4744  157.1342 H   0  0  0  0  0  0  0  0  0  0  0  0
  150.3820  142.0811  155.6345 H   0  0  0  0  0  0  0  0  0  0  0  0
  152.3314  138.0874  156.4871 H   0  0  0  0  0  0  0  0  0  0  0  0
  149.9877  137.1412  154.9629 H   0  0  0  0  0  0  0  0  0  0  0  0
  151.5877  136.7364  154.3706 H   0  0  0  0  0  0  0  0  0  0  0  0
  150.4689  136.0045  157.1417 H   0  0  0  0  0  0  0  0  0  0  0  0
  152.3826  135.2076  157.5357 H   0  0  0  0  0  0  0  0  0  0  0  0
  151.1611  133.1297  157.1328 H   0  0  0  0  0  0  0  0  0  0  0  0
  150.1487  131.1348  156.0046 H   0  0  0  0  0  0  0  0  0  0  0  0
  148.8916  131.4761  153.8619 H   0  0  0  0  0  0  0  0  0  0  0  0
  149.5805  135.5465  153.9154 H   0  0  0  0  0  0  0  0  0  0  0  0
  151.1389  139.7505  158.5306 H   0  0  0  0  0  0  0  0  0  0  0  0
  152.7003  139.2596  157.9196 H   0  0  0  0  0  0  0  0  0  0  0  0
  153.6108  141.5216  158.2612 H   0  0  0  0  0  0  0  0  0  0  0  0
  152.9164  140.8925  159.7352 H   0  0  0  0  0  0  0  0  0  0  0  0
  1  2  1  0  0  0  0
  1 24  1  0  0  0  0
  1 25  1  0  0  0  0
  1 26  1  0  0  0  0
  2  3  1  0  0  0  0
  2  4  1  0  0  0  0
  2 27  1  0  0  0  0
  3 28  1  0  0  0  0
  3 29  1  0  0  0  0
  3 30  1  0  0  0  0
  4 22  1  0  0  0  0
  4 21  1  0  0  0  0
  4  5  1  0  0  0  0
  5  6  1  0  0  0  0
  5 31  1  0  0  0  0
  5 32  1  0  0  0  0
  6  7  1  0  0  0  0
  6 33  1  0  0  0  0
  6 34  1  0  0  0  0
  7 23  1  0  0  0  0
  7  8  1  0  0  0  0
  7 20  1  0  0  0  0
  8  9  2  0  0  0  0
  8 10  1  0  0  0  0
 10 11  1  0  0  0  0
 10 35  1  0  0  0  0
 11 12  1  0  0  0  0
 11 36  1  0  0  0  0
 11 37  1  0  0  0  0
 12 13  1  0  0  0  0
 12 14  1  0  0  0  0
 12 38  1  0  0  0  0
 13 39  1  0  0  0  0
 14 19  1  0  0  0  0
 14 15  2  0  0  0  0
 15 16  1  0  0  0  0
 15 40  1  0  0  0  0
 16 17  2  0  0  0  0
 16 41  1  0  0  0  0
 17 18  1  0  0  0  0
 17 42  1  0  0  0  0
 18 19  2  0  0  0  0
 19 43  1  0  0  0  0
 20 21  1  0  0  0  0
 20 44  1  0  0  0  0
 20 45  1  0  0  0  0
 21 46  1  0  0  0  0
 21 47  1  0  0  0  0
M  END
> <s_m_source_file>
AV-unprocessed.smi

> <i_m_source_file_index>
2458

> <i_lp_mmshare_version>
43012

> <i_f3d_flags>
0

> <s_epik_input>
W0NIM11bQ0hdKFtDSDNdKVtDQEhdMVtDSDJdW0NIMl1bQ0BASF0oW0NIMl1bQ0gyXTEpQyg9TylbTkhdW0NIMl1bQ0BIXShbT0hdKWMyW2NIXVtjSF1bY0hdbltjSF0y

> <s_epik_cmdline>
J2VwaWtfcHl0aG9uJywgJy1waCcsICc3LjAnLCAnLXRuJywgJzgnLCAnLW1hJywgJzIwMCcsICctbWV0YWxfYmluZGluZycsICctaW1hZScsICc8aW5maWxlLm1hZT4nLCAnLW9tYWUnLCAnPG91dGZpbGUubWFlPic=

> <r_epik_Ionization_Penalty>
0.00169206

> <r_epik_Ionization_Penalty_Charging>
0

> <r_epik_Ionization_Penalty_Neutral>
0.00169206

> <r_epik_State_Penalty>
0.0011427

> <r_epik_Charging_Adjusted_Penalty>
0.0011427

> <i_epik_Tot_Q>
0

> <i_epik_Tot_abs_Q>
0

> <r_epik_Metal_State_Penalty>
-0

> <b_epik_Metal_Only>
0

> <s_lp_Force_Field>
OPLS_2005

> <r_lp_Energy>
18.0059

> <b_lp_Chiralities_Consistent>
1

> <s_lp_Variant>
AV-unprocessed.smi:2458-1

> <Gold.Version>
5.8.1

> <Gold.Id.Protein>
6NUR|6NUR_protein|mol2

> <Gold.PLP.Fitness>
45.3396

> <Gold.PLP.PLP>
-41.5839

> <Gold.PLP.part.hbond>
-1.0000

> <Gold.PLP.part.metal>
0.0000

> <Gold.PLP.part.buried>
-5.0339

> <Gold.PLP.part.nonpolar>
-36.0638

> <Gold.PLP.part.repulsive>
0.3355

> <Gold.PLP.ligand.clash>
0.0000

> <Gold.PLP.ligand.torsion>
1.1379

> <Gold.PLP.Chemscore.Hbond>
1.0000

> <Gold.PLP.Chemscore.CHOScore>
0.9948

> <Gold.PLP.Chemscore.Metal>
0.0000

> <Gold.Chemscore.Hbonds>
donor molecule, donor type, donor heavy atom, donor atom, acceptor molecule, acceptor atom, score
      P1  H 10752 10763       L1    13  1.00
      L1  C    19    43       P1  7948  1.00

> <Gold.PLP.Chemscore.Internal.Correction>
0.0471

> <Gold.Rescore>
     Score         DG    S(hbond)    S(metal)    S(lipo)     H(rot)  DE(clash)    DE(int)     intcor
     16.24     -17.41       0.98        0.00     119.15       2.06       0.11       1.06       ----

> <Gold.Chemscore.Fitness>
16.2370

> <Gold.Chemscore.DG>
-17.4079

> <Gold.Chemscore.ZeroCoef>
-5.4800

> <Gold.Chemscore.Hbond>
0.9755

> <Gold.Chemscore.Metal>
0.0000

> <Gold.Chemscore.Lipo>
119.1481

> <Gold.Chemscore.Internal_Hbond>
0.0000

> <Gold.Chemscore.DEClash>
0.1072

> <Gold.Chemscore.DEInternal>
1.0637

> <Gold.Chemscore.Rot>
2.0588

> <Gold.Chemscore.Internal.Correction>
   9.000000E+99

> <Gold.Chemscore.Hbonds>
donor molecule, donor type, donor heavy atom, donor atom, acceptor molecule, acceptor atom, score
      P1  H 10752 10763       L1    13  0.45

> <Gold.Chemscore.Hbond.Weighted>
-3.2580

> <Gold.Chemscore.Metal.Weighted>
-0.0000

> <Gold.Chemscore.Lipo.Weighted>
-13.9403

> <Gold.Chemscore.Internal_Hbond.Weighted>
0.0000

> <Gold.Chemscore.DEClash.Weighted>
0.1072

> <Gold.Chemscore.DEInternal.Weighted>
1.0637

> <Gold.Chemscore.Rot.Weighted>
5.2705

> <Gold.Chemscore.Internal.Correction.Weighted>
   9.000000E+99

> <Gold.Protein.RotatedTorsions>
[ 6907 6896 6895 6894 ] final   39.73 input  -60.11 | X-H torsion
[ 7974 7965 7964 7962 ] final -124.46 input  175.53 | X-H torsion
[ 8008 7997 7996 7995 ] final -144.03 input   59.86 | X-H torsion
[ 10167 10162 10161 10158 ] final   38.34 input  -65.29 | X-H torsion
[ 10718 10713 10712 10709 ] final -149.34 input   66.30 | X-H torsion
[ 10763 10752 10751 10750 ] final   98.13 input  -60.55 | X-H torsion
[ 11005 11000 10999 10996 ] final -157.07 input  -57.11 | X-H torsion

> <Gold.Protein.ActiveResidues>
 VAL166  LYS551  ARG553  GLY616  TRP617  ASP618  TYR619  PRO620  LYS621  CYS622 
 ASP623  PHE694  ASN695  SER759  ASP760  ASP761  ALA762  ILE779  LEU786  VAL792 
 PHE793  MET794  SER795  GLU796  ALA797  LYS798  CYS799  TRP800  GLU811  SER814 

> <Gold.Protein.RotatedAtoms>
  152.1734  134.8815  160.0532 H   0  0  0  0  0  0  0  0  0  0  0  0  # atno 6907 bound_to 6896
  151.9766  133.3738  159.4100 H   0  0  0  0  0  0  0  0  0  0  0  0  # atno 6908 bound_to 6896
  150.6905  134.4006  159.5161 H   0  0  0  0  0  0  0  0  0  0  0  0  # atno 6909 bound_to 6896
  145.0078  140.7878  143.4457 H   0  0  0  0  0  0  0  0  0  0  0  0  # atno 7974 bound_to 7965
  155.5202  140.0591  157.2908 H   0  0  0  0  0  0  0  0  0  0  0  0  # atno 8008 bound_to 7997
  154.4520  140.1954  156.0437 H   0  0  0  0  0  0  0  0  0  0  0  0  # atno 8009 bound_to 7997
  156.0724  140.3258  155.7596 H   0  0  0  0  0  0  0  0  0  0  0  0  # atno 8010 bound_to 7997
  140.3945  144.1807  150.6131 H   0  0  0  0  0  0  0  0  0  0  0  0  # atno 10167 bound_to 10162
  156.4319  130.8079  151.2307 H   0  0  0  0  0  0  0  0  0  0  0  0  # atno 10718 bound_to 10713
  153.2853  135.4159  155.1117 H   0  0  0  0  0  0  0  0  0  0  0  0  # atno 10763 bound_to 10752
  154.8503  135.3505  154.6055 H   0  0  0  0  0  0  0  0  0  0  0  0  # atno 10764 bound_to 10752
  153.6477  135.7054  153.5277 H   0  0  0  0  0  0  0  0  0  0  0  0  # atno 10765 bound_to 10752
  140.6686  134.4271  157.5232 H   0  0  0  0  0  0  0  0  0  0  0  0  # atno 11005 bound_to 11000
  145.2065  139.2226  143.5165 LP  0  0  0  0  0  0  0  0  0  0  0  0  # atno 17320 bound_to 7965
  146.3464  140.1893  142.8589 LP  0  0  0  0  0  0  0  0  0  0  0  0  # atno 17321 bound_to 7965
  140.4804  143.2381  151.8963 LP  0  0  0  0  0  0  0  0  0  0  0  0  # atno 17342 bound_to 10162
  139.4787  144.5275  151.8714 LP  0  0  0  0  0  0  0  0  0  0  0  0  # atno 17343 bound_to 10162
  157.7508  131.0196  150.3672 LP  0  0  0  0  0  0  0  0  0  0  0  0  # atno 17370 bound_to 10713
  156.4011  130.3916  149.6959 LP  0  0  0  0  0  0  0  0  0  0  0  0  # atno 17371 bound_to 10713
  139.8989  134.8603  156.1983 LP  0  0  0  0  0  0  0  0  0  0  0  0  # atno 17394 bound_to 11000
  141.0409  133.6938  156.1597 LP  0  0  0  0  0  0  0  0  0  0  0  0  # atno 17395 bound_to 11000

$$$$
