AV-unprocessed.smi:1828|AV-procd|sdf|7425|dock5
  -GOLD-   22720 9103D 1   1.00000     0.00000
 Structure written by MMmdl.
 39 41  0  0  0  0  0  0  0  0  1 V2000
  153.9134  136.0081  160.0491 O   0  0  0  0  0  0  0  0  0  0  0  0
  154.6676  136.5501  158.9853 C   0  0  0  0  0  0  0  0  0  0  0  0
  153.8541  137.4443  158.0935 C   0  0  0  0  0  0  0  0  0  0  0  0
  153.7900  137.2272  156.7784 N   0  0  0  0  0  0  0  0  0  0  0  0
  152.9774  138.2502  156.3351 C   0  0  0  0  0  0  0  0  0  0  0  0
  152.5344  138.5726  155.0325 C   0  0  0  0  0  0  0  0  0  0  0  0
  151.6957  139.6859  154.8189 C   0  0  0  0  0  0  0  0  0  0  0  0
  151.2890  140.4909  155.9025 C   0  0  0  0  0  0  0  0  0  0  0  0
  151.7187  140.1861  157.2084 C   0  0  0  0  0  0  0  0  0  0  0  0
  152.5555  139.0729  157.4162 C   0  0  0  0  0  0  0  0  0  0  0  0
  153.1432  138.5122  158.5467 N   0  0  0  0  0  0  0  0  0  0  0  0
  152.9962  139.0183  159.9066 C   0  0  0  0  0  0  0  0  0  0  0  0
  154.1226  139.9982  160.2932 C   0  0  1  0  0  0  0  0  0  0  0  0
  155.0147  140.1008  159.2021 O   0  0  0  0  0  0  0  0  0  0  0  0
  153.5926  141.3537  160.7411 C   0  0  0  0  0  0  0  0  0  0  0  0
  153.6554  141.7461  162.0961 C   0  0  0  0  0  0  0  0  0  0  0  0
  153.1807  143.0115  162.4891 C   0  0  0  0  0  0  0  0  0  0  0  0
  152.6476  143.8943  161.5308 C   0  0  0  0  0  0  0  0  0  0  0  0
  152.5885  143.5183  160.1715 C   0  0  0  0  0  0  0  0  0  0  0  0
  152.0175  144.4695  159.1306 C   0  0  0  0  0  0  0  0  0  0  0  0
  152.9113  144.7090  158.1703 F   0  0  0  0  0  0  0  0  0  0  0  0
  150.9348  143.9195  158.5823 F   0  0  0  0  0  0  0  0  0  0  0  0
  151.6750  145.6347  159.6812 F   0  0  0  0  0  0  0  0  0  0  0  0
  153.0538  142.2427  159.7864 C   0  0  0  0  0  0  0  0  0  0  0  0
  153.0665  136.4266  160.0601 H   0  0  0  0  0  0  0  0  0  0  0  0
  155.4949  137.1278  159.3979 H   0  0  0  0  0  0  0  0  0  0  0  0
  155.1048  135.7198  158.4369 H   0  0  0  0  0  0  0  0  0  0  0  0
  152.8420  137.9626  154.1961 H   0  0  0  0  0  0  0  0  0  0  0  0
  151.3635  139.9236  153.8189 H   0  0  0  0  0  0  0  0  0  0  0  0
  150.6467  141.3423  155.7305 H   0  0  0  0  0  0  0  0  0  0  0  0
  151.4096  140.8016  158.0401 H   0  0  0  0  0  0  0  0  0  0  0  0
  152.0353  139.5321  159.9590 H   0  0  0  0  0  0  0  0  0  0  0  0
  152.9200  138.1950  160.6152 H   0  0  0  0  0  0  0  0  0  0  0  0
  154.6978  139.5676  161.1141 H   0  0  0  0  0  0  0  0  0  0  0  0
  155.7335  140.6598  159.4553 H   0  0  0  0  0  0  0  0  0  0  0  0
  154.0732  141.0818  162.8383 H   0  0  0  0  0  0  0  0  0  0  0  0
  153.2287  143.3075  163.5265 H   0  0  0  0  0  0  0  0  0  0  0  0
  152.2867  144.8624  161.8451 H   0  0  0  0  0  0  0  0  0  0  0  0
  153.0104  141.9479  158.7480 H   0  0  0  0  0  0  0  0  0  0  0  0
  1  2  1  0  0  0  0
  1 25  1  0  0  0  0
  2  3  1  0  0  0  0
  2 26  1  0  0  0  0
  2 27  1  0  0  0  0
  3 11  1  0  0  0  0
  3  4  2  0  0  0  0
  4  5  1  0  0  0  0
  5 10  2  0  0  0  0
  5  6  1  0  0  0  0
  6  7  2  0  0  0  0
  6 28  1  0  0  0  0
  7  8  1  0  0  0  0
  7 29  1  0  0  0  0
  8  9  2  0  0  0  0
  8 30  1  0  0  0  0
  9 10  1  0  0  0  0
  9 31  1  0  0  0  0
 10 11  1  0  0  0  0
 11 12  1  0  0  0  0
 12 13  1  0  0  0  0
 12 32  1  0  0  0  0
 12 33  1  0  0  0  0
 13 14  1  0  0  0  0
 13 15  1  0  0  0  0
 13 34  1  0  0  0  0
 14 35  1  0  0  0  0
 15 24  1  0  0  0  0
 15 16  2  0  0  0  0
 16 17  1  0  0  0  0
 16 36  1  0  0  0  0
 17 18  2  0  0  0  0
 17 37  1  0  0  0  0
 18 19  1  0  0  0  0
 18 38  1  0  0  0  0
 19 20  1  0  0  0  0
 19 24  2  0  0  0  0
 20 21  1  0  0  0  0
 20 22  1  0  0  0  0
 20 23  1  0  0  0  0
 24 39  1  0  0  0  0
M  END
> <s_m_source_file>
AV-unprocessed.smi

> <i_m_source_file_index>
1828

> <i_lp_mmshare_version>
43012

> <i_f3d_flags>
0

> <s_epik_input>
W2NIXTFbY0hdW2NIXVtjSF1jKGMxMiluKGMobjIpW0NIMl1bT0hdKVtDSDJdW0NASF0oW09IXSljM1tjSF1bY0hdW2NIXWMoQyhGKShGKUYpW2NIXTM=

> <s_epik_cmdline>
J2VwaWtfcHl0aG9uJywgJy1waCcsICc3LjAnLCAnLXRuJywgJzgnLCAnLW1hJywgJzIwMCcsICctbWV0YWxfYmluZGluZycsICctaW1hZScsICc8aW5maWxlLm1hZT4nLCAnLW9tYWUnLCAnPG91dGZpbGUubWFlPic=

> <r_epik_Ionization_Penalty>
0.0634719

> <r_epik_Ionization_Penalty_Charging>
0

> <r_epik_Ionization_Penalty_Neutral>
0.0634719

> <r_epik_State_Penalty>
0.0551572

> <r_epik_Charging_Adjusted_Penalty>
0.0551572

> <i_epik_Tot_Q>
0

> <i_epik_Tot_abs_Q>
0

> <r_epik_Metal_State_Penalty>
5.78034e-05

> <b_epik_Metal_Only>
0

> <s_lp_Force_Field>
OPLS_2005

> <r_lp_Energy>
14.211

> <b_lp_Chiralities_Consistent>
1

> <s_lp_Variant>
AV-unprocessed.smi:1828-2

> <Gold.Version>
5.8.1

> <Gold.Id.Protein>
6NUR|6NUR_protein|mol2

> <Gold.PLP.Fitness>
60.1847

> <Gold.PLP.PLP>
-58.1355

> <Gold.PLP.part.hbond>
-3.0000

> <Gold.PLP.part.metal>
0.0000

> <Gold.PLP.part.buried>
-3.5417

> <Gold.PLP.part.nonpolar>
-51.6624

> <Gold.PLP.part.repulsive>
0.0000

> <Gold.PLP.ligand.clash>
1.1004

> <Gold.PLP.ligand.torsion>
1.3706

> <Gold.PLP.Chemscore.Hbond>
1.5702

> <Gold.PLP.Chemscore.CHOScore>
0.0000

> <Gold.PLP.Chemscore.Metal>
0.0000

> <Gold.Chemscore.Hbonds>
donor molecule, donor type, donor heavy atom, donor atom, acceptor molecule, acceptor atom, score
      P1  H  7997  8008       L1    14  0.93
      P1  H 10752 10764       L1     4  0.18

> <Gold.PLP.Chemscore.Internal.Correction>
1.1803

> <Gold.Rescore>
     Score         DG    S(hbond)    S(metal)    S(lipo)     H(rot)  DE(clash)    DE(int)     intcor
     14.13     -17.06       0.90        0.00     137.08       2.91       1.62       1.30       ----

> <Gold.Chemscore.Fitness>
14.1274

> <Gold.Chemscore.DG>
-17.0563

> <Gold.Chemscore.ZeroCoef>
-5.4800

> <Gold.Chemscore.Hbond>
0.8977

> <Gold.Chemscore.Metal>
0.0000

> <Gold.Chemscore.Lipo>
137.0770

> <Gold.Chemscore.Internal_Hbond>
0.0000

> <Gold.Chemscore.DEClash>
1.6240

> <Gold.Chemscore.DEInternal>
1.3049

> <Gold.Chemscore.Rot>
2.9141

> <Gold.Chemscore.Internal.Correction>
   9.000000E+99

> <Gold.Chemscore.Hbonds>
donor molecule, donor type, donor heavy atom, donor atom, acceptor molecule, acceptor atom, score
      P1  H  7997  8008       L1    14  0.45
      P1  H 10752 10764       L1     4  0.15

> <Gold.Chemscore.Hbond.Weighted>
-2.9983

> <Gold.Chemscore.Metal.Weighted>
-0.0000

> <Gold.Chemscore.Lipo.Weighted>
-16.0380

> <Gold.Chemscore.Internal_Hbond.Weighted>
0.0000

> <Gold.Chemscore.DEClash.Weighted>
1.6240

> <Gold.Chemscore.DEInternal.Weighted>
1.3049

> <Gold.Chemscore.Rot.Weighted>
7.4600

> <Gold.Chemscore.Internal.Correction.Weighted>
   9.000000E+99

> <Gold.Protein.RotatedTorsions>
[ 6907 6896 6895 6894 ] final   83.81 input  -60.11 | X-H torsion
[ 7974 7965 7964 7962 ] final  -92.08 input  175.53 | X-H torsion
[ 8008 7997 7996 7995 ] final -117.16 input   59.86 | X-H torsion
[ 10167 10162 10161 10158 ] final  111.99 input  -65.29 | X-H torsion
[ 10718 10713 10712 10709 ] final -120.34 input   66.30 | X-H torsion
[ 10763 10752 10751 10750 ] final    6.90 input  -60.55 | X-H torsion
[ 11005 11000 10999 10996 ] final -100.10 input  -57.11 | X-H torsion

> <Gold.Protein.ActiveResidues>
 VAL166  LYS551  ARG553  GLY616  TRP617  ASP618  TYR619  PRO620  LYS621  CYS622 
 ASP623  PHE694  ASN695  SER759  ASP760  ASP761  ALA762  ILE779  LEU786  VAL792 
 PHE793  MET794  SER795  GLU796  ALA797  LYS798  CYS799  TRP800  GLU811  SER814 

> <Gold.Protein.RotatedAtoms>
  152.5336  134.2839  159.9017 H   0  0  0  0  0  0  0  0  0  0  0  0  # atno 6907 bound_to 6896
  151.2792  133.4211  159.2633 H   0  0  0  0  0  0  0  0  0  0  0  0  # atno 6908 bound_to 6896
  151.0299  134.9546  159.8162 H   0  0  0  0  0  0  0  0  0  0  0  0  # atno 6909 bound_to 6896
  145.4046  140.9540  143.2268 H   0  0  0  0  0  0  0  0  0  0  0  0  # atno 7974 bound_to 7965
  155.0793  140.0394  157.2634 H   0  0  0  0  0  0  0  0  0  0  0  0  # atno 8008 bound_to 7997
  154.6920  140.2655  155.6779 H   0  0  0  0  0  0  0  0  0  0  0  0  # atno 8009 bound_to 7997
  156.2732  140.2757  156.1501 H   0  0  0  0  0  0  0  0  0  0  0  0  # atno 8010 bound_to 7997
  139.6569  144.7129  151.1939 H   0  0  0  0  0  0  0  0  0  0  0  0  # atno 10167 bound_to 10162
  156.1250  130.6352  150.9528 H   0  0  0  0  0  0  0  0  0  0  0  0  # atno 10718 bound_to 10713
  153.2425  135.6905  153.7768 H   0  0  0  0  0  0  0  0  0  0  0  0  # atno 10763 bound_to 10752
  153.6892  135.3315  155.3199 H   0  0  0  0  0  0  0  0  0  0  0  0  # atno 10764 bound_to 10752
  154.8361  135.4541  154.1352 H   0  0  0  0  0  0  0  0  0  0  0  0  # atno 10765 bound_to 10752
  141.1283  133.8373  157.1058 H   0  0  0  0  0  0  0  0  0  0  0  0  # atno 11005 bound_to 11000
  144.8350  139.5564  143.6926 LP  0  0  0  0  0  0  0  0  0  0  0  0  # atno 17320 bound_to 7965
  146.2735  139.6694  142.9279 LP  0  0  0  0  0  0  0  0  0  0  0  0  # atno 17321 bound_to 7965
  140.7563  143.6057  150.8655 LP  0  0  0  0  0  0  0  0  0  0  0  0  # atno 17342 bound_to 10162
  139.9711  143.6055  152.2973 LP  0  0  0  0  0  0  0  0  0  0  0  0  # atno 17343 bound_to 10162
  157.6432  131.0907  150.8208 LP  0  0  0  0  0  0  0  0  0  0  0  0  # atno 17370 bound_to 10713
  156.8299  130.5012  149.5333 LP  0  0  0  0  0  0  0  0  0  0  0  0  # atno 17371 bound_to 10713
  140.0305  134.9903  157.0771 LP  0  0  0  0  0  0  0  0  0  0  0  0  # atno 17394 bound_to 11000
  140.4293  134.1797  155.7167 LP  0  0  0  0  0  0  0  0  0  0  0  0  # atno 17395 bound_to 11000

$$$$
