AV-unprocessed.smi:3009|AV-procd|sdf|11453|dock4
  -GOLD-   2272016383D 1   1.00000     0.00000
 Structure written by MMmdl.
 43 44  0  0  0  0  0  0  0  0  1 V2000
  151.9539  140.6981  158.3683 C   0  0  0  0  0  0  0  0  0  0  0  0
  150.8408  141.4863  157.6575 C   0  0  0  0  0  0  0  0  0  0  0  0
  149.4377  140.9276  157.9511 C   0  0  0  0  0  0  0  0  0  0  0  0
  151.1131  141.7317  156.1527 C   0  0  0  0  0  0  0  0  0  0  0  0
  150.9204  140.6051  155.2334 N   0  0  0  0  0  0  0  0  0  0  0  0
  151.5227  139.3626  155.7093 C   0  0  0  0  0  0  0  0  0  0  0  0
  151.2578  138.1878  154.7523 C   0  0  0  0  0  0  0  0  0  0  0  0
  149.8570  138.0385  154.5513 O   0  0  0  0  0  0  0  0  0  0  0  0
  149.2481  139.2114  154.0172 C   0  0  1  0  0  0  0  0  0  0  0  0
  147.7470  138.9384  153.8206 C   0  0  0  0  0  0  0  0  0  0  0  0
  147.5147  137.7000  153.0852 N   0  0  0  0  0  0  0  0  0  0  0  0
  146.3090  137.1856  152.8061 C   0  0  0  0  0  0  0  0  0  0  0  0
  145.2493  137.7037  153.1596 O   0  0  0  0  0  0  0  0  0  0  0  0
  146.4151  136.0480  152.0999 N   0  0  0  0  0  0  0  0  0  0  0  0
  145.3604  135.2318  151.6186 C   0  0  0  0  0  0  0  0  0  0  0  0
  145.2837  133.8231  151.7918 C   0  0  0  0  0  0  0  0  0  0  0  0
  144.1885  133.3263  151.2347 N   0  0  0  0  0  0  0  0  0  0  0  0
  143.5660  134.4045  150.7066 N   0  0  0  0  0  0  0  0  0  0  0  0
  144.2432  135.5857  150.9152 C   0  0  0  0  0  0  0  0  0  0  0  0
  149.4984  140.3783  154.9921 C   0  0  0  0  0  0  0  0  0  0  0  0
  142.6895  134.3193  150.2115 H   0  0  0  0  0  0  0  0  0  0  0  0
  152.0030  139.6654  158.0227 H   0  0  0  0  0  0  0  0  0  0  0  0
  151.7889  140.6757  159.4457 H   0  0  0  0  0  0  0  0  0  0  0  0
  152.9286  141.1548  158.1943 H   0  0  0  0  0  0  0  0  0  0  0  0
  150.8419  142.4784  158.1111 H   0  0  0  0  0  0  0  0  0  0  0  0
  149.3144  139.9007  157.6137 H   0  0  0  0  0  0  0  0  0  0  0  0
  148.6673  141.5305  157.4698 H   0  0  0  0  0  0  0  0  0  0  0  0
  149.2353  140.9390  159.0226 H   0  0  0  0  0  0  0  0  0  0  0  0
  150.5423  142.5955  155.8087 H   0  0  0  0  0  0  0  0  0  0  0  0
  152.1581  142.0376  156.0818 H   0  0  0  0  0  0  0  0  0  0  0  0
  152.5997  139.4786  155.8043 H   0  0  0  0  0  0  0  0  0  0  0  0
  151.1382  139.1183  156.7007 H   0  0  0  0  0  0  0  0  0  0  0  0
  151.7541  138.3506  153.7943 H   0  0  0  0  0  0  0  0  0  0  0  0
  151.6589  137.2632  155.1674 H   0  0  0  0  0  0  0  0  0  0  0  0
  149.7042  139.4464  153.0537 H   0  0  0  0  0  0  0  0  0  0  0  0
  147.2508  138.8614  154.7884 H   0  0  0  0  0  0  0  0  0  0  0  0
  147.2753  139.7714  153.2964 H   0  0  0  0  0  0  0  0  0  0  0  0
  148.3320  137.2106  152.7512 H   0  0  0  0  0  0  0  0  0  0  0  0
  147.3492  135.7335  151.8817 H   0  0  0  0  0  0  0  0  0  0  0  0
  145.9722  133.1583  152.2930 H   0  0  0  0  0  0  0  0  0  0  0  0
  143.8758  136.5346  150.5532 H   0  0  0  0  0  0  0  0  0  0  0  0
  148.9924  140.1756  155.9376 H   0  0  0  0  0  0  0  0  0  0  0  0
  149.0464  141.2844  154.5861 H   0  0  0  0  0  0  0  0  0  0  0  0
  1  2  1  0  0  0  0
  1 22  1  0  0  0  0
  1 23  1  0  0  0  0
  1 24  1  0  0  0  0
  2  3  1  0  0  0  0
  2  4  1  0  0  0  0
  2 25  1  0  0  0  0
  3 26  1  0  0  0  0
  3 27  1  0  0  0  0
  3 28  1  0  0  0  0
  4  5  1  0  0  0  0
  4 29  1  0  0  0  0
  4 30  1  0  0  0  0
  5 20  1  0  0  0  0
  5  6  1  0  0  0  0
  6  7  1  0  0  0  0
  6 31  1  0  0  0  0
  6 32  1  0  0  0  0
  7  8  1  0  0  0  0
  7 33  1  0  0  0  0
  7 34  1  0  0  0  0
  8  9  1  0  0  0  0
  9 10  1  0  0  0  0
  9 20  1  0  0  0  0
  9 35  1  0  0  0  0
 10 11  1  0  0  0  0
 10 36  1  0  0  0  0
 10 37  1  0  0  0  0
 11 12  1  0  0  0  0
 11 38  1  0  0  0  0
 12 13  2  0  0  0  0
 12 14  1  0  0  0  0
 14 15  1  0  0  0  0
 14 39  1  0  0  0  0
 15 19  2  0  0  0  0
 15 16  1  0  0  0  0
 16 17  2  0  0  0  0
 16 40  1  0  0  0  0
 17 18  1  0  0  0  0
 18 21  1  0  0  0  0
 18 19  1  0  0  0  0
 19 41  1  0  0  0  0
 20 42  1  0  0  0  0
 20 43  1  0  0  0  0
M  END
> <s_m_source_file>
AV-unprocessed.smi

> <i_m_source_file_index>
3009

> <i_lp_mmshare_version>
43012

> <i_f3d_flags>
0

> <s_epik_input>
W0NIM11bQ0hdKFtDSDNdKVtDSDJdTjFbQ0gyXVtDSDJdT1tDQEhdKFtDSDJdMSlbQ0gyXVtOSF1DKD1PKVtOSF1jMltjSF1uW25IXVtjSF0y

> <s_epik_cmdline>
J2VwaWtfcHl0aG9uJywgJy1waCcsICc3LjAnLCAnLXRuJywgJzgnLCAnLW1hJywgJzIwMCcsICctbWV0YWxfYmluZGluZycsICctaW1hZScsICc8aW5maWxlLm1hZT4nLCAnLW9tYWUnLCAnPG91dGZpbGUubWFlPic=

> <r_lp_tautomer_probability>
0.5

> <r_epik_Ionization_Penalty>
1.11801

> <r_epik_Ionization_Penalty_Charging>
0

> <r_epik_Ionization_Penalty_Neutral>
1.11801

> <r_epik_State_Penalty>
1.17654

> <r_epik_Charging_Adjusted_Penalty>
1.17654

> <i_epik_Tot_Q>
0

> <i_epik_Tot_abs_Q>
0

> <r_epik_Metal_State_Penalty>
1.17654

> <b_epik_Metal_Only>
0

> <s_lp_Force_Field>
OPLS_2005

> <r_lp_Energy>
30.4002

> <b_lp_Chiralities_Consistent>
1

> <s_lp_Variant>
AV-unprocessed.smi:3009-5

> <Gold.Version>
5.8.1

> <Gold.Id.Protein>
6NUR|6NUR_protein|mol2

> <Gold.PLP.Fitness>
42.5909

> <Gold.PLP.PLP>
-29.4724

> <Gold.PLP.part.hbond>
-3.8215

> <Gold.PLP.part.metal>
0.0000

> <Gold.PLP.part.buried>
-4.4487

> <Gold.PLP.part.nonpolar>
-22.2500

> <Gold.PLP.part.repulsive>
0.6732

> <Gold.PLP.ligand.clash>
0.0000

> <Gold.PLP.ligand.torsion>
0.6622

> <Gold.PLP.Chemscore.Hbond>
3.7952

> <Gold.PLP.Chemscore.CHOScore>
1.0000

> <Gold.PLP.Chemscore.Metal>
0.0000

> <Gold.Chemscore.Hbonds>
donor molecule, donor type, donor heavy atom, donor atom, acceptor molecule, acceptor atom, score
      L1  H    11    38       P1  7948  0.81
      L1  H    14    39       P1  7948  0.88
      L1  H    18    21       P1 10186  1.00
      P1  H  7989  7998       L1     5  0.93
      L1  C    19    41       P1 10171  1.00

> <Gold.PLP.Chemscore.Internal.Correction>
0.0573

> <Gold.Rescore>
     Score         DG    S(hbond)    S(metal)    S(lipo)     H(rot)  DE(clash)    DE(int)     intcor
     17.44     -18.59       2.90        0.00      67.80       1.76       0.08       1.06       ----

> <Gold.Chemscore.Fitness>
17.4444

> <Gold.Chemscore.DG>
-18.5864

> <Gold.Chemscore.ZeroCoef>
-5.4800

> <Gold.Chemscore.Hbond>
2.8957

> <Gold.Chemscore.Metal>
0.0000

> <Gold.Chemscore.Lipo>
67.7969

> <Gold.Chemscore.Internal_Hbond>
0.0000

> <Gold.Chemscore.DEClash>
0.0840

> <Gold.Chemscore.DEInternal>
1.0581

> <Gold.Chemscore.Rot>
1.7568

> <Gold.Chemscore.Internal.Correction>
   9.000000E+99

> <Gold.Chemscore.Hbonds>
donor molecule, donor type, donor heavy atom, donor atom, acceptor molecule, acceptor atom, score
      L1  H    11    38       P1  7948  0.75
      L1  H    14    39       P1  7948  0.86
      L1  H    18    21       P1 10186  0.85
      P1  H  7989  7998       L1     5  0.20

> <Gold.Chemscore.Hbond.Weighted>
-9.6716

> <Gold.Chemscore.Metal.Weighted>
-0.0000

> <Gold.Chemscore.Lipo.Weighted>
-7.9322

> <Gold.Chemscore.Internal_Hbond.Weighted>
0.0000

> <Gold.Chemscore.DEClash.Weighted>
0.0840

> <Gold.Chemscore.DEInternal.Weighted>
1.0581

> <Gold.Chemscore.Rot.Weighted>
4.4974

> <Gold.Chemscore.Internal.Correction.Weighted>
   9.000000E+99

> <Gold.Protein.RotatedTorsions>
[ 6907 6896 6895 6894 ] final  -27.08 input  -60.11 | X-H torsion
[ 7974 7965 7964 7962 ] final -176.82 input  175.53 | X-H torsion
[ 8008 7997 7996 7995 ] final  -61.13 input   59.86 | X-H torsion
[ 10167 10162 10161 10158 ] final  -37.57 input  -65.29 | X-H torsion
[ 10718 10713 10712 10709 ] final   62.81 input   66.30 | X-H torsion
[ 10763 10752 10751 10750 ] final  162.76 input  -60.55 | X-H torsion
[ 11005 11000 10999 10996 ] final  -78.24 input  -57.11 | X-H torsion

> <Gold.Protein.ActiveResidues>
 VAL166  LYS551  ARG553  GLY616  TRP617  ASP618  TYR619  PRO620  LYS621  CYS622 
 ASP623  PHE694  ASN695  SER759  ASP760  ASP761  ALA762  ILE779  LEU786  VAL792 
 PHE793  MET794  SER795  GLU796  ALA797  LYS798  CYS799  TRP800  GLU811  SER814 

> <Gold.Protein.RotatedAtoms>
  151.1520  135.0231  159.8671 H   0  0  0  0  0  0  0  0  0  0  0  0  # atno 6907 bound_to 6896
  152.5452  134.1378  159.8476 H   0  0  0  0  0  0  0  0  0  0  0  0  # atno 6908 bound_to 6896
  151.1464  133.4891  159.2628 H   0  0  0  0  0  0  0  0  0  0  0  0  # atno 6909 bound_to 6896
  144.7127  140.1112  143.6411 H   0  0  0  0  0  0  0  0  0  0  0  0  # atno 7974 bound_to 7965
  154.4432  140.1024  156.6382 H   0  0  0  0  0  0  0  0  0  0  0  0  # atno 8008 bound_to 7997
  155.5530  140.3486  155.4454 H   0  0  0  0  0  0  0  0  0  0  0  0  # atno 8009 bound_to 7997
  156.0515  140.1305  157.0034 H   0  0  0  0  0  0  0  0  0  0  0  0  # atno 8010 bound_to 7997
  140.7115  143.3333  151.2519 H   0  0  0  0  0  0  0  0  0  0  0  0  # atno 10167 bound_to 10162
  157.5927  130.9070  149.9635 H   0  0  0  0  0  0  0  0  0  0  0  0  # atno 10718 bound_to 10713
  154.2834  135.2762  155.2687 H   0  0  0  0  0  0  0  0  0  0  0  0  # atno 10763 bound_to 10752
  154.5198  135.5759  153.6675 H   0  0  0  0  0  0  0  0  0  0  0  0  # atno 10764 bound_to 10752
  152.9925  135.6201  154.2994 H   0  0  0  0  0  0  0  0  0  0  0  0  # atno 10765 bound_to 10752
  141.1664  133.7055  156.7942 H   0  0  0  0  0  0  0  0  0  0  0  0  # atno 11005 bound_to 11000
  145.9453  139.2696  143.1244 LP  0  0  0  0  0  0  0  0  0  0  0  0  # atno 17320 bound_to 7965
  145.9381  140.9000  143.0322 LP  0  0  0  0  0  0  0  0  0  0  0  0  # atno 17321 bound_to 7965
  139.6821  143.9836  152.2814 LP  0  0  0  0  0  0  0  0  0  0  0  0  # atno 17342 bound_to 10162
  139.9470  144.6645  150.8210 LP  0  0  0  0  0  0  0  0  0  0  0  0  # atno 17343 bound_to 10162
  156.0984  130.3657  150.0263 LP  0  0  0  0  0  0  0  0  0  0  0  0  # atno 17370 bound_to 10713
  156.8383  130.9417  151.3633 LP  0  0  0  0  0  0  0  0  0  0  0  0  # atno 17371 bound_to 10713
  140.2303  134.8690  157.3470 LP  0  0  0  0  0  0  0  0  0  0  0  0  # atno 17394 bound_to 11000
  140.1897  134.4386  155.7723 LP  0  0  0  0  0  0  0  0  0  0  0  0  # atno 17395 bound_to 11000

$$$$
