AV-unprocessed.smi:613|AV-procd|sdf|3066|dock2
  -GOLD-   2262023593D 1   1.00000     0.00000
 Structure written by MMmdl.
 39 40  0  0  0  0  0  0  0  0  2 V2000
  150.1325  142.4751  155.6665 C   0  0  0  0  0  0  0  0  0  0  0  0
  150.9882  142.0622  156.7725 N   0  0  0  0  0  0  0  0  0  0  0  0
  151.7946  140.8505  156.6193 C   0  0  0  0  0  0  0  0  0  0  0  0
  150.9909  139.6714  156.0408 C   0  0  2  0  0  0  0  0  0  0  0  0
  151.4602  138.3219  156.6209 C   0  0  0  0  0  0  0  0  0  0  0  0
  150.7526  137.1899  156.0154 N   0  0  0  0  0  0  0  0  0  0  0  0
  151.1493  135.8803  156.5496 C   0  0  0  0  0  0  0  0  0  0  0  0
  150.1397  134.7541  156.2912 C   0  0  0  0  0  0  0  0  0  0  0  0
  149.8823  134.4463  155.0176 N   0  0  0  0  0  0  0  0  0  0  0  0
  149.6036  134.1671  157.2290 O   0  0  0  0  0  0  0  0  0  0  0  0
  150.8949  137.2421  154.5635 C   0  0  0  0  0  0  0  0  0  0  0  0
  150.4437  138.5962  153.9927 C   0  0  0  0  0  0  0  0  0  0  0  0
  151.1706  139.6423  154.6270 O   0  0  0  0  0  0  0  0  0  0  0  0
  151.2892  143.0001  157.7880 C   0  0  0  0  0  0  0  0  0  0  0  0
  152.2824  142.7746  158.7727 C   0  0  0  0  0  0  0  0  0  0  0  0
  152.5107  143.7630  159.7450 C   0  0  0  0  0  0  0  0  0  0  0  0
  151.7329  144.9309  159.6804 C   0  0  0  0  0  0  0  0  0  0  0  0
  150.7911  145.1391  158.7354 N   0  0  0  0  0  0  0  0  0  0  0  0
  150.5994  144.1735  157.8204 N   0  3  0  0  0  0  0  0  0  0  0  0
  149.1283  142.7067  156.0226 H   0  0  0  0  0  0  0  0  0  0  0  0
  150.0453  141.6826  154.9226 H   0  0  0  0  0  0  0  0  0  0  0  0
  150.5411  143.3550  155.1685 H   0  0  0  0  0  0  0  0  0  0  0  0
  152.6915  141.0346  156.0276 H   0  0  0  0  0  0  0  0  0  0  0  0
  152.1579  140.5778  157.6109 H   0  0  0  0  0  0  0  0  0  0  0  0
  149.9314  139.8051  156.2681 H   0  0  0  0  0  0  0  0  0  0  0  0
  152.5351  138.2103  156.4673 H   0  0  0  0  0  0  0  0  0  0  0  0
  151.3021  138.3425  157.6993 H   0  0  0  0  0  0  0  0  0  0  0  0
  152.0921  135.5711  156.0961 H   0  0  0  0  0  0  0  0  0  0  0  0
  151.3390  135.9606  157.6218 H   0  0  0  0  0  0  0  0  0  0  0  0
  149.2288  133.7090  154.7975 H   0  0  0  0  0  0  0  0  0  0  0  0
  150.3481  134.9511  154.2773 H   0  0  0  0  0  0  0  0  0  0  0  0
  151.9347  137.0627  154.2841 H   0  0  0  0  0  0  0  0  0  0  0  0
  150.3079  136.4472  154.1016 H   0  0  0  0  0  0  0  0  0  0  0  0
  150.6263  138.6358  152.9186 H   0  0  0  0  0  0  0  0  0  0  0  0
  149.3730  138.7438  154.1421 H   0  0  0  0  0  0  0  0  0  0  0  0
  152.8676  141.8678  158.7997 H   0  0  0  0  0  0  0  0  0  0  0  0
  153.2567  143.6302  160.5147 H   0  0  0  0  0  0  0  0  0  0  0  0
  151.8686  145.7208  160.4046 H   0  0  0  0  0  0  0  0  0  0  0  0
  149.8846  144.3239  157.1081 H   0  0  0  0  0  0  0  0  0  0  0  0
  1  2  1  0  0  0  0
  1 20  1  0  0  0  0
  1 21  1  0  0  0  0
  1 22  1  0  0  0  0
  2  3  1  0  0  0  0
  2 14  1  0  0  0  0
  3  4  1  0  0  0  0
  3 23  1  0  0  0  0
  3 24  1  0  0  0  0
  4 13  1  0  0  0  0
  4  5  1  0  0  0  0
  4 25  1  0  0  0  0
  5  6  1  0  0  0  0
  5 26  1  0  0  0  0
  5 27  1  0  0  0  0
  6  7  1  0  0  0  0
  6 11  1  0  0  0  0
  7  8  1  0  0  0  0
  7 28  1  0  0  0  0
  7 29  1  0  0  0  0
  8  9  1  0  0  0  0
  8 10  2  0  0  0  0
  9 30  1  0  0  0  0
  9 31  1  0  0  0  0
 11 12  1  0  0  0  0
 11 32  1  0  0  0  0
 11 33  1  0  0  0  0
 12 13  1  0  0  0  0
 12 34  1  0  0  0  0
 12 35  1  0  0  0  0
 14 19  1  0  0  0  0
 14 15  2  0  0  0  0
 15 16  1  0  0  0  0
 15 36  1  0  0  0  0
 16 17  2  0  0  0  0
 16 37  1  0  0  0  0
 17 18  1  0  0  0  0
 17 38  1  0  0  0  0
 18 19  2  0  0  0  0
 19 39  1  0  0  0  0
M  CHG  1  19   1
M  END
> <s_m_source_file>
AV-unprocessed.smi

> <i_m_source_file_index>
613

> <i_lp_mmshare_version>
43012

> <i_f3d_flags>
0

> <s_epik_input>
bjFuW2NIXVtjSF1bY0hdYzFOKFtDSDNdKVtDSDJdW0NAQEhdMltDSDJdTihbQ0gyXVtDSDJdTzIpW0NIMl1DKD1PKVtOSDJd

> <s_epik_cmdline>
J2VwaWtfcHl0aG9uJywgJy1waCcsICc3LjAnLCAnLXRuJywgJzgnLCAnLW1hJywgJzIwMCcsICctbWV0YWxfYmluZGluZycsICctaW1hZScsICc8aW5maWxlLm1hZT4nLCAnLW9tYWUnLCAnPG91dGZpbGUubWFlPic=

> <r_lp_tautomer_probability>
0.966961

> <r_epik_Ionization_Penalty>
1.86301

> <r_epik_Ionization_Penalty_Charging>
1.86058

> <r_epik_Ionization_Penalty_Neutral>
0.00243207

> <r_epik_State_Penalty>
1.48112

> <r_epik_Charging_Adjusted_Penalty>
3.3417

> <i_epik_Tot_Q>
1

> <i_epik_Tot_abs_Q>
1

> <r_epik_Metal_State_Penalty>
1.50193

> <b_epik_Metal_Only>
0

> <s_lp_Force_Field>
OPLS_2005

> <r_lp_Energy>
27.1625

> <b_lp_Chiralities_Consistent>
1

> <s_lp_Variant>
AV-unprocessed.smi:613-3

> <Gold.Version>
5.8.1

> <Gold.Id.Protein>
6NUR|6NUR_protein|mol2

> <Gold.PLP.Fitness>
42.2394

> <Gold.PLP.PLP>
-31.8747

> <Gold.PLP.part.hbond>
-3.4055

> <Gold.PLP.part.metal>
0.0000

> <Gold.PLP.part.buried>
-2.7165

> <Gold.PLP.part.nonpolar>
-26.2347

> <Gold.PLP.part.repulsive>
0.3668

> <Gold.PLP.ligand.clash>
0.0000

> <Gold.PLP.ligand.torsion>
0.8996

> <Gold.PLP.Chemscore.Hbond>
3.9760

> <Gold.PLP.Chemscore.CHOScore>
0.0000

> <Gold.PLP.Chemscore.Metal>
0.0000

> <Gold.Chemscore.Hbonds>
donor molecule, donor type, donor heavy atom, donor atom, acceptor molecule, acceptor atom, score
      L1  H    19    39       P1  8028  2.00
      P1  H  6896  6907       L1    10  0.16
      P1  H  7989  7998       L1    13  1.00

> <Gold.PLP.Chemscore.Internal.Correction>
0.2360

> <Gold.Rescore>
     Score         DG    S(hbond)    S(metal)    S(lipo)     H(rot)  DE(clash)    DE(int)     intcor
     15.28     -18.63       2.84        0.00      80.13       2.23       1.43       1.92       ----

> <Gold.Chemscore.Fitness>
15.2800

> <Gold.Chemscore.DG>
-18.6272

> <Gold.Chemscore.ZeroCoef>
-5.4800

> <Gold.Chemscore.Hbond>
2.8422

> <Gold.Chemscore.Metal>
0.0000

> <Gold.Chemscore.Lipo>
80.1300

> <Gold.Chemscore.Internal_Hbond>
0.0000

> <Gold.Chemscore.DEClash>
1.4258

> <Gold.Chemscore.DEInternal>
1.9215

> <Gold.Chemscore.Rot>
2.2348

> <Gold.Chemscore.Internal.Correction>
   9.000000E+99

> <Gold.Chemscore.Hbonds>
donor molecule, donor type, donor heavy atom, donor atom, acceptor molecule, acceptor atom, score
      L1  H    19    39       P1  8028  0.60
      P1  H  6896  6907       L1    10  0.16
      P1  H  7989  7998       L1    13  0.78

> <Gold.Chemscore.Hbond.Weighted>
-9.4931

> <Gold.Chemscore.Metal.Weighted>
-0.0000

> <Gold.Chemscore.Lipo.Weighted>
-9.3752

> <Gold.Chemscore.Internal_Hbond.Weighted>
0.0000

> <Gold.Chemscore.DEClash.Weighted>
1.4258

> <Gold.Chemscore.DEInternal.Weighted>
1.9215

> <Gold.Chemscore.Rot.Weighted>
5.7211

> <Gold.Chemscore.Internal.Correction.Weighted>
   9.000000E+99

> <Gold.Protein.RotatedTorsions>
[ 6907 6896 6895 6894 ] final  -99.00 input  -60.11 | X-H torsion
[ 7974 7965 7964 7962 ] final -151.58 input  175.53 | X-H torsion
[ 8008 7997 7996 7995 ] final   81.00 input   59.86 | X-H torsion
[ 10167 10162 10161 10158 ] final -158.15 input  -65.29 | X-H torsion
[ 10718 10713 10712 10709 ] final   52.41 input   66.30 | X-H torsion
[ 10763 10752 10751 10750 ] final   57.11 input  -60.55 | X-H torsion
[ 11005 11000 10999 10996 ] final  111.24 input  -57.11 | X-H torsion

> <Gold.Protein.ActiveResidues>
 VAL166  LYS551  ARG553  GLY616  TRP617  ASP618  TYR619  PRO620  LYS621  CYS622 
 ASP623  PHE694  ASN695  SER759  ASP760  ASP761  ALA762  ILE779  LEU786  VAL792 
 PHE793  MET794  SER795  GLU796  ALA797  LYS798  CYS799  TRP800  GLU811  SER814 

> <Gold.Protein.RotatedAtoms>
  150.7065  134.1108  159.3999 H   0  0  0  0  0  0  0  0  0  0  0  0  # atno 6907 bound_to 6896
  151.9094  135.0343  160.0522 H   0  0  0  0  0  0  0  0  0  0  0  0  # atno 6908 bound_to 6896
  152.2348  133.5052  159.5273 H   0  0  0  0  0  0  0  0  0  0  0  0  # atno 6909 bound_to 6896
  144.7842  140.4779  143.5818 H   0  0  0  0  0  0  0  0  0  0  0  0  # atno 7974 bound_to 7965
  155.8912  140.3438  155.5957 H   0  0  0  0  0  0  0  0  0  0  0  0  # atno 8008 bound_to 7997
  155.7609  140.0832  157.2175 H   0  0  0  0  0  0  0  0  0  0  0  0  # atno 8009 bound_to 7997
  154.4033  140.1536  156.2818 H   0  0  0  0  0  0  0  0  0  0  0  0  # atno 8010 bound_to 7997
  139.6715  143.9737  152.2286 H   0  0  0  0  0  0  0  0  0  0  0  0  # atno 10167 bound_to 10162
  157.5072  130.8477  149.8390 H   0  0  0  0  0  0  0  0  0  0  0  0  # atno 10718 bound_to 10713
  152.9844  135.5653  154.5337 H   0  0  0  0  0  0  0  0  0  0  0  0  # atno 10763 bound_to 10752
  154.4804  135.2788  155.1577 H   0  0  0  0  0  0  0  0  0  0  0  0  # atno 10764 bound_to 10752
  154.3088  135.6292  153.5509 H   0  0  0  0  0  0  0  0  0  0  0  0  # atno 10765 bound_to 10752
  139.8899  134.9503  156.6401 H   0  0  0  0  0  0  0  0  0  0  0  0  # atno 11005 bound_to 11000
  145.5967  139.1500  143.3152 LP  0  0  0  0  0  0  0  0  0  0  0  0  # atno 17320 bound_to 7965
  146.2066  140.6090  142.9078 LP  0  0  0  0  0  0  0  0  0  0  0  0  # atno 17321 bound_to 7965
  139.9503  144.6625  150.8179 LP  0  0  0  0  0  0  0  0  0  0  0  0  # atno 17342 bound_to 10162
  140.7620  143.3187  151.2673 LP  0  0  0  0  0  0  0  0  0  0  0  0  # atno 17343 bound_to 10162
  156.0266  130.3777  150.1806 LP  0  0  0  0  0  0  0  0  0  0  0  0  # atno 17370 bound_to 10713
  156.9996  130.9918  151.3394 LP  0  0  0  0  0  0  0  0  0  0  0  0  # atno 17371 bound_to 10713
  140.7600  133.8825  155.8411 LP  0  0  0  0  0  0  0  0  0  0  0  0  # atno 17394 bound_to 11000
  140.9930  134.1253  157.4390 LP  0  0  0  0  0  0  0  0  0  0  0  0  # atno 17395 bound_to 11000

$$$$
