AV-unprocessed.smi:1474|AV-procd|sdf|5974|dock5
  -GOLD-   22720 6 63D 1   1.00000     0.00000
 Structure written by MMmdl.
 43 44  0  0  0  0  0  0  0  0  1 V2000
  151.5729  143.9340  158.4577 C   0  0  0  0  0  0  0  0  0  0  0  0
  150.5870  142.9321  158.2804 O   0  0  0  0  0  0  0  0  0  0  0  0
  150.9713  141.9550  157.3278 C   0  0  0  0  0  0  0  0  0  0  0  0
  149.8204  140.9638  157.1366 C   0  0  0  0  0  0  0  0  0  0  0  0
  148.8219  141.5738  156.3243 O   0  0  0  0  0  0  0  0  0  0  0  0
  148.2818  140.8434  155.2855 C   0  0  0  0  0  0  0  0  0  0  0  0
  148.9642  139.6901  154.8473 C   0  0  0  0  0  0  0  0  0  0  0  0
  148.4261  138.9484  153.7784 C   0  0  0  0  0  0  0  0  0  0  0  0
  147.2218  139.3815  153.1879 C   0  0  0  0  0  0  0  0  0  0  0  0
  146.6170  138.6333  152.0140 C   0  0  0  0  0  0  0  0  0  0  0  0
  145.2169  138.2934  152.2365 N   0  0  0  0  0  0  0  0  0  0  0  0
  144.7422  137.0435  152.3568 C   0  0  0  0  0  0  0  0  0  0  0  0
  145.4502  136.0441  152.2284 O   0  0  0  0  0  0  0  0  0  0  0  0
  143.2397  136.9098  152.6685 C   0  0  2  0  0  0  0  0  0  0  0  0
  142.8738  137.5440  154.0234 C   0  0  0  0  0  0  0  0  0  0  0  0
  143.4155  136.7502  155.2274 C   0  0  0  0  0  0  0  0  0  0  0  0
  143.2359  135.2305  155.0948 C   0  0  0  0  0  0  0  0  0  0  0  0
  143.3438  134.5208  156.0920 O   0  0  0  0  0  0  0  0  0  0  0  0
  143.0056  134.7032  153.8794 N   0  0  0  0  0  0  0  0  0  0  0  0
  142.7462  135.4451  152.6434 C   0  0  0  0  0  0  0  0  0  0  0  0
  146.6095  140.5445  153.6998 C   0  0  0  0  0  0  0  0  0  0  0  0
  147.1210  141.2623  154.7222 N   0  0  0  0  0  0  0  0  0  0  0  0
  151.2279  144.6615  159.1923 H   0  0  0  0  0  0  0  0  0  0  0  0
  151.7687  144.4647  157.5252 H   0  0  0  0  0  0  0  0  0  0  0  0
  152.5084  143.5066  158.8207 H   0  0  0  0  0  0  0  0  0  0  0  0
  151.2110  142.4346  156.3774 H   0  0  0  0  0  0  0  0  0  0  0  0
  151.8647  141.4288  157.6676 H   0  0  0  0  0  0  0  0  0  0  0  0
  150.1928  140.0535  156.6640 H   0  0  0  0  0  0  0  0  0  0  0  0
  149.4042  140.6954  158.1090 H   0  0  0  0  0  0  0  0  0  0  0  0
  149.8870  139.3842  155.3179 H   0  0  0  0  0  0  0  0  0  0  0  0
  148.9326  138.0661  153.4157 H   0  0  0  0  0  0  0  0  0  0  0  0
  146.6820  139.2613  151.1249 H   0  0  0  0  0  0  0  0  0  0  0  0
  147.1967  137.7342  151.7982 H   0  0  0  0  0  0  0  0  0  0  0  0
  144.5702  139.0614  152.3440 H   0  0  0  0  0  0  0  0  0  0  0  0
  142.7037  137.4489  151.8853 H   0  0  0  0  0  0  0  0  0  0  0  0
  143.2392  138.5709  154.0694 H   0  0  0  0  0  0  0  0  0  0  0  0
  141.7881  137.6123  154.1017 H   0  0  0  0  0  0  0  0  0  0  0  0
  144.4812  136.9465  155.3494 H   0  0  0  0  0  0  0  0  0  0  0  0
  142.9344  137.0931  156.1439 H   0  0  0  0  0  0  0  0  0  0  0  0
  142.9375  133.6975  153.8197 H   0  0  0  0  0  0  0  0  0  0  0  0
  141.6691  135.4303  152.4732 H   0  0  0  0  0  0  0  0  0  0  0  0
  143.1908  134.9011  151.8090 H   0  0  0  0  0  0  0  0  0  0  0  0
  145.6909  140.9168  153.2709 H   0  0  0  0  0  0  0  0  0  0  0  0
  1  2  1  0  0  0  0
  1 23  1  0  0  0  0
  1 24  1  0  0  0  0
  1 25  1  0  0  0  0
  2  3  1  0  0  0  0
  3  4  1  0  0  0  0
  3 26  1  0  0  0  0
  3 27  1  0  0  0  0
  4  5  1  0  0  0  0
  4 28  1  0  0  0  0
  4 29  1  0  0  0  0
  5  6  1  0  0  0  0
  6 22  1  0  0  0  0
  6  7  2  0  0  0  0
  7  8  1  0  0  0  0
  7 30  1  0  0  0  0
  8  9  2  0  0  0  0
  8 31  1  0  0  0  0
  9 10  1  0  0  0  0
  9 21  1  0  0  0  0
 10 11  1  0  0  0  0
 10 32  1  0  0  0  0
 10 33  1  0  0  0  0
 11 12  1  0  0  0  0
 11 34  1  0  0  0  0
 12 13  2  0  0  0  0
 12 14  1  0  0  0  0
 14 20  1  0  0  0  0
 14 15  1  0  0  0  0
 14 35  1  0  0  0  0
 15 16  1  0  0  0  0
 15 36  1  0  0  0  0
 15 37  1  0  0  0  0
 16 17  1  0  0  0  0
 16 38  1  0  0  0  0
 16 39  1  0  0  0  0
 17 18  2  0  0  0  0
 17 19  1  0  0  0  0
 19 20  1  0  0  0  0
 19 40  1  0  0  0  0
 20 41  1  0  0  0  0
 20 42  1  0  0  0  0
 21 22  2  0  0  0  0
 21 43  1  0  0  0  0
M  END
> <s_m_source_file>
AV-unprocessed.smi

> <i_m_source_file_index>
1474

> <i_lp_mmshare_version>
43012

> <i_f3d_flags>
0

> <s_epik_input>
W0NIM11PW0NIMl1bQ0gyXU9jMVtjSF1bY0hdYyhbY0hdbjEpW0NIMl1bTkhdQyg9TylbQ0BASF0yW0NIMl1bQ0gyXUMoPU8pW05IXVtDSDJdMg==

> <s_epik_cmdline>
J2VwaWtfcHl0aG9uJywgJy1waCcsICc3LjAnLCAnLXRuJywgJzgnLCAnLW1hJywgJzIwMCcsICctbWV0YWxfYmluZGluZycsICctaW1hZScsICc8aW5maWxlLm1hZT4nLCAnLW9tYWUnLCAnPG91dGZpbGUubWFlPic=

> <r_lp_tautomer_probability>
1

> <r_epik_Ionization_Penalty>
6.19599e-05

> <r_epik_Ionization_Penalty_Charging>
0

> <r_epik_Ionization_Penalty_Neutral>
6.19599e-05

> <r_epik_State_Penalty>
-0

> <r_epik_Charging_Adjusted_Penalty>
0

> <i_epik_Tot_Q>
0

> <i_epik_Tot_abs_Q>
0

> <r_epik_Metal_State_Penalty>
-0

> <b_epik_Metal_Only>
0

> <s_lp_Force_Field>
OPLS_2005

> <r_lp_Energy>
10.5341

> <b_lp_Chiralities_Consistent>
1

> <s_lp_Variant>
AV-unprocessed.smi:1474-1

> <Gold.Version>
5.8.1

> <Gold.Id.Protein>
6NUR|6NUR_protein|mol2

> <Gold.PLP.Fitness>
38.7178

> <Gold.PLP.PLP>
-31.0675

> <Gold.PLP.part.hbond>
-3.5216

> <Gold.PLP.part.metal>
0.0000

> <Gold.PLP.part.buried>
-3.2328

> <Gold.PLP.part.nonpolar>
-27.2125

> <Gold.PLP.part.repulsive>
1.3353

> <Gold.PLP.ligand.clash>
0.0000

> <Gold.PLP.ligand.torsion>
0.7223

> <Gold.PLP.Chemscore.Hbond>
1.9913

> <Gold.PLP.Chemscore.CHOScore>
1.0000

> <Gold.PLP.Chemscore.Metal>
0.0000

> <Gold.Chemscore.Hbonds>
donor molecule, donor type, donor heavy atom, donor atom, acceptor molecule, acceptor atom, score
      L1  H    11    34       P1 10175  1.00
      L1  H    19    40       P1 10957  0.65
      P1  H 11000 11005       L1    18  0.05
      L1  C    21    43       P1 10175  1.00

> <Gold.PLP.Chemscore.Internal.Correction>
0.1210

> <Gold.Rescore>
     Score         DG    S(hbond)    S(metal)    S(lipo)     H(rot)  DE(clash)    DE(int)     intcor
     13.70     -14.65       2.41        0.00      64.67       2.52       0.13       0.82       ----

> <Gold.Chemscore.Fitness>
13.7031

> <Gold.Chemscore.DG>
-14.6499

> <Gold.Chemscore.ZeroCoef>
-5.4800

> <Gold.Chemscore.Hbond>
2.4115

> <Gold.Chemscore.Metal>
0.0000

> <Gold.Chemscore.Lipo>
64.6735

> <Gold.Chemscore.Internal_Hbond>
0.0000

> <Gold.Chemscore.DEClash>
0.1272

> <Gold.Chemscore.DEInternal>
0.8196

> <Gold.Chemscore.Rot>
2.5201

> <Gold.Chemscore.Internal.Correction>
   9.000000E+99

> <Gold.Chemscore.Hbonds>
donor molecule, donor type, donor heavy atom, donor atom, acceptor molecule, acceptor atom, score
      L1  H    11    34       P1 10175  1.00
      L1  H    19    40       P1 10957  0.61
      P1  H 11000 11005       L1    18  0.06

> <Gold.Chemscore.Hbond.Weighted>
-8.0546

> <Gold.Chemscore.Metal.Weighted>
-0.0000

> <Gold.Chemscore.Lipo.Weighted>
-7.5668

> <Gold.Chemscore.Internal_Hbond.Weighted>
0.0000

> <Gold.Chemscore.DEClash.Weighted>
0.1272

> <Gold.Chemscore.DEInternal.Weighted>
0.8196

> <Gold.Chemscore.Rot.Weighted>
6.4514

> <Gold.Chemscore.Internal.Correction.Weighted>
   9.000000E+99

> <Gold.Protein.RotatedTorsions>
[ 6907 6896 6895 6894 ] final   38.08 input  -60.11 | X-H torsion
[ 7974 7965 7964 7962 ] final  173.76 input  175.53 | X-H torsion
[ 8008 7997 7996 7995 ] final  135.14 input   59.86 | X-H torsion
[ 10167 10162 10161 10158 ] final  117.09 input  -65.29 | X-H torsion
[ 10718 10713 10712 10709 ] final  119.79 input   66.30 | X-H torsion
[ 10763 10752 10751 10750 ] final -116.08 input  -60.55 | X-H torsion
[ 11005 11000 10999 10996 ] final  -87.18 input  -57.11 | X-H torsion

> <Gold.Protein.ActiveResidues>
 VAL166  LYS551  ARG553  GLY616  TRP617  ASP618  TYR619  PRO620  LYS621  CYS622 
 ASP623  PHE694  ASN695  SER759  ASP760  ASP761  ALA762  ILE779  LEU786  VAL792 
 PHE793  MET794  SER795  GLU796  ALA797  LYS798  CYS799  TRP800  GLU811  SER814 

> <Gold.Protein.RotatedAtoms>
  152.1517  134.8983  160.0547 H   0  0  0  0  0  0  0  0  0  0  0  0  # atno 6907 bound_to 6896
  152.0012  133.3821  159.4191 H   0  0  0  0  0  0  0  0  0  0  0  0  # atno 6908 bound_to 6896
  150.6876  134.3754  159.5054 H   0  0  0  0  0  0  0  0  0  0  0  0  # atno 6909 bound_to 6896
  144.7236  139.9696  143.6437 H   0  0  0  0  0  0  0  0  0  0  0  0  # atno 7974 bound_to 7965
  156.3002  140.2478  156.3533 H   0  0  0  0  0  0  0  0  0  0  0  0  # atno 8008 bound_to 7997
  154.8945  140.0408  157.1877 H   0  0  0  0  0  0  0  0  0  0  0  0  # atno 8009 bound_to 7997
  154.8563  140.2913  155.5571 H   0  0  0  0  0  0  0  0  0  0  0  0  # atno 8010 bound_to 7997
  139.6202  144.7099  151.2650 H   0  0  0  0  0  0  0  0  0  0  0  0  # atno 10167 bound_to 10162
  157.5937  131.1061  150.7945 H   0  0  0  0  0  0  0  0  0  0  0  0  # atno 10718 bound_to 10713
  154.8506  135.4358  154.1764 H   0  0  0  0  0  0  0  0  0  0  0  0  # atno 10763 bound_to 10752
  153.2865  135.6958  153.7340 H   0  0  0  0  0  0  0  0  0  0  0  0  # atno 10764 bound_to 10752
  153.6524  135.3449  155.3078 H   0  0  0  0  0  0  0  0  0  0  0  0  # atno 10765 bound_to 10752
  141.1620  133.7497  156.9269 H   0  0  0  0  0  0  0  0  0  0  0  0  # atno 11005 bound_to 11000
  146.0573  139.3569  143.0603 LP  0  0  0  0  0  0  0  0  0  0  0  0  # atno 17320 bound_to 7965
  145.8138  140.9713  143.0935 LP  0  0  0  0  0  0  0  0  0  0  0  0  # atno 17321 bound_to 7965
  140.7377  143.6670  150.8115 LP  0  0  0  0  0  0  0  0  0  0  0  0  # atno 17342 bound_to 10162
  140.0279  143.5474  152.2773 LP  0  0  0  0  0  0  0  0  0  0  0  0  # atno 17343 bound_to 10162
  156.8361  130.5032  149.5326 LP  0  0  0  0  0  0  0  0  0  0  0  0  # atno 17370 bound_to 10713
  156.0995  130.5958  150.9871 LP  0  0  0  0  0  0  0  0  0  0  0  0  # atno 17371 bound_to 10713
  140.1413  134.9292  157.2470 LP  0  0  0  0  0  0  0  0  0  0  0  0  # atno 17394 bound_to 11000
  140.2834  134.3324  155.7336 LP  0  0  0  0  0  0  0  0  0  0  0  0  # atno 17395 bound_to 11000

$$$$
