AV-unprocessed.smi:1386|AV-procd|sdf|5637|dock6
  -GOLD-   22720 5253D 1   1.00000     0.00000
 Structure written by MMmdl.
 36 37  0  0  0  0  0  0  0  0  2 V2000
  150.4753  141.0889  156.2798 C   0  0  0  0  0  0  0  0  0  0  0  0
  151.5831  140.2311  156.9048 C   0  0  1  0  0  0  0  0  0  0  0  0
  152.4676  139.5788  155.8204 C   0  0  0  0  0  0  0  0  0  0  0  0
  151.8798  138.3552  155.2620 N   0  0  0  0  0  0  0  0  0  0  0  0
  151.9878  137.0799  155.7547 C   0  0  0  0  0  0  0  0  0  0  0  0
  151.2941  136.2684  154.8943 C   0  0  0  0  0  0  0  0  0  0  0  0
  150.7837  137.0829  153.9193 N   0  3  0  0  0  0  0  0  0  0  0  0
  151.1353  138.3521  154.1483 C   0  0  0  0  0  0  0  0  0  0  0  0
  152.3877  141.0658  157.7967 N   0  0  0  0  0  0  0  0  0  0  0  0
  151.9101  141.9536  158.6877 C   0  0  0  0  0  0  0  0  0  0  0  0
  150.7082  142.2054  158.7839 O   0  0  0  0  0  0  0  0  0  0  0  0
  152.8509  142.5226  159.4824 N   0  0  0  0  0  0  0  0  0  0  0  0
  154.1059  141.8905  159.9190 C   0  0  0  0  0  0  0  0  0  0  0  0
  153.8764  141.2172  161.2825 C   0  0  0  0  0  0  0  0  0  0  0  0
  153.4182  142.4425  162.5491 S   0  0  0  0  0  0  0  0  0  0  0  0
  152.1073  143.3437  161.6628 C   0  0  0  0  0  0  0  0  0  0  0  0
  152.5663  143.7406  160.2492 C   0  0  0  0  0  0  0  0  0  0  0  0
  149.8337  140.4901  155.6327 H   0  0  0  0  0  0  0  0  0  0  0  0
  150.8898  141.8992  155.6790 H   0  0  0  0  0  0  0  0  0  0  0  0
  149.8421  141.5342  157.0479 H   0  0  0  0  0  0  0  0  0  0  0  0
  151.0931  139.4417  157.4776 H   0  0  0  0  0  0  0  0  0  0  0  0
  152.6204  140.2697  154.9904 H   0  0  0  0  0  0  0  0  0  0  0  0
  153.4552  139.3405  156.2193 H   0  0  0  0  0  0  0  0  0  0  0  0
  152.5461  136.8489  156.6504 H   0  0  0  0  0  0  0  0  0  0  0  0
  151.1300  135.2006  154.9025 H   0  0  0  0  0  0  0  0  0  0  0  0
  150.8767  139.2041  153.5453 H   0  0  0  0  0  0  0  0  0  0  0  0
  153.3874  140.9273  157.7661 H   0  0  0  0  0  0  0  0  0  0  0  0
  154.4889  141.1658  159.2000 H   0  0  0  0  0  0  0  0  0  0  0  0
  154.8924  142.6420  160.0030 H   0  0  0  0  0  0  0  0  0  0  0  0
  153.0871  140.4688  161.2098 H   0  0  0  0  0  0  0  0  0  0  0  0
  154.7785  140.6991  161.6080 H   0  0  0  0  0  0  0  0  0  0  0  0
  151.2162  142.7164  161.6121 H   0  0  0  0  0  0  0  0  0  0  0  0
  151.8404  144.2298  162.2389 H   0  0  0  0  0  0  0  0  0  0  0  0
  153.4546  144.3716  160.3039 H   0  0  0  0  0  0  0  0  0  0  0  0
  151.8050  144.3559  159.7673 H   0  0  0  0  0  0  0  0  0  0  0  0
  150.2191  136.7723  153.1384 H   0  0  0  0  0  0  0  0  0  0  0  0
  1  2  1  0  0  0  0
  1 18  1  0  0  0  0
  1 19  1  0  0  0  0
  1 20  1  0  0  0  0
  2  3  1  0  0  0  0
  2  9  1  0  0  0  0
  2 21  1  0  0  0  0
  3  4  1  0  0  0  0
  3 22  1  0  0  0  0
  3 23  1  0  0  0  0
  4  8  1  0  0  0  0
  4  5  1  0  0  0  0
  5  6  2  0  0  0  0
  5 24  1  0  0  0  0
  6  7  1  0  0  0  0
  6 25  1  0  0  0  0
  7  8  2  0  0  0  0
  7 36  1  0  0  0  0
  8 26  1  0  0  0  0
  9 10  1  0  0  0  0
  9 27  1  0  0  0  0
 10 11  2  0  0  0  0
 10 12  1  0  0  0  0
 12 17  1  0  0  0  0
 12 13  1  0  0  0  0
 13 14  1  0  0  0  0
 13 28  1  0  0  0  0
 13 29  1  0  0  0  0
 14 15  1  0  0  0  0
 14 30  1  0  0  0  0
 14 31  1  0  0  0  0
 15 16  1  0  0  0  0
 16 17  1  0  0  0  0
 16 32  1  0  0  0  0
 16 33  1  0  0  0  0
 17 34  1  0  0  0  0
 17 35  1  0  0  0  0
M  CHG  1   7   1
M  END
> <s_m_source_file>
AV-unprocessed.smi

> <i_m_source_file_index>
1386

> <i_lp_mmshare_version>
43012

> <i_f3d_flags>
0

> <s_epik_input>
W2NIXTFuW2NIXVtjSF1uMVtDSDJdW0NAQEhdKFtDSDNdKVtOSF1DKD1PKU4yW0NIMl1bQ0gyXVNbQ0gyXVtDSDJdMg==

> <s_epik_cmdline>
J2VwaWtfcHl0aG9uJywgJy1waCcsICc3LjAnLCAnLXRuJywgJzgnLCAnLW1hJywgJzIwMCcsICctbWV0YWxfYmluZGluZycsICctaW1hZScsICc8aW5maWxlLm1hZT4nLCAnLW9tYWUnLCAnPG91dGZpbGUubWFlPic=

> <r_lp_tautomer_probability>
1

> <r_epik_Ionization_Penalty>
0.254941

> <r_epik_Ionization_Penalty_Charging>
0

> <r_epik_Ionization_Penalty_Neutral>
0.254941

> <r_epik_State_Penalty>
0.246388

> <r_epik_Charging_Adjusted_Penalty>
0.246388

> <i_epik_Tot_Q>
1

> <i_epik_Tot_abs_Q>
1

> <r_epik_Metal_State_Penalty>
0.536262

> <b_epik_Metal_Only>
0

> <s_lp_Force_Field>
OPLS_2005

> <r_lp_Energy>
25.7972

> <b_lp_Chiralities_Consistent>
1

> <s_lp_Variant>
AV-unprocessed.smi:1386-2

> <Gold.Version>
5.8.1

> <Gold.Id.Protein>
6NUR|6NUR_protein|mol2

> <Gold.PLP.Fitness>
48.7904

> <Gold.PLP.PLP>
-41.7776

> <Gold.PLP.part.hbond>
-2.4372

> <Gold.PLP.part.metal>
0.0000

> <Gold.PLP.part.buried>
-2.5530

> <Gold.PLP.part.nonpolar>
-36.0497

> <Gold.PLP.part.repulsive>
0.1718

> <Gold.PLP.ligand.clash>
0.0000

> <Gold.PLP.ligand.torsion>
1.0285

> <Gold.PLP.Chemscore.Hbond>
2.0000

> <Gold.PLP.Chemscore.CHOScore>
1.0000

> <Gold.PLP.Chemscore.Metal>
0.0000

> <Gold.Chemscore.Hbonds>
donor molecule, donor type, donor heavy atom, donor atom, acceptor molecule, acceptor atom, score
      L1  H     7    36       P1  7948  0.80
      L1  C     8    26       P1  7957  0.30

> <Gold.PLP.Chemscore.Internal.Correction>
0.0698

> <Gold.Rescore>
     Score         DG    S(hbond)    S(metal)    S(lipo)     H(rot)  DE(clash)    DE(int)     intcor
     13.46     -14.01       0.98        0.00      80.93       1.64       0.00       0.56       ----

> <Gold.Chemscore.Fitness>
13.4567

> <Gold.Chemscore.DG>
-14.0140

> <Gold.Chemscore.ZeroCoef>
-5.4800

> <Gold.Chemscore.Hbond>
0.9774

> <Gold.Chemscore.Metal>
0.0000

> <Gold.Chemscore.Lipo>
80.9312

> <Gold.Chemscore.Internal_Hbond>
0.0000

> <Gold.Chemscore.DEClash>
0.0000

> <Gold.Chemscore.DEInternal>
0.5572

> <Gold.Chemscore.Rot>
1.6404

> <Gold.Chemscore.Internal.Correction>
   9.000000E+99

> <Gold.Chemscore.Hbonds>
donor molecule, donor type, donor heavy atom, donor atom, acceptor molecule, acceptor atom, score
      L1  H     7    36       P1  7948  0.01

> <Gold.Chemscore.Hbond.Weighted>
-3.2645

> <Gold.Chemscore.Metal.Weighted>
-0.0000

> <Gold.Chemscore.Lipo.Weighted>
-9.4690

> <Gold.Chemscore.Internal_Hbond.Weighted>
0.0000

> <Gold.Chemscore.DEClash.Weighted>
0.0000

> <Gold.Chemscore.DEInternal.Weighted>
0.5572

> <Gold.Chemscore.Rot.Weighted>
4.1995

> <Gold.Chemscore.Internal.Correction.Weighted>
   9.000000E+99

> <Gold.Protein.RotatedTorsions>
[ 6907 6896 6895 6894 ] final   51.81 input  -60.11 | X-H torsion
[ 7974 7965 7964 7962 ] final  150.28 input  175.53 | X-H torsion
[ 8008 7997 7996 7995 ] final    0.96 input   59.86 | X-H torsion
[ 10167 10162 10161 10158 ] final -177.84 input  -65.29 | X-H torsion
[ 10718 10713 10712 10709 ] final  -42.94 input   66.30 | X-H torsion
[ 10763 10752 10751 10750 ] final  124.07 input  -60.55 | X-H torsion
[ 11005 11000 10999 10996 ] final  -10.11 input  -57.11 | X-H torsion

> <Gold.Protein.ActiveResidues>
 VAL166  LYS551  ARG553  GLY616  TRP617  ASP618  TYR619  PRO620  LYS621  CYS622 
 ASP623  PHE694  ASN695  SER759  ASP760  ASP761  ALA762  ILE779  LEU786  VAL792 
 PHE793  MET794  SER795  GLU796  ALA797  LYS798  CYS799  TRP800  GLU811  SER814 

> <Gold.Protein.RotatedAtoms>
  152.3166  134.7431  160.0323 H   0  0  0  0  0  0  0  0  0  0  0  0  # atno 6907 bound_to 6896
  151.7894  133.3352  159.3502 H   0  0  0  0  0  0  0  0  0  0  0  0  # atno 6908 bound_to 6896
  150.7348  134.5787  159.5972 H   0  0  0  0  0  0  0  0  0  0  0  0  # atno 6909 bound_to 6896
  144.8375  139.6389  143.6031 H   0  0  0  0  0  0  0  0  0  0  0  0  # atno 7974 bound_to 7965
  154.6741  140.2618  155.6976 H   0  0  0  0  0  0  0  0  0  0  0  0  # atno 8008 bound_to 7997
  156.2671  140.2823  156.1184 H   0  0  0  0  0  0  0  0  0  0  0  0  # atno 8009 bound_to 7997
  155.1125  140.0376  157.2718 H   0  0  0  0  0  0  0  0  0  0  0  0  # atno 8010 bound_to 7997
  139.5461  144.2233  152.0989 H   0  0  0  0  0  0  0  0  0  0  0  0  # atno 10167 bound_to 10162
  156.2543  130.4191  149.8614 H   0  0  0  0  0  0  0  0  0  0  0  0  # atno 10718 bound_to 10713
  153.6555  135.3355  155.3112 H   0  0  0  0  0  0  0  0  0  0  0  0  # atno 10763 bound_to 10752
  154.8527  135.4351  154.1859 H   0  0  0  0  0  0  0  0  0  0  0  0  # atno 10764 bound_to 10752
  153.2812  135.7009  153.7458 H   0  0  0  0  0  0  0  0  0  0  0  0  # atno 10765 bound_to 10752
  140.7413  133.8668  155.8970 H   0  0  0  0  0  0  0  0  0  0  0  0  # atno 11005 bound_to 11000
  146.2672  139.6549  142.9321 LP  0  0  0  0  0  0  0  0  0  0  0  0  # atno 17320 bound_to 7965
  145.4763  141.0437  143.2671 LP  0  0  0  0  0  0  0  0  0  0  0  0  # atno 17321 bound_to 7965
  140.1720  144.4927  150.6574 LP  0  0  0  0  0  0  0  0  0  0  0  0  # atno 17342 bound_to 10162
  140.6709  143.2285  151.5628 LP  0  0  0  0  0  0  0  0  0  0  0  0  # atno 17343 bound_to 10162
  156.6152  130.8603  151.3463 LP  0  0  0  0  0  0  0  0  0  0  0  0  # atno 17370 bound_to 10713
  157.7226  130.9579  150.1502 LP  0  0  0  0  0  0  0  0  0  0  0  0  # atno 17371 bound_to 10713
  140.9834  134.1375  157.4474 LP  0  0  0  0  0  0  0  0  0  0  0  0  # atno 17394 bound_to 11000
  139.8805  135.0018  156.6087 LP  0  0  0  0  0  0  0  0  0  0  0  0  # atno 17395 bound_to 11000

$$$$
