AV-unprocessed.smi:3132|AV-procd|sdf|11933|dock7
  -GOLD-   2272017323D 1   1.00000     0.00000
 Structure written by MMmdl.
 33 34  0  0  0  0  0  0  0  0  1 V2000
  151.2032  139.7975  156.0326 C   0  0  0  0  0  0  0  0  0  0  0  0
  150.4981  141.0662  156.5310 C   0  0  2  0  0  0  0  0  0  0  0  0
  149.9590  141.9095  155.3564 C   0  0  0  0  0  0  0  0  0  0  0  0
  148.8143  141.2964  154.7071 N   0  0  0  0  0  0  0  0  0  0  0  0
  147.6072  141.9035  154.3846 C   0  0  0  0  0  0  0  0  0  0  0  0
  146.8248  140.9347  153.7982 C   0  0  0  0  0  0  0  0  0  0  0  0
  147.5281  139.7336  153.7434 N   0  0  0  0  0  0  0  0  0  0  0  0
  148.6968  140.0255  154.2994 C   0  0  0  0  0  0  0  0  0  0  0  0
  151.4361  141.8469  157.3362 N   0  0  0  0  0  0  0  0  0  0  0  0
  151.1921  142.3522  158.5558 C   0  0  0  0  0  0  0  0  0  0  0  0
  150.1380  142.1711  159.1663 O   0  0  0  0  0  0  0  0  0  0  0  0
  152.2986  143.2281  159.1535 C   0  0  2  0  0  0  0  0  0  0  0  0
  152.8653  142.7119  160.4891 C   0  0  0  0  0  0  0  0  0  0  0  0
  152.2894  143.6694  161.5126 C   0  0  0  0  0  0  0  0  0  0  0  0
  152.1834  144.9549  160.7050 C   0  0  0  0  0  0  0  0  0  0  0  0
  151.7357  144.5093  159.4340 O   0  0  0  0  0  0  0  0  0  0  0  0
  150.5257  139.1784  155.4438 H   0  0  0  0  0  0  0  0  0  0  0  0
  151.5583  139.1922  156.8675 H   0  0  0  0  0  0  0  0  0  0  0  0
  152.0622  140.0391  155.4059 H   0  0  0  0  0  0  0  0  0  0  0  0
  149.6554  140.7447  157.1461 H   0  0  0  0  0  0  0  0  0  0  0  0
  149.6771  142.9070  155.6966 H   0  0  0  0  0  0  0  0  0  0  0  0
  150.7366  142.0452  154.6038 H   0  0  0  0  0  0  0  0  0  0  0  0
  147.4068  142.9423  154.6017 H   0  0  0  0  0  0  0  0  0  0  0  0
  145.8178  141.0091  153.4152 H   0  0  0  0  0  0  0  0  0  0  0  0
  149.4845  139.2959  154.4185 H   0  0  0  0  0  0  0  0  0  0  0  0
  152.3286  142.0571  156.9135 H   0  0  0  0  0  0  0  0  0  0  0  0
  153.1096  143.3437  158.4323 H   0  0  0  0  0  0  0  0  0  0  0  0
  152.6181  141.6728  160.7108 H   0  0  0  0  0  0  0  0  0  0  0  0
  153.9532  142.7908  160.4790 H   0  0  0  0  0  0  0  0  0  0  0  0
  151.2973  143.3382  161.8225 H   0  0  0  0  0  0  0  0  0  0  0  0
  152.9120  143.7727  162.4015 H   0  0  0  0  0  0  0  0  0  0  0  0
  151.4931  145.6750  161.1443 H   0  0  0  0  0  0  0  0  0  0  0  0
  153.1599  145.4298  160.6003 H   0  0  0  0  0  0  0  0  0  0  0  0
  1  2  1  0  0  0  0
  1 17  1  0  0  0  0
  1 18  1  0  0  0  0
  1 19  1  0  0  0  0
  2  3  1  0  0  0  0
  2  9  1  0  0  0  0
  2 20  1  0  0  0  0
  3  4  1  0  0  0  0
  3 21  1  0  0  0  0
  3 22  1  0  0  0  0
  4  8  1  0  0  0  0
  4  5  1  0  0  0  0
  5  6  2  0  0  0  0
  5 23  1  0  0  0  0
  6  7  1  0  0  0  0
  6 24  1  0  0  0  0
  7  8  2  0  0  0  0
  8 25  1  0  0  0  0
  9 10  1  0  0  0  0
  9 26  1  0  0  0  0
 10 11  2  0  0  0  0
 10 12  1  0  0  0  0
 12 16  1  0  0  0  0
 12 13  1  0  0  0  0
 12 27  1  0  0  0  0
 13 14  1  0  0  0  0
 13 28  1  0  0  0  0
 13 29  1  0  0  0  0
 14 15  1  0  0  0  0
 14 30  1  0  0  0  0
 14 31  1  0  0  0  0
 15 16  1  0  0  0  0
 15 32  1  0  0  0  0
 15 33  1  0  0  0  0
M  END
> <s_m_source_file>
AV-unprocessed.smi

> <i_m_source_file_index>
3132

> <i_lp_mmshare_version>
43012

> <i_f3d_flags>
0

> <s_epik_input>
W2NIXTFuW2NIXVtjSF1uMVtDSDJdW0NAQEhdKFtDSDNdKVtOSF1DKD1PKVtDQEBIXTJbQ0gyXVtDSDJdW0NIMl1PMg==

> <s_epik_cmdline>
J2VwaWtfcHl0aG9uJywgJy1waCcsICc3LjAnLCAnLXRuJywgJzgnLCAnLW1hJywgJzIwMCcsICctbWV0YWxfYmluZGluZycsICctaW1hZScsICc8aW5maWxlLm1hZT4nLCAnLW9tYWUnLCAnPG91dGZpbGUubWFlPic=

> <r_lp_tautomer_probability>
1

> <r_epik_Ionization_Penalty>
0.630322

> <r_epik_Ionization_Penalty_Charging>
0.630322

> <r_epik_Ionization_Penalty_Neutral>
3.82652e-08

> <r_epik_State_Penalty>
0.647117

> <r_epik_Charging_Adjusted_Penalty>
1.27744

> <i_epik_Tot_Q>
0

> <i_epik_Tot_abs_Q>
0

> <r_epik_Metal_State_Penalty>
0.309095

> <b_epik_Metal_Only>
0

> <s_lp_Force_Field>
OPLS_2005

> <r_lp_Energy>
19.5701

> <b_lp_Chiralities_Consistent>
1

> <s_lp_Variant>
AV-unprocessed.smi:3132-5

> <Gold.Version>
5.8.1

> <Gold.Id.Protein>
6NUR|6NUR_protein|mol2

> <Gold.PLP.Fitness>
39.9371

> <Gold.PLP.PLP>
-34.5777

> <Gold.PLP.part.hbond>
-1.0000

> <Gold.PLP.part.metal>
0.0000

> <Gold.PLP.part.buried>
-3.0351

> <Gold.PLP.part.nonpolar>
-30.7765

> <Gold.PLP.part.repulsive>
0.3561

> <Gold.PLP.ligand.clash>
0.0000

> <Gold.PLP.ligand.torsion>
0.3344

> <Gold.PLP.Chemscore.Hbond>
0.0000

> <Gold.PLP.Chemscore.CHOScore>
2.0000

> <Gold.PLP.Chemscore.Metal>
0.0000

> <Gold.Chemscore.Hbonds>
donor molecule, donor type, donor heavy atom, donor atom, acceptor molecule, acceptor atom, score
      L1  C     5    23       P1  8028  1.00
      L1  C     6    24       P1 10175  1.00

> <Gold.PLP.Chemscore.Internal.Correction>
0.0282

> <Gold.Rescore>
     Score         DG    S(hbond)    S(metal)    S(lipo)     H(rot)  DE(clash)    DE(int)     intcor
      9.75     -10.14       0.00        0.00      80.57       1.86       0.04       0.35       ----

> <Gold.Chemscore.Fitness>
9.7472

> <Gold.Chemscore.DG>
-10.1359

> <Gold.Chemscore.ZeroCoef>
-5.4800

> <Gold.Chemscore.Hbond>
0.0000

> <Gold.Chemscore.Metal>
0.0000

> <Gold.Chemscore.Lipo>
80.5705

> <Gold.Chemscore.Internal_Hbond>
0.0000

> <Gold.Chemscore.DEClash>
0.0402

> <Gold.Chemscore.DEInternal>
0.3484

> <Gold.Chemscore.Rot>
1.8636

> <Gold.Chemscore.Internal.Correction>
   9.000000E+99

> <Gold.Chemscore.Hbond.Weighted>
-0.0000

> <Gold.Chemscore.Metal.Weighted>
-0.0000

> <Gold.Chemscore.Lipo.Weighted>
-9.4267

> <Gold.Chemscore.Internal_Hbond.Weighted>
0.0000

> <Gold.Chemscore.DEClash.Weighted>
0.0402

> <Gold.Chemscore.DEInternal.Weighted>
0.3484

> <Gold.Chemscore.Rot.Weighted>
4.7709

> <Gold.Chemscore.Internal.Correction.Weighted>
   9.000000E+99

> <Gold.Protein.RotatedTorsions>
[ 6907 6896 6895 6894 ] final   33.25 input  -60.11 | X-H torsion
[ 7974 7965 7964 7962 ] final  165.08 input  175.53 | X-H torsion
[ 8008 7997 7996 7995 ] final -126.38 input   59.86 | X-H torsion
[ 10167 10162 10161 10158 ] final -179.37 input  -65.29 | X-H torsion
[ 10718 10713 10712 10709 ] final -161.03 input   66.30 | X-H torsion
[ 10763 10752 10751 10750 ] final  106.01 input  -60.55 | X-H torsion
[ 11005 11000 10999 10996 ] final -155.11 input  -57.11 | X-H torsion

> <Gold.Protein.ActiveResidues>
 VAL166  LYS551  ARG553  GLY616  TRP617  ASP618  TYR619  PRO620  LYS621  CYS622 
 ASP623  PHE694  ASN695  SER759  ASP760  ASP761  ALA762  ILE779  LEU786  VAL792 
 PHE793  MET794  SER795  GLU796  ALA797  LYS798  CYS799  TRP800  GLU811  SER814 

> <Gold.Protein.RotatedAtoms>
  152.0859  134.9440  160.0572 H   0  0  0  0  0  0  0  0  0  0  0  0  # atno 6907 bound_to 6896
  152.0711  133.4102  159.4467 H   0  0  0  0  0  0  0  0  0  0  0  0  # atno 6908 bound_to 6896
  150.6836  134.3011  159.4750 H   0  0  0  0  0  0  0  0  0  0  0  0  # atno 6909 bound_to 6896
  144.7517  139.8419  143.6364 H   0  0  0  0  0  0  0  0  0  0  0  0  # atno 7974 bound_to 7965
  155.2287  140.0424  157.2959 H   0  0  0  0  0  0  0  0  0  0  0  0  # atno 8008 bound_to 7997
  154.5902  140.2424  155.7901 H   0  0  0  0  0  0  0  0  0  0  0  0  # atno 8009 bound_to 7997
  156.2254  140.2956  156.0062 H   0  0  0  0  0  0  0  0  0  0  0  0  # atno 8010 bound_to 7997
  139.5389  144.2417  152.0854 H   0  0  0  0  0  0  0  0  0  0  0  0  # atno 10167 bound_to 10162
  156.5904  130.8768  151.2888 H   0  0  0  0  0  0  0  0  0  0  0  0  # atno 10718 bound_to 10713
  153.3872  135.3891  155.1898 H   0  0  0  0  0  0  0  0  0  0  0  0  # atno 10763 bound_to 10752
  154.8715  135.3739  154.4783 H   0  0  0  0  0  0  0  0  0  0  0  0  # atno 10764 bound_to 10752
  153.5266  135.7086  153.5766 H   0  0  0  0  0  0  0  0  0  0  0  0  # atno 10765 bound_to 10752
  140.6900  134.4051  157.5220 H   0  0  0  0  0  0  0  0  0  0  0  0  # atno 11005 bound_to 11000
  146.1477  139.4550  143.0069 LP  0  0  0  0  0  0  0  0  0  0  0  0  # atno 17320 bound_to 7965
  145.6919  141.0161  143.1550 LP  0  0  0  0  0  0  0  0  0  0  0  0  # atno 17321 bound_to 7965
  140.1893  144.4768  150.6487 LP  0  0  0  0  0  0  0  0  0  0  0  0  # atno 17342 bound_to 10162
  140.6610  143.2252  151.5855 LP  0  0  0  0  0  0  0  0  0  0  0  0  # atno 17343 bound_to 10162
  157.7305  130.9686  150.1835 LP  0  0  0  0  0  0  0  0  0  0  0  0  # atno 17370 bound_to 10713
  156.2554  130.3705  149.8187 LP  0  0  0  0  0  0  0  0  0  0  0  0  # atno 17371 bound_to 10713
  139.8926  134.8751  156.2263 LP  0  0  0  0  0  0  0  0  0  0  0  0  # atno 17394 bound_to 11000
  141.0249  133.7021  156.1330 LP  0  0  0  0  0  0  0  0  0  0  0  0  # atno 17395 bound_to 11000

$$$$
