AV-unprocessed.smi:37|AV-procd|sdf|331|dock7
  -GOLD-   2262016163D 1   1.00000     0.00000
 Structure written by MMmdl.
 43 44  0  0  0  0  0  0  0  0  2 V2000
  142.9653  135.1031  154.3067 C   0  0  0  0  0  0  0  0  0  0  0  0
  142.9933  136.0316  155.5279 C   0  0  0  0  0  0  0  0  0  0  0  0
  143.8759  135.4836  156.6469 C   0  0  0  0  0  0  0  0  0  0  0  0
  143.5906  134.4406  157.2360 O   0  0  0  0  0  0  0  0  0  0  0  0
  144.9500  136.2539  156.8835 O   0  0  0  0  0  0  0  0  0  0  0  0
  145.9179  135.8334  157.8306 C   0  0  0  0  0  0  0  0  0  0  0  0
  147.2336  136.5921  157.5874 C   0  0  2  0  0  0  0  0  0  0  0  0
  147.6476  136.3087  156.2457 O   0  0  0  0  0  0  0  0  0  0  0  0
  148.9622  135.8351  156.2075 C   0  0  1  0  0  0  0  0  0  0  0  0
  149.9266  136.9771  155.9306 N   0  0  0  0  0  0  0  0  0  0  0  0
  149.4826  138.2593  155.6448 C   0  0  0  0  0  0  0  0  0  0  0  0
  150.3488  139.2625  155.3953 C   0  0  0  0  0  0  0  0  0  0  0  0
  149.8850  140.4947  155.1237 F   0  0  0  0  0  0  0  0  0  0  0  0
  151.7859  139.0004  155.4169 C   0  0  0  0  0  0  0  0  0  0  0  0
  152.5711  139.9225  155.2026 O   0  0  0  0  0  0  0  0  0  0  0  0
  152.1963  137.7253  155.6746 N   0  5  0  0  0  0  0  0  0  0  0  0
  151.3234  136.7055  155.9226 C   0  0  0  0  0  0  0  0  0  0  0  0
  151.6871  135.5498  156.1427 O   0  0  0  0  0  0  0  0  0  0  0  0
  149.2204  135.2268  157.5863 C   0  0  2  0  0  0  0  0  0  0  0  0
  148.4999  133.3660  157.6233 Br  0  0  0  0  0  0  0  0  0  0  0  0
  148.4091  136.1533  158.4808 C   0  0  2  0  0  0  0  0  0  0  0  0
  148.0098  135.5411  159.7016 O   0  0  0  0  0  0  0  0  0  0  0  0
  147.3964  136.2622  160.6573 C   0  0  0  0  0  0  0  0  0  0  0  0
  147.0268  137.4321  160.5557 O   0  0  0  0  0  0  0  0  0  0  0  0
  147.1850  135.4695  161.9448 C   0  0  0  0  0  0  0  0  0  0  0  0
  147.5915  136.2705  163.1896 C   0  0  0  0  0  0  0  0  0  0  0  0
  142.3457  135.5276  153.5165 H   0  0  0  0  0  0  0  0  0  0  0  0
  142.5547  134.1242  154.5571 H   0  0  0  0  0  0  0  0  0  0  0  0
  143.9658  134.9552  153.8986 H   0  0  0  0  0  0  0  0  0  0  0  0
  143.3616  137.0160  155.2376 H   0  0  0  0  0  0  0  0  0  0  0  0
  141.9831  136.1728  155.9129 H   0  0  0  0  0  0  0  0  0  0  0  0
  145.5335  136.0512  158.8276 H   0  0  0  0  0  0  0  0  0  0  0  0
  146.0749  134.7562  157.7652 H   0  0  0  0  0  0  0  0  0  0  0  0
  147.0638  137.6613  157.7175 H   0  0  0  0  0  0  0  0  0  0  0  0
  149.0996  135.1426  155.3753 H   0  0  0  0  0  0  0  0  0  0  0  0
  148.4280  138.4818  155.6111 H   0  0  0  0  0  0  0  0  0  0  0  0
  150.2787  135.1857  157.8442 H   0  0  0  0  0  0  0  0  0  0  0  0
  149.0057  137.0434  158.6877 H   0  0  0  0  0  0  0  0  0  0  0  0
  146.1345  135.1854  162.0147 H   0  0  0  0  0  0  0  0  0  0  0  0
  147.7606  134.5452  161.8892 H   0  0  0  0  0  0  0  0  0  0  0  0
  147.3848  135.7017  164.0960 H   0  0  0  0  0  0  0  0  0  0  0  0
  147.0404  137.2096  163.2546 H   0  0  0  0  0  0  0  0  0  0  0  0
  148.6566  136.5057  163.1844 H   0  0  0  0  0  0  0  0  0  0  0  0
  1  2  1  0  0  0  0
  1 27  1  0  0  0  0
  1 28  1  0  0  0  0
  1 29  1  0  0  0  0
  2  3  1  0  0  0  0
  2 30  1  0  0  0  0
  2 31  1  0  0  0  0
  3  4  2  0  0  0  0
  3  5  1  0  0  0  0
  5  6  1  0  0  0  0
  6  7  1  0  0  0  0
  6 32  1  0  0  0  0
  6 33  1  0  0  0  0
  7 21  1  0  0  0  0
  7  8  1  0  0  0  0
  7 34  1  0  0  0  0
  8  9  1  0  0  0  0
  9 10  1  0  0  0  0
  9 19  1  0  0  0  0
  9 35  1  0  0  0  0
 10 17  1  0  0  0  0
 10 11  1  0  0  0  0
 11 12  2  0  0  0  0
 11 36  1  0  0  0  0
 12 13  1  0  0  0  0
 12 14  1  0  0  0  0
 14 15  2  0  0  0  0
 14 16  1  0  0  0  0
 16 17  1  0  0  0  0
 17 18  2  0  0  0  0
 19 20  1  0  0  0  0
 19 21  1  0  0  0  0
 19 37  1  0  0  0  0
 21 22  1  0  0  0  0
 21 38  1  0  0  0  0
 22 23  1  0  0  0  0
 23 24  2  0  0  0  0
 23 25  1  0  0  0  0
 25 26  1  0  0  0  0
 25 39  1  0  0  0  0
 25 40  1  0  0  0  0
 26 41  1  0  0  0  0
 26 42  1  0  0  0  0
 26 43  1  0  0  0  0
M  CHG  1  16  -1
M  END
> <s_m_source_file>
AV-unprocessed.smi

> <i_m_source_file_index>
37

> <i_lp_mmshare_version>
43012

> <i_f3d_flags>
0

> <s_epik_input>
W0NIM11bQ0gyXUMoPU8pT1tDSDJdW0NAQEhdMU9bQ0BASF0objJbY0hdYyhGKWMoPU8pW25IXWMyPU8pW0NAQEhdKEJyKVtDQEhdMU9DKD1PKVtDSDJdW0NIM10=

> <s_epik_cmdline>
J2VwaWtfcHl0aG9uJywgJy1waCcsICc3LjAnLCAnLXRuJywgJzgnLCAnLW1hJywgJzIwMCcsICctbWV0YWxfYmluZGluZycsICctaW1hZScsICc8aW5maWxlLm1hZT4nLCAnLW9tYWUnLCAnPG91dGZpbGUubWFlPic=

> <r_epik_Ionization_Penalty>
1.08158

> <r_epik_Ionization_Penalty_Charging>
9.05154e-09

> <r_epik_Ionization_Penalty_Neutral>
1.08158

> <r_epik_State_Penalty>
1.13706

> <r_epik_Charging_Adjusted_Penalty>
1.13706

> <i_epik_Tot_Q>
-1

> <i_epik_Tot_abs_Q>
1

> <r_epik_Metal_State_Penalty>
0.00343535

> <b_epik_Metal_Only>
0

> <s_epik_Chemistry_Notes>
This compound has an ester and may undergo hydrolysis at high or low pH. This compound contains an acetal/aminal-like group ( X-CH(R)-Y where X, Y are N, S, or O) that may be acid/base labile, releasing an aldehyde.

> <s_lp_Force_Field>
OPLS_2005

> <r_lp_Energy>
34.8108

> <b_lp_Chiralities_Consistent>
1

> <s_lp_Variant>
AV-unprocessed.smi:37-29

> <Gold.Version>
5.8.1

> <Gold.Id.Protein>
6NUR|6NUR_protein|mol2

> <Gold.PLP.Fitness>
39.7621

> <Gold.PLP.PLP>
-29.8516

> <Gold.PLP.part.hbond>
-5.1701

> <Gold.PLP.part.metal>
0.0000

> <Gold.PLP.part.buried>
-3.7072

> <Gold.PLP.part.nonpolar>
-20.8424

> <Gold.PLP.part.repulsive>
0.1627

> <Gold.PLP.ligand.clash>
0.0000

> <Gold.PLP.ligand.torsion>
0.3845

> <Gold.PLP.Chemscore.Hbond>
3.5305

> <Gold.PLP.Chemscore.CHOScore>
0.0000

> <Gold.PLP.Chemscore.Metal>
0.0000

> <Gold.Chemscore.Hbonds>
donor molecule, donor type, donor heavy atom, donor atom, acceptor molecule, acceptor atom, score
      P1  H  6934  6947       L1    24  1.00
      P1  H  7989  7998       L1    15  0.42
      P1  H  7997  8009       L1    15  1.00
      P1  H 10752 10765       L1    18  0.90

> <Gold.PLP.Chemscore.Internal.Correction>
0.0879

> <Gold.Rescore>
     Score         DG    S(hbond)    S(metal)    S(lipo)     H(rot)  DE(clash)    DE(int)     intcor
      9.11     -11.40       2.87        0.00      40.27       3.27       0.74       1.55       ----

> <Gold.Chemscore.Fitness>
9.1091

> <Gold.Chemscore.DG>
-11.3984

> <Gold.Chemscore.ZeroCoef>
-5.4800

> <Gold.Chemscore.Hbond>
2.8655

> <Gold.Chemscore.Metal>
0.0000

> <Gold.Chemscore.Lipo>
40.2655

> <Gold.Chemscore.Internal_Hbond>
0.0000

> <Gold.Chemscore.DEClash>
0.7384

> <Gold.Chemscore.DEInternal>
1.5509

> <Gold.Chemscore.Rot>
3.2669

> <Gold.Chemscore.Internal.Correction>
   9.000000E+99

> <Gold.Chemscore.Hbonds>
donor molecule, donor type, donor heavy atom, donor atom, acceptor molecule, acceptor atom, score
      P1  H  6934  6947       L1    24  1.00
      P1  H  7989  7998       L1    15  0.15
      P1  H  7997  8009       L1    15  0.95
      P1  H 10752 10765       L1    18  0.18

> <Gold.Chemscore.Hbond.Weighted>
-9.5707

> <Gold.Chemscore.Metal.Weighted>
-0.0000

> <Gold.Chemscore.Lipo.Weighted>
-4.7111

> <Gold.Chemscore.Internal_Hbond.Weighted>
0.0000

> <Gold.Chemscore.DEClash.Weighted>
0.7384

> <Gold.Chemscore.DEInternal.Weighted>
1.5509

> <Gold.Chemscore.Rot.Weighted>
8.3634

> <Gold.Chemscore.Internal.Correction.Weighted>
   9.000000E+99

> <Gold.Protein.RotatedTorsions>
[ 6907 6896 6895 6894 ] final  133.76 input  -60.11 | X-H torsion
[ 7974 7965 7964 7962 ] final -160.28 input  175.53 | X-H torsion
[ 8008 7997 7996 7995 ] final -137.46 input   59.86 | X-H torsion
[ 10167 10162 10161 10158 ] final -151.96 input  -65.29 | X-H torsion
[ 10718 10713 10712 10709 ] final -141.19 input   66.30 | X-H torsion
[ 10763 10752 10751 10750 ] final -156.86 input  -60.55 | X-H torsion
[ 11005 11000 10999 10996 ] final  116.09 input  -57.11 | X-H torsion

> <Gold.Protein.ActiveResidues>
 VAL166  LYS551  ARG553  GLY616  TRP617  ASP618  TYR619  PRO620  LYS621  CYS622 
 ASP623  PHE694  ASN695  SER759  ASP760  ASP761  ALA762  ILE779  LEU786  VAL792 
 PHE793  MET794  SER795  GLU796  ALA797  LYS798  CYS799  TRP800  GLU811  SER814 

> <Gold.Protein.RotatedAtoms>
  152.3186  133.5829  159.5728 H   0  0  0  0  0  0  0  0  0  0  0  0  # atno 6907 bound_to 6896
  150.7359  134.0046  159.3658 H   0  0  0  0  0  0  0  0  0  0  0  0  # atno 6908 bound_to 6896
  151.7932  135.0730  160.0441 H   0  0  0  0  0  0  0  0  0  0  0  0  # atno 6909 bound_to 6896
  144.7433  140.3565  143.6105 H   0  0  0  0  0  0  0  0  0  0  0  0  # atno 7974 bound_to 7965
  155.4122  140.0513  157.3031 H   0  0  0  0  0  0  0  0  0  0  0  0  # atno 8008 bound_to 7997
  154.4941  140.2131  155.9445 H   0  0  0  0  0  0  0  0  0  0  0  0  # atno 8009 bound_to 7997
  156.1381  140.3159  155.8458 H   0  0  0  0  0  0  0  0  0  0  0  0  # atno 8010 bound_to 7997
  139.7222  143.8939  152.2507 H   0  0  0  0  0  0  0  0  0  0  0  0  # atno 10167 bound_to 10162
  156.3311  130.7587  151.1705 H   0  0  0  0  0  0  0  0  0  0  0  0  # atno 10718 bound_to 10713
  154.7680  135.3137  154.8246 H   0  0  0  0  0  0  0  0  0  0  0  0  # atno 10763 bound_to 10752
  153.8989  135.6818  153.4760 H   0  0  0  0  0  0  0  0  0  0  0  0  # atno 10764 bound_to 10752
  153.1289  135.4789  154.9251 H   0  0  0  0  0  0  0  0  0  0  0  0  # atno 10765 bound_to 10752
  139.9030  134.9593  156.7145 H   0  0  0  0  0  0  0  0  0  0  0  0  # atno 11005 bound_to 11000
  145.7222  139.1713  143.2478 LP  0  0  0  0  0  0  0  0  0  0  0  0  # atno 17320 bound_to 7965
  146.1269  140.7237  142.9431 LP  0  0  0  0  0  0  0  0  0  0  0  0  # atno 17321 bound_to 7965
  139.8838  144.7003  150.8847 LP  0  0  0  0  0  0  0  0  0  0  0  0  # atno 17342 bound_to 10162
  140.7756  143.3640  151.1774 LP  0  0  0  0  0  0  0  0  0  0  0  0  # atno 17343 bound_to 10162
  157.7430  131.0481  150.4977 LP  0  0  0  0  0  0  0  0  0  0  0  0  # atno 17370 bound_to 10713
  156.5143  130.4147  149.6284 LP  0  0  0  0  0  0  0  0  0  0  0  0  # atno 17371 bound_to 10713
  140.7049  133.9274  155.8047 LP  0  0  0  0  0  0  0  0  0  0  0  0  # atno 17394 bound_to 11000
  141.0344  134.0711  157.3977 LP  0  0  0  0  0  0  0  0  0  0  0  0  # atno 17395 bound_to 11000

$$$$
