AV-unprocessed.smi:606|AV-procd|sdf|3041|dock2
  -GOLD-   2262023563D 1   1.00000     0.00000
 Structure written by MMmdl.
 36 37  0  0  0  0  0  0  0  0  1 V2000
  152.5875  137.5976  157.4854 C   0  0  0  0  0  0  0  0  0  0  0  0
  151.6812  136.6529  156.7733 C   0  0  0  0  0  0  0  0  0  0  0  0
  150.9209  136.7653  155.6432 C   0  0  0  0  0  0  0  0  0  0  0  0
  150.3107  135.4867  155.5398 C   0  0  0  0  0  0  0  0  0  0  0  0
  149.4228  135.1870  154.4750 N   0  0  0  0  0  0  0  0  0  0  0  0
  148.5150  134.1974  154.4204 C   0  0  0  0  0  0  0  0  0  0  0  0
  148.3182  133.3670  155.3084 O   0  0  0  0  0  0  0  0  0  0  0  0
  147.8391  134.2182  153.2615 N   0  0  0  0  0  0  0  0  0  0  0  0
  146.7797  133.2853  152.8819 C   0  0  0  0  0  0  0  0  0  0  0  0
  147.3090  131.8355  152.9573 C   0  0  0  0  0  0  0  0  0  0  0  0
  146.1907  130.7807  152.9101 C   0  0  0  0  0  0  0  0  0  0  0  0
  145.7524  130.3368  151.5033 C   0  0  0  0  0  0  0  0  0  0  0  0
  145.6474  131.4382  150.4336 C   0  0  0  0  0  0  0  0  0  0  0  0
  145.1314  132.7974  150.9326 C   0  0  0  0  0  0  0  0  0  0  0  0
  146.2519  133.6907  151.4928 C   0  0  0  0  0  0  0  0  0  0  0  0
  150.6648  134.6691  156.5195 N   0  0  0  0  0  0  0  0  0  0  0  0
  151.5447  135.4122  157.3149 O   0  0  0  0  0  0  0  0  0  0  0  0
  152.7631  138.4934  156.8895 H   0  0  0  0  0  0  0  0  0  0  0  0
  153.5522  137.1315  157.6866 H   0  0  0  0  0  0  0  0  0  0  0  0
  152.1541  137.9043  158.4374 H   0  0  0  0  0  0  0  0  0  0  0  0
  150.8208  137.6247  154.9970 H   0  0  0  0  0  0  0  0  0  0  0  0
  149.4840  135.7925  153.6700 H   0  0  0  0  0  0  0  0  0  0  0  0
  148.0725  134.9340  152.5891 H   0  0  0  0  0  0  0  0  0  0  0  0
  145.9572  133.3948  153.5914 H   0  0  0  0  0  0  0  0  0  0  0  0
  148.0547  131.6470  152.1840 H   0  0  0  0  0  0  0  0  0  0  0  0
  147.8302  131.7089  153.9074 H   0  0  0  0  0  0  0  0  0  0  0  0
  146.5220  129.8927  153.4496 H   0  0  0  0  0  0  0  0  0  0  0  0
  145.3257  131.1438  153.4664 H   0  0  0  0  0  0  0  0  0  0  0  0
  146.4415  129.5745  151.1381 H   0  0  0  0  0  0  0  0  0  0  0  0
  144.7877  129.8363  151.5942 H   0  0  0  0  0  0  0  0  0  0  0  0
  146.6174  131.5737  149.9540 H   0  0  0  0  0  0  0  0  0  0  0  0
  144.9874  131.0759  149.6447 H   0  0  0  0  0  0  0  0  0  0  0  0
  144.6897  133.3187  150.0827 H   0  0  0  0  0  0  0  0  0  0  0  0
  144.3248  132.6726  151.6558 H   0  0  0  0  0  0  0  0  0  0  0  0
  145.8699  134.7105  151.5574 H   0  0  0  0  0  0  0  0  0  0  0  0
  147.0752  133.7315  150.7780 H   0  0  0  0  0  0  0  0  0  0  0  0
  1  2  1  0  0  0  0
  1 18  1  0  0  0  0
  1 19  1  0  0  0  0
  1 20  1  0  0  0  0
  2 17  1  0  0  0  0
  2  3  2  0  0  0  0
  3  4  1  0  0  0  0
  3 21  1  0  0  0  0
  4  5  1  0  0  0  0
  4 16  2  0  0  0  0
  5  6  1  0  0  0  0
  5 22  1  0  0  0  0
  6  7  2  0  0  0  0
  6  8  1  0  0  0  0
  8  9  1  0  0  0  0
  8 23  1  0  0  0  0
  9 15  1  0  0  0  0
  9 10  1  0  0  0  0
  9 24  1  0  0  0  0
 10 11  1  0  0  0  0
 10 25  1  0  0  0  0
 10 26  1  0  0  0  0
 11 12  1  0  0  0  0
 11 27  1  0  0  0  0
 11 28  1  0  0  0  0
 12 13  1  0  0  0  0
 12 29  1  0  0  0  0
 12 30  1  0  0  0  0
 13 14  1  0  0  0  0
 13 31  1  0  0  0  0
 13 32  1  0  0  0  0
 14 15  1  0  0  0  0
 14 33  1  0  0  0  0
 14 34  1  0  0  0  0
 15 35  1  0  0  0  0
 15 36  1  0  0  0  0
 16 17  1  0  0  0  0
M  END
> <s_m_source_file>
AV-unprocessed.smi

> <i_m_source_file_index>
606

> <i_lp_mmshare_version>
43012

> <i_f3d_flags>
0

> <s_epik_input>
W0NIM11jMVtjSF1jKG5vMSlbTkhdQyg9TylbTkhdW0NIXTJbQ0gyXVtDSDJdW0NIMl1bQ0gyXVtDSDJdW0NIMl0y

> <s_epik_cmdline>
J2VwaWtfcHl0aG9uJywgJy1waCcsICc3LjAnLCAnLXRuJywgJzgnLCAnLW1hJywgJzIwMCcsICctbWV0YWxfYmluZGluZycsICctaW1hZScsICc8aW5maWxlLm1hZT4nLCAnLW9tYWUnLCAnPG91dGZpbGUubWFlPic=

> <r_lp_tautomer_probability>
1

> <r_epik_Ionization_Penalty>
2.39396e-05

> <r_epik_Ionization_Penalty_Charging>
0

> <r_epik_Ionization_Penalty_Neutral>
2.39396e-05

> <r_epik_State_Penalty>
-0

> <r_epik_Charging_Adjusted_Penalty>
0

> <i_epik_Tot_Q>
0

> <i_epik_Tot_abs_Q>
0

> <r_epik_Metal_State_Penalty>
-0

> <b_epik_Metal_Only>
0

> <s_lp_Force_Field>
OPLS_2005

> <r_lp_Energy>
12.5841

> <b_lp_Chiralities_Consistent>
1

> <s_lp_Variant>
AV-unprocessed.smi:606-1

> <Gold.Version>
5.8.1

> <Gold.Id.Protein>
6NUR|6NUR_protein|mol2

> <Gold.PLP.Fitness>
31.4914

> <Gold.PLP.PLP>
-25.6543

> <Gold.PLP.part.hbond>
-3.0000

> <Gold.PLP.part.metal>
0.0000

> <Gold.PLP.part.buried>
-4.0283

> <Gold.PLP.part.nonpolar>
-18.5818

> <Gold.PLP.part.repulsive>
0.0575

> <Gold.PLP.ligand.clash>
0.0000

> <Gold.PLP.ligand.torsion>
0.0884

> <Gold.PLP.Chemscore.Hbond>
2.0000

> <Gold.PLP.Chemscore.CHOScore>
0.0000

> <Gold.PLP.Chemscore.Metal>
0.0000

> <Gold.Chemscore.Hbonds>
donor molecule, donor type, donor heavy atom, donor atom, acceptor molecule, acceptor atom, score
      L1  H     5    22       P1  7948  1.00
      L1  H     8    23       P1  7948  1.00

> <Gold.PLP.Chemscore.Internal.Correction>
0.0138

> <Gold.Rescore>
     Score         DG    S(hbond)    S(metal)    S(lipo)     H(rot)  DE(clash)    DE(int)     intcor
     13.96     -16.31       1.70        0.00      66.05       1.00       0.13       2.23       ----

> <Gold.Chemscore.Fitness>
13.9573

> <Gold.Chemscore.DG>
-16.3129

> <Gold.Chemscore.ZeroCoef>
-5.4800

> <Gold.Chemscore.Hbond>
1.6962

> <Gold.Chemscore.Metal>
0.0000

> <Gold.Chemscore.Lipo>
66.0474

> <Gold.Chemscore.Internal_Hbond>
0.0000

> <Gold.Chemscore.DEClash>
0.1290

> <Gold.Chemscore.DEInternal>
2.2266

> <Gold.Chemscore.Rot>
1.0000

> <Gold.Chemscore.Internal.Correction>
   9.000000E+99

> <Gold.Chemscore.Hbonds>
donor molecule, donor type, donor heavy atom, donor atom, acceptor molecule, acceptor atom, score
      L1  H     5    22       P1  7948  0.37
      L1  H     8    23       P1  7948  0.82

> <Gold.Chemscore.Hbond.Weighted>
-5.6654

> <Gold.Chemscore.Metal.Weighted>
-0.0000

> <Gold.Chemscore.Lipo.Weighted>
-7.7276

> <Gold.Chemscore.Internal_Hbond.Weighted>
0.0000

> <Gold.Chemscore.DEClash.Weighted>
0.1290

> <Gold.Chemscore.DEInternal.Weighted>
2.2266

> <Gold.Chemscore.Rot.Weighted>
2.5600

> <Gold.Chemscore.Internal.Correction.Weighted>
   9.000000E+99

> <Gold.Protein.RotatedTorsions>
[ 6907 6896 6895 6894 ] final   12.97 input  -60.11 | X-H torsion
[ 7974 7965 7964 7962 ] final -153.38 input  175.53 | X-H torsion
[ 8008 7997 7996 7995 ] final  109.58 input   59.86 | X-H torsion
[ 10167 10162 10161 10158 ] final  -84.17 input  -65.29 | X-H torsion
[ 10718 10713 10712 10709 ] final -140.55 input   66.30 | X-H torsion
[ 10763 10752 10751 10750 ] final  -22.03 input  -60.55 | X-H torsion
[ 11005 11000 10999 10996 ] final  109.90 input  -57.11 | X-H torsion

> <Gold.Protein.ActiveResidues>
 VAL166  LYS551  ARG553  GLY616  TRP617  ASP618  TYR619  PRO620  LYS621  CYS622 
 ASP623  PHE694  ASN695  SER759  ASP760  ASP761  ALA762  ILE779  LEU786  VAL792 
 PHE793  MET794  SER795  GLU796  ALA797  LYS798  CYS799  TRP800  GLU811  SER814 

> <Gold.Protein.RotatedAtoms>
  151.7788  135.0767  160.0370 H   0  0  0  0  0  0  0  0  0  0  0  0  # atno 6907 bound_to 6896
  152.3237  133.5878  159.5770 H   0  0  0  0  0  0  0  0  0  0  0  0  # atno 6908 bound_to 6896
  150.7384  133.9888  159.3642 H   0  0  0  0  0  0  0  0  0  0  0  0  # atno 6909 bound_to 6896
  144.7744  140.4533  143.5884 H   0  0  0  0  0  0  0  0  0  0  0  0  # atno 7974 bound_to 7965
  156.1990  140.3055  155.9486 H   0  0  0  0  0  0  0  0  0  0  0  0  # atno 8008 bound_to 7997
  155.2999  140.0446  157.3046 H   0  0  0  0  0  0  0  0  0  0  0  0  # atno 8009 bound_to 7997
  154.5546  140.2302  155.8440 H   0  0  0  0  0  0  0  0  0  0  0  0  # atno 8010 bound_to 7997
  140.4158  143.2604  151.8957 H   0  0  0  0  0  0  0  0  0  0  0  0  # atno 10167 bound_to 10162
  156.3236  130.7548  151.1651 H   0  0  0  0  0  0  0  0  0  0  0  0  # atno 10718 bound_to 10713
  153.6455  135.6983  153.5226 H   0  0  0  0  0  0  0  0  0  0  0  0  # atno 10763 bound_to 10752
  153.2748  135.4204  155.1022 H   0  0  0  0  0  0  0  0  0  0  0  0  # atno 10764 bound_to 10752
  154.8489  135.3587  154.6000 H   0  0  0  0  0  0  0  0  0  0  0  0  # atno 10765 bound_to 10752
  139.8871  134.9470  156.6196 H   0  0  0  0  0  0  0  0  0  0  0  0  # atno 11005 bound_to 11000
  145.6230  139.1526  143.3012 LP  0  0  0  0  0  0  0  0  0  0  0  0  # atno 17320 bound_to 7965
  146.1913  140.6339  142.9144 LP  0  0  0  0  0  0  0  0  0  0  0  0  # atno 17321 bound_to 7965
  139.4782  144.5489  151.8415 LP  0  0  0  0  0  0  0  0  0  0  0  0  # atno 17342 bound_to 10162
  140.4588  144.1751  150.5904 LP  0  0  0  0  0  0  0  0  0  0  0  0  # atno 17343 bound_to 10162
  157.7417  131.0500  150.5080 LP  0  0  0  0  0  0  0  0  0  0  0  0  # atno 17370 bound_to 10713
  156.5235  130.4167  149.6238 LP  0  0  0  0  0  0  0  0  0  0  0  0  # atno 17371 bound_to 10713
  140.7749  133.8708  155.8521 LP  0  0  0  0  0  0  0  0  0  0  0  0  # atno 17394 bound_to 11000
  140.9810  134.1405  157.4494 LP  0  0  0  0  0  0  0  0  0  0  0  0  # atno 17395 bound_to 11000

$$$$
