AV-unprocessed.smi:486|AV-procd|sdf|2695|dock2
  -GOLD-   2262023123D 1   1.00000     0.00000
 Structure written by MMmdl.
 43 45  0  0  0  0  0  0  0  0  1 V2000
  151.0379  144.2931  157.7178 C   0  0  0  0  0  0  0  0  0  0  0  0
  150.7616  144.2870  159.1108 O   0  0  0  0  0  0  0  0  0  0  0  0
  151.5200  143.4672  159.9190 C   0  0  0  0  0  0  0  0  0  0  0  0
  151.2285  143.4773  161.2970 C   0  0  0  0  0  0  0  0  0  0  0  0
  151.9538  142.6694  162.1929 C   0  0  0  0  0  0  0  0  0  0  0  0
  152.9904  141.8336  161.7336 C   0  0  0  0  0  0  0  0  0  0  0  0
  153.6511  141.0774  162.6779 O   0  0  0  0  0  0  0  0  0  0  0  0
  153.7488  141.5866  164.0018 C   0  0  0  0  0  0  0  0  0  0  0  0
  154.6452  140.6502  164.8272 C   0  0  2  0  0  0  0  0  0  0  0  0
  155.3371  141.4257  165.7861 O   0  0  0  0  0  0  0  0  0  0  0  0
  155.6692  139.9077  163.9443 C   0  0  0  0  0  0  0  0  0  0  0  0
  155.1162  138.7124  163.3210 N   0  0  0  0  0  0  0  0  0  0  0  0
  154.7757  137.5436  163.9177 C   0  0  0  0  0  0  0  0  0  0  0  0
  154.9339  137.3336  165.3903 C   0  0  0  0  0  0  0  0  0  0  0  0
  154.2874  136.5995  163.1132 N   0  0  0  0  0  0  0  0  0  0  0  0
  154.3110  137.2145  161.8761 C   0  0  0  0  0  0  0  0  0  0  0  0
  153.9182  136.7361  160.6056 C   0  0  0  0  0  0  0  0  0  0  0  0
  154.0342  137.5588  159.4658 C   0  0  0  0  0  0  0  0  0  0  0  0
  154.5444  138.8682  159.5797 C   0  0  0  0  0  0  0  0  0  0  0  0
  154.9421  139.3644  160.8362 C   0  0  0  0  0  0  0  0  0  0  0  0
  154.8235  138.5398  161.9712 C   0  0  0  0  0  0  0  0  0  0  0  0
  153.2873  141.8196  160.3484 C   0  0  0  0  0  0  0  0  0  0  0  0
  152.5604  142.6268  159.4516 C   0  0  0  0  0  0  0  0  0  0  0  0
  150.3554  144.9805  157.2184 H   0  0  0  0  0  0  0  0  0  0  0  0
  150.8906  143.3058  157.2784 H   0  0  0  0  0  0  0  0  0  0  0  0
  152.0547  144.6320  157.5140 H   0  0  0  0  0  0  0  0  0  0  0  0
  150.4389  144.1116  161.6725 H   0  0  0  0  0  0  0  0  0  0  0  0
  151.7117  142.6927  163.2453 H   0  0  0  0  0  0  0  0  0  0  0  0
  154.2066  142.5761  163.9553 H   0  0  0  0  0  0  0  0  0  0  0  0
  152.7677  141.6937  164.4684 H   0  0  0  0  0  0  0  0  0  0  0  0
  154.0250  139.9202  165.3480 H   0  0  0  0  0  0  0  0  0  0  0  0
  154.9028  141.3264  166.6197 H   0  0  0  0  0  0  0  0  0  0  0  0
  156.0428  140.5675  163.1607 H   0  0  0  0  0  0  0  0  0  0  0  0
  156.5399  139.6206  164.5353 H   0  0  0  0  0  0  0  0  0  0  0  0
  154.6697  136.3107  165.6609 H   0  0  0  0  0  0  0  0  0  0  0  0
  154.2821  138.0130  165.9394 H   0  0  0  0  0  0  0  0  0  0  0  0
  155.9656  137.5103  165.6927 H   0  0  0  0  0  0  0  0  0  0  0  0
  153.5267  135.7344  160.5080 H   0  0  0  0  0  0  0  0  0  0  0  0
  153.7307  137.1827  158.4999 H   0  0  0  0  0  0  0  0  0  0  0  0
  154.6317  139.4912  158.7017 H   0  0  0  0  0  0  0  0  0  0  0  0
  155.3371  140.3654  160.9262 H   0  0  0  0  0  0  0  0  0  0  0  0
  154.0702  141.1953  159.9455 H   0  0  0  0  0  0  0  0  0  0  0  0
  152.8218  142.5823  158.4055 H   0  0  0  0  0  0  0  0  0  0  0  0
  1  2  1  0  0  0  0
  1 24  1  0  0  0  0
  1 25  1  0  0  0  0
  1 26  1  0  0  0  0
  2  3  1  0  0  0  0
  3 23  1  0  0  0  0
  3  4  2  0  0  0  0
  4  5  1  0  0  0  0
  4 27  1  0  0  0  0
  5  6  2  0  0  0  0
  5 28  1  0  0  0  0
  6  7  1  0  0  0  0
  6 22  1  0  0  0  0
  7  8  1  0  0  0  0
  8  9  1  0  0  0  0
  8 29  1  0  0  0  0
  8 30  1  0  0  0  0
  9 10  1  0  0  0  0
  9 11  1  0  0  0  0
  9 31  1  0  0  0  0
 10 32  1  0  0  0  0
 11 12  1  0  0  0  0
 11 33  1  0  0  0  0
 11 34  1  0  0  0  0
 12 21  1  0  0  0  0
 12 13  1  0  0  0  0
 13 14  1  0  0  0  0
 13 15  2  0  0  0  0
 14 35  1  0  0  0  0
 14 36  1  0  0  0  0
 14 37  1  0  0  0  0
 15 16  1  0  0  0  0
 16 21  2  0  0  0  0
 16 17  1  0  0  0  0
 17 18  2  0  0  0  0
 17 38  1  0  0  0  0
 18 19  1  0  0  0  0
 18 39  1  0  0  0  0
 19 20  2  0  0  0  0
 19 40  1  0  0  0  0
 20 21  1  0  0  0  0
 20 41  1  0  0  0  0
 22 23  2  0  0  0  0
 22 42  1  0  0  0  0
 23 43  1  0  0  0  0
M  END
> <s_m_source_file>
AV-unprocessed.smi

> <i_m_source_file_index>
486

> <i_lp_mmshare_version>
43012

> <i_f3d_flags>
0

> <s_epik_input>
W0NIM11PYzFbY0hdW2NIXWMoW2NIXVtjSF0xKU9bQ0gyXVtDQEhdKFtPSF0pW0NIMl1uKGMobjIpW0NIM10pYyhjMjMpW2NIXVtjSF1bY0hdW2NIXTM=

> <s_epik_cmdline>
J2VwaWtfcHl0aG9uJywgJy1waCcsICc3LjAnLCAnLXRuJywgJzgnLCAnLW1hJywgJzIwMCcsICctbWV0YWxfYmluZGluZycsICctaW1hZScsICc8aW5maWxlLm1hZT4nLCAnLW9tYWUnLCAnPG91dGZpbGUubWFlPic=

> <r_lp_tautomer_probability>
1

> <r_epik_Ionization_Penalty>
0.114052

> <r_epik_Ionization_Penalty_Charging>
0

> <r_epik_Ionization_Penalty_Neutral>
0.114052

> <r_epik_State_Penalty>
0.103717

> <r_epik_Charging_Adjusted_Penalty>
0.103717

> <i_epik_Tot_Q>
0

> <i_epik_Tot_abs_Q>
0

> <r_epik_Metal_State_Penalty>
0.000113338

> <b_epik_Metal_Only>
0

> <s_lp_Force_Field>
OPLS_2005

> <r_lp_Energy>
19.9985

> <b_lp_Chiralities_Consistent>
1

> <s_lp_Variant>
AV-unprocessed.smi:486-1

> <Gold.Version>
5.8.1

> <Gold.Id.Protein>
6NUR|6NUR_protein|mol2

> <Gold.PLP.Fitness>
45.8800

> <Gold.PLP.PLP>
-48.0196

> <Gold.PLP.part.hbond>
-1.0000

> <Gold.PLP.part.metal>
0.0000

> <Gold.PLP.part.buried>
-2.7402

> <Gold.PLP.part.nonpolar>
-42.4373

> <Gold.PLP.part.repulsive>
0.1271

> <Gold.PLP.ligand.clash>
0.0000

> <Gold.PLP.ligand.torsion>
1.1612

> <Gold.PLP.Chemscore.Hbond>
0.0000

> <Gold.PLP.Chemscore.CHOScore>
0.0000

> <Gold.PLP.Chemscore.Metal>
0.0000

> <Gold.PLP.Chemscore.Internal.Correction>
0.1828

> <Gold.Rescore>
     Score         DG    S(hbond)    S(metal)    S(lipo)     H(rot)  DE(clash)    DE(int)     intcor
     15.06     -16.52       0.00        0.00     144.78       2.30       0.42       1.04       ----

> <Gold.Chemscore.Fitness>
15.0642

> <Gold.Chemscore.DG>
-16.5249

> <Gold.Chemscore.ZeroCoef>
-5.4800

> <Gold.Chemscore.Hbond>
0.0000

> <Gold.Chemscore.Metal>
0.0000

> <Gold.Chemscore.Lipo>
144.7769

> <Gold.Chemscore.Internal_Hbond>
0.0000

> <Gold.Chemscore.DEClash>
0.4215

> <Gold.Chemscore.DEInternal>
1.0392

> <Gold.Chemscore.Rot>
2.3023

> <Gold.Chemscore.Internal.Correction>
   9.000000E+99

> <Gold.Chemscore.Hbond.Weighted>
-0.0000

> <Gold.Chemscore.Metal.Weighted>
-0.0000

> <Gold.Chemscore.Lipo.Weighted>
-16.9389

> <Gold.Chemscore.Internal_Hbond.Weighted>
0.0000

> <Gold.Chemscore.DEClash.Weighted>
0.4215

> <Gold.Chemscore.DEInternal.Weighted>
1.0392

> <Gold.Chemscore.Rot.Weighted>
5.8940

> <Gold.Chemscore.Internal.Correction.Weighted>
   9.000000E+99

> <Gold.Protein.RotatedTorsions>
[ 6907 6896 6895 6894 ] final  133.08 input  -60.11 | X-H torsion
[ 7974 7965 7964 7962 ] final   13.02 input  175.53 | X-H torsion
[ 8008 7997 7996 7995 ] final  160.26 input   59.86 | X-H torsion
[ 10167 10162 10161 10158 ] final  -82.77 input  -65.29 | X-H torsion
[ 10718 10713 10712 10709 ] final  134.41 input   66.30 | X-H torsion
[ 10763 10752 10751 10750 ] final   41.69 input  -60.55 | X-H torsion
[ 11005 11000 10999 10996 ] final  -20.03 input  -57.11 | X-H torsion

> <Gold.Protein.ActiveResidues>
 VAL166  LYS551  ARG553  GLY616  TRP617  ASP618  TYR619  PRO620  LYS621  CYS622 
 ASP623  PHE694  ASN695  SER759  ASP760  ASP761  ALA762  ILE779  LEU786  VAL792 
 PHE793  MET794  SER795  GLU796  ALA797  LYS798  CYS799  TRP800  GLU811  SER814 

> <Gold.Protein.RotatedAtoms>
  152.3257  133.5902  159.5774 H   0  0  0  0  0  0  0  0  0  0  0  0  # atno 6907 bound_to 6896
  150.7395  133.9944  159.3626 H   0  0  0  0  0  0  0  0  0  0  0  0  # atno 6908 bound_to 6896
  151.7824  135.0758  160.0426 H   0  0  0  0  0  0  0  0  0  0  0  0  # atno 6909 bound_to 6896
  146.2339  139.9250  142.8504 H   0  0  0  0  0  0  0  0  0  0  0  0  # atno 7974 bound_to 7965
  156.2184  140.1809  156.7535 H   0  0  0  0  0  0  0  0  0  0  0  0  # atno 8008 bound_to 7997
  154.5827  140.0663  156.9156 H   0  0  0  0  0  0  0  0  0  0  0  0  # atno 8009 bound_to 7997
  155.2474  140.3326  155.4288 H   0  0  0  0  0  0  0  0  0  0  0  0  # atno 8010 bound_to 7997
  140.4289  143.2556  151.8787 H   0  0  0  0  0  0  0  0  0  0  0  0  # atno 10167 bound_to 10162
  157.4676  131.1078  150.9843 H   0  0  0  0  0  0  0  0  0  0  0  0  # atno 10718 bound_to 10713
  152.9902  135.6154  154.2828 H   0  0  0  0  0  0  0  0  0  0  0  0  # atno 10763 bound_to 10752
  154.2557  135.2784  155.2800 H   0  0  0  0  0  0  0  0  0  0  0  0  # atno 10764 bound_to 10752
  154.5250  135.5804  153.6769 H   0  0  0  0  0  0  0  0  0  0  0  0  # atno 10765 bound_to 10752
  140.8424  133.7916  155.9875 H   0  0  0  0  0  0  0  0  0  0  0  0  # atno 11005 bound_to 11000
  145.2099  140.9891  143.4106 LP  0  0  0  0  0  0  0  0  0  0  0  0  # atno 17320 bound_to 7965
  144.9700  139.3890  143.6313 LP  0  0  0  0  0  0  0  0  0  0  0  0  # atno 17321 bound_to 7965
  139.4784  144.5356  151.8603 LP  0  0  0  0  0  0  0  0  0  0  0  0  # atno 17342 bound_to 10162
  140.4449  144.1935  150.5893 LP  0  0  0  0  0  0  0  0  0  0  0  0  # atno 17343 bound_to 10162
  157.0619  130.5829  149.5387 LP  0  0  0  0  0  0  0  0  0  0  0  0  # atno 17370 bound_to 10713
  156.0058  130.5144  150.7823 LP  0  0  0  0  0  0  0  0  0  0  0  0  # atno 17371 bound_to 10713
  140.8880  134.2530  157.5109 LP  0  0  0  0  0  0  0  0  0  0  0  0  # atno 17394 bound_to 11000
  139.8703  134.9648  156.4506 LP  0  0  0  0  0  0  0  0  0  0  0  0  # atno 17395 bound_to 11000

$$$$
