AV-unprocessed.smi:2456|AV-procd|sdf|9702|dock4
  -GOLD-   2272013343D 1   1.00000     0.00000
 Structure written by MMmdl.
 33 34  0  0  0  0  0  0  0  0  2 V2000
  152.3884  138.7128  157.3897 C   0  0  0  0  0  0  0  0  0  0  0  0
  151.4539  139.5184  158.3078 C   0  0  2  0  0  0  0  0  0  0  0  0
  150.2051  138.7681  158.4463 N   0  0  0  0  0  0  0  0  0  0  0  0
  150.0642  137.5776  159.0492 C   0  0  0  0  0  0  0  0  0  0  0  0
  151.0451  137.0222  159.5499 O   0  0  0  0  0  0  0  0  0  0  0  0
  148.7971  137.1049  159.0321 N   0  5  0  0  0  0  0  0  0  0  0  0
  148.2967  136.4828  160.1119 C   0  0  0  0  0  0  0  0  0  0  0  0
  147.9580  137.1290  161.2332 N   0  0  0  0  0  0  0  0  0  0  0  0
  147.4508  136.2896  162.2265 C   0  0  0  0  0  0  0  0  0  0  0  0
  147.3929  134.9742  161.8499 C   0  0  0  0  0  0  0  0  0  0  0  0
  147.9782  134.7493  160.2261 S   0  0  0  0  0  0  0  0  0  0  0  0
  151.2000  140.8904  157.6441 C   0  0  0  0  0  0  0  0  0  0  0  0
  150.6437  140.9347  156.5449 O   0  0  0  0  0  0  0  0  0  0  0  0
  151.6158  142.0107  158.2737 N   0  0  0  0  0  0  0  0  0  0  0  0
  152.3049  141.9953  159.5631 C   0  0  0  0  0  0  0  0  0  0  0  0
  152.8099  143.4213  159.7832 C   0  0  0  0  0  0  0  0  0  0  0  0
  151.8582  144.2820  158.9649 C   0  0  0  0  0  0  0  0  0  0  0  0
  151.4531  143.3836  157.7962 C   0  0  0  0  0  0  0  0  0  0  0  0
  153.3441  139.2199  157.2513 H   0  0  0  0  0  0  0  0  0  0  0  0
  151.9500  138.5538  156.4032 H   0  0  0  0  0  0  0  0  0  0  0  0
  152.6011  137.7323  157.8167 H   0  0  0  0  0  0  0  0  0  0  0  0
  151.9097  139.6179  159.2931 H   0  0  0  0  0  0  0  0  0  0  0  0
  149.3748  139.1911  158.0588 H   0  0  0  0  0  0  0  0  0  0  0  0
  147.1538  136.7148  163.1737 H   0  0  0  0  0  0  0  0  0  0  0  0
  147.0434  134.1292  162.4234 H   0  0  0  0  0  0  0  0  0  0  0  0
  151.5935  141.7164  160.3415 H   0  0  0  0  0  0  0  0  0  0  0  0
  153.1264  141.2772  159.5814 H   0  0  0  0  0  0  0  0  0  0  0  0
  152.8370  143.7026  160.8362 H   0  0  0  0  0  0  0  0  0  0  0  0
  153.8210  143.5166  159.3853 H   0  0  0  0  0  0  0  0  0  0  0  0
  150.9786  144.5223  159.5637 H   0  0  0  0  0  0  0  0  0  0  0  0
  152.3080  145.2207  158.6408 H   0  0  0  0  0  0  0  0  0  0  0  0
  152.1174  143.5439  156.9455 H   0  0  0  0  0  0  0  0  0  0  0  0
  150.4310  143.5939  157.4783 H   0  0  0  0  0  0  0  0  0  0  0  0
  1  2  1  0  0  0  0
  1 19  1  0  0  0  0
  1 20  1  0  0  0  0
  1 21  1  0  0  0  0
  2  3  1  0  0  0  0
  2 12  1  0  0  0  0
  2 22  1  0  0  0  0
  3  4  1  0  0  0  0
  3 23  1  0  0  0  0
  4  5  2  0  0  0  0
  4  6  1  0  0  0  0
  6  7  1  0  0  0  0
  7 11  1  0  0  0  0
  7  8  2  0  0  0  0
  8  9  1  0  0  0  0
  9 10  2  0  0  0  0
  9 24  1  0  0  0  0
 10 11  1  0  0  0  0
 10 25  1  0  0  0  0
 12 13  2  0  0  0  0
 12 14  1  0  0  0  0
 14 18  1  0  0  0  0
 14 15  1  0  0  0  0
 15 16  1  0  0  0  0
 15 26  1  0  0  0  0
 15 27  1  0  0  0  0
 16 17  1  0  0  0  0
 16 28  1  0  0  0  0
 16 29  1  0  0  0  0
 17 18  1  0  0  0  0
 17 30  1  0  0  0  0
 17 31  1  0  0  0  0
 18 32  1  0  0  0  0
 18 33  1  0  0  0  0
M  CHG  1   6  -1
M  END
> <s_m_source_file>
AV-unprocessed.smi

> <i_m_source_file_index>
2456

> <i_lp_mmshare_version>
43012

> <i_f3d_flags>
0

> <s_epik_input>
W0NIMl0xW0NIMl1bQ0gyXVtDSDJdTjFDKD1PKVtDQEhdKFtDSDNdKVtOSF1DKD1PKVtOSF1jMm5bY0hdW2NIXXMy

> <s_epik_cmdline>
J2VwaWtfcHl0aG9uJywgJy1waCcsICc3LjAnLCAnLXRuJywgJzgnLCAnLW1hJywgJzIwMCcsICctbWV0YWxfYmluZGluZycsICctaW1hZScsICc8aW5maWxlLm1hZT4nLCAnLW9tYWUnLCAnPG91dGZpbGUubWFlPic=

> <r_lp_tautomer_probability>
1

> <r_epik_Ionization_Penalty>
5.99337

> <r_epik_Ionization_Penalty_Charging>
5.23786

> <r_epik_Ionization_Penalty_Neutral>
0.755512

> <r_epik_State_Penalty>
5.23778

> <r_epik_Charging_Adjusted_Penalty>
10.4756

> <i_epik_Tot_Q>
-1

> <i_epik_Tot_abs_Q>
1

> <r_epik_Metal_State_Penalty>
1.29566

> <b_epik_Metal_Only>
1

> <s_lp_Force_Field>
OPLS_2005

> <r_lp_Energy>
24.4134

> <b_lp_Chiralities_Consistent>
1

> <s_lp_Variant>
AV-unprocessed.smi:2456-3

> <Gold.Version>
5.8.1

> <Gold.Id.Protein>
6NUR|6NUR_protein|mol2

> <Gold.PLP.Fitness>
42.7939

> <Gold.PLP.PLP>
-36.6817

> <Gold.PLP.part.hbond>
-3.0000

> <Gold.PLP.part.metal>
0.0000

> <Gold.PLP.part.buried>
-4.8334

> <Gold.PLP.part.nonpolar>
-29.0177

> <Gold.PLP.part.repulsive>
0.1811

> <Gold.PLP.ligand.clash>
0.0000

> <Gold.PLP.ligand.torsion>
1.0401

> <Gold.PLP.Chemscore.Hbond>
2.7200

> <Gold.PLP.Chemscore.CHOScore>
0.0000

> <Gold.PLP.Chemscore.Metal>
0.0000

> <Gold.Chemscore.Hbonds>
donor molecule, donor type, donor heavy atom, donor atom, acceptor molecule, acceptor atom, score
      P1  H  6896  6907       L1     5  1.00
      P1  H  6931  6943       L1     8  1.00
      P1  H  6934  6947       L1     8  0.68

> <Gold.PLP.Chemscore.Internal.Correction>
0.0325

> <Gold.Rescore>
     Score         DG    S(hbond)    S(metal)    S(lipo)     H(rot)  DE(clash)    DE(int)     intcor
     18.29     -19.32       2.51        0.00      75.67       1.33       0.03       1.00       ----

> <Gold.Chemscore.Fitness>
18.2949

> <Gold.Chemscore.DG>
-19.3218

> <Gold.Chemscore.ZeroCoef>
-5.4800

> <Gold.Chemscore.Hbond>
2.5121

> <Gold.Chemscore.Metal>
0.0000

> <Gold.Chemscore.Lipo>
75.6666

> <Gold.Chemscore.Internal_Hbond>
0.0000

> <Gold.Chemscore.DEClash>
0.0310

> <Gold.Chemscore.DEInternal>
0.9959

> <Gold.Chemscore.Rot>
1.3288

> <Gold.Chemscore.Internal.Correction>
   9.000000E+99

> <Gold.Chemscore.Hbonds>
donor molecule, donor type, donor heavy atom, donor atom, acceptor molecule, acceptor atom, score
      P1  H  6896  6907       L1     5  0.99
      P1  H  6931  6943       L1     8  0.70
      P1  H  6934  6947       L1     8  0.58

> <Gold.Chemscore.Hbond.Weighted>
-8.3904

> <Gold.Chemscore.Metal.Weighted>
-0.0000

> <Gold.Chemscore.Lipo.Weighted>
-8.8530

> <Gold.Chemscore.Internal_Hbond.Weighted>
0.0000

> <Gold.Chemscore.DEClash.Weighted>
0.0310

> <Gold.Chemscore.DEInternal.Weighted>
0.9959

> <Gold.Chemscore.Rot.Weighted>
3.4017

> <Gold.Chemscore.Internal.Correction.Weighted>
   9.000000E+99

> <Gold.Protein.RotatedTorsions>
[ 6907 6896 6895 6894 ] final   -3.58 input  -60.11 | X-H torsion
[ 7974 7965 7964 7962 ] final -179.40 input  175.53 | X-H torsion
[ 8008 7997 7996 7995 ] final  -90.57 input   59.86 | X-H torsion
[ 10167 10162 10161 10158 ] final  -14.22 input  -65.29 | X-H torsion
[ 10718 10713 10712 10709 ] final   89.47 input   66.30 | X-H torsion
[ 10763 10752 10751 10750 ] final  -93.42 input  -60.55 | X-H torsion
[ 11005 11000 10999 10996 ] final -174.70 input  -57.11 | X-H torsion

> <Gold.Protein.ActiveResidues>
 VAL166  LYS551  ARG553  GLY616  TRP617  ASP618  TYR619  PRO620  LYS621  CYS622 
 ASP623  PHE694  ASN695  SER759  ASP760  ASP761  ALA762  ILE779  LEU786  VAL792 
 PHE793  MET794  SER795  GLU796  ALA797  LYS798  CYS799  TRP800  GLU811  SER814 

> <Gold.Protein.RotatedAtoms>
  151.5115  135.1065  159.9854 H   0  0  0  0  0  0  0  0  0  0  0  0  # atno 6907 bound_to 6896
  152.4660  133.7919  159.6917 H   0  0  0  0  0  0  0  0  0  0  0  0  # atno 6908 bound_to 6896
  150.8643  133.7533  159.3007 H   0  0  0  0  0  0  0  0  0  0  0  0  # atno 6909 bound_to 6896
  144.7136  140.0724  143.6429 H   0  0  0  0  0  0  0  0  0  0  0  0  # atno 7974 bound_to 7965
  154.7002  140.0529  157.0450 H   0  0  0  0  0  0  0  0  0  0  0  0  # atno 8008 bound_to 7997
  155.0695  140.3198  155.4616 H   0  0  0  0  0  0  0  0  0  0  0  0  # atno 8009 bound_to 7997
  156.2757  140.2084  156.5823 H   0  0  0  0  0  0  0  0  0  0  0  0  # atno 8010 bound_to 7997
  140.7197  143.5345  150.9481 H   0  0  0  0  0  0  0  0  0  0  0  0  # atno 10167 bound_to 10162
  157.6955  131.0334  150.3430 H   0  0  0  0  0  0  0  0  0  0  0  0  # atno 10718 bound_to 10713
  154.6957  135.5195  153.8455 H   0  0  0  0  0  0  0  0  0  0  0  0  # atno 10763 bound_to 10752
  153.0665  135.6587  154.0351 H   0  0  0  0  0  0  0  0  0  0  0  0  # atno 10764 bound_to 10752
  154.0218  135.2993  155.3359 H   0  0  0  0  0  0  0  0  0  0  0  0  # atno 10765 bound_to 10752
  140.4716  134.6160  157.4884 H   0  0  0  0  0  0  0  0  0  0  0  0  # atno 11005 bound_to 11000
  145.9772  139.2914  143.1063 LP  0  0  0  0  0  0  0  0  0  0  0  0  # atno 17320 bound_to 7965
  145.9051  140.9217  143.0483 LP  0  0  0  0  0  0  0  0  0  0  0  0  # atno 17321 bound_to 7965
  139.9066  143.6771  152.3122 LP  0  0  0  0  0  0  0  0  0  0  0  0  # atno 17342 bound_to 10162
  139.7139  144.7615  151.1066 LP  0  0  0  0  0  0  0  0  0  0  0  0  # atno 17343 bound_to 10162
  156.3889  130.3894  149.7045 LP  0  0  0  0  0  0  0  0  0  0  0  0  # atno 17370 bound_to 10713
  156.4402  130.7857  151.2878 LP  0  0  0  0  0  0  0  0  0  0  0  0  # atno 17371 bound_to 10713
  139.9882  134.7028  155.9736 LP  0  0  0  0  0  0  0  0  0  0  0  0  # atno 17394 bound_to 11000
  141.1574  133.6541  156.4207 LP  0  0  0  0  0  0  0  0  0  0  0  0  # atno 17395 bound_to 11000

$$$$
