AV-unprocessed.smi:2095|AV-procd|sdf|8556|dock1
  -GOLD-   2272011283D 1   1.00000     0.00000
 Structure written by MMmdl.
 42 43  0  0  0  0  0  0  0  0  2 V2000
  152.7167  142.8170  161.1713 C   0  0  0  0  0  0  0  0  0  0  0  0
  152.7427  143.8001  159.9879 C   0  0  2  0  0  0  0  0  0  0  0  0
  151.7510  144.9670  160.1585 C   0  0  0  0  0  0  0  0  0  0  0  0
  150.3018  144.5091  159.9344 C   0  0  0  0  0  0  0  0  0  0  0  0
  150.1514  143.7874  158.5858 C   0  0  0  0  0  0  0  0  0  0  0  0
  151.1003  142.6473  158.4899 N   0  3  1  0  0  0  0  0  0  0  0  0
  150.8294  141.7444  157.3340 C   0  0  2  0  0  0  0  0  0  0  0  0
  149.3520  141.3055  157.3189 C   0  0  0  0  0  0  0  0  0  0  0  0
  151.8122  140.5483  157.2503 C   0  0  0  0  0  0  0  0  0  0  0  0
  151.3729  139.5467  156.2863 N   0  0  0  0  0  0  0  0  0  0  0  0
  152.0987  139.1131  155.2443 C   0  0  0  0  0  0  0  0  0  0  0  0
  153.2560  139.4715  155.0284 O   0  0  0  0  0  0  0  0  0  0  0  0
  151.4010  138.1517  154.2831 C   0  0  0  0  0  0  0  0  0  0  0  0
  151.0270  136.9310  154.9719 N   0  0  0  0  0  0  0  0  0  0  0  0
  149.9084  136.2047  154.9236 C   0  0  0  0  0  0  0  0  0  0  0  0
  149.9633  135.1684  155.7464 N   0  0  0  0  0  0  0  0  0  0  0  0
  151.2155  135.2914  156.3253 N   0  0  0  0  0  0  0  0  0  0  0  0
  151.8514  136.3355  155.8699 N   0  0  0  0  0  0  0  0  0  0  0  0
  152.5142  143.0923  158.6365 C   0  0  0  0  0  0  0  0  0  0  0  0
  151.7520  142.3188  161.2675 H   0  0  0  0  0  0  0  0  0  0  0  0
  152.9192  143.3313  162.1113 H   0  0  0  0  0  0  0  0  0  0  0  0
  153.4756  142.0430  161.0525 H   0  0  0  0  0  0  0  0  0  0  0  0
  153.7459  144.2278  159.9668 H   0  0  0  0  0  0  0  0  0  0  0  0
  151.8570  145.4203  161.1448 H   0  0  0  0  0  0  0  0  0  0  0  0
  151.9909  145.7490  159.4368 H   0  0  0  0  0  0  0  0  0  0  0  0
  149.9911  143.8463  160.7425 H   0  0  0  0  0  0  0  0  0  0  0  0
  149.6320  145.3688  159.9715 H   0  0  0  0  0  0  0  0  0  0  0  0
  149.1254  143.4314  158.4866 H   0  0  0  0  0  0  0  0  0  0  0  0
  150.3251  144.4869  157.7673 H   0  0  0  0  0  0  0  0  0  0  0  0
  150.9609  142.3484  156.4351 H   0  0  0  0  0  0  0  0  0  0  0  0
  149.0965  140.8051  156.3842 H   0  0  0  0  0  0  0  0  0  0  0  0
  148.6870  142.1645  157.4131 H   0  0  0  0  0  0  0  0  0  0  0  0
  149.1215  140.6145  158.1294 H   0  0  0  0  0  0  0  0  0  0  0  0
  152.8180  140.8820  156.9915 H   0  0  0  0  0  0  0  0  0  0  0  0
  151.8907  140.0481  158.2154 H   0  0  0  0  0  0  0  0  0  0  0  0
  150.4308  139.1963  156.3869 H   0  0  0  0  0  0  0  0  0  0  0  0
  150.5022  138.6149  153.8735 H   0  0  0  0  0  0  0  0  0  0  0  0
  152.0547  137.9112  153.4432 H   0  0  0  0  0  0  0  0  0  0  0  0
  149.0588  136.4390  154.2992 H   0  0  0  0  0  0  0  0  0  0  0  0
  152.7648  143.7802  157.8279 H   0  0  0  0  0  0  0  0  0  0  0  0
  153.1966  142.2473  158.5491 H   0  0  0  0  0  0  0  0  0  0  0  0
  150.9085  142.0826  159.3052 H   0  0  0  0  0  0  0  0  0  0  0  0
  1  2  1  0  0  0  0
  1 20  1  0  0  0  0
  1 21  1  0  0  0  0
  1 22  1  0  0  0  0
  2 19  1  0  0  0  0
  2  3  1  0  0  0  0
  2 23  1  0  0  0  0
  3  4  1  0  0  0  0
  3 24  1  0  0  0  0
  3 25  1  0  0  0  0
  4  5  1  0  0  0  0
  4 26  1  0  0  0  0
  4 27  1  0  0  0  0
  5  6  1  0  0  0  0
  5 28  1  0  0  0  0
  5 29  1  0  0  0  0
  6  7  1  0  0  0  0
  6 19  1  0  0  0  0
  6 42  1  0  0  0  0
  7  8  1  0  0  0  0
  7  9  1  0  0  0  0
  7 30  1  0  0  0  0
  8 31  1  0  0  0  0
  8 32  1  0  0  0  0
  8 33  1  0  0  0  0
  9 10  1  0  0  0  0
  9 34  1  0  0  0  0
  9 35  1  0  0  0  0
 10 11  1  0  0  0  0
 10 36  1  0  0  0  0
 11 12  2  0  0  0  0
 11 13  1  0  0  0  0
 13 14  1  0  0  0  0
 13 37  1  0  0  0  0
 13 38  1  0  0  0  0
 14 18  1  0  0  0  0
 14 15  1  0  0  0  0
 15 16  2  0  0  0  0
 15 39  1  0  0  0  0
 16 17  1  0  0  0  0
 17 18  2  0  0  0  0
 19 40  1  0  0  0  0
 19 41  1  0  0  0  0
M  CHG  1   6   1
M  END
> <s_m_source_file>
AV-unprocessed.smi

> <i_m_source_file_index>
2095

> <i_lp_mmshare_version>
43012

> <i_f3d_flags>
0

> <s_epik_input>
W0NIM11bQ0BASF0xW0NIMl1bQ0gyXVtDSDJdTihbQ0gyXTEpW0NASF0oW0NIM10pW0NIMl1bTkhdQyg9TylbQ0gyXW4yW2NIXW5ubjI=

> <s_epik_cmdline>
J2VwaWtfcHl0aG9uJywgJy1waCcsICc3LjAnLCAnLXRuJywgJzgnLCAnLW1hJywgJzIwMCcsICctbWV0YWxfYmluZGluZycsICctaW1hZScsICc8aW5maWxlLm1hZT4nLCAnLW9tYWUnLCAnPG91dGZpbGUubWFlPic=

> <r_lp_tautomer_probability>
1

> <r_epik_Ionization_Penalty>
0.00268321

> <r_epik_Ionization_Penalty_Charging>
0.00267875

> <r_epik_Ionization_Penalty_Neutral>
4.46125e-06

> <r_epik_State_Penalty>
0.00186642

> <r_epik_Charging_Adjusted_Penalty>
0.00454517

> <i_epik_Tot_Q>
1

> <i_epik_Tot_abs_Q>
1

> <r_epik_Metal_State_Penalty>
-0

> <b_epik_Metal_Only>
0

> <s_lp_Force_Field>
OPLS_2005

> <r_lp_Energy>
23.935

> <b_lp_Chiralities_Consistent>
1

> <s_lp_Variant>
AV-unprocessed.smi:2095-3

> <Gold.Version>
5.8.1

> <Gold.Id.Protein>
6NUR|6NUR_protein|mol2

> <Gold.PLP.Fitness>
46.3094

> <Gold.PLP.PLP>
-38.3880

> <Gold.PLP.part.hbond>
-2.5230

> <Gold.PLP.part.metal>
0.0000

> <Gold.PLP.part.buried>
-6.7794

> <Gold.PLP.part.nonpolar>
-30.2249

> <Gold.PLP.part.repulsive>
0.2457

> <Gold.PLP.ligand.clash>
0.0000

> <Gold.PLP.ligand.torsion>
0.4114

> <Gold.PLP.Chemscore.Hbond>
2.0000

> <Gold.PLP.Chemscore.CHOScore>
0.8769

> <Gold.PLP.Chemscore.Metal>
0.0000

> <Gold.Chemscore.Hbonds>
donor molecule, donor type, donor heavy atom, donor atom, acceptor molecule, acceptor atom, score
      P1  H  7997  8009       L1    12  1.00
      P1  H 10752 10764       L1    18  0.95
      L1  C    15    39       P1  7948  0.90

> <Gold.PLP.Chemscore.Internal.Correction>
0.1136

> <Gold.Rescore>
     Score         DG    S(hbond)    S(metal)    S(lipo)     H(rot)  DE(clash)    DE(int)     intcor
     15.66     -15.91       1.98        0.00      90.52       2.64       0.00       0.26       ----

> <Gold.Chemscore.Fitness>
15.6561

> <Gold.Chemscore.DG>
-15.9112

> <Gold.Chemscore.ZeroCoef>
-5.4800

> <Gold.Chemscore.Hbond>
1.9785

> <Gold.Chemscore.Metal>
0.0000

> <Gold.Chemscore.Lipo>
90.5241

> <Gold.Chemscore.Internal_Hbond>
0.0000

> <Gold.Chemscore.DEClash>
0.0000

> <Gold.Chemscore.DEInternal>
0.2551

> <Gold.Chemscore.Rot>
2.6439

> <Gold.Chemscore.Internal.Correction>
   9.000000E+99

> <Gold.Chemscore.Hbonds>
donor molecule, donor type, donor heavy atom, donor atom, acceptor molecule, acceptor atom, score
      P1  H  7997  8009       L1    12  0.99
      P1  H 10752 10764       L1    18  0.11

> <Gold.Chemscore.Hbond.Weighted>
-6.6083

> <Gold.Chemscore.Metal.Weighted>
-0.0000

> <Gold.Chemscore.Lipo.Weighted>
-10.5913

> <Gold.Chemscore.Internal_Hbond.Weighted>
0.0000

> <Gold.Chemscore.DEClash.Weighted>
0.0000

> <Gold.Chemscore.DEInternal.Weighted>
0.2551

> <Gold.Chemscore.Rot.Weighted>
6.7685

> <Gold.Chemscore.Internal.Correction.Weighted>
   9.000000E+99

> <Gold.Protein.RotatedTorsions>
[ 6907 6896 6895 6894 ] final -166.37 input  -60.11 | X-H torsion
[ 7974 7965 7964 7962 ] final   55.58 input  175.53 | X-H torsion
[ 8008 7997 7996 7995 ] final -148.21 input   59.86 | X-H torsion
[ 10167 10162 10161 10158 ] final  -91.27 input  -65.29 | X-H torsion
[ 10718 10713 10712 10709 ] final   -5.83 input   66.30 | X-H torsion
[ 10763 10752 10751 10750 ] final  -39.79 input  -60.55 | X-H torsion
[ 11005 11000 10999 10996 ] final   91.22 input  -57.11 | X-H torsion

> <Gold.Protein.ActiveResidues>
 VAL166  LYS551  ARG553  GLY616  TRP617  ASP618  TYR619  PRO620  LYS621  CYS622 
 ASP623  PHE694  ASN695  SER759  ASP760  ASP761  ALA762  ILE779  LEU786  VAL792 
 PHE793  MET794  SER795  GLU796  ALA797  LYS798  CYS799  TRP800  GLU811  SER814 

> <Gold.Protein.RotatedAtoms>
  151.4424  133.3639  159.2783 H   0  0  0  0  0  0  0  0  0  0  0  0  # atno 6907 bound_to 6896
  150.9148  134.8567  159.7460 H   0  0  0  0  0  0  0  0  0  0  0  0  # atno 6908 bound_to 6896
  152.4951  134.4357  159.9579 H   0  0  0  0  0  0  0  0  0  0  0  0  # atno 6909 bound_to 6896
  145.9489  139.3954  143.0318 H   0  0  0  0  0  0  0  0  0  0  0  0  # atno 7974 bound_to 7965
  155.5880  140.0650  157.2766 H   0  0  0  0  0  0  0  0  0  0  0  0  # atno 8008 bound_to 7997
  154.4313  140.1840  156.1091 H   0  0  0  0  0  0  0  0  0  0  0  0  # atno 8009 bound_to 7997
  156.0255  140.3312  155.7087 H   0  0  0  0  0  0  0  0  0  0  0  0  # atno 8010 bound_to 7997
  140.3466  143.2913  151.9774 H   0  0  0  0  0  0  0  0  0  0  0  0  # atno 10167 bound_to 10162
  156.7409  130.5209  149.5824 H   0  0  0  0  0  0  0  0  0  0  0  0  # atno 10718 bound_to 10713
  153.9352  135.6767  153.4745 H   0  0  0  0  0  0  0  0  0  0  0  0  # atno 10763 bound_to 10752
  153.0959  135.4851  154.8775 H   0  0  0  0  0  0  0  0  0  0  0  0  # atno 10764 bound_to 10752
  154.7407  135.3160  154.8691 H   0  0  0  0  0  0  0  0  0  0  0  0  # atno 10765 bound_to 10752
  139.8842  134.8661  156.3397 H   0  0  0  0  0  0  0  0  0  0  0  0  # atno 11005 bound_to 11000
  145.8199  140.9684  143.0904 LP  0  0  0  0  0  0  0  0  0  0  0  0  # atno 17320 bound_to 7965
  144.6792  140.0028  143.7484 LP  0  0  0  0  0  0  0  0  0  0  0  0  # atno 17321 bound_to 7965
  139.4832  144.6112  151.7431 LP  0  0  0  0  0  0  0  0  0  0  0  0  # atno 17342 bound_to 10162
  140.5259  144.0807  150.6037 LP  0  0  0  0  0  0  0  0  0  0  0  0  # atno 17343 bound_to 10162
  156.1465  130.6281  151.0539 LP  0  0  0  0  0  0  0  0  0  0  0  0  # atno 17370 bound_to 10713
  157.6819  131.0836  150.7347 LP  0  0  0  0  0  0  0  0  0  0  0  0  # atno 17371 bound_to 10713
  140.9667  133.7354  156.0476 LP  0  0  0  0  0  0  0  0  0  0  0  0  # atno 17394 bound_to 11000
  140.7922  134.3604  157.5461 LP  0  0  0  0  0  0  0  0  0  0  0  0  # atno 17395 bound_to 11000

$$$$
