AV-unprocessed.smi:561|AV-procd|sdf|2939|dock4
  -GOLD-   2262023433D 1   1.00000     0.00000
 Structure written by MMmdl.
 36 37  0  0  0  0  0  0  0  0  1 V2000
  152.0103  145.1932  158.7561 C   0  0  0  0  0  0  0  0  0  0  0  0
  152.6798  143.8364  159.0198 C   0  0  1  0  0  0  0  0  0  0  0  0
  152.5117  143.3971  160.4868 C   0  0  0  0  0  0  0  0  0  0  0  0
  153.3799  142.2853  160.8292 N   0  0  0  0  0  0  0  0  0  0  0  0
  153.5418  141.7034  162.0794 C   0  0  0  0  0  0  0  0  0  0  0  0
  154.4704  140.6986  161.9276 C   0  0  0  0  0  0  0  0  0  0  0  0
  154.8893  140.6432  160.6001 N   0  0  0  0  0  0  0  0  0  0  0  0
  154.1995  141.6108  160.0105 C   0  0  0  0  0  0  0  0  0  0  0  0
  152.1169  142.8219  158.1322 N   0  0  0  0  0  0  0  0  0  0  0  0
  150.8079  142.6110  157.9047 C   0  0  0  0  0  0  0  0  0  0  0  0
  149.9157  143.2267  158.4886 O   0  0  0  0  0  0  0  0  0  0  0  0
  150.4895  141.5815  156.8799 C   0  0  0  0  0  0  0  0  0  0  0  0
  149.5815  141.8182  155.9854 N   0  0  0  0  0  0  0  0  0  0  0  0
  149.2328  140.8902  155.0264 N   0  0  0  0  0  0  0  0  0  0  0  0
  148.0080  141.2302  154.3027 C   0  0  0  0  0  0  0  0  0  0  0  0
  149.9474  139.7697  154.7466 C   0  0  0  0  0  0  0  0  0  0  0  0
  149.6174  138.9305  153.9088 O   0  0  0  0  0  0  0  0  0  0  0  0
  151.2558  139.5856  155.5215 C   0  0  0  0  0  0  0  0  0  0  0  0
  151.2083  140.2483  156.9122 C   0  0  0  0  0  0  0  0  0  0  0  0
  152.4318  145.9685  159.3966 H   0  0  0  0  0  0  0  0  0  0  0  0
  150.9375  145.1505  158.9468 H   0  0  0  0  0  0  0  0  0  0  0  0
  152.1531  145.5092  157.7222 H   0  0  0  0  0  0  0  0  0  0  0  0
  153.7481  143.9399  158.8197 H   0  0  0  0  0  0  0  0  0  0  0  0
  152.7453  144.2254  161.1570 H   0  0  0  0  0  0  0  0  0  0  0  0
  151.4781  143.1123  160.6893 H   0  0  0  0  0  0  0  0  0  0  0  0
  153.0005  142.0453  162.9493 H   0  0  0  0  0  0  0  0  0  0  0  0
  154.8665  140.0172  162.6660 H   0  0  0  0  0  0  0  0  0  0  0  0
  154.2982  141.8395  158.9591 H   0  0  0  0  0  0  0  0  0  0  0  0
  152.7754  142.2615  157.6104 H   0  0  0  0  0  0  0  0  0  0  0  0
  147.7700  140.5429  153.4899 H   0  0  0  0  0  0  0  0  0  0  0  0
  148.0925  142.2272  153.8685 H   0  0  0  0  0  0  0  0  0  0  0  0
  147.1598  141.2346  154.9884 H   0  0  0  0  0  0  0  0  0  0  0  0
  151.4919  138.5250  155.6145 H   0  0  0  0  0  0  0  0  0  0  0  0
  152.0536  140.0339  154.9283 H   0  0  0  0  0  0  0  0  0  0  0  0
  152.2306  140.3711  157.2718 H   0  0  0  0  0  0  0  0  0  0  0  0
  150.7092  139.5877  157.6221 H   0  0  0  0  0  0  0  0  0  0  0  0
  1  2  1  0  0  0  0
  1 20  1  0  0  0  0
  1 21  1  0  0  0  0
  1 22  1  0  0  0  0
  2  3  1  0  0  0  0
  2  9  1  0  0  0  0
  2 23  1  0  0  0  0
  3  4  1  0  0  0  0
  3 24  1  0  0  0  0
  3 25  1  0  0  0  0
  4  8  1  0  0  0  0
  4  5  1  0  0  0  0
  5  6  2  0  0  0  0
  5 26  1  0  0  0  0
  6  7  1  0  0  0  0
  6 27  1  0  0  0  0
  7  8  2  0  0  0  0
  8 28  1  0  0  0  0
  9 10  1  0  0  0  0
  9 29  1  0  0  0  0
 10 11  2  0  0  0  0
 10 12  1  0  0  0  0
 12 19  1  0  0  0  0
 12 13  2  0  0  0  0
 13 14  1  0  0  0  0
 14 15  1  0  0  0  0
 14 16  1  0  0  0  0
 15 30  1  0  0  0  0
 15 31  1  0  0  0  0
 15 32  1  0  0  0  0
 16 17  2  0  0  0  0
 16 18  1  0  0  0  0
 18 19  1  0  0  0  0
 18 33  1  0  0  0  0
 18 34  1  0  0  0  0
 19 35  1  0  0  0  0
 19 36  1  0  0  0  0
M  END
> <s_m_source_file>
AV-unprocessed.smi

> <i_m_source_file_index>
561

> <i_lp_mmshare_version>
43012

> <i_f3d_flags>
0

> <s_epik_input>
W2NIXTFuW2NIXVtjSF1uMVtDSDJdW0NAQEhdKFtDSDNdKVtOSF1DKD1PKUMyPU5OKFtDSDNdKUMoPU8pW0NIMl1bQ0gyXTI=

> <s_epik_cmdline>
J2VwaWtfcHl0aG9uJywgJy1waCcsICc3LjAnLCAnLXRuJywgJzgnLCAnLW1hJywgJzIwMCcsICctbWV0YWxfYmluZGluZycsICctaW1hZScsICc8aW5maWxlLm1hZT4nLCAnLW9tYWUnLCAnPG91dGZpbGUubWFlPic=

> <r_lp_tautomer_probability>
1

> <r_epik_Ionization_Penalty>
0.46798

> <r_epik_Ionization_Penalty_Charging>
0.467902

> <r_epik_Ionization_Penalty_Neutral>
7.78263e-05

> <r_epik_State_Penalty>
0.47192

> <r_epik_Charging_Adjusted_Penalty>
0.939822

> <i_epik_Tot_Q>
0

> <i_epik_Tot_abs_Q>
0

> <r_epik_Metal_State_Penalty>
0.280825

> <b_epik_Metal_Only>
0

> <s_epik_Chemistry_Notes>
This compound has an imine and may undergo hydrolysis.

> <s_lp_Force_Field>
OPLS_2005

> <r_lp_Energy>
18.7987

> <b_lp_Chiralities_Consistent>
1

> <s_lp_Variant>
AV-unprocessed.smi:561-4

> <Gold.Version>
5.8.1

> <Gold.Id.Protein>
6NUR|6NUR_protein|mol2

> <Gold.PLP.Fitness>
41.6755

> <Gold.PLP.PLP>
-43.6759

> <Gold.PLP.part.hbond>
-0.4310

> <Gold.PLP.part.metal>
0.0000

> <Gold.PLP.part.buried>
-2.2450

> <Gold.PLP.part.nonpolar>
-41.4356

> <Gold.PLP.part.repulsive>
1.4361

> <Gold.PLP.ligand.clash>
0.0000

> <Gold.PLP.ligand.torsion>
1.0187

> <Gold.PLP.Chemscore.Hbond>
0.0000

> <Gold.PLP.Chemscore.CHOScore>
0.0000

> <Gold.PLP.Chemscore.Metal>
0.0000

> <Gold.PLP.Chemscore.Internal.Correction>
0.0370

> <Gold.Rescore>
     Score         DG    S(hbond)    S(metal)    S(lipo)     H(rot)  DE(clash)    DE(int)     intcor
      8.89     -11.06       0.00        0.00      85.10       1.71       0.11       2.07       ----

> <Gold.Chemscore.Fitness>
8.8868

> <Gold.Chemscore.DG>
-11.0626

> <Gold.Chemscore.ZeroCoef>
-5.4800

> <Gold.Chemscore.Hbond>
0.0000

> <Gold.Chemscore.Metal>
0.0000

> <Gold.Chemscore.Lipo>
85.0986

> <Gold.Chemscore.Internal_Hbond>
0.0000

> <Gold.Chemscore.DEClash>
0.1087

> <Gold.Chemscore.DEInternal>
2.0671

> <Gold.Chemscore.Rot>
1.7086

> <Gold.Chemscore.Internal.Correction>
   9.000000E+99

> <Gold.Chemscore.Hbond.Weighted>
-0.0000

> <Gold.Chemscore.Metal.Weighted>
-0.0000

> <Gold.Chemscore.Lipo.Weighted>
-9.9565

> <Gold.Chemscore.Internal_Hbond.Weighted>
0.0000

> <Gold.Chemscore.DEClash.Weighted>
0.1087

> <Gold.Chemscore.DEInternal.Weighted>
2.0671

> <Gold.Chemscore.Rot.Weighted>
4.3739

> <Gold.Chemscore.Internal.Correction.Weighted>
   9.000000E+99

> <Gold.Protein.RotatedTorsions>
[ 6907 6896 6895 6894 ] final  -84.69 input  -60.11 | X-H torsion
[ 7974 7965 7964 7962 ] final  -66.12 input  175.53 | X-H torsion
[ 8008 7997 7996 7995 ] final -146.60 input   59.86 | X-H torsion
[ 10167 10162 10161 10158 ] final  -50.02 input  -65.29 | X-H torsion
[ 10718 10713 10712 10709 ] final   14.86 input   66.30 | X-H torsion
[ 10763 10752 10751 10750 ] final  -82.83 input  -60.55 | X-H torsion
[ 11005 11000 10999 10996 ] final  -44.12 input  -57.11 | X-H torsion

> <Gold.Protein.ActiveResidues>
 VAL166  LYS551  ARG553  GLY616  TRP617  ASP618  TYR619  PRO620  LYS621  CYS622 
 ASP623  PHE694  ASN695  SER759  ASP760  ASP761  ALA762  ILE779  LEU786  VAL792 
 PHE793  MET794  SER795  GLU796  ALA797  LYS798  CYS799  TRP800  GLU811  SER814 

> <Gold.Protein.RotatedAtoms>
  150.6875  134.3320  159.4830 H   0  0  0  0  0  0  0  0  0  0  0  0  # atno 6907 bound_to 6896
  152.1184  134.9221  160.0573 H   0  0  0  0  0  0  0  0  0  0  0  0  # atno 6908 bound_to 6896
  152.0437  133.3954  159.4384 H   0  0  0  0  0  0  0  0  0  0  0  0  # atno 6909 bound_to 6896
  145.7458  140.8932  143.0506 H   0  0  0  0  0  0  0  0  0  0  0  0  # atno 7974 bound_to 7965
  155.5619  140.0626  157.2827 H   0  0  0  0  0  0  0  0  0  0  0  0  # atno 8008 bound_to 7997
  154.4387  140.1884  156.0837 H   0  0  0  0  0  0  0  0  0  0  0  0  # atno 8009 bound_to 7997
  156.0440  140.3292  155.7279 H   0  0  0  0  0  0  0  0  0  0  0  0  # atno 8010 bound_to 7997
  140.6658  143.2674  151.4299 H   0  0  0  0  0  0  0  0  0  0  0  0  # atno 10167 bound_to 10162
  157.0452  130.6247  149.5758 H   0  0  0  0  0  0  0  0  0  0  0  0  # atno 10718 bound_to 10713
  154.5804  135.5577  153.7180 H   0  0  0  0  0  0  0  0  0  0  0  0  # atno 10763 bound_to 10752
  153.0079  135.6319  154.1990 H   0  0  0  0  0  0  0  0  0  0  0  0  # atno 10764 bound_to 10752
  154.1930  135.2881  155.2995 H   0  0  0  0  0  0  0  0  0  0  0  0  # atno 10765 bound_to 10752
  141.0429  133.6772  156.2828 H   0  0  0  0  0  0  0  0  0  0  0  0  # atno 11005 bound_to 11000
  144.6860  139.9523  143.7478 LP  0  0  0  0  0  0  0  0  0  0  0  0  # atno 17320 bound_to 7965
  146.0404  139.3416  143.0701 LP  0  0  0  0  0  0  0  0  0  0  0  0  # atno 17321 bound_to 7965
  139.5906  144.1508  152.2083 LP  0  0  0  0  0  0  0  0  0  0  0  0  # atno 17342 bound_to 10162
  140.0861  144.5660  150.7088 LP  0  0  0  0  0  0  0  0  0  0  0  0  # atno 17343 bound_to 10162
  156.0025  130.5107  150.7714 LP  0  0  0  0  0  0  0  0  0  0  0  0  # atno 17370 bound_to 10713
  157.5073  131.0923  151.0241 LP  0  0  0  0  0  0  0  0  0  0  0  0  # atno 17371 bound_to 10713
  140.6200  134.5371  157.5546 LP  0  0  0  0  0  0  0  0  0  0  0  0  # atno 17394 bound_to 11000
  139.9290  134.8001  156.0986 LP  0  0  0  0  0  0  0  0  0  0  0  0  # atno 17395 bound_to 11000

$$$$
