AV-unprocessed.smi:1644|AV-procd|sdf|6584|dock7
  -GOLD-   22720 7273D 1   1.00000     0.00000
 Structure written by MMmdl.
 49 51  0  0  0  0  0  0  0  0  1 V2000
  145.0844  143.8144  154.0547 C   0  0  0  0  0  0  0  0  0  0  0  0
  146.2474  142.8345  153.8644 C   0  0  0  0  0  0  0  0  0  0  0  0
  145.9383  141.4381  154.4277 C   0  0  0  0  0  0  0  0  0  0  0  0
  147.0720  140.4209  154.1901 C   0  0  2  0  0  0  0  0  0  0  0  0
  147.1161  139.3845  155.2027 N   0  0  0  0  0  0  0  0  0  0  0  0
  148.2778  139.3641  155.8683 C   0  0  0  0  0  0  0  0  0  0  0  0
  148.5601  138.5850  156.7774 O   0  0  0  0  0  0  0  0  0  0  0  0
  149.0652  140.3381  155.3772 N   0  0  0  0  0  0  0  0  0  0  0  0
  150.4094  140.6454  155.8766 C   0  0  0  0  0  0  0  0  0  0  0  0
  150.3664  141.4900  157.1666 C   0  0  2  0  0  0  0  0  0  0  0  0
  149.1233  142.1623  157.2270 O   0  0  0  0  0  0  0  0  0  0  0  0
  151.4947  142.5389  157.1960 C   0  0  0  0  0  0  0  0  0  0  0  0
  151.4773  143.3408  158.4066 N   0  0  0  0  0  0  0  0  0  0  0  0
  150.8441  144.5151  158.5907 C   0  0  0  0  0  0  0  0  0  0  0  0
  150.9613  145.0897  159.7844 N   0  0  0  0  0  0  0  0  0  0  0  0
  151.7640  144.1817  160.4535 C   0  0  0  0  0  0  0  0  0  0  0  0
  152.2670  144.2005  161.7727 C   0  0  0  0  0  0  0  0  0  0  0  0
  153.0848  143.1523  162.2518 C   0  0  0  0  0  0  0  0  0  0  0  0
  153.6067  143.2143  163.6764 C   0  0  0  0  0  0  0  0  0  0  0  0
  153.4095  142.0614  161.4061 C   0  0  0  0  0  0  0  0  0  0  0  0
  154.2871  140.9242  161.8984 C   0  0  0  0  0  0  0  0  0  0  0  0
  152.9146  142.0264  160.0857 C   0  0  0  0  0  0  0  0  0  0  0  0
  152.1029  143.0758  159.6202 C   0  0  0  0  0  0  0  0  0  0  0  0
  148.4503  141.0190  154.4013 C   0  0  0  0  0  0  0  0  0  0  0  0
  148.8914  141.9746  153.7629 O   0  0  0  0  0  0  0  0  0  0  0  0
  145.3277  144.7922  153.6384 H   0  0  0  0  0  0  0  0  0  0  0  0
  144.8527  143.9512  155.1113 H   0  0  0  0  0  0  0  0  0  0  0  0
  144.1827  143.4565  153.5572 H   0  0  0  0  0  0  0  0  0  0  0  0
  146.4813  142.7635  152.8016 H   0  0  0  0  0  0  0  0  0  0  0  0
  147.1378  143.2349  154.3503 H   0  0  0  0  0  0  0  0  0  0  0  0
  145.7546  141.5231  155.4999 H   0  0  0  0  0  0  0  0  0  0  0  0
  145.0093  141.0686  153.9894 H   0  0  0  0  0  0  0  0  0  0  0  0
  147.0076  139.9742  153.1971 H   0  0  0  0  0  0  0  0  0  0  0  0
  146.3460  138.7557  155.3782 H   0  0  0  0  0  0  0  0  0  0  0  0
  150.9169  139.7002  156.0769 H   0  0  0  0  0  0  0  0  0  0  0  0
  151.0137  141.1379  155.1124 H   0  0  0  0  0  0  0  0  0  0  0  0
  150.4605  140.8476  158.0435 H   0  0  0  0  0  0  0  0  0  0  0  0
  149.1897  142.9614  156.7264 H   0  0  0  0  0  0  0  0  0  0  0  0
  152.4660  142.0469  157.1296 H   0  0  0  0  0  0  0  0  0  0  0  0
  151.4243  143.2038  156.3339 H   0  0  0  0  0  0  0  0  0  0  0  0
  150.2655  144.9748  157.8027 H   0  0  0  0  0  0  0  0  0  0  0  0
  152.0194  145.0317  162.4163 H   0  0  0  0  0  0  0  0  0  0  0  0
  153.2426  142.3641  164.2536 H   0  0  0  0  0  0  0  0  0  0  0  0
  153.2815  144.1251  164.1803 H   0  0  0  0  0  0  0  0  0  0  0  0
  154.6968  143.1990  163.6855 H   0  0  0  0  0  0  0  0  0  0  0  0
  154.4202  140.1626  161.1294 H   0  0  0  0  0  0  0  0  0  0  0  0
  153.8394  140.4450  162.7695 H   0  0  0  0  0  0  0  0  0  0  0  0
  155.2736  141.2964  162.1757 H   0  0  0  0  0  0  0  0  0  0  0  0
  153.1567  141.2035  159.4292 H   0  0  0  0  0  0  0  0  0  0  0  0
  1  2  1  0  0  0  0
  1 26  1  0  0  0  0
  1 27  1  0  0  0  0
  1 28  1  0  0  0  0
  2  3  1  0  0  0  0
  2 29  1  0  0  0  0
  2 30  1  0  0  0  0
  3  4  1  0  0  0  0
  3 31  1  0  0  0  0
  3 32  1  0  0  0  0
  4 24  1  0  0  0  0
  4  5  1  0  0  0  0
  4 33  1  0  0  0  0
  5  6  1  0  0  0  0
  5 34  1  0  0  0  0
  6  7  2  0  0  0  0
  6  8  1  0  0  0  0
  8  9  1  0  0  0  0
  8 24  1  0  0  0  0
  9 10  1  0  0  0  0
  9 35  1  0  0  0  0
  9 36  1  0  0  0  0
 10 11  1  0  0  0  0
 10 12  1  0  0  0  0
 10 37  1  0  0  0  0
 11 38  1  0  0  0  0
 12 13  1  0  0  0  0
 12 39  1  0  0  0  0
 12 40  1  0  0  0  0
 13 23  1  0  0  0  0
 13 14  1  0  0  0  0
 14 15  2  0  0  0  0
 14 41  1  0  0  0  0
 15 16  1  0  0  0  0
 16 23  2  0  0  0  0
 16 17  1  0  0  0  0
 17 18  2  0  0  0  0
 17 42  1  0  0  0  0
 18 19  1  0  0  0  0
 18 20  1  0  0  0  0
 19 43  1  0  0  0  0
 19 44  1  0  0  0  0
 19 45  1  0  0  0  0
 20 21  1  0  0  0  0
 20 22  2  0  0  0  0
 21 46  1  0  0  0  0
 21 47  1  0  0  0  0
 21 48  1  0  0  0  0
 22 23  1  0  0  0  0
 22 49  1  0  0  0  0
 24 25  2  0  0  0  0
M  END
> <s_m_source_file>
AV-unprocessed.smi

> <i_m_source_file_index>
1644

> <i_lp_mmshare_version>
43012

> <i_f3d_flags>
0

> <s_epik_input>
W0NIM11bQ0gyXVtDSDJdW0NAQEhdMVtOSF1DKD1PKU4oQzE9TylbQ0gyXVtDQEhdKFtPSF0pW0NIMl1uKFtjSF1uMiljKGMyMylbY0hdYyhbQ0gzXSljKFtjSF0zKVtDSDNd

> <s_epik_cmdline>
J2VwaWtfcHl0aG9uJywgJy1waCcsICc3LjAnLCAnLXRuJywgJzgnLCAnLW1hJywgJzIwMCcsICctbWV0YWxfYmluZGluZycsICctaW1hZScsICc8aW5maWxlLm1hZT4nLCAnLW9tYWUnLCAnPG91dGZpbGUubWFlPic=

> <r_lp_tautomer_probability>
1

> <r_epik_Ionization_Penalty>
0.10693

> <r_epik_Ionization_Penalty_Charging>
0

> <r_epik_Ionization_Penalty_Neutral>
0.10693

> <r_epik_State_Penalty>
0.096713

> <r_epik_Charging_Adjusted_Penalty>
0.096713

> <i_epik_Tot_Q>
0

> <i_epik_Tot_abs_Q>
0

> <r_epik_Metal_State_Penalty>
0.102757

> <b_epik_Metal_Only>
0

> <s_lp_Force_Field>
OPLS_2005

> <r_lp_Energy>
24.4016

> <b_lp_Chiralities_Consistent>
1

> <s_lp_Variant>
AV-unprocessed.smi:1644-1

> <Gold.Version>
5.8.1

> <Gold.Id.Protein>
6NUR|6NUR_protein|mol2

> <Gold.PLP.Fitness>
58.2067

> <Gold.PLP.PLP>
-54.1578

> <Gold.PLP.part.hbond>
-1.7565

> <Gold.PLP.part.metal>
0.0000

> <Gold.PLP.part.buried>
-6.0553

> <Gold.PLP.part.nonpolar>
-46.7465

> <Gold.PLP.part.repulsive>
0.3670

> <Gold.PLP.ligand.clash>
0.0000

> <Gold.PLP.ligand.torsion>
1.4449

> <Gold.PLP.Chemscore.Hbond>
1.3418

> <Gold.PLP.Chemscore.CHOScore>
0.9346

> <Gold.PLP.Chemscore.Metal>
0.0000

> <Gold.Chemscore.Hbonds>
donor molecule, donor type, donor heavy atom, donor atom, acceptor molecule, acceptor atom, score
      L1  H    11    38       P1  8028  0.89
      P1  H  8011  8017       L1    25  0.48
      L1  C    14    41       P1  8028  0.61
      L1  C    14    41       P1  8029  0.36

> <Gold.PLP.Chemscore.Internal.Correction>
0.1095

> <Gold.Rescore>
     Score         DG    S(hbond)    S(metal)    S(lipo)     H(rot)  DE(clash)    DE(int)     intcor
     15.38     -18.60       1.30        0.00     134.67       2.72       0.29       2.93       ----

> <Gold.Chemscore.Fitness>
15.3797

> <Gold.Chemscore.DG>
-18.5981

> <Gold.Chemscore.ZeroCoef>
-5.4800

> <Gold.Chemscore.Hbond>
1.2959

> <Gold.Chemscore.Metal>
0.0000

> <Gold.Chemscore.Lipo>
134.6677

> <Gold.Chemscore.Internal_Hbond>
0.0000

> <Gold.Chemscore.DEClash>
0.2899

> <Gold.Chemscore.DEInternal>
2.9285

> <Gold.Chemscore.Rot>
2.7212

> <Gold.Chemscore.Internal.Correction>
   9.000000E+99

> <Gold.Chemscore.Hbonds>
donor molecule, donor type, donor heavy atom, donor atom, acceptor molecule, acceptor atom, score
      L1  H    11    38       P1  8028  0.85
      P1  H  8011  8017       L1    25  0.48

> <Gold.Chemscore.Hbond.Weighted>
-4.3282

> <Gold.Chemscore.Metal.Weighted>
-0.0000

> <Gold.Chemscore.Lipo.Weighted>
-15.7561

> <Gold.Chemscore.Internal_Hbond.Weighted>
0.0000

> <Gold.Chemscore.DEClash.Weighted>
0.2899

> <Gold.Chemscore.DEInternal.Weighted>
2.9285

> <Gold.Chemscore.Rot.Weighted>
6.9663

> <Gold.Chemscore.Internal.Correction.Weighted>
   9.000000E+99

> <Gold.Protein.RotatedTorsions>
[ 6907 6896 6895 6894 ] final   25.43 input  -60.11 | X-H torsion
[ 7974 7965 7964 7962 ] final   34.41 input  175.53 | X-H torsion
[ 8008 7997 7996 7995 ] final   20.67 input   59.86 | X-H torsion
[ 10167 10162 10161 10158 ] final  -55.80 input  -65.29 | X-H torsion
[ 10718 10713 10712 10709 ] final  148.93 input   66.30 | X-H torsion
[ 10763 10752 10751 10750 ] final   34.17 input  -60.55 | X-H torsion
[ 11005 11000 10999 10996 ] final  -32.72 input  -57.11 | X-H torsion

> <Gold.Protein.ActiveResidues>
 VAL166  LYS551  ARG553  GLY616  TRP617  ASP618  TYR619  PRO620  LYS621  CYS622 
 ASP623  PHE694  ASN695  SER759  ASP760  ASP761  ALA762  ILE779  LEU786  VAL792 
 PHE793  MET794  SER795  GLU796  ALA797  LYS798  CYS799  TRP800  GLU811  SER814 

> <Gold.Protein.RotatedAtoms>
  151.9724  135.0070  160.0553 H   0  0  0  0  0  0  0  0  0  0  0  0  # atno 6907 bound_to 6896
  152.1771  133.4677  159.4947 H   0  0  0  0  0  0  0  0  0  0  0  0  # atno 6908 bound_to 6896
  150.6911  134.1797  159.4287 H   0  0  0  0  0  0  0  0  0  0  0  0  # atno 6909 bound_to 6896
  146.1355  139.6273  142.9198 H   0  0  0  0  0  0  0  0  0  0  0  0  # atno 7974 bound_to 7965
  154.9391  140.3050  155.5129 H   0  0  0  0  0  0  0  0  0  0  0  0  # atno 8008 bound_to 7997
  156.2997  140.2339  156.4396 H   0  0  0  0  0  0  0  0  0  0  0  0  # atno 8009 bound_to 7997
  154.8163  140.0426  157.1367 H   0  0  0  0  0  0  0  0  0  0  0  0  # atno 8010 bound_to 7997
  140.6354  143.2479  151.5132 H   0  0  0  0  0  0  0  0  0  0  0  0  # atno 10167 bound_to 10162
  157.3025  131.0873  151.1379 H   0  0  0  0  0  0  0  0  0  0  0  0  # atno 10718 bound_to 10713
  153.0176  135.6367  154.1627 H   0  0  0  0  0  0  0  0  0  0  0  0  # atno 10763 bound_to 10752
  154.1364  135.2837  155.3173 H   0  0  0  0  0  0  0  0  0  0  0  0  # atno 10764 bound_to 10752
  154.6156  135.5542  153.7581 H   0  0  0  0  0  0  0  0  0  0  0  0  # atno 10765 bound_to 10752
  140.9576  133.7184  156.1317 H   0  0  0  0  0  0  0  0  0  0  0  0  # atno 11005 bound_to 11000
  145.5166  141.0433  143.2458 LP  0  0  0  0  0  0  0  0  0  0  0  0  # atno 17320 bound_to 7965
  144.7735  139.6682  143.7185 LP  0  0  0  0  0  0  0  0  0  0  0  0  # atno 17321 bound_to 7965
  139.5565  144.2263  152.1620 LP  0  0  0  0  0  0  0  0  0  0  0  0  # atno 17342 bound_to 10162
  140.1518  144.5107  150.6683 LP  0  0  0  0  0  0  0  0  0  0  0  0  # atno 17343 bound_to 10162
  157.2732  130.6714  149.6030 LP  0  0  0  0  0  0  0  0  0  0  0  0  # atno 17370 bound_to 10713
  155.9672  130.4472  150.5573 LP  0  0  0  0  0  0  0  0  0  0  0  0  # atno 17371 bound_to 10713
  140.7514  134.4040  157.5540 LP  0  0  0  0  0  0  0  0  0  0  0  0  # atno 17394 bound_to 11000
  139.8867  134.8902  156.2569 LP  0  0  0  0  0  0  0  0  0  0  0  0  # atno 17395 bound_to 11000

$$$$
