AV-unprocessed.smi:3033|AV-procd|sdf|11576|dock6
  -GOLD-   2272016543D 1   1.00000     0.00000
 Structure written by MMmdl.
 32 33  0  0  0  0  0  0  0  0  2 V2000
  154.0376  140.0736  160.4554 C   0  0  0  0  0  0  0  0  0  0  0  0
  154.0164  141.4937  160.4602 O   0  0  0  0  0  0  0  0  0  0  0  0
  153.0967  142.1310  159.6551 C   0  0  0  0  0  0  0  0  0  0  0  0
  153.0949  143.5405  159.6769 C   0  0  0  0  0  0  0  0  0  0  0  0
  152.1932  144.2715  158.8811 C   0  0  0  0  0  0  0  0  0  0  0  0
  151.2765  143.5967  158.0548 C   0  0  0  0  0  0  0  0  0  0  0  0
  151.2560  142.1857  158.0248 C   0  0  0  0  0  0  0  0  0  0  0  0
  150.2788  141.4373  157.1295 C   0  0  1  0  0  0  0  0  0  0  0  0
  149.1025  142.1882  156.8967 O   0  0  0  0  0  0  0  0  0  0  0  0
  150.9272  141.0993  155.7705 C   0  0  0  0  0  0  0  0  0  0  0  0
  150.9984  139.6496  155.5359 N   0  0  0  0  0  0  0  0  0  0  0  0
  149.8484  138.8912  155.8111 C   0  0  0  0  0  0  0  0  0  0  0  0
  149.8110  137.5569  155.6291 C   0  0  0  0  0  0  0  0  0  0  0  0
  148.3828  136.6497  155.9787 Cl  0  0  0  0  0  0  0  0  0  0  0  0
  151.0167  136.8991  155.1288 C   0  0  0  0  0  0  0  0  0  0  0  0
  151.0153  135.6827  154.9452 O   0  0  0  0  0  0  0  0  0  0  0  0
  152.1101  137.6797  154.8844 N   0  5  0  0  0  0  0  0  0  0  0  0
  152.1298  139.0344  155.0793 C   0  0  0  0  0  0  0  0  0  0  0  0
  153.1315  139.7170  154.8608 O   0  0  0  0  0  0  0  0  0  0  0  0
  152.1687  141.4593  158.8195 C   0  0  0  0  0  0  0  0  0  0  0  0
  154.8141  139.7232  161.1351 H   0  0  0  0  0  0  0  0  0  0  0  0
  154.2667  139.6821  159.4632 H   0  0  0  0  0  0  0  0  0  0  0  0
  153.0886  139.6590  160.7976 H   0  0  0  0  0  0  0  0  0  0  0  0
  153.7954  144.0674  160.3080 H   0  0  0  0  0  0  0  0  0  0  0  0
  152.2066  145.3511  158.9038 H   0  0  0  0  0  0  0  0  0  0  0  0
  150.5926  144.1666  157.4429 H   0  0  0  0  0  0  0  0  0  0  0  0
  149.9833  140.5219  157.6440 H   0  0  0  0  0  0  0  0  0  0  0  0
  149.3199  142.9137  156.3319 H   0  0  0  0  0  0  0  0  0  0  0  0
  150.4088  141.6120  154.9584 H   0  0  0  0  0  0  0  0  0  0  0  0
  151.9434  141.4978  155.7431 H   0  0  0  0  0  0  0  0  0  0  0  0
  149.0063  139.4572  156.1819 H   0  0  0  0  0  0  0  0  0  0  0  0
  152.1417  140.3812  158.7696 H   0  0  0  0  0  0  0  0  0  0  0  0
  1  2  1  0  0  0  0
  1 21  1  0  0  0  0
  1 22  1  0  0  0  0
  1 23  1  0  0  0  0
  2  3  1  0  0  0  0
  3 20  1  0  0  0  0
  3  4  2  0  0  0  0
  4  5  1  0  0  0  0
  4 24  1  0  0  0  0
  5  6  2  0  0  0  0
  5 25  1  0  0  0  0
  6  7  1  0  0  0  0
  6 26  1  0  0  0  0
  7  8  1  0  0  0  0
  7 20  2  0  0  0  0
  8  9  1  0  0  0  0
  8 10  1  0  0  0  0
  8 27  1  0  0  0  0
  9 28  1  0  0  0  0
 10 11  1  0  0  0  0
 10 29  1  0  0  0  0
 10 30  1  0  0  0  0
 11 18  1  0  0  0  0
 11 12  1  0  0  0  0
 12 13  2  0  0  0  0
 12 31  1  0  0  0  0
 13 14  1  0  0  0  0
 13 15  1  0  0  0  0
 15 16  2  0  0  0  0
 15 17  1  0  0  0  0
 17 18  1  0  0  0  0
 18 19  2  0  0  0  0
 20 32  1  0  0  0  0
M  CHG  1  17  -1
M  END
> <s_m_source_file>
AV-unprocessed.smi

> <i_m_source_file_index>
3033

> <i_lp_mmshare_version>
43012

> <i_f3d_flags>
0

> <s_epik_input>
W0NIM11PYzFbY0hdW2NIXVtjSF1jKFtjSF0xKVtDQEhdKFtPSF0pW0NIMl1uMltjSF1jKENsKWMoPU8pW25IXWMyPU8=

> <s_epik_cmdline>
J2VwaWtfcHl0aG9uJywgJy1waCcsICc3LjAnLCAnLXRuJywgJzgnLCAnLW1hJywgJzIwMCcsICctbWV0YWxfYmluZGluZycsICctaW1hZScsICc8aW5maWxlLm1hZT4nLCAnLW9tYWUnLCAnPG91dGZpbGUubWFlPic=

> <r_lp_tautomer_probability>
1

> <r_epik_Ionization_Penalty>
1.7979

> <r_epik_Ionization_Penalty_Charging>
3.23819e-08

> <r_epik_Ionization_Penalty_Neutral>
1.7979

> <r_epik_State_Penalty>
1.91135

> <r_epik_Charging_Adjusted_Penalty>
1.91135

> <i_epik_Tot_Q>
-1

> <i_epik_Tot_abs_Q>
1

> <r_epik_Metal_State_Penalty>
0.014155

> <b_epik_Metal_Only>
0

> <s_lp_Force_Field>
OPLS_2005

> <r_lp_Energy>
25.1118

> <b_lp_Chiralities_Consistent>
1

> <s_lp_Variant>
AV-unprocessed.smi:3033-4

> <Gold.Version>
5.8.1

> <Gold.Id.Protein>
6NUR|6NUR_protein|mol2

> <Gold.PLP.Fitness>
45.0890

> <Gold.PLP.PLP>
-40.1704

> <Gold.PLP.part.hbond>
-4.9194

> <Gold.PLP.part.metal>
0.0000

> <Gold.PLP.part.buried>
-4.7706

> <Gold.PLP.part.nonpolar>
-31.4413

> <Gold.PLP.part.repulsive>
0.2456

> <Gold.PLP.ligand.clash>
0.0000

> <Gold.PLP.ligand.torsion>
1.6405

> <Gold.PLP.Chemscore.Hbond>
2.7254

> <Gold.PLP.Chemscore.CHOScore>
0.0000

> <Gold.PLP.Chemscore.Metal>
0.0000

> <Gold.Chemscore.Hbonds>
donor molecule, donor type, donor heavy atom, donor atom, acceptor molecule, acceptor atom, score
      L1  H     9    28       P1  8028  0.98
      P1  H  7989  7998       L1    19  0.02
      P1  H  7997  8009       L1    19  1.00
      P1  H 10752 10763       L1    16  0.75

> <Gold.PLP.Chemscore.Internal.Correction>
0.0234

> <Gold.Rescore>
     Score         DG    S(hbond)    S(metal)    S(lipo)     H(rot)  DE(clash)    DE(int)     intcor
     15.50     -17.52       2.22        0.00      93.09       2.45       0.38       1.64       ----

> <Gold.Chemscore.Fitness>
15.5045

> <Gold.Chemscore.DG>
-17.5232

> <Gold.Chemscore.ZeroCoef>
-5.4800

> <Gold.Chemscore.Hbond>
2.2218

> <Gold.Chemscore.Metal>
0.0000

> <Gold.Chemscore.Lipo>
93.0948

> <Gold.Chemscore.Internal_Hbond>
0.0000

> <Gold.Chemscore.DEClash>
0.3802

> <Gold.Chemscore.DEInternal>
1.6385

> <Gold.Chemscore.Rot>
2.4491

> <Gold.Chemscore.Internal.Correction>
   9.000000E+99

> <Gold.Chemscore.Hbonds>
donor molecule, donor type, donor heavy atom, donor atom, acceptor molecule, acceptor atom, score
      L1  H     9    28       P1  8028  0.90
      P1  H  7997  8009       L1    19  1.00
      P1  H 10752 10763       L1    16  0.09

> <Gold.Chemscore.Hbond.Weighted>
-7.4207

> <Gold.Chemscore.Metal.Weighted>
-0.0000

> <Gold.Chemscore.Lipo.Weighted>
-10.8921

> <Gold.Chemscore.Internal_Hbond.Weighted>
0.0000

> <Gold.Chemscore.DEClash.Weighted>
0.3802

> <Gold.Chemscore.DEInternal.Weighted>
1.6385

> <Gold.Chemscore.Rot.Weighted>
6.2696

> <Gold.Chemscore.Internal.Correction.Weighted>
   9.000000E+99

> <Gold.Protein.RotatedTorsions>
[ 6907 6896 6895 6894 ] final  -22.68 input  -60.11 | X-H torsion
[ 7974 7965 7964 7962 ] final -143.04 input  175.53 | X-H torsion
[ 8008 7997 7996 7995 ] final -126.02 input   59.86 | X-H torsion
[ 10167 10162 10161 10158 ] final  135.41 input  -65.29 | X-H torsion
[ 10718 10713 10712 10709 ] final -160.09 input   66.30 | X-H torsion
[ 10763 10752 10751 10750 ] final   59.18 input  -60.55 | X-H torsion
[ 11005 11000 10999 10996 ] final -169.37 input  -57.11 | X-H torsion

> <Gold.Protein.ActiveResidues>
 VAL166  LYS551  ARG553  GLY616  TRP617  ASP618  TYR619  PRO620  LYS621  CYS622 
 ASP623  PHE694  ASN695  SER759  ASP760  ASP761  ALA762  ILE779  LEU786  VAL792 
 PHE793  MET794  SER795  GLU796  ALA797  LYS798  CYS799  TRP800  GLU811  SER814 

> <Gold.Protein.RotatedAtoms>
  151.2150  135.0496  159.8926 H   0  0  0  0  0  0  0  0  0  0  0  0  # atno 6907 bound_to 6896
  152.5421  134.0703  159.8201 H   0  0  0  0  0  0  0  0  0  0  0  0  # atno 6908 bound_to 6896
  151.0862  133.5304  159.2649 H   0  0  0  0  0  0  0  0  0  0  0  0  # atno 6909 bound_to 6896
  144.8398  140.5883  143.5460 H   0  0  0  0  0  0  0  0  0  0  0  0  # atno 7974 bound_to 7965
  155.2228  140.0422  157.2951 H   0  0  0  0  0  0  0  0  0  0  0  0  # atno 8008 bound_to 7997
  154.5938  140.2434  155.7855 H   0  0  0  0  0  0  0  0  0  0  0  0  # atno 8009 bound_to 7997
  156.2277  140.2949  156.0117 H   0  0  0  0  0  0  0  0  0  0  0  0  # atno 8010 bound_to 7997
  139.5218  144.6518  151.5278 H   0  0  0  0  0  0  0  0  0  0  0  0  # atno 10167 bound_to 10162
  156.5773  130.8714  151.2854 H   0  0  0  0  0  0  0  0  0  0  0  0  # atno 10718 bound_to 10713
  152.9888  135.5580  154.5672 H   0  0  0  0  0  0  0  0  0  0  0  0  # atno 10763 bound_to 10752
  154.5080  135.2801  155.1369 H   0  0  0  0  0  0  0  0  0  0  0  0  # atno 10764 bound_to 10752
  154.2772  135.6352  153.5386 H   0  0  0  0  0  0  0  0  0  0  0  0  # atno 10765 bound_to 10752
  140.5315  134.5612  157.5076 H   0  0  0  0  0  0  0  0  0  0  0  0  # atno 11005 bound_to 11000
  145.4717  139.1503  143.3810 LP  0  0  0  0  0  0  0  0  0  0  0  0  # atno 17320 bound_to 7965
  146.2692  140.4851  142.8821 LP  0  0  0  0  0  0  0  0  0  0  0  0  # atno 17321 bound_to 7965
  140.6327  143.9045  150.6619 LP  0  0  0  0  0  0  0  0  0  0  0  0  # atno 17342 bound_to 10162
  140.2354  143.3704  152.1531 LP  0  0  0  0  0  0  0  0  0  0  0  0  # atno 17343 bound_to 10162
  157.7334  130.9731  150.1979 LP  0  0  0  0  0  0  0  0  0  0  0  0  # atno 17370 bound_to 10713
  156.2662  130.3716  149.8079 LP  0  0  0  0  0  0  0  0  0  0  0  0  # atno 17371 bound_to 10713
  139.9552  134.7548  156.0358 LP  0  0  0  0  0  0  0  0  0  0  0  0  # atno 17394 bound_to 11000
  141.1279  133.6594  156.3385 LP  0  0  0  0  0  0  0  0  0  0  0  0  # atno 17395 bound_to 11000

$$$$
