AV-unprocessed.smi:1914|AV-procd|sdf|7756|dock4
  -GOLD-   22720 9493D 1   1.00000     0.00000
 Structure written by MMmdl.
 44 45  0  0  0  0  0  0  0  0  2 V2000
  145.1583  137.2365  155.3929 C   0  0  0  0  0  0  0  0  0  0  0  0
  145.3981  138.3934  154.4127 C   0  0  2  0  0  0  0  0  0  0  0  0
  146.5029  138.0505  153.3994 C   0  0  0  0  0  0  0  0  0  0  0  0
  146.7393  139.2327  152.4513 C   0  0  0  0  0  0  0  0  0  0  0  0
  147.0479  140.5158  153.2390 C   0  0  0  0  0  0  0  0  0  0  0  0
  145.9626  140.8253  154.2056 N   0  3  2  0  0  0  0  0  0  0  0  0
  146.1711  142.1314  154.8802 C   0  0  0  0  0  0  0  0  0  0  0  0
  146.8829  141.9869  156.2397 C   0  0  0  0  0  0  0  0  0  0  0  0
  148.3314  142.0678  156.0939 N   0  0  0  0  0  0  0  0  0  0  0  0
  149.2168  141.3810  156.8318 C   0  0  0  0  0  0  0  0  0  0  0  0
  148.8845  140.5828  157.7091 O   0  0  0  0  0  0  0  0  0  0  0  0
  150.6985  141.6293  156.5160 C   0  0  0  0  0  0  0  0  0  0  0  0
  151.4633  142.1190  157.6752 N   0  0  0  0  0  0  0  0  0  0  0  0
  151.1614  143.4126  158.1454 C   0  0  0  0  0  0  0  0  0  0  0  0
  151.7994  143.9528  159.1959 C   0  0  0  0  0  0  0  0  0  0  0  0
  152.8210  143.1705  159.8504 C   0  0  0  0  0  0  0  0  0  0  0  0
  153.1205  141.9337  159.4063 C   0  0  0  0  0  0  0  0  0  0  0  0
  152.4281  141.3404  158.2565 C   0  0  0  0  0  0  0  0  0  0  0  0
  152.6989  140.2135  157.8399 O   0  0  0  0  0  0  0  0  0  0  0  0
  145.7408  139.7011  155.1550 C   0  0  0  0  0  0  0  0  0  0  0  0
  146.0505  137.0255  155.9835 H   0  0  0  0  0  0  0  0  0  0  0  0
  144.8864  136.3231  154.8630 H   0  0  0  0  0  0  0  0  0  0  0  0
  144.3480  137.4683  156.0849 H   0  0  0  0  0  0  0  0  0  0  0  0
  144.4705  138.5524  153.8605 H   0  0  0  0  0  0  0  0  0  0  0  0
  147.4292  137.8099  153.9233 H   0  0  0  0  0  0  0  0  0  0  0  0
  146.2297  137.1639  152.8259 H   0  0  0  0  0  0  0  0  0  0  0  0
  147.5612  139.0062  151.7715 H   0  0  0  0  0  0  0  0  0  0  0  0
  145.8568  139.3870  151.8290 H   0  0  0  0  0  0  0  0  0  0  0  0
  147.9943  140.4129  153.7730 H   0  0  0  0  0  0  0  0  0  0  0  0
  147.1673  141.3429  152.5377 H   0  0  0  0  0  0  0  0  0  0  0  0
  146.7219  142.8054  154.2225 H   0  0  0  0  0  0  0  0  0  0  0  0
  145.1998  142.5976  155.0511 H   0  0  0  0  0  0  0  0  0  0  0  0
  146.5354  142.7506  156.9375 H   0  0  0  0  0  0  0  0  0  0  0  0
  146.6595  141.0240  156.6967 H   0  0  0  0  0  0  0  0  0  0  0  0
  148.6878  142.6956  155.3874 H   0  0  0  0  0  0  0  0  0  0  0  0
  151.1243  140.6992  156.1377 H   0  0  0  0  0  0  0  0  0  0  0  0
  150.7838  142.3392  155.6908 H   0  0  0  0  0  0  0  0  0  0  0  0
  150.3901  143.9347  157.5980 H   0  0  0  0  0  0  0  0  0  0  0  0
  151.5568  144.9475  159.5404 H   0  0  0  0  0  0  0  0  0  0  0  0
  153.3484  143.5793  160.6996 H   0  0  0  0  0  0  0  0  0  0  0  0
  153.8885  141.3636  159.9081 H   0  0  0  0  0  0  0  0  0  0  0  0
  144.9258  139.9418  155.8365 H   0  0  0  0  0  0  0  0  0  0  0  0
  146.6326  139.5635  155.7690 H   0  0  0  0  0  0  0  0  0  0  0  0
  145.1195  140.9204  153.6573 H   0  0  0  0  0  0  0  0  0  0  0  0
  1  2  1  0  0  0  0
  1 21  1  0  0  0  0
  1 22  1  0  0  0  0
  1 23  1  0  0  0  0
  2 20  1  0  0  0  0
  2  3  1  0  0  0  0
  2 24  1  0  0  0  0
  3  4  1  0  0  0  0
  3 25  1  0  0  0  0
  3 26  1  0  0  0  0
  4  5  1  0  0  0  0
  4 27  1  0  0  0  0
  4 28  1  0  0  0  0
  5  6  1  0  0  0  0
  5 29  1  0  0  0  0
  5 30  1  0  0  0  0
  6  7  1  0  0  0  0
  6 20  1  0  0  0  0
  6 44  1  0  0  0  0
  7  8  1  0  0  0  0
  7 31  1  0  0  0  0
  7 32  1  0  0  0  0
  8  9  1  0  0  0  0
  8 33  1  0  0  0  0
  8 34  1  0  0  0  0
  9 10  1  0  0  0  0
  9 35  1  0  0  0  0
 10 11  2  0  0  0  0
 10 12  1  0  0  0  0
 12 13  1  0  0  0  0
 12 36  1  0  0  0  0
 12 37  1  0  0  0  0
 13 18  1  0  0  0  0
 13 14  1  0  0  0  0
 14 15  2  0  0  0  0
 14 38  1  0  0  0  0
 15 16  1  0  0  0  0
 15 39  1  0  0  0  0
 16 17  2  0  0  0  0
 16 40  1  0  0  0  0
 17 18  1  0  0  0  0
 17 41  1  0  0  0  0
 18 19  2  0  0  0  0
 20 42  1  0  0  0  0
 20 43  1  0  0  0  0
M  CHG  1   6   1
M  END
> <s_m_source_file>
AV-unprocessed.smi

> <i_m_source_file_index>
1914

> <i_lp_mmshare_version>
43012

> <i_f3d_flags>
0

> <s_epik_input>
W0NIM11bQ0BASF0xW0NIMl1bQ0gyXVtDSDJdTihbQ0gyXTEpW0NIMl1bQ0gyXVtOSF1DKD1PKVtDSDJdbjJbY0hdW2NIXVtjSF1bY0hdYzI9Tw==

> <s_epik_cmdline>
J2VwaWtfcHl0aG9uJywgJy1waCcsICc3LjAnLCAnLXRuJywgJzgnLCAnLW1hJywgJzIwMCcsICctbWV0YWxfYmluZGluZycsICctaW1hZScsICc8aW5maWxlLm1hZT4nLCAnLW9tYWUnLCAnPG91dGZpbGUubWFlPic=

> <r_lp_tautomer_probability>
1

> <r_epik_Ionization_Penalty>
0.00192477

> <r_epik_Ionization_Penalty_Charging>
0.00192469

> <r_epik_Ionization_Penalty_Neutral>
8.16761e-08

> <r_epik_State_Penalty>
0.00131115

> <r_epik_Charging_Adjusted_Penalty>
0.00323584

> <i_epik_Tot_Q>
1

> <i_epik_Tot_abs_Q>
1

> <r_epik_Metal_State_Penalty>
-0

> <b_epik_Metal_Only>
0

> <s_lp_Force_Field>
OPLS_2005

> <r_lp_Energy>
24.8324

> <b_lp_Chiralities_Consistent>
1

> <s_lp_Variant>
AV-unprocessed.smi:1914-1

> <Gold.Version>
5.8.1

> <Gold.Id.Protein>
6NUR|6NUR_protein|mol2

> <Gold.PLP.Fitness>
46.7365

> <Gold.PLP.PLP>
-35.0948

> <Gold.PLP.part.hbond>
-3.0000

> <Gold.PLP.part.metal>
0.0000

> <Gold.PLP.part.buried>
-3.6957

> <Gold.PLP.part.nonpolar>
-28.3776

> <Gold.PLP.part.repulsive>
0.0635

> <Gold.PLP.ligand.clash>
0.0000

> <Gold.PLP.ligand.torsion>
0.8279

> <Gold.PLP.Chemscore.Hbond>
3.4156

> <Gold.PLP.Chemscore.CHOScore>
1.0000

> <Gold.PLP.Chemscore.Metal>
0.0000

> <Gold.Chemscore.Hbonds>
donor molecule, donor type, donor heavy atom, donor atom, acceptor molecule, acceptor atom, score
      L1  H     6    44       P1 10175  2.00
      L1  H     9    35       P1  8028  0.47
      P1  H  7997  8010       L1    19  0.99
      L1  C    14    38       P1  8028  0.94

> <Gold.PLP.Chemscore.Internal.Correction>
0.0507

> <Gold.Rescore>
     Score         DG    S(hbond)    S(metal)    S(lipo)     H(rot)  DE(clash)    DE(int)     intcor
     18.24     -19.08       2.72        0.00      79.18       1.86       0.04       0.80       ----

> <Gold.Chemscore.Fitness>
18.2434

> <Gold.Chemscore.DG>
-19.0836

> <Gold.Chemscore.ZeroCoef>
-5.4800

> <Gold.Chemscore.Hbond>
2.7237

> <Gold.Chemscore.Metal>
0.0000

> <Gold.Chemscore.Lipo>
79.1837

> <Gold.Chemscore.Internal_Hbond>
0.0000

> <Gold.Chemscore.DEClash>
0.0379

> <Gold.Chemscore.DEInternal>
0.8023

> <Gold.Chemscore.Rot>
1.8586

> <Gold.Chemscore.Internal.Correction>
   9.000000E+99

> <Gold.Chemscore.Hbonds>
donor molecule, donor type, donor heavy atom, donor atom, acceptor molecule, acceptor atom, score
      L1  H     6    44       P1 10175  0.82
      L1  H     9    35       P1  8028  0.44
      P1  H  7997  8010       L1    19  0.80

> <Gold.Chemscore.Hbond.Weighted>
-9.0972

> <Gold.Chemscore.Metal.Weighted>
-0.0000

> <Gold.Chemscore.Lipo.Weighted>
-9.2645

> <Gold.Chemscore.Internal_Hbond.Weighted>
0.0000

> <Gold.Chemscore.DEClash.Weighted>
0.0379

> <Gold.Chemscore.DEInternal.Weighted>
0.8023

> <Gold.Chemscore.Rot.Weighted>
4.7581

> <Gold.Chemscore.Internal.Correction.Weighted>
   9.000000E+99

> <Gold.Protein.RotatedTorsions>
[ 6907 6896 6895 6894 ] final -113.97 input  -60.11 | X-H torsion
[ 7974 7965 7964 7962 ] final -113.66 input  175.53 | X-H torsion
[ 8008 7997 7996 7995 ] final   48.55 input   59.86 | X-H torsion
[ 10167 10162 10161 10158 ] final   99.23 input  -65.29 | X-H torsion
[ 10718 10713 10712 10709 ] final -126.14 input   66.30 | X-H torsion
[ 10763 10752 10751 10750 ] final   30.69 input  -60.55 | X-H torsion
[ 11005 11000 10999 10996 ] final  -90.78 input  -57.11 | X-H torsion

> <Gold.Protein.ActiveResidues>
 VAL166  LYS551  ARG553  GLY616  TRP617  ASP618  TYR619  PRO620  LYS621  CYS622 
 ASP623  PHE694  ASN695  SER759  ASP760  ASP761  ALA762  ILE779  LEU786  VAL792 
 PHE793  MET794  SER795  GLU796  ALA797  LYS798  CYS799  TRP800  GLU811  SER814 

> <Gold.Protein.RotatedAtoms>
  150.7868  133.8868  159.3301 H   0  0  0  0  0  0  0  0  0  0  0  0  # atno 6907 bound_to 6896
  151.6716  135.0973  160.0208 H   0  0  0  0  0  0  0  0  0  0  0  0  # atno 6908 bound_to 6896
  152.3933  133.6672  159.6291 H   0  0  0  0  0  0  0  0  0  0  0  0  # atno 6909 bound_to 6896
  145.1293  140.8715  143.3767 H   0  0  0  0  0  0  0  0  0  0  0  0  # atno 7974 bound_to 7965
  155.3875  140.3431  155.4249 H   0  0  0  0  0  0  0  0  0  0  0  0  # atno 8008 bound_to 7997
  156.1576  140.1590  156.8699 H   0  0  0  0  0  0  0  0  0  0  0  0  # atno 8009 bound_to 7997
  154.5109  140.0790  156.7970 H   0  0  0  0  0  0  0  0  0  0  0  0  # atno 8010 bound_to 7997
  139.7636  144.6946  151.0256 H   0  0  0  0  0  0  0  0  0  0  0  0  # atno 10167 bound_to 10162
  156.1738  130.6686  151.0215 H   0  0  0  0  0  0  0  0  0  0  0  0  # atno 10718 bound_to 10713
  153.0357  135.6458  154.1084 H   0  0  0  0  0  0  0  0  0  0  0  0  # atno 10763 bound_to 10752
  154.0799  135.2874  155.3294 H   0  0  0  0  0  0  0  0  0  0  0  0  # atno 10764 bound_to 10752
  154.6537  135.5417  153.7997 H   0  0  0  0  0  0  0  0  0  0  0  0  # atno 10765 bound_to 10752
  141.1559  133.7713  156.9786 H   0  0  0  0  0  0  0  0  0  0  0  0  # atno 11005 bound_to 11000
  145.0653  139.3074  143.5860 LP  0  0  0  0  0  0  0  0  0  0  0  0  # atno 17320 bound_to 7965
  146.3515  140.0108  142.8667 LP  0  0  0  0  0  0  0  0  0  0  0  0  # atno 17321 bound_to 7965
  140.7809  143.4668  151.0201 LP  0  0  0  0  0  0  0  0  0  0  0  0  # atno 17342 bound_to 10162
  139.8354  143.7635  152.3180 LP  0  0  0  0  0  0  0  0  0  0  0  0  # atno 17343 bound_to 10162
  157.6821  131.0835  150.7341 LP  0  0  0  0  0  0  0  0  0  0  0  0  # atno 17370 bound_to 10713
  156.7399  130.4736  149.5480 LP  0  0  0  0  0  0  0  0  0  0  0  0  # atno 17371 bound_to 10713
  140.1081  134.9494  157.2025 LP  0  0  0  0  0  0  0  0  0  0  0  0  # atno 17394 bound_to 11000
  140.3229  134.2896  155.7242 LP  0  0  0  0  0  0  0  0  0  0  0  0  # atno 17395 bound_to 11000

$$$$
