AV-unprocessed.smi:2902|AV-procd|sdf|11158|dock10
  -GOLD-   2272016 43D 1   1.00000     0.00000
 Structure written by MMmdl.
 47 48  0  0  0  0  0  0  0  0  1 V2000
  150.0788  144.4359  159.1984 C   0  0  0  0  0  0  0  0  0  0  0  0
  150.0481  142.9998  158.6608 C   0  0  0  0  0  0  0  0  0  0  0  0
  151.2644  142.6658  157.7771 C   0  0  1  0  0  0  0  0  0  0  0  0
  152.4447  142.9052  158.5445 O   0  0  0  0  0  0  0  0  0  0  0  0
  152.4419  142.4145  159.8825 C   0  0  0  0  0  0  0  0  0  0  0  0
  152.3676  143.5348  160.9234 C   0  0  0  0  0  0  0  0  0  0  0  0
  152.9621  142.9220  162.1954 C   0  0  0  0  0  0  0  0  0  0  0  0
  153.8787  141.7784  161.7315 C   0  0  0  0  0  0  0  0  0  0  0  0
  153.7763  141.7427  160.2024 C   0  0  0  0  0  0  0  0  0  0  0  0
  151.2221  141.2061  157.2963 C   0  0  0  0  0  0  0  0  0  0  0  0
  151.0997  140.2877  158.1071 O   0  0  0  0  0  0  0  0  0  0  0  0
  151.3487  141.0110  155.9742 N   0  0  0  0  0  0  0  0  0  0  0  0
  151.3960  139.7115  155.3071 C   0  0  1  0  0  0  0  0  0  0  0  0
  152.4882  138.8392  155.9562 C   0  0  0  0  0  0  0  0  0  0  0  0
  149.9921  139.0539  155.3274 C   0  0  1  0  0  0  0  0  0  0  0  0
  149.6347  138.4313  156.6903 C   0  0  0  0  0  0  0  0  0  0  0  0
  148.9543  139.9926  154.9234 N   0  0  0  0  0  0  0  0  0  0  0  0
  148.1092  139.9665  153.8898 C   0  0  0  0  0  0  0  0  0  0  0  0
  147.2883  141.0061  153.8413 N   0  0  0  0  0  0  0  0  0  0  0  0
  147.7113  141.6821  154.9506 C   0  0  0  0  0  0  0  0  0  0  0  0
  148.7076  141.1187  155.6340 N   0  0  0  0  0  0  0  0  0  0  0  0
  149.1988  144.6398  159.8087 H   0  0  0  0  0  0  0  0  0  0  0  0
  150.0947  145.1613  158.3847 H   0  0  0  0  0  0  0  0  0  0  0  0
  150.9588  144.6076  159.8191 H   0  0  0  0  0  0  0  0  0  0  0  0
  149.9922  142.3040  159.4992 H   0  0  0  0  0  0  0  0  0  0  0  0
  149.1296  142.8640  158.0877 H   0  0  0  0  0  0  0  0  0  0  0  0
  151.2558  143.3326  156.9123 H   0  0  0  0  0  0  0  0  0  0  0  0
  151.6423  141.6903  160.0501 H   0  0  0  0  0  0  0  0  0  0  0  0
  152.9853  144.3743  160.6010 H   0  0  0  0  0  0  0  0  0  0  0  0
  151.3573  143.9119  161.0781 H   0  0  0  0  0  0  0  0  0  0  0  0
  153.5000  143.6665  162.7827 H   0  0  0  0  0  0  0  0  0  0  0  0
  152.1661  142.5222  162.8246 H   0  0  0  0  0  0  0  0  0  0  0  0
  154.9096  141.9233  162.0565 H   0  0  0  0  0  0  0  0  0  0  0  0
  153.5333  140.8341  162.1540 H   0  0  0  0  0  0  0  0  0  0  0  0
  153.8449  140.7323  159.7987 H   0  0  0  0  0  0  0  0  0  0  0  0
  154.5925  142.3257  159.7726 H   0  0  0  0  0  0  0  0  0  0  0  0
  151.4439  141.8261  155.3859 H   0  0  0  0  0  0  0  0  0  0  0  0
  151.6718  139.8670  154.2622 H   0  0  0  0  0  0  0  0  0  0  0  0
  152.6226  137.8976  155.4236 H   0  0  0  0  0  0  0  0  0  0  0  0
  152.2415  138.6031  156.9917 H   0  0  0  0  0  0  0  0  0  0  0  0
  153.4532  139.3469  155.9529 H   0  0  0  0  0  0  0  0  0  0  0  0
  149.9965  138.2433  154.5959 H   0  0  0  0  0  0  0  0  0  0  0  0
  150.3253  137.6330  156.9619 H   0  0  0  0  0  0  0  0  0  0  0  0
  148.6343  137.9975  156.6707 H   0  0  0  0  0  0  0  0  0  0  0  0
  149.6575  139.1761  157.4864 H   0  0  0  0  0  0  0  0  0  0  0  0
  148.0935  139.1702  153.1598 H   0  0  0  0  0  0  0  0  0  0  0  0
  147.2723  142.6181  155.2634 H   0  0  0  0  0  0  0  0  0  0  0  0
  1  2  1  0  0  0  0
  1 22  1  0  0  0  0
  1 23  1  0  0  0  0
  1 24  1  0  0  0  0
  2  3  1  0  0  0  0
  2 25  1  0  0  0  0
  2 26  1  0  0  0  0
  3  4  1  0  0  0  0
  3 10  1  0  0  0  0
  3 27  1  0  0  0  0
  4  5  1  0  0  0  0
  5  9  1  0  0  0  0
  5  6  1  0  0  0  0
  5 28  1  0  0  0  0
  6  7  1  0  0  0  0
  6 29  1  0  0  0  0
  6 30  1  0  0  0  0
  7  8  1  0  0  0  0
  7 31  1  0  0  0  0
  7 32  1  0  0  0  0
  8  9  1  0  0  0  0
  8 33  1  0  0  0  0
  8 34  1  0  0  0  0
  9 35  1  0  0  0  0
  9 36  1  0  0  0  0
 10 11  2  0  0  0  0
 10 12  1  0  0  0  0
 12 13  1  0  0  0  0
 12 37  1  0  0  0  0
 13 14  1  0  0  0  0
 13 15  1  0  0  0  0
 13 38  1  0  0  0  0
 14 39  1  0  0  0  0
 14 40  1  0  0  0  0
 14 41  1  0  0  0  0
 15 16  1  0  0  0  0
 15 17  1  0  0  0  0
 15 42  1  0  0  0  0
 16 43  1  0  0  0  0
 16 44  1  0  0  0  0
 16 45  1  0  0  0  0
 17 21  1  0  0  0  0
 17 18  1  0  0  0  0
 18 19  2  0  0  0  0
 18 46  1  0  0  0  0
 19 20  1  0  0  0  0
 20 21  2  0  0  0  0
 20 47  1  0  0  0  0
M  END
> <s_m_source_file>
AV-unprocessed.smi

> <i_m_source_file_index>
2902

> <i_lp_mmshare_version>
43012

> <i_f3d_flags>
0

> <s_epik_input>
W0NIMl0xW0NIMl1bQ0gyXVtDSDJdW0NIXTFPW0NAQEhdKFtDSDJdW0NIM10pQyg9TylbTkhdW0NASF0oW0NIM10pW0NASF0oW0NIM10pbjJbY0hdbltjSF1uMg==

> <s_epik_cmdline>
J2VwaWtfcHl0aG9uJywgJy1waCcsICc3LjAnLCAnLXRuJywgJzgnLCAnLW1hJywgJzIwMCcsICctbWV0YWxfYmluZGluZycsICctaW1hZScsICc8aW5maWxlLm1hZT4nLCAnLW9tYWUnLCAnPG91dGZpbGUubWFlPic=

> <r_lp_tautomer_probability>
1

> <r_epik_Ionization_Penalty>
6.95617e-05

> <r_epik_Ionization_Penalty_Charging>
0

> <r_epik_Ionization_Penalty_Neutral>
6.95617e-05

> <r_epik_State_Penalty>
-0

> <r_epik_Charging_Adjusted_Penalty>
0

> <i_epik_Tot_Q>
0

> <i_epik_Tot_abs_Q>
0

> <r_epik_Metal_State_Penalty>
-0

> <b_epik_Metal_Only>
0

> <s_lp_Force_Field>
OPLS_2005

> <r_lp_Energy>
30.3462

> <b_lp_Chiralities_Consistent>
1

> <s_lp_Variant>
AV-unprocessed.smi:2902-8

> <Gold.Version>
5.8.1

> <Gold.Id.Protein>
6NUR|6NUR_protein|mol2

> <Gold.PLP.Fitness>
42.5263

> <Gold.PLP.PLP>
-40.5527

> <Gold.PLP.part.hbond>
0.0000

> <Gold.PLP.part.metal>
0.0000

> <Gold.PLP.part.buried>
-1.9320

> <Gold.PLP.part.nonpolar>
-38.3929

> <Gold.PLP.part.repulsive>
0.4279

> <Gold.PLP.ligand.clash>
0.0000

> <Gold.PLP.ligand.torsion>
1.1940

> <Gold.PLP.Chemscore.Hbond>
0.0000

> <Gold.PLP.Chemscore.CHOScore>
1.3896

> <Gold.PLP.Chemscore.Metal>
0.0000

> <Gold.Chemscore.Hbonds>
donor molecule, donor type, donor heavy atom, donor atom, acceptor molecule, acceptor atom, score
      L1  C    18    46       P1  7957  0.37
      L1  C    20    47       P1  8028  0.57

> <Gold.PLP.Chemscore.Internal.Correction>
0.1928

> <Gold.Rescore>
     Score         DG    S(hbond)    S(metal)    S(lipo)     H(rot)  DE(clash)    DE(int)     intcor
      5.31     -10.37       0.00        0.00     100.70       2.69       0.05       5.01       ----

> <Gold.Chemscore.Fitness>
5.3118

> <Gold.Chemscore.DG>
-10.3661

> <Gold.Chemscore.ZeroCoef>
-5.4800

> <Gold.Chemscore.Hbond>
0.0000

> <Gold.Chemscore.Metal>
0.0000

> <Gold.Chemscore.Lipo>
100.6960

> <Gold.Chemscore.Internal_Hbond>
0.0000

> <Gold.Chemscore.DEClash>
0.0484

> <Gold.Chemscore.DEInternal>
5.0059

> <Gold.Chemscore.Rot>
2.6935

> <Gold.Chemscore.Internal.Correction>
   9.000000E+99

> <Gold.Chemscore.Hbond.Weighted>
-0.0000

> <Gold.Chemscore.Metal.Weighted>
-0.0000

> <Gold.Chemscore.Lipo.Weighted>
-11.7814

> <Gold.Chemscore.Internal_Hbond.Weighted>
0.0000

> <Gold.Chemscore.DEClash.Weighted>
0.0484

> <Gold.Chemscore.DEInternal.Weighted>
5.0059

> <Gold.Chemscore.Rot.Weighted>
6.8954

> <Gold.Chemscore.Internal.Correction.Weighted>
   9.000000E+99

> <Gold.Protein.RotatedTorsions>
[ 6907 6896 6895 6894 ] final -125.60 input  -60.11 | X-H torsion
[ 7974 7965 7964 7962 ] final  179.64 input  175.53 | X-H torsion
[ 8008 7997 7996 7995 ] final  145.71 input   59.86 | X-H torsion
[ 10167 10162 10161 10158 ] final -127.49 input  -65.29 | X-H torsion
[ 10718 10713 10712 10709 ] final  147.90 input   66.30 | X-H torsion
[ 10763 10752 10751 10750 ] final  -31.18 input  -60.55 | X-H torsion
[ 11005 11000 10999 10996 ] final  -85.26 input  -57.11 | X-H torsion

> <Gold.Protein.ActiveResidues>
 VAL166  LYS551  ARG553  GLY616  TRP617  ASP618  TYR619  PRO620  LYS621  CYS622 
 ASP623  PHE694  ASN695  SER759  ASP760  ASP761  ALA762  ILE779  LEU786  VAL792 
 PHE793  MET794  SER795  GLU796  ALA797  LYS798  CYS799  TRP800  GLU811  SER814 

> <Gold.Protein.RotatedAtoms>
  150.8884  133.7276  159.2911 H   0  0  0  0  0  0  0  0  0  0  0  0  # atno 6907 bound_to 6896
  151.4834  135.1052  159.9793 H   0  0  0  0  0  0  0  0  0  0  0  0  # atno 6908 bound_to 6896
  152.4805  133.8195  159.7101 H   0  0  0  0  0  0  0  0  0  0  0  0  # atno 6909 bound_to 6896
  144.7144  140.0578  143.6433 H   0  0  0  0  0  0  0  0  0  0  0  0  # atno 7974 bound_to 7965
  156.2876  140.2202  156.5259 H   0  0  0  0  0  0  0  0  0  0  0  0  # atno 8008 bound_to 7997
  154.7490  140.0482  157.0899 H   0  0  0  0  0  0  0  0  0  0  0  0  # atno 8009 bound_to 7997
  155.0134  140.3115  155.4824 H   0  0  0  0  0  0  0  0  0  0  0  0  # atno 8010 bound_to 7997
  139.9603  143.5958  152.2447 H   0  0  0  0  0  0  0  0  0  0  0  0  # atno 10167 bound_to 10162
  157.3153  131.0895  151.1284 H   0  0  0  0  0  0  0  0  0  0  0  0  # atno 10718 bound_to 10713
  153.7932  135.6896  153.4868 H   0  0  0  0  0  0  0  0  0  0  0  0  # atno 10763 bound_to 10752
  153.1736  135.4533  154.9934 H   0  0  0  0  0  0  0  0  0  0  0  0  # atno 10764 bound_to 10752
  154.8036  135.3348  154.7426 H   0  0  0  0  0  0  0  0  0  0  0  0  # atno 10765 bound_to 10752
  141.1643  133.7390  156.8989 H   0  0  0  0  0  0  0  0  0  0  0  0  # atno 11005 bound_to 11000
  145.9890  139.3000  143.0996 LP  0  0  0  0  0  0  0  0  0  0  0  0  # atno 17320 bound_to 7965
  145.8925  140.9295  143.0545 LP  0  0  0  0  0  0  0  0  0  0  0  0  # atno 17321 bound_to 7965
  139.6559  144.7662  151.2056 LP  0  0  0  0  0  0  0  0  0  0  0  0  # atno 17342 bound_to 10162
  140.7555  143.6086  150.8628 LP  0  0  0  0  0  0  0  0  0  0  0  0  # atno 17343 bound_to 10162
  157.2590  130.6650  149.5966 LP  0  0  0  0  0  0  0  0  0  0  0  0  # atno 17370 bound_to 10713
  155.9681  130.4514  150.5736 LP  0  0  0  0  0  0  0  0  0  0  0  0  # atno 17371 bound_to 10713
  140.1596  134.9174  157.2698 LP  0  0  0  0  0  0  0  0  0  0  0  0  # atno 17394 bound_to 11000
  140.2626  134.3553  155.7401 LP  0  0  0  0  0  0  0  0  0  0  0  0  # atno 17395 bound_to 11000

$$$$
