AV-unprocessed.smi:1830|AV-procd|sdf|7434|dock1
  -GOLD-   22720 9123D 1   1.00000     0.00000
 Structure written by MMmdl.
 53 56  0  0  0  0  0  0  0  0  2 V2000
  146.6687  138.4823  151.0889 O   0  0  0  0  0  0  0  0  0  0  0  0
  146.8500  137.7372  152.0517 C   0  0  0  0  0  0  0  0  0  0  0  0
  146.4741  136.4510  152.0734 N   0  0  0  0  0  0  0  0  0  0  0  0
  145.7898  135.7581  150.9869 C   0  0  0  0  0  0  0  0  0  0  0  0
  145.6038  134.2620  151.2961 C   0  0  2  0  0  0  0  0  0  0  0  0
  146.8913  133.4583  151.0285 C   0  0  0  0  0  0  0  0  0  0  0  0
  146.6818  132.0012  151.1984 N   0  3  1  0  0  0  0  0  0  0  0  0
  146.7053  131.4886  152.5862 C   0  0  0  0  0  0  0  0  0  0  0  0
  145.7669  130.2715  152.6132 C   0  0  0  0  0  0  0  0  0  0  0  0
  145.2826  130.0960  151.1700 C   0  0  0  0  0  0  0  0  0  0  0  0
  145.4665  131.4779  150.5412 C   0  0  1  0  0  0  0  0  0  0  0  0
  144.2515  132.3996  150.7882 C   0  0  0  0  0  0  0  0  0  0  0  0
  144.5800  133.7403  150.4566 O   0  0  0  0  0  0  0  0  0  0  0  0
  147.4167  138.0955  153.2156 N   0  0  0  0  0  0  0  0  0  0  0  0
  147.9057  139.3757  153.6029 C   0  0  0  0  0  0  0  0  0  0  0  0
  147.2226  140.5690  153.2623 C   0  0  0  0  0  0  0  0  0  0  0  0
  147.7410  141.8055  153.6837 C   0  0  0  0  0  0  0  0  0  0  0  0
  148.9301  141.8073  154.4313 C   0  0  0  0  0  0  0  0  0  0  0  0
  149.6022  140.6825  154.7477 N   0  0  0  0  0  0  0  0  0  0  0  0
  149.1228  139.4832  154.3352 C   0  0  0  0  0  0  0  0  0  0  0  0
  149.8812  138.3401  154.6775 N   0  0  0  0  0  0  0  0  0  0  0  0
  149.9429  137.8821  156.0614 C   0  0  0  0  0  0  0  0  0  0  0  0
  151.1210  136.9136  156.1039 C   0  0  0  0  0  0  0  0  0  0  0  0
  152.1013  137.5525  155.1249 C   0  0  0  0  0  0  0  0  0  0  0  0
  151.1954  138.1827  154.0611 C   0  0  0  0  0  0  0  0  0  0  0  0
  146.6649  135.9149  152.9073 H   0  0  0  0  0  0  0  0  0  0  0  0
  144.8312  136.2309  150.7658 H   0  0  0  0  0  0  0  0  0  0  0  0
  146.4024  135.8736  150.0924 H   0  0  0  0  0  0  0  0  0  0  0  0
  145.3113  134.1572  152.3425 H   0  0  0  0  0  0  0  0  0  0  0  0
  147.2152  133.6290  150.0009 H   0  0  0  0  0  0  0  0  0  0  0  0
  147.7056  133.7934  151.6723 H   0  0  0  0  0  0  0  0  0  0  0  0
  147.7255  131.2217  152.8634 H   0  0  0  0  0  0  0  0  0  0  0  0
  146.3572  132.2436  153.2922 H   0  0  0  0  0  0  0  0  0  0  0  0
  146.2646  129.3748  152.9840 H   0  0  0  0  0  0  0  0  0  0  0  0
  144.9204  130.4720  153.2713 H   0  0  0  0  0  0  0  0  0  0  0  0
  145.9230  129.3762  150.6584 H   0  0  0  0  0  0  0  0  0  0  0  0
  144.2581  129.7273  151.1075 H   0  0  0  0  0  0  0  0  0  0  0  0
  145.6428  131.3998  149.4675 H   0  0  0  0  0  0  0  0  0  0  0  0
  143.4101  132.0810  150.1725 H   0  0  0  0  0  0  0  0  0  0  0  0
  143.9142  132.3516  151.8250 H   0  0  0  0  0  0  0  0  0  0  0  0
  147.4056  137.4007  153.9476 H   0  0  0  0  0  0  0  0  0  0  0  0
  146.3153  140.5578  152.6780 H   0  0  0  0  0  0  0  0  0  0  0  0
  147.2379  142.7296  153.4408 H   0  0  0  0  0  0  0  0  0  0  0  0
  149.3584  142.7363  154.7774 H   0  0  0  0  0  0  0  0  0  0  0  0
  150.1351  138.7151  156.7388 H   0  0  0  0  0  0  0  0  0  0  0  0
  149.0118  137.4016  156.3628 H   0  0  0  0  0  0  0  0  0  0  0  0
  151.5340  136.7897  157.1054 H   0  0  0  0  0  0  0  0  0  0  0  0
  150.8131  135.9331  155.7378 H   0  0  0  0  0  0  0  0  0  0  0  0
  152.6679  138.3339  155.6335 H   0  0  0  0  0  0  0  0  0  0  0  0
  152.8125  136.8393  154.7078 H   0  0  0  0  0  0  0  0  0  0  0  0
  151.1053  137.5115  153.2067 H   0  0  0  0  0  0  0  0  0  0  0  0
  151.5994  139.1324  153.7069 H   0  0  0  0  0  0  0  0  0  0  0  0
  147.4578  131.5432  150.7416 H   0  0  0  0  0  0  0  0  0  0  0  0
  1  2  2  0  0  0  0
  2  3  1  0  0  0  0
  2 14  1  0  0  0  0
  3  4  1  0  0  0  0
  3 26  1  0  0  0  0
  4  5  1  0  0  0  0
  4 27  1  0  0  0  0
  4 28  1  0  0  0  0
  5 13  1  0  0  0  0
  5  6  1  0  0  0  0
  5 29  1  0  0  0  0
  6  7  1  0  0  0  0
  6 30  1  0  0  0  0
  6 31  1  0  0  0  0
  7 11  1  0  0  0  0
  7  8  1  0  0  0  0
  7 53  1  0  0  0  0
  8  9  1  0  0  0  0
  8 32  1  0  0  0  0
  8 33  1  0  0  0  0
  9 10  1  0  0  0  0
  9 34  1  0  0  0  0
  9 35  1  0  0  0  0
 10 11  1  0  0  0  0
 10 36  1  0  0  0  0
 10 37  1  0  0  0  0
 11 12  1  0  0  0  0
 11 38  1  0  0  0  0
 12 13  1  0  0  0  0
 12 39  1  0  0  0  0
 12 40  1  0  0  0  0
 14 15  1  0  0  0  0
 14 41  1  0  0  0  0
 15 20  1  0  0  0  0
 15 16  2  0  0  0  0
 16 17  1  0  0  0  0
 16 42  1  0  0  0  0
 17 18  2  0  0  0  0
 17 43  1  0  0  0  0
 18 19  1  0  0  0  0
 18 44  1  0  0  0  0
 19 20  2  0  0  0  0
 20 21  1  0  0  0  0
 21 25  1  0  0  0  0
 21 22  1  0  0  0  0
 22 23  1  0  0  0  0
 22 45  1  0  0  0  0
 22 46  1  0  0  0  0
 23 24  1  0  0  0  0
 23 47  1  0  0  0  0
 23 48  1  0  0  0  0
 24 25  1  0  0  0  0
 24 49  1  0  0  0  0
 24 50  1  0  0  0  0
 25 51  1  0  0  0  0
 25 52  1  0  0  0  0
M  CHG  1   7   1
M  END
> <s_m_source_file>
AV-unprocessed.smi

> <i_m_source_file_index>
1830

> <i_lp_mmshare_version>
43012

> <i_f3d_flags>
0

> <s_epik_input>
W0NIMl0xW0NIMl1bQ0gyXVtDQEhdKE4xMilbQ0gyXU9bQ0BASF0oW0NIMl0yKVtDSDJdW05IXUMoPU8pW05IXWMzW2NIXVtjSF1bY0hdbmMzTjRbQ0gyXVtDSDJdW0NIMl1bQ0gyXTQ=

> <s_epik_cmdline>
J2VwaWtfcHl0aG9uJywgJy1waCcsICc3LjAnLCAnLXRuJywgJzgnLCAnLW1hJywgJzIwMCcsICctbWV0YWxfYmluZGluZycsICctaW1hZScsICc8aW5maWxlLm1hZT4nLCAnLW9tYWUnLCAnPG91dGZpbGUubWFlPic=

> <r_lp_tautomer_probability>
1

> <r_epik_Ionization_Penalty>
0.193547

> <r_epik_Ionization_Penalty_Charging>
0.10673

> <r_epik_Ionization_Penalty_Neutral>
0.0868166

> <r_epik_State_Penalty>
0.173595

> <r_epik_Charging_Adjusted_Penalty>
0.280326

> <i_epik_Tot_Q>
1

> <i_epik_Tot_abs_Q>
1

> <r_epik_Metal_State_Penalty>
0.164683

> <b_epik_Metal_Only>
0

> <s_lp_Force_Field>
OPLS_2005

> <r_lp_Energy>
64.5086

> <b_lp_Chiralities_Consistent>
1

> <s_lp_Variant>
AV-unprocessed.smi:1830-3

> <Gold.Version>
5.8.1

> <Gold.Id.Protein>
6NUR|6NUR_protein|mol2

> <Gold.PLP.Fitness>
46.9230

> <Gold.PLP.PLP>
-38.9393

> <Gold.PLP.part.hbond>
-3.8524

> <Gold.PLP.part.metal>
0.0000

> <Gold.PLP.part.buried>
-1.6298

> <Gold.PLP.part.nonpolar>
-33.0669

> <Gold.PLP.part.repulsive>
1.4326

> <Gold.PLP.ligand.clash>
0.0000

> <Gold.PLP.ligand.torsion>
0.6567

> <Gold.PLP.Chemscore.Hbond>
1.9913

> <Gold.PLP.Chemscore.CHOScore>
1.0000

> <Gold.PLP.Chemscore.Metal>
0.0000

> <Gold.Chemscore.Hbonds>
donor molecule, donor type, donor heavy atom, donor atom, acceptor molecule, acceptor atom, score
      L1  H     7    53       P1 10747  1.00
      P1  H  7954  7966       L1     1  1.00
      P1  H  7989  7998       L1    19  0.10
      L1  C    18    44       P1  8028  1.00

> <Gold.PLP.Chemscore.Internal.Correction>
0.3234

> <Gold.Rescore>
     Score         DG    S(hbond)    S(metal)    S(lipo)     H(rot)  DE(clash)    DE(int)     intcor
     16.25     -19.49       1.41        0.00     110.37       1.41       1.91       1.33       ----

> <Gold.Chemscore.Fitness>
16.2470

> <Gold.Chemscore.DG>
-19.4874

> <Gold.Chemscore.ZeroCoef>
-5.4800

> <Gold.Chemscore.Hbond>
1.4058

> <Gold.Chemscore.Metal>
0.0000

> <Gold.Chemscore.Lipo>
110.3670

> <Gold.Chemscore.Internal_Hbond>
0.0000

> <Gold.Chemscore.DEClash>
1.9059

> <Gold.Chemscore.DEInternal>
1.3344

> <Gold.Chemscore.Rot>
1.4067

> <Gold.Chemscore.Internal.Correction>
   9.000000E+99

> <Gold.Chemscore.Hbonds>
donor molecule, donor type, donor heavy atom, donor atom, acceptor molecule, acceptor atom, score
      L1  H     7    53       P1 10747  1.00
      P1  H  7954  7966       L1     1  0.24
      P1  H  7989  7998       L1    19  0.02

> <Gold.Chemscore.Hbond.Weighted>
-4.6955

> <Gold.Chemscore.Metal.Weighted>
-0.0000

> <Gold.Chemscore.Lipo.Weighted>
-12.9129

> <Gold.Chemscore.Internal_Hbond.Weighted>
0.0000

> <Gold.Chemscore.DEClash.Weighted>
1.9059

> <Gold.Chemscore.DEInternal.Weighted>
1.3344

> <Gold.Chemscore.Rot.Weighted>
3.6011

> <Gold.Chemscore.Internal.Correction.Weighted>
   9.000000E+99

> <Gold.Protein.RotatedTorsions>
[ 6907 6896 6895 6894 ] final  169.07 input  -60.11 | X-H torsion
[ 7974 7965 7964 7962 ] final -172.73 input  175.53 | X-H torsion
[ 8008 7997 7996 7995 ] final  -11.12 input   59.86 | X-H torsion
[ 10167 10162 10161 10158 ] final  -22.38 input  -65.29 | X-H torsion
[ 10718 10713 10712 10709 ] final   72.21 input   66.30 | X-H torsion
[ 10763 10752 10751 10750 ] final  160.15 input  -60.55 | X-H torsion
[ 11005 11000 10999 10996 ] final -119.89 input  -57.11 | X-H torsion

> <Gold.Protein.ActiveResidues>
 VAL166  LYS551  ARG553  GLY616  TRP617  ASP618  TYR619  PRO620  LYS621  CYS622 
 ASP623  PHE694  ASN695  SER759  ASP760  ASP761  ALA762  ILE779  LEU786  VAL792 
 PHE793  MET794  SER795  GLU796  ALA797  LYS798  CYS799  TRP800  GLU811  SER814 

> <Gold.Protein.RotatedAtoms>
  151.8377  133.3418  159.3632 H   0  0  0  0  0  0  0  0  0  0  0  0  # atno 6907 bound_to 6896
  150.7244  134.5422  159.5762 H   0  0  0  0  0  0  0  0  0  0  0  0  # atno 6908 bound_to 6896
  152.2888  134.7745  160.0433 H   0  0  0  0  0  0  0  0  0  0  0  0  # atno 6909 bound_to 6896
  144.7144  140.1728  143.6366 H   0  0  0  0  0  0  0  0  0  0  0  0  # atno 7974 bound_to 7965
  154.5493  140.2311  155.8512 H   0  0  0  0  0  0  0  0  0  0  0  0  # atno 8008 bound_to 7997
  156.1932  140.3072  155.9335 H   0  0  0  0  0  0  0  0  0  0  0  0  # atno 8009 bound_to 7997
  155.3103  140.0435  157.3025 H   0  0  0  0  0  0  0  0  0  0  0  0  # atno 8010 bound_to 7997
  140.7285  143.4540  151.0475 H   0  0  0  0  0  0  0  0  0  0  0  0  # atno 10167 bound_to 10162
  157.6490  130.9567  150.0898 H   0  0  0  0  0  0  0  0  0  0  0  0  # atno 10718 bound_to 10713
  154.2429  135.2774  155.2847 H   0  0  0  0  0  0  0  0  0  0  0  0  # atno 10763 bound_to 10752
  154.5530  135.5669  153.6942 H   0  0  0  0  0  0  0  0  0  0  0  0  # atno 10764 bound_to 10752
  152.9996  135.6279  154.2574 H   0  0  0  0  0  0  0  0  0  0  0  0  # atno 10765 bound_to 10752
  141.0183  134.0162  157.3318 H   0  0  0  0  0  0  0  0  0  0  0  0  # atno 11005 bound_to 11000
  145.8928  139.2385  143.1539 LP  0  0  0  0  0  0  0  0  0  0  0  0  # atno 17320 bound_to 7965
  145.9887  140.8621  143.0077 LP  0  0  0  0  0  0  0  0  0  0  0  0  # atno 17321 bound_to 7965
  139.8219  143.7808  152.3177 LP  0  0  0  0  0  0  0  0  0  0  0  0  # atno 17342 bound_to 10162
  139.7894  144.7416  150.9976 LP  0  0  0  0  0  0  0  0  0  0  0  0  # atno 17343 bound_to 10162
  156.1850  130.3652  149.8985 LP  0  0  0  0  0  0  0  0  0  0  0  0  # atno 17370 bound_to 10713
  156.6927  130.8902  151.3590 LP  0  0  0  0  0  0  0  0  0  0  0  0  # atno 17371 bound_to 10713
  139.9130  135.0193  156.7770 LP  0  0  0  0  0  0  0  0  0  0  0  0  # atno 17394 bound_to 11000
  140.6616  133.9640  155.7808 LP  0  0  0  0  0  0  0  0  0  0  0  0  # atno 17395 bound_to 11000

$$$$
