AV-unprocessed.smi:1211|AV-procd|sdf|5078|dock1
  -GOLD-   22720 4123D 1   1.00000     0.00000
 Structure written by MMmdl.
 47 49  0  0  0  0  0  0  0  0  1 V2000
  147.7051  133.1071  152.3013 C   0  0  0  0  0  0  0  0  0  0  0  0
  146.3418  133.2440  151.6428 C   0  0  0  0  0  0  0  0  0  0  0  0
  145.7140  132.0974  151.1113 C   0  0  0  0  0  0  0  0  0  0  0  0
  144.4533  132.2251  150.5035 C   0  0  0  0  0  0  0  0  0  0  0  0
  143.8694  133.5025  150.4542 C   0  0  0  0  0  0  0  0  0  0  0  0
  144.4619  134.6034  150.9595 N   0  0  0  0  0  0  0  0  0  0  0  0
  145.6796  134.4975  151.5486 C   0  0  0  0  0  0  0  0  0  0  0  0
  146.3656  135.6157  152.1003 N   0  0  0  0  0  0  0  0  0  0  0  0
  145.8921  136.5644  152.9274 C   0  0  0  0  0  0  0  0  0  0  0  0
  144.7436  136.6229  153.3674 O   0  0  0  0  0  0  0  0  0  0  0  0
  146.8417  137.4588  153.2275 N   0  0  0  0  0  0  0  0  0  0  0  0
  146.6562  138.6020  154.1156 C   0  0  0  0  0  0  0  0  0  0  0  0
  148.0070  139.3246  154.4240 C   0  0  1  0  0  0  0  0  0  0  0  0
  149.1422  138.3542  154.3469 N   0  0  0  0  0  0  0  0  0  0  0  0
  150.4919  138.9230  154.4733 C   0  0  0  0  0  0  0  0  0  0  0  0
  151.5932  137.8629  154.2964 C   0  0  0  0  0  0  0  0  0  0  0  0
  151.4063  136.8113  155.2336 O   0  0  0  0  0  0  0  0  0  0  0  0
  150.1391  136.1843  155.0897 C   0  0  0  0  0  0  0  0  0  0  0  0
  149.0234  137.2249  155.2794 C   0  0  0  0  0  0  0  0  0  0  0  0
  148.1399  140.5126  153.4270 C   0  0  0  0  0  0  0  0  0  0  0  0
  147.1320  141.6048  153.8028 C   0  0  0  0  0  0  0  0  0  0  0  0
  146.9321  141.5606  155.5994 S   0  0  0  0  0  0  0  0  0  0  0  0
  147.8826  140.0282  155.7995 C   0  0  0  0  0  0  0  0  0  0  0  0
  148.0570  132.0755  152.2741 H   0  0  0  0  0  0  0  0  0  0  0  0
  147.6576  133.4179  153.3455 H   0  0  0  0  0  0  0  0  0  0  0  0
  148.4414  133.7260  151.7880 H   0  0  0  0  0  0  0  0  0  0  0  0
  146.1905  131.1296  151.1672 H   0  0  0  0  0  0  0  0  0  0  0  0
  143.9470  131.3670  150.0870 H   0  0  0  0  0  0  0  0  0  0  0  0
  142.9016  133.6446  149.9967 H   0  0  0  0  0  0  0  0  0  0  0  0
  147.3347  135.7013  151.8323 H   0  0  0  0  0  0  0  0  0  0  0  0
  147.7616  137.3387  152.8294 H   0  0  0  0  0  0  0  0  0  0  0  0
  145.9343  139.2793  153.6601 H   0  0  0  0  0  0  0  0  0  0  0  0
  146.1665  138.2644  155.0289 H   0  0  0  0  0  0  0  0  0  0  0  0
  150.6707  139.6814  153.7150 H   0  0  0  0  0  0  0  0  0  0  0  0
  150.6192  139.4009  155.4438 H   0  0  0  0  0  0  0  0  0  0  0  0
  151.5839  137.4616  153.2817 H   0  0  0  0  0  0  0  0  0  0  0  0
  152.5751  138.3090  154.4542 H   0  0  0  0  0  0  0  0  0  0  0  0
  150.0648  135.7135  154.1082 H   0  0  0  0  0  0  0  0  0  0  0  0
  150.0479  135.3918  155.8326 H   0  0  0  0  0  0  0  0  0  0  0  0
  149.0466  137.5868  156.3079 H   0  0  0  0  0  0  0  0  0  0  0  0
  148.0760  136.7064  155.1502 H   0  0  0  0  0  0  0  0  0  0  0  0
  149.1149  140.9878  153.5056 H   0  0  0  0  0  0  0  0  0  0  0  0
  148.0306  140.2061  152.3863 H   0  0  0  0  0  0  0  0  0  0  0  0
  147.4632  142.5908  153.4766 H   0  0  0  0  0  0  0  0  0  0  0  0
  146.1650  141.4185  153.3354 H   0  0  0  0  0  0  0  0  0  0  0  0
  147.4193  139.3932  156.5554 H   0  0  0  0  0  0  0  0  0  0  0  0
  148.8563  140.3224  156.1877 H   0  0  0  0  0  0  0  0  0  0  0  0
  1  2  1  0  0  0  0
  1 24  1  0  0  0  0
  1 25  1  0  0  0  0
  1 26  1  0  0  0  0
  2  7  1  0  0  0  0
  2  3  2  0  0  0  0
  3  4  1  0  0  0  0
  3 27  1  0  0  0  0
  4  5  2  0  0  0  0
  4 28  1  0  0  0  0
  5  6  1  0  0  0  0
  5 29  1  0  0  0  0
  6  7  2  0  0  0  0
  7  8  1  0  0  0  0
  8  9  1  0  0  0  0
  8 30  1  0  0  0  0
  9 10  2  0  0  0  0
  9 11  1  0  0  0  0
 11 12  1  0  0  0  0
 11 31  1  0  0  0  0
 12 13  1  0  0  0  0
 12 32  1  0  0  0  0
 12 33  1  0  0  0  0
 13 23  1  0  0  0  0
 13 14  1  0  0  0  0
 13 20  1  0  0  0  0
 14 19  1  0  0  0  0
 14 15  1  0  0  0  0
 15 16  1  0  0  0  0
 15 34  1  0  0  0  0
 15 35  1  0  0  0  0
 16 17  1  0  0  0  0
 16 36  1  0  0  0  0
 16 37  1  0  0  0  0
 17 18  1  0  0  0  0
 18 19  1  0  0  0  0
 18 38  1  0  0  0  0
 18 39  1  0  0  0  0
 19 40  1  0  0  0  0
 19 41  1  0  0  0  0
 20 21  1  0  0  0  0
 20 42  1  0  0  0  0
 20 43  1  0  0  0  0
 21 22  1  0  0  0  0
 21 44  1  0  0  0  0
 21 45  1  0  0  0  0
 22 23  1  0  0  0  0
 23 46  1  0  0  0  0
 23 47  1  0  0  0  0
M  END
> <s_m_source_file>
AV-unprocessed.smi

> <i_m_source_file_index>
1211

> <i_lp_mmshare_version>
43012

> <i_f3d_flags>
0

> <s_epik_input>
W0NIM11jMVtjSF1bY0hdW2NIXW5jMVtOSF1DKD1PKVtOSF1bQ0gyXVtDQF0yKFtDSDJdW0NIMl1TW0NIMl0yKU4zW0NIMl1bQ0gyXU9bQ0gyXVtDSDJdMw==

> <s_epik_cmdline>
J2VwaWtfcHl0aG9uJywgJy1waCcsICc3LjAnLCAnLXRuJywgJzgnLCAnLW1hJywgJzIwMCcsICctbWV0YWxfYmluZGluZycsICctaW1hZScsICc8aW5maWxlLm1hZT4nLCAnLW9tYWUnLCAnPG91dGZpbGUubWFlPic=

> <r_epik_Ionization_Penalty>
0.0195636

> <r_epik_Ionization_Penalty_Charging>
0

> <r_epik_Ionization_Penalty_Neutral>
0.0195636

> <r_epik_State_Penalty>
0.0155843

> <r_epik_Charging_Adjusted_Penalty>
0.0155843

> <i_epik_Tot_Q>
0

> <i_epik_Tot_abs_Q>
0

> <r_epik_Metal_State_Penalty>
0.0155842

> <b_epik_Metal_Only>
0

> <s_lp_Force_Field>
OPLS_2005

> <r_lp_Energy>
55.2683

> <b_lp_Chiralities_Consistent>
1

> <s_lp_Variant>
AV-unprocessed.smi:1211-1

> <Gold.Version>
5.8.1

> <Gold.Id.Protein>
6NUR|6NUR_protein|mol2

> <Gold.PLP.Fitness>
43.9065

> <Gold.PLP.PLP>
-34.0431

> <Gold.PLP.part.hbond>
-3.0000

> <Gold.PLP.part.metal>
0.0000

> <Gold.PLP.part.buried>
-4.2229

> <Gold.PLP.part.nonpolar>
-28.5403

> <Gold.PLP.part.repulsive>
0.5859

> <Gold.PLP.ligand.clash>
0.0000

> <Gold.PLP.ligand.torsion>
1.0756

> <Gold.PLP.Chemscore.Hbond>
2.9760

> <Gold.PLP.Chemscore.CHOScore>
1.0000

> <Gold.PLP.Chemscore.Metal>
0.0000

> <Gold.Chemscore.Hbonds>
donor molecule, donor type, donor heavy atom, donor atom, acceptor molecule, acceptor atom, score
      L1  H     8    30       P1  7948  1.00
      L1  H    11    31       P1  7948  0.96
      P1  H 10752 10764       L1    17  0.93
      L1  C     5    29       P1 10186  1.00

> <Gold.PLP.Chemscore.Internal.Correction>
0.0866

> <Gold.Rescore>
     Score         DG    S(hbond)    S(metal)    S(lipo)     H(rot)  DE(clash)    DE(int)     intcor
     18.27     -20.49       2.44        0.00      90.15       1.44       1.28       0.94       ----

> <Gold.Chemscore.Fitness>
18.2663

> <Gold.Chemscore.DG>
-20.4873

> <Gold.Chemscore.ZeroCoef>
-5.4800

> <Gold.Chemscore.Hbond>
2.4392

> <Gold.Chemscore.Metal>
0.0000

> <Gold.Chemscore.Lipo>
90.1535

> <Gold.Chemscore.Internal_Hbond>
0.0000

> <Gold.Chemscore.DEClash>
1.2804

> <Gold.Chemscore.DEInternal>
0.9406

> <Gold.Chemscore.Rot>
1.4405

> <Gold.Chemscore.Internal.Correction>
   9.000000E+99

> <Gold.Chemscore.Hbonds>
donor molecule, donor type, donor heavy atom, donor atom, acceptor molecule, acceptor atom, score
      L1  H     8    30       P1  7948  1.00
      L1  H    11    31       P1  7948  0.92
      P1  H 10752 10764       L1    17  0.19

> <Gold.Chemscore.Hbond.Weighted>
-8.1469

> <Gold.Chemscore.Metal.Weighted>
-0.0000

> <Gold.Chemscore.Lipo.Weighted>
-10.5480

> <Gold.Chemscore.Internal_Hbond.Weighted>
0.0000

> <Gold.Chemscore.DEClash.Weighted>
1.2804

> <Gold.Chemscore.DEInternal.Weighted>
0.9406

> <Gold.Chemscore.Rot.Weighted>
3.6876

> <Gold.Chemscore.Internal.Correction.Weighted>
   9.000000E+99

> <Gold.Protein.RotatedTorsions>
[ 6907 6896 6895 6894 ] final   55.40 input  -60.11 | X-H torsion
[ 7974 7965 7964 7962 ] final  -75.84 input  175.53 | X-H torsion
[ 8008 7997 7996 7995 ] final  162.03 input   59.86 | X-H torsion
[ 10167 10162 10161 10158 ] final -173.83 input  -65.29 | X-H torsion
[ 10718 10713 10712 10709 ] final   86.81 input   66.30 | X-H torsion
[ 10763 10752 10751 10750 ] final  -52.64 input  -60.55 | X-H torsion
[ 11005 11000 10999 10996 ] final   13.62 input  -57.11 | X-H torsion

> <Gold.Protein.ActiveResidues>
 VAL166  LYS551  ARG553  GLY616  TRP617  ASP618  TYR619  PRO620  LYS621  CYS622 
 ASP623  PHE694  ASN695  SER759  ASP760  ASP761  ALA762  ILE779  LEU786  VAL792 
 PHE793  MET794  SER795  GLU796  ALA797  LYS798  CYS799  TRP800  GLU811  SER814 

> <Gold.Protein.RotatedAtoms>
  152.3535  134.6973  160.0229 H   0  0  0  0  0  0  0  0  0  0  0  0  # atno 6907 bound_to 6896
  151.7319  133.3312  159.3350 H   0  0  0  0  0  0  0  0  0  0  0  0  # atno 6908 bound_to 6896
  150.7556  134.6289  159.6220 H   0  0  0  0  0  0  0  0  0  0  0  0  # atno 6909 bound_to 6896
  145.6207  140.9363  143.1139 H   0  0  0  0  0  0  0  0  0  0  0  0  # atno 7974 bound_to 7965
  156.2061  140.1761  156.7797 H   0  0  0  0  0  0  0  0  0  0  0  0  # atno 8008 bound_to 7997
  154.5657  140.0691  156.8917 H   0  0  0  0  0  0  0  0  0  0  0  0  # atno 8009 bound_to 7997
  155.2766  140.3346  155.4263 H   0  0  0  0  0  0  0  0  0  0  0  0  # atno 8010 bound_to 7997
  139.5667  144.1739  152.1322 H   0  0  0  0  0  0  0  0  0  0  0  0  # atno 10167 bound_to 10162
  157.6933  131.0230  150.3029 H   0  0  0  0  0  0  0  0  0  0  0  0  # atno 10718 bound_to 10713
  154.1460  135.6497  153.4952 H   0  0  0  0  0  0  0  0  0  0  0  0  # atno 10763 bound_to 10752
  153.0152  135.5326  154.6857 H   0  0  0  0  0  0  0  0  0  0  0  0  # atno 10764 bound_to 10752
  154.6131  135.2956  155.0381 H   0  0  0  0  0  0  0  0  0  0  0  0  # atno 10765 bound_to 10752
  140.4787  134.0957  155.7746 H   0  0  0  0  0  0  0  0  0  0  0  0  # atno 11005 bound_to 11000
  144.7232  139.7961  143.7374 LP  0  0  0  0  0  0  0  0  0  0  0  0  # atno 17320 bound_to 7965
  146.1433  139.4495  143.0095 LP  0  0  0  0  0  0  0  0  0  0  0  0  # atno 17321 bound_to 7965
  140.1264  144.5328  150.6830 LP  0  0  0  0  0  0  0  0  0  0  0  0  # atno 17342 bound_to 10162
  140.6950  143.2398  151.5025 LP  0  0  0  0  0  0  0  0  0  0  0  0  # atno 17343 bound_to 10162
  156.3542  130.3836  149.7304 LP  0  0  0  0  0  0  0  0  0  0  0  0  # atno 17370 bound_to 10713
  156.4771  130.8024  151.3040 LP  0  0  0  0  0  0  0  0  0  0  0  0  # atno 17371 bound_to 10713
  141.1542  133.8914  157.2021 LP  0  0  0  0  0  0  0  0  0  0  0  0  # atno 17394 bound_to 11000
  139.9840  135.0088  156.9817 LP  0  0  0  0  0  0  0  0  0  0  0  0  # atno 17395 bound_to 11000

$$$$
