AV-unprocessed.smi:1672|AV-procd|sdf|6707|dock5
  -GOLD-   22720 7453D 1   1.00000     0.00000
 Structure written by MMmdl.
 49 51  0  0  0  0  0  0  0  0  3 V2000
  151.6684  139.1367  155.8243 C   0  0  0  0  0  0  0  0  0  0  0  0
  151.4185  138.4938  154.4488 C   0  0  2  0  0  0  0  0  0  0  0  0
  149.9905  138.7377  153.9279 C   0  0  0  0  0  0  0  0  0  0  0  0
  148.9457  137.8821  154.6670 C   0  0  0  0  0  0  0  0  0  0  0  0
  149.2879  136.4382  154.6012 N   0  3  2  0  0  0  0  0  0  0  0  0
  148.2245  135.5780  155.1819 C   0  0  0  0  0  0  0  0  0  0  0  0
  146.9190  135.6207  154.3634 C   0  0  2  0  0  0  0  0  0  0  0  0
  145.8257  135.4452  155.2435 O   0  0  0  0  0  0  0  0  0  0  0  0
  146.8874  134.5289  153.2752 C   0  0  0  0  0  0  0  0  0  0  0  0
  145.9983  134.8672  152.1514 N   0  0  0  0  0  0  0  0  0  0  0  0
  145.7207  136.0796  151.5892 C   0  0  0  0  0  0  0  0  0  0  0  0
  146.2807  137.4040  151.9910 C   0  0  0  0  0  0  0  0  0  0  0  0
  146.7507  138.1439  150.8865 O   0  0  0  0  0  0  0  0  0  0  0  0
  144.8390  135.8628  150.5735 N   0  3  0  0  0  0  0  0  0  0  0  0
  144.5463  134.5017  150.4837 C   0  0  0  0  0  0  0  0  0  0  0  0
  143.7094  133.8068  149.6161 C   0  0  0  0  0  0  0  0  0  0  0  0
  143.6354  132.4095  149.7915 C   0  0  0  0  0  0  0  0  0  0  0  0
  144.3750  131.7565  150.7985 C   0  0  0  0  0  0  0  0  0  0  0  0
  145.2203  132.4720  151.6723 C   0  0  0  0  0  0  0  0  0  0  0  0
  145.2890  133.8539  151.4927 C   0  0  0  0  0  0  0  0  0  0  0  0
  150.6366  136.1694  155.1671 C   0  0  0  0  0  0  0  0  0  0  0  0
  151.7178  136.9835  154.4341 C   0  0  0  0  0  0  0  0  0  0  0  0
  151.0149  138.7288  156.5950 H   0  0  0  0  0  0  0  0  0  0  0  0
  151.5008  140.2136  155.7875 H   0  0  0  0  0  0  0  0  0  0  0  0
  152.6974  138.9781  156.1480 H   0  0  0  0  0  0  0  0  0  0  0  0
  152.1097  138.9738  153.7546 H   0  0  0  0  0  0  0  0  0  0  0  0
  149.7341  139.7946  154.0085 H   0  0  0  0  0  0  0  0  0  0  0  0
  149.9533  138.4991  152.8640 H   0  0  0  0  0  0  0  0  0  0  0  0
  148.8601  138.1925  155.7092 H   0  0  0  0  0  0  0  0  0  0  0  0
  147.9695  138.0479  154.2096 H   0  0  0  0  0  0  0  0  0  0  0  0
  148.5960  134.5550  155.2614 H   0  0  0  0  0  0  0  0  0  0  0  0
  148.0018  135.8972  156.2014 H   0  0  0  0  0  0  0  0  0  0  0  0
  146.8072  136.5909  153.8814 H   0  0  0  0  0  0  0  0  0  0  0  0
  145.1025  135.0764  154.7593 H   0  0  0  0  0  0  0  0  0  0  0  0
  147.8868  134.3913  152.8609 H   0  0  0  0  0  0  0  0  0  0  0  0
  146.5991  133.5623  153.6885 H   0  0  0  0  0  0  0  0  0  0  0  0
  145.5107  137.9826  152.5021 H   0  0  0  0  0  0  0  0  0  0  0  0
  147.0960  137.2599  152.7000 H   0  0  0  0  0  0  0  0  0  0  0  0
  146.0306  138.6368  150.5235 H   0  0  0  0  0  0  0  0  0  0  0  0
  143.1415  134.3052  148.8442 H   0  0  0  0  0  0  0  0  0  0  0  0
  142.9991  131.8271  149.1408 H   0  0  0  0  0  0  0  0  0  0  0  0
  144.2922  130.6843  150.9028 H   0  0  0  0  0  0  0  0  0  0  0  0
  145.7787  131.9579  152.4398 H   0  0  0  0  0  0  0  0  0  0  0  0
  150.6413  136.4033  156.2326 H   0  0  0  0  0  0  0  0  0  0  0  0
  150.8792  135.1109  155.0822 H   0  0  0  0  0  0  0  0  0  0  0  0
  151.7776  136.6410  153.4001 H   0  0  0  0  0  0  0  0  0  0  0  0
  152.6967  136.7880  154.8731 H   0  0  0  0  0  0  0  0  0  0  0  0
  149.3302  136.2074  153.6183 H   0  0  0  0  0  0  0  0  0  0  0  0
  144.4690  136.5961  149.9821 H   0  0  0  0  0  0  0  0  0  0  0  0
  1  2  1  0  0  0  0
  1 23  1  0  0  0  0
  1 24  1  0  0  0  0
  1 25  1  0  0  0  0
  2 22  1  0  0  0  0
  2  3  1  0  0  0  0
  2 26  1  0  0  0  0
  3  4  1  0  0  0  0
  3 27  1  0  0  0  0
  3 28  1  0  0  0  0
  4  5  1  0  0  0  0
  4 29  1  0  0  0  0
  4 30  1  0  0  0  0
  5  6  1  0  0  0  0
  5 21  1  0  0  0  0
  5 48  1  0  0  0  0
  6  7  1  0  0  0  0
  6 31  1  0  0  0  0
  6 32  1  0  0  0  0
  7  8  1  0  0  0  0
  7  9  1  0  0  0  0
  7 33  1  0  0  0  0
  8 34  1  0  0  0  0
  9 10  1  0  0  0  0
  9 35  1  0  0  0  0
  9 36  1  0  0  0  0
 10 20  1  0  0  0  0
 10 11  1  0  0  0  0
 11 12  1  0  0  0  0
 11 14  2  0  0  0  0
 12 13  1  0  0  0  0
 12 37  1  0  0  0  0
 12 38  1  0  0  0  0
 13 39  1  0  0  0  0
 14 15  1  0  0  0  0
 14 49  1  0  0  0  0
 15 20  2  0  0  0  0
 15 16  1  0  0  0  0
 16 17  2  0  0  0  0
 16 40  1  0  0  0  0
 17 18  1  0  0  0  0
 17 41  1  0  0  0  0
 18 19  2  0  0  0  0
 18 42  1  0  0  0  0
 19 20  1  0  0  0  0
 19 43  1  0  0  0  0
 21 22  1  0  0  0  0
 21 44  1  0  0  0  0
 21 45  1  0  0  0  0
 22 46  1  0  0  0  0
 22 47  1  0  0  0  0
M  CHG  1   5   1
M  CHG  1  14   1
M  END
> <s_m_source_file>
AV-unprocessed.smi

> <i_m_source_file_index>
1672

> <i_lp_mmshare_version>
43012

> <i_f3d_flags>
0

> <s_epik_input>
W0NIM11bQ0hdMVtDSDJdW0NIMl1OKFtDSDJdW0NIMl0xKVtDSDJdW0NASF0oW09IXSlbQ0gyXW4oYyhuMilbQ0gyXVtPSF0pYyhjMjMpW2NIXVtjSF1bY0hdW2NIXTM=

> <s_epik_cmdline>
J2VwaWtfcHl0aG9uJywgJy1waCcsICc3LjAnLCAnLXRuJywgJzgnLCAnLW1hJywgJzIwMCcsICctbWV0YWxfYmluZGluZycsICctaW1hZScsICc8aW5maWxlLm1hZT4nLCAnLW9tYWUnLCAnPG91dGZpbGUubWFlPic=

> <r_epik_Ionization_Penalty>
1.51642

> <r_epik_Ionization_Penalty_Charging>
1.51557

> <r_epik_Ionization_Penalty_Neutral>
0.000856474

> <r_epik_State_Penalty>
1.6048

> <r_epik_Charging_Adjusted_Penalty>
3.12037

> <i_epik_Tot_Q>
2

> <i_epik_Tot_abs_Q>
2

> <r_epik_Metal_State_Penalty>
5.65673

> <b_epik_Metal_Only>
0

> <s_lp_Force_Field>
OPLS_2005

> <r_lp_Energy>
31.2365

> <b_lp_Chiralities_Consistent>
1

> <s_lp_Variant>
AV-unprocessed.smi:1672-7

> <Gold.Version>
5.8.1

> <Gold.Id.Protein>
6NUR|6NUR_protein|mol2

> <Gold.PLP.Fitness>
50.3977

> <Gold.PLP.PLP>
-38.2369

> <Gold.PLP.part.hbond>
-4.0835

> <Gold.PLP.part.metal>
0.0000

> <Gold.PLP.part.buried>
0.9468

> <Gold.PLP.part.nonpolar>
-35.1448

> <Gold.PLP.part.repulsive>
0.0665

> <Gold.PLP.ligand.clash>
0.0000

> <Gold.PLP.ligand.torsion>
1.2024

> <Gold.PLP.Chemscore.Hbond>
4.8240

> <Gold.PLP.Chemscore.CHOScore>
0.0000

> <Gold.PLP.Chemscore.Metal>
0.0000

> <Gold.Chemscore.Hbonds>
donor molecule, donor type, donor heavy atom, donor atom, acceptor molecule, acceptor atom, score
      L1  H     5    48       P1  7948  2.00
      L1  H    13    39       P1 10171  0.41
      L1  H    14    49       P1 10171  0.89
      P1  H  7954  7966       L1    13  1.00

> <Gold.PLP.Chemscore.Internal.Correction>
0.0937

> <Gold.Rescore>
     Score         DG    S(hbond)    S(metal)    S(lipo)     H(rot)  DE(clash)    DE(int)     intcor
     17.79     -19.75       3.18        0.00      95.90       2.96       1.09       0.86       ----

> <Gold.Chemscore.Fitness>
17.7911

> <Gold.Chemscore.DG>
-19.7469

> <Gold.Chemscore.ZeroCoef>
-5.4800

> <Gold.Chemscore.Hbond>
3.1773

> <Gold.Chemscore.Metal>
0.0000

> <Gold.Chemscore.Lipo>
95.9032

> <Gold.Chemscore.Internal_Hbond>
0.0000

> <Gold.Chemscore.DEClash>
1.0930

> <Gold.Chemscore.DEInternal>
0.8628

> <Gold.Chemscore.Rot>
2.9555

> <Gold.Chemscore.Internal.Correction>
   9.000000E+99

> <Gold.Chemscore.Hbonds>
donor molecule, donor type, donor heavy atom, donor atom, acceptor molecule, acceptor atom, score
      L1  H     5    48       P1  7948  0.82
      L1  H    13    39       P1 10171  0.41
      L1  H    14    49       P1 10171  0.83
      P1  H  7954  7966       L1    13  0.95

> <Gold.Chemscore.Hbond.Weighted>
-10.6122

> <Gold.Chemscore.Metal.Weighted>
-0.0000

> <Gold.Chemscore.Lipo.Weighted>
-11.2207

> <Gold.Chemscore.Internal_Hbond.Weighted>
0.0000

> <Gold.Chemscore.DEClash.Weighted>
1.0930

> <Gold.Chemscore.DEInternal.Weighted>
0.8628

> <Gold.Chemscore.Rot.Weighted>
7.5660

> <Gold.Chemscore.Internal.Correction.Weighted>
   9.000000E+99

> <Gold.Protein.RotatedTorsions>
[ 6907 6896 6895 6894 ] final  -91.35 input  -60.11 | X-H torsion
[ 7974 7965 7964 7962 ] final  -56.98 input  175.53 | X-H torsion
[ 8008 7997 7996 7995 ] final  111.83 input   59.86 | X-H torsion
[ 10167 10162 10161 10158 ] final   -3.90 input  -65.29 | X-H torsion
[ 10718 10713 10712 10709 ] final   83.00 input   66.30 | X-H torsion
[ 10763 10752 10751 10750 ] final  -94.23 input  -60.55 | X-H torsion
[ 11005 11000 10999 10996 ] final  -27.76 input  -57.11 | X-H torsion

> <Gold.Protein.ActiveResidues>
 VAL166  LYS551  ARG553  GLY616  TRP617  ASP618  TYR619  PRO620  LYS621  CYS622 
 ASP623  PHE694  ASN695  SER759  ASP760  ASP761  ALA762  ILE779  LEU786  VAL792 
 PHE793  MET794  SER795  GLU796  ALA797  LYS798  CYS799  TRP800  GLU811  SER814 

> <Gold.Protein.RotatedAtoms>
  150.6891  134.2291  159.4426 H   0  0  0  0  0  0  0  0  0  0  0  0  # atno 6907 bound_to 6896
  152.0242  134.9802  160.0580 H   0  0  0  0  0  0  0  0  0  0  0  0  # atno 6908 bound_to 6896
  152.1367  133.4405  159.4784 H   0  0  0  0  0  0  0  0  0  0  0  0  # atno 6909 bound_to 6896
  145.8564  140.8316  142.9959 H   0  0  0  0  0  0  0  0  0  0  0  0  # atno 7974 bound_to 7965
  156.2151  140.3011  155.9821 H   0  0  0  0  0  0  0  0  0  0  0  0  # atno 8008 bound_to 7997
  155.2626  140.0430  157.3016 H   0  0  0  0  0  0  0  0  0  0  0  0  # atno 8009 bound_to 7997
  154.5756  140.2360  155.8136 H   0  0  0  0  0  0  0  0  0  0  0  0  # atno 8010 bound_to 7997
  140.6907  143.6486  150.8370 H   0  0  0  0  0  0  0  0  0  0  0  0  # atno 10167 bound_to 10162
  157.6869  131.0072  150.2459 H   0  0  0  0  0  0  0  0  0  0  0  0  # atno 10718 bound_to 10713
  154.7035  135.5165  153.8562 H   0  0  0  0  0  0  0  0  0  0  0  0  # atno 10763 bound_to 10752
  153.0723  135.6605  154.0230 H   0  0  0  0  0  0  0  0  0  0  0  0  # atno 10764 bound_to 10752
  154.0085  135.3004  155.3374 H   0  0  0  0  0  0  0  0  0  0  0  0  # atno 10765 bound_to 10752
  140.9148  133.7437  156.0720 H   0  0  0  0  0  0  0  0  0  0  0  0  # atno 11005 bound_to 11000
  144.6727  140.1029  143.7459 LP  0  0  0  0  0  0  0  0  0  0  0  0  # atno 17320 bound_to 7965
  145.9299  139.2599  143.1331 LP  0  0  0  0  0  0  0  0  0  0  0  0  # atno 17321 bound_to 7965
  140.0199  143.5554  152.2805 LP  0  0  0  0  0  0  0  0  0  0  0  0  # atno 17342 bound_to 10162
  139.6308  144.7644  151.2540 LP  0  0  0  0  0  0  0  0  0  0  0  0  # atno 17343 bound_to 10162
  156.3064  130.3765  149.7702 LP  0  0  0  0  0  0  0  0  0  0  0  0  # atno 17370 bound_to 10713
  156.5316  130.8260  151.3239 LP  0  0  0  0  0  0  0  0  0  0  0  0  # atno 17371 bound_to 10713
  140.8063  134.3450  157.5425 LP  0  0  0  0  0  0  0  0  0  0  0  0  # atno 17394 bound_to 11000
  139.8764  134.9228  156.3308 LP  0  0  0  0  0  0  0  0  0  0  0  0  # atno 17395 bound_to 11000

$$$$
