AV-unprocessed.smi:1749|AV-procd|sdf|7048|dock6
  -GOLD-   22720 8263D 1   1.00000     0.00000
 Structure written by MMmdl.
 31 32  0  0  0  0  0  0  0  0  2 V2000
  151.7546  145.2910  159.4274 C   0  0  0  0  0  0  0  0  0  0  0  0
  152.0261  143.9083  160.0367 C   0  0  2  0  0  0  0  0  0  0  0  0
  152.2271  143.9941  161.5618 C   0  0  0  0  0  0  0  0  0  0  0  0
  152.5047  142.6121  162.1741 C   0  0  0  0  0  0  0  0  0  0  0  0
  153.7136  141.9365  161.5044 C   0  0  0  0  0  0  0  0  0  0  0  0
  153.5480  141.8423  159.9732 C   0  0  1  0  0  0  0  0  0  0  0  0
  152.4928  140.8974  159.6136 N   0  0  0  0  0  0  0  0  0  0  0  0
  152.6305  139.7583  158.9079 C   0  0  0  0  0  0  0  0  0  0  0  0
  153.7442  139.4479  158.4869 O   0  0  0  0  0  0  0  0  0  0  0  0
  151.5173  139.0063  158.7006 N   0  5  0  0  0  0  0  0  0  0  0  0
  151.5378  137.8699  157.9787 C   0  0  0  0  0  0  0  0  0  0  0  0
  152.6122  137.4858  157.2702 N   0  0  0  0  0  0  0  0  0  0  0  0
  152.4280  136.2779  156.6114 N   0  0  0  0  0  0  0  0  0  0  0  0
  151.2093  135.7853  156.8314 C   0  0  0  0  0  0  0  0  0  0  0  0
  150.1762  136.7515  157.8637 S   0  0  0  0  0  0  0  0  0  0  0  0
  153.2399  143.2269  159.3690 C   0  0  0  0  0  0  0  0  0  0  0  0
  152.5982  145.9648  159.5804 H   0  0  0  0  0  0  0  0  0  0  0  0
  150.8743  145.7517  159.8760 H   0  0  0  0  0  0  0  0  0  0  0  0
  151.5768  145.2180  158.3541 H   0  0  0  0  0  0  0  0  0  0  0  0
  151.1442  143.2939  159.8490 H   0  0  0  0  0  0  0  0  0  0  0  0
  153.0584  144.6639  161.7872 H   0  0  0  0  0  0  0  0  0  0  0  0
  151.3442  144.4298  162.0308 H   0  0  0  0  0  0  0  0  0  0  0  0
  152.6822  142.7100  163.2453 H   0  0  0  0  0  0  0  0  0  0  0  0
  151.6225  141.9794  162.0664 H   0  0  0  0  0  0  0  0  0  0  0  0
  154.6127  142.5106  161.7309 H   0  0  0  0  0  0  0  0  0  0  0  0
  153.8729  140.9464  161.9331 H   0  0  0  0  0  0  0  0  0  0  0  0
  154.4855  141.4900  159.5393 H   0  0  0  0  0  0  0  0  0  0  0  0
  151.5659  141.1174  159.9473 H   0  0  0  0  0  0  0  0  0  0  0  0
  150.9158  134.8486  156.3811 H   0  0  0  0  0  0  0  0  0  0  0  0
  153.0724  143.1318  158.2951 H   0  0  0  0  0  0  0  0  0  0  0  0
  154.1173  143.8653  159.4820 H   0  0  0  0  0  0  0  0  0  0  0  0
  1  2  1  0  0  0  0
  1 17  1  0  0  0  0
  1 18  1  0  0  0  0
  1 19  1  0  0  0  0
  2 16  1  0  0  0  0
  2  3  1  0  0  0  0
  2 20  1  0  0  0  0
  3  4  1  0  0  0  0
  3 21  1  0  0  0  0
  3 22  1  0  0  0  0
  4  5  1  0  0  0  0
  4 23  1  0  0  0  0
  4 24  1  0  0  0  0
  5  6  1  0  0  0  0
  5 25  1  0  0  0  0
  5 26  1  0  0  0  0
  6  7  1  0  0  0  0
  6 16  1  0  0  0  0
  6 27  1  0  0  0  0
  7  8  1  0  0  0  0
  7 28  1  0  0  0  0
  8  9  2  0  0  0  0
  8 10  1  0  0  0  0
 10 11  1  0  0  0  0
 11 15  1  0  0  0  0
 11 12  2  0  0  0  0
 12 13  1  0  0  0  0
 13 14  2  0  0  0  0
 14 15  1  0  0  0  0
 14 29  1  0  0  0  0
 16 30  1  0  0  0  0
 16 31  1  0  0  0  0
M  CHG  1  10  -1
M  END
> <s_m_source_file>
AV-unprocessed.smi

> <i_m_source_file_index>
1749

> <i_lp_mmshare_version>
43012

> <i_f3d_flags>
0

> <s_epik_input>
W0NIM11bQ0BASF0xW0NIMl1bQ0gyXVtDSDJdW0NASF0oW0NIMl0xKVtOSF1DKD1PKVtOSF1jMm5uW2NIXXMy

> <s_epik_cmdline>
J2VwaWtfcHl0aG9uJywgJy1waCcsICc3LjAnLCAnLXRuJywgJzgnLCAnLW1hJywgJzIwMCcsICctbWV0YWxfYmluZGluZycsICctaW1hZScsICc8aW5maWxlLm1hZT4nLCAnLW9tYWUnLCAnPG91dGZpbGUubWFlPic=

> <r_lp_tautomer_probability>
1

> <r_epik_Ionization_Penalty>
4.55442

> <r_epik_Ionization_Penalty_Charging>
4.5081

> <r_epik_Ionization_Penalty_Neutral>
0.0463156

> <r_epik_State_Penalty>
4.50781

> <r_epik_Charging_Adjusted_Penalty>
9.01591

> <i_epik_Tot_Q>
-1

> <i_epik_Tot_abs_Q>
1

> <r_epik_Metal_State_Penalty>
0.823335

> <b_epik_Metal_Only>
1

> <s_lp_Force_Field>
OPLS_2005

> <r_lp_Energy>
7.79414

> <b_lp_Chiralities_Consistent>
1

> <s_lp_Variant>
AV-unprocessed.smi:1749-5

> <Gold.Version>
5.8.1

> <Gold.Id.Protein>
6NUR|6NUR_protein|mol2

> <Gold.PLP.Fitness>
41.5442

> <Gold.PLP.PLP>
-35.5810

> <Gold.PLP.part.hbond>
-2.0000

> <Gold.PLP.part.metal>
0.0000

> <Gold.PLP.part.buried>
-4.8354

> <Gold.PLP.part.nonpolar>
-29.4745

> <Gold.PLP.part.repulsive>
0.1356

> <Gold.PLP.ligand.clash>
0.0000

> <Gold.PLP.ligand.torsion>
0.0215

> <Gold.PLP.Chemscore.Hbond>
2.0000

> <Gold.PLP.Chemscore.CHOScore>
0.0000

> <Gold.PLP.Chemscore.Metal>
0.0000

> <Gold.Chemscore.Hbonds>
donor molecule, donor type, donor heavy atom, donor atom, acceptor molecule, acceptor atom, score
      P1  H  7997  8010       L1     9  1.00
      P1  H 10752 10764       L1    13  1.00

> <Gold.PLP.Chemscore.Internal.Correction>
0.0063

> <Gold.Rescore>
     Score         DG    S(hbond)    S(metal)    S(lipo)     H(rot)  DE(clash)    DE(int)     intcor
     18.49     -20.22       1.98        0.00      91.29       1.00       0.02       1.70       ----

> <Gold.Chemscore.Fitness>
18.4897

> <Gold.Chemscore.DG>
-20.2161

> <Gold.Chemscore.ZeroCoef>
-5.4800

> <Gold.Chemscore.Hbond>
1.9807

> <Gold.Chemscore.Metal>
0.0000

> <Gold.Chemscore.Lipo>
91.2855

> <Gold.Chemscore.Internal_Hbond>
0.0000

> <Gold.Chemscore.DEClash>
0.0234

> <Gold.Chemscore.DEInternal>
1.7030

> <Gold.Chemscore.Rot>
1.0000

> <Gold.Chemscore.Internal.Correction>
   9.000000E+99

> <Gold.Chemscore.Hbonds>
donor molecule, donor type, donor heavy atom, donor atom, acceptor molecule, acceptor atom, score
      P1  H  7997  8010       L1     9  1.00
      P1  H 10752 10764       L1    13  0.74

> <Gold.Chemscore.Hbond.Weighted>
-6.6157

> <Gold.Chemscore.Metal.Weighted>
-0.0000

> <Gold.Chemscore.Lipo.Weighted>
-10.6804

> <Gold.Chemscore.Internal_Hbond.Weighted>
0.0000

> <Gold.Chemscore.DEClash.Weighted>
0.0234

> <Gold.Chemscore.DEInternal.Weighted>
1.7030

> <Gold.Chemscore.Rot.Weighted>
2.5600

> <Gold.Chemscore.Internal.Correction.Weighted>
   9.000000E+99

> <Gold.Protein.RotatedTorsions>
[ 6907 6896 6895 6894 ] final  -80.52 input  -60.11 | X-H torsion
[ 7974 7965 7964 7962 ] final -168.29 input  175.53 | X-H torsion
[ 8008 7997 7996 7995 ] final   16.83 input   59.86 | X-H torsion
[ 10167 10162 10161 10158 ] final  116.54 input  -65.29 | X-H torsion
[ 10718 10713 10712 10709 ] final  -24.68 input   66.30 | X-H torsion
[ 10763 10752 10751 10750 ] final  -29.68 input  -60.55 | X-H torsion
[ 11005 11000 10999 10996 ] final   95.15 input  -57.11 | X-H torsion

> <Gold.Protein.ActiveResidues>
 VAL166  LYS551  ARG553  GLY616  TRP617  ASP618  TYR619  PRO620  LYS621  CYS622 
 ASP623  PHE694  ASN695  SER759  ASP760  ASP761  ALA762  ILE779  LEU786  VAL792 
 PHE793  MET794  SER795  GLU796  ALA797  LYS798  CYS799  TRP800  GLU811  SER814 

> <Gold.Protein.RotatedAtoms>
  150.6928  134.3957  159.5096 H   0  0  0  0  0  0  0  0  0  0  0  0  # atno 6907 bound_to 6896
  152.1738  134.8809  160.0541 H   0  0  0  0  0  0  0  0  0  0  0  0  # atno 6908 bound_to 6896
  151.9825  133.3728  159.4150 H   0  0  0  0  0  0  0  0  0  0  0  0  # atno 6909 bound_to 6896
  144.7206  140.2392  143.6294 H   0  0  0  0  0  0  0  0  0  0  0  0  # atno 7974 bound_to 7965
  154.8826  140.2975  155.5416 H   0  0  0  0  0  0  0  0  0  0  0  0  # atno 8008 bound_to 7997
  156.3022  140.2439  156.3765 H   0  0  0  0  0  0  0  0  0  0  0  0  # atno 8009 bound_to 7997
  154.8701  140.0402  157.1708 H   0  0  0  0  0  0  0  0  0  0  0  0  # atno 8010 bound_to 7997
  139.6240  144.7105  151.2573 H   0  0  0  0  0  0  0  0  0  0  0  0  # atno 10167 bound_to 10162
  156.4744  130.4531  149.6849 H   0  0  0  0  0  0  0  0  0  0  0  0  # atno 10718 bound_to 10713
  153.7685  135.6914  153.4911 H   0  0  0  0  0  0  0  0  0  0  0  0  # atno 10763 bound_to 10752
  153.1890  135.4478  155.0124 H   0  0  0  0  0  0  0  0  0  0  0  0  # atno 10764 bound_to 10752
  154.8126  135.3384  154.7196 H   0  0  0  0  0  0  0  0  0  0  0  0  # atno 10765 bound_to 10752
  139.8791  134.8883  156.3968 H   0  0  0  0  0  0  0  0  0  0  0  0  # atno 11005 bound_to 11000
  145.8336  139.2097  143.1868 LP  0  0  0  0  0  0  0  0  0  0  0  0  # atno 17320 bound_to 7965
  146.0409  140.8166  142.9829 LP  0  0  0  0  0  0  0  0  0  0  0  0  # atno 17321 bound_to 7965
  140.7400  143.6602  150.8171 LP  0  0  0  0  0  0  0  0  0  0  0  0  # atno 17342 bound_to 10162
  140.0217  143.5535  152.2797 LP  0  0  0  0  0  0  0  0  0  0  0  0  # atno 17343 bound_to 10162
  156.3585  130.7469  151.2438 LP  0  0  0  0  0  0  0  0  0  0  0  0  # atno 17370 bound_to 10713
  157.7488  131.0357  150.4375 LP  0  0  0  0  0  0  0  0  0  0  0  0  # atno 17371 bound_to 10713
  140.9294  133.7589  156.0006 LP  0  0  0  0  0  0  0  0  0  0  0  0  # atno 17394 bound_to 11000
  140.8348  134.3136  157.5336 LP  0  0  0  0  0  0  0  0  0  0  0  0  # atno 17395 bound_to 11000

$$$$
