AV-unprocessed.smi:264|AV-procd|sdf|2008|dock2
  -GOLD-   2262021203D 1   1.00000     0.00000
 Structure written by MMmdl.
 52 56  0  0  0  0  0  0  0  0  1 V2000
  145.6557  135.2518  150.6838 C   0  0  0  0  0  0  0  0  0  0  0  0
  144.9694  133.9366  151.0870 C   0  0  1  0  0  0  0  0  0  0  0  0
  144.0007  133.5598  150.1192 O   0  0  0  0  0  0  0  0  0  0  0  0
  143.7050  132.1929  150.3401 C   0  0  0  0  0  0  0  0  0  0  0  0
  145.0836  131.5808  150.5566 C   0  0  0  0  0  0  0  0  0  0  0  0
  145.8762  132.6888  151.2576 C   0  0  1  0  0  0  0  0  0  0  0  0
  147.1131  132.8411  150.5807 O   0  0  0  0  0  0  0  0  0  0  0  0
  146.1726  132.3456  152.7385 C   0  0  0  0  0  0  0  0  0  0  0  0
  146.8707  133.4042  153.4531 N   0  0  0  0  0  0  0  0  0  0  0  0
  146.4642  134.7122  153.5919 C   0  0  0  0  0  0  0  0  0  0  0  0
  147.2624  135.4730  154.2892 N   0  0  0  0  0  0  0  0  0  0  0  0
  148.3081  134.6307  154.6478 C   0  0  0  0  0  0  0  0  0  0  0  0
  149.5021  134.7999  155.4048 C   0  0  0  0  0  0  0  0  0  0  0  0
  149.8583  135.9879  155.9561 N   0  0  0  0  0  0  0  0  0  0  0  0
  150.0136  135.9724  157.4052 C   0  0  0  0  0  0  0  0  0  0  0  0
  150.7541  137.2362  157.8635 C   0  0  0  0  0  0  0  0  0  0  0  0
  150.0799  138.4017  157.3904 O   0  0  0  0  0  0  0  0  0  0  0  0
  149.9322  138.4642  155.9683 C   0  0  1  0  0  0  0  0  0  0  0  0
  149.1362  139.7230  155.6379 C   0  0  0  0  0  0  0  0  0  0  0  0
  149.7593  140.1983  154.3343 C   0  0  0  0  0  0  0  0  0  0  0  0
  151.1370  139.9629  154.5564 O   0  0  0  0  0  0  0  0  0  0  0  0
  151.2701  138.7188  155.2339 C   0  0  0  0  0  0  0  0  0  0  0  0
  149.1988  137.1966  155.4700 C   0  0  0  0  0  0  0  0  0  0  0  0
  150.2979  133.7088  155.5669 N   0  0  0  0  0  0  0  0  0  0  0  0
  149.9602  132.5382  155.0184 C   0  0  0  0  0  0  0  0  0  0  0  0
  148.8866  132.2396  154.2850 N   0  0  0  0  0  0  0  0  0  0  0  0
  148.0766  133.3254  154.1286 C   0  0  0  0  0  0  0  0  0  0  0  0
  146.4173  135.5372  151.4097 H   0  0  0  0  0  0  0  0  0  0  0  0
  144.9301  136.0635  150.6306 H   0  0  0  0  0  0  0  0  0  0  0  0
  146.1319  135.1726  149.7063 H   0  0  0  0  0  0  0  0  0  0  0  0
  144.4144  134.1069  152.0100 H   0  0  0  0  0  0  0  0  0  0  0  0
  143.0845  132.0877  151.2316 H   0  0  0  0  0  0  0  0  0  0  0  0
  143.1753  131.7526  149.4951 H   0  0  0  0  0  0  0  0  0  0  0  0
  145.0362  130.6519  151.1262 H   0  0  0  0  0  0  0  0  0  0  0  0
  145.5175  131.3431  149.5836 H   0  0  0  0  0  0  0  0  0  0  0  0
  147.5866  132.0252  150.6335 H   0  0  0  0  0  0  0  0  0  0  0  0
  145.2417  132.1329  153.2660 H   0  0  0  0  0  0  0  0  0  0  0  0
  146.7722  131.4367  152.8057 H   0  0  0  0  0  0  0  0  0  0  0  0
  145.5451  135.0854  153.1638 H   0  0  0  0  0  0  0  0  0  0  0  0
  149.0259  135.9313  157.8663 H   0  0  0  0  0  0  0  0  0  0  0  0
  150.5568  135.0908  157.7433 H   0  0  0  0  0  0  0  0  0  0  0  0
  150.7912  137.2716  158.9522 H   0  0  0  0  0  0  0  0  0  0  0  0
  151.7878  137.2186  157.5181 H   0  0  0  0  0  0  0  0  0  0  0  0
  148.0613  139.5564  155.5604 H   0  0  0  0  0  0  0  0  0  0  0  0
  149.2978  140.4826  156.4044 H   0  0  0  0  0  0  0  0  0  0  0  0
  149.4115  139.6023  153.4890 H   0  0  0  0  0  0  0  0  0  0  0  0
  149.5577  141.2494  154.1269 H   0  0  0  0  0  0  0  0  0  0  0  0
  152.1232  138.7787  155.9091 H   0  0  0  0  0  0  0  0  0  0  0  0
  151.4804  137.9353  154.5050 H   0  0  0  0  0  0  0  0  0  0  0  0
  149.1559  137.1932  154.3798 H   0  0  0  0  0  0  0  0  0  0  0  0
  148.1690  137.1986  155.8312 H   0  0  0  0  0  0  0  0  0  0  0  0
  150.6490  131.7248  155.1921 H   0  0  0  0  0  0  0  0  0  0  0  0
  1  2  1  0  0  0  0
  1 28  1  0  0  0  0
  1 29  1  0  0  0  0
  1 30  1  0  0  0  0
  2  6  1  0  0  0  0
  2  3  1  0  0  0  0
  2 31  1  0  0  0  0
  3  4  1  0  0  0  0
  4  5  1  0  0  0  0
  4 32  1  0  0  0  0
  4 33  1  0  0  0  0
  5  6  1  0  0  0  0
  5 34  1  0  0  0  0
  5 35  1  0  0  0  0
  6  7  1  0  0  0  0
  6  8  1  0  0  0  0
  7 36  1  0  0  0  0
  8  9  1  0  0  0  0
  8 37  1  0  0  0  0
  8 38  1  0  0  0  0
  9 27  1  0  0  0  0
  9 10  1  0  0  0  0
 10 11  2  0  0  0  0
 10 39  1  0  0  0  0
 11 12  1  0  0  0  0
 12 27  2  0  0  0  0
 12 13  1  0  0  0  0
 13 14  1  0  0  0  0
 13 24  2  0  0  0  0
 14 23  1  0  0  0  0
 14 15  1  0  0  0  0
 15 16  1  0  0  0  0
 15 40  1  0  0  0  0
 15 41  1  0  0  0  0
 16 17  1  0  0  0  0
 16 42  1  0  0  0  0
 16 43  1  0  0  0  0
 17 18  1  0  0  0  0
 18 22  1  0  0  0  0
 18 19  1  0  0  0  0
 18 23  1  0  0  0  0
 19 20  1  0  0  0  0
 19 44  1  0  0  0  0
 19 45  1  0  0  0  0
 20 21  1  0  0  0  0
 20 46  1  0  0  0  0
 20 47  1  0  0  0  0
 21 22  1  0  0  0  0
 22 48  1  0  0  0  0
 22 49  1  0  0  0  0
 23 50  1  0  0  0  0
 23 51  1  0  0  0  0
 24 25  1  0  0  0  0
 25 26  2  0  0  0  0
 25 52  1  0  0  0  0
 26 27  1  0  0  0  0
M  END
> <s_m_source_file>
AV-unprocessed.smi

> <i_m_source_file_index>
264

> <i_lp_mmshare_version>
43012

> <i_f3d_flags>
0

> <s_epik_input>
W0NIMl0xW0NIMl1PW0NAQEhdKFtDSDNdKVtDQEBdMShbT0hdKVtDSDJdbihbY0hdbjIpYyhjMjMpbltjSF1uYzNOKFtDSDJdNClbQ0gyXVtDSDJdT1tDQF00NVtDSDJdW0NIMl1PW0NIMl01

> <s_epik_cmdline>
J2VwaWtfcHl0aG9uJywgJy1waCcsICc3LjAnLCAnLXRuJywgJzgnLCAnLW1hJywgJzIwMCcsICctbWV0YWxfYmluZGluZycsICctaW1hZScsICc8aW5maWxlLm1hZT4nLCAnLW9tYWUnLCAnPG91dGZpbGUubWFlPic=

> <r_lp_tautomer_probability>
1

> <r_epik_Ionization_Penalty>
0.00539389

> <r_epik_Ionization_Penalty_Charging>
0

> <r_epik_Ionization_Penalty_Neutral>
0.00539389

> <r_epik_State_Penalty>
0.00375441

> <r_epik_Charging_Adjusted_Penalty>
0.00375441

> <i_epik_Tot_Q>
0

> <i_epik_Tot_abs_Q>
0

> <r_epik_Metal_State_Penalty>
-0

> <b_epik_Metal_Only>
0

> <s_lp_Force_Field>
OPLS_2005

> <r_lp_Energy>
54.8303

> <b_lp_Chiralities_Consistent>
1

> <s_lp_Variant>
AV-unprocessed.smi:264-2

> <Gold.Version>
5.8.1

> <Gold.Id.Protein>
6NUR|6NUR_protein|mol2

> <Gold.PLP.Fitness>
40.6044

> <Gold.PLP.PLP>
-34.7825

> <Gold.PLP.part.hbond>
-2.0695

> <Gold.PLP.part.metal>
0.0000

> <Gold.PLP.part.buried>
-7.2203

> <Gold.PLP.part.nonpolar>
-27.2366

> <Gold.PLP.part.repulsive>
1.2280

> <Gold.PLP.ligand.clash>
0.0000

> <Gold.PLP.ligand.torsion>
0.2399

> <Gold.PLP.Chemscore.Hbond>
2.0000

> <Gold.PLP.Chemscore.CHOScore>
0.0000

> <Gold.PLP.Chemscore.Metal>
0.0000

> <Gold.Chemscore.Hbonds>
donor molecule, donor type, donor heavy atom, donor atom, acceptor molecule, acceptor atom, score
      L1  H     7    36       P1 10747  1.00
      P1  H  7989  7998       L1    21  0.73

> <Gold.PLP.Chemscore.Internal.Correction>
0.3017

> <Gold.Rescore>
     Score         DG    S(hbond)    S(metal)    S(lipo)     H(rot)  DE(clash)    DE(int)     intcor
     13.11     -15.50       1.96        0.00      75.91       2.11       0.04       2.35       ----

> <Gold.Chemscore.Fitness>
13.1127

> <Gold.Chemscore.DG>
-15.5037

> <Gold.Chemscore.ZeroCoef>
-5.4800

> <Gold.Chemscore.Hbond>
1.9565

> <Gold.Chemscore.Metal>
0.0000

> <Gold.Chemscore.Lipo>
75.9076

> <Gold.Chemscore.Internal_Hbond>
0.0000

> <Gold.Chemscore.DEClash>
0.0381

> <Gold.Chemscore.DEInternal>
2.3529

> <Gold.Chemscore.Rot>
2.1063

> <Gold.Chemscore.Internal.Correction>
   9.000000E+99

> <Gold.Chemscore.Hbonds>
donor molecule, donor type, donor heavy atom, donor atom, acceptor molecule, acceptor atom, score
      L1  H     7    36       P1 10747  0.98
      P1  H  7989  7998       L1    21  0.12

> <Gold.Chemscore.Hbond.Weighted>
-6.5346

> <Gold.Chemscore.Metal.Weighted>
-0.0000

> <Gold.Chemscore.Lipo.Weighted>
-8.8812

> <Gold.Chemscore.Internal_Hbond.Weighted>
0.0000

> <Gold.Chemscore.DEClash.Weighted>
0.0381

> <Gold.Chemscore.DEInternal.Weighted>
2.3529

> <Gold.Chemscore.Rot.Weighted>
5.3921

> <Gold.Chemscore.Internal.Correction.Weighted>
   9.000000E+99

> <Gold.Protein.RotatedTorsions>
[ 6907 6896 6895 6894 ] final   78.51 input  -60.11 | X-H torsion
[ 7974 7965 7964 7962 ] final   -1.98 input  175.53 | X-H torsion
[ 8008 7997 7996 7995 ] final  162.51 input   59.86 | X-H torsion
[ 10167 10162 10161 10158 ] final  138.24 input  -65.29 | X-H torsion
[ 10718 10713 10712 10709 ] final -101.70 input   66.30 | X-H torsion
[ 10763 10752 10751 10750 ] final  -60.91 input  -60.55 | X-H torsion
[ 11005 11000 10999 10996 ] final  102.48 input  -57.11 | X-H torsion

> <Gold.Protein.ActiveResidues>
 VAL166  LYS551  ARG553  GLY616  TRP617  ASP618  TYR619  PRO620  LYS621  CYS622 
 ASP623  PHE694  ASN695  SER759  ASP760  ASP761  ALA762  ILE779  LEU786  VAL792 
 PHE793  MET794  SER795  GLU796  ALA797  LYS798  CYS799  TRP800  GLU811  SER814 

> <Gold.Protein.RotatedAtoms>
  152.5162  134.3653  159.9298 H   0  0  0  0  0  0  0  0  0  0  0  0  # atno 6907 bound_to 6896
  151.3606  133.3885  159.2697 H   0  0  0  0  0  0  0  0  0  0  0  0  # atno 6908 bound_to 6896
  150.9655  134.9055  159.7814 H   0  0  0  0  0  0  0  0  0  0  0  0  # atno 6909 bound_to 6896
  146.2410  140.1502  142.8334 H   0  0  0  0  0  0  0  0  0  0  0  0  # atno 7974 bound_to 7965
  156.2026  140.1748  156.7868 H   0  0  0  0  0  0  0  0  0  0  0  0  # atno 8008 bound_to 7997
  154.5611  140.0699  156.8851 H   0  0  0  0  0  0  0  0  0  0  0  0  # atno 8009 bound_to 7997
  155.2846  140.3351  155.4258 H   0  0  0  0  0  0  0  0  0  0  0  0  # atno 8010 bound_to 7997
  139.5117  144.6364  151.5684 H   0  0  0  0  0  0  0  0  0  0  0  0  # atno 10167 bound_to 10162
  156.0203  130.5385  150.7001 H   0  0  0  0  0  0  0  0  0  0  0  0  # atno 10718 bound_to 10713
  154.2765  135.6280  153.5330 H   0  0  0  0  0  0  0  0  0  0  0  0  # atno 10763 bound_to 10752
  152.9872  135.5622  154.5543 H   0  0  0  0  0  0  0  0  0  0  0  0  # atno 10764 bound_to 10752
  154.5124  135.2878  155.1307 H   0  0  0  0  0  0  0  0  0  0  0  0  # atno 10765 bound_to 10752
  139.8778  134.9225  156.5064 H   0  0  0  0  0  0  0  0  0  0  0  0  # atno 11005 bound_to 11000
  145.0174  140.8765  143.5187 LP  0  0  0  0  0  0  0  0  0  0  0  0  # atno 17320 bound_to 7965
  145.1545  139.2494  143.5423 LP  0  0  0  0  0  0  0  0  0  0  0  0  # atno 17321 bound_to 7965
  140.6115  143.9427  150.6457 LP  0  0  0  0  0  0  0  0  0  0  0  0  # atno 17342 bound_to 10162
  140.2671  143.3482  152.1271 LP  0  0  0  0  0  0  0  0  0  0  0  0  # atno 17343 bound_to 10162
  157.4663  131.0888  151.0691 LP  0  0  0  0  0  0  0  0  0  0  0  0  # atno 17370 bound_to 10713
  157.1164  130.6043  149.5494 LP  0  0  0  0  0  0  0  0  0  0  0  0  # atno 17371 bound_to 10713
  140.8552  133.8102  155.9208 LP  0  0  0  0  0  0  0  0  0  0  0  0  # atno 17394 bound_to 11000
  140.9105  134.2267  157.4989 LP  0  0  0  0  0  0  0  0  0  0  0  0  # atno 17395 bound_to 11000

$$$$
