AV-unprocessed.smi:627|AV-procd|sdf|3113|dock5
  -GOLD-   22720 0 33D 1   1.00000     0.00000
 Structure written by MMmdl.
 40 42  0  0  0  0  0  0  0  0  1 V2000
  151.0965  141.9442  156.8925 C   0  0  0  0  0  0  0  0  0  0  0  0
  151.2105  140.2410  156.2087 S   0  0  0  0  0  0  0  0  0  0  0  0
  150.7839  140.2902  154.8013 O   0  0  0  0  0  0  0  0  0  0  0  0
  152.5338  139.6948  156.5475 O   0  0  0  0  0  0  0  0  0  0  0  0
  149.9842  139.3270  157.1368 C   0  0  0  0  0  0  0  0  0  0  0  0
  148.6103  139.5756  156.9428 C   0  0  0  0  0  0  0  0  0  0  0  0
  147.6887  138.8512  157.7223 C   0  0  0  0  0  0  0  0  0  0  0  0
  148.1771  137.9120  158.6636 C   0  0  0  0  0  0  0  0  0  0  0  0
  147.3479  137.1336  159.5150 N   0  0  0  0  0  0  0  0  0  0  0  0
  147.6485  136.6064  160.7143 C   0  0  0  0  0  0  0  0  0  0  0  0
  148.7322  136.7176  161.2871 O   0  0  0  0  0  0  0  0  0  0  0  0
  146.5994  135.9499  161.2303 N   0  0  0  0  0  0  0  0  0  0  0  0
  146.5683  135.2828  162.5280 C   0  0  0  0  0  0  0  0  0  0  0  0
  147.1119  133.8686  162.4415 C   0  0  0  0  0  0  0  0  0  0  0  0
  147.4927  133.2515  161.1165 C   0  0  0  0  0  0  0  0  0  0  0  0
  146.2801  132.7476  161.8665 C   0  0  0  0  0  0  0  0  0  0  0  0
  145.1791  135.2767  163.1445 C   0  0  0  0  0  0  0  0  0  0  0  0
  143.9401  135.1146  162.2959 C   0  0  0  0  0  0  0  0  0  0  0  0
  144.2331  136.4402  162.9607 C   0  0  0  0  0  0  0  0  0  0  0  0
  149.5757  137.7717  158.7924 C   0  0  0  0  0  0  0  0  0  0  0  0
  150.4688  138.4596  158.0507 N   0  0  0  0  0  0  0  0  0  0  0  0
  151.8136  142.5878  156.3839 H   0  0  0  0  0  0  0  0  0  0  0  0
  151.3204  141.9241  157.9589 H   0  0  0  0  0  0  0  0  0  0  0  0
  150.0890  142.3301  156.7404 H   0  0  0  0  0  0  0  0  0  0  0  0
  148.2661  140.3004  156.2201 H   0  0  0  0  0  0  0  0  0  0  0  0
  146.6340  139.0399  157.5948 H   0  0  0  0  0  0  0  0  0  0  0  0
  146.3911  137.0283  159.2107 H   0  0  0  0  0  0  0  0  0  0  0  0
  145.7503  135.9147  160.6857 H   0  0  0  0  0  0  0  0  0  0  0  0
  147.2253  135.8294  163.2080 H   0  0  0  0  0  0  0  0  0  0  0  0
  147.7462  133.5974  163.2837 H   0  0  0  0  0  0  0  0  0  0  0  0
  147.3139  133.8294  160.2121 H   0  0  0  0  0  0  0  0  0  0  0  0
  148.3737  132.6132  161.0952 H   0  0  0  0  0  0  0  0  0  0  0  0
  146.3525  131.7729  162.3446 H   0  0  0  0  0  0  0  0  0  0  0  0
  145.3004  132.9988  161.4647 H   0  0  0  0  0  0  0  0  0  0  0  0
  145.1441  134.7982  164.1216 H   0  0  0  0  0  0  0  0  0  0  0  0
  144.0644  135.0587  161.2163 H   0  0  0  0  0  0  0  0  0  0  0  0
  143.1290  134.5145  162.7032 H   0  0  0  0  0  0  0  0  0  0  0  0
  143.6158  136.7248  163.8103 H   0  0  0  0  0  0  0  0  0  0  0  0
  144.5472  137.2595  162.3172 H   0  0  0  0  0  0  0  0  0  0  0  0
  149.9934  137.0814  159.5106 H   0  0  0  0  0  0  0  0  0  0  0  0
  1  2  1  0  0  0  0
  1 22  1  0  0  0  0
  1 23  1  0  0  0  0
  1 24  1  0  0  0  0
  2  3  2  0  0  0  0
  2  4  2  0  0  0  0
  2  5  1  0  0  0  0
  5 21  1  0  0  0  0
  5  6  2  0  0  0  0
  6  7  1  0  0  0  0
  6 25  1  0  0  0  0
  7  8  2  0  0  0  0
  7 26  1  0  0  0  0
  8  9  1  0  0  0  0
  8 20  1  0  0  0  0
  9 10  1  0  0  0  0
  9 27  1  0  0  0  0
 10 11  2  0  0  0  0
 10 12  1  0  0  0  0
 12 13  1  0  0  0  0
 12 28  1  0  0  0  0
 13 14  1  0  0  0  0
 13 17  1  0  0  0  0
 13 29  1  0  0  0  0
 14 16  1  0  0  0  0
 14 15  1  0  0  0  0
 14 30  1  0  0  0  0
 15 16  1  0  0  0  0
 15 31  1  0  0  0  0
 15 32  1  0  0  0  0
 16 33  1  0  0  0  0
 16 34  1  0  0  0  0
 17 19  1  0  0  0  0
 17 18  1  0  0  0  0
 17 35  1  0  0  0  0
 18 19  1  0  0  0  0
 18 36  1  0  0  0  0
 18 37  1  0  0  0  0
 19 38  1  0  0  0  0
 19 39  1  0  0  0  0
 20 21  2  0  0  0  0
 20 40  1  0  0  0  0
M  END
> <s_m_source_file>
AV-unprocessed.smi

> <i_m_source_file_index>
627

> <i_lp_mmshare_version>
43012

> <i_f3d_flags>
0

> <s_epik_input>
W0NIM11TKD1PKSg9TyljMVtjSF1bY0hdYyhbY0hdbjEpW05IXUMoPU8pW05IXVtDSF0oW0NIXTJbQ0gyXVtDSDJdMilbQ0hdM1tDSDJdW0NIMl0z

> <s_epik_cmdline>
J2VwaWtfcHl0aG9uJywgJy1waCcsICc3LjAnLCAnLXRuJywgJzgnLCAnLW1hJywgJzIwMCcsICctbWV0YWxfYmluZGluZycsICctaW1hZScsICc8aW5maWxlLm1hZT4nLCAnLW9tYWUnLCAnPG91dGZpbGUubWFlPic=

> <r_lp_tautomer_probability>
1

> <r_epik_Ionization_Penalty>
4.12334e-05

> <r_epik_Ionization_Penalty_Charging>
0

> <r_epik_Ionization_Penalty_Neutral>
4.12334e-05

> <r_epik_State_Penalty>
-0

> <r_epik_Charging_Adjusted_Penalty>
0

> <i_epik_Tot_Q>
0

> <i_epik_Tot_abs_Q>
0

> <r_epik_Metal_State_Penalty>
-0

> <b_epik_Metal_Only>
0

> <s_lp_Force_Field>
OPLS_2005

> <r_lp_Energy>
25.9195

> <b_lp_Chiralities_Consistent>
1

> <s_lp_Variant>
AV-unprocessed.smi:627-1

> <Gold.Version>
5.8.1

> <Gold.Id.Protein>
6NUR|6NUR_protein|mol2

> <Gold.PLP.Fitness>
39.8653

> <Gold.PLP.PLP>
-32.5262

> <Gold.PLP.part.hbond>
-3.1279

> <Gold.PLP.part.metal>
0.0000

> <Gold.PLP.part.buried>
-5.5781

> <Gold.PLP.part.nonpolar>
-23.9384

> <Gold.PLP.part.repulsive>
0.2713

> <Gold.PLP.ligand.clash>
0.0000

> <Gold.PLP.ligand.torsion>
2.9056

> <Gold.PLP.Chemscore.Hbond>
3.0000

> <Gold.PLP.Chemscore.CHOScore>
0.0000

> <Gold.PLP.Chemscore.Metal>
0.0000

> <Gold.Chemscore.Hbonds>
donor molecule, donor type, donor heavy atom, donor atom, acceptor molecule, acceptor atom, score
      P1  H  6931  6943       L1    11  1.00
      P1  H  7989  7998       L1     3  1.00
      P1  H  7997  8010       L1     4  1.00

> <Gold.PLP.Chemscore.Internal.Correction>
4.1504

> <Gold.Rescore>
     Score         DG    S(hbond)    S(metal)    S(lipo)     H(rot)  DE(clash)    DE(int)     intcor
     15.15     -19.35       2.98        0.00      64.12       1.40       0.02       4.18       ----

> <Gold.Chemscore.Fitness>
15.1501

> <Gold.Chemscore.DG>
-19.3480

> <Gold.Chemscore.ZeroCoef>
-5.4800

> <Gold.Chemscore.Hbond>
2.9758

> <Gold.Chemscore.Metal>
0.0000

> <Gold.Chemscore.Lipo>
64.1207

> <Gold.Chemscore.Internal_Hbond>
0.0000

> <Gold.Chemscore.DEClash>
0.0167

> <Gold.Chemscore.DEInternal>
4.1812

> <Gold.Chemscore.Rot>
1.3958

> <Gold.Chemscore.Internal.Correction>
   9.000000E+99

> <Gold.Chemscore.Hbonds>
donor molecule, donor type, donor heavy atom, donor atom, acceptor molecule, acceptor atom, score
      P1  H  6931  6943       L1    11  0.90
      P1  H  7989  7998       L1     3  0.99
      P1  H  7997  8010       L1     4  1.00

> <Gold.Chemscore.Hbond.Weighted>
-9.9392

> <Gold.Chemscore.Metal.Weighted>
-0.0000

> <Gold.Chemscore.Lipo.Weighted>
-7.5021

> <Gold.Chemscore.Internal_Hbond.Weighted>
0.0000

> <Gold.Chemscore.DEClash.Weighted>
0.0167

> <Gold.Chemscore.DEInternal.Weighted>
4.1812

> <Gold.Chemscore.Rot.Weighted>
3.5733

> <Gold.Chemscore.Internal.Correction.Weighted>
   9.000000E+99

> <Gold.Protein.RotatedTorsions>
[ 6907 6896 6895 6894 ] final -167.57 input  -60.11 | X-H torsion
[ 7974 7965 7964 7962 ] final   54.25 input  175.53 | X-H torsion
[ 8008 7997 7996 7995 ] final   73.83 input   59.86 | X-H torsion
[ 10167 10162 10161 10158 ] final   36.36 input  -65.29 | X-H torsion
[ 10718 10713 10712 10709 ] final   74.69 input   66.30 | X-H torsion
[ 10763 10752 10751 10750 ] final   33.70 input  -60.55 | X-H torsion
[ 11005 11000 10999 10996 ] final   42.76 input  -57.11 | X-H torsion

> <Gold.Protein.ActiveResidues>
 VAL166  LYS551  ARG553  GLY616  TRP617  ASP618  TYR619  PRO620  LYS621  CYS622 
 ASP623  PHE694  ASN695  SER759  ASP760  ASP761  ALA762  ILE779  LEU786  VAL792 
 PHE793  MET794  SER795  GLU796  ALA797  LYS798  CYS799  TRP800  GLU811  SER814 

> <Gold.Protein.RotatedAtoms>
  151.4616  133.3591  159.2809 H   0  0  0  0  0  0  0  0  0  0  0  0  # atno 6907 bound_to 6896
  150.9021  134.8436  159.7378 H   0  0  0  0  0  0  0  0  0  0  0  0  # atno 6908 bound_to 6896
  152.4885  134.4538  159.9635 H   0  0  0  0  0  0  0  0  0  0  0  0  # atno 6909 bound_to 6896
  145.9628  139.4075  143.0238 H   0  0  0  0  0  0  0  0  0  0  0  0  # atno 7974 bound_to 7965
  155.7894  140.3479  155.5341 H   0  0  0  0  0  0  0  0  0  0  0  0  # atno 8008 bound_to 7997
  155.8649  140.0977  157.1609 H   0  0  0  0  0  0  0  0  0  0  0  0  # atno 8009 bound_to 7997
  154.4014  140.1351  156.3993 H   0  0  0  0  0  0  0  0  0  0  0  0  # atno 8010 bound_to 7997
  140.4135  144.1560  150.6141 H   0  0  0  0  0  0  0  0  0  0  0  0  # atno 10167 bound_to 10162
  157.6603  130.9690  150.1246 H   0  0  0  0  0  0  0  0  0  0  0  0  # atno 10718 bound_to 10713
  153.0199  135.6380  154.1553 H   0  0  0  0  0  0  0  0  0  0  0  0  # atno 10763 bound_to 10752
  154.1289  135.2842  155.3192 H   0  0  0  0  0  0  0  0  0  0  0  0  # atno 10764 bound_to 10752
  154.6209  135.5525  153.7636 H   0  0  0  0  0  0  0  0  0  0  0  0  # atno 10765 bound_to 10752
  140.1709  134.4224  155.8258 H   0  0  0  0  0  0  0  0  0  0  0  0  # atno 11005 bound_to 11000
  145.8016  140.9768  143.0996 LP  0  0  0  0  0  0  0  0  0  0  0  0  # atno 17320 bound_to 7965
  144.6819  139.9808  143.7483 LP  0  0  0  0  0  0  0  0  0  0  0  0  # atno 17321 bound_to 7965
  140.4612  143.2448  151.9217 LP  0  0  0  0  0  0  0  0  0  0  0  0  # atno 17342 bound_to 10162
  139.4782  144.5465  151.8450 LP  0  0  0  0  0  0  0  0  0  0  0  0  # atno 17343 bound_to 10162
  156.2108  130.3666  149.8672 LP  0  0  0  0  0  0  0  0  0  0  0  0  # atno 17370 bound_to 10713
  156.6551  130.8759  151.3538 LP  0  0  0  0  0  0  0  0  0  0  0  0  # atno 17371 bound_to 10713
  141.2217  133.6955  156.7761 LP  0  0  0  0  0  0  0  0  0  0  0  0  # atno 17394 bound_to 11000
  140.2379  134.8636  157.3543 LP  0  0  0  0  0  0  0  0  0  0  0  0  # atno 17395 bound_to 11000

$$$$
