AV-unprocessed.smi:560|AV-procd|sdf|2930|dock6
  -GOLD-   2262023423D 1   1.00000     0.00000
 Structure written by MMmdl.
 42 43  0  0  0  0  0  0  0  0  2 V2000
  151.3165  139.3423  157.6836 C   0  0  0  0  0  0  0  0  0  0  0  0
  150.4184  140.5776  157.4695 C   0  0  2  0  0  0  0  0  0  0  0  0
  149.9127  140.7110  156.0232 C   0  0  0  0  0  0  0  0  0  0  0  0
  150.7021  140.8155  155.0838 O   0  0  0  0  0  0  0  0  0  0  0  0
  148.5796  140.7005  155.8593 N   0  0  0  0  0  0  0  0  0  0  0  0
  147.8804  140.8461  154.5837 C   0  0  2  0  0  0  0  0  0  0  0  0
  147.0046  142.1108  154.5952 C   0  0  0  0  0  0  0  0  0  0  0  0
  145.7715  141.9531  155.5038 C   0  0  0  0  0  0  0  0  0  0  0  0
  144.9718  140.7605  155.1247 N   0  3  2  0  0  0  0  0  0  0  0  0
  143.7010  140.6635  155.8884 C   0  0  0  0  0  0  0  0  0  0  0  0
  142.9286  139.3712  155.6037 C   0  0  0  0  0  0  0  0  0  0  0  0
  142.5544  139.1584  154.3400 N   0  0  0  0  0  0  0  0  0  0  0  0
  142.6853  138.5689  156.5033 O   0  0  0  0  0  0  0  0  0  0  0  0
  145.7848  139.5165  155.1824 C   0  0  0  0  0  0  0  0  0  0  0  0
  147.0116  139.6144  154.2594 C   0  0  0  0  0  0  0  0  0  0  0  0
  151.0743  141.8080  157.8981 N   0  0  0  0  0  0  0  0  0  0  0  0
  151.1253  143.0177  157.2357 C   0  0  0  0  0  0  0  0  0  0  0  0
  151.8734  143.8707  157.9951 C   0  0  0  0  0  0  0  0  0  0  0  0
  152.2510  143.0820  159.1169 C   0  0  0  0  0  0  0  0  0  0  0  0
  151.7789  141.8480  159.0529 N   0  0  0  0  0  0  0  0  0  0  0  0
  150.7898  138.4229  157.4259 H   0  0  0  0  0  0  0  0  0  0  0  0
  151.6216  139.2604  158.7273 H   0  0  0  0  0  0  0  0  0  0  0  0
  152.2232  139.3854  157.0787 H   0  0  0  0  0  0  0  0  0  0  0  0
  149.5374  140.4475  158.1004 H   0  0  0  0  0  0  0  0  0  0  0  0
  148.0076  140.6170  156.6871 H   0  0  0  0  0  0  0  0  0  0  0  0
  148.6326  140.9635  153.8012 H   0  0  0  0  0  0  0  0  0  0  0  0
  147.5921  142.9756  154.9065 H   0  0  0  0  0  0  0  0  0  0  0  0
  146.6710  142.3228  153.5784 H   0  0  0  0  0  0  0  0  0  0  0  0
  146.0750  141.8723  156.5488 H   0  0  0  0  0  0  0  0  0  0  0  0
  145.1553  142.8493  155.4227 H   0  0  0  0  0  0  0  0  0  0  0  0
  143.8973  140.7674  156.9568 H   0  0  0  0  0  0  0  0  0  0  0  0
  143.0416  141.4864  155.6091 H   0  0  0  0  0  0  0  0  0  0  0  0
  142.0383  138.3256  154.0947 H   0  0  0  0  0  0  0  0  0  0  0  0
  142.7856  139.8377  153.6287 H   0  0  0  0  0  0  0  0  0  0  0  0
  146.0992  139.3306  156.2106 H   0  0  0  0  0  0  0  0  0  0  0  0
  145.1821  138.6594  154.8808 H   0  0  0  0  0  0  0  0  0  0  0  0
  146.6720  139.6806  153.2249 H   0  0  0  0  0  0  0  0  0  0  0  0
  147.6007  138.6987  154.3221 H   0  0  0  0  0  0  0  0  0  0  0  0
  150.6293  143.1702  156.2885 H   0  0  0  0  0  0  0  0  0  0  0  0
  152.1158  144.9010  157.7811 H   0  0  0  0  0  0  0  0  0  0  0  0
  152.8527  143.3661  159.9677 H   0  0  0  0  0  0  0  0  0  0  0  0
  144.7058  140.8922  154.1587 H   0  0  0  0  0  0  0  0  0  0  0  0
  1  2  1  0  0  0  0
  1 21  1  0  0  0  0
  1 22  1  0  0  0  0
  1 23  1  0  0  0  0
  2  3  1  0  0  0  0
  2 16  1  0  0  0  0
  2 24  1  0  0  0  0
  3  4  2  0  0  0  0
  3  5  1  0  0  0  0
  5  6  1  0  0  0  0
  5 25  1  0  0  0  0
  6 15  1  0  0  0  0
  6  7  1  0  0  0  0
  6 26  1  0  0  0  0
  7  8  1  0  0  0  0
  7 27  1  0  0  0  0
  7 28  1  0  0  0  0
  8  9  1  0  0  0  0
  8 29  1  0  0  0  0
  8 30  1  0  0  0  0
  9 10  1  0  0  0  0
  9 14  1  0  0  0  0
  9 42  1  0  0  0  0
 10 11  1  0  0  0  0
 10 31  1  0  0  0  0
 10 32  1  0  0  0  0
 11 12  1  0  0  0  0
 11 13  2  0  0  0  0
 12 33  1  0  0  0  0
 12 34  1  0  0  0  0
 14 15  1  0  0  0  0
 14 35  1  0  0  0  0
 14 36  1  0  0  0  0
 15 37  1  0  0  0  0
 15 38  1  0  0  0  0
 16 20  1  0  0  0  0
 16 17  1  0  0  0  0
 17 18  2  0  0  0  0
 17 39  1  0  0  0  0
 18 19  1  0  0  0  0
 18 40  1  0  0  0  0
 19 20  2  0  0  0  0
 19 41  1  0  0  0  0
M  CHG  1   9   1
M  END
> <s_m_source_file>
AV-unprocessed.smi

> <i_m_source_file_index>
560

> <i_lp_mmshare_version>
43012

> <i_f3d_flags>
0

> <s_epik_input>
bjFbY0hdW2NIXVtjSF1uMVtDQEhdKFtDSDNdKUMoPU8pW05IXVtDSF0yW0NIMl1bQ0gyXU4oW0NIMl1bQ0gyXTIpW0NIMl1DKD1PKVtOSDJd

> <s_epik_cmdline>
J2VwaWtfcHl0aG9uJywgJy1waCcsICc3LjAnLCAnLXRuJywgJzgnLCAnLW1hJywgJzIwMCcsICctbWV0YWxfYmluZGluZycsICctaW1hZScsICc8aW5maWxlLm1hZT4nLCAnLW9tYWUnLCAnPG91dGZpbGUubWFlPic=

> <r_lp_tautomer_probability>
1

> <r_epik_Ionization_Penalty>
1.02943

> <r_epik_Ionization_Penalty_Charging>
1.02936

> <r_epik_Ionization_Penalty_Neutral>
7.4537e-05

> <r_epik_State_Penalty>
1.08036

> <r_epik_Charging_Adjusted_Penalty>
2.10972

> <i_epik_Tot_Q>
1

> <i_epik_Tot_abs_Q>
1

> <r_epik_Metal_State_Penalty>
1.09347

> <b_epik_Metal_Only>
0

> <s_lp_Force_Field>
OPLS_2005

> <r_lp_Energy>
16.2494

> <b_lp_Chiralities_Consistent>
1

> <s_lp_Variant>
AV-unprocessed.smi:560-5

> <Gold.Version>
5.8.1

> <Gold.Id.Protein>
6NUR|6NUR_protein|mol2

> <Gold.PLP.Fitness>
41.5359

> <Gold.PLP.PLP>
-27.6389

> <Gold.PLP.part.hbond>
-2.8690

> <Gold.PLP.part.metal>
0.0000

> <Gold.PLP.part.buried>
-3.9255

> <Gold.PLP.part.nonpolar>
-22.4079

> <Gold.PLP.part.repulsive>
0.1202

> <Gold.PLP.ligand.clash>
0.0000

> <Gold.PLP.ligand.torsion>
0.3871

> <Gold.PLP.Chemscore.Hbond>
3.8480

> <Gold.PLP.Chemscore.CHOScore>
0.9990

> <Gold.PLP.Chemscore.Metal>
0.0000

> <Gold.Chemscore.Hbonds>
donor molecule, donor type, donor heavy atom, donor atom, acceptor molecule, acceptor atom, score
      L1  H     9    42       P1 10175  2.00
      L1  H    12    34       P1 10175  0.99
      P1  H  7989  7998       L1     4  0.83
      L1  C    17    39       P1  8028  1.00

> <Gold.PLP.Chemscore.Internal.Correction>
0.1301

> <Gold.Rescore>
     Score         DG    S(hbond)    S(metal)    S(lipo)     H(rot)  DE(clash)    DE(int)     intcor
     15.84     -16.24       2.92        0.00      63.70       2.52       0.03       0.37       ----

> <Gold.Chemscore.Fitness>
15.8429

> <Gold.Chemscore.DG>
-16.2393

> <Gold.Chemscore.ZeroCoef>
-5.4800

> <Gold.Chemscore.Hbond>
2.9248

> <Gold.Chemscore.Metal>
0.0000

> <Gold.Chemscore.Lipo>
63.6970

> <Gold.Chemscore.Internal_Hbond>
0.0000

> <Gold.Chemscore.DEClash>
0.0276

> <Gold.Chemscore.DEInternal>
0.3689

> <Gold.Chemscore.Rot>
2.5243

> <Gold.Chemscore.Internal.Correction>
   9.000000E+99

> <Gold.Chemscore.Hbonds>
donor molecule, donor type, donor heavy atom, donor atom, acceptor molecule, acceptor atom, score
      L1  H     9    42       P1 10175  0.90
      L1  H    12    34       P1 10175  0.91
      P1  H  7989  7998       L1     4  0.81

> <Gold.Chemscore.Hbond.Weighted>
-9.7690

> <Gold.Chemscore.Metal.Weighted>
-0.0000

> <Gold.Chemscore.Lipo.Weighted>
-7.4525

> <Gold.Chemscore.Internal_Hbond.Weighted>
0.0000

> <Gold.Chemscore.DEClash.Weighted>
0.0276

> <Gold.Chemscore.DEInternal.Weighted>
0.3689

> <Gold.Chemscore.Rot.Weighted>
6.4622

> <Gold.Chemscore.Internal.Correction.Weighted>
   9.000000E+99

> <Gold.Protein.RotatedTorsions>
[ 6907 6896 6895 6894 ] final  147.15 input  -60.11 | X-H torsion
[ 7974 7965 7964 7962 ] final  144.97 input  175.53 | X-H torsion
[ 8008 7997 7996 7995 ] final  -18.99 input   59.86 | X-H torsion
[ 10167 10162 10161 10158 ] final  168.32 input  -65.29 | X-H torsion
[ 10718 10713 10712 10709 ] final  -60.72 input   66.30 | X-H torsion
[ 10763 10752 10751 10750 ] final  109.00 input  -60.55 | X-H torsion
[ 11005 11000 10999 10996 ] final  161.63 input  -57.11 | X-H torsion

> <Gold.Protein.ActiveResidues>
 VAL166  LYS551  ARG553  GLY616  TRP617  ASP618  TYR619  PRO620  LYS621  CYS622 
 ASP623  PHE694  ASN695  SER759  ASP760  ASP761  ALA762  ILE779  LEU786  VAL792 
 PHE793  MET794  SER795  GLU796  ALA797  LYS798  CYS799  TRP800  GLU811  SER814 

> <Gold.Protein.RotatedAtoms>
  152.1585  133.4567  159.4848 H   0  0  0  0  0  0  0  0  0  0  0  0  # atno 6907 bound_to 6896
  150.6904  134.2101  159.4365 H   0  0  0  0  0  0  0  0  0  0  0  0  # atno 6908 bound_to 6896
  152.0002  134.9932  160.0615 H   0  0  0  0  0  0  0  0  0  0  0  0  # atno 6909 bound_to 6896
  144.8791  139.5727  143.5851 H   0  0  0  0  0  0  0  0  0  0  0  0  # atno 7974 bound_to 7965
  154.4867  140.2101  155.9639 H   0  0  0  0  0  0  0  0  0  0  0  0  # atno 8008 bound_to 7997
  156.1247  140.3207  155.8228 H   0  0  0  0  0  0  0  0  0  0  0  0  # atno 8009 bound_to 7997
  155.4405  140.0510  157.3001 H   0  0  0  0  0  0  0  0  0  0  0  0  # atno 8010 bound_to 7997
  139.4965  144.3827  151.9605 H   0  0  0  0  0  0  0  0  0  0  0  0  # atno 10167 bound_to 10162
  156.0971  130.4191  150.0894 H   0  0  0  0  0  0  0  0  0  0  0  0  # atno 10718 bound_to 10713
  153.4285  135.3794  155.2156 H   0  0  0  0  0  0  0  0  0  0  0  0  # atno 10763 bound_to 10752
  154.8749  135.3834  154.4296 H   0  0  0  0  0  0  0  0  0  0  0  0  # atno 10764 bound_to 10752
  153.4826  135.7088  153.5992 H   0  0  0  0  0  0  0  0  0  0  0  0  # atno 10765 bound_to 10752
  140.2177  134.8219  157.3188 H   0  0  0  0  0  0  0  0  0  0  0  0  # atno 11005 bound_to 11000
  146.2982  139.7344  142.9111 LP  0  0  0  0  0  0  0  0  0  0  0  0  # atno 17320 bound_to 7965
  145.3988  141.0382  143.3082 LP  0  0  0  0  0  0  0  0  0  0  0  0  # atno 17321 bound_to 7965
  140.3263  144.3369  150.5997 LP  0  0  0  0  0  0  0  0  0  0  0  0  # atno 17342 bound_to 10162
  140.5681  143.2184  151.7647 LP  0  0  0  0  0  0  0  0  0  0  0  0  # atno 17343 bound_to 10162
  156.8890  130.9582  151.3590 LP  0  0  0  0  0  0  0  0  0  0  0  0  # atno 17370 bound_to 10713
  157.6134  130.8600  149.8988 LP  0  0  0  0  0  0  0  0  0  0  0  0  # atno 17371 bound_to 10713
  140.1882  134.4404  155.7731 LP  0  0  0  0  0  0  0  0  0  0  0  0  # atno 17394 bound_to 11000
  141.2224  133.7015  156.7983 LP  0  0  0  0  0  0  0  0  0  0  0  0  # atno 17395 bound_to 11000

$$$$
