AV-unprocessed.smi:2613|AV-procd|sdf|10212|dock6
  -GOLD-   2272014223D 1   1.00000     0.00000
 Structure written by MMmdl.
 27 28  0  0  0  0  0  0  0  0  2 V2000
  153.4097  142.3480  161.7587 C   0  0  0  0  0  0  0  0  0  0  0  0
  152.8372  142.0884  160.4019 C   0  0  0  0  0  0  0  0  0  0  0  0
  152.8172  140.8719  159.8577 N   0  0  0  0  0  0  0  0  0  0  0  0
  152.2214  141.0988  158.6311 C   0  0  0  0  0  0  0  0  0  0  0  0
  151.9177  140.2064  157.5792 C   0  0  0  0  0  0  0  0  0  0  0  0
  151.3005  140.6650  156.3897 C   0  0  0  0  0  0  0  0  0  0  0  0
  150.9867  139.7014  155.2767 C   0  0  0  0  0  0  0  0  0  0  0  0
  151.3399  138.5066  155.3933 O   0  0  0  0  0  0  0  0  0  0  0  0
  150.3809  140.1230  154.2663 O   0  5  0  0  0  0  0  0  0  0  0  0
  150.9837  142.0391  156.2591 C   0  0  0  0  0  0  0  0  0  0  0  0
  151.2775  142.9457  157.2957 C   0  0  0  0  0  0  0  0  0  0  0  0
  151.8910  142.4728  158.4688 C   0  0  0  0  0  0  0  0  0  0  0  0
  152.3082  143.0821  159.6476 N   0  0  0  0  0  0  0  0  0  0  0  0
  152.1991  144.4948  159.9725 C   0  0  0  0  0  0  0  0  0  0  0  0
  150.7332  144.9234  160.1216 C   0  0  0  0  0  0  0  0  0  0  0  0
  150.2039  144.4037  161.3217 O   0  0  0  0  0  0  0  0  0  0  0  0
  153.8718  141.4447  162.1582 H   0  0  0  0  0  0  0  0  0  0  0  0
  152.6232  142.6647  162.4439 H   0  0  0  0  0  0  0  0  0  0  0  0
  154.1700  143.1275  161.7069 H   0  0  0  0  0  0  0  0  0  0  0  0
  152.1670  139.1619  157.6968 H   0  0  0  0  0  0  0  0  0  0  0  0
  150.5120  142.4099  155.3604 H   0  0  0  0  0  0  0  0  0  0  0  0
  151.0345  143.9923  157.1878 H   0  0  0  0  0  0  0  0  0  0  0  0
  152.7430  144.6787  160.9000 H   0  0  0  0  0  0  0  0  0  0  0  0
  152.6976  145.0836  159.2020 H   0  0  0  0  0  0  0  0  0  0  0  0
  150.6463  146.0100  160.1363 H   0  0  0  0  0  0  0  0  0  0  0  0
  150.1383  144.5594  159.2832 H   0  0  0  0  0  0  0  0  0  0  0  0
  150.7241  143.6587  161.5817 H   0  0  0  0  0  0  0  0  0  0  0  0
  1  2  1  0  0  0  0
  1 17  1  0  0  0  0
  1 18  1  0  0  0  0
  1 19  1  0  0  0  0
  2 13  1  0  0  0  0
  2  3  2  0  0  0  0
  3  4  1  0  0  0  0
  4 12  2  0  0  0  0
  4  5  1  0  0  0  0
  5  6  2  0  0  0  0
  5 20  1  0  0  0  0
  6  7  1  0  0  0  0
  6 10  1  0  0  0  0
  7  8  2  0  0  0  0
  7  9  1  0  0  0  0
 10 11  2  0  0  0  0
 10 21  1  0  0  0  0
 11 12  1  0  0  0  0
 11 22  1  0  0  0  0
 12 13  1  0  0  0  0
 13 14  1  0  0  0  0
 14 15  1  0  0  0  0
 14 23  1  0  0  0  0
 14 24  1  0  0  0  0
 15 16  1  0  0  0  0
 15 25  1  0  0  0  0
 15 26  1  0  0  0  0
 16 27  1  0  0  0  0
M  CHG  1   9  -1
M  END
> <s_m_source_file>
AV-unprocessed.smi

> <i_m_source_file_index>
2613

> <i_lp_mmshare_version>
43012

> <i_f3d_flags>
0

> <s_epik_input>
W09IXVtDSDJdW0NIMl1uKGMobjEpW0NIM10pYyhjMTIpW2NIXVtjSF1jKFtjSF0yKUMoPU8pW09IXQ==

> <s_epik_cmdline>
J2VwaWtfcHl0aG9uJywgJy1waCcsICc3LjAnLCAnLXRuJywgJzgnLCAnLW1hJywgJzIwMCcsICctbWV0YWxfYmluZGluZycsICctaW1hZScsICc8aW5maWxlLm1hZT4nLCAnLW9tYWUnLCAnPG91dGZpbGUubWFlPic=

> <r_epik_Ionization_Penalty>
0.138858

> <r_epik_Ionization_Penalty_Charging>
0.000449576

> <r_epik_Ionization_Penalty_Neutral>
0.138408

> <r_epik_State_Penalty>
0.127739

> <r_epik_Charging_Adjusted_Penalty>
0.128189

> <i_epik_Tot_Q>
-1

> <i_epik_Tot_abs_Q>
1

> <r_epik_Metal_State_Penalty>
0.000142538

> <b_epik_Metal_Only>
0

> <s_lp_Force_Field>
OPLS_2005

> <r_lp_Energy>
7.17367

> <b_lp_Chiralities_Consistent>
1

> <s_lp_Variant>
AV-unprocessed.smi:2613-1

> <Gold.Version>
5.8.1

> <Gold.Id.Protein>
6NUR|6NUR_protein|mol2

> <Gold.PLP.Fitness>
43.5762

> <Gold.PLP.PLP>
-40.7410

> <Gold.PLP.part.hbond>
-3.5138

> <Gold.PLP.part.metal>
0.0000

> <Gold.PLP.part.buried>
-6.1020

> <Gold.PLP.part.nonpolar>
-30.0645

> <Gold.PLP.part.repulsive>
0.1535

> <Gold.PLP.ligand.clash>
0.0000

> <Gold.PLP.ligand.torsion>
0.0834

> <Gold.PLP.Chemscore.Hbond>
1.0000

> <Gold.PLP.Chemscore.CHOScore>
0.0000

> <Gold.PLP.Chemscore.Metal>
0.0000

> <Gold.Chemscore.Hbonds>
donor molecule, donor type, donor heavy atom, donor atom, acceptor molecule, acceptor atom, score
      P1  H  7989  7998       L1     9  1.00

> <Gold.PLP.Chemscore.Internal.Correction>
0.0019

> <Gold.Rescore>
     Score         DG    S(hbond)    S(metal)    S(lipo)     H(rot)  DE(clash)    DE(int)     intcor
     13.43     -13.49       0.96        0.00      80.89       1.83       0.03       0.03       ----

> <Gold.Chemscore.Fitness>
13.4296

> <Gold.Chemscore.DG>
-13.4889

> <Gold.Chemscore.ZeroCoef>
-5.4800

> <Gold.Chemscore.Hbond>
0.9641

> <Gold.Chemscore.Metal>
0.0000

> <Gold.Chemscore.Lipo>
80.8861

> <Gold.Chemscore.Internal_Hbond>
0.0000

> <Gold.Chemscore.DEClash>
0.0279

> <Gold.Chemscore.DEInternal>
0.0314

> <Gold.Chemscore.Rot>
1.8262

> <Gold.Chemscore.Internal.Correction>
   9.000000E+99

> <Gold.Chemscore.Hbonds>
donor molecule, donor type, donor heavy atom, donor atom, acceptor molecule, acceptor atom, score
      P1  H  7989  7998       L1     9  0.25

> <Gold.Chemscore.Hbond.Weighted>
-3.2202

> <Gold.Chemscore.Metal.Weighted>
-0.0000

> <Gold.Chemscore.Lipo.Weighted>
-9.4637

> <Gold.Chemscore.Internal_Hbond.Weighted>
0.0000

> <Gold.Chemscore.DEClash.Weighted>
0.0279

> <Gold.Chemscore.DEInternal.Weighted>
0.0314

> <Gold.Chemscore.Rot.Weighted>
4.6750

> <Gold.Chemscore.Internal.Correction.Weighted>
   9.000000E+99

> <Gold.Protein.RotatedTorsions>
[ 6907 6896 6895 6894 ] final   -2.30 input  -60.11 | X-H torsion
[ 7974 7965 7964 7962 ] final -135.01 input  175.53 | X-H torsion
[ 8008 7997 7996 7995 ] final  -13.36 input   59.86 | X-H torsion
[ 10167 10162 10161 10158 ] final   74.94 input  -65.29 | X-H torsion
[ 10718 10713 10712 10709 ] final   61.41 input   66.30 | X-H torsion
[ 10763 10752 10751 10750 ] final   18.70 input  -60.55 | X-H torsion
[ 11005 11000 10999 10996 ] final   31.77 input  -57.11 | X-H torsion

> <Gold.Protein.ActiveResidues>
 VAL166  LYS551  ARG553  GLY616  TRP617  ASP618  TYR619  PRO620  LYS621  CYS622 
 ASP623  PHE694  ASN695  SER759  ASP760  ASP761  ALA762  ILE779  LEU786  VAL792 
 PHE793  MET794  SER795  GLU796  ALA797  LYS798  CYS799  TRP800  GLU811  SER814 

> <Gold.Protein.RotatedAtoms>
  151.5322  135.1068  159.9905 H   0  0  0  0  0  0  0  0  0  0  0  0  # atno 6907 bound_to 6896
  152.4573  133.7746  159.6828 H   0  0  0  0  0  0  0  0  0  0  0  0  # atno 6908 bound_to 6896
  150.8522  133.7704  159.3046 H   0  0  0  0  0  0  0  0  0  0  0  0  # atno 6909 bound_to 6896
  144.9052  140.6823  143.5060 H   0  0  0  0  0  0  0  0  0  0  0  0  # atno 7974 bound_to 7965
  154.5299  140.2252  155.8822 H   0  0  0  0  0  0  0  0  0  0  0  0  # atno 8008 bound_to 7997
  156.1753  140.3112  155.9011 H   0  0  0  0  0  0  0  0  0  0  0  0  # atno 8009 bound_to 7997
  155.3473  140.0453  157.3036 H   0  0  0  0  0  0  0  0  0  0  0  0  # atno 8010 bound_to 7997
  140.0083  144.5634  150.7680 H   0  0  0  0  0  0  0  0  0  0  0  0  # atno 10167 bound_to 10162
  157.5826  130.8993  149.9458 H   0  0  0  0  0  0  0  0  0  0  0  0  # atno 10718 bound_to 10713
  153.1226  135.6722  153.9310 H   0  0  0  0  0  0  0  0  0  0  0  0  # atno 10763 bound_to 10752
  153.8820  135.3057  155.3447 H   0  0  0  0  0  0  0  0  0  0  0  0  # atno 10764 bound_to 10752
  154.7636  135.4975  153.9591 H   0  0  0  0  0  0  0  0  0  0  0  0  # atno 10765 bound_to 10752
  140.2804  134.2979  155.7802 H   0  0  0  0  0  0  0  0  0  0  0  0  # atno 11005 bound_to 11000
  145.3548  139.1697  143.4415 LP  0  0  0  0  0  0  0  0  0  0  0  0  # atno 17320 bound_to 7965
  146.3130  140.3604  142.8664 LP  0  0  0  0  0  0  0  0  0  0  0  0  # atno 17321 bound_to 7965
  140.7391  143.2787  151.3662 LP  0  0  0  0  0  0  0  0  0  0  0  0  # atno 17342 bound_to 10162
  139.6223  144.0883  152.2402 LP  0  0  0  0  0  0  0  0  0  0  0  0  # atno 17343 bound_to 10162
  156.0873  130.3667  150.0463 LP  0  0  0  0  0  0  0  0  0  0  0  0  # atno 17370 bound_to 10713
  156.8600  130.9488  151.3619 LP  0  0  0  0  0  0  0  0  0  0  0  0  # atno 17371 bound_to 10713
  141.2163  133.7522  156.9472 LP  0  0  0  0  0  0  0  0  0  0  0  0  # atno 17394 bound_to 11000
  140.1289  134.9369  157.2308 LP  0  0  0  0  0  0  0  0  0  0  0  0  # atno 17395 bound_to 11000

$$$$
