AV-unprocessed.smi:3287|AV-procd|sdf|12593|dock2
  -GOLD-   2272018513D 1   1.00000     0.00000
 Structure written by MMmdl.
 43 44  0  0  0  0  0  0  0  0  2 V2000
  151.9026  144.9935  159.6592 C   0  0  0  0  0  0  0  0  0  0  0  0
  151.4176  143.6914  159.0011 C   0  0  1  0  0  0  0  0  0  0  0  0
  151.5147  143.7548  157.4643 C   0  0  0  0  0  0  0  0  0  0  0  0
  150.9492  142.4842  156.8092 C   0  0  0  0  0  0  0  0  0  0  0  0
  151.6303  141.2092  157.3484 C   0  0  2  0  0  0  0  0  0  0  0  0
  151.0239  139.9870  156.7758 N   0  3  0  0  0  0  0  0  0  0  0  0
  151.0890  139.8774  155.3025 C   0  0  0  0  0  0  0  0  0  0  0  0
  149.9520  138.9974  154.7543 C   0  0  2  0  0  0  0  0  0  0  0  0
  150.4287  138.2793  153.6325 O   0  0  0  0  0  0  0  0  0  0  0  0
  148.7303  139.8337  154.4093 C   0  0  0  0  0  0  0  0  0  0  0  0
  148.7131  141.2189  154.6757 C   0  0  0  0  0  0  0  0  0  0  0  0
  147.5627  141.9569  154.3321 C   0  0  0  0  0  0  0  0  0  0  0  0
  146.4725  141.4055  153.7573 N   0  0  0  0  0  0  0  0  0  0  0  0
  146.4942  140.0800  153.5025 C   0  0  0  0  0  0  0  0  0  0  0  0
  147.5938  139.2524  153.8060 C   0  0  0  0  0  0  0  0  0  0  0  0
  151.5328  141.1619  158.8864 C   0  0  0  0  0  0  0  0  0  0  0  0
  152.1103  142.4235  159.5623 C   0  0  1  0  0  0  0  0  0  0  0  0
  153.6504  142.4578  159.4873 C   0  0  0  0  0  0  0  0  0  0  0  0
  152.9360  145.2196  159.3963 H   0  0  0  0  0  0  0  0  0  0  0  0
  151.8372  144.9340  160.7459 H   0  0  0  0  0  0  0  0  0  0  0  0
  151.2940  145.8402  159.3405 H   0  0  0  0  0  0  0  0  0  0  0  0
  150.3579  143.6045  159.2470 H   0  0  0  0  0  0  0  0  0  0  0  0
  150.9675  144.6230  157.0953 H   0  0  0  0  0  0  0  0  0  0  0  0
  152.5509  143.8982  157.1573 H   0  0  0  0  0  0  0  0  0  0  0  0
  149.8753  142.4328  156.9943 H   0  0  0  0  0  0  0  0  0  0  0  0
  151.0723  142.5604  155.7291 H   0  0  0  0  0  0  0  0  0  0  0  0
  152.6850  141.2207  157.0708 H   0  0  0  0  0  0  0  0  0  0  0  0
  151.5227  139.1922  157.1503 H   0  0  0  0  0  0  0  0  0  0  0  0
  151.0137  140.8738  154.8667 H   0  0  0  0  0  0  0  0  0  0  0  0
  152.0578  139.4713  155.0077 H   0  0  0  0  0  0  0  0  0  0  0  0
  149.6662  138.2658  155.5116 H   0  0  0  0  0  0  0  0  0  0  0  0
  150.1238  138.7116  152.8488 H   0  0  0  0  0  0  0  0  0  0  0  0
  149.5593  141.7109  155.1327 H   0  0  0  0  0  0  0  0  0  0  0  0
  147.5182  143.0192  154.5224 H   0  0  0  0  0  0  0  0  0  0  0  0
  145.6100  139.6661  153.0408 H   0  0  0  0  0  0  0  0  0  0  0  0
  147.5607  138.1971  153.5780 H   0  0  0  0  0  0  0  0  0  0  0  0
  150.4860  141.0556  159.1760 H   0  0  0  0  0  0  0  0  0  0  0  0
  152.0396  140.2737  159.2661 H   0  0  0  0  0  0  0  0  0  0  0  0
  151.8585  142.3569  160.6217 H   0  0  0  0  0  0  0  0  0  0  0  0
  154.0118  142.5977  158.4691 H   0  0  0  0  0  0  0  0  0  0  0  0
  154.0786  141.5275  159.8614 H   0  0  0  0  0  0  0  0  0  0  0  0
  154.0615  143.2621  160.0970 H   0  0  0  0  0  0  0  0  0  0  0  0
  150.0607  139.9274  157.0737 H   0  0  0  0  0  0  0  0  0  0  0  0
  1  2  1  0  0  0  0
  1 19  1  0  0  0  0
  1 20  1  0  0  0  0
  1 21  1  0  0  0  0
  2 17  1  0  0  0  0
  2  3  1  0  0  0  0
  2 22  1  0  0  0  0
  3  4  1  0  0  0  0
  3 23  1  0  0  0  0
  3 24  1  0  0  0  0
  4  5  1  0  0  0  0
  4 25  1  0  0  0  0
  4 26  1  0  0  0  0
  5  6  1  0  0  0  0
  5 16  1  0  0  0  0
  5 27  1  0  0  0  0
  6  7  1  0  0  0  0
  6 28  1  0  0  0  0
  6 43  1  0  0  0  0
  7  8  1  0  0  0  0
  7 29  1  0  0  0  0
  7 30  1  0  0  0  0
  8  9  1  0  0  0  0
  8 10  1  0  0  0  0
  8 31  1  0  0  0  0
  9 32  1  0  0  0  0
 10 15  1  0  0  0  0
 10 11  2  0  0  0  0
 11 12  1  0  0  0  0
 11 33  1  0  0  0  0
 12 13  2  0  0  0  0
 12 34  1  0  0  0  0
 13 14  1  0  0  0  0
 14 15  2  0  0  0  0
 14 35  1  0  0  0  0
 15 36  1  0  0  0  0
 16 17  1  0  0  0  0
 16 37  1  0  0  0  0
 16 38  1  0  0  0  0
 17 18  1  0  0  0  0
 17 39  1  0  0  0  0
 18 40  1  0  0  0  0
 18 41  1  0  0  0  0
 18 42  1  0  0  0  0
M  CHG  1   6   1
M  END
> <s_m_source_file>
AV-unprocessed.smi

> <i_m_source_file_index>
3287

> <i_lp_mmshare_version>
43012

> <i_f3d_flags>
0

> <s_epik_input>
W0NIM11bQ0BASF0xW0NIMl1bQ0gyXVtDQEhdKFtDSDJdW0NASF0xW0NIM10pW05IXVtDSDJdW0NASF0oW09IXSljMltjSF1bY0hdbltjSF1bY0hdMg==

> <s_epik_cmdline>
J2VwaWtfcHl0aG9uJywgJy1waCcsICc3LjAnLCAnLXRuJywgJzgnLCAnLW1hJywgJzIwMCcsICctbWV0YWxfYmluZGluZycsICctaW1hZScsICc8aW5maWxlLm1hZT4nLCAnLW9tYWUnLCAnPG91dGZpbGUubWFlPic=

> <r_lp_tautomer_probability>
1

> <r_epik_Ionization_Penalty>
0.00537262

> <r_epik_Ionization_Penalty_Charging>
0.00321624

> <r_epik_Ionization_Penalty_Neutral>
0.00215638

> <r_epik_State_Penalty>
-0

> <r_epik_Charging_Adjusted_Penalty>
0.00321624

> <i_epik_Tot_Q>
1

> <i_epik_Tot_abs_Q>
1

> <r_epik_Metal_State_Penalty>
-0

> <b_epik_Metal_Only>
0

> <s_lp_Force_Field>
OPLS_2005

> <r_lp_Energy>
18.3798

> <b_lp_Chiralities_Consistent>
1

> <s_lp_Variant>
AV-unprocessed.smi:3287-4

> <Gold.Version>
5.8.1

> <Gold.Id.Protein>
6NUR|6NUR_protein|mol2

> <Gold.PLP.Fitness>
47.6151

> <Gold.PLP.PLP>
-39.8790

> <Gold.PLP.part.hbond>
-2.2238

> <Gold.PLP.part.metal>
0.0000

> <Gold.PLP.part.buried>
2.5815

> <Gold.PLP.part.nonpolar>
-38.9034

> <Gold.PLP.part.repulsive>
0.2802

> <Gold.PLP.ligand.clash>
0.0000

> <Gold.PLP.ligand.torsion>
0.6286

> <Gold.PLP.Chemscore.Hbond>
0.9913

> <Gold.PLP.Chemscore.CHOScore>
2.0000

> <Gold.PLP.Chemscore.Metal>
0.0000

> <Gold.Chemscore.Hbonds>
donor molecule, donor type, donor heavy atom, donor atom, acceptor molecule, acceptor atom, score
      L1  H     9    32       P1  7957  0.60
      L1  C    12    34       P1  8028  1.00
      L1  C    14    35       P1 10175  1.00

> <Gold.PLP.Chemscore.Internal.Correction>
0.0196

> <Gold.Rescore>
     Score         DG    S(hbond)    S(metal)    S(lipo)     H(rot)  DE(clash)    DE(int)     intcor
     16.06     -17.09       0.89        0.00     115.51       1.90       0.18       0.86       ----

> <Gold.Chemscore.Fitness>
16.0593

> <Gold.Chemscore.DG>
-17.0924

> <Gold.Chemscore.ZeroCoef>
-5.4800

> <Gold.Chemscore.Hbond>
0.8894

> <Gold.Chemscore.Metal>
0.0000

> <Gold.Chemscore.Lipo>
115.5105

> <Gold.Chemscore.Internal_Hbond>
0.0000

> <Gold.Chemscore.DEClash>
0.1764

> <Gold.Chemscore.DEInternal>
0.8567

> <Gold.Chemscore.Rot>
1.9035

> <Gold.Chemscore.Internal.Correction>
   9.000000E+99

> <Gold.Chemscore.Hbonds>
donor molecule, donor type, donor heavy atom, donor atom, acceptor molecule, acceptor atom, score
      L1  H     9    32       P1  7957  0.30

> <Gold.Chemscore.Hbond.Weighted>
-2.9705

> <Gold.Chemscore.Metal.Weighted>
-0.0000

> <Gold.Chemscore.Lipo.Weighted>
-13.5147

> <Gold.Chemscore.Internal_Hbond.Weighted>
0.0000

> <Gold.Chemscore.DEClash.Weighted>
0.1764

> <Gold.Chemscore.DEInternal.Weighted>
0.8567

> <Gold.Chemscore.Rot.Weighted>
4.8729

> <Gold.Chemscore.Internal.Correction.Weighted>
   9.000000E+99

> <Gold.Protein.RotatedTorsions>
[ 6907 6896 6895 6894 ] final  -77.59 input  -60.11 | X-H torsion
[ 7974 7965 7964 7962 ] final   20.95 input  175.53 | X-H torsion
[ 8008 7997 7996 7995 ] final  169.78 input   59.86 | X-H torsion
[ 10167 10162 10161 10158 ] final   46.01 input  -65.29 | X-H torsion
[ 10718 10713 10712 10709 ] final  123.73 input   66.30 | X-H torsion
[ 10763 10752 10751 10750 ] final  -71.23 input  -60.55 | X-H torsion
[ 11005 11000 10999 10996 ] final  157.97 input  -57.11 | X-H torsion

> <Gold.Protein.ActiveResidues>
 VAL166  LYS551  ARG553  GLY616  TRP617  ASP618  TYR619  PRO620  LYS621  CYS622 
 ASP623  PHE694  ASN695  SER759  ASP760  ASP761  ALA762  ILE779  LEU786  VAL792 
 PHE793  MET794  SER795  GLU796  ALA797  LYS798  CYS799  TRP800  GLU811  SER814 

> <Gold.Protein.RotatedAtoms>
  150.6995  134.4400  159.5287 H   0  0  0  0  0  0  0  0  0  0  0  0  # atno 6907 bound_to 6896
  152.2111  134.8497  160.0506 H   0  0  0  0  0  0  0  0  0  0  0  0  # atno 6908 bound_to 6896
  151.9382  133.3595  159.3992 H   0  0  0  0  0  0  0  0  0  0  0  0  # atno 6909 bound_to 6896
  146.2091  139.8097  142.8703 H   0  0  0  0  0  0  0  0  0  0  0  0  # atno 7974 bound_to 7965
  156.1426  140.1555  156.8897 H   0  0  0  0  0  0  0  0  0  0  0  0  # atno 8008 bound_to 7997
  154.5000  140.0828  156.7817 H   0  0  0  0  0  0  0  0  0  0  0  0  # atno 8009 bound_to 7997
  155.4049  140.3416  155.4262 H   0  0  0  0  0  0  0  0  0  0  0  0  # atno 8010 bound_to 7997
  140.3183  144.2736  150.6187 H   0  0  0  0  0  0  0  0  0  0  0  0  # atno 10167 bound_to 10162
  157.5641  131.1088  150.8486 H   0  0  0  0  0  0  0  0  0  0  0  0  # atno 10718 bound_to 10713
  154.4289  135.5969  153.6056 H   0  0  0  0  0  0  0  0  0  0  0  0  # atno 10763 bound_to 10752
  152.9798  135.5970  154.3864 H   0  0  0  0  0  0  0  0  0  0  0  0  # atno 10764 bound_to 10752
  154.3699  135.2841  155.2251 H   0  0  0  0  0  0  0  0  0  0  0  0  # atno 10765 bound_to 10752
  140.1820  134.8469  157.2814 H   0  0  0  0  0  0  0  0  0  0  0  0  # atno 11005 bound_to 11000
  145.3209  141.0243  143.3501 LP  0  0  0  0  0  0  0  0  0  0  0  0  # atno 17320 bound_to 7965
  144.8867  139.4829  143.6697 LP  0  0  0  0  0  0  0  0  0  0  0  0  # atno 17321 bound_to 7965
  140.5506  143.2207  151.7933 LP  0  0  0  0  0  0  0  0  0  0  0  0  # atno 17342 bound_to 10162
  139.4879  144.4481  151.9686 LP  0  0  0  0  0  0  0  0  0  0  0  0  # atno 17343 bound_to 10162
  156.8975  130.5235  149.5284 LP  0  0  0  0  0  0  0  0  0  0  0  0  # atno 17370 bound_to 10713
  156.0691  130.5728  150.9347 LP  0  0  0  0  0  0  0  0  0  0  0  0  # atno 17371 bound_to 10713
  140.2257  134.3970  155.7545 LP  0  0  0  0  0  0  0  0  0  0  0  0  # atno 17394 bound_to 11000
  141.2223  133.7188  156.8560 LP  0  0  0  0  0  0  0  0  0  0  0  0  # atno 17395 bound_to 11000

$$$$
