AV-unprocessed.smi:1936|AV-procd|sdf|7832|dock4
  -GOLD-   22720 9583D 1   1.00000     0.00000
 Structure written by MMmdl.
 39 40  0  0  0  0  0  0  0  0  2 V2000
  144.9767  136.5469  154.6196 C   0  0  0  0  0  0  0  0  0  0  0  0
  146.2376  137.1417  153.9786 C   0  0  1  0  0  0  0  0  0  0  0  0
  147.4901  136.8927  154.8502 C   0  0  0  0  0  0  0  0  0  0  0  0
  148.6731  137.6647  154.3911 N   0  3  0  0  0  0  0  0  0  0  0  0
  148.4860  139.1334  154.4631 C   0  0  0  0  0  0  0  0  0  0  0  0
  149.7146  139.8512  153.8820 C   0  0  0  0  0  0  0  0  0  0  0  0
  150.8797  139.4461  154.5909 O   0  0  0  0  0  0  0  0  0  0  0  0
  151.1174  138.0488  154.4719 C   0  0  0  0  0  0  0  0  0  0  0  0
  149.9315  137.2675  155.0632 C   0  0  0  0  0  0  0  0  0  0  0  0
  146.4207  136.5677  152.6462 N   0  0  0  0  0  0  0  0  0  0  0  0
  145.5419  136.6302  151.6328 C   0  0  0  0  0  0  0  0  0  0  0  0
  144.4105  137.1031  151.7372 O   0  0  0  0  0  0  0  0  0  0  0  0
  146.0435  136.1419  150.2755 C   0  0  0  0  0  0  0  0  0  0  0  0
  145.5462  134.8039  150.0056 N   0  0  0  0  0  0  0  0  0  0  0  0
  144.5274  134.4242  149.1571 C   0  0  0  0  0  0  0  0  0  0  0  0
  144.4281  133.0640  149.2239 C   0  0  0  0  0  0  0  0  0  0  0  0
  145.4414  132.6953  150.1521 C   0  0  0  0  0  0  0  0  0  0  0  0
  146.1132  133.7377  150.6134 N   0  0  0  0  0  0  0  0  0  0  0  0
  144.8001  136.9759  155.6064 H   0  0  0  0  0  0  0  0  0  0  0  0
  145.0603  135.4659  154.7372 H   0  0  0  0  0  0  0  0  0  0  0  0
  144.0941  136.7484  154.0113 H   0  0  0  0  0  0  0  0  0  0  0  0
  146.0730  138.2166  153.8930 H   0  0  0  0  0  0  0  0  0  0  0  0
  147.2861  137.1118  155.8993 H   0  0  0  0  0  0  0  0  0  0  0  0
  147.7255  135.8282  154.8033 H   0  0  0  0  0  0  0  0  0  0  0  0
  147.5954  139.4307  153.9101 H   0  0  0  0  0  0  0  0  0  0  0  0
  148.3333  139.4347  155.5006 H   0  0  0  0  0  0  0  0  0  0  0  0
  149.8251  139.6343  152.8180 H   0  0  0  0  0  0  0  0  0  0  0  0
  149.5994  140.9310  153.9776 H   0  0  0  0  0  0  0  0  0  0  0  0
  151.2732  137.7859  153.4249 H   0  0  0  0  0  0  0  0  0  0  0  0
  152.0358  137.7986  155.0032 H   0  0  0  0  0  0  0  0  0  0  0  0
  149.8516  137.4554  156.1351 H   0  0  0  0  0  0  0  0  0  0  0  0
  150.1002  136.1977  154.9333 H   0  0  0  0  0  0  0  0  0  0  0  0
  147.3220  136.1534  152.4546 H   0  0  0  0  0  0  0  0  0  0  0  0
  145.7235  136.8149  149.4781 H   0  0  0  0  0  0  0  0  0  0  0  0
  147.1342  136.1253  150.2669 H   0  0  0  0  0  0  0  0  0  0  0  0
  143.9649  135.1456  148.5826 H   0  0  0  0  0  0  0  0  0  0  0  0
  143.7359  132.4284  148.6918 H   0  0  0  0  0  0  0  0  0  0  0  0
  145.7103  131.7080  150.4974 H   0  0  0  0  0  0  0  0  0  0  0  0
  148.7957  137.4332  153.4152 H   0  0  0  0  0  0  0  0  0  0  0  0
  1  2  1  0  0  0  0
  1 19  1  0  0  0  0
  1 20  1  0  0  0  0
  1 21  1  0  0  0  0
  2  3  1  0  0  0  0
  2 10  1  0  0  0  0
  2 22  1  0  0  0  0
  3  4  1  0  0  0  0
  3 23  1  0  0  0  0
  3 24  1  0  0  0  0
  4  9  1  0  0  0  0
  4  5  1  0  0  0  0
  4 39  1  0  0  0  0
  5  6  1  0  0  0  0
  5 25  1  0  0  0  0
  5 26  1  0  0  0  0
  6  7  1  0  0  0  0
  6 27  1  0  0  0  0
  6 28  1  0  0  0  0
  7  8  1  0  0  0  0
  8  9  1  0  0  0  0
  8 29  1  0  0  0  0
  8 30  1  0  0  0  0
  9 31  1  0  0  0  0
  9 32  1  0  0  0  0
 10 11  1  0  0  0  0
 10 33  1  0  0  0  0
 11 12  2  0  0  0  0
 11 13  1  0  0  0  0
 13 14  1  0  0  0  0
 13 34  1  0  0  0  0
 13 35  1  0  0  0  0
 14 18  1  0  0  0  0
 14 15  1  0  0  0  0
 15 16  2  0  0  0  0
 15 36  1  0  0  0  0
 16 17  1  0  0  0  0
 16 37  1  0  0  0  0
 17 18  2  0  0  0  0
 17 38  1  0  0  0  0
M  CHG  1   4   1
M  END
> <s_m_source_file>
AV-unprocessed.smi

> <i_m_source_file_index>
1936

> <i_lp_mmshare_version>
43012

> <i_f3d_flags>
0

> <s_epik_input>
W0NIMl0xW0NIMl1PW0NIMl1bQ0gyXU4xW0NIMl1bQ0BASF0oW0NIM10pW05IXUMoPU8pW0NIMl1uMltjSF1bY0hdW2NIXW4y

> <s_epik_cmdline>
J2VwaWtfcHl0aG9uJywgJy1waCcsICc3LjAnLCAnLXRuJywgJzgnLCAnLW1hJywgJzIwMCcsICctbWV0YWxfYmluZGluZycsICctaW1hZScsICc8aW5maWxlLm1hZT4nLCAnLW9tYWUnLCAnPG91dGZpbGUubWFlPic=

> <r_lp_tautomer_probability>
1

> <r_epik_Ionization_Penalty>
0.748405

> <r_epik_Ionization_Penalty_Charging>
0.748396

> <r_epik_Ionization_Penalty_Neutral>
9.02181e-06

> <r_epik_State_Penalty>
0.775162

> <r_epik_Charging_Adjusted_Penalty>
1.52356

> <i_epik_Tot_Q>
1

> <i_epik_Tot_abs_Q>
1

> <r_epik_Metal_State_Penalty>
0.775167

> <b_epik_Metal_Only>
0

> <s_lp_Force_Field>
OPLS_2005

> <r_lp_Energy>
20.1582

> <b_lp_Chiralities_Consistent>
1

> <s_lp_Variant>
AV-unprocessed.smi:1936-4

> <Gold.Version>
5.8.1

> <Gold.Id.Protein>
6NUR|6NUR_protein|mol2

> <Gold.PLP.Fitness>
44.3744

> <Gold.PLP.PLP>
-27.4713

> <Gold.PLP.part.hbond>
-3.0000

> <Gold.PLP.part.metal>
0.0000

> <Gold.PLP.part.buried>
-5.3124

> <Gold.PLP.part.nonpolar>
-19.6693

> <Gold.PLP.part.repulsive>
0.3668

> <Gold.PLP.ligand.clash>
0.0000

> <Gold.PLP.ligand.torsion>
0.5754

> <Gold.PLP.Chemscore.Hbond>
4.0000

> <Gold.PLP.Chemscore.CHOScore>
2.0000

> <Gold.PLP.Chemscore.Metal>
0.0000

> <Gold.Chemscore.Hbonds>
donor molecule, donor type, donor heavy atom, donor atom, acceptor molecule, acceptor atom, score
      L1  H     4    39       P1  7948  2.00
      L1  H    10    33       P1  7948  1.00

> <Gold.PLP.Chemscore.Internal.Correction>
0.0539

> <Gold.Rescore>
     Score         DG    S(hbond)    S(metal)    S(lipo)     H(rot)  DE(clash)    DE(int)     intcor
     14.77     -15.89       2.31        0.00      65.43       1.93       0.58       0.53       ----

> <Gold.Chemscore.Fitness>
14.7722

> <Gold.Chemscore.DG>
-15.8896

> <Gold.Chemscore.ZeroCoef>
-5.4800

> <Gold.Chemscore.Hbond>
2.3070

> <Gold.Chemscore.Metal>
0.0000

> <Gold.Chemscore.Lipo>
65.4301

> <Gold.Chemscore.Internal_Hbond>
0.0000

> <Gold.Chemscore.DEClash>
0.5842

> <Gold.Chemscore.DEInternal>
0.5331

> <Gold.Chemscore.Rot>
1.9340

> <Gold.Chemscore.Internal.Correction>
   9.000000E+99

> <Gold.Chemscore.Hbonds>
donor molecule, donor type, donor heavy atom, donor atom, acceptor molecule, acceptor atom, score
      L1  H     4    39       P1  7948  0.97
      L1  H    10    33       P1  7948  0.96

> <Gold.Chemscore.Hbond.Weighted>
-7.7053

> <Gold.Chemscore.Metal.Weighted>
-0.0000

> <Gold.Chemscore.Lipo.Weighted>
-7.6553

> <Gold.Chemscore.Internal_Hbond.Weighted>
0.0000

> <Gold.Chemscore.DEClash.Weighted>
0.5842

> <Gold.Chemscore.DEInternal.Weighted>
0.5331

> <Gold.Chemscore.Rot.Weighted>
4.9510

> <Gold.Chemscore.Internal.Correction.Weighted>
   9.000000E+99

> <Gold.Protein.RotatedTorsions>
[ 6907 6896 6895 6894 ] final -179.33 input  -60.11 | X-H torsion
[ 7974 7965 7964 7962 ] final -107.69 input  175.53 | X-H torsion
[ 8008 7997 7996 7995 ] final  175.27 input   59.86 | X-H torsion
[ 10167 10162 10161 10158 ] final   65.99 input  -65.29 | X-H torsion
[ 10718 10713 10712 10709 ] final  -74.59 input   66.30 | X-H torsion
[ 10763 10752 10751 10750 ] final  104.10 input  -60.55 | X-H torsion
[ 11005 11000 10999 10996 ] final -179.46 input  -57.11 | X-H torsion

> <Gold.Protein.ActiveResidues>
 VAL166  LYS551  ARG553  GLY616  TRP617  ASP618  TYR619  PRO620  LYS621  CYS622 
 ASP623  PHE694  ASN695  SER759  ASP760  ASP761  ALA762  ILE779  LEU786  VAL792 
 PHE793  MET794  SER795  GLU796  ALA797  LYS798  CYS799  TRP800  GLU811  SER814 

> <Gold.Protein.RotatedAtoms>
  151.6517  133.3320  159.3153 H   0  0  0  0  0  0  0  0  0  0  0  0  # atno 6907 bound_to 6896
  150.7957  134.7019  159.6564 H   0  0  0  0  0  0  0  0  0  0  0  0  # atno 6908 bound_to 6896
  152.4044  134.6237  160.0109 H   0  0  0  0  0  0  0  0  0  0  0  0  # atno 6909 bound_to 6896
  145.2022  140.9061  143.3363 H   0  0  0  0  0  0  0  0  0  0  0  0  # atno 7974 bound_to 7965
  156.0887  140.1413  156.9619 H   0  0  0  0  0  0  0  0  0  0  0  0  # atno 8008 bound_to 7997
  154.4629  140.0937  156.6989 H   0  0  0  0  0  0  0  0  0  0  0  0  # atno 8009 bound_to 7997
  155.4955  140.3449  155.4364 H   0  0  0  0  0  0  0  0  0  0  0  0  # atno 8010 bound_to 7997
  140.1053  144.4867  150.7012 H   0  0  0  0  0  0  0  0  0  0  0  0  # atno 10167 bound_to 10162
  156.0237  130.4420  150.2915 H   0  0  0  0  0  0  0  0  0  0  0  0  # atno 10718 bound_to 10713
  153.3614  135.3954  155.1721 H   0  0  0  0  0  0  0  0  0  0  0  0  # atno 10763 bound_to 10752
  154.8680  135.3680  154.5094 H   0  0  0  0  0  0  0  0  0  0  0  0  # atno 10764 bound_to 10752
  153.5554  135.7082  153.5632 H   0  0  0  0  0  0  0  0  0  0  0  0  # atno 10765 bound_to 10752
  140.4183  134.6629  157.4651 H   0  0  0  0  0  0  0  0  0  0  0  0  # atno 11005 bound_to 11000
  144.9937  139.3665  143.6202 LP  0  0  0  0  0  0  0  0  0  0  0  0  # atno 17320 bound_to 7965
  146.3415  139.9130  142.8777 LP  0  0  0  0  0  0  0  0  0  0  0  0  # atno 17321 bound_to 7965
  140.6955  143.2401  151.5012 LP  0  0  0  0  0  0  0  0  0  0  0  0  # atno 17342 bound_to 10162
  139.5649  144.2067  152.1749 LP  0  0  0  0  0  0  0  0  0  0  0  0  # atno 17343 bound_to 10162
  157.1019  131.0198  151.3082 LP  0  0  0  0  0  0  0  0  0  0  0  0  # atno 17370 bound_to 10713
  157.4773  130.7744  149.7380 LP  0  0  0  0  0  0  0  0  0  0  0  0  # atno 17371 bound_to 10713
  140.0218  134.6536  155.9229 LP  0  0  0  0  0  0  0  0  0  0  0  0  # atno 17394 bound_to 11000
  141.1794  133.6544  156.4958 LP  0  0  0  0  0  0  0  0  0  0  0  0  # atno 17395 bound_to 11000

$$$$
