AV-unprocessed.smi:2172|AV-procd|sdf|8834|dock8
  -GOLD-   2272012 23D 1   1.00000     0.00000
 Structure written by MMmdl.
 36 38  0  0  0  0  0  0  0  0  1 V2000
  153.1453  138.8422  155.7510 O   0  0  0  0  0  0  0  0  0  0  0  0
  151.8731  139.2087  156.2392 C   0  0  0  0  0  0  0  0  0  0  0  0
  151.9245  140.3452  157.2152 C   0  0  0  0  0  0  0  0  0  0  0  0
  152.5437  140.2280  158.3908 N   0  0  0  0  0  0  0  0  0  0  0  0
  152.3748  141.4785  158.9509 C   0  0  0  0  0  0  0  0  0  0  0  0
  152.8059  141.9931  160.1946 C   0  0  0  0  0  0  0  0  0  0  0  0
  152.5183  143.3262  160.5540 C   0  0  0  0  0  0  0  0  0  0  0  0
  151.7989  144.1625  159.6759 C   0  0  0  0  0  0  0  0  0  0  0  0
  151.3591  143.6690  158.4325 C   0  0  0  0  0  0  0  0  0  0  0  0
  151.6447  142.3359  158.0803 C   0  0  0  0  0  0  0  0  0  0  0  0
  151.3581  141.5544  156.9648 N   0  0  0  0  0  0  0  0  0  0  0  0
  150.6156  141.9886  155.7868 C   0  0  0  0  0  0  0  0  0  0  0  0
  149.5438  140.9713  155.3439 C   0  0  2  0  0  0  0  0  0  0  0  0
  149.9236  140.3612  154.1259 O   0  0  0  0  0  0  0  0  0  0  0  0
  148.1705  141.6198  155.2631 C   0  0  0  0  0  0  0  0  0  0  0  0
  147.4963  141.9885  156.4470 C   0  0  0  0  0  0  0  0  0  0  0  0
  146.2274  142.5966  156.3821 C   0  0  0  0  0  0  0  0  0  0  0  0
  145.6262  142.8419  155.1324 C   0  0  0  0  0  0  0  0  0  0  0  0
  144.0715  143.5860  155.0536 Cl  0  0  0  0  0  0  0  0  0  0  0  0
  146.2963  142.4810  153.9475 C   0  0  0  0  0  0  0  0  0  0  0  0
  147.5654  141.8736  154.0123 C   0  0  0  0  0  0  0  0  0  0  0  0
  153.0732  138.6726  154.8245 H   0  0  0  0  0  0  0  0  0  0  0  0
  151.2483  139.4909  155.3911 H   0  0  0  0  0  0  0  0  0  0  0  0
  151.3933  138.3466  156.7018 H   0  0  0  0  0  0  0  0  0  0  0  0
  153.3602  141.3611  160.8725 H   0  0  0  0  0  0  0  0  0  0  0  0
  152.8529  143.7090  161.5069 H   0  0  0  0  0  0  0  0  0  0  0  0
  151.5846  145.1831  159.9577 H   0  0  0  0  0  0  0  0  0  0  0  0
  150.8090  144.3081  157.7582 H   0  0  0  0  0  0  0  0  0  0  0  0
  150.1439  142.9430  156.0240 H   0  0  0  0  0  0  0  0  0  0  0  0
  151.3032  142.1875  154.9661 H   0  0  0  0  0  0  0  0  0  0  0  0
  149.4908  140.1687  156.0799 H   0  0  0  0  0  0  0  0  0  0  0  0
  149.7095  139.4420  154.1711 H   0  0  0  0  0  0  0  0  0  0  0  0
  147.9505  141.8072  157.4101 H   0  0  0  0  0  0  0  0  0  0  0  0
  145.7166  142.8751  157.2922 H   0  0  0  0  0  0  0  0  0  0  0  0
  145.8386  142.6699  152.9876 H   0  0  0  0  0  0  0  0  0  0  0  0
  148.0730  141.6050  153.0973 H   0  0  0  0  0  0  0  0  0  0  0  0
  1  2  1  0  0  0  0
  1 22  1  0  0  0  0
  2  3  1  0  0  0  0
  2 23  1  0  0  0  0
  2 24  1  0  0  0  0
  3 11  1  0  0  0  0
  3  4  2  0  0  0  0
  4  5  1  0  0  0  0
  5 10  2  0  0  0  0
  5  6  1  0  0  0  0
  6  7  2  0  0  0  0
  6 25  1  0  0  0  0
  7  8  1  0  0  0  0
  7 26  1  0  0  0  0
  8  9  2  0  0  0  0
  8 27  1  0  0  0  0
  9 10  1  0  0  0  0
  9 28  1  0  0  0  0
 10 11  1  0  0  0  0
 11 12  1  0  0  0  0
 12 13  1  0  0  0  0
 12 29  1  0  0  0  0
 12 30  1  0  0  0  0
 13 14  1  0  0  0  0
 13 15  1  0  0  0  0
 13 31  1  0  0  0  0
 14 32  1  0  0  0  0
 15 21  1  0  0  0  0
 15 16  2  0  0  0  0
 16 17  1  0  0  0  0
 16 33  1  0  0  0  0
 17 18  2  0  0  0  0
 17 34  1  0  0  0  0
 18 19  1  0  0  0  0
 18 20  1  0  0  0  0
 20 21  2  0  0  0  0
 20 35  1  0  0  0  0
 21 36  1  0  0  0  0
M  END
> <s_m_source_file>
AV-unprocessed.smi

> <i_m_source_file_index>
2172

> <i_lp_mmshare_version>
43012

> <i_f3d_flags>
0

> <s_epik_input>
W2NIXTFbY0hdW2NIXVtjSF1jKGMxMiluKGMobjIpW0NIMl1bT0hdKVtDSDJdW0NASF0oW09IXSljM1tjSF1bY0hdYyhDbClbY0hdW2NIXTM=

> <s_epik_cmdline>
J2VwaWtfcHl0aG9uJywgJy1waCcsICc3LjAnLCAnLXRuJywgJzgnLCAnLW1hJywgJzIwMCcsICctbWV0YWxfYmluZGluZycsICctaW1hZScsICc8aW5maWxlLm1hZT4nLCAnLW9tYWUnLCAnPG91dGZpbGUubWFlPic=

> <r_epik_Ionization_Penalty>
0.0634726

> <r_epik_Ionization_Penalty_Charging>
0

> <r_epik_Ionization_Penalty_Neutral>
0.0634726

> <r_epik_State_Penalty>
0.0551572

> <r_epik_Charging_Adjusted_Penalty>
0.0551572

> <i_epik_Tot_Q>
0

> <i_epik_Tot_abs_Q>
0

> <r_epik_Metal_State_Penalty>
5.78034e-05

> <b_epik_Metal_Only>
0

> <s_lp_Force_Field>
OPLS_2005

> <r_lp_Energy>
12.889

> <b_lp_Chiralities_Consistent>
1

> <s_lp_Variant>
AV-unprocessed.smi:2172-1

> <Gold.Version>
5.8.1

> <Gold.Id.Protein>
6NUR|6NUR_protein|mol2

> <Gold.PLP.Fitness>
49.2411

> <Gold.PLP.PLP>
-46.1774

> <Gold.PLP.part.hbond>
-3.0000

> <Gold.PLP.part.metal>
0.0000

> <Gold.PLP.part.buried>
-5.5000

> <Gold.PLP.part.nonpolar>
-37.1678

> <Gold.PLP.part.repulsive>
0.0000

> <Gold.PLP.ligand.clash>
0.0000

> <Gold.PLP.ligand.torsion>
1.2133

> <Gold.PLP.Chemscore.Hbond>
1.8160

> <Gold.PLP.Chemscore.CHOScore>
0.0000

> <Gold.PLP.Chemscore.Metal>
0.0000

> <Gold.Chemscore.Hbonds>
donor molecule, donor type, donor heavy atom, donor atom, acceptor molecule, acceptor atom, score
      P1  H  7989  7998       L1    14  0.80
      P1  H  7997  8008       L1     1  1.00

> <Gold.PLP.Chemscore.Internal.Correction>
0.0423

> <Gold.Rescore>
     Score         DG    S(hbond)    S(metal)    S(lipo)     H(rot)  DE(clash)    DE(int)     intcor
     16.19     -17.61       1.54        0.00     117.03       2.62       0.40       1.02       ----

> <Gold.Chemscore.Fitness>
16.1941

> <Gold.Chemscore.DG>
-17.6115

> <Gold.Chemscore.ZeroCoef>
-5.4800

> <Gold.Chemscore.Hbond>
1.5434

> <Gold.Chemscore.Metal>
0.0000

> <Gold.Chemscore.Lipo>
117.0259

> <Gold.Chemscore.Internal_Hbond>
0.0000

> <Gold.Chemscore.DEClash>
0.4011

> <Gold.Chemscore.DEInternal>
1.0163

> <Gold.Chemscore.Rot>
2.6232

> <Gold.Chemscore.Internal.Correction>
   9.000000E+99

> <Gold.Chemscore.Hbonds>
donor molecule, donor type, donor heavy atom, donor atom, acceptor molecule, acceptor atom, score
      P1  H  7989  7998       L1    14  0.70
      P1  H  7997  8008       L1     1  0.64

> <Gold.Chemscore.Hbond.Weighted>
-5.1549

> <Gold.Chemscore.Metal.Weighted>
-0.0000

> <Gold.Chemscore.Lipo.Weighted>
-13.6920

> <Gold.Chemscore.Internal_Hbond.Weighted>
0.0000

> <Gold.Chemscore.DEClash.Weighted>
0.4011

> <Gold.Chemscore.DEInternal.Weighted>
1.0163

> <Gold.Chemscore.Rot.Weighted>
6.7154

> <Gold.Chemscore.Internal.Correction.Weighted>
   9.000000E+99

> <Gold.Protein.RotatedTorsions>
[ 6907 6896 6895 6894 ] final  -47.88 input  -60.11 | X-H torsion
[ 7974 7965 7964 7962 ] final  174.56 input  175.53 | X-H torsion
[ 8008 7997 7996 7995 ] final  -39.49 input   59.86 | X-H torsion
[ 10167 10162 10161 10158 ] final  -12.19 input  -65.29 | X-H torsion
[ 10718 10713 10712 10709 ] final -148.20 input   66.30 | X-H torsion
[ 10763 10752 10751 10750 ] final  151.97 input  -60.55 | X-H torsion
[ 11005 11000 10999 10996 ] final   20.03 input  -57.11 | X-H torsion

> <Gold.Protein.ActiveResidues>
 VAL166  LYS551  ARG553  GLY616  TRP617  ASP618  TYR619  PRO620  LYS621  CYS622 
 ASP623  PHE694  ASN695  SER759  ASP760  ASP761  ALA762  ILE779  LEU786  VAL792 
 PHE793  MET794  SER795  GLU796  ALA797  LYS798  CYS799  TRP800  GLU811  SER814 

> <Gold.Protein.RotatedAtoms>
  150.8963  134.8371  159.7328 H   0  0  0  0  0  0  0  0  0  0  0  0  # atno 6907 bound_to 6896
  152.4866  134.4571  159.9603 H   0  0  0  0  0  0  0  0  0  0  0  0  # atno 6908 bound_to 6896
  151.4628  133.3549  159.2847 H   0  0  0  0  0  0  0  0  0  0  0  0  # atno 6909 bound_to 6896
  144.7219  139.9816  143.6439 H   0  0  0  0  0  0  0  0  0  0  0  0  # atno 7974 bound_to 7965
  154.4022  140.1550  156.2872 H   0  0  0  0  0  0  0  0  0  0  0  0  # atno 8008 bound_to 7997
  155.8817  140.3443  155.5871 H   0  0  0  0  0  0  0  0  0  0  0  0  # atno 8009 bound_to 7997
  155.7659  140.0824  157.2123 H   0  0  0  0  0  0  0  0  0  0  0  0  # atno 8010 bound_to 7997
  140.7155  143.5559  150.9249 H   0  0  0  0  0  0  0  0  0  0  0  0  # atno 10167 bound_to 10162
  156.4173  130.8011  151.2232 H   0  0  0  0  0  0  0  0  0  0  0  0  # atno 10718 bound_to 10713
  154.1124  135.2838  155.3227 H   0  0  0  0  0  0  0  0  0  0  0  0  # atno 10763 bound_to 10752
  154.6481  135.5379  153.7871 H   0  0  0  0  0  0  0  0  0  0  0  0  # atno 10764 bound_to 10752
  153.0341  135.6503  154.1282 H   0  0  0  0  0  0  0  0  0  0  0  0  # atno 10765 bound_to 10752
  140.4071  134.1657  155.7666 H   0  0  0  0  0  0  0  0  0  0  0  0  # atno 11005 bound_to 11000
  146.0483  139.3487  143.0655 LP  0  0  0  0  0  0  0  0  0  0  0  0  # atno 17320 bound_to 7965
  145.8247  140.9661  143.0880 LP  0  0  0  0  0  0  0  0  0  0  0  0  # atno 17321 bound_to 7965
  139.9284  143.6522  152.3082 LP  0  0  0  0  0  0  0  0  0  0  0  0  # atno 17342 bound_to 10162
  139.6964  144.7641  151.1348 LP  0  0  0  0  0  0  0  0  0  0  0  0  # atno 17343 bound_to 10162
  157.7508  131.0239  150.3854 LP  0  0  0  0  0  0  0  0  0  0  0  0  # atno 17370 bound_to 10713
  156.4164  130.3944  149.6855 LP  0  0  0  0  0  0  0  0  0  0  0  0  # atno 17371 bound_to 10713
  141.1835  133.8363  157.1172 LP  0  0  0  0  0  0  0  0  0  0  0  0  # atno 17394 bound_to 11000
  140.0294  134.9908  157.0751 LP  0  0  0  0  0  0  0  0  0  0  0  0  # atno 17395 bound_to 11000

$$$$
