AV-unprocessed.smi:2096|AV-procd|sdf|8562|dock1
  -GOLD-   2272011283D 1   1.00000     0.00000
 Structure written by MMmdl.
 35 36  0  0  0  0  0  0  0  0  1 V2000
  154.4454  140.5938  161.3152 C   0  0  0  0  0  0  0  0  0  0  0  0
  153.5487  141.6765  160.9680 N   0  0  0  0  0  0  0  0  0  0  0  0
  153.2394  142.6586  161.9405 C   0  0  0  0  0  0  0  0  0  0  0  0
  153.7077  142.6383  163.0791 O   0  0  0  0  0  0  0  0  0  0  0  0
  152.3226  143.6945  161.4794 C   0  0  0  0  0  0  0  0  0  0  0  0
  151.8358  143.6812  160.2192 C   0  0  0  0  0  0  0  0  0  0  0  0
  152.1574  142.7108  159.2879 N   0  0  0  0  0  0  0  0  0  0  0  0
  151.5715  142.7685  157.9427 C   0  0  0  0  0  0  0  0  0  0  0  0
  150.5103  141.6855  157.7074 C   0  0  0  0  0  0  0  0  0  0  0  0
  150.5778  140.6017  158.2890 O   0  0  0  0  0  0  0  0  0  0  0  0
  149.5186  142.0038  156.8641 N   0  0  0  0  0  0  0  0  0  0  0  0
  148.4199  141.1152  156.5133 C   0  0  0  0  0  0  0  0  0  0  0  0
  148.3834  140.8809  155.0082 C   0  0  0  0  0  0  0  0  0  0  0  0
  147.8017  141.9633  154.0870 C   0  0  0  0  0  0  0  0  0  0  0  0
  147.2586  140.8464  153.1916 C   0  0  0  0  0  0  0  0  0  0  0  0
  147.3440  139.9211  154.4081 C   0  0  0  0  0  0  0  0  0  0  0  0
  153.0360  141.6682  159.6524 C   0  0  0  0  0  0  0  0  0  0  0  0
  153.3382  140.7867  158.8437 O   0  0  0  0  0  0  0  0  0  0  0  0
  154.7827  140.6713  162.3482 H   0  0  0  0  0  0  0  0  0  0  0  0
  155.3014  140.6548  160.6406 H   0  0  0  0  0  0  0  0  0  0  0  0
  153.8950  139.6615  161.1764 H   0  0  0  0  0  0  0  0  0  0  0  0
  152.0289  144.4830  162.1567 H   0  0  0  0  0  0  0  0  0  0  0  0
  151.1568  144.4693  159.9277 H   0  0  0  0  0  0  0  0  0  0  0  0
  151.1051  143.7414  157.7821 H   0  0  0  0  0  0  0  0  0  0  0  0
  152.3565  142.6909  157.1879 H   0  0  0  0  0  0  0  0  0  0  0  0
  149.5313  142.9149  156.4292 H   0  0  0  0  0  0  0  0  0  0  0  0
  148.5356  140.1682  157.0432 H   0  0  0  0  0  0  0  0  0  0  0  0
  147.4813  141.5557  156.8522 H   0  0  0  0  0  0  0  0  0  0  0  0
  149.3721  140.6047  154.6351 H   0  0  0  0  0  0  0  0  0  0  0  0
  147.0089  142.5438  154.5621 H   0  0  0  0  0  0  0  0  0  0  0  0
  148.5442  142.6079  153.6155 H   0  0  0  0  0  0  0  0  0  0  0  0
  146.2496  141.0127  152.8132 H   0  0  0  0  0  0  0  0  0  0  0  0
  147.9510  140.5665  152.3962 H   0  0  0  0  0  0  0  0  0  0  0  0
  147.7177  138.9192  154.1950 H   0  0  0  0  0  0  0  0  0  0  0  0
  146.4149  139.8904  154.9798 H   0  0  0  0  0  0  0  0  0  0  0  0
  1  2  1  0  0  0  0
  1 19  1  0  0  0  0
  1 20  1  0  0  0  0
  1 21  1  0  0  0  0
  2 17  1  0  0  0  0
  2  3  1  0  0  0  0
  3  4  2  0  0  0  0
  3  5  1  0  0  0  0
  5  6  2  0  0  0  0
  5 22  1  0  0  0  0
  6  7  1  0  0  0  0
  6 23  1  0  0  0  0
  7  8  1  0  0  0  0
  7 17  1  0  0  0  0
  8  9  1  0  0  0  0
  8 24  1  0  0  0  0
  8 25  1  0  0  0  0
  9 10  2  0  0  0  0
  9 11  1  0  0  0  0
 11 12  1  0  0  0  0
 11 26  1  0  0  0  0
 12 13  1  0  0  0  0
 12 27  1  0  0  0  0
 12 28  1  0  0  0  0
 13 16  1  0  0  0  0
 13 14  1  0  0  0  0
 13 29  1  0  0  0  0
 14 15  1  0  0  0  0
 14 30  1  0  0  0  0
 14 31  1  0  0  0  0
 15 16  1  0  0  0  0
 15 32  1  0  0  0  0
 15 33  1  0  0  0  0
 16 34  1  0  0  0  0
 16 35  1  0  0  0  0
 17 18  2  0  0  0  0
M  END
> <s_m_source_file>
AV-unprocessed.smi

> <i_m_source_file_index>
2096

> <i_lp_mmshare_version>
43012

> <i_f3d_flags>
0

> <s_epik_input>
W0NIM11uMWMoPU8pW2NIXVtjSF1uKGMxPU8pW0NIMl1DKD1PKVtOSF1bQ0gyXVtDSF0yW0NIMl1bQ0gyXVtDSDJdMg==

> <s_epik_cmdline>
J2VwaWtfcHl0aG9uJywgJy1waCcsICc3LjAnLCAnLXRuJywgJzgnLCAnLW1hJywgJzIwMCcsICctbWV0YWxfYmluZGluZycsICctaW1hZScsICc8aW5maWxlLm1hZT4nLCAnLW9tYWUnLCAnPG91dGZpbGUubWFlPic=

> <r_lp_tautomer_probability>
1

> <r_epik_Ionization_Penalty>
3.11585e-08

> <r_epik_Ionization_Penalty_Charging>
1.18568e-08

> <r_epik_Ionization_Penalty_Neutral>
1.93017e-08

> <r_epik_State_Penalty>
-0

> <r_epik_Charging_Adjusted_Penalty>
1.18568e-08

> <i_epik_Tot_Q>
0

> <i_epik_Tot_abs_Q>
0

> <r_epik_Metal_State_Penalty>
-0

> <b_epik_Metal_Only>
0

> <s_lp_Force_Field>
OPLS_2005

> <r_lp_Energy>
20.363

> <b_lp_Chiralities_Consistent>
1

> <s_lp_Variant>
AV-unprocessed.smi:2096-1

> <Gold.Version>
5.8.1

> <Gold.Id.Protein>
6NUR|6NUR_protein|mol2

> <Gold.PLP.Fitness>
42.2169

> <Gold.PLP.PLP>
-39.5291

> <Gold.PLP.part.hbond>
-2.2114

> <Gold.PLP.part.metal>
0.0000

> <Gold.PLP.part.buried>
-4.2961

> <Gold.PLP.part.nonpolar>
-32.4261

> <Gold.PLP.part.repulsive>
0.0647

> <Gold.PLP.ligand.clash>
0.0000

> <Gold.PLP.ligand.torsion>
0.5805

> <Gold.PLP.Chemscore.Hbond>
1.2512

> <Gold.PLP.Chemscore.CHOScore>
0.0000

> <Gold.PLP.Chemscore.Metal>
0.0000

> <Gold.Chemscore.Hbonds>
donor molecule, donor type, donor heavy atom, donor atom, acceptor molecule, acceptor atom, score
      L1  H    11    26       P1  8028  0.91
      P1  H  7997  8010       L1    18  0.20

> <Gold.PLP.Chemscore.Internal.Correction>
0.0954

> <Gold.Rescore>
     Score         DG    S(hbond)    S(metal)    S(lipo)     H(rot)  DE(clash)    DE(int)     intcor
     12.73     -14.43       1.62        0.00      69.21       1.78       0.97       0.72       ----

> <Gold.Chemscore.Fitness>
12.7343

> <Gold.Chemscore.DG>
-14.4253

> <Gold.Chemscore.ZeroCoef>
-5.4800

> <Gold.Chemscore.Hbond>
1.6202

> <Gold.Chemscore.Metal>
0.0000

> <Gold.Chemscore.Lipo>
69.2092

> <Gold.Chemscore.Internal_Hbond>
0.0000

> <Gold.Chemscore.DEClash>
0.9707

> <Gold.Chemscore.DEInternal>
0.7202

> <Gold.Chemscore.Rot>
1.7827

> <Gold.Chemscore.Internal.Correction>
   9.000000E+99

> <Gold.Chemscore.Hbonds>
donor molecule, donor type, donor heavy atom, donor atom, acceptor molecule, acceptor atom, score
      L1  H    11    26       P1  8028  0.87
      P1  H  7997  8010       L1    18  0.20

> <Gold.Chemscore.Hbond.Weighted>
-5.4114

> <Gold.Chemscore.Metal.Weighted>
-0.0000

> <Gold.Chemscore.Lipo.Weighted>
-8.0975

> <Gold.Chemscore.Internal_Hbond.Weighted>
0.0000

> <Gold.Chemscore.DEClash.Weighted>
0.9707

> <Gold.Chemscore.DEInternal.Weighted>
0.7202

> <Gold.Chemscore.Rot.Weighted>
4.5636

> <Gold.Chemscore.Internal.Correction.Weighted>
   9.000000E+99

> <Gold.Protein.RotatedTorsions>
[ 6907 6896 6895 6894 ] final -170.78 input  -60.11 | X-H torsion
[ 7974 7965 7964 7962 ] final  142.37 input  175.53 | X-H torsion
[ 8008 7997 7996 7995 ] final   30.54 input   59.86 | X-H torsion
[ 10167 10162 10161 10158 ] final -103.64 input  -65.29 | X-H torsion
[ 10718 10713 10712 10709 ] final   89.92 input   66.30 | X-H torsion
[ 10763 10752 10751 10750 ] final    2.63 input  -60.55 | X-H torsion
[ 11005 11000 10999 10996 ] final  -75.36 input  -57.11 | X-H torsion

> <Gold.Protein.ActiveResidues>
 VAL166  LYS551  ARG553  GLY616  TRP617  ASP618  TYR619  PRO620  LYS621  CYS622 
 ASP623  PHE694  ASN695  SER759  ASP760  ASP761  ALA762  ILE779  LEU786  VAL792 
 PHE793  MET794  SER795  GLU796  ALA797  LYS798  CYS799  TRP800  GLU811  SER814 

> <Gold.Protein.RotatedAtoms>
  151.5133  133.3481  159.2888 H   0  0  0  0  0  0  0  0  0  0  0  0  # atno 6907 bound_to 6896
  150.8699  134.8072  159.7157 H   0  0  0  0  0  0  0  0  0  0  0  0  # atno 6908 bound_to 6896
  152.4690  134.5015  159.9778 H   0  0  0  0  0  0  0  0  0  0  0  0  # atno 6909 bound_to 6896
  144.9013  139.5419  143.5752 H   0  0  0  0  0  0  0  0  0  0  0  0  # atno 7974 bound_to 7965
  155.0920  140.3221  155.4571 H   0  0  0  0  0  0  0  0  0  0  0  0  # atno 8008 bound_to 7997
  156.2740  140.2076  156.5994 H   0  0  0  0  0  0  0  0  0  0  0  0  # atno 8009 bound_to 7997
  154.6896  140.0518  157.0337 H   0  0  0  0  0  0  0  0  0  0  0  0  # atno 8010 bound_to 7997
  140.2178  143.3698  152.0996 H   0  0  0  0  0  0  0  0  0  0  0  0  # atno 10167 bound_to 10162
  157.6957  131.0351  150.3498 H   0  0  0  0  0  0  0  0  0  0  0  0  # atno 10718 bound_to 10713
  153.2932  135.6950  153.7273 H   0  0  0  0  0  0  0  0  0  0  0  0  # atno 10763 bound_to 10752
  153.6215  135.3426  155.3013 H   0  0  0  0  0  0  0  0  0  0  0  0  # atno 10764 bound_to 10752
  154.8530  135.4387  154.2021 H   0  0  0  0  0  0  0  0  0  0  0  0  # atno 10765 bound_to 10752
  141.1644  133.6944  156.7506 H   0  0  0  0  0  0  0  0  0  0  0  0  # atno 11005 bound_to 11000
  146.3110  139.7746  142.9020 LP  0  0  0  0  0  0  0  0  0  0  0  0  # atno 17320 bound_to 7965
  145.3611  141.0326  143.3284 LP  0  0  0  0  0  0  0  0  0  0  0  0  # atno 17321 bound_to 7965
  139.5155  144.6964  151.5617 LP  0  0  0  0  0  0  0  0  0  0  0  0  # atno 17342 bound_to 10162
  140.6277  143.9136  150.6579 LP  0  0  0  0  0  0  0  0  0  0  0  0  # atno 17343 bound_to 10162
  156.3948  130.3904  149.7003 LP  0  0  0  0  0  0  0  0  0  0  0  0  # atno 17370 bound_to 10713
  156.4340  130.7829  151.2849 LP  0  0  0  0  0  0  0  0  0  0  0  0  # atno 17371 bound_to 10713
  140.2607  134.8469  157.3756 LP  0  0  0  0  0  0  0  0  0  0  0  0  # atno 17394 bound_to 11000
  140.1614  134.4724  155.7892 LP  0  0  0  0  0  0  0  0  0  0  0  0  # atno 17395 bound_to 11000

$$$$
