AV-unprocessed.smi:1443|AV-procd|sdf|5877|dock1
  -GOLD-   22720 5553D 1   1.00000     0.00000
 Structure written by MMmdl.
 27 28  0  0  0  0  0  0  0  0  1 V2000
  150.6862  136.2030  154.9704 C   0  0  0  0  0  0  0  0  0  0  0  0
  151.3315  137.6263  154.0490 S   0  0  0  0  0  0  0  0  0  0  0  0
  150.3590  139.0094  154.5511 C   0  0  0  0  0  0  0  0  0  0  0  0
  149.0257  139.0126  154.3709 N   0  0  0  0  0  0  0  0  0  0  0  0
  148.4072  140.4746  154.9534 S   0  0  0  0  0  0  0  0  0  0  0  0
  150.0001  141.0013  155.4115 C   0  0  0  0  0  0  0  0  0  0  0  0
  150.2441  142.2685  156.0169 N   0  0  0  0  0  0  0  0  0  0  0  0
  150.9953  142.6125  157.0855 C   0  0  0  0  0  0  0  0  0  0  0  0
  151.6217  141.7650  157.7195 O   0  0  0  0  0  0  0  0  0  0  0  0
  151.0116  143.9177  157.3987 N   0  0  0  0  0  0  0  0  0  0  0  0
  151.7281  144.5150  158.4763 C   0  0  2  0  0  0  0  0  0  0  0  0
  153.0580  143.8900  158.8375 C   0  0  0  0  0  0  0  0  0  0  0  0
  151.8777  143.7145  159.7545 C   0  0  1  0  0  0  0  0  0  0  0  0
  151.8629  144.3952  161.1060 C   0  0  0  0  0  0  0  0  0  0  0  0
  150.9257  140.0874  155.1207 N   0  0  0  0  0  0  0  0  0  0  0  0
  151.2495  135.3048  154.7174 H   0  0  0  0  0  0  0  0  0  0  0  0
  149.6373  136.0340  154.7258 H   0  0  0  0  0  0  0  0  0  0  0  0
  150.7701  136.3727  156.0441 H   0  0  0  0  0  0  0  0  0  0  0  0
  149.7809  143.0432  155.5644 H   0  0  0  0  0  0  0  0  0  0  0  0
  150.4665  144.5404  156.8195 H   0  0  0  0  0  0  0  0  0  0  0  0
  151.6645  145.5972  158.5825 H   0  0  0  0  0  0  0  0  0  0  0  0
  153.3837  143.0194  158.2707 H   0  0  0  0  0  0  0  0  0  0  0  0
  153.8543  144.5601  159.1556 H   0  0  0  0  0  0  0  0  0  0  0  0
  151.4226  142.7254  159.7600 H   0  0  0  0  0  0  0  0  0  0  0  0
  152.3313  145.3785  161.0506 H   0  0  0  0  0  0  0  0  0  0  0  0
  152.4042  143.7919  161.8346 H   0  0  0  0  0  0  0  0  0  0  0  0
  150.8359  144.5186  161.4501 H   0  0  0  0  0  0  0  0  0  0  0  0
  1  2  1  0  0  0  0
  1 16  1  0  0  0  0
  1 17  1  0  0  0  0
  1 18  1  0  0  0  0
  2  3  1  0  0  0  0
  3 15  1  0  0  0  0
  3  4  2  0  0  0  0
  4  5  1  0  0  0  0
  5  6  1  0  0  0  0
  6  7  1  0  0  0  0
  6 15  2  0  0  0  0
  7  8  1  0  0  0  0
  7 19  1  0  0  0  0
  8  9  2  0  0  0  0
  8 10  1  0  0  0  0
 10 11  1  0  0  0  0
 10 20  1  0  0  0  0
 11 13  1  0  0  0  0
 11 12  1  0  0  0  0
 11 21  1  0  0  0  0
 12 13  1  0  0  0  0
 12 22  1  0  0  0  0
 12 23  1  0  0  0  0
 13 14  1  0  0  0  0
 13 24  1  0  0  0  0
 14 25  1  0  0  0  0
 14 26  1  0  0  0  0
 14 27  1  0  0  0  0
M  END
> <s_m_source_file>
AV-unprocessed.smi

> <i_m_source_file_index>
1443

> <i_lp_mmshare_version>
43012

> <i_f3d_flags>
0

> <s_epik_input>
W0NIM11TYzFuc2MobjEpW05IXUMoPU8pW05IXVtDQEBIXTJbQ0gyXVtDQEhdMltDSDNd

> <s_epik_cmdline>
J2VwaWtfcHl0aG9uJywgJy1waCcsICc3LjAnLCAnLXRuJywgJzgnLCAnLW1hJywgJzIwMCcsICctbWV0YWxfYmluZGluZycsICctaW1hZScsICc8aW5maWxlLm1hZT4nLCAnLW9tYWUnLCAnPG91dGZpbGUubWFlPic=

> <r_lp_tautomer_probability>
1

> <r_epik_Ionization_Penalty>
2.74658e-05

> <r_epik_Ionization_Penalty_Charging>
0

> <r_epik_Ionization_Penalty_Neutral>
2.74658e-05

> <r_epik_State_Penalty>
-0

> <r_epik_Charging_Adjusted_Penalty>
0

> <i_epik_Tot_Q>
0

> <i_epik_Tot_abs_Q>
0

> <r_epik_Metal_State_Penalty>
-0

> <b_epik_Metal_Only>
0

> <s_lp_Force_Field>
OPLS_2005

> <r_lp_Energy>
20.7527

> <b_lp_Chiralities_Consistent>
1

> <s_lp_Variant>
AV-unprocessed.smi:1443-1

> <Gold.Version>
5.8.1

> <Gold.Id.Protein>
6NUR|6NUR_protein|mol2

> <Gold.PLP.Fitness>
40.6067

> <Gold.PLP.PLP>
-33.3371

> <Gold.PLP.part.hbond>
-3.0000

> <Gold.PLP.part.metal>
0.0000

> <Gold.PLP.part.buried>
-4.6024

> <Gold.PLP.part.nonpolar>
-27.9728

> <Gold.PLP.part.repulsive>
0.3523

> <Gold.PLP.ligand.clash>
0.0000

> <Gold.PLP.ligand.torsion>
0.7495

> <Gold.PLP.Chemscore.Hbond>
2.9100

> <Gold.PLP.Chemscore.CHOScore>
0.0000

> <Gold.PLP.Chemscore.Metal>
0.0000

> <Gold.Chemscore.Hbonds>
donor molecule, donor type, donor heavy atom, donor atom, acceptor molecule, acceptor atom, score
      L1  H     7    19       P1  8028  1.00
      L1  H    10    20       P1  8028  0.94
      P1  H  7989  7998       L1    15  0.81

> <Gold.PLP.Chemscore.Internal.Correction>
0.0386

> <Gold.Rescore>
     Score         DG    S(hbond)    S(metal)    S(lipo)     H(rot)  DE(clash)    DE(int)     intcor
     13.68     -17.18       2.00        0.00      70.72       1.27       0.03       3.47       ----

> <Gold.Chemscore.Fitness>
13.6848

> <Gold.Chemscore.DG>
-17.1844

> <Gold.Chemscore.ZeroCoef>
-5.4800

> <Gold.Chemscore.Hbond>
2.0005

> <Gold.Chemscore.Metal>
0.0000

> <Gold.Chemscore.Lipo>
70.7151

> <Gold.Chemscore.Internal_Hbond>
0.0000

> <Gold.Chemscore.DEClash>
0.0318

> <Gold.Chemscore.DEInternal>
3.4678

> <Gold.Chemscore.Rot>
1.2699

> <Gold.Chemscore.Internal.Correction>
   9.000000E+99

> <Gold.Chemscore.Hbonds>
donor molecule, donor type, donor heavy atom, donor atom, acceptor molecule, acceptor atom, score
      L1  H     7    19       P1  8028  0.95
      L1  H    10    20       P1  8028  0.83
      P1  H  7989  7998       L1    15  0.03

> <Gold.Chemscore.Hbond.Weighted>
-6.6817

> <Gold.Chemscore.Metal.Weighted>
-0.0000

> <Gold.Chemscore.Lipo.Weighted>
-8.2737

> <Gold.Chemscore.Internal_Hbond.Weighted>
0.0000

> <Gold.Chemscore.DEClash.Weighted>
0.0318

> <Gold.Chemscore.DEInternal.Weighted>
3.4678

> <Gold.Chemscore.Rot.Weighted>
3.2509

> <Gold.Chemscore.Internal.Correction.Weighted>
   9.000000E+99

> <Gold.Protein.RotatedTorsions>
[ 6907 6896 6895 6894 ] final  -53.33 input  -60.11 | X-H torsion
[ 7974 7965 7964 7962 ] final -175.03 input  175.53 | X-H torsion
[ 8008 7997 7996 7995 ] final  176.68 input   59.86 | X-H torsion
[ 10167 10162 10161 10158 ] final  175.24 input  -65.29 | X-H torsion
[ 10718 10713 10712 10709 ] final -116.57 input   66.30 | X-H torsion
[ 10763 10752 10751 10750 ] final  -27.65 input  -60.55 | X-H torsion
[ 11005 11000 10999 10996 ] final   86.67 input  -57.11 | X-H torsion

> <Gold.Protein.ActiveResidues>
 VAL166  LYS551  ARG553  GLY616  TRP617  ASP618  TYR619  PRO620  LYS621  CYS622 
 ASP623  PHE694  ASN695  SER759  ASP760  ASP761  ALA762  ILE779  LEU786  VAL792 
 PHE793  MET794  SER795  GLU796  ALA797  LYS798  CYS799  TRP800  GLU811  SER814 

> <Gold.Protein.RotatedAtoms>
  150.8437  134.7738  159.6952 H   0  0  0  0  0  0  0  0  0  0  0  0  # atno 6907 bound_to 6896
  152.4519  134.5373  159.9838 H   0  0  0  0  0  0  0  0  0  0  0  0  # atno 6908 bound_to 6896
  151.5507  133.3380  159.2988 H   0  0  0  0  0  0  0  0  0  0  0  0  # atno 6909 bound_to 6896
  144.7129  140.1382  143.6393 H   0  0  0  0  0  0  0  0  0  0  0  0  # atno 7974 bound_to 7965
  156.0738  140.1377  156.9796 H   0  0  0  0  0  0  0  0  0  0  0  0  # atno 8008 bound_to 7997
  154.4546  140.0966  156.6771 H   0  0  0  0  0  0  0  0  0  0  0  0  # atno 8009 bound_to 7997
  155.5185  140.3455  155.4404 H   0  0  0  0  0  0  0  0  0  0  0  0  # atno 8010 bound_to 7997
  139.5170  144.3054  152.0340 H   0  0  0  0  0  0  0  0  0  0  0  0  # atno 10167 bound_to 10162
  156.0972  130.6142  150.9052 H   0  0  0  0  0  0  0  0  0  0  0  0  # atno 10718 bound_to 10713
  153.7356  135.6936  153.4979 H   0  0  0  0  0  0  0  0  0  0  0  0  # atno 10763 bound_to 10752
  153.2105  135.4404  155.0373 H   0  0  0  0  0  0  0  0  0  0  0  0  # atno 10764 bound_to 10752
  154.8238  135.3435  154.6884 H   0  0  0  0  0  0  0  0  0  0  0  0  # atno 10765 bound_to 10752
  139.8938  134.8371  156.2753 H   0  0  0  0  0  0  0  0  0  0  0  0  # atno 11005 bound_to 11000
  145.9225  139.2555  143.1373 LP  0  0  0  0  0  0  0  0  0  0  0  0  # atno 17320 bound_to 7965
  145.9605  140.8839  143.0213 LP  0  0  0  0  0  0  0  0  0  0  0  0  # atno 17321 bound_to 7965
  140.2500  144.4179  150.6225 LP  0  0  0  0  0  0  0  0  0  0  0  0  # atno 17342 bound_to 10162
  140.6231  143.2178  151.6653 LP  0  0  0  0  0  0  0  0  0  0  0  0  # atno 17343 bound_to 10162
  157.6136  131.0935  150.8751 LP  0  0  0  0  0  0  0  0  0  0  0  0  # atno 17370 bound_to 10713
  156.8886  130.5205  149.5287 LP  0  0  0  0  0  0  0  0  0  0  0  0  # atno 17371 bound_to 10713
  141.0074  133.7115  156.1056 LP  0  0  0  0  0  0  0  0  0  0  0  0  # atno 17394 bound_to 11000
  140.7415  134.4145  157.5554 LP  0  0  0  0  0  0  0  0  0  0  0  0  # atno 17395 bound_to 11000

$$$$
