AV-unprocessed.smi:1813|AV-procd|sdf|7347|dock1
  -GOLD-   22720 9 13D 1   1.00000     0.00000
 Structure written by MMmdl.
 39 40  0  0  0  0  0  0  0  0  3 V2000
  145.4357  136.4316  150.7948 C   0  0  0  0  0  0  0  0  0  0  0  0
  146.3797  137.1261  151.6570 N   0  0  0  0  0  0  0  0  0  0  0  0
  146.0278  137.8847  152.7044 C   0  0  0  0  0  0  0  0  0  0  0  0
  144.8584  138.0627  153.0473 O   0  0  0  0  0  0  0  0  0  0  0  0
  147.1748  138.5230  153.4944 C   0  0  0  0  0  0  0  0  0  0  0  0
  148.1270  137.5264  154.0484 N   0  3  2  0  0  0  0  0  0  0  0  0
  147.4718  136.5278  154.9359 C   0  0  0  0  0  0  0  0  0  0  0  0
  148.4701  135.4499  155.3923 C   0  0  0  0  0  0  0  0  0  0  0  0
  149.6955  136.0688  156.0936 C   0  0  2  0  0  0  0  0  0  0  0  0
  149.3367  136.6725  157.3765 N   0  0  0  0  0  0  0  0  0  0  0  0
  149.0263  136.0197  158.5050 C   0  0  0  0  0  0  0  0  0  0  0  0
  149.0526  134.7873  158.5320 O   0  0  0  0  0  0  0  0  0  0  0  0
  148.6952  136.8403  159.5268 N   0  5  0  0  0  0  0  0  0  0  0  0
  148.1040  136.3419  160.6249 C   0  0  0  0  0  0  0  0  0  0  0  0
  147.9171  137.0566  161.7400 N   0  0  0  0  0  0  0  0  0  0  0  0
  147.2742  136.3445  162.7543 C   0  0  0  0  0  0  0  0  0  0  0  0
  146.9569  135.0600  162.4000 C   0  0  0  0  0  0  0  0  0  0  0  0
  147.4590  134.7044  160.7720 S   0  0  0  0  0  0  0  0  0  0  0  0
  150.3254  137.1259  155.1713 C   0  0  0  0  0  0  0  0  0  0  0  0
  149.2923  138.1703  154.7080 C   0  0  0  0  0  0  0  0  0  0  0  0
  145.9682  135.9389  149.9814 H   0  0  0  0  0  0  0  0  0  0  0  0
  144.7185  137.1284  150.3588 H   0  0  0  0  0  0  0  0  0  0  0  0
  144.8881  135.6719  151.3541 H   0  0  0  0  0  0  0  0  0  0  0  0
  147.3615  137.0226  151.4430 H   0  0  0  0  0  0  0  0  0  0  0  0
  147.6973  139.1842  152.8020 H   0  0  0  0  0  0  0  0  0  0  0  0
  146.7864  139.1532  154.2965 H   0  0  0  0  0  0  0  0  0  0  0  0
  147.0405  137.0334  155.8014 H   0  0  0  0  0  0  0  0  0  0  0  0
  146.6455  136.0457  154.4131 H   0  0  0  0  0  0  0  0  0  0  0  0
  147.9720  134.7334  156.0460 H   0  0  0  0  0  0  0  0  0  0  0  0
  148.8035  134.8808  154.5236 H   0  0  0  0  0  0  0  0  0  0  0  0
  150.4351  135.2881  156.2799 H   0  0  0  0  0  0  0  0  0  0  0  0
  149.3139  137.6809  157.4152 H   0  0  0  0  0  0  0  0  0  0  0  0
  147.0811  136.8319  163.6983 H   0  0  0  0  0  0  0  0  0  0  0  0
  146.4614  134.3058  162.9922 H   0  0  0  0  0  0  0  0  0  0  0  0
  151.1566  137.6202  155.6758 H   0  0  0  0  0  0  0  0  0  0  0  0
  150.7520  136.6320  154.2972 H   0  0  0  0  0  0  0  0  0  0  0  0
  149.7722  138.8591  154.0121 H   0  0  0  0  0  0  0  0  0  0  0  0
  148.9480  138.7672  155.5541 H   0  0  0  0  0  0  0  0  0  0  0  0
  148.4945  137.0177  153.2568 H   0  0  0  0  0  0  0  0  0  0  0  0
  1  2  1  0  0  0  0
  1 21  1  0  0  0  0
  1 22  1  0  0  0  0
  1 23  1  0  0  0  0
  2  3  1  0  0  0  0
  2 24  1  0  0  0  0
  3  4  2  0  0  0  0
  3  5  1  0  0  0  0
  5  6  1  0  0  0  0
  5 25  1  0  0  0  0
  5 26  1  0  0  0  0
  6 20  1  0  0  0  0
  6  7  1  0  0  0  0
  6 39  1  0  0  0  0
  7  8  1  0  0  0  0
  7 27  1  0  0  0  0
  7 28  1  0  0  0  0
  8  9  1  0  0  0  0
  8 29  1  0  0  0  0
  8 30  1  0  0  0  0
  9 10  1  0  0  0  0
  9 19  1  0  0  0  0
  9 31  1  0  0  0  0
 10 11  1  0  0  0  0
 10 32  1  0  0  0  0
 11 12  2  0  0  0  0
 11 13  1  0  0  0  0
 13 14  1  0  0  0  0
 14 18  1  0  0  0  0
 14 15  2  0  0  0  0
 15 16  1  0  0  0  0
 16 17  2  0  0  0  0
 16 33  1  0  0  0  0
 17 18  1  0  0  0  0
 17 34  1  0  0  0  0
 19 20  1  0  0  0  0
 19 35  1  0  0  0  0
 19 36  1  0  0  0  0
 20 37  1  0  0  0  0
 20 38  1  0  0  0  0
M  CHG  1   6   1
M  CHG  1  13  -1
M  END
> <s_m_source_file>
AV-unprocessed.smi

> <i_m_source_file_index>
1813

> <i_lp_mmshare_version>
43012

> <i_f3d_flags>
0

> <s_epik_input>
W0NIM11bTkhdQyg9TylbQ0gyXU4xW0NIMl1bQ0gyXVtDSF0oW0NIMl1bQ0gyXTEpW05IXUMoPU8pW05IXWMybltjSF1bY0hdczI=

> <s_epik_cmdline>
J2VwaWtfcHl0aG9uJywgJy1waCcsICc3LjAnLCAnLXRuJywgJzgnLCAnLW1hJywgJzIwMCcsICctbWV0YWxfYmluZGluZycsICctaW1hZScsICc8aW5maWxlLm1hZT4nLCAnLW9tYWUnLCAnPG91dGZpbGUubWFlPic=

> <r_lp_tautomer_probability>
0.999

> <r_epik_Ionization_Penalty>
7.12128

> <r_epik_Ionization_Penalty_Charging>
6.25357

> <r_epik_Ionization_Penalty_Neutral>
0.867707

> <r_epik_State_Penalty>
6.33838

> <r_epik_Charging_Adjusted_Penalty>
12.592

> <i_epik_Tot_Q>
0

> <i_epik_Tot_abs_Q>
2

> <r_epik_Metal_State_Penalty>
2.34161

> <b_epik_Metal_Only>
1

> <s_lp_Force_Field>
OPLS_2005

> <r_lp_Energy>
4.26142

> <b_lp_Chiralities_Consistent>
1

> <s_lp_Variant>
AV-unprocessed.smi:1813-8

> <Gold.Version>
5.8.1

> <Gold.Id.Protein>
6NUR|6NUR_protein|mol2

> <Gold.PLP.Fitness>
46.7394

> <Gold.PLP.PLP>
-30.0337

> <Gold.PLP.part.hbond>
-5.0000

> <Gold.PLP.part.metal>
0.0000

> <Gold.PLP.part.buried>
-5.3596

> <Gold.PLP.part.nonpolar>
-20.4368

> <Gold.PLP.part.repulsive>
0.2906

> <Gold.PLP.ligand.clash>
0.0000

> <Gold.PLP.ligand.torsion>
0.2380

> <Gold.PLP.Chemscore.Hbond>
5.6784

> <Gold.PLP.Chemscore.CHOScore>
0.0000

> <Gold.PLP.Chemscore.Metal>
0.0000

> <Gold.Chemscore.Hbonds>
donor molecule, donor type, donor heavy atom, donor atom, acceptor molecule, acceptor atom, score
      L1  H     2    24       P1  7948  0.98
      L1  H     6    39       P1  7948  2.00
      P1  H  6896  6908       L1    12  1.00
      P1  H  6931  6943       L1    15  1.00
      P1  H  6934  6947       L1    15  0.31

> <Gold.PLP.Chemscore.Internal.Correction>
0.1465

> <Gold.Rescore>
     Score         DG    S(hbond)    S(metal)    S(lipo)     H(rot)  DE(clash)    DE(int)     intcor
     19.34     -21.16       4.06        0.00      56.52       1.76       0.12       1.69       ----

> <Gold.Chemscore.Fitness>
19.3422

> <Gold.Chemscore.DG>
-21.1565

> <Gold.Chemscore.ZeroCoef>
-5.4800

> <Gold.Chemscore.Hbond>
4.0630

> <Gold.Chemscore.Metal>
0.0000

> <Gold.Chemscore.Lipo>
56.5158

> <Gold.Chemscore.Internal_Hbond>
0.0000

> <Gold.Chemscore.DEClash>
0.1197

> <Gold.Chemscore.DEInternal>
1.6946

> <Gold.Chemscore.Rot>
1.7603

> <Gold.Chemscore.Internal.Correction>
   9.000000E+99

> <Gold.Chemscore.Hbonds>
donor molecule, donor type, donor heavy atom, donor atom, acceptor molecule, acceptor atom, score
      L1  H     2    24       P1  7948  0.93
      L1  H     6    39       P1  7948  1.00
      P1  H  6896  6908       L1    12  0.50
      P1  H  6931  6943       L1    15  0.84
      P1  H  6934  6947       L1    15  0.12

> <Gold.Chemscore.Hbond.Weighted>
-13.5705

> <Gold.Chemscore.Metal.Weighted>
-0.0000

> <Gold.Chemscore.Lipo.Weighted>
-6.6123

> <Gold.Chemscore.Internal_Hbond.Weighted>
0.0000

> <Gold.Chemscore.DEClash.Weighted>
0.1197

> <Gold.Chemscore.DEInternal.Weighted>
1.6946

> <Gold.Chemscore.Rot.Weighted>
4.5064

> <Gold.Chemscore.Internal.Correction.Weighted>
   9.000000E+99

> <Gold.Protein.RotatedTorsions>
[ 6907 6896 6895 6894 ] final  154.75 input  -60.11 | X-H torsion
[ 7974 7965 7964 7962 ] final    3.01 input  175.53 | X-H torsion
[ 8008 7997 7996 7995 ] final  152.78 input   59.86 | X-H torsion
[ 10167 10162 10161 10158 ] final  127.75 input  -65.29 | X-H torsion
[ 10718 10713 10712 10709 ] final  101.78 input   66.30 | X-H torsion
[ 10763 10752 10751 10750 ] final  171.54 input  -60.55 | X-H torsion
[ 11005 11000 10999 10996 ] final -172.96 input  -57.11 | X-H torsion

> <Gold.Protein.ActiveResidues>
 VAL166  LYS551  ARG553  GLY616  TRP617  ASP618  TYR619  PRO620  LYS621  CYS622 
 ASP623  PHE694  ASN695  SER759  ASP760  ASP761  ALA762  ILE779  LEU786  VAL792 
 PHE793  MET794  SER795  GLU796  ALA797  LYS798  CYS799  TRP800  GLU811  SER814 

> <Gold.Protein.RotatedAtoms>
  152.0540  133.4032  159.4389 H   0  0  0  0  0  0  0  0  0  0  0  0  # atno 6907 bound_to 6896
  150.6869  134.3275  159.4822 H   0  0  0  0  0  0  0  0  0  0  0  0  # atno 6908 bound_to 6896
  152.1089  134.9288  160.0618 H   0  0  0  0  0  0  0  0  0  0  0  0  # atno 6909 bound_to 6896
  146.2445  140.0749  142.8360 H   0  0  0  0  0  0  0  0  0  0  0  0  # atno 7974 bound_to 7965
  156.2613  140.2011  156.6386 H   0  0  0  0  0  0  0  0  0  0  0  0  # atno 8008 bound_to 7997
  154.6627  140.0559  157.0104 H   0  0  0  0  0  0  0  0  0  0  0  0  # atno 8009 bound_to 7997
  155.1253  140.3228  155.4490 H   0  0  0  0  0  0  0  0  0  0  0  0  # atno 8010 bound_to 7997
  139.5562  144.6850  151.4176 H   0  0  0  0  0  0  0  0  0  0  0  0  # atno 10167 bound_to 10162
  157.6820  131.0735  150.5304 H   0  0  0  0  0  0  0  0  0  0  0  0  # atno 10718 bound_to 10713
  154.4133  135.2756  155.2023 H   0  0  0  0  0  0  0  0  0  0  0  0  # atno 10763 bound_to 10752
  154.3999  135.6047  153.5895 H   0  0  0  0  0  0  0  0  0  0  0  0  # atno 10764 bound_to 10752
  152.9831  135.5924  154.4418 H   0  0  0  0  0  0  0  0  0  0  0  0  # atno 10765 bound_to 10752
  140.4911  134.5983  157.4955 H   0  0  0  0  0  0  0  0  0  0  0  0  # atno 11005 bound_to 11000
  145.0783  140.9204  143.4840 LP  0  0  0  0  0  0  0  0  0  0  0  0  # atno 17320 bound_to 7965
  145.0897  139.2899  143.5741 LP  0  0  0  0  0  0  0  0  0  0  0  0  # atno 17321 bound_to 7965
  140.6835  143.8028  150.7153 LP  0  0  0  0  0  0  0  0  0  0  0  0  # atno 17342 bound_to 10162
  140.1488  143.4376  152.2145 LP  0  0  0  0  0  0  0  0  0  0  0  0  # atno 17343 bound_to 10162
  156.5614  130.4256  149.6061 LP  0  0  0  0  0  0  0  0  0  0  0  0  # atno 17370 bound_to 10713
  156.2818  130.7075  151.1901 LP  0  0  0  0  0  0  0  0  0  0  0  0  # atno 17371 bound_to 10713
  139.9768  134.7202  155.9934 LP  0  0  0  0  0  0  0  0  0  0  0  0  # atno 17394 bound_to 11000
  141.1483  133.6552  156.3935 LP  0  0  0  0  0  0  0  0  0  0  0  0  # atno 17395 bound_to 11000

$$$$
