AV-unprocessed.smi:1699|AV-procd|sdf|6816|dock4
  -GOLD-   22720 7593D 1   1.00000     0.00000
 Structure written by MMmdl.
 37 38  0  0  0  0  0  0  0  0  1 V2000
  147.5695  133.1615  152.3212 C   0  0  0  0  0  0  0  0  0  0  0  0
  146.3351  133.1940  151.4345 C   0  0  0  0  0  0  0  0  0  0  0  0
  145.8202  131.9832  150.9241 C   0  0  0  0  0  0  0  0  0  0  0  0
  144.6777  132.0144  150.1063 C   0  0  0  0  0  0  0  0  0  0  0  0
  144.0944  133.2634  149.8323 C   0  0  0  0  0  0  0  0  0  0  0  0
  144.5797  134.4249  150.3159 N   0  0  0  0  0  0  0  0  0  0  0  0
  145.6818  134.4126  151.1073 C   0  0  0  0  0  0  0  0  0  0  0  0
  146.2526  135.5999  151.6470 N   0  0  0  0  0  0  0  0  0  0  0  0
  145.6343  136.6125  152.2802 C   0  0  0  0  0  0  0  0  0  0  0  0
  144.4301  136.6665  152.5325 O   0  0  0  0  0  0  0  0  0  0  0  0
  146.5064  137.5716  152.6229 N   0  0  0  0  0  0  0  0  0  0  0  0
  146.1750  138.8044  153.3331 C   0  0  1  0  0  0  0  0  0  0  0  0
  145.7454  138.4629  154.7699 C   0  0  0  0  0  0  0  0  0  0  0  0
  147.3886  139.7525  153.2929 C   0  0  2  0  0  0  0  0  0  0  0  0
  148.5923  139.2887  154.1151 C   0  0  0  0  0  0  0  0  0  0  0  0
  149.3167  140.5817  154.4574 C   0  0  0  0  0  0  0  0  0  0  0  0
  148.2951  141.6777  154.1430 C   0  0  0  0  0  0  0  0  0  0  0  0
  147.0736  140.9912  153.9112 O   0  0  0  0  0  0  0  0  0  0  0  0
  147.9194  132.1406  152.4781 H   0  0  0  0  0  0  0  0  0  0  0  0
  147.3496  133.5935  153.2978 H   0  0  0  0  0  0  0  0  0  0  0  0
  148.3817  133.7285  151.8654 H   0  0  0  0  0  0  0  0  0  0  0  0
  146.2929  131.0397  151.1544 H   0  0  0  0  0  0  0  0  0  0  0  0
  144.2594  131.1054  149.7000 H   0  0  0  0  0  0  0  0  0  0  0  0
  143.2156  133.3328  149.2083 H   0  0  0  0  0  0  0  0  0  0  0  0
  147.2520  135.6858  151.5387 H   0  0  0  0  0  0  0  0  0  0  0  0
  147.4754  137.4440  152.3705 H   0  0  0  0  0  0  0  0  0  0  0  0
  145.3418  139.3005  152.8318 H   0  0  0  0  0  0  0  0  0  0  0  0
  145.4456  139.3558  155.3184 H   0  0  0  0  0  0  0  0  0  0  0  0
  146.5559  137.9881  155.3240 H   0  0  0  0  0  0  0  0  0  0  0  0
  144.8947  137.7804  154.7745 H   0  0  0  0  0  0  0  0  0  0  0  0
  147.6944  139.9412  152.2616 H   0  0  0  0  0  0  0  0  0  0  0  0
  148.2579  138.8056  155.0344 H   0  0  0  0  0  0  0  0  0  0  0  0
  149.2232  138.5821  153.5752 H   0  0  0  0  0  0  0  0  0  0  0  0
  149.6123  140.5947  155.5070 H   0  0  0  0  0  0  0  0  0  0  0  0
  150.2158  140.7091  153.8535 H   0  0  0  0  0  0  0  0  0  0  0  0
  148.1913  142.3994  154.9534 H   0  0  0  0  0  0  0  0  0  0  0  0
  148.5792  142.2186  153.2392 H   0  0  0  0  0  0  0  0  0  0  0  0
  1  2  1  0  0  0  0
  1 19  1  0  0  0  0
  1 20  1  0  0  0  0
  1 21  1  0  0  0  0
  2  7  1  0  0  0  0
  2  3  2  0  0  0  0
  3  4  1  0  0  0  0
  3 22  1  0  0  0  0
  4  5  2  0  0  0  0
  4 23  1  0  0  0  0
  5  6  1  0  0  0  0
  5 24  1  0  0  0  0
  6  7  2  0  0  0  0
  7  8  1  0  0  0  0
  8  9  1  0  0  0  0
  8 25  1  0  0  0  0
  9 10  2  0  0  0  0
  9 11  1  0  0  0  0
 11 12  1  0  0  0  0
 11 26  1  0  0  0  0
 12 13  1  0  0  0  0
 12 14  1  0  0  0  0
 12 27  1  0  0  0  0
 13 28  1  0  0  0  0
 13 29  1  0  0  0  0
 13 30  1  0  0  0  0
 14 18  1  0  0  0  0
 14 15  1  0  0  0  0
 14 31  1  0  0  0  0
 15 16  1  0  0  0  0
 15 32  1  0  0  0  0
 15 33  1  0  0  0  0
 16 17  1  0  0  0  0
 16 34  1  0  0  0  0
 16 35  1  0  0  0  0
 17 18  1  0  0  0  0
 17 36  1  0  0  0  0
 17 37  1  0  0  0  0
M  END
> <s_m_source_file>
AV-unprocessed.smi

> <i_m_source_file_index>
1699

> <i_lp_mmshare_version>
43012

> <i_f3d_flags>
0

> <s_epik_input>
W0NIM11jMVtjSF1bY0hdW2NIXW5jMVtOSF1DKD1PKVtOSF1bQ0BIXShbQ0gzXSlbQ0BASF0yW0NIMl1bQ0gyXVtDSDJdTzI=

> <s_epik_cmdline>
J2VwaWtfcHl0aG9uJywgJy1waCcsICc3LjAnLCAnLXRuJywgJzgnLCAnLW1hJywgJzIwMCcsICctbWV0YWxfYmluZGluZycsICctaW1hZScsICc8aW5maWxlLm1hZT4nLCAnLW9tYWUnLCAnPG91dGZpbGUubWFlPic=

> <r_lp_tautomer_probability>
1

> <r_epik_Ionization_Penalty>
5.52788e-05

> <r_epik_Ionization_Penalty_Charging>
0

> <r_epik_Ionization_Penalty_Neutral>
5.52788e-05

> <r_epik_State_Penalty>
-0

> <r_epik_Charging_Adjusted_Penalty>
0

> <i_epik_Tot_Q>
0

> <i_epik_Tot_abs_Q>
0

> <r_epik_Metal_State_Penalty>
-0

> <b_epik_Metal_Only>
0

> <s_lp_Force_Field>
OPLS_2005

> <r_lp_Energy>
21.1958

> <b_lp_Chiralities_Consistent>
1

> <s_lp_Variant>
AV-unprocessed.smi:1699-2

> <Gold.Version>
5.8.1

> <Gold.Id.Protein>
6NUR|6NUR_protein|mol2

> <Gold.PLP.Fitness>
39.1368

> <Gold.PLP.PLP>
-31.2007

> <Gold.PLP.part.hbond>
-2.0000

> <Gold.PLP.part.metal>
0.0000

> <Gold.PLP.part.buried>
-2.9584

> <Gold.PLP.part.nonpolar>
-27.2091

> <Gold.PLP.part.repulsive>
0.7118

> <Gold.PLP.ligand.clash>
0.0000

> <Gold.PLP.ligand.torsion>
0.5314

> <Gold.PLP.Chemscore.Hbond>
1.9920

> <Gold.PLP.Chemscore.CHOScore>
1.0000

> <Gold.PLP.Chemscore.Metal>
0.0000

> <Gold.Chemscore.Hbonds>
donor molecule, donor type, donor heavy atom, donor atom, acceptor molecule, acceptor atom, score
      L1  H     8    25       P1  7948  1.00
      L1  H    11    26       P1  7948  0.99
      L1  C     5    24       P1 10186  1.00

> <Gold.PLP.Chemscore.Internal.Correction>
0.0230

> <Gold.Rescore>
     Score         DG    S(hbond)    S(metal)    S(lipo)     H(rot)  DE(clash)    DE(int)     intcor
     17.40     -17.95       1.94        0.00      77.77       1.22       0.05       0.50       ----

> <Gold.Chemscore.Fitness>
17.4022

> <Gold.Chemscore.DG>
-17.9511

> <Gold.Chemscore.ZeroCoef>
-5.4800

> <Gold.Chemscore.Hbond>
1.9445

> <Gold.Chemscore.Metal>
0.0000

> <Gold.Chemscore.Lipo>
77.7730

> <Gold.Chemscore.Internal_Hbond>
0.0000

> <Gold.Chemscore.DEClash>
0.0476

> <Gold.Chemscore.DEInternal>
0.5013

> <Gold.Chemscore.Rot>
1.2200

> <Gold.Chemscore.Internal.Correction>
   9.000000E+99

> <Gold.Chemscore.Hbonds>
donor molecule, donor type, donor heavy atom, donor atom, acceptor molecule, acceptor atom, score
      L1  H     8    25       P1  7948  0.99
      L1  H    11    26       P1  7948  0.93

> <Gold.Chemscore.Hbond.Weighted>
-6.4948

> <Gold.Chemscore.Metal.Weighted>
-0.0000

> <Gold.Chemscore.Lipo.Weighted>
-9.0994

> <Gold.Chemscore.Internal_Hbond.Weighted>
0.0000

> <Gold.Chemscore.DEClash.Weighted>
0.0476

> <Gold.Chemscore.DEInternal.Weighted>
0.5013

> <Gold.Chemscore.Rot.Weighted>
3.1232

> <Gold.Chemscore.Internal.Correction.Weighted>
   9.000000E+99

> <Gold.Protein.RotatedTorsions>
[ 6907 6896 6895 6894 ] final   78.07 input  -60.11 | X-H torsion
[ 7974 7965 7964 7962 ] final   69.54 input  175.53 | X-H torsion
[ 8008 7997 7996 7995 ] final   32.67 input   59.86 | X-H torsion
[ 10167 10162 10161 10158 ] final  -36.50 input  -65.29 | X-H torsion
[ 10718 10713 10712 10709 ] final   34.63 input   66.30 | X-H torsion
[ 10763 10752 10751 10750 ] final   44.22 input  -60.55 | X-H torsion
[ 11005 11000 10999 10996 ] final   86.94 input  -57.11 | X-H torsion

> <Gold.Protein.ActiveResidues>
 VAL166  LYS551  ARG553  GLY616  TRP617  ASP618  TYR619  PRO620  LYS621  CYS622 
 ASP623  PHE694  ASN695  SER759  ASP760  ASP761  ALA762  ILE779  LEU786  VAL792 
 PHE793  MET794  SER795  GLU796  ALA797  LYS798  CYS799  TRP800  GLU811  SER814 

> <Gold.Protein.RotatedAtoms>
  152.5144  134.3720  159.9321 H   0  0  0  0  0  0  0  0  0  0  0  0  # atno 6907 bound_to 6896
  151.3675  133.3861  159.2704 H   0  0  0  0  0  0  0  0  0  0  0  0  # atno 6908 bound_to 6896
  150.9604  134.9012  159.7785 H   0  0  0  0  0  0  0  0  0  0  0  0  # atno 6909 bound_to 6896
  145.7892  139.2925  143.1220 H   0  0  0  0  0  0  0  0  0  0  0  0  # atno 7974 bound_to 7965
  155.1263  140.3253  155.4485 H   0  0  0  0  0  0  0  0  0  0  0  0  # atno 8008 bound_to 7997
  156.2648  140.2018  156.6332 H   0  0  0  0  0  0  0  0  0  0  0  0  # atno 8009 bound_to 7997
  154.6646  140.0543  157.0086 H   0  0  0  0  0  0  0  0  0  0  0  0  # atno 8010 bound_to 7997
  140.7141  143.3404  151.2369 H   0  0  0  0  0  0  0  0  0  0  0  0  # atno 10167 bound_to 10162
  157.3128  130.7408  149.6735 H   0  0  0  0  0  0  0  0  0  0  0  0  # atno 10718 bound_to 10713
  152.9845  135.6077  154.3238 H   0  0  0  0  0  0  0  0  0  0  0  0  # atno 10763 bound_to 10752
  154.2946  135.2774  155.2641 H   0  0  0  0  0  0  0  0  0  0  0  0  # atno 10764 bound_to 10752
  154.4921  135.5889  153.6523 H   0  0  0  0  0  0  0  0  0  0  0  0  # atno 10765 bound_to 10752
  139.8932  134.8389  156.2791 H   0  0  0  0  0  0  0  0  0  0  0  0  # atno 11005 bound_to 11000
  145.9994  140.8533  143.0026 LP  0  0  0  0  0  0  0  0  0  0  0  0  # atno 17320 bound_to 7965
  144.6784  140.2331  143.7353 LP  0  0  0  0  0  0  0  0  0  0  0  0  # atno 17321 bound_to 7965
  139.6911  143.9691  152.2859 LP  0  0  0  0  0  0  0  0  0  0  0  0  # atno 17342 bound_to 10162
  139.9353  144.6716  150.8321 LP  0  0  0  0  0  0  0  0  0  0  0  0  # atno 17343 bound_to 10162
  155.9679  130.4246  150.4617 LP  0  0  0  0  0  0  0  0  0  0  0  0  # atno 17370 bound_to 10713
  157.2618  131.0568  151.2315 LP  0  0  0  0  0  0  0  0  0  0  0  0  # atno 17371 bound_to 10713
  141.0050  133.7129  156.1021 LP  0  0  0  0  0  0  0  0  0  0  0  0  # atno 17394 bound_to 11000
  140.7445  134.4113  157.5550 LP  0  0  0  0  0  0  0  0  0  0  0  0  # atno 17395 bound_to 11000

$$$$
