AV-unprocessed.smi:1978|AV-procd|sdf|8012|dock4
  -GOLD-   2272010203D 1   1.00000     0.00000
 Structure written by MMmdl.
 44 45  0  0  0  0  0  0  0  0  3 V2000
  147.4746  135.9340  163.1003 C   0  0  0  0  0  0  0  0  0  0  0  0
  147.7003  135.9573  161.6277 C   0  0  0  0  0  0  0  0  0  0  0  0
  148.0045  134.9848  160.7175 C   0  0  0  0  0  0  0  0  0  0  0  0
  148.0807  135.7023  159.4940 C   0  0  0  0  0  0  0  0  0  0  0  0
  148.3845  135.0317  158.2796 N   0  0  0  0  0  0  0  0  0  0  0  0
  148.4392  135.5314  157.0313 C   0  0  0  0  0  0  0  0  0  0  0  0
  148.2145  136.7304  156.8276 O   0  0  0  0  0  0  0  0  0  0  0  0
  148.7575  134.5803  156.1112 N   0  5  0  0  0  0  0  0  0  0  0  0
  148.5559  134.7185  154.6690 C   0  0  0  0  0  0  0  0  0  0  0  0
  147.0892  135.1256  154.3583 C   0  0  2  0  0  0  0  0  0  0  0  0
  146.0449  134.5687  155.3601 C   0  0  0  0  0  0  0  0  0  0  0  0
  146.7453  134.8212  152.9256 N   0  3  1  0  0  0  0  0  0  0  0  0
  146.7301  133.3589  152.5981 C   0  0  0  0  0  0  0  0  0  0  0  0
  146.6406  133.1117  151.0880 C   0  0  0  0  0  0  0  0  0  0  0  0
  145.3764  133.7604  150.5262 C   0  0  0  0  0  0  0  0  0  0  0  0
  145.3811  135.2525  150.8654 C   0  0  0  0  0  0  0  0  0  0  0  0
  145.5283  135.5180  152.3824 C   0  0  2  0  0  0  0  0  0  0  0  0
  145.5376  137.0485  152.5930 C   0  0  0  0  0  0  0  0  0  0  0  0
  147.8392  136.9963  159.6447 N   0  0  0  0  0  0  0  0  0  0  0  0
  147.5944  137.1661  161.0125 O   0  0  0  0  0  0  0  0  0  0  0  0
  147.7692  134.9739  163.5245 H   0  0  0  0  0  0  0  0  0  0  0  0
  146.4221  136.0979  163.3318 H   0  0  0  0  0  0  0  0  0  0  0  0
  148.0556  136.7134  163.5935 H   0  0  0  0  0  0  0  0  0  0  0  0
  148.1515  133.9305  160.8995 H   0  0  0  0  0  0  0  0  0  0  0  0
  148.5927  134.0484  158.3660 H   0  0  0  0  0  0  0  0  0  0  0  0
  149.2157  135.4788  154.2479 H   0  0  0  0  0  0  0  0  0  0  0  0
  148.7940  133.7967  154.1379 H   0  0  0  0  0  0  0  0  0  0  0  0
  147.0818  136.2016  154.5000 H   0  0  0  0  0  0  0  0  0  0  0  0
  146.2152  134.9401  156.3721 H   0  0  0  0  0  0  0  0  0  0  0  0
  146.0458  133.4787  155.4143 H   0  0  0  0  0  0  0  0  0  0  0  0
  145.0386  134.8833  155.0827 H   0  0  0  0  0  0  0  0  0  0  0  0
  147.6273  132.8663  152.9734 H   0  0  0  0  0  0  0  0  0  0  0  0
  145.8817  132.8769  153.0859 H   0  0  0  0  0  0  0  0  0  0  0  0
  147.5236  133.5158  150.5909 H   0  0  0  0  0  0  0  0  0  0  0  0
  146.6300  132.0405  150.8853 H   0  0  0  0  0  0  0  0  0  0  0  0
  145.3247  133.6173  149.4465 H   0  0  0  0  0  0  0  0  0  0  0  0
  144.4908  133.2848  150.9498 H   0  0  0  0  0  0  0  0  0  0  0  0
  146.1974  135.7382  150.3283 H   0  0  0  0  0  0  0  0  0  0  0  0
  144.4603  135.7038  150.4937 H   0  0  0  0  0  0  0  0  0  0  0  0
  144.6521  135.1100  152.8884 H   0  0  0  0  0  0  0  0  0  0  0  0
  144.7610  137.5287  151.9970 H   0  0  0  0  0  0  0  0  0  0  0  0
  146.4921  137.4862  152.2984 H   0  0  0  0  0  0  0  0  0  0  0  0
  145.3317  137.3328  153.6240 H   0  0  0  0  0  0  0  0  0  0  0  0
  147.5165  135.2106  152.4019 H   0  0  0  0  0  0  0  0  0  0  0  0
  1  2  1  0  0  0  0
  1 21  1  0  0  0  0
  1 22  1  0  0  0  0
  1 23  1  0  0  0  0
  2 20  1  0  0  0  0
  2  3  2  0  0  0  0
  3  4  1  0  0  0  0
  3 24  1  0  0  0  0
  4  5  1  0  0  0  0
  4 19  2  0  0  0  0
  5  6  1  0  0  0  0
  5 25  1  0  0  0  0
  6  7  2  0  0  0  0
  6  8  1  0  0  0  0
  8  9  1  0  0  0  0
  9 10  1  0  0  0  0
  9 26  1  0  0  0  0
  9 27  1  0  0  0  0
 10 11  1  0  0  0  0
 10 12  1  0  0  0  0
 10 28  1  0  0  0  0
 11 29  1  0  0  0  0
 11 30  1  0  0  0  0
 11 31  1  0  0  0  0
 12 17  1  0  0  0  0
 12 13  1  0  0  0  0
 12 44  1  0  0  0  0
 13 14  1  0  0  0  0
 13 32  1  0  0  0  0
 13 33  1  0  0  0  0
 14 15  1  0  0  0  0
 14 34  1  0  0  0  0
 14 35  1  0  0  0  0
 15 16  1  0  0  0  0
 15 36  1  0  0  0  0
 15 37  1  0  0  0  0
 16 17  1  0  0  0  0
 16 38  1  0  0  0  0
 16 39  1  0  0  0  0
 17 18  1  0  0  0  0
 17 40  1  0  0  0  0
 18 41  1  0  0  0  0
 18 42  1  0  0  0  0
 18 43  1  0  0  0  0
 19 20  1  0  0  0  0
M  CHG  1   8  -1
M  CHG  1  12   1
M  END
> <s_m_source_file>
AV-unprocessed.smi

> <i_m_source_file_index>
1978

> <i_lp_mmshare_version>
43012

> <i_f3d_flags>
0

> <s_epik_input>
W0NIM11jMVtjSF1jKG5vMSlbTkhdQyg9TylbTkhdW0NIMl1bQ0BIXShbQ0gzXSlOMltDSDJdW0NIMl1bQ0gyXVtDSDJdW0NASF0yW0NIM10=

> <s_epik_cmdline>
J2VwaWtfcHl0aG9uJywgJy1waCcsICc3LjAnLCAnLXRuJywgJzgnLCAnLW1hJywgJzIwMCcsICctbWV0YWxfYmluZGluZycsICctaW1hZScsICc8aW5maWxlLm1hZT4nLCAnLW9tYWUnLCAnPG91dGZpbGUubWFlPic=

> <r_epik_Ionization_Penalty>
6.7666

> <r_epik_Ionization_Penalty_Charging>
6.7666

> <r_epik_Ionization_Penalty_Neutral>
5.77131e-06

> <r_epik_State_Penalty>
6.79217

> <r_epik_Charging_Adjusted_Penalty>
13.5588

> <i_epik_Tot_Q>
0

> <i_epik_Tot_abs_Q>
2

> <r_epik_Metal_State_Penalty>
2.72569

> <b_epik_Metal_Only>
1

> <s_lp_Force_Field>
OPLS_2005

> <r_lp_Energy>
22.8368

> <b_lp_Chiralities_Consistent>
1

> <s_lp_Variant>
AV-unprocessed.smi:1978-21

> <Gold.Version>
5.8.1

> <Gold.Id.Protein>
6NUR|6NUR_protein|mol2

> <Gold.PLP.Fitness>
38.9245

> <Gold.PLP.PLP>
-28.3186

> <Gold.PLP.part.hbond>
-3.0000

> <Gold.PLP.part.metal>
0.0000

> <Gold.PLP.part.buried>
-2.8787

> <Gold.PLP.part.nonpolar>
-22.2373

> <Gold.PLP.part.repulsive>
0.0889

> <Gold.PLP.ligand.clash>
0.0000

> <Gold.PLP.ligand.torsion>
0.4477

> <Gold.PLP.Chemscore.Hbond>
3.7760

> <Gold.PLP.Chemscore.CHOScore>
0.0000

> <Gold.PLP.Chemscore.Metal>
0.0000

> <Gold.Chemscore.Hbonds>
donor molecule, donor type, donor heavy atom, donor atom, acceptor molecule, acceptor atom, score
      L1  H    12    44       P1  7948  2.00
      P1  H  6931  6943       L1    20  0.88
      P1  H  6934  6947       L1    20  0.80

> <Gold.PLP.Chemscore.Internal.Correction>
0.1733

> <Gold.Rescore>
     Score         DG    S(hbond)    S(metal)    S(lipo)     H(rot)  DE(clash)    DE(int)     intcor
     14.76     -16.57       2.22        0.00      64.65       1.52       0.06       1.75       ----

> <Gold.Chemscore.Fitness>
14.7632

> <Gold.Chemscore.DG>
-16.5669

> <Gold.Chemscore.ZeroCoef>
-5.4800

> <Gold.Chemscore.Hbond>
2.2190

> <Gold.Chemscore.Metal>
0.0000

> <Gold.Chemscore.Lipo>
64.6518

> <Gold.Chemscore.Internal_Hbond>
0.0000

> <Gold.Chemscore.DEClash>
0.0582

> <Gold.Chemscore.DEInternal>
1.7456

> <Gold.Chemscore.Rot>
1.5190

> <Gold.Chemscore.Internal.Correction>
   9.000000E+99

> <Gold.Chemscore.Hbonds>
donor molecule, donor type, donor heavy atom, donor atom, acceptor molecule, acceptor atom, score
      L1  H    12    44       P1  7948  1.00
      P1  H  6931  6943       L1    20  0.27
      P1  H  6934  6947       L1    20  0.13

> <Gold.Chemscore.Hbond.Weighted>
-7.4113

> <Gold.Chemscore.Metal.Weighted>
-0.0000

> <Gold.Chemscore.Lipo.Weighted>
-7.5643

> <Gold.Chemscore.Internal_Hbond.Weighted>
0.0000

> <Gold.Chemscore.DEClash.Weighted>
0.0582

> <Gold.Chemscore.DEInternal.Weighted>
1.7456

> <Gold.Chemscore.Rot.Weighted>
3.8886

> <Gold.Chemscore.Internal.Correction.Weighted>
   9.000000E+99

> <Gold.Protein.RotatedTorsions>
[ 6907 6896 6895 6894 ] final  130.02 input  -60.11 | X-H torsion
[ 7974 7965 7964 7962 ] final   78.76 input  175.53 | X-H torsion
[ 8008 7997 7996 7995 ] final  -62.47 input   59.86 | X-H torsion
[ 10167 10162 10161 10158 ] final   16.92 input  -65.29 | X-H torsion
[ 10718 10713 10712 10709 ] final  178.25 input   66.30 | X-H torsion
[ 10763 10752 10751 10750 ] final  156.50 input  -60.55 | X-H torsion
[ 11005 11000 10999 10996 ] final   54.65 input  -57.11 | X-H torsion

> <Gold.Protein.ActiveResidues>
 VAL166  LYS551  ARG553  GLY616  TRP617  ASP618  TYR619  PRO620  LYS621  CYS622 
 ASP623  PHE694  ASN695  SER759  ASP760  ASP761  ALA762  ILE779  LEU786  VAL792 
 PHE793  MET794  SER795  GLU796  ALA797  LYS798  CYS799  TRP800  GLU811  SER814 

> <Gold.Protein.RotatedAtoms>
  152.3567  133.6246  159.5984 H   0  0  0  0  0  0  0  0  0  0  0  0  # atno 6907 bound_to 6896
  150.7574  133.9488  159.3488 H   0  0  0  0  0  0  0  0  0  0  0  0  # atno 6908 bound_to 6896
  151.7332  135.0871  160.0354 H   0  0  0  0  0  0  0  0  0  0  0  0  # atno 6909 bound_to 6896
  145.6730  139.2502  143.1857 H   0  0  0  0  0  0  0  0  0  0  0  0  # atno 7974 bound_to 7965
  154.4502  140.0995  156.6593 H   0  0  0  0  0  0  0  0  0  0  0  0  # atno 8008 bound_to 7997
  155.5311  140.3481  155.4408 H   0  0  0  0  0  0  0  0  0  0  0  0  # atno 8009 bound_to 7997
  156.0663  140.1338  156.9870 H   0  0  0  0  0  0  0  0  0  0  0  0  # atno 8010 bound_to 7997
  140.5763  143.9066  150.6753 H   0  0  0  0  0  0  0  0  0  0  0  0  # atno 10167 bound_to 10162
  156.8934  130.9855  151.3046 H   0  0  0  0  0  0  0  0  0  0  0  0  # atno 10718 bound_to 10713
  154.1854  135.2797  155.3039 H   0  0  0  0  0  0  0  0  0  0  0  0  # atno 10763 bound_to 10752
  154.5970  135.5541  153.7339 H   0  0  0  0  0  0  0  0  0  0  0  0  # atno 10764 bound_to 10752
  153.0126  135.6382  154.1993 H   0  0  0  0  0  0  0  0  0  0  0  0  # atno 10765 bound_to 10752
  140.0670  134.5523  155.9089 H   0  0  0  0  0  0  0  0  0  0  0  0  # atno 11005 bound_to 11000
  146.1029  140.7522  142.9540 LP  0  0  0  0  0  0  0  0  0  0  0  0  # atno 17320 bound_to 7965
  144.7050  140.3816  143.7125 LP  0  0  0  0  0  0  0  0  0  0  0  0  # atno 17321 bound_to 7965
  140.2554  143.3562  152.1369 LP  0  0  0  0  0  0  0  0  0  0  0  0  # atno 17342 bound_to 10162
  139.5144  144.6948  151.5661 LP  0  0  0  0  0  0  0  0  0  0  0  0  # atno 17343 bound_to 10162
  157.6070  130.8554  149.8891 LP  0  0  0  0  0  0  0  0  0  0  0  0  # atno 17370 bound_to 10713
  156.0618  130.3698  150.0966 LP  0  0  0  0  0  0  0  0  0  0  0  0  # atno 17371 bound_to 10713
  141.1996  133.6608  156.5855 LP  0  0  0  0  0  0  0  0  0  0  0  0  # atno 17394 bound_to 11000
  140.3684  134.7627  157.4582 LP  0  0  0  0  0  0  0  0  0  0  0  0  # atno 17395 bound_to 11000

$$$$
