AV-unprocessed.smi:338|AV-procd|sdf|2374|dock5
  -GOLD-   2262022293D 1   1.00000     0.00000
 Structure written by MMmdl.
 41 43  0  0  0  0  0  0  0  0  1 V2000
  154.5477  133.6360  159.3711 C   0  0  0  0  0  0  0  0  0  0  0  0
  154.3289  132.5076  160.3778 C   0  0  0  0  0  0  0  0  0  0  0  0
  154.3472  131.3452  159.9736 O   0  0  0  0  0  0  0  0  0  0  0  0
  154.1047  132.8802  161.8044 C   0  0  0  0  0  0  0  0  0  0  0  0
  153.7192  131.9207  162.7693 C   0  0  0  0  0  0  0  0  0  0  0  0
  153.5141  132.3024  164.1075 C   0  0  0  0  0  0  0  0  0  0  0  0
  153.6920  133.6424  164.4953 C   0  0  0  0  0  0  0  0  0  0  0  0
  154.0777  134.6174  163.5547 C   0  0  0  0  0  0  0  0  0  0  0  0
  154.2308  135.9062  164.0199 O   0  0  0  0  0  0  0  0  0  0  0  0
  155.1205  136.7728  163.3276 C   0  0  0  0  0  0  0  0  0  0  0  0
  154.3028  137.7793  162.5050 C   0  0  2  0  0  0  0  0  0  0  0  0
  153.5596  137.0646  161.5372 O   0  0  0  0  0  0  0  0  0  0  0  0
  155.1885  138.8317  161.8102 C   0  0  0  0  0  0  0  0  0  0  0  0
  154.4188  139.7555  160.9962 N   0  0  0  0  0  0  0  0  0  0  0  0
  154.0751  139.6013  159.7030 C   0  0  0  0  0  0  0  0  0  0  0  0
  153.3611  140.5730  159.1421 N   0  0  0  0  0  0  0  0  0  0  0  0
  153.2233  141.4619  160.1945 C   0  0  0  0  0  0  0  0  0  0  0  0
  152.5634  142.7099  160.2609 C   0  0  0  0  0  0  0  0  0  0  0  0
  152.5573  143.4521  161.4605 C   0  0  0  0  0  0  0  0  0  0  0  0
  153.2108  142.9602  162.6091 C   0  0  0  0  0  0  0  0  0  0  0  0
  153.8746  141.7191  162.5675 C   0  0  0  0  0  0  0  0  0  0  0  0
  153.8759  140.9804  161.3696 C   0  0  0  0  0  0  0  0  0  0  0  0
  154.2816  134.2251  162.2072 C   0  0  0  0  0  0  0  0  0  0  0  0
  155.4271  134.2219  159.6386 H   0  0  0  0  0  0  0  0  0  0  0  0
  153.6806  134.2959  159.3416 H   0  0  0  0  0  0  0  0  0  0  0  0
  154.7009  133.2306  158.3706 H   0  0  0  0  0  0  0  0  0  0  0  0
  153.5745  130.8837  162.5058 H   0  0  0  0  0  0  0  0  0  0  0  0
  153.2195  131.5644  164.8391 H   0  0  0  0  0  0  0  0  0  0  0  0
  153.5320  133.9246  165.5256 H   0  0  0  0  0  0  0  0  0  0  0  0
  155.7681  137.3022  164.0287 H   0  0  0  0  0  0  0  0  0  0  0  0
  155.7522  136.1840  162.6600 H   0  0  0  0  0  0  0  0  0  0  0  0
  153.5903  138.2789  163.1625 H   0  0  0  0  0  0  0  0  0  0  0  0
  153.3746  136.2028  161.8784 H   0  0  0  0  0  0  0  0  0  0  0  0
  155.7395  139.4116  162.5521 H   0  0  0  0  0  0  0  0  0  0  0  0
  155.9353  138.3478  161.1795 H   0  0  0  0  0  0  0  0  0  0  0  0
  154.3680  138.7260  159.1417 H   0  0  0  0  0  0  0  0  0  0  0  0
  152.0601  143.0970  159.3872 H   0  0  0  0  0  0  0  0  0  0  0  0
  152.0491  144.4044  161.4991 H   0  0  0  0  0  0  0  0  0  0  0  0
  153.2022  143.5365  163.5226 H   0  0  0  0  0  0  0  0  0  0  0  0
  154.3778  141.3400  163.4447 H   0  0  0  0  0  0  0  0  0  0  0  0
  154.5744  134.9532  161.4658 H   0  0  0  0  0  0  0  0  0  0  0  0
  1  2  1  0  0  0  0
  1 24  1  0  0  0  0
  1 25  1  0  0  0  0
  1 26  1  0  0  0  0
  2  3  2  0  0  0  0
  2  4  1  0  0  0  0
  4 23  1  0  0  0  0
  4  5  2  0  0  0  0
  5  6  1  0  0  0  0
  5 27  1  0  0  0  0
  6  7  2  0  0  0  0
  6 28  1  0  0  0  0
  7  8  1  0  0  0  0
  7 29  1  0  0  0  0
  8  9  1  0  0  0  0
  8 23  2  0  0  0  0
  9 10  1  0  0  0  0
 10 11  1  0  0  0  0
 10 30  1  0  0  0  0
 10 31  1  0  0  0  0
 11 12  1  0  0  0  0
 11 13  1  0  0  0  0
 11 32  1  0  0  0  0
 12 33  1  0  0  0  0
 13 14  1  0  0  0  0
 13 34  1  0  0  0  0
 13 35  1  0  0  0  0
 14 22  1  0  0  0  0
 14 15  1  0  0  0  0
 15 16  2  0  0  0  0
 15 36  1  0  0  0  0
 16 17  1  0  0  0  0
 17 22  2  0  0  0  0
 17 18  1  0  0  0  0
 18 19  2  0  0  0  0
 18 37  1  0  0  0  0
 19 20  1  0  0  0  0
 19 38  1  0  0  0  0
 20 21  2  0  0  0  0
 20 39  1  0  0  0  0
 21 22  1  0  0  0  0
 21 40  1  0  0  0  0
 23 41  1  0  0  0  0
M  END
> <s_m_source_file>
AV-unprocessed.smi

> <i_m_source_file_index>
338

> <i_lp_mmshare_version>
43012

> <i_f3d_flags>
0

> <s_epik_input>
W0NIM11DKD1PKWMxW2NIXVtjSF1bY0hdYyhbY0hdMSlPW0NIMl1bQ0BIXShbT0hdKVtDSDJdbihbY0hdbjIpYyhjMjMpW2NIXVtjSF1bY0hdW2NIXTM=

> <s_epik_cmdline>
J2VwaWtfcHl0aG9uJywgJy1waCcsICc3LjAnLCAnLXRuJywgJzgnLCAnLW1hJywgJzIwMCcsICctbWV0YWxfYmluZGluZycsICctaW1hZScsICc8aW5maWxlLm1hZT4nLCAnLW9tYWUnLCAnPG91dGZpbGUubWFlPic=

> <r_lp_tautomer_probability>
0.99995

> <r_epik_Ionization_Penalty>
0.0640132

> <r_epik_Ionization_Penalty_Charging>
0

> <r_epik_Ionization_Penalty_Neutral>
0.0640132

> <r_epik_State_Penalty>
0.0557325

> <r_epik_Charging_Adjusted_Penalty>
0.0557325

> <i_epik_Tot_Q>
0

> <i_epik_Tot_abs_Q>
0

> <r_epik_Metal_State_Penalty>
5.8435e-05

> <b_epik_Metal_Only>
0

> <s_lp_Force_Field>
OPLS_2005

> <r_lp_Energy>
20.8584

> <b_lp_Chiralities_Consistent>
1

> <s_lp_Variant>
AV-unprocessed.smi:338-1

> <Gold.Version>
5.8.1

> <Gold.Id.Protein>
6NUR|6NUR_protein|mol2

> <Gold.PLP.Fitness>
46.8245

> <Gold.PLP.PLP>
-46.1133

> <Gold.PLP.part.hbond>
-1.0000

> <Gold.PLP.part.metal>
0.0000

> <Gold.PLP.part.buried>
-3.4463

> <Gold.PLP.part.nonpolar>
-41.6912

> <Gold.PLP.part.repulsive>
0.0957

> <Gold.PLP.ligand.clash>
0.0000

> <Gold.PLP.ligand.torsion>
1.0982

> <Gold.PLP.Chemscore.Hbond>
0.9440

> <Gold.PLP.Chemscore.CHOScore>
0.0000

> <Gold.PLP.Chemscore.Metal>
0.0000

> <Gold.PLP.Chemscore.Internal.Correction>
0.0756

> <Gold.Rescore>
     Score         DG    S(hbond)    S(metal)    S(lipo)     H(rot)  DE(clash)    DE(int)     intcor
     16.28     -17.40       0.96        0.00     126.93       2.40       0.18       0.94       ----

> <Gold.Chemscore.Fitness>
16.2794

> <Gold.Chemscore.DG>
-17.4040

> <Gold.Chemscore.ZeroCoef>
-5.4800

> <Gold.Chemscore.Hbond>
0.9637

> <Gold.Chemscore.Metal>
0.0000

> <Gold.Chemscore.Lipo>
126.9260

> <Gold.Chemscore.Internal_Hbond>
0.0000

> <Gold.Chemscore.DEClash>
0.1816

> <Gold.Chemscore.DEInternal>
0.9430

> <Gold.Chemscore.Rot>
2.4005

> <Gold.Chemscore.Internal.Correction>
   9.000000E+99

> <Gold.Chemscore.Hbond.Weighted>
-3.2189

> <Gold.Chemscore.Metal.Weighted>
-0.0000

> <Gold.Chemscore.Lipo.Weighted>
-14.8503

> <Gold.Chemscore.Internal_Hbond.Weighted>
0.0000

> <Gold.Chemscore.DEClash.Weighted>
0.1816

> <Gold.Chemscore.DEInternal.Weighted>
0.9430

> <Gold.Chemscore.Rot.Weighted>
6.1453

> <Gold.Chemscore.Internal.Correction.Weighted>
   9.000000E+99

> <Gold.Protein.RotatedTorsions>
[ 6907 6896 6895 6894 ] final  -50.97 input  -60.11 | X-H torsion
[ 7974 7965 7964 7962 ] final -152.98 input  175.53 | X-H torsion
[ 8008 7997 7996 7995 ] final  133.10 input   59.86 | X-H torsion
[ 10167 10162 10161 10158 ] final  161.75 input  -65.29 | X-H torsion
[ 10718 10713 10712 10709 ] final  158.14 input   66.30 | X-H torsion
[ 10763 10752 10751 10750 ] final   -1.34 input  -60.55 | X-H torsion
[ 11005 11000 10999 10996 ] final  170.65 input  -57.11 | X-H torsion

> <Gold.Protein.ActiveResidues>
 VAL166  LYS551  ARG553  GLY616  TRP617  ASP618  TYR619  PRO620  LYS621  CYS622 
 ASP623  PHE694  ASN695  SER759  ASP760  ASP761  ALA762  ILE779  LEU786  VAL792 
 PHE793  MET794  SER795  GLU796  ALA797  LYS798  CYS799  TRP800  GLU811  SER814 

> <Gold.Protein.RotatedAtoms>
  150.8656  134.8018  159.7115 H   0  0  0  0  0  0  0  0  0  0  0  0  # atno 6907 bound_to 6896
  152.4678  134.5029  159.9740 H   0  0  0  0  0  0  0  0  0  0  0  0  # atno 6908 bound_to 6896
  151.5126  133.3443  159.2923 H   0  0  0  0  0  0  0  0  0  0  0  0  # atno 6909 bound_to 6896
  144.7765  140.4589  143.5869 H   0  0  0  0  0  0  0  0  0  0  0  0  # atno 7974 bound_to 7965
  156.2989  140.2530  156.3197 H   0  0  0  0  0  0  0  0  0  0  0  0  # atno 8008 bound_to 7997
  154.9247  140.0400  157.2035 H   0  0  0  0  0  0  0  0  0  0  0  0  # atno 8009 bound_to 7997
  154.8276  140.2870  155.5748 H   0  0  0  0  0  0  0  0  0  0  0  0  # atno 8010 bound_to 7997
  139.4853  144.4506  151.8835 H   0  0  0  0  0  0  0  0  0  0  0  0  # atno 10167 bound_to 10162
  157.1819  131.0634  151.2127 H   0  0  0  0  0  0  0  0  0  0  0  0  # atno 10718 bound_to 10713
  153.3436  135.6982  153.6846 H   0  0  0  0  0  0  0  0  0  0  0  0  # atno 10763 bound_to 10752
  153.5601  135.3536  155.2796 H   0  0  0  0  0  0  0  0  0  0  0  0  # atno 10764 bound_to 10752
  154.8641  135.4247  154.2655 H   0  0  0  0  0  0  0  0  0  0  0  0  # atno 10765 bound_to 10752
  140.3106  134.7519  157.3988 H   0  0  0  0  0  0  0  0  0  0  0  0  # atno 11005 bound_to 11000
  145.6171  139.1520  143.3043 LP  0  0  0  0  0  0  0  0  0  0  0  0  # atno 17320 bound_to 7965
  146.1948  140.6283  142.9129 LP  0  0  0  0  0  0  0  0  0  0  0  0  # atno 17321 bound_to 7965
  140.3962  144.2552  150.5896 LP  0  0  0  0  0  0  0  0  0  0  0  0  # atno 17342 bound_to 10162
  140.5100  143.2293  151.8550 LP  0  0  0  0  0  0  0  0  0  0  0  0  # atno 17343 bound_to 10162
  157.3944  130.7299  149.6721 LP  0  0  0  0  0  0  0  0  0  0  0  0  # atno 17370 bound_to 10713
  155.9723  130.4137  150.4098 LP  0  0  0  0  0  0  0  0  0  0  0  0  # atno 17371 bound_to 10713
  140.1028  134.5450  155.8337 LP  0  0  0  0  0  0  0  0  0  0  0  0  # atno 17394 bound_to 11000
  141.2109  133.6700  156.6541 LP  0  0  0  0  0  0  0  0  0  0  0  0  # atno 17395 bound_to 11000

$$$$
