AV-unprocessed.smi:763|AV-procd|sdf|3638|dock6
  -GOLD-   22720 1 33D 1   1.00000     0.00000
 Structure written by MMmdl.
 43 44  0  0  0  0  0  0  0  0  2 V2000
  145.5814  142.8175  162.0516 C   0  0  0  0  0  0  0  0  0  0  0  0
  146.9001  143.1285  161.6385 O   0  0  0  0  0  0  0  0  0  0  0  0
  147.0962  144.5198  161.4462 C   0  0  0  0  0  0  0  0  0  0  0  0
  148.5733  144.7762  161.1084 C   0  0  0  0  0  0  0  0  0  0  0  0
  148.9925  144.0059  159.9815 O   0  0  0  0  0  0  0  0  0  0  0  0
  150.2328  144.2291  159.4072 C   0  0  0  0  0  0  0  0  0  0  0  0
  151.0375  145.1681  159.9673 N   0  0  0  0  0  0  0  0  0  0  0  0
  152.2491  145.3885  159.4226 C   0  0  0  0  0  0  0  0  0  0  0  0
  152.7216  144.6886  158.3008 C   0  0  0  0  0  0  0  0  0  0  0  0
  151.8863  143.7150  157.7244 C   0  0  0  0  0  0  0  0  0  0  0  0
  150.6049  143.4619  158.2734 C   0  0  0  0  0  0  0  0  0  0  0  0
  149.7604  142.5465  157.7680 N   0  5  0  0  0  0  0  0  0  0  0  0
  150.1689  141.1590  157.0413 S   0  0  0  0  0  0  0  0  0  0  0  0
  151.6231  141.0625  156.8426 O   0  0  0  0  0  0  0  0  0  0  0  0
  149.5062  140.0026  157.6648 O   0  0  0  0  0  0  0  0  0  0  0  0
  149.3849  141.3877  155.3681 C   0  0  2  0  0  0  0  0  0  0  0  0
  147.9092  141.8104  155.5483 C   0  0  0  0  0  0  0  0  0  0  0  0
  147.1879  141.9795  154.2044 C   0  0  0  0  0  0  0  0  0  0  0  0
  147.2558  140.6835  153.3873 C   0  0  0  0  0  0  0  0  0  0  0  0
  148.7135  140.2579  153.1688 C   0  0  0  0  0  0  0  0  0  0  0  0
  149.4761  140.1051  154.5003 C   0  0  1  0  0  0  0  0  0  0  0  0
  150.8147  139.7979  154.1665 O   0  0  0  0  0  0  0  0  0  0  0  0
  145.4858  141.7406  162.1902 H   0  0  0  0  0  0  0  0  0  0  0  0
  144.8508  143.1266  161.3030 H   0  0  0  0  0  0  0  0  0  0  0  0
  145.3393  143.3016  162.9987 H   0  0  0  0  0  0  0  0  0  0  0  0
  146.4374  144.9008  160.6651 H   0  0  0  0  0  0  0  0  0  0  0  0
  146.8420  145.0447  162.3683 H   0  0  0  0  0  0  0  0  0  0  0  0
  148.7605  145.8395  160.9531 H   0  0  0  0  0  0  0  0  0  0  0  0
  149.1926  144.4967  161.9608 H   0  0  0  0  0  0  0  0  0  0  0  0
  152.8590  146.1438  159.8954 H   0  0  0  0  0  0  0  0  0  0  0  0
  153.6997  144.8915  157.8910 H   0  0  0  0  0  0  0  0  0  0  0  0
  152.2441  143.1732  156.8615 H   0  0  0  0  0  0  0  0  0  0  0  0
  149.9281  142.1908  154.8688 H   0  0  0  0  0  0  0  0  0  0  0  0
  147.3786  141.0651  156.1419 H   0  0  0  0  0  0  0  0  0  0  0  0
  147.8519  142.7441  156.1082 H   0  0  0  0  0  0  0  0  0  0  0  0
  146.1478  142.2595  154.3735 H   0  0  0  0  0  0  0  0  0  0  0  0
  147.6430  142.7963  153.6424 H   0  0  0  0  0  0  0  0  0  0  0  0
  146.7149  139.8913  153.9063 H   0  0  0  0  0  0  0  0  0  0  0  0
  146.7597  140.8218  152.4263 H   0  0  0  0  0  0  0  0  0  0  0  0
  148.7411  139.3202  152.6122 H   0  0  0  0  0  0  0  0  0  0  0  0
  149.2097  141.0015  152.5429 H   0  0  0  0  0  0  0  0  0  0  0  0
  149.0622  139.2635  155.0572 H   0  0  0  0  0  0  0  0  0  0  0  0
  151.1398  139.1600  154.7827 H   0  0  0  0  0  0  0  0  0  0  0  0
  1  2  1  0  0  0  0
  1 23  1  0  0  0  0
  1 24  1  0  0  0  0
  1 25  1  0  0  0  0
  2  3  1  0  0  0  0
  3  4  1  0  0  0  0
  3 26  1  0  0  0  0
  3 27  1  0  0  0  0
  4  5  1  0  0  0  0
  4 28  1  0  0  0  0
  4 29  1  0  0  0  0
  5  6  1  0  0  0  0
  6 11  1  0  0  0  0
  6  7  2  0  0  0  0
  7  8  1  0  0  0  0
  8  9  2  0  0  0  0
  8 30  1  0  0  0  0
  9 10  1  0  0  0  0
  9 31  1  0  0  0  0
 10 11  2  0  0  0  0
 10 32  1  0  0  0  0
 11 12  1  0  0  0  0
 12 13  1  0  0  0  0
 13 14  2  0  0  0  0
 13 15  2  0  0  0  0
 13 16  1  0  0  0  0
 16 21  1  0  0  0  0
 16 17  1  0  0  0  0
 16 33  1  0  0  0  0
 17 18  1  0  0  0  0
 17 34  1  0  0  0  0
 17 35  1  0  0  0  0
 18 19  1  0  0  0  0
 18 36  1  0  0  0  0
 18 37  1  0  0  0  0
 19 20  1  0  0  0  0
 19 38  1  0  0  0  0
 19 39  1  0  0  0  0
 20 21  1  0  0  0  0
 20 40  1  0  0  0  0
 20 41  1  0  0  0  0
 21 22  1  0  0  0  0
 21 42  1  0  0  0  0
 22 43  1  0  0  0  0
M  CHG  1  12  -1
M  END
> <s_m_source_file>
AV-unprocessed.smi

> <i_m_source_file_index>
763

> <i_lp_mmshare_version>
43012

> <i_f3d_flags>
0

> <s_epik_input>
W0NIM11PW0NIMl1bQ0gyXU9jMW5bY0hdW2NIXVtjSF1jMVtOSF1TKD1PKSg9TylbQ0BASF0yW0NIMl1bQ0gyXVtDSDJdW0NIMl1bQ0BIXTJbT0hd

> <s_epik_cmdline>
J2VwaWtfcHl0aG9uJywgJy1waCcsICc3LjAnLCAnLXRuJywgJzgnLCAnLW1hJywgJzIwMCcsICctbWV0YWxfYmluZGluZycsICctaW1hZScsICc8aW5maWxlLm1hZT4nLCAnLW9tYWUnLCAnPG91dGZpbGUubWFlPic=

> <r_epik_Ionization_Penalty>
0.985866

> <r_epik_Ionization_Penalty_Charging>
0.984689

> <r_epik_Ionization_Penalty_Neutral>
0.00117669

> <r_epik_State_Penalty>
1.03185

> <r_epik_Charging_Adjusted_Penalty>
2.01654

> <i_epik_Tot_Q>
-1

> <i_epik_Tot_abs_Q>
1

> <r_epik_Metal_State_Penalty>
0.379327

> <b_epik_Metal_Only>
0

> <s_lp_Force_Field>
OPLS_2005

> <r_lp_Energy>
11.4471

> <b_lp_Chiralities_Consistent>
1

> <s_lp_Variant>
AV-unprocessed.smi:763-5

> <Gold.Version>
5.8.1

> <Gold.Id.Protein>
6NUR|6NUR_protein|mol2

> <Gold.PLP.Fitness>
49.8022

> <Gold.PLP.PLP>
-44.4684

> <Gold.PLP.part.hbond>
-2.5227

> <Gold.PLP.part.metal>
0.0000

> <Gold.PLP.part.buried>
-2.2273

> <Gold.PLP.part.nonpolar>
-38.6162

> <Gold.PLP.part.repulsive>
0.5635

> <Gold.PLP.ligand.clash>
0.0000

> <Gold.PLP.ligand.torsion>
0.9820

> <Gold.PLP.Chemscore.Hbond>
2.0000

> <Gold.PLP.Chemscore.CHOScore>
0.0000

> <Gold.PLP.Chemscore.Metal>
0.0000

> <Gold.Chemscore.Hbonds>
donor molecule, donor type, donor heavy atom, donor atom, acceptor molecule, acceptor atom, score
      P1  H  6933  6944       L1     2  0.90
      P1  H  7989  7998       L1    22  0.93

> <Gold.PLP.Chemscore.Internal.Correction>
1.2977

> <Gold.Rescore>
     Score         DG    S(hbond)    S(metal)    S(lipo)     H(rot)  DE(clash)    DE(int)     intcor
     14.47     -18.17       1.88        0.00     106.30       2.35       1.42       2.29       ----

> <Gold.Chemscore.Fitness>
14.4658

> <Gold.Chemscore.DG>
-18.1714

> <Gold.Chemscore.ZeroCoef>
-5.4800

> <Gold.Chemscore.Hbond>
1.8780

> <Gold.Chemscore.Metal>
0.0000

> <Gold.Chemscore.Lipo>
106.3010

> <Gold.Chemscore.Internal_Hbond>
0.0000

> <Gold.Chemscore.DEClash>
1.4176

> <Gold.Chemscore.DEInternal>
2.2880

> <Gold.Chemscore.Rot>
2.3509

> <Gold.Chemscore.Internal.Correction>
   9.000000E+99

> <Gold.Chemscore.Hbonds>
donor molecule, donor type, donor heavy atom, donor atom, acceptor molecule, acceptor atom, score
      P1  H  6933  6944       L1     2  0.52
      P1  H  7989  7998       L1    22  0.85

> <Gold.Chemscore.Hbond.Weighted>
-6.2724

> <Gold.Chemscore.Metal.Weighted>
-0.0000

> <Gold.Chemscore.Lipo.Weighted>
-12.4372

> <Gold.Chemscore.Internal_Hbond.Weighted>
0.0000

> <Gold.Chemscore.DEClash.Weighted>
1.4176

> <Gold.Chemscore.DEInternal.Weighted>
2.2880

> <Gold.Chemscore.Rot.Weighted>
6.0182

> <Gold.Chemscore.Internal.Correction.Weighted>
   9.000000E+99

> <Gold.Protein.RotatedTorsions>
[ 6907 6896 6895 6894 ] final  -50.39 input  -60.11 | X-H torsion
[ 7974 7965 7964 7962 ] final  167.00 input  175.53 | X-H torsion
[ 8008 7997 7996 7995 ] final -142.49 input   59.86 | X-H torsion
[ 10167 10162 10161 10158 ] final -103.61 input  -65.29 | X-H torsion
[ 10718 10713 10712 10709 ] final  129.71 input   66.30 | X-H torsion
[ 10763 10752 10751 10750 ] final -165.71 input  -60.55 | X-H torsion
[ 11005 11000 10999 10996 ] final   66.04 input  -57.11 | X-H torsion

> <Gold.Protein.ActiveResidues>
 VAL166  LYS551  ARG553  GLY616  TRP617  ASP618  TYR619  PRO620  LYS621  CYS622 
 ASP623  PHE694  ASN695  SER759  ASP760  ASP761  ALA762  ILE779  LEU786  VAL792 
 PHE793  MET794  SER795  GLU796  ALA797  LYS798  CYS799  TRP800  GLU811  SER814 

> <Gold.Protein.RotatedAtoms>
  150.8712  134.8086  159.7155 H   0  0  0  0  0  0  0  0  0  0  0  0  # atno 6907 bound_to 6896
  152.4716  134.4944  159.9715 H   0  0  0  0  0  0  0  0  0  0  0  0  # atno 6908 bound_to 6896
  151.5032  133.3461  159.2908 H   0  0  0  0  0  0  0  0  0  0  0  0  # atno 6909 bound_to 6896
  144.7441  139.8698  143.6388 H   0  0  0  0  0  0  0  0  0  0  0  0  # atno 7974 bound_to 7965
  155.4951  140.0571  157.2948 H   0  0  0  0  0  0  0  0  0  0  0  0  # atno 8008 bound_to 7997
  154.4608  140.1995  156.0200 H   0  0  0  0  0  0  0  0  0  0  0  0  # atno 8009 bound_to 7997
  156.0886  140.3236  155.7791 H   0  0  0  0  0  0  0  0  0  0  0  0  # atno 8010 bound_to 7997
  140.2182  143.3696  152.0993 H   0  0  0  0  0  0  0  0  0  0  0  0  # atno 10167 bound_to 10162
  157.5129  131.1097  150.9267 H   0  0  0  0  0  0  0  0  0  0  0  0  # atno 10718 bound_to 10713
  154.6905  135.2970  154.9486 H   0  0  0  0  0  0  0  0  0  0  0  0  # atno 10763 bound_to 10752
  154.0450  135.6652  153.4798 H   0  0  0  0  0  0  0  0  0  0  0  0  # atno 10764 bound_to 10752
  153.0609  135.5116  154.7995 H   0  0  0  0  0  0  0  0  0  0  0  0  # atno 10765 bound_to 10752
  139.9857  134.6672  156.0181 H   0  0  0  0  0  0  0  0  0  0  0  0  # atno 11005 bound_to 11000
  146.1289  139.4320  143.0181 LP  0  0  0  0  0  0  0  0  0  0  0  0  # atno 17320 bound_to 7965
  145.7194  141.0080  143.1411 LP  0  0  0  0  0  0  0  0  0  0  0  0  # atno 17321 bound_to 7965
  139.5154  144.6962  151.5622 LP  0  0  0  0  0  0  0  0  0  0  0  0  # atno 17342 bound_to 10162
  140.6274  143.9141  150.6576 LP  0  0  0  0  0  0  0  0  0  0  0  0  # atno 17343 bound_to 10162
  156.9902  130.5560  149.5302 LP  0  0  0  0  0  0  0  0  0  0  0  0  # atno 17370 bound_to 10713
  156.0301  130.5392  150.8511 LP  0  0  0  0  0  0  0  0  0  0  0  0  # atno 17371 bound_to 10713
  141.1522  133.6547  156.4049 LP  0  0  0  0  0  0  0  0  0  0  0  0  # atno 17394 bound_to 11000
  140.5008  134.6488  157.5247 LP  0  0  0  0  0  0  0  0  0  0  0  0  # atno 17395 bound_to 11000

$$$$
