AV-unprocessed.smi:1677|AV-procd|sdf|6726|dock9
  -GOLD-   22720 7473D 1   1.00000     0.00000
 Structure written by MMmdl.
 36 37  0  0  0  0  0  0  0  0  1 V2000
  151.7374  139.9413  155.1785 C   0  0  0  0  0  0  0  0  0  0  0  0
  150.7118  140.6990  156.0320 C   0  0  2  0  0  0  0  0  0  0  0  0
  149.9782  141.7763  155.2053 C   0  0  0  0  0  0  0  0  0  0  0  0
  148.7901  141.2640  154.5472 N   0  0  0  0  0  0  0  0  0  0  0  0
  147.6178  141.9569  154.2764 C   0  0  0  0  0  0  0  0  0  0  0  0
  146.7799  141.0746  153.6327 C   0  0  0  0  0  0  0  0  0  0  0  0
  147.4095  139.8390  153.5030 N   0  0  0  0  0  0  0  0  0  0  0  0
  148.5938  140.0270  154.0701 C   0  0  0  0  0  0  0  0  0  0  0  0
  151.3971  141.3006  157.1752 N   0  0  0  0  0  0  0  0  0  0  0  0
  150.8689  142.1987  158.0225 C   0  0  0  0  0  0  0  0  0  0  0  0
  149.7063  142.5975  157.9490 O   0  0  0  0  0  0  0  0  0  0  0  0
  151.8042  142.7433  159.1089 C   0  0  1  0  0  0  0  0  0  0  0  0
  151.0852  143.8048  159.9726 C   0  0  0  0  0  0  0  0  0  0  0  0
  151.8879  144.1782  161.2064 C   0  0  0  0  0  0  0  0  0  0  0  0
  152.9128  143.4436  161.6717 C   0  0  0  0  0  0  0  0  0  0  0  0
  153.3818  142.1551  161.0193 C   0  0  0  0  0  0  0  0  0  0  0  0
  152.3642  141.6140  159.9971 C   0  0  0  0  0  0  0  0  0  0  0  0
  151.2562  139.4509  154.3318 H   0  0  0  0  0  0  0  0  0  0  0  0
  152.2406  139.1693  155.7618 H   0  0  0  0  0  0  0  0  0  0  0  0
  152.5007  140.6129  154.7841 H   0  0  0  0  0  0  0  0  0  0  0  0
  149.9803  139.9671  156.3794 H   0  0  0  0  0  0  0  0  0  0  0  0
  149.6959  142.6201  155.8367 H   0  0  0  0  0  0  0  0  0  0  0  0
  150.6404  142.1720  154.4342 H   0  0  0  0  0  0  0  0  0  0  0  0
  147.4839  142.9931  154.5500 H   0  0  0  0  0  0  0  0  0  0  0  0
  145.7800  141.2326  153.2560 H   0  0  0  0  0  0  0  0  0  0  0  0
  149.3405  139.2488  154.1307 H   0  0  0  0  0  0  0  0  0  0  0  0
  152.3604  141.0329  157.3172 H   0  0  0  0  0  0  0  0  0  0  0  0
  152.6522  143.2247  158.6179 H   0  0  0  0  0  0  0  0  0  0  0  0
  150.9144  144.7060  159.3824 H   0  0  0  0  0  0  0  0  0  0  0  0
  150.1064  143.4530  160.3021 H   0  0  0  0  0  0  0  0  0  0  0  0
  151.5925  145.0779  161.7260 H   0  0  0  0  0  0  0  0  0  0  0  0
  153.4534  143.7704  162.5479 H   0  0  0  0  0  0  0  0  0  0  0  0
  154.3370  142.3521  160.5320 H   0  0  0  0  0  0  0  0  0  0  0  0
  153.5666  141.4070  161.7905 H   0  0  0  0  0  0  0  0  0  0  0  0
  151.5450  141.1315  160.5328 H   0  0  0  0  0  0  0  0  0  0  0  0
  152.8323  140.8386  159.3891 H   0  0  0  0  0  0  0  0  0  0  0  0
  1  2  1  0  0  0  0
  1 18  1  0  0  0  0
  1 19  1  0  0  0  0
  1 20  1  0  0  0  0
  2  3  1  0  0  0  0
  2  9  1  0  0  0  0
  2 21  1  0  0  0  0
  3  4  1  0  0  0  0
  3 22  1  0  0  0  0
  3 23  1  0  0  0  0
  4  8  1  0  0  0  0
  4  5  1  0  0  0  0
  5  6  2  0  0  0  0
  5 24  1  0  0  0  0
  6  7  1  0  0  0  0
  6 25  1  0  0  0  0
  7  8  2  0  0  0  0
  8 26  1  0  0  0  0
  9 10  1  0  0  0  0
  9 27  1  0  0  0  0
 10 11  2  0  0  0  0
 10 12  1  0  0  0  0
 12 17  1  0  0  0  0
 12 13  1  0  0  0  0
 12 28  1  0  0  0  0
 13 14  1  0  0  0  0
 13 29  1  0  0  0  0
 13 30  1  0  0  0  0
 14 15  2  0  0  0  0
 14 31  1  0  0  0  0
 15 16  1  0  0  0  0
 15 32  1  0  0  0  0
 16 17  1  0  0  0  0
 16 33  1  0  0  0  0
 16 34  1  0  0  0  0
 17 35  1  0  0  0  0
 17 36  1  0  0  0  0
M  END
> <s_m_source_file>
AV-unprocessed.smi

> <i_m_source_file_index>
1677

> <i_lp_mmshare_version>
43012

> <i_f3d_flags>
0

> <s_epik_input>
W2NIXTFuW2NIXVtjSF1uMVtDSDJdW0NAQEhdKFtDSDNdKVtOSF1DKD1PKVtDQEBIXTJbQ0gyXVtDSF09W0NIXVtDSDJdW0NIMl0y

> <s_epik_cmdline>
J2VwaWtfcHl0aG9uJywgJy1waCcsICc3LjAnLCAnLXRuJywgJzgnLCAnLW1hJywgJzIwMCcsICctbWV0YWxfYmluZGluZycsICctaW1hZScsICc8aW5maWxlLm1hZT4nLCAnLW9tYWUnLCAnPG91dGZpbGUubWFlPic=

> <r_lp_tautomer_probability>
1

> <r_epik_Ionization_Penalty>
0.640435

> <r_epik_Ionization_Penalty_Charging>
0.640435

> <r_epik_Ionization_Penalty_Neutral>
2.11108e-08

> <r_epik_State_Penalty>
0.658069

> <r_epik_Charging_Adjusted_Penalty>
1.2985

> <i_epik_Tot_Q>
0

> <i_epik_Tot_abs_Q>
0

> <r_epik_Metal_State_Penalty>
0.311689

> <b_epik_Metal_Only>
0

> <s_lp_Force_Field>
OPLS_2005

> <r_lp_Energy>
9.94345

> <b_lp_Chiralities_Consistent>
1

> <s_lp_Variant>
AV-unprocessed.smi:1677-7

> <Gold.Version>
5.8.1

> <Gold.Id.Protein>
6NUR|6NUR_protein|mol2

> <Gold.PLP.Fitness>
41.5385

> <Gold.PLP.PLP>
-37.2804

> <Gold.PLP.part.hbond>
0.0000

> <Gold.PLP.part.metal>
0.0000

> <Gold.PLP.part.buried>
-2.8317

> <Gold.PLP.part.nonpolar>
-34.4160

> <Gold.PLP.part.repulsive>
0.4359

> <Gold.PLP.ligand.clash>
0.0000

> <Gold.PLP.ligand.torsion>
0.8683

> <Gold.PLP.Chemscore.Hbond>
0.0000

> <Gold.PLP.Chemscore.CHOScore>
1.9895

> <Gold.PLP.Chemscore.Metal>
0.0000

> <Gold.Chemscore.Hbonds>
donor molecule, donor type, donor heavy atom, donor atom, acceptor molecule, acceptor atom, score
      L1  C     5    24       P1  8028  1.00
      L1  C     6    25       P1 10175  1.00

> <Gold.PLP.Chemscore.Internal.Correction>
0.0263

> <Gold.Rescore>
     Score         DG    S(hbond)    S(metal)    S(lipo)     H(rot)  DE(clash)    DE(int)     intcor
      9.99     -12.60       0.00        0.00      99.08       1.75       0.33       2.28       ----

> <Gold.Chemscore.Fitness>
9.9876

> <Gold.Chemscore.DG>
-12.5984

> <Gold.Chemscore.ZeroCoef>
-5.4800

> <Gold.Chemscore.Hbond>
0.0000

> <Gold.Chemscore.Metal>
0.0000

> <Gold.Chemscore.Lipo>
99.0768

> <Gold.Chemscore.Internal_Hbond>
0.0000

> <Gold.Chemscore.DEClash>
0.3314

> <Gold.Chemscore.DEInternal>
2.2794

> <Gold.Chemscore.Rot>
1.7475

> <Gold.Chemscore.Internal.Correction>
   9.000000E+99

> <Gold.Chemscore.Hbond.Weighted>
-0.0000

> <Gold.Chemscore.Metal.Weighted>
-0.0000

> <Gold.Chemscore.Lipo.Weighted>
-11.5920

> <Gold.Chemscore.Internal_Hbond.Weighted>
0.0000

> <Gold.Chemscore.DEClash.Weighted>
0.3314

> <Gold.Chemscore.DEInternal.Weighted>
2.2794

> <Gold.Chemscore.Rot.Weighted>
4.4735

> <Gold.Chemscore.Internal.Correction.Weighted>
   9.000000E+99

> <Gold.Protein.RotatedTorsions>
[ 6907 6896 6895 6894 ] final   11.36 input  -60.11 | X-H torsion
[ 7974 7965 7964 7962 ] final -139.87 input  175.53 | X-H torsion
[ 8008 7997 7996 7995 ] final   93.86 input   59.86 | X-H torsion
[ 10167 10162 10161 10158 ] final  115.93 input  -65.29 | X-H torsion
[ 10718 10713 10712 10709 ] final  154.98 input   66.30 | X-H torsion
[ 10763 10752 10751 10750 ] final    3.09 input  -60.55 | X-H torsion
[ 11005 11000 10999 10996 ] final  -26.98 input  -57.11 | X-H torsion

> <Gold.Protein.ActiveResidues>
 VAL166  LYS551  ARG553  GLY616  TRP617  ASP618  TYR619  PRO620  LYS621  CYS622 
 ASP623  PHE694  ASN695  SER759  ASP760  ASP761  ALA762  ILE779  LEU786  VAL792 
 PHE793  MET794  SER795  GLU796  ALA797  LYS798  CYS799  TRP800  GLU811  SER814 

> <Gold.Protein.RotatedAtoms>
  151.7530  135.0828  160.0333 H   0  0  0  0  0  0  0  0  0  0  0  0  # atno 6907 bound_to 6896
  152.3404  133.6056  159.5880 H   0  0  0  0  0  0  0  0  0  0  0  0  # atno 6908 bound_to 6896
  150.7476  133.9647  159.3568 H   0  0  0  0  0  0  0  0  0  0  0  0  # atno 6909 bound_to 6896
  144.8642  140.6267  143.5308 H   0  0  0  0  0  0  0  0  0  0  0  0  # atno 7974 bound_to 7965
  156.0515  140.3307  155.7356 H   0  0  0  0  0  0  0  0  0  0  0  0  # atno 8008 bound_to 7997
  155.5594  140.0617  157.2850 H   0  0  0  0  0  0  0  0  0  0  0  0  # atno 8009 bound_to 7997
  154.4438  140.1880  156.0755 H   0  0  0  0  0  0  0  0  0  0  0  0  # atno 8010 bound_to 7997
  139.6283  144.7111  151.2487 H   0  0  0  0  0  0  0  0  0  0  0  0  # atno 10167 bound_to 10162
  157.2244  131.0725  151.1892 H   0  0  0  0  0  0  0  0  0  0  0  0  # atno 10718 bound_to 10713
  153.2875  135.6946  153.7325 H   0  0  0  0  0  0  0  0  0  0  0  0  # atno 10763 bound_to 10752
  153.6289  135.3414  155.3036 H   0  0  0  0  0  0  0  0  0  0  0  0  # atno 10764 bound_to 10752
  154.8514  135.4404  154.1948 H   0  0  0  0  0  0  0  0  0  0  0  0  # atno 10765 bound_to 10752
  140.9078  133.7481  156.0630 H   0  0  0  0  0  0  0  0  0  0  0  0  # atno 11005 bound_to 11000
  145.4253  139.1557  143.4052 LP  0  0  0  0  0  0  0  0  0  0  0  0  # atno 17320 bound_to 7965
  146.2883  140.4366  142.8749 LP  0  0  0  0  0  0  0  0  0  0  0  0  # atno 17321 bound_to 7965
  140.7424  143.6527  150.8234 LP  0  0  0  0  0  0  0  0  0  0  0  0  # atno 17342 bound_to 10162
  140.0149  143.5604  152.2824 LP  0  0  0  0  0  0  0  0  0  0  0  0  # atno 17343 bound_to 10162
  157.3543  130.7098  149.6460 LP  0  0  0  0  0  0  0  0  0  0  0  0  # atno 17370 bound_to 10713
  155.9680  130.4243  150.4604 LP  0  0  0  0  0  0  0  0  0  0  0  0  # atno 17371 bound_to 10713
  140.8148  134.3357  157.5400 LP  0  0  0  0  0  0  0  0  0  0  0  0  # atno 17394 bound_to 11000
  139.8752  134.9275  156.3427 LP  0  0  0  0  0  0  0  0  0  0  0  0  # atno 17395 bound_to 11000

$$$$
