AV-unprocessed.smi:898|AV-procd|sdf|4085|dock9
  -GOLD-   22720 1573D 1   1.00000     0.00000
 Structure written by MMmdl.
 33 35  0  0  0  0  0  0  0  0  2 V2000
  152.3314  140.2096  156.8606 O   0  0  0  0  0  0  0  0  0  0  0  0
  151.4800  140.9488  156.3610 C   0  0  0  0  0  0  0  0  0  0  0  0
  150.6918  140.6608  155.3002 N   0  5  0  0  0  0  0  0  0  0  0  0
  149.4117  141.0672  155.2852 C   0  0  0  0  0  0  0  0  0  0  0  0
  148.6913  141.2132  156.4061 N   0  0  0  0  0  0  0  0  0  0  0  0
  147.3942  141.6434  156.1678 N   0  0  0  0  0  0  0  0  0  0  0  0
  147.1547  141.8243  154.8669 C   0  0  0  0  0  0  0  0  0  0  0  0
  145.8301  142.2809  154.3541 C   0  0  0  0  0  0  0  0  0  0  0  0
  145.7202  143.5182  153.4930 C   0  0  0  0  0  0  0  0  0  0  0  0
  145.1595  143.5261  154.8922 C   0  0  0  0  0  0  0  0  0  0  0  0
  148.5236  141.4843  153.8203 S   0  0  0  0  0  0  0  0  0  0  0  0
  151.2674  142.1695  156.8739 N   0  0  0  0  0  0  0  0  0  0  0  0
  151.9675  142.7621  158.0108 C   0  0  2  0  0  0  0  0  0  0  0  0
  151.9907  141.7775  159.1989 C   0  0  0  0  0  0  0  0  0  0  0  0
  152.7622  142.3295  160.4084 C   0  0  0  0  0  0  0  0  0  0  0  0
  152.1432  143.6230  160.9559 C   0  0  0  0  0  0  0  0  0  0  0  0
  152.1786  144.9443  159.7149 S   0  0  0  0  0  0  0  0  0  0  0  0
  151.2871  144.0902  158.3849 C   0  0  0  0  0  0  0  0  0  0  0  0
  145.1994  141.4293  154.1068 H   0  0  0  0  0  0  0  0  0  0  0  0
  146.6289  144.0891  153.3124 H   0  0  0  0  0  0  0  0  0  0  0  0
  145.0128  143.4928  152.6667 H   0  0  0  0  0  0  0  0  0  0  0  0
  144.0772  143.5048  155.0002 H   0  0  0  0  0  0  0  0  0  0  0  0
  145.6902  144.1168  155.6364 H   0  0  0  0  0  0  0  0  0  0  0  0
  150.5591  142.7362  156.4311 H   0  0  0  0  0  0  0  0  0  0  0  0
  152.9940  142.9831  157.7118 H   0  0  0  0  0  0  0  0  0  0  0  0
  150.9706  141.5310  159.4968 H   0  0  0  0  0  0  0  0  0  0  0  0
  152.4514  140.8386  158.8898 H   0  0  0  0  0  0  0  0  0  0  0  0
  152.7783  141.5770  161.1971 H   0  0  0  0  0  0  0  0  0  0  0  0
  153.8027  142.5059  160.1332 H   0  0  0  0  0  0  0  0  0  0  0  0
  151.1110  143.4508  161.2628 H   0  0  0  0  0  0  0  0  0  0  0  0
  152.6882  143.9582  161.8385 H   0  0  0  0  0  0  0  0  0  0  0  0
  151.2465  144.7537  157.5205 H   0  0  0  0  0  0  0  0  0  0  0  0
  150.2585  143.9176  158.7039 H   0  0  0  0  0  0  0  0  0  0  0  0
  1  2  2  0  0  0  0
  2  3  1  0  0  0  0
  2 12  1  0  0  0  0
  3  4  1  0  0  0  0
  4 11  1  0  0  0  0
  4  5  2  0  0  0  0
  5  6  1  0  0  0  0
  6  7  2  0  0  0  0
  7  8  1  0  0  0  0
  7 11  1  0  0  0  0
  8 10  1  0  0  0  0
  8  9  1  0  0  0  0
  8 19  1  0  0  0  0
  9 10  1  0  0  0  0
  9 20  1  0  0  0  0
  9 21  1  0  0  0  0
 10 22  1  0  0  0  0
 10 23  1  0  0  0  0
 12 13  1  0  0  0  0
 12 24  1  0  0  0  0
 13 18  1  0  0  0  0
 13 14  1  0  0  0  0
 13 25  1  0  0  0  0
 14 15  1  0  0  0  0
 14 26  1  0  0  0  0
 14 27  1  0  0  0  0
 15 16  1  0  0  0  0
 15 28  1  0  0  0  0
 15 29  1  0  0  0  0
 16 17  1  0  0  0  0
 16 30  1  0  0  0  0
 16 31  1  0  0  0  0
 17 18  1  0  0  0  0
 18 32  1  0  0  0  0
 18 33  1  0  0  0  0
M  CHG  1   3  -1
M  END
> <s_m_source_file>
AV-unprocessed.smi

> <i_m_source_file_index>
898

> <i_lp_mmshare_version>
43012

> <i_f3d_flags>
0

> <s_epik_input>
W0NIMl0xU1tDSDJdW0NIMl1bQ0gyXVtDQEhdMVtOSF1DKD1PKVtOSF1jMm5uYyhzMilbQ0hdM1tDSDJdW0NIMl0z

> <s_epik_cmdline>
J2VwaWtfcHl0aG9uJywgJy1waCcsICc3LjAnLCAnLXRuJywgJzgnLCAnLW1hJywgJzIwMCcsICctbWV0YWxfYmluZGluZycsICctaW1hZScsICc8aW5maWxlLm1hZT4nLCAnLW9tYWUnLCAnPG91dGZpbGUubWFlPic=

> <r_lp_tautomer_probability>
1

> <r_epik_Ionization_Penalty>
4.71411

> <r_epik_Ionization_Penalty_Charging>
4.5615

> <r_epik_Ionization_Penalty_Neutral>
0.152604

> <r_epik_State_Penalty>
4.56123

> <r_epik_Charging_Adjusted_Penalty>
9.12273

> <i_epik_Tot_Q>
-1

> <i_epik_Tot_abs_Q>
1

> <r_epik_Metal_State_Penalty>
0.850765

> <b_epik_Metal_Only>
1

> <s_lp_Force_Field>
OPLS_2005

> <r_lp_Energy>
0.497958

> <b_lp_Chiralities_Consistent>
1

> <s_lp_Variant>
AV-unprocessed.smi:898-3

> <Gold.Version>
5.8.1

> <Gold.Id.Protein>
6NUR|6NUR_protein|mol2

> <Gold.PLP.Fitness>
40.4459

> <Gold.PLP.PLP>
-38.3602

> <Gold.PLP.part.hbond>
-2.0000

> <Gold.PLP.part.metal>
0.0000

> <Gold.PLP.part.buried>
-2.3646

> <Gold.PLP.part.nonpolar>
-32.8251

> <Gold.PLP.part.repulsive>
0.3263

> <Gold.PLP.ligand.clash>
2.5099

> <Gold.PLP.ligand.torsion>
0.6318

> <Gold.PLP.Chemscore.Hbond>
1.9040

> <Gold.PLP.Chemscore.CHOScore>
0.0000

> <Gold.PLP.Chemscore.Metal>
0.0000

> <Gold.Chemscore.Hbonds>
donor molecule, donor type, donor heavy atom, donor atom, acceptor molecule, acceptor atom, score
      P1  H  7989  7998       L1     3  0.87
      P1  H  7997  8009       L1     1  0.98

> <Gold.PLP.Chemscore.Internal.Correction>
0.1473

> <Gold.Rescore>
     Score         DG    S(hbond)    S(metal)    S(lipo)     H(rot)  DE(clash)    DE(int)     intcor
     17.25     -19.40       1.62        0.00      98.76       1.19       0.47       1.68       ----

> <Gold.Chemscore.Fitness>
17.2494

> <Gold.Chemscore.DG>
-19.4035

> <Gold.Chemscore.ZeroCoef>
-5.4800

> <Gold.Chemscore.Hbond>
1.6220

> <Gold.Chemscore.Metal>
0.0000

> <Gold.Chemscore.Lipo>
98.7633

> <Gold.Chemscore.Internal_Hbond>
0.0000

> <Gold.Chemscore.DEClash>
0.4736

> <Gold.Chemscore.DEInternal>
1.6805

> <Gold.Chemscore.Rot>
1.1911

> <Gold.Chemscore.Internal.Correction>
   9.000000E+99

> <Gold.Chemscore.Hbonds>
donor molecule, donor type, donor heavy atom, donor atom, acceptor molecule, acceptor atom, score
      P1  H  7989  7998       L1     3  0.59
      P1  H  7997  8009       L1     1  0.88

> <Gold.Chemscore.Hbond.Weighted>
-5.4174

> <Gold.Chemscore.Metal.Weighted>
-0.0000

> <Gold.Chemscore.Lipo.Weighted>
-11.5553

> <Gold.Chemscore.Internal_Hbond.Weighted>
0.0000

> <Gold.Chemscore.DEClash.Weighted>
0.4736

> <Gold.Chemscore.DEInternal.Weighted>
1.6805

> <Gold.Chemscore.Rot.Weighted>
3.0492

> <Gold.Chemscore.Internal.Correction.Weighted>
   9.000000E+99

> <Gold.Protein.RotatedTorsions>
[ 6907 6896 6895 6894 ] final   65.80 input  -60.11 | X-H torsion
[ 7974 7965 7964 7962 ] final   58.91 input  175.53 | X-H torsion
[ 8008 7997 7996 7995 ] final -169.06 input   59.86 | X-H torsion
[ 10167 10162 10161 10158 ] final  146.71 input  -65.29 | X-H torsion
[ 10718 10713 10712 10709 ] final  171.32 input   66.30 | X-H torsion
[ 10763 10752 10751 10750 ] final  -48.04 input  -60.55 | X-H torsion
[ 11005 11000 10999 10996 ] final   88.29 input  -57.11 | X-H torsion

> <Gold.Protein.ActiveResidues>
 VAL166  LYS551  ARG553  GLY616  TRP617  ASP618  TYR619  PRO620  LYS621  CYS622 
 ASP623  PHE694  ASN695  SER759  ASP760  ASP761  ALA762  ILE779  LEU786  VAL792 
 PHE793  MET794  SER795  GLU796  ALA797  LYS798  CYS799  TRP800  GLU811  SER814 

> <Gold.Protein.RotatedAtoms>
  152.4434  134.5543  159.9875 H   0  0  0  0  0  0  0  0  0  0  0  0  # atno 6907 bound_to 6896
  151.5635  133.3394  159.2983 H   0  0  0  0  0  0  0  0  0  0  0  0  # atno 6908 bound_to 6896
  150.8345  134.7646  159.6945 H   0  0  0  0  0  0  0  0  0  0  0  0  # atno 6909 bound_to 6896
  145.9130  139.3669  143.0524 H   0  0  0  0  0  0  0  0  0  0  0  0  # atno 7974 bound_to 7965
  155.8999  140.1039  157.1358 H   0  0  0  0  0  0  0  0  0  0  0  0  # atno 8008 bound_to 7997
  154.4025  140.1294  156.4486 H   0  0  0  0  0  0  0  0  0  0  0  0  # atno 8009 bound_to 7997
  155.7435  140.3466  155.5118 H   0  0  0  0  0  0  0  0  0  0  0  0  # atno 8010 bound_to 7997
  139.4902  144.5809  151.6874 H   0  0  0  0  0  0  0  0  0  0  0  0  # atno 10167 bound_to 10162
  156.9953  131.0160  151.2845 H   0  0  0  0  0  0  0  0  0  0  0  0  # atno 10718 bound_to 10713
  154.0712  135.6604  153.4824 H   0  0  0  0  0  0  0  0  0  0  0  0  # atno 10763 bound_to 10752
  153.0390  135.5158  154.7565 H   0  0  0  0  0  0  0  0  0  0  0  0  # atno 10764 bound_to 10752
  154.6631  135.3018  154.9808 H   0  0  0  0  0  0  0  0  0  0  0  0  # atno 10765 bound_to 10752
  139.8900  134.8478  156.2980 H   0  0  0  0  0  0  0  0  0  0  0  0  # atno 11005 bound_to 11000
  145.8648  140.9454  143.0681 LP  0  0  0  0  0  0  0  0  0  0  0  0  # atno 17320 bound_to 7965
  144.6745  140.0577  143.7477 LP  0  0  0  0  0  0  0  0  0  0  0  0  # atno 17321 bound_to 7965
  140.5415  144.0572  150.6090 LP  0  0  0  0  0  0  0  0  0  0  0  0  # atno 17342 bound_to 10162
  140.3595  143.2916  152.0399 LP  0  0  0  0  0  0  0  0  0  0  0  0  # atno 17343 bound_to 10162
  157.5429  130.8132  149.8051 LP  0  0  0  0  0  0  0  0  0  0  0  0  # atno 17370 bound_to 10713
  156.0191  130.3802  150.2016 LP  0  0  0  0  0  0  0  0  0  0  0  0  # atno 17371 bound_to 10713
  140.9932  133.7196  156.0846 LP  0  0  0  0  0  0  0  0  0  0  0  0  # atno 17394 bound_to 11000
  140.7597  134.3953  157.5528 LP  0  0  0  0  0  0  0  0  0  0  0  0  # atno 17395 bound_to 11000

$$$$
