AV-unprocessed.smi:2849|AV-procd|sdf|10963|dock2
  -GOLD-   2272015413D 1   1.00000     0.00000
 Structure written by MMmdl.
 56 59  0  0  0  0  0  0  0  0  3 V2000
  144.4862  133.9635  151.1788 C   0  0  0  0  0  0  0  0  0  0  0  0
  145.2263  134.9999  151.9379 N   0  3  2  0  0  0  0  0  0  0  0  0
  145.3197  134.7548  153.3978 C   0  0  2  0  0  0  0  0  0  0  0  0
  143.9438  134.9343  154.0887 C   0  0  0  0  0  0  0  0  0  0  0  0
  143.2476  136.2699  153.7638 C   0  0  0  0  0  0  0  0  0  0  0  0
  143.3823  136.6595  152.2794 C   0  0  0  0  0  0  0  0  0  0  0  0
  144.7874  136.3933  151.6820 C   0  0  1  0  0  0  0  0  0  0  0  0
  145.8914  137.3619  152.1657 C   0  0  0  0  0  0  0  0  0  0  0  0
  146.3521  137.1320  153.6284 C   0  0  2  0  0  0  0  0  0  0  0  0
  147.6479  137.7677  153.8587 N   0  0  0  0  0  0  0  0  0  0  0  0
  147.8701  138.7859  154.7032 C   0  0  0  0  0  0  0  0  0  0  0  0
  146.9834  139.3181  155.3703 O   0  0  0  0  0  0  0  0  0  0  0  0
  149.1713  139.1224  154.7304 N   0  0  0  0  0  0  0  0  0  0  0  0
  149.8058  140.1292  155.5073 C   0  0  0  0  0  0  0  0  0  0  0  0
  151.0833  139.8470  156.0350 C   0  0  0  0  0  0  0  0  0  0  0  0
  151.7546  140.8185  156.8054 C   0  0  0  0  0  0  0  0  0  0  0  0
  151.1460  142.0752  157.0327 C   0  0  0  0  0  0  0  0  0  0  0  0
  151.7497  143.0896  157.7996 N   0  0  0  0  0  0  0  0  0  0  0  0
  151.1534  144.4077  157.9365 C   0  0  0  0  0  0  0  0  0  0  0  0
  152.0472  145.1330  158.9422 C   0  0  0  0  0  0  0  0  0  0  0  0
  152.5385  144.0049  159.8502 C   0  0  0  0  0  0  0  0  0  0  0  0
  152.6326  142.7904  158.9193 C   0  0  0  0  0  0  0  0  0  0  0  0
  149.9244  142.3077  156.4963 N   0  3  0  0  0  0  0  0  0  0  0  0
  149.2457  141.4055  155.7548 C   0  0  0  0  0  0  0  0  0  0  0  0
  146.4560  135.6282  153.9793 C   0  0  0  0  0  0  0  0  0  0  0  0
  143.4366  133.9093  151.4656 H   0  0  0  0  0  0  0  0  0  0  0  0
  144.9319  132.9823  151.3441 H   0  0  0  0  0  0  0  0  0  0  0  0
  144.5330  134.1698  150.1093 H   0  0  0  0  0  0  0  0  0  0  0  0
  145.6222  133.7166  153.5430 H   0  0  0  0  0  0  0  0  0  0  0  0
  143.2871  134.1207  153.7800 H   0  0  0  0  0  0  0  0  0  0  0  0
  144.0484  134.8258  155.1688 H   0  0  0  0  0  0  0  0  0  0  0  0
  142.1914  136.2017  154.0264 H   0  0  0  0  0  0  0  0  0  0  0  0
  143.6321  137.0629  154.3996 H   0  0  0  0  0  0  0  0  0  0  0  0
  142.6449  136.0951  151.7081 H   0  0  0  0  0  0  0  0  0  0  0  0
  143.1099  137.7072  152.1467 H   0  0  0  0  0  0  0  0  0  0  0  0
  144.7107  136.5265  150.6019 H   0  0  0  0  0  0  0  0  0  0  0  0
  146.7521  137.2328  151.5072 H   0  0  0  0  0  0  0  0  0  0  0  0
  145.5692  138.3950  152.0299 H   0  0  0  0  0  0  0  0  0  0  0  0
  145.6442  137.5976  154.3097 H   0  0  0  0  0  0  0  0  0  0  0  0
  148.4361  137.3905  153.3528 H   0  0  0  0  0  0  0  0  0  0  0  0
  149.7900  138.5458  154.1793 H   0  0  0  0  0  0  0  0  0  0  0  0
  151.5480  138.8874  155.8604 H   0  0  0  0  0  0  0  0  0  0  0  0
  152.7268  140.5849  157.2132 H   0  0  0  0  0  0  0  0  0  0  0  0
  151.1138  144.9350  156.9827 H   0  0  0  0  0  0  0  0  0  0  0  0
  150.1381  144.3097  158.3229 H   0  0  0  0  0  0  0  0  0  0  0  0
  152.8952  145.5838  158.4248 H   0  0  0  0  0  0  0  0  0  0  0  0
  151.5250  145.9222  159.4834 H   0  0  0  0  0  0  0  0  0  0  0  0
  153.4839  144.2352  160.3424 H   0  0  0  0  0  0  0  0  0  0  0  0
  151.7960  143.8139  160.6261 H   0  0  0  0  0  0  0  0  0  0  0  0
  152.3487  141.8750  159.4398 H   0  0  0  0  0  0  0  0  0  0  0  0
  153.6489  142.6699  158.5427 H   0  0  0  0  0  0  0  0  0  0  0  0
  148.2908  141.7491  155.3867 H   0  0  0  0  0  0  0  0  0  0  0  0
  146.5145  135.4998  155.0610 H   0  0  0  0  0  0  0  0  0  0  0  0
  147.3979  135.2428  153.5849 H   0  0  0  0  0  0  0  0  0  0  0  0
  146.1724  134.9438  151.5889 H   0  0  0  0  0  0  0  0  0  0  0  0
  149.4900  143.2160  156.6613 H   0  0  0  0  0  0  0  0  0  0  0  0
  1  2  1  0  0  0  0
  1 26  1  0  0  0  0
  1 27  1  0  0  0  0
  1 28  1  0  0  0  0
  2  7  1  0  0  0  0
  2  3  1  0  0  0  0
  2 55  1  0  0  0  0
  3 25  1  0  0  0  0
  3  4  1  0  0  0  0
  3 29  1  0  0  0  0
  4  5  1  0  0  0  0
  4 30  1  0  0  0  0
  4 31  1  0  0  0  0
  5  6  1  0  0  0  0
  5 32  1  0  0  0  0
  5 33  1  0  0  0  0
  6  7  1  0  0  0  0
  6 34  1  0  0  0  0
  6 35  1  0  0  0  0
  7  8  1  0  0  0  0
  7 36  1  0  0  0  0
  8  9  1  0  0  0  0
  8 37  1  0  0  0  0
  8 38  1  0  0  0  0
  9 10  1  0  0  0  0
  9 25  1  0  0  0  0
  9 39  1  0  0  0  0
 10 11  1  0  0  0  0
 10 40  1  0  0  0  0
 11 12  2  0  0  0  0
 11 13  1  0  0  0  0
 13 14  1  0  0  0  0
 13 41  1  0  0  0  0
 14 24  1  0  0  0  0
 14 15  2  0  0  0  0
 15 16  1  0  0  0  0
 15 42  1  0  0  0  0
 16 17  2  0  0  0  0
 16 43  1  0  0  0  0
 17 18  1  0  0  0  0
 17 23  1  0  0  0  0
 18 22  1  0  0  0  0
 18 19  1  0  0  0  0
 19 20  1  0  0  0  0
 19 44  1  0  0  0  0
 19 45  1  0  0  0  0
 20 21  1  0  0  0  0
 20 46  1  0  0  0  0
 20 47  1  0  0  0  0
 21 22  1  0  0  0  0
 21 48  1  0  0  0  0
 21 49  1  0  0  0  0
 22 50  1  0  0  0  0
 22 51  1  0  0  0  0
 23 24  2  0  0  0  0
 23 56  1  0  0  0  0
 24 52  1  0  0  0  0
 25 53  1  0  0  0  0
 25 54  1  0  0  0  0
M  CHG  1   2   1
M  CHG  1  23   1
M  END
> <s_m_source_file>
AV-unprocessed.smi

> <i_m_source_file_index>
2849

> <i_lp_mmshare_version>
43012

> <i_f3d_flags>
0

> <s_epik_input>
W0NIMl0xW0NIMl1bQ0gyXVtDQEhdKE4oW0NIM10pW0NIXTEyKVtDSDJdW0NASF0oW0NIMl0yKVtOSF1DKD1PKVtOSF1jM1tjSF1bY0hdYyhuW2NIXTMpTjRbQ0gyXVtDSDJdW0NIMl1bQ0gyXTQ=

> <s_epik_cmdline>
J2VwaWtfcHl0aG9uJywgJy1waCcsICc3LjAnLCAnLXRuJywgJzgnLCAnLW1hJywgJzIwMCcsICctbWV0YWxfYmluZGluZycsICctaW1hZScsICc8aW5maWxlLm1hZT4nLCAnLW9tYWUnLCAnPG91dGZpbGUubWFlPic=

> <r_lp_tautomer_probability>
0.999994

> <r_epik_Ionization_Penalty>
1.2404

> <r_epik_Ionization_Penalty_Charging>
1.24038

> <r_epik_Ionization_Penalty_Neutral>
1.86921e-05

> <r_epik_State_Penalty>
1.30821

> <r_epik_Charging_Adjusted_Penalty>
2.54859

> <i_epik_Tot_Q>
2

> <i_epik_Tot_abs_Q>
2

> <r_epik_Metal_State_Penalty>
1.37823

> <b_epik_Metal_Only>
0

> <s_lp_Force_Field>
OPLS_2005

> <r_lp_Energy>
67.6381

> <b_lp_Chiralities_Consistent>
1

> <s_lp_Variant>
AV-unprocessed.smi:2849-7

> <Gold.Version>
5.8.1

> <Gold.Id.Protein>
6NUR|6NUR_protein|mol2

> <Gold.PLP.Fitness>
45.9528

> <Gold.PLP.PLP>
-39.2900

> <Gold.PLP.part.hbond>
-2.0000

> <Gold.PLP.part.metal>
0.0000

> <Gold.PLP.part.buried>
-3.6547

> <Gold.PLP.part.nonpolar>
-33.9375

> <Gold.PLP.part.repulsive>
0.1207

> <Gold.PLP.ligand.clash>
0.0000

> <Gold.PLP.ligand.torsion>
0.5208

> <Gold.PLP.Chemscore.Hbond>
2.5120

> <Gold.PLP.Chemscore.CHOScore>
0.0000

> <Gold.PLP.Chemscore.Metal>
0.0000

> <Gold.Chemscore.Hbonds>
donor molecule, donor type, donor heavy atom, donor atom, acceptor molecule, acceptor atom, score
      L1  H    10    40       P1  7948  0.90
      L1  H    23    56       P1  8028  1.57

> <Gold.PLP.Chemscore.Internal.Correction>
0.1683

> <Gold.Rescore>
     Score         DG    S(hbond)    S(metal)    S(lipo)     H(rot)  DE(clash)    DE(int)     intcor
     20.52     -21.39       1.75        0.00     107.82       1.00       0.40       0.47       ----

> <Gold.Chemscore.Fitness>
20.5195

> <Gold.Chemscore.DG>
-21.3923

> <Gold.Chemscore.ZeroCoef>
-5.4800

> <Gold.Chemscore.Hbond>
1.7536

> <Gold.Chemscore.Metal>
0.0000

> <Gold.Chemscore.Lipo>
107.8239

> <Gold.Chemscore.Internal_Hbond>
0.0000

> <Gold.Chemscore.DEClash>
0.4021

> <Gold.Chemscore.DEInternal>
0.4707

> <Gold.Chemscore.Rot>
1.0000

> <Gold.Chemscore.Internal.Correction>
   9.000000E+99

> <Gold.Chemscore.Hbonds>
donor molecule, donor type, donor heavy atom, donor atom, acceptor molecule, acceptor atom, score
      L1  H    10    40       P1  7948  0.87
      L1  H    23    56       P1  8028  0.77

> <Gold.Chemscore.Hbond.Weighted>
-5.8569

> <Gold.Chemscore.Metal.Weighted>
-0.0000

> <Gold.Chemscore.Lipo.Weighted>
-12.6154

> <Gold.Chemscore.Internal_Hbond.Weighted>
0.0000

> <Gold.Chemscore.DEClash.Weighted>
0.4021

> <Gold.Chemscore.DEInternal.Weighted>
0.4707

> <Gold.Chemscore.Rot.Weighted>
2.5600

> <Gold.Chemscore.Internal.Correction.Weighted>
   9.000000E+99

> <Gold.Protein.RotatedTorsions>
[ 6907 6896 6895 6894 ] final  177.00 input  -60.11 | X-H torsion
[ 7974 7965 7964 7962 ] final   60.67 input  175.53 | X-H torsion
[ 8008 7997 7996 7995 ] final  -41.53 input   59.86 | X-H torsion
[ 10167 10162 10161 10158 ] final   85.79 input  -65.29 | X-H torsion
[ 10718 10713 10712 10709 ] final -177.74 input   66.30 | X-H torsion
[ 10763 10752 10751 10750 ] final  -22.30 input  -60.55 | X-H torsion
[ 11005 11000 10999 10996 ] final  100.39 input  -57.11 | X-H torsion

> <Gold.Protein.ActiveResidues>
 VAL166  LYS551  ARG553  GLY616  TRP617  ASP618  TYR619  PRO620  LYS621  CYS622 
 ASP623  PHE694  ASN695  SER759  ASP760  ASP761  ALA762  ILE779  LEU786  VAL792 
 PHE793  MET794  SER795  GLU796  ALA797  LYS798  CYS799  TRP800  GLU811  SER814 

> <Gold.Protein.RotatedAtoms>
  151.7111  133.3312  159.3290 H   0  0  0  0  0  0  0  0  0  0  0  0  # atno 6907 bound_to 6896
  150.7693  134.6531  159.6308 H   0  0  0  0  0  0  0  0  0  0  0  0  # atno 6908 bound_to 6896
  152.3710  134.6736  160.0227 H   0  0  0  0  0  0  0  0  0  0  0  0  # atno 6909 bound_to 6896
  145.8934  139.3527  143.0636 H   0  0  0  0  0  0  0  0  0  0  0  0  # atno 7974 bound_to 7965
  154.4003  140.1497  156.3205 H   0  0  0  0  0  0  0  0  0  0  0  0  # atno 8008 bound_to 7997
  155.8534  140.3457  155.5686 H   0  0  0  0  0  0  0  0  0  0  0  0  # atno 8009 bound_to 7997
  155.7960  140.0863  157.1974 H   0  0  0  0  0  0  0  0  0  0  0  0  # atno 8010 bound_to 7997
  139.8941  144.6368  150.8707 H   0  0  0  0  0  0  0  0  0  0  0  0  # atno 10167 bound_to 10162
  156.8339  130.9663  151.3104 H   0  0  0  0  0  0  0  0  0  0  0  0  # atno 10718 bound_to 10713
  153.6497  135.6981  153.5213 H   0  0  0  0  0  0  0  0  0  0  0  0  # atno 10763 bound_to 10752
  153.2716  135.4213  155.0993 H   0  0  0  0  0  0  0  0  0  0  0  0  # atno 10764 bound_to 10752
  154.8479  135.3580  154.6041 H   0  0  0  0  0  0  0  0  0  0  0  0  # atno 10765 bound_to 10752
  139.8771  134.9138  156.4749 H   0  0  0  0  0  0  0  0  0  0  0  0  # atno 11005 bound_to 11000
  145.8880  140.9321  143.0567 LP  0  0  0  0  0  0  0  0  0  0  0  0  # atno 17320 bound_to 7965
  144.6731  140.0868  143.7467 LP  0  0  0  0  0  0  0  0  0  0  0  0  # atno 17321 bound_to 7965
  140.7720  143.3487  151.2058 LP  0  0  0  0  0  0  0  0  0  0  0  0  # atno 17342 bound_to 10162
  139.7083  143.9418  152.2936 LP  0  0  0  0  0  0  0  0  0  0  0  0  # atno 17343 bound_to 10162
  157.6392  130.8791  149.9416 LP  0  0  0  0  0  0  0  0  0  0  0  0  # atno 17370 bound_to 10713
  156.0918  130.3662  150.0380 LP  0  0  0  0  0  0  0  0  0  0  0  0  # atno 17371 bound_to 10713
  140.8769  133.7946  155.9424 LP  0  0  0  0  0  0  0  0  0  0  0  0  # atno 17394 bound_to 11000
  140.8894  134.2513  157.5102 LP  0  0  0  0  0  0  0  0  0  0  0  0  # atno 17395 bound_to 11000

$$$$
