AV-unprocessed.smi:2215|AV-procd|sdf|8963|dock1
  -GOLD-   2272012183D 1   1.00000     0.00000
 Structure written by MMmdl.
 40 41  0  0  0  0  0  0  0  0  1 V2000
  149.7191  141.8064  156.9812 C   0  0  0  0  0  0  0  0  0  0  0  0
  149.1998  140.8191  155.9573 C   0  0  0  0  0  0  0  0  0  0  0  0
  150.0721  140.1830  155.0541 C   0  0  0  0  0  0  0  0  0  0  0  0
  149.5391  139.2673  154.1269 C   0  0  0  0  0  0  0  0  0  0  0  0
  148.1501  139.0072  154.1250 C   0  0  0  0  0  0  0  0  0  0  0  0
  147.7175  138.0601  153.1589 N   0  0  0  0  0  0  0  0  0  0  0  0
  146.4680  137.6212  152.9256 C   0  0  0  0  0  0  0  0  0  0  0  0
  145.4536  138.0170  153.5005 O   0  0  0  0  0  0  0  0  0  0  0  0
  146.4555  136.6818  151.9691 N   0  0  0  0  0  0  0  0  0  0  0  0
  145.2615  135.9988  151.4805 C   0  0  0  0  0  0  0  0  0  0  0  0
  145.5529  134.5589  150.9928 C   0  0  1  0  0  0  0  0  0  0  0  0
  146.0695  133.6677  152.1472 C   0  0  0  0  0  0  0  0  0  0  0  0
  146.3260  132.2216  151.6965 C   0  0  0  0  0  0  0  0  0  0  0  0
  145.0664  131.6047  151.0748 C   0  0  0  0  0  0  0  0  0  0  0  0
  144.5651  132.4610  149.9045 C   0  0  0  0  0  0  0  0  0  0  0  0
  144.3037  133.9146  150.3412 C   0  0  2  0  0  0  0  0  0  0  0  0
  143.9164  134.6430  149.1931 O   0  0  0  0  0  0  0  0  0  0  0  0
  147.3174  139.6263  154.9988 N   0  0  0  0  0  0  0  0  0  0  0  0
  147.8289  140.5045  155.8868 C   0  0  0  0  0  0  0  0  0  0  0  0
  150.6651  142.2425  156.6586 H   0  0  0  0  0  0  0  0  0  0  0  0
  149.8785  141.3067  157.9368 H   0  0  0  0  0  0  0  0  0  0  0  0
  149.0057  142.6172  157.1310 H   0  0  0  0  0  0  0  0  0  0  0  0
  151.1324  140.3889  155.0702 H   0  0  0  0  0  0  0  0  0  0  0  0
  150.1951  138.7691  153.4281 H   0  0  0  0  0  0  0  0  0  0  0  0
  148.4480  137.6532  152.5938 H   0  0  0  0  0  0  0  0  0  0  0  0
  147.3345  136.4176  151.5488 H   0  0  0  0  0  0  0  0  0  0  0  0
  144.5334  135.9752  152.2917 H   0  0  0  0  0  0  0  0  0  0  0  0
  144.8101  136.5953  150.6863 H   0  0  0  0  0  0  0  0  0  0  0  0
  146.3367  134.6067  150.2347 H   0  0  0  0  0  0  0  0  0  0  0  0
  146.9927  134.0753  152.5599 H   0  0  0  0  0  0  0  0  0  0  0  0
  145.3435  133.6670  152.9613 H   0  0  0  0  0  0  0  0  0  0  0  0
  147.1408  132.2027  150.9713 H   0  0  0  0  0  0  0  0  0  0  0  0
  146.6533  131.6208  152.5455 H   0  0  0  0  0  0  0  0  0  0  0  0
  145.2771  130.5914  150.7317 H   0  0  0  0  0  0  0  0  0  0  0  0
  144.2849  131.5208  151.8312 H   0  0  0  0  0  0  0  0  0  0  0  0
  145.3060  132.4426  149.1037 H   0  0  0  0  0  0  0  0  0  0  0  0
  143.6547  132.0236  149.4930 H   0  0  0  0  0  0  0  0  0  0  0  0
  143.4741  133.9322  151.0493 H   0  0  0  0  0  0  0  0  0  0  0  0
  144.6940  134.8885  148.7153 H   0  0  0  0  0  0  0  0  0  0  0  0
  147.1227  140.9656  156.5615 H   0  0  0  0  0  0  0  0  0  0  0  0
  1  2  1  0  0  0  0
  1 20  1  0  0  0  0
  1 21  1  0  0  0  0
  1 22  1  0  0  0  0
  2 19  1  0  0  0  0
  2  3  2  0  0  0  0
  3  4  1  0  0  0  0
  3 23  1  0  0  0  0
  4  5  2  0  0  0  0
  4 24  1  0  0  0  0
  5  6  1  0  0  0  0
  5 18  1  0  0  0  0
  6  7  1  0  0  0  0
  6 25  1  0  0  0  0
  7  8  2  0  0  0  0
  7  9  1  0  0  0  0
  9 10  1  0  0  0  0
  9 26  1  0  0  0  0
 10 11  1  0  0  0  0
 10 27  1  0  0  0  0
 10 28  1  0  0  0  0
 11 16  1  0  0  0  0
 11 12  1  0  0  0  0
 11 29  1  0  0  0  0
 12 13  1  0  0  0  0
 12 30  1  0  0  0  0
 12 31  1  0  0  0  0
 13 14  1  0  0  0  0
 13 32  1  0  0  0  0
 13 33  1  0  0  0  0
 14 15  1  0  0  0  0
 14 34  1  0  0  0  0
 14 35  1  0  0  0  0
 15 16  1  0  0  0  0
 15 36  1  0  0  0  0
 15 37  1  0  0  0  0
 16 17  1  0  0  0  0
 16 38  1  0  0  0  0
 17 39  1  0  0  0  0
 18 19  2  0  0  0  0
 19 40  1  0  0  0  0
M  END
> <s_m_source_file>
AV-unprocessed.smi

> <i_m_source_file_index>
2215

> <i_lp_mmshare_version>
43012

> <i_f3d_flags>
0

> <s_epik_input>
W0NIM11jMVtjSF1bY0hdYyhuW2NIXTEpW05IXUMoPU8pW05IXVtDSDJdW0NAQEhdMltDSDJdW0NIMl1bQ0gyXVtDSDJdW0NASF0yW09IXQ==

> <s_epik_cmdline>
J2VwaWtfcHl0aG9uJywgJy1waCcsICc3LjAnLCAnLXRuJywgJzgnLCAnLW1hJywgJzIwMCcsICctbWV0YWxfYmluZGluZycsICctaW1hZScsICc8aW5maWxlLm1hZT4nLCAnLW9tYWUnLCAnPG91dGZpbGUubWFlPic=

> <r_lp_tautomer_probability>
1

> <r_epik_Ionization_Penalty>
6.08491e-05

> <r_epik_Ionization_Penalty_Charging>
0

> <r_epik_Ionization_Penalty_Neutral>
6.08491e-05

> <r_epik_State_Penalty>
-0

> <r_epik_Charging_Adjusted_Penalty>
0

> <i_epik_Tot_Q>
0

> <i_epik_Tot_abs_Q>
0

> <r_epik_Metal_State_Penalty>
-0

> <b_epik_Metal_Only>
0

> <s_lp_Force_Field>
OPLS_2005

> <r_lp_Energy>
14.1492

> <b_lp_Chiralities_Consistent>
1

> <s_lp_Variant>
AV-unprocessed.smi:2215-4

> <Gold.Version>
5.8.1

> <Gold.Id.Protein>
6NUR|6NUR_protein|mol2

> <Gold.PLP.Fitness>
39.5409

> <Gold.PLP.PLP>
-31.4144

> <Gold.PLP.part.hbond>
-3.5394

> <Gold.PLP.part.metal>
0.0000

> <Gold.PLP.part.buried>
-3.1857

> <Gold.PLP.part.nonpolar>
-25.6964

> <Gold.PLP.part.repulsive>
0.6146

> <Gold.PLP.ligand.clash>
0.0000

> <Gold.PLP.ligand.torsion>
0.1989

> <Gold.PLP.Chemscore.Hbond>
2.8400

> <Gold.PLP.Chemscore.CHOScore>
0.0000

> <Gold.PLP.Chemscore.Metal>
0.0000

> <Gold.Chemscore.Hbonds>
donor molecule, donor type, donor heavy atom, donor atom, acceptor molecule, acceptor atom, score
      L1  H     6    25       P1  7948  0.90
      L1  H     9    26       P1  7948  0.91
      L1  H    17    39       P1  7921  1.00

> <Gold.PLP.Chemscore.Internal.Correction>
0.0044

> <Gold.Rescore>
     Score         DG    S(hbond)    S(metal)    S(lipo)     H(rot)  DE(clash)    DE(int)     intcor
     17.40     -19.10       2.87        0.00      72.33       1.73       0.23       1.47       ----

> <Gold.Chemscore.Fitness>
17.3997

> <Gold.Chemscore.DG>
-19.0982

> <Gold.Chemscore.ZeroCoef>
-5.4800

> <Gold.Chemscore.Hbond>
2.8724

> <Gold.Chemscore.Metal>
0.0000

> <Gold.Chemscore.Lipo>
72.3328

> <Gold.Chemscore.Internal_Hbond>
0.0000

> <Gold.Chemscore.DEClash>
0.2286

> <Gold.Chemscore.DEInternal>
1.4698

> <Gold.Chemscore.Rot>
1.7339

> <Gold.Chemscore.Internal.Correction>
   9.000000E+99

> <Gold.Chemscore.Hbonds>
donor molecule, donor type, donor heavy atom, donor atom, acceptor molecule, acceptor atom, score
      L1  H     6    25       P1  7948  0.88
      L1  H     9    26       P1  7948  0.88
      L1  H    17    39       P1  7921  1.00

> <Gold.Chemscore.Hbond.Weighted>
-9.5939

> <Gold.Chemscore.Metal.Weighted>
-0.0000

> <Gold.Chemscore.Lipo.Weighted>
-8.4629

> <Gold.Chemscore.Internal_Hbond.Weighted>
0.0000

> <Gold.Chemscore.DEClash.Weighted>
0.2286

> <Gold.Chemscore.DEInternal.Weighted>
1.4698

> <Gold.Chemscore.Rot.Weighted>
4.4387

> <Gold.Chemscore.Internal.Correction.Weighted>
   9.000000E+99

> <Gold.Protein.RotatedTorsions>
[ 6907 6896 6895 6894 ] final  -32.67 input  -60.11 | X-H torsion
[ 7974 7965 7964 7962 ] final    7.90 input  175.53 | X-H torsion
[ 8008 7997 7996 7995 ] final  141.16 input   59.86 | X-H torsion
[ 10167 10162 10161 10158 ] final  -53.48 input  -65.29 | X-H torsion
[ 10718 10713 10712 10709 ] final   37.25 input   66.30 | X-H torsion
[ 10763 10752 10751 10750 ] final -120.09 input  -60.55 | X-H torsion
[ 11005 11000 10999 10996 ] final   30.53 input  -57.11 | X-H torsion

> <Gold.Protein.ActiveResidues>
 VAL166  LYS551  ARG553  GLY616  TRP617  ASP618  TYR619  PRO620  LYS621  CYS622 
 ASP623  PHE694  ASN695  SER759  ASP760  ASP761  ALA762  ILE779  LEU786  VAL792 
 PHE793  MET794  SER795  GLU796  ALA797  LYS798  CYS799  TRP800  GLU811  SER814 

> <Gold.Protein.RotatedAtoms>
  151.0757  134.9826  159.8330 H   0  0  0  0  0  0  0  0  0  0  0  0  # atno 6907 bound_to 6896
  152.5414  134.2244  159.8810 H   0  0  0  0  0  0  0  0  0  0  0  0  # atno 6908 bound_to 6896
  151.2271  133.4427  159.2636 H   0  0  0  0  0  0  0  0  0  0  0  0  # atno 6909 bound_to 6896
  146.2422  140.0014  142.8415 H   0  0  0  0  0  0  0  0  0  0  0  0  # atno 7974 bound_to 7965
  156.2969  140.2322  156.4519 H   0  0  0  0  0  0  0  0  0  0  0  0  # atno 8008 bound_to 7997
  154.8094  140.0444  157.1352 H   0  0  0  0  0  0  0  0  0  0  0  0  # atno 8009 bound_to 7997
  154.9440  140.3033  155.5110 H   0  0  0  0  0  0  0  0  0  0  0  0  # atno 8010 bound_to 7997
  140.6483  143.2549  151.4797 H   0  0  0  0  0  0  0  0  0  0  0  0  # atno 10167 bound_to 10162
  157.3447  130.7566  149.6936 H   0  0  0  0  0  0  0  0  0  0  0  0  # atno 10718 bound_to 10713
  154.8635  135.4215  154.2403 H   0  0  0  0  0  0  0  0  0  0  0  0  # atno 10763 bound_to 10752
  153.3370  135.6991  153.6905 H   0  0  0  0  0  0  0  0  0  0  0  0  # atno 10764 bound_to 10752
  153.5898  135.3557  155.2880 H   0  0  0  0  0  0  0  0  0  0  0  0  # atno 10765 bound_to 10752
  140.2934  134.2838  155.7770 H   0  0  0  0  0  0  0  0  0  0  0  0  # atno 11005 bound_to 11000
  145.1412  140.9572  143.4487 LP  0  0  0  0  0  0  0  0  0  0  0  0  # atno 17320 bound_to 7965
  145.0294  139.3354  143.6032 LP  0  0  0  0  0  0  0  0  0  0  0  0  # atno 17321 bound_to 7965
  139.5695  144.1962  152.1815 LP  0  0  0  0  0  0  0  0  0  0  0  0  # atno 17342 bound_to 10162
  140.1254  144.5336  150.6836 LP  0  0  0  0  0  0  0  0  0  0  0  0  # atno 17343 bound_to 10162
  155.9712  130.4157  150.4197 LP  0  0  0  0  0  0  0  0  0  0  0  0  # atno 17370 bound_to 10713
  157.2251  131.0491  151.2524 LP  0  0  0  0  0  0  0  0  0  0  0  0  # atno 17371 bound_to 10713
  141.2142  133.7600  156.9659 LP  0  0  0  0  0  0  0  0  0  0  0  0  # atno 17394 bound_to 11000
  140.1175  134.9438  157.2155 LP  0  0  0  0  0  0  0  0  0  0  0  0  # atno 17395 bound_to 11000

$$$$
