AV-unprocessed.smi:707|AV-procd|sdf|3453|dock7
  -GOLD-   22720 0443D 1   1.00000     0.00000
 Structure written by MMmdl.
 44 45  0  0  0  0  0  0  0  0  1 V2000
  151.2442  140.6812  156.6136 C   0  0  0  0  0  0  0  0  0  0  0  0
  151.8302  139.6335  155.7237 C   0  0  0  0  0  0  0  0  0  0  0  0
  153.1287  139.3095  155.7098 N   0  0  0  0  0  0  0  0  0  0  0  0
  153.2521  138.3116  154.7630 N   0  0  0  0  0  0  0  0  0  0  0  0
  152.0152  138.1337  154.2999 C   0  0  0  0  0  0  0  0  0  0  0  0
  151.0829  138.9235  154.8543 N   0  0  0  0  0  0  0  0  0  0  0  0
  149.6593  138.9741  154.5779 C   0  0  0  0  0  0  0  0  0  0  0  0
  148.9416  137.7177  155.0891 C   0  0  0  0  0  0  0  0  0  0  0  0
  147.7170  137.4848  154.3368 N   0  0  0  0  0  0  0  0  0  0  0  0
  146.8426  136.5034  154.6009 C   0  0  0  0  0  0  0  0  0  0  0  0
  146.9889  135.6928  155.5154 O   0  0  0  0  0  0  0  0  0  0  0  0
  145.6109  136.4264  153.7037 C   0  0  0  0  0  0  0  0  0  0  0  0
  145.7915  135.3497  152.7963 O   0  0  0  0  0  0  0  0  0  0  0  0
  145.0334  135.4467  151.5956 C   0  0  2  0  0  0  0  0  0  0  0  0
  143.5499  135.2657  151.9635 C   0  0  0  0  0  0  0  0  0  0  0  0
  143.2500  133.8357  152.4438 C   0  0  0  0  0  0  0  0  0  0  0  0
  143.6964  132.7907  151.4095 C   0  0  0  0  0  0  0  0  0  0  0  0
  145.1859  132.9505  151.0507 C   0  0  1  0  0  0  0  0  0  0  0  0
  145.6304  131.9058  150.0174 C   0  0  0  0  0  0  0  0  0  0  0  0
  145.4673  134.3849  150.5608 C   0  0  0  0  0  0  0  0  0  0  0  0
  152.0088  141.0919  157.2736 H   0  0  0  0  0  0  0  0  0  0  0  0
  150.4508  140.2549  157.2279 H   0  0  0  0  0  0  0  0  0  0  0  0
  150.8301  141.4935  156.0159 H   0  0  0  0  0  0  0  0  0  0  0  0
  151.7834  137.4058  153.5360 H   0  0  0  0  0  0  0  0  0  0  0  0
  149.2420  139.8709  155.0371 H   0  0  0  0  0  0  0  0  0  0  0  0
  149.5211  139.0783  153.5008 H   0  0  0  0  0  0  0  0  0  0  0  0
  149.5982  136.8507  154.9984 H   0  0  0  0  0  0  0  0  0  0  0  0
  148.6939  137.8251  156.1460 H   0  0  0  0  0  0  0  0  0  0  0  0
  147.5155  138.1129  153.5722 H   0  0  0  0  0  0  0  0  0  0  0  0
  144.7134  136.2737  154.3058 H   0  0  0  0  0  0  0  0  0  0  0  0
  145.5008  137.3757  153.1800 H   0  0  0  0  0  0  0  0  0  0  0  0
  145.1594  136.4446  151.1725 H   0  0  0  0  0  0  0  0  0  0  0  0
  143.2652  135.9848  152.7324 H   0  0  0  0  0  0  0  0  0  0  0  0
  142.9324  135.4882  151.0924 H   0  0  0  0  0  0  0  0  0  0  0  0
  143.7592  133.6522  153.3906 H   0  0  0  0  0  0  0  0  0  0  0  0
  142.1834  133.7277  152.6424 H   0  0  0  0  0  0  0  0  0  0  0  0
  143.5111  131.7894  151.7997 H   0  0  0  0  0  0  0  0  0  0  0  0
  143.0877  132.8886  150.5094 H   0  0  0  0  0  0  0  0  0  0  0  0
  145.7709  132.7820  151.9562 H   0  0  0  0  0  0  0  0  0  0  0  0
  145.0832  132.0163  149.0807 H   0  0  0  0  0  0  0  0  0  0  0  0
  145.4609  130.8935  150.3853 H   0  0  0  0  0  0  0  0  0  0  0  0
  146.6938  132.0008  149.7959 H   0  0  0  0  0  0  0  0  0  0  0  0
  144.9247  134.5582  149.6305 H   0  0  0  0  0  0  0  0  0  0  0  0
  146.5215  134.4962  150.3099 H   0  0  0  0  0  0  0  0  0  0  0  0
  1  2  1  0  0  0  0
  1 21  1  0  0  0  0
  1 22  1  0  0  0  0
  1 23  1  0  0  0  0
  2  6  1  0  0  0  0
  2  3  2  0  0  0  0
  3  4  1  0  0  0  0
  4  5  2  0  0  0  0
  5  6  1  0  0  0  0
  5 24  1  0  0  0  0
  6  7  1  0  0  0  0
  7  8  1  0  0  0  0
  7 25  1  0  0  0  0
  7 26  1  0  0  0  0
  8  9  1  0  0  0  0
  8 27  1  0  0  0  0
  8 28  1  0  0  0  0
  9 10  1  0  0  0  0
  9 29  1  0  0  0  0
 10 11  2  0  0  0  0
 10 12  1  0  0  0  0
 12 13  1  0  0  0  0
 12 30  1  0  0  0  0
 12 31  1  0  0  0  0
 13 14  1  0  0  0  0
 14 20  1  0  0  0  0
 14 15  1  0  0  0  0
 14 32  1  0  0  0  0
 15 16  1  0  0  0  0
 15 33  1  0  0  0  0
 15 34  1  0  0  0  0
 16 17  1  0  0  0  0
 16 35  1  0  0  0  0
 16 36  1  0  0  0  0
 17 18  1  0  0  0  0
 17 37  1  0  0  0  0
 17 38  1  0  0  0  0
 18 19  1  0  0  0  0
 18 20  1  0  0  0  0
 18 39  1  0  0  0  0
 19 40  1  0  0  0  0
 19 41  1  0  0  0  0
 19 42  1  0  0  0  0
 20 43  1  0  0  0  0
 20 44  1  0  0  0  0
M  END
> <s_m_source_file>
AV-unprocessed.smi

> <i_m_source_file_index>
707

> <i_lp_mmshare_version>
43012

> <i_f3d_flags>
0

> <s_epik_input>
W0NIM11jMW5uW2NIXW4xW0NIMl1bQ0gyXVtOSF1DKD1PKVtDSDJdT1tDQEBIXTJbQ0gyXVtDSDJdW0NIMl1bQ0BASF0oW0NIM10pW0NIMl0y

> <s_epik_cmdline>
J2VwaWtfcHl0aG9uJywgJy1waCcsICc3LjAnLCAnLXRuJywgJzgnLCAnLW1hJywgJzIwMCcsICctbWV0YWxfYmluZGluZycsICctaW1hZScsICc8aW5maWxlLm1hZT4nLCAnLW9tYWUnLCAnPG91dGZpbGUubWFlPic=

> <r_lp_tautomer_probability>
1

> <r_epik_Ionization_Penalty>
0.000271783

> <r_epik_Ionization_Penalty_Charging>
0

> <r_epik_Ionization_Penalty_Neutral>
0.000271783

> <r_epik_State_Penalty>
-0

> <r_epik_Charging_Adjusted_Penalty>
0

> <i_epik_Tot_Q>
0

> <i_epik_Tot_abs_Q>
0

> <r_epik_Metal_State_Penalty>
-0

> <b_epik_Metal_Only>
0

> <s_lp_Force_Field>
OPLS_2005

> <r_lp_Energy>
13.9065

> <b_lp_Chiralities_Consistent>
1

> <s_lp_Variant>
AV-unprocessed.smi:707-1

> <Gold.Version>
5.8.1

> <Gold.Id.Protein>
6NUR|6NUR_protein|mol2

> <Gold.PLP.Fitness>
41.6961

> <Gold.PLP.PLP>
-36.8561

> <Gold.PLP.part.hbond>
-2.8767

> <Gold.PLP.part.metal>
0.0000

> <Gold.PLP.part.buried>
-5.1460

> <Gold.PLP.part.nonpolar>
-29.3949

> <Gold.PLP.part.repulsive>
0.1746

> <Gold.PLP.ligand.clash>
0.0000

> <Gold.PLP.ligand.torsion>
0.6197

> <Gold.PLP.Chemscore.Hbond>
1.0000

> <Gold.PLP.Chemscore.CHOScore>
1.0000

> <Gold.PLP.Chemscore.Metal>
0.0000

> <Gold.Chemscore.Hbonds>
donor molecule, donor type, donor heavy atom, donor atom, acceptor molecule, acceptor atom, score
      P1  H  7997  8008       L1     3  1.00
      L1  C     5    24       P1  7949  0.92

> <Gold.PLP.Chemscore.Internal.Correction>
0.0794

> <Gold.Rescore>
     Score         DG    S(hbond)    S(metal)    S(lipo)     H(rot)  DE(clash)    DE(int)     intcor
      9.30     -10.21       0.98        0.00      65.40       2.42       0.24       0.67       ----

> <Gold.Chemscore.Fitness>
9.2963

> <Gold.Chemscore.DG>
-10.2089

> <Gold.Chemscore.ZeroCoef>
-5.4800

> <Gold.Chemscore.Hbond>
0.9789

> <Gold.Chemscore.Metal>
0.0000

> <Gold.Chemscore.Lipo>
65.4033

> <Gold.Chemscore.Internal_Hbond>
0.0000

> <Gold.Chemscore.DEClash>
0.2386

> <Gold.Chemscore.DEInternal>
0.6739

> <Gold.Chemscore.Rot>
2.4191

> <Gold.Chemscore.Internal.Correction>
   9.000000E+99

> <Gold.Chemscore.Hbonds>
donor molecule, donor type, donor heavy atom, donor atom, acceptor molecule, acceptor atom, score
      P1  H  7997  8008       L1     3  0.95

> <Gold.Chemscore.Hbond.Weighted>
-3.2696

> <Gold.Chemscore.Metal.Weighted>
-0.0000

> <Gold.Chemscore.Lipo.Weighted>
-7.6522

> <Gold.Chemscore.Internal_Hbond.Weighted>
0.0000

> <Gold.Chemscore.DEClash.Weighted>
0.2386

> <Gold.Chemscore.DEInternal.Weighted>
0.6739

> <Gold.Chemscore.Rot.Weighted>
6.1929

> <Gold.Chemscore.Internal.Correction.Weighted>
   9.000000E+99

> <Gold.Protein.RotatedTorsions>
[ 6907 6896 6895 6894 ] final  -48.67 input  -60.11 | X-H torsion
[ 7974 7965 7964 7962 ] final   97.49 input  175.53 | X-H torsion
[ 8008 7997 7996 7995 ] final  -38.21 input   59.86 | X-H torsion
[ 10167 10162 10161 10158 ] final   37.59 input  -65.29 | X-H torsion
[ 10718 10713 10712 10709 ] final  -91.59 input   66.30 | X-H torsion
[ 10763 10752 10751 10750 ] final -102.76 input  -60.55 | X-H torsion
[ 11005 11000 10999 10996 ] final -106.84 input  -57.11 | X-H torsion

> <Gold.Protein.ActiveResidues>
 VAL166  LYS551  ARG553  GLY616  TRP617  ASP618  TYR619  PRO620  LYS621  CYS622 
 ASP623  PHE694  ASN695  SER759  ASP760  ASP761  ALA762  ILE779  LEU786  VAL792 
 PHE793  MET794  SER795  GLU796  ALA797  LYS798  CYS799  TRP800  GLU811  SER814 

> <Gold.Protein.RotatedAtoms>
  150.8882  134.8282  159.7273 H   0  0  0  0  0  0  0  0  0  0  0  0  # atno 6907 bound_to 6896
  152.4820  134.4690  159.9639 H   0  0  0  0  0  0  0  0  0  0  0  0  # atno 6908 bound_to 6896
  151.4756  133.3520  159.2865 H   0  0  0  0  0  0  0  0  0  0  0  0  # atno 6909 bound_to 6896
  145.4248  139.2317  143.3176 H   0  0  0  0  0  0  0  0  0  0  0  0  # atno 7974 bound_to 7965
  154.4040  140.1584  156.2663 H   0  0  0  0  0  0  0  0  0  0  0  0  # atno 8008 bound_to 7997
  155.8993  140.3434  155.5992 H   0  0  0  0  0  0  0  0  0  0  0  0  # atno 8009 bound_to 7997
  155.7467  140.0799  157.2211 H   0  0  0  0  0  0  0  0  0  0  0  0  # atno 8010 bound_to 7997
  140.4018  144.1713  150.6134 H   0  0  0  0  0  0  0  0  0  0  0  0  # atno 10167 bound_to 10162
  155.9995  130.4954  150.5497 H   0  0  0  0  0  0  0  0  0  0  0  0  # atno 10718 bound_to 10713
  154.7758  135.4848  153.9741 H   0  0  0  0  0  0  0  0  0  0  0  0  # atno 10763 bound_to 10752
  153.1427  135.6776  153.9010 H   0  0  0  0  0  0  0  0  0  0  0  0  # atno 10764 bound_to 10752
  153.8679  135.3147  155.3419 H   0  0  0  0  0  0  0  0  0  0  0  0  # atno 10765 bound_to 10752
  141.0984  133.8928  157.1904 H   0  0  0  0  0  0  0  0  0  0  0  0  # atno 11005 bound_to 11000
  146.2638  140.4977  142.8842 LP  0  0  0  0  0  0  0  0  0  0  0  0  # atno 17320 bound_to 7965
  144.8221  140.6568  143.6346 LP  0  0  0  0  0  0  0  0  0  0  0  0  # atno 17321 bound_to 7965
  140.4732  143.2405  151.9060 LP  0  0  0  0  0  0  0  0  0  0  0  0  # atno 17342 bound_to 10162
  139.4784  144.5348  151.8614 LP  0  0  0  0  0  0  0  0  0  0  0  0  # atno 17343 bound_to 10162
  157.3422  131.0718  151.1779 LP  0  0  0  0  0  0  0  0  0  0  0  0  # atno 17370 bound_to 10713
  157.2624  130.6665  149.5981 LP  0  0  0  0  0  0  0  0  0  0  0  0  # atno 17371 bound_to 10713
  139.9828  135.0092  156.9790 LP  0  0  0  0  0  0  0  0  0  0  0  0  # atno 17394 bound_to 11000
  140.5082  134.1028  155.7264 LP  0  0  0  0  0  0  0  0  0  0  0  0  # atno 17395 bound_to 11000

$$$$
