AV-unprocessed.smi:363|AV-procd|sdf|2423|dock1
  -GOLD-   2262022363D 1   1.00000     0.00000
 Structure written by MMmdl.
 39 40  0  0  0  0  0  0  0  0  1 V2000
  144.4269  144.1993  154.8681 C   0  0  0  0  0  0  0  0  0  0  0  0
  145.5902  143.3491  155.3641 C   0  0  0  0  0  0  0  0  0  0  0  0
  146.4145  142.6887  154.3790 C   0  0  0  0  0  0  0  0  0  0  0  0
  147.4271  141.8866  154.7451 C   0  0  0  0  0  0  0  0  0  0  0  0
  148.2792  141.1820  153.6947 C   0  0  0  0  0  0  0  0  0  0  0  0
  147.7268  141.6852  156.1208 N   0  0  0  0  0  0  0  0  0  0  0  0
  148.8494  140.7958  156.5016 C   0  0  0  0  0  0  0  0  0  0  0  0
  150.2259  141.4101  156.1532 C   0  0  2  0  0  0  0  0  0  0  0  0
  150.8832  140.5758  155.2200 O   0  0  0  0  0  0  0  0  0  0  0  0
  151.0743  141.5969  157.4022 C   0  0  0  0  0  0  0  0  0  0  0  0
  151.4694  142.8920  157.8011 C   0  0  0  0  0  0  0  0  0  0  0  0
  152.2511  143.0711  158.9590 C   0  0  0  0  0  0  0  0  0  0  0  0
  152.6411  141.9564  159.7262 C   0  0  0  0  0  0  0  0  0  0  0  0
  153.5998  142.1766  161.1439 Cl  0  0  0  0  0  0  0  0  0  0  0  0
  152.2473  140.6622  159.3351 C   0  0  0  0  0  0  0  0  0  0  0  0
  151.4656  140.4829  158.1773 C   0  0  0  0  0  0  0  0  0  0  0  0
  147.0163  142.3019  157.1193 C   0  0  0  0  0  0  0  0  0  0  0  0
  147.3457  142.1557  158.3009 O   0  0  0  0  0  0  0  0  0  0  0  0
  145.8734  143.1487  156.6793 C   0  0  0  0  0  0  0  0  0  0  0  0
  145.0766  143.7879  157.7448 C   0  0  0  0  0  0  0  0  0  0  0  0
  145.7161  144.7366  158.4425 N   0  0  0  0  0  0  0  0  0  0  0  0
  143.9359  143.4562  158.0635 O   0  0  0  0  0  0  0  0  0  0  0  0
  144.2634  144.0576  153.7996 H   0  0  0  0  0  0  0  0  0  0  0  0
  144.6279  145.2577  155.0355 H   0  0  0  0  0  0  0  0  0  0  0  0
  143.4996  143.9333  155.3766 H   0  0  0  0  0  0  0  0  0  0  0  0
  146.2048  142.8352  153.3292 H   0  0  0  0  0  0  0  0  0  0  0  0
  147.8021  141.2322  152.7154 H   0  0  0  0  0  0  0  0  0  0  0  0
  148.4251  140.1262  153.9156 H   0  0  0  0  0  0  0  0  0  0  0  0
  149.2533  141.6642  153.6077 H   0  0  0  0  0  0  0  0  0  0  0  0
  148.7987  140.5922  157.5702 H   0  0  0  0  0  0  0  0  0  0  0  0
  148.7628  139.7944  156.0756 H   0  0  0  0  0  0  0  0  0  0  0  0
  150.0927  142.3825  155.6780 H   0  0  0  0  0  0  0  0  0  0  0  0
  150.4909  139.7170  155.2581 H   0  0  0  0  0  0  0  0  0  0  0  0
  151.1750  143.7547  157.2213 H   0  0  0  0  0  0  0  0  0  0  0  0
  152.5510  144.0649  159.2574 H   0  0  0  0  0  0  0  0  0  0  0  0
  152.5434  139.8053  159.9222 H   0  0  0  0  0  0  0  0  0  0  0  0
  151.1664  139.4866  157.8862 H   0  0  0  0  0  0  0  0  0  0  0  0
  145.2449  145.2102  159.1997 H   0  0  0  0  0  0  0  0  0  0  0  0
  146.6743  144.9631  158.2184 H   0  0  0  0  0  0  0  0  0  0  0  0
  1  2  1  0  0  0  0
  1 23  1  0  0  0  0
  1 24  1  0  0  0  0
  1 25  1  0  0  0  0
  2 19  2  0  0  0  0
  2  3  1  0  0  0  0
  3  4  2  0  0  0  0
  3 26  1  0  0  0  0
  4  5  1  0  0  0  0
  4  6  1  0  0  0  0
  5 27  1  0  0  0  0
  5 28  1  0  0  0  0
  5 29  1  0  0  0  0
  6  7  1  0  0  0  0
  6 17  1  0  0  0  0
  7  8  1  0  0  0  0
  7 30  1  0  0  0  0
  7 31  1  0  0  0  0
  8  9  1  0  0  0  0
  8 10  1  0  0  0  0
  8 32  1  0  0  0  0
  9 33  1  0  0  0  0
 10 16  1  0  0  0  0
 10 11  2  0  0  0  0
 11 12  1  0  0  0  0
 11 34  1  0  0  0  0
 12 13  2  0  0  0  0
 12 35  1  0  0  0  0
 13 14  1  0  0  0  0
 13 15  1  0  0  0  0
 15 16  2  0  0  0  0
 15 36  1  0  0  0  0
 16 37  1  0  0  0  0
 17 18  2  0  0  0  0
 17 19  1  0  0  0  0
 19 20  1  0  0  0  0
 20 21  1  0  0  0  0
 20 22  2  0  0  0  0
 21 38  1  0  0  0  0
 21 39  1  0  0  0  0
M  END
> <s_m_source_file>
AV-unprocessed.smi

> <i_m_source_file_index>
363

> <i_lp_mmshare_version>
43012

> <i_f3d_flags>
0

> <s_epik_input>
W0NIM11jMVtjSF1jKFtDSDNdKW4oYyg9TyljMUMoPU8pW05IMl0pW0NIMl1bQ0BIXShbT0hdKWMyW2NIXVtjSF1jKENsKVtjSF1bY0hdMg==

> <s_epik_cmdline>
J2VwaWtfcHl0aG9uJywgJy1waCcsICc3LjAnLCAnLXRuJywgJzgnLCAnLW1hJywgJzIwMCcsICctbWV0YWxfYmluZGluZycsICctaW1hZScsICc8aW5maWxlLm1hZT4nLCAnLW9tYWUnLCAnPG91dGZpbGUubWFlPic=

> <r_lp_tautomer_probability>
1

> <r_epik_Ionization_Penalty>
3.91973e-07

> <r_epik_Ionization_Penalty_Charging>
1.35363e-07

> <r_epik_Ionization_Penalty_Neutral>
2.5661e-07

> <r_epik_State_Penalty>
-0

> <r_epik_Charging_Adjusted_Penalty>
1.35363e-07

> <i_epik_Tot_Q>
0

> <i_epik_Tot_abs_Q>
0

> <r_epik_Metal_State_Penalty>
-0

> <b_epik_Metal_Only>
0

> <s_lp_Force_Field>
OPLS_2005

> <r_lp_Energy>
39.7948

> <b_lp_Chiralities_Consistent>
1

> <s_lp_Variant>
AV-unprocessed.smi:363-1

> <Gold.Version>
5.8.1

> <Gold.Id.Protein>
6NUR|6NUR_protein|mol2

> <Gold.PLP.Fitness>
43.7822

> <Gold.PLP.PLP>
-41.9744

> <Gold.PLP.part.hbond>
-2.0000

> <Gold.PLP.part.metal>
0.0000

> <Gold.PLP.part.buried>
-4.3084

> <Gold.PLP.part.nonpolar>
-35.8797

> <Gold.PLP.part.repulsive>
0.1251

> <Gold.PLP.ligand.clash>
0.0000

> <Gold.PLP.ligand.torsion>
2.1885

> <Gold.PLP.Chemscore.Hbond>
1.9440

> <Gold.PLP.Chemscore.CHOScore>
0.0000

> <Gold.PLP.Chemscore.Metal>
0.0000

> <Gold.Chemscore.Hbonds>
donor molecule, donor type, donor heavy atom, donor atom, acceptor molecule, acceptor atom, score
      L1  H    21    39       P1  8029  0.98
      P1  H  7989  7998       L1     9  0.94

> <Gold.PLP.Chemscore.Internal.Correction>
0.3528

> <Gold.Rescore>
     Score         DG    S(hbond)    S(metal)    S(lipo)     H(rot)  DE(clash)    DE(int)     intcor
     16.35     -18.63       1.87        0.00     101.63       1.95       0.01       2.27       ----

> <Gold.Chemscore.Fitness>
16.3519

> <Gold.Chemscore.DG>
-18.6290

> <Gold.Chemscore.ZeroCoef>
-5.4800

> <Gold.Chemscore.Hbond>
1.8708

> <Gold.Chemscore.Metal>
0.0000

> <Gold.Chemscore.Lipo>
101.6342

> <Gold.Chemscore.Internal_Hbond>
0.0000

> <Gold.Chemscore.DEClash>
0.0095

> <Gold.Chemscore.DEInternal>
2.2676

> <Gold.Chemscore.Rot>
1.9495

> <Gold.Chemscore.Internal.Correction>
   9.000000E+99

> <Gold.Chemscore.Hbonds>
donor molecule, donor type, donor heavy atom, donor atom, acceptor molecule, acceptor atom, score
      L1  H    21    39       P1  8029  0.87
      P1  H  7989  7998       L1     9  0.71

> <Gold.Chemscore.Hbond.Weighted>
-6.2486

> <Gold.Chemscore.Metal.Weighted>
-0.0000

> <Gold.Chemscore.Lipo.Weighted>
-11.8912

> <Gold.Chemscore.Internal_Hbond.Weighted>
0.0000

> <Gold.Chemscore.DEClash.Weighted>
0.0095

> <Gold.Chemscore.DEInternal.Weighted>
2.2676

> <Gold.Chemscore.Rot.Weighted>
4.9908

> <Gold.Chemscore.Internal.Correction.Weighted>
   9.000000E+99

> <Gold.Protein.RotatedTorsions>
[ 6907 6896 6895 6894 ] final  -73.85 input  -60.11 | X-H torsion
[ 7974 7965 7964 7962 ] final -163.43 input  175.53 | X-H torsion
[ 8008 7997 7996 7995 ] final  174.77 input   59.86 | X-H torsion
[ 10167 10162 10161 10158 ] final  125.48 input  -65.29 | X-H torsion
[ 10718 10713 10712 10709 ] final   72.69 input   66.30 | X-H torsion
[ 10763 10752 10751 10750 ] final   30.68 input  -60.55 | X-H torsion
[ 11005 11000 10999 10996 ] final  148.02 input  -57.11 | X-H torsion

> <Gold.Protein.ActiveResidues>
 VAL166  LYS551  ARG553  GLY616  TRP617  ASP618  TYR619  PRO620  LYS621  CYS622 
 ASP623  PHE694  ASN695  SER759  ASP760  ASP761  ALA762  ILE779  LEU786  VAL792 
 PHE793  MET794  SER795  GLU796  ALA797  LYS798  CYS799  TRP800  GLU811  SER814 

> <Gold.Protein.RotatedAtoms>
  150.7114  134.4955  159.5536 H   0  0  0  0  0  0  0  0  0  0  0  0  # atno 6907 bound_to 6896
  152.2564  134.8077  160.0447 H   0  0  0  0  0  0  0  0  0  0  0  0  # atno 6908 bound_to 6896
  151.8806  133.3459  159.3802 H   0  0  0  0  0  0  0  0  0  0  0  0  # atno 6909 bound_to 6896
  144.7326  140.3108  143.6188 H   0  0  0  0  0  0  0  0  0  0  0  0  # atno 7974 bound_to 7965
  156.0939  140.1426  156.9556 H   0  0  0  0  0  0  0  0  0  0  0  0  # atno 8008 bound_to 7997
  154.4659  140.0926  156.7066 H   0  0  0  0  0  0  0  0  0  0  0  0  # atno 8009 bound_to 7997
  155.4873  140.3447  155.4351 H   0  0  0  0  0  0  0  0  0  0  0  0  # atno 8010 bound_to 7997
  139.5683  144.6924  151.3848 H   0  0  0  0  0  0  0  0  0  0  0  0  # atno 10167 bound_to 10162
  157.6513  130.9591  150.0964 H   0  0  0  0  0  0  0  0  0  0  0  0  # atno 10718 bound_to 10713
  153.0358  135.6458  154.1081 H   0  0  0  0  0  0  0  0  0  0  0  0  # atno 10763 bound_to 10752
  154.0796  135.2874  155.3294 H   0  0  0  0  0  0  0  0  0  0  0  0  # atno 10764 bound_to 10752
  154.6539  135.5416  153.7999 H   0  0  0  0  0  0  0  0  0  0  0  0  # atno 10765 bound_to 10752
  140.0924  134.9033  157.1671 H   0  0  0  0  0  0  0  0  0  0  0  0  # atno 11005 bound_to 11000
  145.7666  139.1843  143.2236 LP  0  0  0  0  0  0  0  0  0  0  0  0  # atno 17320 bound_to 7965
  146.0944  140.7618  142.9580 LP  0  0  0  0  0  0  0  0  0  0  0  0  # atno 17321 bound_to 7965
  140.6967  143.7730  150.7338 LP  0  0  0  0  0  0  0  0  0  0  0  0  # atno 17342 bound_to 10162
  140.1229  143.4595  152.2302 LP  0  0  0  0  0  0  0  0  0  0  0  0  # atno 17343 bound_to 10162
  156.1899  130.3654  149.8924 LP  0  0  0  0  0  0  0  0  0  0  0  0  # atno 17370 bound_to 10713
  156.6855  130.8875  151.3581 LP  0  0  0  0  0  0  0  0  0  0  0  0  # atno 17371 bound_to 10713
  140.3333  134.2785  155.7224 LP  0  0  0  0  0  0  0  0  0  0  0  0  # atno 17394 bound_to 11000
  141.2082  133.7785  157.0074 LP  0  0  0  0  0  0  0  0  0  0  0  0  # atno 17395 bound_to 11000

$$$$
