AV-unprocessed.smi:2104|AV-procd|sdf|8584|dock1
  -GOLD-   2272011313D 1   1.00000     0.00000
 Structure written by MMmdl.
 43 44  0  0  0  0  0  0  0  0  1 V2000
  144.0765  142.8933  162.7854 C   0  0  0  0  0  0  0  0  0  0  0  0
  144.7857  143.3509  161.5573 C   0  0  0  0  0  0  0  0  0  0  0  0
  145.7733  142.7971  160.7919 C   0  0  0  0  0  0  0  0  0  0  0  0
  145.9739  143.7695  159.7763 C   0  0  0  0  0  0  0  0  0  0  0  0
  146.9349  143.5662  158.7533 N   0  0  0  0  0  0  0  0  0  0  0  0
  147.7305  142.4972  158.5810 C   0  0  0  0  0  0  0  0  0  0  0  0
  147.6888  141.4680  159.2559 O   0  0  0  0  0  0  0  0  0  0  0  0
  148.6001  142.6939  157.5789 N   0  0  0  0  0  0  0  0  0  0  0  0
  149.6710  141.7751  157.2058 C   0  0  0  0  0  0  0  0  0  0  0  0
  151.0266  142.4957  157.1516 C   0  0  0  0  0  0  0  0  0  0  0  0
  151.6743  142.3427  158.4048 O   0  0  0  0  0  0  0  0  0  0  0  0
  152.7596  143.2294  158.6439 C   0  0  1  0  0  0  0  0  0  0  0  0
  152.2662  144.6932  158.6608 C   0  0  0  0  0  0  0  0  0  0  0  0
  151.2876  144.9532  159.8188 C   0  0  0  0  0  0  0  0  0  0  0  0
  151.9062  144.5649  161.1700 C   0  0  0  0  0  0  0  0  0  0  0  0
  152.4041  143.1108  161.1613 C   0  0  0  0  0  0  0  0  0  0  0  0
  153.3914  142.8557  160.0035 C   0  0  1  0  0  0  0  0  0  0  0  0
  153.9241  141.4145  160.0154 C   0  0  0  0  0  0  0  0  0  0  0  0
  145.1782  144.8199  159.9076 N   0  0  0  0  0  0  0  0  0  0  0  0
  144.4134  144.5575  161.0504 O   0  0  0  0  0  0  0  0  0  0  0  0
  144.5026  141.9613  163.1570 H   0  0  0  0  0  0  0  0  0  0  0  0
  143.0197  142.7236  162.5795 H   0  0  0  0  0  0  0  0  0  0  0  0
  144.1529  143.6390  163.5768 H   0  0  0  0  0  0  0  0  0  0  0  0
  146.2695  141.8492  160.9376 H   0  0  0  0  0  0  0  0  0  0  0  0
  147.0594  144.3336  158.1099 H   0  0  0  0  0  0  0  0  0  0  0  0
  148.5536  143.5658  157.0722 H   0  0  0  0  0  0  0  0  0  0  0  0
  149.7122  140.9230  157.8862 H   0  0  0  0  0  0  0  0  0  0  0  0
  149.4339  141.3728  156.2207 H   0  0  0  0  0  0  0  0  0  0  0  0
  151.6515  142.0603  156.3709 H   0  0  0  0  0  0  0  0  0  0  0  0
  150.8772  143.5456  156.8999 H   0  0  0  0  0  0  0  0  0  0  0  0
  153.5123  143.1051  157.8630 H   0  0  0  0  0  0  0  0  0  0  0  0
  153.1251  145.3571  158.7649 H   0  0  0  0  0  0  0  0  0  0  0  0
  151.7980  144.9603  157.7141 H   0  0  0  0  0  0  0  0  0  0  0  0
  150.9981  146.0042  159.8320 H   0  0  0  0  0  0  0  0  0  0  0  0
  150.3707  144.3852  159.6607 H   0  0  0  0  0  0  0  0  0  0  0  0
  152.7377  145.2337  161.3956 H   0  0  0  0  0  0  0  0  0  0  0  0
  151.1737  144.7018  161.9662 H   0  0  0  0  0  0  0  0  0  0  0  0
  152.8818  142.8850  162.1152 H   0  0  0  0  0  0  0  0  0  0  0  0
  151.5515  142.4350  161.0787 H   0  0  0  0  0  0  0  0  0  0  0  0
  154.2504  143.5109  160.1555 H   0  0  0  0  0  0  0  0  0  0  0  0
  153.1176  140.6902  159.8967 H   0  0  0  0  0  0  0  0  0  0  0  0
  154.4321  141.1925  160.9542 H   0  0  0  0  0  0  0  0  0  0  0  0
  154.6383  141.2535  159.2074 H   0  0  0  0  0  0  0  0  0  0  0  0
  1  2  1  0  0  0  0
  1 21  1  0  0  0  0
  1 22  1  0  0  0  0
  1 23  1  0  0  0  0
  2 20  1  0  0  0  0
  2  3  2  0  0  0  0
  3  4  1  0  0  0  0
  3 24  1  0  0  0  0
  4  5  1  0  0  0  0
  4 19  2  0  0  0  0
  5  6  1  0  0  0  0
  5 25  1  0  0  0  0
  6  7  2  0  0  0  0
  6  8  1  0  0  0  0
  8  9  1  0  0  0  0
  8 26  1  0  0  0  0
  9 10  1  0  0  0  0
  9 27  1  0  0  0  0
  9 28  1  0  0  0  0
 10 11  1  0  0  0  0
 10 29  1  0  0  0  0
 10 30  1  0  0  0  0
 11 12  1  0  0  0  0
 12 17  1  0  0  0  0
 12 13  1  0  0  0  0
 12 31  1  0  0  0  0
 13 14  1  0  0  0  0
 13 32  1  0  0  0  0
 13 33  1  0  0  0  0
 14 15  1  0  0  0  0
 14 34  1  0  0  0  0
 14 35  1  0  0  0  0
 15 16  1  0  0  0  0
 15 36  1  0  0  0  0
 15 37  1  0  0  0  0
 16 17  1  0  0  0  0
 16 38  1  0  0  0  0
 16 39  1  0  0  0  0
 17 18  1  0  0  0  0
 17 40  1  0  0  0  0
 18 41  1  0  0  0  0
 18 42  1  0  0  0  0
 18 43  1  0  0  0  0
 19 20  1  0  0  0  0
M  END
> <s_m_source_file>
AV-unprocessed.smi

> <i_m_source_file_index>
2104

> <i_lp_mmshare_version>
43012

> <i_f3d_flags>
0

> <s_epik_input>
W0NIM11jMVtjSF1jKG5vMSlbTkhdQyg9TylbTkhdW0NIMl1bQ0gyXU9bQ0BASF0yW0NIMl1bQ0gyXVtDSDJdW0NIMl1bQ0BIXTJbQ0gzXQ==

> <s_epik_cmdline>
J2VwaWtfcHl0aG9uJywgJy1waCcsICc3LjAnLCAnLXRuJywgJzgnLCAnLW1hJywgJzIwMCcsICctbWV0YWxfYmluZGluZycsICctaW1hZScsICc8aW5maWxlLm1hZT4nLCAnLW9tYWUnLCAnPG91dGZpbGUubWFlPic=

> <r_lp_tautomer_probability>
1

> <r_epik_Ionization_Penalty>
2.94418e-05

> <r_epik_Ionization_Penalty_Charging>
0

> <r_epik_Ionization_Penalty_Neutral>
2.94418e-05

> <r_epik_State_Penalty>
-0

> <r_epik_Charging_Adjusted_Penalty>
0

> <i_epik_Tot_Q>
0

> <i_epik_Tot_abs_Q>
0

> <r_epik_Metal_State_Penalty>
0.0104148

> <b_epik_Metal_Only>
0

> <s_lp_Force_Field>
OPLS_2005

> <r_lp_Energy>
8.22598

> <b_lp_Chiralities_Consistent>
1

> <s_lp_Variant>
AV-unprocessed.smi:2104-2

> <Gold.Version>
5.8.1

> <Gold.Id.Protein>
6NUR|6NUR_protein|mol2

> <Gold.PLP.Fitness>
48.4637

> <Gold.PLP.PLP>
-42.1380

> <Gold.PLP.part.hbond>
-4.0319

> <Gold.PLP.part.metal>
0.0000

> <Gold.PLP.part.buried>
-2.6343

> <Gold.PLP.part.nonpolar>
-37.1360

> <Gold.PLP.part.repulsive>
1.3359

> <Gold.PLP.ligand.clash>
0.0000

> <Gold.PLP.ligand.torsion>
0.3180

> <Gold.PLP.Chemscore.Hbond>
2.3040

> <Gold.PLP.Chemscore.CHOScore>
0.0000

> <Gold.PLP.Chemscore.Metal>
0.0000

> <Gold.Chemscore.Hbonds>
donor molecule, donor type, donor heavy atom, donor atom, acceptor molecule, acceptor atom, score
      L1  H     5    25       P1  8029  1.00
      L1  H     8    26       P1  8028  0.80
      P1  H  6934  6946       L1     7  0.16

> <Gold.PLP.Chemscore.Internal.Correction>
0.0497

> <Gold.Rescore>
     Score         DG    S(hbond)    S(metal)    S(lipo)     H(rot)  DE(clash)    DE(int)     intcor
     15.39     -17.42       1.01        0.00     111.69       1.75       0.19       1.84       ----

> <Gold.Chemscore.Fitness>
15.3871

> <Gold.Chemscore.DG>
-17.4182

> <Gold.Chemscore.ZeroCoef>
-5.4800

> <Gold.Chemscore.Hbond>
1.0051

> <Gold.Chemscore.Metal>
0.0000

> <Gold.Chemscore.Lipo>
111.6878

> <Gold.Chemscore.Internal_Hbond>
0.0000

> <Gold.Chemscore.DEClash>
0.1890

> <Gold.Chemscore.DEInternal>
1.8421

> <Gold.Chemscore.Rot>
1.7524

> <Gold.Chemscore.Internal.Correction>
   9.000000E+99

> <Gold.Chemscore.Hbonds>
donor molecule, donor type, donor heavy atom, donor atom, acceptor molecule, acceptor atom, score
      L1  H     5    25       P1  8029  0.49
      L1  H     8    26       P1  8028  0.12
      P1  H  6934  6946       L1     7  0.17

> <Gold.Chemscore.Hbond.Weighted>
-3.3569

> <Gold.Chemscore.Metal.Weighted>
-0.0000

> <Gold.Chemscore.Lipo.Weighted>
-13.0675

> <Gold.Chemscore.Internal_Hbond.Weighted>
0.0000

> <Gold.Chemscore.DEClash.Weighted>
0.1890

> <Gold.Chemscore.DEInternal.Weighted>
1.8421

> <Gold.Chemscore.Rot.Weighted>
4.4861

> <Gold.Chemscore.Internal.Correction.Weighted>
   9.000000E+99

> <Gold.Protein.RotatedTorsions>
[ 6907 6896 6895 6894 ] final  -99.87 input  -60.11 | X-H torsion
[ 7974 7965 7964 7962 ] final  -43.58 input  175.53 | X-H torsion
[ 8008 7997 7996 7995 ] final   65.44 input   59.86 | X-H torsion
[ 10167 10162 10161 10158 ] final  138.56 input  -65.29 | X-H torsion
[ 10718 10713 10712 10709 ] final -138.26 input   66.30 | X-H torsion
[ 10763 10752 10751 10750 ] final   58.51 input  -60.55 | X-H torsion
[ 11005 11000 10999 10996 ] final  -38.74 input  -57.11 | X-H torsion

> <Gold.Protein.ActiveResidues>
 VAL166  LYS551  ARG553  GLY616  TRP617  ASP618  TYR619  PRO620  LYS621  CYS622 
 ASP623  PHE694  ASN695  SER759  ASP760  ASP761  ALA762  ILE779  LEU786  VAL792 
 PHE793  MET794  SER795  GLU796  ALA797  LYS798  CYS799  TRP800  GLU811  SER814 

> <Gold.Protein.RotatedAtoms>
  150.7095  134.0974  159.3953 H   0  0  0  0  0  0  0  0  0  0  0  0  # atno 6907 bound_to 6896
  151.8960  135.0395  160.0511 H   0  0  0  0  0  0  0  0  0  0  0  0  # atno 6908 bound_to 6896
  152.2453  133.5133  159.5330 H   0  0  0  0  0  0  0  0  0  0  0  0  # atno 6909 bound_to 6896
  146.0005  140.7079  142.9273 H   0  0  0  0  0  0  0  0  0  0  0  0  # atno 7974 bound_to 7965
  155.6617  140.3497  155.4785 H   0  0  0  0  0  0  0  0  0  0  0  0  # atno 8008 bound_to 7997
  155.9763  140.1165  157.0790 H   0  0  0  0  0  0  0  0  0  0  0  0  # atno 8009 bound_to 7997
  154.4179  140.1147  156.5360 H   0  0  0  0  0  0  0  0  0  0  0  0  # atno 8010 bound_to 7997
  139.5107  144.6346  151.5729 H   0  0  0  0  0  0  0  0  0  0  0  0  # atno 10167 bound_to 10162
  156.2973  130.7409  151.1451 H   0  0  0  0  0  0  0  0  0  0  0  0  # atno 10718 bound_to 10713
  152.9872  135.5604  154.5564 H   0  0  0  0  0  0  0  0  0  0  0  0  # atno 10763 bound_to 10752
  154.4992  135.2796  155.1437 H   0  0  0  0  0  0  0  0  0  0  0  0  # atno 10764 bound_to 10752
  154.2874  135.6333  153.5424 H   0  0  0  0  0  0  0  0  0  0  0  0  # atno 10765 bound_to 10752
  141.0050  133.6936  156.2093 H   0  0  0  0  0  0  0  0  0  0  0  0  # atno 11005 bound_to 11000
  144.6918  140.3225  143.7230 LP  0  0  0  0  0  0  0  0  0  0  0  0  # atno 17320 bound_to 7965
  145.7494  139.1789  143.2330 LP  0  0  0  0  0  0  0  0  0  0  0  0  # atno 17321 bound_to 7965
  140.6091  143.9470  150.6440 LP  0  0  0  0  0  0  0  0  0  0  0  0  # atno 17342 bound_to 10162
  140.2706  143.3458  152.1241 LP  0  0  0  0  0  0  0  0  0  0  0  0  # atno 17343 bound_to 10162
  157.7359  131.0568  150.5446 LP  0  0  0  0  0  0  0  0  0  0  0  0  # atno 17370 bound_to 10713
  156.5569  130.4246  149.6081 LP  0  0  0  0  0  0  0  0  0  0  0  0  # atno 17371 bound_to 10713
  140.6827  134.4750  157.5589 LP  0  0  0  0  0  0  0  0  0  0  0  0  # atno 17394 bound_to 11000
  139.9058  134.8451  156.1711 LP  0  0  0  0  0  0  0  0  0  0  0  0  # atno 17395 bound_to 11000

$$$$
