AV-unprocessed.smi:890|AV-procd|sdf|4058|dock7
  -GOLD-   22720 1543D 1   1.00000     0.00000
 Structure written by MMmdl.
 52 55  0  0  0  0  0  0  0  0  2 V2000
  145.6598  139.0155  153.0458 O   0  0  0  0  0  0  0  0  0  0  0  0
  146.6080  138.2595  152.8350 C   0  0  0  0  0  0  0  0  0  0  0  0
  147.8865  138.5027  153.1690 N   0  0  0  0  0  0  0  0  0  0  0  0
  148.4331  139.6556  153.8035 C   0  0  0  0  0  0  0  0  0  0  0  0
  147.7267  140.8798  153.9004 C   0  0  0  0  0  0  0  0  0  0  0  0
  148.3196  141.9650  154.5692 C   0  0  0  0  0  0  0  0  0  0  0  0
  149.5965  141.7867  155.1284 C   0  0  0  0  0  0  0  0  0  0  0  0
  150.2754  140.6240  155.0597 N   0  0  0  0  0  0  0  0  0  0  0  0
  149.7111  139.5701  154.4206 C   0  0  0  0  0  0  0  0  0  0  0  0
  150.4579  138.3754  154.3438 N   0  0  0  0  0  0  0  0  0  0  0  0
  151.8556  138.5329  154.7378 C   0  0  0  0  0  0  0  0  0  0  0  0
  152.2478  137.2462  155.4663 C   0  0  0  0  0  0  0  0  0  0  0  0
  150.9234  136.7603  156.0417 C   0  0  0  0  0  0  0  0  0  0  0  0
  149.9275  137.1561  154.9530 C   0  0  0  0  0  0  0  0  0  0  0  0
  146.4840  137.0776  152.2140 N   0  0  0  0  0  0  0  0  0  0  0  0
  145.2257  136.5143  151.7325 C   0  0  2  0  0  0  0  0  0  0  0  0
  144.6412  135.5546  152.7818 C   0  0  0  0  0  0  0  0  0  0  0  0
  143.3442  134.8981  152.2708 C   0  0  0  0  0  0  0  0  0  0  0  0
  143.5389  134.2079  150.9692 N   0  3  2  0  0  0  0  0  0  0  0  0
  144.2621  132.9204  151.0905 C   0  0  0  0  0  0  0  0  0  0  0  0
  144.9383  132.4829  149.8117 C   0  0  0  0  0  0  0  0  0  0  0  0
  143.6617  131.8088  150.2620 C   0  0  0  0  0  0  0  0  0  0  0  0
  144.1114  135.1087  149.9356 C   0  0  0  0  0  0  0  0  0  0  0  0
  145.4240  135.7661  150.4008 C   0  0  0  0  0  0  0  0  0  0  0  0
  148.5658  137.8251  152.8545 H   0  0  0  0  0  0  0  0  0  0  0  0
  146.7364  141.0029  153.4901 H   0  0  0  0  0  0  0  0  0  0  0  0
  147.8044  142.9101  154.6557 H   0  0  0  0  0  0  0  0  0  0  0  0
  150.0839  142.5970  155.6501 H   0  0  0  0  0  0  0  0  0  0  0  0
  152.4924  138.7069  153.8701 H   0  0  0  0  0  0  0  0  0  0  0  0
  151.9639  139.3877  155.4076 H   0  0  0  0  0  0  0  0  0  0  0  0
  152.6277  136.5156  154.7507 H   0  0  0  0  0  0  0  0  0  0  0  0
  153.0130  137.4054  156.2262 H   0  0  0  0  0  0  0  0  0  0  0  0
  150.9149  135.6918  156.2577 H   0  0  0  0  0  0  0  0  0  0  0  0
  150.6991  137.2974  156.9644 H   0  0  0  0  0  0  0  0  0  0  0  0
  148.9144  137.2479  155.3450 H   0  0  0  0  0  0  0  0  0  0  0  0
  149.8978  136.3870  154.1807 H   0  0  0  0  0  0  0  0  0  0  0  0
  147.3165  136.5227  152.0776 H   0  0  0  0  0  0  0  0  0  0  0  0
  144.5128  137.3275  151.5810 H   0  0  0  0  0  0  0  0  0  0  0  0
  145.3722  134.7848  153.0335 H   0  0  0  0  0  0  0  0  0  0  0  0
  144.4364  136.0945  153.7071 H   0  0  0  0  0  0  0  0  0  0  0  0
  142.9555  134.1965  153.0099 H   0  0  0  0  0  0  0  0  0  0  0  0
  142.5773  135.6629  152.1418 H   0  0  0  0  0  0  0  0  0  0  0  0
  144.7182  132.7010  152.0538 H   0  0  0  0  0  0  0  0  0  0  0  0
  144.8803  133.1398  148.9454 H   0  0  0  0  0  0  0  0  0  0  0  0
  145.8611  131.9134  149.9013 H   0  0  0  0  0  0  0  0  0  0  0  0
  143.7435  130.7946  150.6475 H   0  0  0  0  0  0  0  0  0  0  0  0
  142.7568  132.0186  149.6943 H   0  0  0  0  0  0  0  0  0  0  0  0
  144.2695  134.5590  149.0070 H   0  0  0  0  0  0  0  0  0  0  0  0
  143.3773  135.8837  149.7111 H   0  0  0  0  0  0  0  0  0  0  0  0
  145.7750  136.4533  149.6302 H   0  0  0  0  0  0  0  0  0  0  0  0
  146.2014  135.0086  150.5093 H   0  0  0  0  0  0  0  0  0  0  0  0
  142.6151  133.9617  150.6431 H   0  0  0  0  0  0  0  0  0  0  0  0
  1  2  2  0  0  0  0
  2  3  1  0  0  0  0
  2 15  1  0  0  0  0
  3  4  1  0  0  0  0
  3 25  1  0  0  0  0
  4  9  1  0  0  0  0
  4  5  2  0  0  0  0
  5  6  1  0  0  0  0
  5 26  1  0  0  0  0
  6  7  2  0  0  0  0
  6 27  1  0  0  0  0
  7  8  1  0  0  0  0
  7 28  1  0  0  0  0
  8  9  2  0  0  0  0
  9 10  1  0  0  0  0
 10 14  1  0  0  0  0
 10 11  1  0  0  0  0
 11 12  1  0  0  0  0
 11 29  1  0  0  0  0
 11 30  1  0  0  0  0
 12 13  1  0  0  0  0
 12 31  1  0  0  0  0
 12 32  1  0  0  0  0
 13 14  1  0  0  0  0
 13 33  1  0  0  0  0
 13 34  1  0  0  0  0
 14 35  1  0  0  0  0
 14 36  1  0  0  0  0
 15 16  1  0  0  0  0
 15 37  1  0  0  0  0
 16 24  1  0  0  0  0
 16 17  1  0  0  0  0
 16 38  1  0  0  0  0
 17 18  1  0  0  0  0
 17 39  1  0  0  0  0
 17 40  1  0  0  0  0
 18 19  1  0  0  0  0
 18 41  1  0  0  0  0
 18 42  1  0  0  0  0
 19 20  1  0  0  0  0
 19 23  1  0  0  0  0
 19 52  1  0  0  0  0
 20 22  1  0  0  0  0
 20 21  1  0  0  0  0
 20 43  1  0  0  0  0
 21 22  1  0  0  0  0
 21 44  1  0  0  0  0
 21 45  1  0  0  0  0
 22 46  1  0  0  0  0
 22 47  1  0  0  0  0
 23 24  1  0  0  0  0
 23 48  1  0  0  0  0
 23 49  1  0  0  0  0
 24 50  1  0  0  0  0
 24 51  1  0  0  0  0
M  CHG  1  19   1
M  END
> <s_m_source_file>
AV-unprocessed.smi

> <i_m_source_file_index>
890

> <i_lp_mmshare_version>
43012

> <i_f3d_flags>
0

> <s_epik_input>
W0NIMl0xW0NIMl1bQ0hdMU4oW0NIMl1bQ0gyXTIpW0NIMl1bQ0gyXVtDSF0yW05IXUMoPU8pW05IXWMzW2NIXVtjSF1bY0hdbmMzTjRbQ0gyXVtDSDJdW0NIMl1bQ0gyXTQ=

> <s_epik_cmdline>
J2VwaWtfcHl0aG9uJywgJy1waCcsICc3LjAnLCAnLXRuJywgJzgnLCAnLW1hJywgJzIwMCcsICctbWV0YWxfYmluZGluZycsICctaW1hZScsICc8aW5maWxlLm1hZT4nLCAnLW9tYWUnLCAnPG91dGZpbGUubWFlPic=

> <r_lp_tautomer_probability>
1

> <r_epik_Ionization_Penalty>
0.193768

> <r_epik_Ionization_Penalty_Charging>
0.115549

> <r_epik_Ionization_Penalty_Neutral>
0.078219

> <r_epik_State_Penalty>
0.174811

> <r_epik_Charging_Adjusted_Penalty>
0.29036

> <i_epik_Tot_Q>
1

> <i_epik_Tot_abs_Q>
1

> <r_epik_Metal_State_Penalty>
0.169761

> <b_epik_Metal_Only>
0

> <s_lp_Force_Field>
OPLS_2005

> <r_lp_Energy>
56.2334

> <b_lp_Chiralities_Consistent>
1

> <s_lp_Variant>
AV-unprocessed.smi:890-2

> <Gold.Version>
5.8.1

> <Gold.Id.Protein>
6NUR|6NUR_protein|mol2

> <Gold.PLP.Fitness>
48.5389

> <Gold.PLP.PLP>
-34.4495

> <Gold.PLP.part.hbond>
-4.9852

> <Gold.PLP.part.metal>
0.0000

> <Gold.PLP.part.buried>
5.9462

> <Gold.PLP.part.nonpolar>
-39.7461

> <Gold.PLP.part.repulsive>
4.4843

> <Gold.PLP.ligand.clash>
0.0000

> <Gold.PLP.ligand.torsion>
1.4102

> <Gold.PLP.Chemscore.Hbond>
4.4496

> <Gold.PLP.Chemscore.CHOScore>
0.7241

> <Gold.PLP.Chemscore.Metal>
0.0000

> <Gold.Chemscore.Hbonds>
donor molecule, donor type, donor heavy atom, donor atom, acceptor molecule, acceptor atom, score
      L1  H     3    25       P1  7948  0.99
      L1  H    15    37       P1  7948  1.00
      L1  H    19    52       P1 10186  1.95
      P1  H  7989  7998       L1     8  0.44
      L1  C     7    28       P1  8028  0.71

> <Gold.PLP.Chemscore.Internal.Correction>
1.3889

> <Gold.Rescore>
     Score         DG    S(hbond)    S(metal)    S(lipo)     H(rot)  DE(clash)    DE(int)     intcor
     16.37     -23.85       2.71        0.00     108.75       1.33       3.90       3.58       ----

> <Gold.Chemscore.Fitness>
16.3723

> <Gold.Chemscore.DG>
-23.8485

> <Gold.Chemscore.ZeroCoef>
-5.4800

> <Gold.Chemscore.Hbond>
2.7091

> <Gold.Chemscore.Metal>
0.0000

> <Gold.Chemscore.Lipo>
108.7452

> <Gold.Chemscore.Internal_Hbond>
0.0000

> <Gold.Chemscore.DEClash>
3.8971

> <Gold.Chemscore.DEInternal>
3.5791

> <Gold.Chemscore.Rot>
1.3294

> <Gold.Chemscore.Internal.Correction>
   9.000000E+99

> <Gold.Chemscore.Hbonds>
donor molecule, donor type, donor heavy atom, donor atom, acceptor molecule, acceptor atom, score
      L1  H     3    25       P1  7948  0.94
      L1  H    15    37       P1  7948  0.99
      L1  H    19    52       P1 10186  0.74
      P1  H  7989  7998       L1     8  0.01

> <Gold.Chemscore.Hbond.Weighted>
-9.0485

> <Gold.Chemscore.Metal.Weighted>
-0.0000

> <Gold.Chemscore.Lipo.Weighted>
-12.7232

> <Gold.Chemscore.Internal_Hbond.Weighted>
0.0000

> <Gold.Chemscore.DEClash.Weighted>
3.8971

> <Gold.Chemscore.DEInternal.Weighted>
3.5791

> <Gold.Chemscore.Rot.Weighted>
3.4032

> <Gold.Chemscore.Internal.Correction.Weighted>
   9.000000E+99

> <Gold.Protein.RotatedTorsions>
[ 6907 6896 6895 6894 ] final   -7.42 input  -60.11 | X-H torsion
[ 7974 7965 7964 7962 ] final  -24.91 input  175.53 | X-H torsion
[ 8008 7997 7996 7995 ] final  136.88 input   59.86 | X-H torsion
[ 10167 10162 10161 10158 ] final -164.84 input  -65.29 | X-H torsion
[ 10718 10713 10712 10709 ] final -137.82 input   66.30 | X-H torsion
[ 10763 10752 10751 10750 ] final -103.17 input  -60.55 | X-H torsion
[ 11005 11000 10999 10996 ] final  127.03 input  -57.11 | X-H torsion

> <Gold.Protein.ActiveResidues>
 VAL166  LYS551  ARG553  GLY616  TRP617  ASP618  TYR619  PRO620  LYS621  CYS622 
 ASP623  PHE694  ASN695  SER759  ASP760  ASP761  ALA762  ILE779  LEU786  VAL792 
 PHE793  MET794  SER795  GLU796  ALA797  LYS798  CYS799  TRP800  GLU811  SER814 

> <Gold.Protein.RotatedAtoms>
  151.4499  135.1029  159.9694 H   0  0  0  0  0  0  0  0  0  0  0  0  # atno 6907 bound_to 6896
  152.4892  133.8450  159.7182 H   0  0  0  0  0  0  0  0  0  0  0  0  # atno 6908 bound_to 6896
  150.9029  133.7035  159.2901 H   0  0  0  0  0  0  0  0  0  0  0  0  # atno 6909 bound_to 6896
  146.1525  140.4815  142.8605 H   0  0  0  0  0  0  0  0  0  0  0  0  # atno 7974 bound_to 7965
  156.3003  140.2434  156.3817 H   0  0  0  0  0  0  0  0  0  0  0  0  # atno 8008 bound_to 7997
  154.8695  140.0416  157.1735 H   0  0  0  0  0  0  0  0  0  0  0  0  # atno 8009 bound_to 7997
  154.8811  140.2949  155.5429 H   0  0  0  0  0  0  0  0  0  0  0  0  # atno 8010 bound_to 7997
  139.6223  144.0600  152.1944 H   0  0  0  0  0  0  0  0  0  0  0  0  # atno 10167 bound_to 10162
  156.2924  130.7383  151.1412 H   0  0  0  0  0  0  0  0  0  0  0  0  # atno 10718 bound_to 10713
  154.7788  135.4833  153.9799 H   0  0  0  0  0  0  0  0  0  0  0  0  # atno 10763 bound_to 10752
  153.1464  135.6783  153.8955 H   0  0  0  0  0  0  0  0  0  0  0  0  # atno 10764 bound_to 10752
  153.8613  135.3155  155.3416 H   0  0  0  0  0  0  0  0  0  0  0  0  # atno 10765 bound_to 10752
  139.9486  134.9625  156.8795 H   0  0  0  0  0  0  0  0  0  0  0  0  # atno 11005 bound_to 11000
  144.7922  140.6053  143.6534 LP  0  0  0  0  0  0  0  0  0  0  0  0  # atno 17320 bound_to 7965
  145.4789  139.1497  143.3773 LP  0  0  0  0  0  0  0  0  0  0  0  0  # atno 17321 bound_to 7965
  140.0245  144.6128  150.7539 LP  0  0  0  0  0  0  0  0  0  0  0  0  # atno 17342 bound_to 10162
  140.7390  143.2785  151.3669 LP  0  0  0  0  0  0  0  0  0  0  0  0  # atno 17343 bound_to 10162
  157.7346  131.0580  150.5515 LP  0  0  0  0  0  0  0  0  0  0  0  0  # atno 17370 bound_to 10713
  156.5633  130.4261  149.6053 LP  0  0  0  0  0  0  0  0  0  0  0  0  # atno 17371 bound_to 10713
  140.5773  134.0386  155.7451 LP  0  0  0  0  0  0  0  0  0  0  0  0  # atno 17394 bound_to 11000
  141.1144  133.9564  157.2850 LP  0  0  0  0  0  0  0  0  0  0  0  0  # atno 17395 bound_to 11000

$$$$
