AV-unprocessed.smi:645|AV-procd|sdf|3159|dock4
  -GOLD-   22720 0 83D 1   1.00000     0.00000
 Structure written by MMmdl.
 23 24  0  0  0  0  0  0  0  0  1 V2000
  147.4484  137.3346  155.1603 C   0  0  0  0  0  0  0  0  0  0  0  0
  147.7618  138.5862  154.3157 C   0  0  1  0  0  0  0  0  0  0  0  0
  148.9984  139.3427  154.8260 C   0  0  0  0  0  0  0  0  0  0  0  0
  150.2809  138.7438  154.8748 C   0  0  0  0  0  0  0  0  0  0  0  0
  151.3678  139.4969  155.3618 C   0  0  0  0  0  0  0  0  0  0  0  0
  151.2566  140.7708  155.7914 N   0  0  0  0  0  0  0  0  0  0  0  0
  150.0357  141.3429  155.7473 C   0  0  0  0  0  0  0  0  0  0  0  0
  148.8856  140.6777  155.2796 C   0  0  0  0  0  0  0  0  0  0  0  0
  147.8374  138.2240  152.9058 N   0  0  0  0  0  0  0  0  0  0  0  0
  146.9299  138.8573  152.1511 C   0  0  0  0  0  0  0  0  0  0  0  0
  146.7999  138.7496  150.9342 O   0  0  0  0  0  0  0  0  0  0  0  0
  146.1859  139.6187  152.9578 N   0  0  0  0  0  0  0  0  0  0  0  0
  146.5596  139.5243  154.2328 C   0  0  0  0  0  0  0  0  0  0  0  0
  146.0310  140.0836  155.1927 O   0  0  0  0  0  0  0  0  0  0  0  0
  147.2604  137.5831  156.2051 H   0  0  0  0  0  0  0  0  0  0  0  0
  148.2799  136.6295  155.1348 H   0  0  0  0  0  0  0  0  0  0  0  0
  146.5652  136.8120  154.7896 H   0  0  0  0  0  0  0  0  0  0  0  0
  150.4500  137.7284  154.5494 H   0  0  0  0  0  0  0  0  0  0  0  0
  152.3552  139.0617  155.4080 H   0  0  0  0  0  0  0  0  0  0  0  0
  149.9720  142.3631  156.0953 H   0  0  0  0  0  0  0  0  0  0  0  0
  147.9364  141.1926  155.2664 H   0  0  0  0  0  0  0  0  0  0  0  0
  148.5296  137.5839  152.5448 H   0  0  0  0  0  0  0  0  0  0  0  0
  145.4163  140.1890  152.6392 H   0  0  0  0  0  0  0  0  0  0  0  0
  1  2  1  0  0  0  0
  1 15  1  0  0  0  0
  1 16  1  0  0  0  0
  1 17  1  0  0  0  0
  2 13  1  0  0  0  0
  2  3  1  0  0  0  0
  2  9  1  0  0  0  0
  3  8  1  0  0  0  0
  3  4  2  0  0  0  0
  4  5  1  0  0  0  0
  4 18  1  0  0  0  0
  5  6  2  0  0  0  0
  5 19  1  0  0  0  0
  6  7  1  0  0  0  0
  7  8  2  0  0  0  0
  7 20  1  0  0  0  0
  8 21  1  0  0  0  0
  9 10  1  0  0  0  0
  9 22  1  0  0  0  0
 10 11  2  0  0  0  0
 10 12  1  0  0  0  0
 12 13  1  0  0  0  0
 12 23  1  0  0  0  0
 13 14  2  0  0  0  0
M  END
> <s_m_source_file>
AV-unprocessed.smi

> <i_m_source_file_index>
645

> <i_lp_mmshare_version>
43012

> <i_f3d_flags>
0

> <s_epik_input>
Tz1DMVtOSF1DKD1PKVtOSF1bQ0BAXTEoW0NIM10pYzJbY0hdW2NIXW5bY0hdW2NIXTI=

> <s_epik_cmdline>
J2VwaWtfcHl0aG9uJywgJy1waCcsICc3LjAnLCAnLXRuJywgJzgnLCAnLW1hJywgJzIwMCcsICctbWV0YWxfYmluZGluZycsICctaW1hZScsICc8aW5maWxlLm1hZT4nLCAnLW9tYWUnLCAnPG91dGZpbGUubWFlPic=

> <r_lp_tautomer_probability>
1

> <r_epik_Ionization_Penalty>
0.0327402

> <r_epik_Ionization_Penalty_Charging>
0

> <r_epik_Ionization_Penalty_Neutral>
0.0327402

> <r_epik_State_Penalty>
0.022996

> <r_epik_Charging_Adjusted_Penalty>
0.022996

> <i_epik_Tot_Q>
0

> <i_epik_Tot_abs_Q>
0

> <r_epik_Metal_State_Penalty>
0.426243

> <b_epik_Metal_Only>
0

> <s_lp_Force_Field>
OPLS_2005

> <r_lp_Energy>
18.0362

> <b_lp_Chiralities_Consistent>
1

> <s_lp_Variant>
AV-unprocessed.smi:645-1

> <Gold.Version>
5.8.1

> <Gold.Id.Protein>
6NUR|6NUR_protein|mol2

> <Gold.PLP.Fitness>
33.4233

> <Gold.PLP.PLP>
-21.8137

> <Gold.PLP.part.hbond>
-4.8278

> <Gold.PLP.part.metal>
0.0000

> <Gold.PLP.part.buried>
-0.7973

> <Gold.PLP.part.nonpolar>
-17.0747

> <Gold.PLP.part.repulsive>
1.1816

> <Gold.PLP.ligand.clash>
0.0000

> <Gold.PLP.ligand.torsion>
0.0625

> <Gold.PLP.Chemscore.Hbond>
2.8720

> <Gold.PLP.Chemscore.CHOScore>
1.0000

> <Gold.PLP.Chemscore.Metal>
0.0000

> <Gold.Chemscore.Hbonds>
donor molecule, donor type, donor heavy atom, donor atom, acceptor molecule, acceptor atom, score
      L1  H     9    22       P1  7948  1.00
      L1  H    12    23       P1 10175  1.00
      P1  H  7954  7966       L1    11  0.90
      L1  C     7    20       P1  8028  0.75

> <Gold.PLP.Chemscore.Internal.Correction>
0.1187

> <Gold.Rescore>
     Score         DG    S(hbond)    S(metal)    S(lipo)     H(rot)  DE(clash)    DE(int)     intcor
     15.04     -16.47       2.89        0.00      33.39       1.00       0.14       1.29       ----

> <Gold.Chemscore.Fitness>
15.0428

> <Gold.Chemscore.DG>
-16.4676

> <Gold.Chemscore.ZeroCoef>
-5.4800

> <Gold.Chemscore.Hbond>
2.8865

> <Gold.Chemscore.Metal>
0.0000

> <Gold.Chemscore.Lipo>
33.3919

> <Gold.Chemscore.Internal_Hbond>
0.0000

> <Gold.Chemscore.DEClash>
0.1381

> <Gold.Chemscore.DEInternal>
1.2868

> <Gold.Chemscore.Rot>
1.0000

> <Gold.Chemscore.Internal.Correction>
   9.000000E+99

> <Gold.Chemscore.Hbonds>
donor molecule, donor type, donor heavy atom, donor atom, acceptor molecule, acceptor atom, score
      L1  H     9    22       P1  7948  0.92
      L1  H    12    23       P1 10175  0.86
      P1  H  7954  7966       L1    11  0.86

> <Gold.Chemscore.Hbond.Weighted>
-9.6408

> <Gold.Chemscore.Metal.Weighted>
-0.0000

> <Gold.Chemscore.Lipo.Weighted>
-3.9068

> <Gold.Chemscore.Internal_Hbond.Weighted>
0.0000

> <Gold.Chemscore.DEClash.Weighted>
0.1381

> <Gold.Chemscore.DEInternal.Weighted>
1.2868

> <Gold.Chemscore.Rot.Weighted>
2.5600

> <Gold.Chemscore.Internal.Correction.Weighted>
   9.000000E+99

> <Gold.Protein.RotatedTorsions>
[ 6907 6896 6895 6894 ] final  -71.83 input  -60.11 | X-H torsion
[ 7974 7965 7964 7962 ] final  -28.73 input  175.53 | X-H torsion
[ 8008 7997 7996 7995 ] final  148.07 input   59.86 | X-H torsion
[ 10167 10162 10161 10158 ] final -131.54 input  -65.29 | X-H torsion
[ 10718 10713 10712 10709 ] final  -20.48 input   66.30 | X-H torsion
[ 10763 10752 10751 10750 ] final   82.66 input  -60.55 | X-H torsion
[ 11005 11000 10999 10996 ] final   96.81 input  -57.11 | X-H torsion

> <Gold.Protein.ActiveResidues>
 VAL166  LYS551  ARG553  GLY616  TRP617  ASP618  TYR619  PRO620  LYS621  CYS622 
 ASP623  PHE694  ASN695  SER759  ASP760  ASP761  ALA762  ILE779  LEU786  VAL792 
 PHE793  MET794  SER795  GLU796  ALA797  LYS798  CYS799  TRP800  GLU811  SER814 

> <Gold.Protein.RotatedAtoms>
  150.7195  134.5251  159.5672 H   0  0  0  0  0  0  0  0  0  0  0  0  # atno 6907 bound_to 6896
  152.2797  134.7839  160.0408 H   0  0  0  0  0  0  0  0  0  0  0  0  # atno 6908 bound_to 6896
  151.8490  133.3401  159.3704 H   0  0  0  0  0  0  0  0  0  0  0  0  # atno 6909 bound_to 6896
  146.1267  140.5321  142.8711 H   0  0  0  0  0  0  0  0  0  0  0  0  # atno 7974 bound_to 7965
  156.2804  140.2139  156.5638 H   0  0  0  0  0  0  0  0  0  0  0  0  # atno 8008 bound_to 7997
  154.7191  140.0505  157.0645 H   0  0  0  0  0  0  0  0  0  0  0  0  # atno 8009 bound_to 7997
  155.0503  140.3155  155.4697 H   0  0  0  0  0  0  0  0  0  0  0  0  # atno 8010 bound_to 7997
  139.9178  143.6417  152.2560 H   0  0  0  0  0  0  0  0  0  0  0  0  # atno 10167 bound_to 10162
  156.5313  130.4656  149.6546 H   0  0  0  0  0  0  0  0  0  0  0  0  # atno 10718 bound_to 10713
  153.1222  135.4720  154.9214 H   0  0  0  0  0  0  0  0  0  0  0  0  # atno 10763 bound_to 10752
  154.7586  135.3125  154.8424 H   0  0  0  0  0  0  0  0  0  0  0  0  # atno 10764 bound_to 10752
  153.8986  135.6877  153.4810 H   0  0  0  0  0  0  0  0  0  0  0  0  # atno 10765 bound_to 10752
  139.8779  134.8969  156.4214 H   0  0  0  0  0  0  0  0  0  0  0  0  # atno 11005 bound_to 11000
  144.7650  140.5508  143.6709 LP  0  0  0  0  0  0  0  0  0  0  0  0  # atno 17320 bound_to 7965
  145.5349  139.1475  143.3479 LP  0  0  0  0  0  0  0  0  0  0  0  0  # atno 17321 bound_to 7965
  139.6887  144.7649  151.1477 LP  0  0  0  0  0  0  0  0  0  0  0  0  # atno 17342 bound_to 10162
  140.7669  143.5620  150.9088 LP  0  0  0  0  0  0  0  0  0  0  0  0  # atno 17343 bound_to 10162
  156.3057  130.7201  151.2083 LP  0  0  0  0  0  0  0  0  0  0  0  0  # atno 17370 bound_to 10713
  157.7421  131.0494  150.5048 LP  0  0  0  0  0  0  0  0  0  0  0  0  # atno 17371 bound_to 10713
  140.9131  133.7698  155.9815 LP  0  0  0  0  0  0  0  0  0  0  0  0  # atno 17394 bound_to 11000
  140.8524  134.2938  157.5270 LP  0  0  0  0  0  0  0  0  0  0  0  0  # atno 17395 bound_to 11000

$$$$
