AV-unprocessed.smi:255|AV-procd|sdf|1952|dock7
  -GOLD-   2262021 93D 1   1.00000     0.00000
 Structure written by MMmdl.
 44 47  0  0  0  0  0  0  0  0  1 V2000
  146.4377  137.5856  150.7069 O   0  0  0  0  0  0  0  0  0  0  0  0
  145.9941  137.0863  151.9499 C   0  0  0  0  0  0  0  0  0  0  0  0
  144.9083  136.0096  151.7323 C   0  0  1  0  0  0  0  0  0  0  0  0
  145.1974  135.0211  150.6010 C   0  0  0  0  0  0  0  0  0  0  0  0
  144.2031  133.8932  150.8844 C   0  0  1  0  0  0  0  0  0  0  0  0
  144.7399  132.7010  150.6246 F   0  0  0  0  0  0  0  0  0  0  0  0
  143.8307  134.0453  152.3700 C   0  0  0  0  0  0  0  0  0  0  0  0
  144.5997  135.1734  152.8947 N   0  0  0  0  0  0  0  0  0  0  0  0
  145.6416  134.8461  153.7009 C   0  0  0  0  0  0  0  0  0  0  0  0
  145.6581  135.2289  155.0060 N   0  0  0  0  0  0  0  0  0  0  0  0
  146.6706  134.8655  155.7983 C   0  0  0  0  0  0  0  0  0  0  0  0
  147.7447  134.1329  155.4968 N   0  0  0  0  0  0  0  0  0  0  0  0
  147.7361  133.7542  154.1863 C   0  0  0  0  0  0  0  0  0  0  0  0
  146.7291  134.0632  153.2299 C   0  0  0  0  0  0  0  0  0  0  0  0
  147.0442  133.4926  152.0040 N   0  0  0  0  0  0  0  0  0  0  0  0
  148.1715  132.8734  152.2253 C   0  0  0  0  0  0  0  0  0  0  0  0
  148.6710  132.9935  153.5037 N   0  0  0  0  0  0  0  0  0  0  0  0
  149.8931  132.3958  154.0239 C   0  0  0  0  0  0  0  0  0  0  0  0
  149.8167  130.8730  154.3084 C   0  0  1  0  0  0  0  0  0  0  0  0
  149.0170  130.7196  155.4670 O   0  0  0  0  0  0  0  0  0  0  0  0
  149.1925  130.0313  153.1952 C   0  0  0  0  0  0  0  0  0  0  0  0
  149.8816  128.6836  153.3594 C   0  0  0  0  0  0  0  0  0  0  0  0
  151.2120  129.0591  153.6680 O   0  0  0  0  0  0  0  0  0  0  0  0
  151.1669  130.1658  154.5618 C   0  0  0  0  0  0  0  0  0  0  0  0
  143.9796  136.5316  151.4954 H   0  0  0  0  0  0  0  0  0  0  0  0
  143.3141  133.9902  150.2605 H   0  0  0  0  0  0  0  0  0  0  0  0
  145.7872  138.1858  150.3755 H   0  0  0  0  0  0  0  0  0  0  0  0
  146.8509  136.6895  152.4960 H   0  0  0  0  0  0  0  0  0  0  0  0
  145.5940  137.9210  152.5262 H   0  0  0  0  0  0  0  0  0  0  0  0
  145.0675  135.4578  149.6106 H   0  0  0  0  0  0  0  0  0  0  0  0
  146.2218  134.6530  150.6740 H   0  0  0  0  0  0  0  0  0  0  0  0
  142.7694  134.2740  152.4695 H   0  0  0  0  0  0  0  0  0  0  0  0
  144.0061  133.1230  152.9261 H   0  0  0  0  0  0  0  0  0  0  0  0
  146.6093  135.2078  156.8207 H   0  0  0  0  0  0  0  0  0  0  0  0
  148.6724  132.3062  151.4543 H   0  0  0  0  0  0  0  0  0  0  0  0
  150.6940  132.5979  153.3111 H   0  0  0  0  0  0  0  0  0  0  0  0
  150.1627  132.9295  154.9363 H   0  0  0  0  0  0  0  0  0  0  0  0
  149.0411  129.8120  155.7293 H   0  0  0  0  0  0  0  0  0  0  0  0
  148.1050  129.9661  153.2497 H   0  0  0  0  0  0  0  0  0  0  0  0
  149.4475  130.4208  152.2118 H   0  0  0  0  0  0  0  0  0  0  0  0
  149.4534  128.1184  154.1888 H   0  0  0  0  0  0  0  0  0  0  0  0
  149.8336  128.0707  152.4592 H   0  0  0  0  0  0  0  0  0  0  0  0
  152.0306  130.8014  154.3819 H   0  0  0  0  0  0  0  0  0  0  0  0
  151.2494  129.8016  155.5871 H   0  0  0  0  0  0  0  0  0  0  0  0
  1  2  1  0  0  0  0
  1 27  1  0  0  0  0
  2  3  1  0  0  0  0
  2 28  1  0  0  0  0
  2 29  1  0  0  0  0
  3 25  1  0  0  0  0
  3  8  1  0  0  0  0
  3  4  1  0  0  0  0
  4  5  1  0  0  0  0
  4 30  1  0  0  0  0
  4 31  1  0  0  0  0
  5 26  1  0  0  0  0
  5  6  1  0  0  0  0
  5  7  1  0  0  0  0
  7  8  1  0  0  0  0
  7 32  1  0  0  0  0
  7 33  1  0  0  0  0
  8  9  1  0  0  0  0
  9 14  1  0  0  0  0
  9 10  2  0  0  0  0
 10 11  1  0  0  0  0
 11 12  2  0  0  0  0
 11 34  1  0  0  0  0
 12 13  1  0  0  0  0
 13 17  1  0  0  0  0
 13 14  2  0  0  0  0
 14 15  1  0  0  0  0
 15 16  2  0  0  0  0
 16 17  1  0  0  0  0
 16 35  1  0  0  0  0
 17 18  1  0  0  0  0
 18 19  1  0  0  0  0
 18 36  1  0  0  0  0
 18 37  1  0  0  0  0
 19 24  1  0  0  0  0
 19 20  1  0  0  0  0
 19 21  1  0  0  0  0
 20 38  1  0  0  0  0
 21 22  1  0  0  0  0
 21 39  1  0  0  0  0
 21 40  1  0  0  0  0
 22 23  1  0  0  0  0
 22 41  1  0  0  0  0
 22 42  1  0  0  0  0
 23 24  1  0  0  0  0
 24 43  1  0  0  0  0
 24 44  1  0  0  0  0
M  END
> <s_m_source_file>
AV-unprocessed.smi

> <i_m_source_file_index>
255

> <i_lp_mmshare_version>
43012

> <i_f3d_flags>
0

> <s_epik_input>
W09IXVtDSDJdW0NAQEhdMVtDSDJdW0NASF0oRilbQ0gyXU4xYyhuW2NIXW4yKWMoYzIzKW5bY0hdbjNbQ0gyXVtDQEBdNChbT0hdKVtDSDJdW0NIMl1PW0NIMl00

> <s_epik_cmdline>
J2VwaWtfcHl0aG9uJywgJy1waCcsICc3LjAnLCAnLXRuJywgJzgnLCAnLW1hJywgJzIwMCcsICctbWV0YWxfYmluZGluZycsICctaW1hZScsICc8aW5maWxlLm1hZT4nLCAnLW9tYWUnLCAnPG91dGZpbGUubWFlPic=

> <r_lp_tautomer_probability>
1

> <r_epik_Ionization_Penalty>
0.0058098

> <r_epik_Ionization_Penalty_Charging>
0

> <r_epik_Ionization_Penalty_Neutral>
0.0058098

> <r_epik_State_Penalty>
0.00411166

> <r_epik_Charging_Adjusted_Penalty>
0.00411166

> <i_epik_Tot_Q>
0

> <i_epik_Tot_abs_Q>
0

> <r_epik_Metal_State_Penalty>
-0

> <b_epik_Metal_Only>
0

> <s_lp_Force_Field>
OPLS_2005

> <r_lp_Energy>
52.3077

> <b_lp_Chiralities_Consistent>
1

> <s_lp_Variant>
AV-unprocessed.smi:255-4

> <Gold.Version>
5.8.1

> <Gold.Id.Protein>
6NUR|6NUR_protein|mol2

> <Gold.PLP.Fitness>
44.6840

> <Gold.PLP.PLP>
-36.6180

> <Gold.PLP.part.hbond>
-3.0000

> <Gold.PLP.part.metal>
0.0000

> <Gold.PLP.part.buried>
-4.5870

> <Gold.PLP.part.nonpolar>
-30.4263

> <Gold.PLP.part.repulsive>
0.3770

> <Gold.PLP.ligand.clash>
0.0000

> <Gold.PLP.ligand.torsion>
0.4748

> <Gold.PLP.Chemscore.Hbond>
1.9913

> <Gold.PLP.Chemscore.CHOScore>
1.0000

> <Gold.PLP.Chemscore.Metal>
0.0000

> <Gold.Chemscore.Hbonds>
donor molecule, donor type, donor heavy atom, donor atom, acceptor molecule, acceptor atom, score
      L1  H     1    27       P1 10171  1.00
      P1  H  7954  7966       L1     1  1.00
      L1  C    16    35       P1 10747  0.61

> <Gold.PLP.Chemscore.Internal.Correction>
0.0418

> <Gold.Rescore>
     Score         DG    S(hbond)    S(metal)    S(lipo)     H(rot)  DE(clash)    DE(int)     intcor
      6.82     -10.00       1.84        0.00      58.95       3.33       0.16       3.03       ----

> <Gold.Chemscore.Fitness>
6.8158

> <Gold.Chemscore.DG>
-9.9984

> <Gold.Chemscore.ZeroCoef>
-5.4800

> <Gold.Chemscore.Hbond>
1.8379

> <Gold.Chemscore.Metal>
0.0000

> <Gold.Chemscore.Lipo>
58.9547

> <Gold.Chemscore.Internal_Hbond>
0.0000

> <Gold.Chemscore.DEClash>
0.1565

> <Gold.Chemscore.DEInternal>
3.0261

> <Gold.Chemscore.Rot>
3.3273

> <Gold.Chemscore.Internal.Correction>
   9.000000E+99

> <Gold.Chemscore.Hbonds>
donor molecule, donor type, donor heavy atom, donor atom, acceptor molecule, acceptor atom, score
      L1  H     1    27       P1 10171  0.90
      P1  H  7954  7966       L1     1  0.79

> <Gold.Chemscore.Hbond.Weighted>
-6.1386

> <Gold.Chemscore.Metal.Weighted>
-0.0000

> <Gold.Chemscore.Lipo.Weighted>
-6.8977

> <Gold.Chemscore.Internal_Hbond.Weighted>
0.0000

> <Gold.Chemscore.DEClash.Weighted>
0.1565

> <Gold.Chemscore.DEInternal.Weighted>
3.0261

> <Gold.Chemscore.Rot.Weighted>
8.5179

> <Gold.Chemscore.Internal.Correction.Weighted>
   9.000000E+99

> <Gold.Protein.RotatedTorsions>
[ 6907 6896 6895 6894 ] final  -22.98 input  -60.11 | X-H torsion
[ 7974 7965 7964 7962 ] final  168.42 input  175.53 | X-H torsion
[ 8008 7997 7996 7995 ] final   27.70 input   59.86 | X-H torsion
[ 10167 10162 10161 10158 ] final -135.71 input  -65.29 | X-H torsion
[ 10718 10713 10712 10709 ] final -165.45 input   66.30 | X-H torsion
[ 10763 10752 10751 10750 ] final  123.53 input  -60.55 | X-H torsion
[ 11005 11000 10999 10996 ] final -111.01 input  -57.11 | X-H torsion

> <Gold.Protein.ActiveResidues>
 VAL166  LYS551  ARG553  GLY616  TRP617  ASP618  TYR619  PRO620  LYS621  CYS622 
 ASP623  PHE694  ASN695  SER759  ASP760  ASP761  ALA762  ILE779  LEU786  VAL792 
 PHE793  MET794  SER795  GLU796  ALA797  LYS798  CYS799  TRP800  GLU811  SER814 

> <Gold.Protein.RotatedAtoms>
  151.2106  135.0480  159.8909 H   0  0  0  0  0  0  0  0  0  0  0  0  # atno 6907 bound_to 6896
  152.5425  134.0749  159.8220 H   0  0  0  0  0  0  0  0  0  0  0  0  # atno 6908 bound_to 6896
  151.0901  133.5274  159.2647 H   0  0  0  0  0  0  0  0  0  0  0  0  # atno 6909 bound_to 6896
  144.7389  139.8905  143.6403 H   0  0  0  0  0  0  0  0  0  0  0  0  # atno 7974 bound_to 7965
  155.0470  140.3175  155.4705 H   0  0  0  0  0  0  0  0  0  0  0  0  # atno 8008 bound_to 7997
  156.2842  140.2153  156.5539 H   0  0  0  0  0  0  0  0  0  0  0  0  # atno 8009 bound_to 7997
  154.7242  140.0487  157.0655 H   0  0  0  0  0  0  0  0  0  0  0  0  # atno 8010 bound_to 7997
  139.8751  143.6908  152.2635 H   0  0  0  0  0  0  0  0  0  0  0  0  # atno 10167 bound_to 10162
  156.6536  130.9017  151.3017 H   0  0  0  0  0  0  0  0  0  0  0  0  # atno 10718 bound_to 10713
  153.6470  135.3369  155.3088 H   0  0  0  0  0  0  0  0  0  0  0  0  # atno 10763 bound_to 10752
  154.8546  135.4332  154.1945 H   0  0  0  0  0  0  0  0  0  0  0  0  # atno 10764 bound_to 10752
  153.2878  135.7014  153.7397 H   0  0  0  0  0  0  0  0  0  0  0  0  # atno 10765 bound_to 10752
  141.0759  133.9302  157.2390 H   0  0  0  0  0  0  0  0  0  0  0  0  # atno 11005 bound_to 11000
  146.1145  139.4154  143.0267 LP  0  0  0  0  0  0  0  0  0  0  0  0  # atno 17320 bound_to 7965
  145.7394  141.0013  143.1309 LP  0  0  0  0  0  0  0  0  0  0  0  0  # atno 17321 bound_to 7965
  139.7247  144.7595  151.0898 LP  0  0  0  0  0  0  0  0  0  0  0  0  # atno 17342 bound_to 10162
  140.7754  143.5163  150.9591 LP  0  0  0  0  0  0  0  0  0  0  0  0  # atno 17343 bound_to 10162
  157.7133  130.9466  150.1164 LP  0  0  0  0  0  0  0  0  0  0  0  0  # atno 17370 bound_to 10713
  156.2065  130.3663  149.8723 LP  0  0  0  0  0  0  0  0  0  0  0  0  # atno 17371 bound_to 10713
  139.9571  135.0163  156.9159 LP  0  0  0  0  0  0  0  0  0  0  0  0  # atno 17394 bound_to 11000
  140.5574  134.0568  155.7388 LP  0  0  0  0  0  0  0  0  0  0  0  0  # atno 17395 bound_to 11000

$$$$
