AV-unprocessed.smi:1745|AV-procd|sdf|7030|dock6
  -GOLD-   22720 8253D 1   1.00000     0.00000
 Structure written by MMmdl.
 47 49  0  0  0  0  0  0  0  0  1 V2000
  144.6373  137.1665  153.1193 C   0  0  0  0  0  0  0  0  0  0  0  0
  145.5769  137.2662  151.9091 C   0  0  1  0  0  0  0  0  0  0  0  0
  146.9129  137.6359  152.3744 N   0  0  0  0  0  0  0  0  0  0  0  0
  147.1998  138.5921  153.2698 C   0  0  0  0  0  0  0  0  0  0  0  0
  146.3486  139.2916  153.8179 O   0  0  0  0  0  0  0  0  0  0  0  0
  148.5242  138.6645  153.4868 N   0  0  0  0  0  0  0  0  0  0  0  0
  149.2342  139.5142  154.3780 C   0  0  0  0  0  0  0  0  0  0  0  0
  148.4847  140.3935  155.1847 C   0  0  0  0  0  0  0  0  0  0  0  0
  149.1552  141.2423  156.0848 C   0  0  0  0  0  0  0  0  0  0  0  0
  150.5653  141.1773  156.1553 C   0  0  0  0  0  0  0  0  0  0  0  0
  151.2958  141.9993  157.0240 N   0  0  0  0  0  0  0  0  0  0  0  0
  151.0144  143.4185  156.8500 C   0  0  0  0  0  0  0  0  0  0  0  0
  151.9418  144.2533  157.7504 C   0  0  0  0  0  0  0  0  0  0  0  0
  151.7999  143.8313  159.1041 O   0  0  0  0  0  0  0  0  0  0  0  0
  152.1528  142.4615  159.2767 C   0  0  0  0  0  0  0  0  0  0  0  0
  151.2299  141.5796  158.4181 C   0  0  0  0  0  0  0  0  0  0  0  0
  151.2911  140.3266  155.3981 N   0  0  0  0  0  0  0  0  0  0  0  0
  150.6418  139.5151  154.5358 C   0  0  0  0  0  0  0  0  0  0  0  0
  145.6378  135.9446  151.1185 C   0  0  2  0  0  0  0  0  0  0  0  0
  144.2787  135.3765  150.7070 C   0  0  0  0  0  0  0  0  0  0  0  0
  144.5497  133.8894  150.5436 C   0  0  0  0  0  0  0  0  0  0  0  0
  145.8835  133.6708  151.2639 C   0  0  0  0  0  0  0  0  0  0  0  0
  146.1597  134.8989  151.9231 O   0  0  0  0  0  0  0  0  0  0  0  0
  143.6215  136.9204  152.8088 H   0  0  0  0  0  0  0  0  0  0  0  0
  144.5932  138.1119  153.6609 H   0  0  0  0  0  0  0  0  0  0  0  0
  144.9670  136.3966  153.8175 H   0  0  0  0  0  0  0  0  0  0  0  0
  145.1816  138.0404  151.2491 H   0  0  0  0  0  0  0  0  0  0  0  0
  147.6832  137.1169  151.9792 H   0  0  0  0  0  0  0  0  0  0  0  0
  149.0873  137.9793  153.0048 H   0  0  0  0  0  0  0  0  0  0  0  0
  147.4073  140.4242  155.1125 H   0  0  0  0  0  0  0  0  0  0  0  0
  148.5949  141.9279  156.7038 H   0  0  0  0  0  0  0  0  0  0  0  0
  151.1561  143.6981  155.8051 H   0  0  0  0  0  0  0  0  0  0  0  0
  149.9732  143.6239  157.1019 H   0  0  0  0  0  0  0  0  0  0  0  0
  152.9819  144.1556  157.4353 H   0  0  0  0  0  0  0  0  0  0  0  0
  151.6850  145.3101  157.6786 H   0  0  0  0  0  0  0  0  0  0  0  0
  153.1993  142.3079  159.0077 H   0  0  0  0  0  0  0  0  0  0  0  0
  152.0522  142.1979  160.3296 H   0  0  0  0  0  0  0  0  0  0  0  0
  150.2045  141.6569  158.7817 H   0  0  0  0  0  0  0  0  0  0  0  0
  151.5257  140.5333  158.5027 H   0  0  0  0  0  0  0  0  0  0  0  0
  151.2822  138.8466  153.9823 H   0  0  0  0  0  0  0  0  0  0  0  0
  146.2710  136.0588  150.2362 H   0  0  0  0  0  0  0  0  0  0  0  0
  143.5505  135.5294  151.5050 H   0  0  0  0  0  0  0  0  0  0  0  0
  143.8854  135.8378  149.8005 H   0  0  0  0  0  0  0  0  0  0  0  0
  143.7482  133.2950  150.9836 H   0  0  0  0  0  0  0  0  0  0  0  0
  144.6338  133.6136  149.4918 H   0  0  0  0  0  0  0  0  0  0  0  0
  145.8451  132.8462  151.9761 H   0  0  0  0  0  0  0  0  0  0  0  0
  146.6774  133.4630  150.5451 H   0  0  0  0  0  0  0  0  0  0  0  0
  1  2  1  0  0  0  0
  1 24  1  0  0  0  0
  1 25  1  0  0  0  0
  1 26  1  0  0  0  0
  2  3  1  0  0  0  0
  2 19  1  0  0  0  0
  2 27  1  0  0  0  0
  3  4  1  0  0  0  0
  3 28  1  0  0  0  0
  4  5  2  0  0  0  0
  4  6  1  0  0  0  0
  6  7  1  0  0  0  0
  6 29  1  0  0  0  0
  7 18  1  0  0  0  0
  7  8  2  0  0  0  0
  8  9  1  0  0  0  0
  8 30  1  0  0  0  0
  9 10  2  0  0  0  0
  9 31  1  0  0  0  0
 10 11  1  0  0  0  0
 10 17  1  0  0  0  0
 11 16  1  0  0  0  0
 11 12  1  0  0  0  0
 12 13  1  0  0  0  0
 12 32  1  0  0  0  0
 12 33  1  0  0  0  0
 13 14  1  0  0  0  0
 13 34  1  0  0  0  0
 13 35  1  0  0  0  0
 14 15  1  0  0  0  0
 15 16  1  0  0  0  0
 15 36  1  0  0  0  0
 15 37  1  0  0  0  0
 16 38  1  0  0  0  0
 16 39  1  0  0  0  0
 17 18  2  0  0  0  0
 18 40  1  0  0  0  0
 19 23  1  0  0  0  0
 19 20  1  0  0  0  0
 19 41  1  0  0  0  0
 20 21  1  0  0  0  0
 20 42  1  0  0  0  0
 20 43  1  0  0  0  0
 21 22  1  0  0  0  0
 21 44  1  0  0  0  0
 21 45  1  0  0  0  0
 22 23  1  0  0  0  0
 22 46  1  0  0  0  0
 22 47  1  0  0  0  0
M  END
> <s_m_source_file>
AV-unprocessed.smi

> <i_m_source_file_index>
1745

> <i_lp_mmshare_version>
43012

> <i_f3d_flags>
0

> <s_epik_input>
TzFbQ0gyXVtDSDJdW0NIMl1bQ0BIXTFbQ0BIXShbQ0gzXSlbTkhdQyg9TylbTkhdYzJbY0hdW2NIXWMobltjSF0yKU4zW0NIMl1bQ0gyXU9bQ0gyXVtDSDJdMw==

> <s_epik_cmdline>
J2VwaWtfcHl0aG9uJywgJy1waCcsICc3LjAnLCAnLXRuJywgJzgnLCAnLW1hJywgJzIwMCcsICctbWV0YWxfYmluZGluZycsICctaW1hZScsICc8aW5maWxlLm1hZT4nLCAnLW9tYWUnLCAnPG91dGZpbGUubWFlPic=

> <r_lp_tautomer_probability>
1

> <r_epik_Ionization_Penalty>
0.00206005

> <r_epik_Ionization_Penalty_Charging>
0

> <r_epik_Ionization_Penalty_Neutral>
0.00206005

> <r_epik_State_Penalty>
0.00138459

> <r_epik_Charging_Adjusted_Penalty>
0.00138459

> <i_epik_Tot_Q>
0

> <i_epik_Tot_abs_Q>
0

> <r_epik_Metal_State_Penalty>
-0

> <b_epik_Metal_Only>
0

> <s_lp_Force_Field>
OPLS_2005

> <r_lp_Energy>
36.4473

> <b_lp_Chiralities_Consistent>
1

> <s_lp_Variant>
AV-unprocessed.smi:1745-2

> <Gold.Version>
5.8.1

> <Gold.Id.Protein>
6NUR|6NUR_protein|mol2

> <Gold.PLP.Fitness>
43.9274

> <Gold.PLP.PLP>
-39.1207

> <Gold.PLP.part.hbond>
-3.9427

> <Gold.PLP.part.metal>
0.0000

> <Gold.PLP.part.buried>
-0.9888

> <Gold.PLP.part.nonpolar>
-36.1309

> <Gold.PLP.part.repulsive>
0.9690

> <Gold.PLP.ligand.clash>
0.0000

> <Gold.PLP.ligand.torsion>
0.4082

> <Gold.PLP.Chemscore.Hbond>
1.8294

> <Gold.PLP.Chemscore.CHOScore>
0.0000

> <Gold.PLP.Chemscore.Metal>
0.0000

> <Gold.Chemscore.Hbonds>
donor molecule, donor type, donor heavy atom, donor atom, acceptor molecule, acceptor atom, score
      L1  H     3    28       P1  7948  1.00
      L1  H     6    29       P1  7948  0.82

> <Gold.PLP.Chemscore.Internal.Correction>
0.1348

> <Gold.Rescore>
     Score         DG    S(hbond)    S(metal)    S(lipo)     H(rot)  DE(clash)    DE(int)     intcor
     15.02     -19.36       1.71        0.00     100.24       1.40       1.18       3.15       ----

> <Gold.Chemscore.Fitness>
15.0196

> <Gold.Chemscore.DG>
-19.3556

> <Gold.Chemscore.ZeroCoef>
-5.4800

> <Gold.Chemscore.Hbond>
1.7121

> <Gold.Chemscore.Metal>
0.0000

> <Gold.Chemscore.Lipo>
100.2428

> <Gold.Chemscore.Internal_Hbond>
0.0000

> <Gold.Chemscore.DEClash>
1.1826

> <Gold.Chemscore.DEInternal>
3.1535

> <Gold.Chemscore.Rot>
1.3950

> <Gold.Chemscore.Internal.Correction>
   9.000000E+99

> <Gold.Chemscore.Hbonds>
donor molecule, donor type, donor heavy atom, donor atom, acceptor molecule, acceptor atom, score
      L1  H     3    28       P1  7948  0.93
      L1  H     6    29       P1  7948  0.76

> <Gold.Chemscore.Hbond.Weighted>
-5.7184

> <Gold.Chemscore.Metal.Weighted>
-0.0000

> <Gold.Chemscore.Lipo.Weighted>
-11.7284

> <Gold.Chemscore.Internal_Hbond.Weighted>
0.0000

> <Gold.Chemscore.DEClash.Weighted>
1.1826

> <Gold.Chemscore.DEInternal.Weighted>
3.1535

> <Gold.Chemscore.Rot.Weighted>
3.5712

> <Gold.Chemscore.Internal.Correction.Weighted>
   9.000000E+99

> <Gold.Protein.RotatedTorsions>
[ 6907 6896 6895 6894 ] final  -56.97 input  -60.11 | X-H torsion
[ 7974 7965 7964 7962 ] final   57.26 input  175.53 | X-H torsion
[ 8008 7997 7996 7995 ] final   18.36 input   59.86 | X-H torsion
[ 10167 10162 10161 10158 ] final  -35.04 input  -65.29 | X-H torsion
[ 10718 10713 10712 10709 ] final   79.58 input   66.30 | X-H torsion
[ 10763 10752 10751 10750 ] final -133.00 input  -60.55 | X-H torsion
[ 11005 11000 10999 10996 ] final   70.32 input  -57.11 | X-H torsion

> <Gold.Protein.ActiveResidues>
 VAL166  LYS551  ARG553  GLY616  TRP617  ASP618  TYR619  PRO620  LYS621  CYS622 
 ASP623  PHE694  ASN695  SER759  ASP760  ASP761  ALA762  ILE779  LEU786  VAL792 
 PHE793  MET794  SER795  GLU796  ALA797  LYS798  CYS799  TRP800  GLU811  SER814 

> <Gold.Protein.RotatedAtoms>
  150.8124  134.7286  159.6699 H   0  0  0  0  0  0  0  0  0  0  0  0  # atno 6907 bound_to 6896
  152.4243  134.5894  159.9979 H   0  0  0  0  0  0  0  0  0  0  0  0  # atno 6908 bound_to 6896
  151.6100  133.3311  159.3101 H   0  0  0  0  0  0  0  0  0  0  0  0  # atno 6909 bound_to 6896
  145.9309  139.3807  143.0421 H   0  0  0  0  0  0  0  0  0  0  0  0  # atno 7974 bound_to 7965
  154.9049  140.3006  155.5297 H   0  0  0  0  0  0  0  0  0  0  0  0  # atno 8008 bound_to 7997
  156.3017  140.2400  156.4017 H   0  0  0  0  0  0  0  0  0  0  0  0  # atno 8009 bound_to 7997
  154.8483  140.0410  157.1576 H   0  0  0  0  0  0  0  0  0  0  0  0  # atno 8010 bound_to 7997
  140.7173  143.3505  151.2166 H   0  0  0  0  0  0  0  0  0  0  0  0  # atno 10167 bound_to 10162
  157.6781  130.9921  150.1954 H   0  0  0  0  0  0  0  0  0  0  0  0  # atno 10718 bound_to 10713
  154.8737  135.3780  154.4501 H   0  0  0  0  0  0  0  0  0  0  0  0  # atno 10763 bound_to 10752
  153.5178  135.7029  153.5752 H   0  0  0  0  0  0  0  0  0  0  0  0  # atno 10764 bound_to 10752
  153.4013  135.3947  155.1955 H   0  0  0  0  0  0  0  0  0  0  0  0  # atno 10765 bound_to 10752
  139.9604  134.7071  156.0659 H   0  0  0  0  0  0  0  0  0  0  0  0  # atno 11005 bound_to 11000
  145.8427  140.9572  143.0791 LP  0  0  0  0  0  0  0  0  0  0  0  0  # atno 17320 bound_to 7965
  144.6765  140.0305  143.7482 LP  0  0  0  0  0  0  0  0  0  0  0  0  # atno 17321 bound_to 7965
  139.7034  143.9495  152.2916 LP  0  0  0  0  0  0  0  0  0  0  0  0  # atno 17342 bound_to 10162
  139.9195  144.6808  150.8476 LP  0  0  0  0  0  0  0  0  0  0  0  0  # atno 17343 bound_to 10162
  156.2656  130.3716  149.8085 LP  0  0  0  0  0  0  0  0  0  0  0  0  # atno 17370 bound_to 10713
  156.5817  130.8468  151.3384 LP  0  0  0  0  0  0  0  0  0  0  0  0  # atno 17371 bound_to 10713
  141.1280  133.6594  156.3389 LP  0  0  0  0  0  0  0  0  0  0  0  0  # atno 17394 bound_to 11000
  140.5513  134.6025  157.5408 LP  0  0  0  0  0  0  0  0  0  0  0  0  # atno 17395 bound_to 11000

$$$$
