AV-unprocessed.smi:221|AV-procd|sdf|1695|dock1
  -GOLD-   2262020143D 1   1.00000     0.00000
 Structure written by MMmdl.
 50 53  0  0  0  0  0  0  0  0  1 V2000
  150.0958  145.0819  157.9264 N   0  0  0  0  0  0  0  0  0  0  0  0
  150.3287  143.7999  158.2171 C   0  0  0  0  0  0  0  0  0  0  0  0
  149.4330  143.0448  158.5919 O   0  0  0  0  0  0  0  0  0  0  0  0
  151.7805  143.3094  158.0613 C   0  0  1  0  0  0  0  0  0  0  0  0
  152.7659  144.1486  158.8953 C   0  0  0  0  0  0  0  0  0  0  0  0
  152.8754  143.4152  160.2325 C   0  0  1  0  0  0  0  0  0  0  0  0
  151.8823  143.7887  161.0409 F   0  0  0  0  0  0  0  0  0  0  0  0
  152.7033  141.9456  159.8446 C   0  0  0  0  0  0  0  0  0  0  0  0
  151.9721  141.9548  158.5804 N   0  0  0  0  0  0  0  0  0  0  0  0
  151.6132  140.8075  157.9389 C   0  0  0  0  0  0  0  0  0  0  0  0
  152.0688  139.6309  158.4462 N   0  0  0  0  0  0  0  0  0  0  0  0
  151.7551  138.4680  157.8700 C   0  0  0  0  0  0  0  0  0  0  0  0
  151.0093  138.2502  156.7876 N   0  0  0  0  0  0  0  0  0  0  0  0
  150.5482  139.4211  156.2649 C   0  0  0  0  0  0  0  0  0  0  0  0
  150.7957  140.7323  156.7687 C   0  0  0  0  0  0  0  0  0  0  0  0
  150.1512  141.6619  155.9575 N   0  0  0  0  0  0  0  0  0  0  0  0
  149.5598  140.9480  155.0404 C   0  0  0  0  0  0  0  0  0  0  0  0
  149.7552  139.5912  155.1442 N   0  0  0  0  0  0  0  0  0  0  0  0
  149.2259  138.5621  154.2664 C   0  0  0  0  0  0  0  0  0  0  0  0
  147.6763  138.5092  154.2685 C   0  0  2  0  0  0  0  0  0  0  0  0
  147.0737  139.6592  153.4279 C   0  0  0  0  0  0  0  0  0  0  0  0
  147.0941  139.3508  152.0497 O   0  0  0  0  0  0  0  0  0  0  0  0
  147.0600  138.4571  155.6942 C   0  0  1  0  0  0  0  0  0  0  0  0
  145.5461  138.3227  155.7640 C   0  0  0  0  0  0  0  0  0  0  0  0
  145.3057  137.7439  157.1625 C   0  0  0  0  0  0  0  0  0  0  0  0
  146.5833  137.3699  157.6723 O   0  0  0  0  0  0  0  0  0  0  0  0
  147.5123  137.3139  156.6010 C   0  0  0  0  0  0  0  0  0  0  0  0
  152.0761  143.3659  157.0134 H   0  0  0  0  0  0  0  0  0  0  0  0
  153.8109  143.6124  160.7567 H   0  0  0  0  0  0  0  0  0  0  0  0
  149.1597  145.4507  158.0103 H   0  0  0  0  0  0  0  0  0  0  0  0
  150.8528  145.6765  157.6222 H   0  0  0  0  0  0  0  0  0  0  0  0
  153.7404  144.1473  158.4052 H   0  0  0  0  0  0  0  0  0  0  0  0
  152.4674  145.1915  159.0114 H   0  0  0  0  0  0  0  0  0  0  0  0
  153.6769  141.4795  159.6873 H   0  0  0  0  0  0  0  0  0  0  0  0
  152.1779  141.3861  160.6200 H   0  0  0  0  0  0  0  0  0  0  0  0
  152.1610  137.5865  158.3440 H   0  0  0  0  0  0  0  0  0  0  0  0
  148.9690  141.3953  154.2542 H   0  0  0  0  0  0  0  0  0  0  0  0
  149.6168  138.7579  153.2693 H   0  0  0  0  0  0  0  0  0  0  0  0
  149.6411  137.6033  154.5780 H   0  0  0  0  0  0  0  0  0  0  0  0
  147.3898  137.5782  153.7771 H   0  0  0  0  0  0  0  0  0  0  0  0
  146.0502  139.8722  153.7365 H   0  0  0  0  0  0  0  0  0  0  0  0
  147.6408  140.5808  153.5546 H   0  0  0  0  0  0  0  0  0  0  0  0
  147.9429  139.5787  151.7019 H   0  0  0  0  0  0  0  0  0  0  0  0
  147.3014  139.3882  156.2088 H   0  0  0  0  0  0  0  0  0  0  0  0
  145.0397  139.2770  155.6156 H   0  0  0  0  0  0  0  0  0  0  0  0
  145.1646  137.6291  155.0163 H   0  0  0  0  0  0  0  0  0  0  0  0
  144.8513  138.4773  157.8293 H   0  0  0  0  0  0  0  0  0  0  0  0
  144.6486  136.8748  157.1184 H   0  0  0  0  0  0  0  0  0  0  0  0
  147.4229  136.3428  156.1135 H   0  0  0  0  0  0  0  0  0  0  0  0
  148.5361  137.4312  156.9563 H   0  0  0  0  0  0  0  0  0  0  0  0
  1  2  1  0  0  0  0
  1 30  1  0  0  0  0
  1 31  1  0  0  0  0
  2  3  2  0  0  0  0
  2  4  1  0  0  0  0
  4 28  1  0  0  0  0
  4  9  1  0  0  0  0
  4  5  1  0  0  0  0
  5  6  1  0  0  0  0
  5 32  1  0  0  0  0
  5 33  1  0  0  0  0
  6 29  1  0  0  0  0
  6  7  1  0  0  0  0
  6  8  1  0  0  0  0
  8  9  1  0  0  0  0
  8 34  1  0  0  0  0
  8 35  1  0  0  0  0
  9 10  1  0  0  0  0
 10 15  1  0  0  0  0
 10 11  2  0  0  0  0
 11 12  1  0  0  0  0
 12 13  2  0  0  0  0
 12 36  1  0  0  0  0
 13 14  1  0  0  0  0
 14 18  1  0  0  0  0
 14 15  2  0  0  0  0
 15 16  1  0  0  0  0
 16 17  2  0  0  0  0
 17 18  1  0  0  0  0
 17 37  1  0  0  0  0
 18 19  1  0  0  0  0
 19 20  1  0  0  0  0
 19 38  1  0  0  0  0
 19 39  1  0  0  0  0
 20 21  1  0  0  0  0
 20 23  1  0  0  0  0
 20 40  1  0  0  0  0
 21 22  1  0  0  0  0
 21 41  1  0  0  0  0
 21 42  1  0  0  0  0
 22 43  1  0  0  0  0
 23 27  1  0  0  0  0
 23 24  1  0  0  0  0
 23 44  1  0  0  0  0
 24 25  1  0  0  0  0
 24 45  1  0  0  0  0
 24 46  1  0  0  0  0
 25 26  1  0  0  0  0
 25 47  1  0  0  0  0
 25 48  1  0  0  0  0
 26 27  1  0  0  0  0
 27 49  1  0  0  0  0
 27 50  1  0  0  0  0
M  END
> <s_m_source_file>
AV-unprocessed.smi

> <i_m_source_file_index>
221

> <i_lp_mmshare_version>
43012

> <i_f3d_flags>
0

> <s_epik_input>
W05IMl1DKD1PKVtDQEBIXTFbQ0gyXVtDQEBIXShGKVtDSDJdTjFjKG5bY0hdbjIpYyhjMjMpbltjSF1uM1tDSDJdW0NASF0oW0NIMl1bT0hdKVtDQEBIXTRbQ0gyXVtDSDJdT1tDSDJdNA==

> <s_epik_cmdline>
J2VwaWtfcHl0aG9uJywgJy1waCcsICc3LjAnLCAnLXRuJywgJzgnLCAnLW1hJywgJzIwMCcsICctbWV0YWxfYmluZGluZycsICctaW1hZScsICc8aW5maWxlLm1hZT4nLCAnLW9tYWUnLCAnPG91dGZpbGUubWFlPic=

> <r_lp_tautomer_probability>
1

> <r_epik_Ionization_Penalty>
0.000818822

> <r_epik_Ionization_Penalty_Charging>
0

> <r_epik_Ionization_Penalty_Neutral>
0.000818822

> <r_epik_State_Penalty>
0.000440551

> <r_epik_Charging_Adjusted_Penalty>
0.000440551

> <i_epik_Tot_Q>
0

> <i_epik_Tot_abs_Q>
0

> <r_epik_Metal_State_Penalty>
-0

> <b_epik_Metal_Only>
0

> <s_lp_Force_Field>
OPLS_2005

> <r_lp_Energy>
49.0425

> <b_lp_Chiralities_Consistent>
1

> <s_lp_Variant>
AV-unprocessed.smi:221-10

> <Gold.Version>
5.8.1

> <Gold.Id.Protein>
6NUR|6NUR_protein|mol2

> <Gold.PLP.Fitness>
46.6538

> <Gold.PLP.PLP>
-43.1610

> <Gold.PLP.part.hbond>
-3.9902

> <Gold.PLP.part.metal>
0.0000

> <Gold.PLP.part.buried>
-4.3357

> <Gold.PLP.part.nonpolar>
-34.5432

> <Gold.PLP.part.repulsive>
0.4194

> <Gold.PLP.ligand.clash>
0.0000

> <Gold.PLP.ligand.torsion>
0.4973

> <Gold.PLP.Chemscore.Hbond>
1.3680

> <Gold.PLP.Chemscore.CHOScore>
0.0000

> <Gold.PLP.Chemscore.Metal>
0.0000

> <Gold.Chemscore.Hbonds>
donor molecule, donor type, donor heavy atom, donor atom, acceptor molecule, acceptor atom, score
      L1  H     1    30       P1  8029  0.91
      L1  H    22    43       P1  7957  1.00

> <Gold.PLP.Chemscore.Internal.Correction>
0.3834

> <Gold.Rescore>
     Score         DG    S(hbond)    S(metal)    S(lipo)     H(rot)  DE(clash)    DE(int)     intcor
      7.69      -8.90       1.00        0.00      73.10       3.31       0.03       1.18       ----

> <Gold.Chemscore.Fitness>
7.6914

> <Gold.Chemscore.DG>
-8.9004

> <Gold.Chemscore.ZeroCoef>
-5.4800

> <Gold.Chemscore.Hbond>
0.9995

> <Gold.Chemscore.Metal>
0.0000

> <Gold.Chemscore.Lipo>
73.1023

> <Gold.Chemscore.Internal_Hbond>
0.0000

> <Gold.Chemscore.DEClash>
0.0288

> <Gold.Chemscore.DEInternal>
1.1801

> <Gold.Chemscore.Rot>
3.3089

> <Gold.Chemscore.Internal.Correction>
   9.000000E+99

> <Gold.Chemscore.Hbonds>
donor molecule, donor type, donor heavy atom, donor atom, acceptor molecule, acceptor atom, score
      L1  H     1    30       P1  8029  0.42
      L1  H    22    43       P1  7957  1.00

> <Gold.Chemscore.Hbond.Weighted>
-3.3383

> <Gold.Chemscore.Metal.Weighted>
-0.0000

> <Gold.Chemscore.Lipo.Weighted>
-8.5530

> <Gold.Chemscore.Internal_Hbond.Weighted>
0.0000

> <Gold.Chemscore.DEClash.Weighted>
0.0288

> <Gold.Chemscore.DEInternal.Weighted>
1.1801

> <Gold.Chemscore.Rot.Weighted>
8.4709

> <Gold.Chemscore.Internal.Correction.Weighted>
   9.000000E+99

> <Gold.Protein.RotatedTorsions>
[ 6907 6896 6895 6894 ] final -158.06 input  -60.11 | X-H torsion
[ 7974 7965 7964 7962 ] final -165.77 input  175.53 | X-H torsion
[ 8008 7997 7996 7995 ] final  125.10 input   59.86 | X-H torsion
[ 10167 10162 10161 10158 ] final  -62.18 input  -65.29 | X-H torsion
[ 10718 10713 10712 10709 ] final -152.88 input   66.30 | X-H torsion
[ 10763 10752 10751 10750 ] final   56.81 input  -60.55 | X-H torsion
[ 11005 11000 10999 10996 ] final -154.25 input  -57.11 | X-H torsion

> <Gold.Protein.ActiveResidues>
 VAL166  LYS551  ARG553  GLY616  TRP617  ASP618  TYR619  PRO620  LYS621  CYS622 
 ASP623  PHE694  ASN695  SER759  ASP760  ASP761  ALA762  ILE779  LEU786  VAL792 
 PHE793  MET794  SER795  GLU796  ALA797  LYS798  CYS799  TRP800  GLU811  SER814 

> <Gold.Protein.RotatedAtoms>
  151.3124  133.4075  159.2647 H   0  0  0  0  0  0  0  0  0  0  0  0  # atno 6907 bound_to 6896
  151.0103  134.9392  159.8014 H   0  0  0  0  0  0  0  0  0  0  0  0  # atno 6908 bound_to 6896
  152.5299  134.3088  159.9158 H   0  0  0  0  0  0  0  0  0  0  0  0  # atno 6909 bound_to 6896
  144.7261  140.2765  143.6242 H   0  0  0  0  0  0  0  0  0  0  0  0  # atno 7974 bound_to 7965
  156.2823  140.2724  156.1894 H   0  0  0  0  0  0  0  0  0  0  0  0  # atno 8008 bound_to 7997
  155.0474  140.0386  157.2549 H   0  0  0  0  0  0  0  0  0  0  0  0  # atno 8009 bound_to 7997
  154.7224  140.2690  155.6535 H   0  0  0  0  0  0  0  0  0  0  0  0  # atno 8010 bound_to 7997
  140.5956  143.2350  151.6042 H   0  0  0  0  0  0  0  0  0  0  0  0  # atno 10167 bound_to 10162
  156.4784  130.8291  151.2519 H   0  0  0  0  0  0  0  0  0  0  0  0  # atno 10718 bound_to 10713
  152.9838  135.5663  154.5289 H   0  0  0  0  0  0  0  0  0  0  0  0  # atno 10763 bound_to 10752
  154.4764  135.2787  155.1606 H   0  0  0  0  0  0  0  0  0  0  0  0  # atno 10764 bound_to 10752
  154.3132  135.6284  153.5528 H   0  0  0  0  0  0  0  0  0  0  0  0  # atno 10765 bound_to 10752
  140.6993  134.3954  157.5211 H   0  0  0  0  0  0  0  0  0  0  0  0  # atno 11005 bound_to 11000
  145.7992  139.1957  143.2058 LP  0  0  0  0  0  0  0  0  0  0  0  0  # atno 17320 bound_to 7965
  146.0691  140.7888  142.9697 LP  0  0  0  0  0  0  0  0  0  0  0  0  # atno 17321 bound_to 7965
  139.5256  144.3069  152.1026 LP  0  0  0  0  0  0  0  0  0  0  0  0  # atno 17342 bound_to 10162
  140.2241  144.4436  150.6329 LP  0  0  0  0  0  0  0  0  0  0  0  0  # atno 17343 bound_to 10162
  157.7485  131.0053  150.3108 LP  0  0  0  0  0  0  0  0  0  0  0  0  # atno 17370 bound_to 10713
  156.3547  130.3837  149.7300 LP  0  0  0  0  0  0  0  0  0  0  0  0  # atno 17371 bound_to 10713
  139.8901  134.8813  156.2387 LP  0  0  0  0  0  0  0  0  0  0  0  0  # atno 17394 bound_to 11000
  141.0176  133.7059  156.1215 LP  0  0  0  0  0  0  0  0  0  0  0  0  # atno 17395 bound_to 11000

$$$$
