AV-unprocessed.smi:51|AV-procd|sdf|499|dock4
  -GOLD-   2262016373D 1   1.00000     0.00000
 Structure written by MMmdl.
 25 26  0  0  0  0  0  0  0  0  2 V2000
  152.5882  139.5471  155.1492 O   0  0  0  0  0  0  0  0  0  0  0  0
  152.2996  138.5105  155.7858 C   0  0  0  0  0  0  0  0  0  0  0  0
  152.0972  137.3832  155.2811 O   0  5  0  0  0  0  0  0  0  0  0  0
  152.1749  138.6464  157.3090 C   0  0  2  0  0  0  0  0  0  0  0  0
  151.8747  137.3084  158.0131 C   0  0  0  0  0  0  0  0  0  0  0  0
  150.3792  137.3834  158.3137 C   0  0  1  0  0  0  0  0  0  0  0  0
  150.0056  136.5807  159.4139 O   0  0  0  0  0  0  0  0  0  0  0  0
  150.1769  138.8729  158.5805 C   0  0  0  0  0  0  0  0  0  0  0  0
  151.0612  139.5386  157.6340 N   0  0  0  0  0  0  0  0  0  0  0  0
  151.4070  140.8604  157.9471 C   0  0  0  0  0  0  0  0  0  0  0  0
  152.2563  141.1180  159.0432 C   0  0  0  0  0  0  0  0  0  0  0  0
  152.5581  142.4701  159.3007 C   0  0  0  0  0  0  0  0  0  0  0  0
  152.0648  143.4679  158.5357 N   0  0  0  0  0  0  0  0  0  0  0  0
  151.2716  143.1101  157.5227 C   0  0  0  0  0  0  0  0  0  0  0  0
  150.9177  141.8681  157.1846 N   0  0  0  0  0  0  0  0  0  0  0  0
  153.1186  139.0417  157.6885 H   0  0  0  0  0  0  0  0  0  0  0  0
  152.1414  136.4281  157.4261 H   0  0  0  0  0  0  0  0  0  0  0  0
  152.4429  137.2637  158.9436 H   0  0  0  0  0  0  0  0  0  0  0  0
  149.8092  137.0829  157.4332 H   0  0  0  0  0  0  0  0  0  0  0  0
  149.1676  136.8814  159.7301 H   0  0  0  0  0  0  0  0  0  0  0  0
  149.1393  139.1709  158.4271 H   0  0  0  0  0  0  0  0  0  0  0  0
  150.4516  139.1214  159.6072 H   0  0  0  0  0  0  0  0  0  0  0  0
  152.6500  140.3216  159.6576 H   0  0  0  0  0  0  0  0  0  0  0  0
  153.1991  142.7517  160.1229 H   0  0  0  0  0  0  0  0  0  0  0  0
  150.8779  143.9084  156.9111 H   0  0  0  0  0  0  0  0  0  0  0  0
  1  2  2  0  0  0  0
  2  3  1  0  0  0  0
  2  4  1  0  0  0  0
  4  9  1  0  0  0  0
  4  5  1  0  0  0  0
  4 16  1  0  0  0  0
  5  6  1  0  0  0  0
  5 17  1  0  0  0  0
  5 18  1  0  0  0  0
  6  7  1  0  0  0  0
  6  8  1  0  0  0  0
  6 19  1  0  0  0  0
  7 20  1  0  0  0  0
  8  9  1  0  0  0  0
  8 21  1  0  0  0  0
  8 22  1  0  0  0  0
  9 10  1  0  0  0  0
 10 15  1  0  0  0  0
 10 11  2  0  0  0  0
 11 12  1  0  0  0  0
 11 23  1  0  0  0  0
 12 13  2  0  0  0  0
 12 24  1  0  0  0  0
 13 14  1  0  0  0  0
 14 15  2  0  0  0  0
 14 25  1  0  0  0  0
M  CHG  1   3  -1
M  END
> <s_m_source_file>
AV-unprocessed.smi

> <i_m_source_file_index>
51

> <i_lp_mmshare_version>
43012

> <i_f3d_flags>
0

> <s_epik_input>
Tz1DKFtPSF0pW0NAQEhdMVtDSDJdW0NAQEhdKFtPSF0pW0NIMl1OMWMyW2NIXVtjSF1uW2NIXW4y

> <s_epik_cmdline>
J2VwaWtfcHl0aG9uJywgJy1waCcsICc3LjAnLCAnLXRuJywgJzgnLCAnLW1hJywgJzIwMCcsICctbWV0YWxfYmluZGluZycsICctaW1hZScsICc8aW5maWxlLm1hZT4nLCAnLW9tYWUnLCAnPG91dGZpbGUubWFlPic=

> <r_lp_tautomer_probability>
1

> <r_epik_Ionization_Penalty>
0.225251

> <r_epik_Ionization_Penalty_Charging>
0.000248217

> <r_epik_Ionization_Penalty_Neutral>
0.225002

> <r_epik_State_Penalty>
0.21284

> <r_epik_Charging_Adjusted_Penalty>
0.213088

> <i_epik_Tot_Q>
-1

> <i_epik_Tot_abs_Q>
1

> <r_epik_Metal_State_Penalty>
0.154111

> <b_epik_Metal_Only>
0

> <s_lp_Force_Field>
OPLS_2005

> <r_lp_Energy>
17.878

> <b_lp_Chiralities_Consistent>
1

> <s_lp_Variant>
AV-unprocessed.smi:51-1

> <Gold.Version>
5.8.1

> <Gold.Id.Protein>
6NUR|6NUR_protein|mol2

> <Gold.PLP.Fitness>
40.3708

> <Gold.PLP.PLP>
-23.0827

> <Gold.PLP.part.hbond>
-3.9823

> <Gold.PLP.part.metal>
0.0000

> <Gold.PLP.part.buried>
-6.0116

> <Gold.PLP.part.nonpolar>
-14.0764

> <Gold.PLP.part.repulsive>
0.1646

> <Gold.PLP.ligand.clash>
0.0000

> <Gold.PLP.ligand.torsion>
0.1120

> <Gold.PLP.Chemscore.Hbond>
4.8043

> <Gold.PLP.Chemscore.CHOScore>
1.0000

> <Gold.PLP.Chemscore.Metal>
0.0000

> <Gold.Chemscore.Hbonds>
donor molecule, donor type, donor heavy atom, donor atom, acceptor molecule, acceptor atom, score
      P1  H  6896  6908       L1     7  1.00
      P1  H  7989  7998       L1     1  0.22
      P1  H  7997  8010       L1     1  1.66
      P1  H 10752 10765       L1     3  1.49
      L1  C    14    25       P1  8028  1.00

> <Gold.PLP.Chemscore.Internal.Correction>
0.0992

> <Gold.Rescore>
     Score         DG    S(hbond)    S(metal)    S(lipo)     H(rot)  DE(clash)    DE(int)     intcor
     12.87     -13.08       2.82        0.00      33.10       2.23       0.00       0.20       ----

> <Gold.Chemscore.Fitness>
12.8711

> <Gold.Chemscore.DG>
-13.0761

> <Gold.Chemscore.ZeroCoef>
-5.4800

> <Gold.Chemscore.Hbond>
2.8227

> <Gold.Chemscore.Metal>
0.0000

> <Gold.Chemscore.Lipo>
33.1043

> <Gold.Chemscore.Internal_Hbond>
0.0000

> <Gold.Chemscore.DEClash>
0.0000

> <Gold.Chemscore.DEInternal>
0.2050

> <Gold.Chemscore.Rot>
2.2285

> <Gold.Chemscore.Internal.Correction>
   9.000000E+99

> <Gold.Chemscore.Hbonds>
donor molecule, donor type, donor heavy atom, donor atom, acceptor molecule, acceptor atom, score
      P1  H  6896  6908       L1     7  0.95
      P1  H  7989  7998       L1     1  0.21
      P1  H  7997  8010       L1     1  0.37
      P1  H 10752 10765       L1     3  0.71

> <Gold.Chemscore.Hbond.Weighted>
-9.4278

> <Gold.Chemscore.Metal.Weighted>
-0.0000

> <Gold.Chemscore.Lipo.Weighted>
-3.8732

> <Gold.Chemscore.Internal_Hbond.Weighted>
0.0000

> <Gold.Chemscore.DEClash.Weighted>
0.0000

> <Gold.Chemscore.DEInternal.Weighted>
0.2050

> <Gold.Chemscore.Rot.Weighted>
5.7050

> <Gold.Chemscore.Internal.Correction.Weighted>
   9.000000E+99

> <Gold.Protein.RotatedTorsions>
[ 6907 6896 6895 6894 ] final -175.87 input  -60.11 | X-H torsion
[ 7974 7965 7964 7962 ] final -174.93 input  175.53 | X-H torsion
[ 8008 7997 7996 7995 ] final   97.19 input   59.86 | X-H torsion
[ 10167 10162 10161 10158 ] final    3.53 input  -65.29 | X-H torsion
[ 10718 10713 10712 10709 ] final  -16.51 input   66.30 | X-H torsion
[ 10763 10752 10751 10750 ] final -177.63 input  -60.55 | X-H torsion
[ 11005 11000 10999 10996 ] final  144.98 input  -57.11 | X-H torsion

> <Gold.Protein.ActiveResidues>
 VAL166  LYS551  ARG553  GLY616  TRP617  ASP618  TYR619  PRO620  LYS621  CYS622 
 ASP623  PHE694  ASN695  SER759  ASP760  ASP761  ALA762  ILE779  LEU786  VAL792 
 PHE793  MET794  SER795  GLU796  ALA797  LYS798  CYS799  TRP800  GLU811  SER814 

> <Gold.Protein.RotatedAtoms>
  151.5956  133.3362  159.3036 H   0  0  0  0  0  0  0  0  0  0  0  0  # atno 6907 bound_to 6896
  150.8236  134.7459  159.6805 H   0  0  0  0  0  0  0  0  0  0  0  0  # atno 6908 bound_to 6896
  152.4327  134.5752  159.9984 H   0  0  0  0  0  0  0  0  0  0  0  0  # atno 6909 bound_to 6896
  144.7130  140.1397  143.6392 H   0  0  0  0  0  0  0  0  0  0  0  0  # atno 7974 bound_to 7965
  156.0875  140.3262  155.7772 H   0  0  0  0  0  0  0  0  0  0  0  0  # atno 8008 bound_to 7997
  155.5052  140.0572  157.2950 H   0  0  0  0  0  0  0  0  0  0  0  0  # atno 8009 bound_to 7997
  154.4618  140.1970  156.0241 H   0  0  0  0  0  0  0  0  0  0  0  0  # atno 8010 bound_to 7997
  140.6581  143.7375  150.7689 H   0  0  0  0  0  0  0  0  0  0  0  0  # atno 10167 bound_to 10162
  156.5865  130.4788  149.6297 H   0  0  0  0  0  0  0  0  0  0  0  0  # atno 10718 bound_to 10713
  154.5577  135.2817  155.0949 H   0  0  0  0  0  0  0  0  0  0  0  0  # atno 10763 bound_to 10752
  154.2370  135.6364  153.5198 H   0  0  0  0  0  0  0  0  0  0  0  0  # atno 10764 bound_to 10752
  153.0020  135.5551  154.6162 H   0  0  0  0  0  0  0  0  0  0  0  0  # atno 10765 bound_to 10752
  140.0675  134.9170  157.1290 H   0  0  0  0  0  0  0  0  0  0  0  0  # atno 11005 bound_to 11000
  145.9213  139.2547  143.1380 LP  0  0  0  0  0  0  0  0  0  0  0  0  # atno 17320 bound_to 7965
  145.9617  140.8830  143.0207 LP  0  0  0  0  0  0  0  0  0  0  0  0  # atno 17321 bound_to 7965
  140.1038  143.4762  152.2410 LP  0  0  0  0  0  0  0  0  0  0  0  0  # atno 17342 bound_to 10162
  139.5808  144.7509  151.3645 LP  0  0  0  0  0  0  0  0  0  0  0  0  # atno 17343 bound_to 10162
  156.2586  130.6949  151.1710 LP  0  0  0  0  0  0  0  0  0  0  0  0  # atno 17370 bound_to 10713
  157.7314  131.0608  150.5680 LP  0  0  0  0  0  0  0  0  0  0  0  0  # atno 17371 bound_to 10713
  140.3676  134.2425  155.7181 LP  0  0  0  0  0  0  0  0  0  0  0  0  # atno 17394 bound_to 11000
  141.1999  133.8001  157.0516 LP  0  0  0  0  0  0  0  0  0  0  0  0  # atno 17395 bound_to 11000

$$$$
