AV-unprocessed.smi:1623|AV-procd|sdf|6502|dock5
  -GOLD-   22720 7173D 1   1.00000     0.00000
 Structure written by MMmdl.
 42 43  0  0  0  0  0  0  0  0  1 V2000
  151.2412  144.3714  160.7974 C   0  0  0  0  0  0  0  0  0  0  0  0
  151.9365  143.1119  160.3555 C   0  0  0  0  0  0  0  0  0  0  0  0
  151.6571  142.6800  159.1695 N   0  0  0  0  0  0  0  0  0  0  0  0
  152.2402  141.5347  158.6664 N   0  0  0  0  0  0  0  0  0  0  0  0
  151.7927  141.1831  157.3145 C   0  0  0  0  0  0  0  0  0  0  0  0
  150.5972  142.0511  156.8610 C   0  0  1  0  0  0  0  0  0  0  0  0
  151.0054  143.4037  156.8244 O   0  0  0  0  0  0  0  0  0  0  0  0
  150.1192  141.6783  155.4509 C   0  0  0  0  0  0  0  0  0  0  0  0
  149.4978  140.4030  155.5119 O   0  0  0  0  0  0  0  0  0  0  0  0
  148.4201  140.2383  154.6024 C   0  0  0  0  0  0  0  0  0  0  0  0
  147.3485  141.3091  154.7483 C   0  0  0  0  0  0  0  0  0  0  0  0
  147.0082  142.1034  153.6321 C   0  0  0  0  0  0  0  0  0  0  0  0
  146.0196  143.0998  153.7416 C   0  0  0  0  0  0  0  0  0  0  0  0
  145.3670  143.3110  154.9703 C   0  0  0  0  0  0  0  0  0  0  0  0
  145.7052  142.5263  156.0890 C   0  0  0  0  0  0  0  0  0  0  0  0
  146.6937  141.5270  155.9845 C   0  0  0  0  0  0  0  0  0  0  0  0
  147.0809  140.5880  157.3838 Cl  0  0  0  0  0  0  0  0  0  0  0  0
  153.1420  140.7615  159.3365 C   0  0  0  0  0  0  0  0  0  0  0  0
  153.6335  139.7424  158.8489 O   0  0  0  0  0  0  0  0  0  0  0  0
  153.4541  141.2561  160.6792 C   0  0  0  0  0  0  0  0  0  0  0  0
  154.3927  140.4741  161.4175 C   0  0  0  0  0  0  0  0  0  0  0  0
  155.1564  139.8562  162.0299 N   0  0  0  0  0  0  0  0  0  0  0  0
  152.8860  142.3787  161.1869 C   0  0  0  0  0  0  0  0  0  0  0  0
  153.1734  142.9322  162.5760 C   0  0  0  0  0  0  0  0  0  0  0  0
  150.6407  144.1900  161.6891 H   0  0  0  0  0  0  0  0  0  0  0  0
  150.5745  144.7600  160.0259 H   0  0  0  0  0  0  0  0  0  0  0  0
  151.9657  145.1524  161.0293 H   0  0  0  0  0  0  0  0  0  0  0  0
  152.6136  141.2499  156.5975 H   0  0  0  0  0  0  0  0  0  0  0  0
  151.5131  140.1281  157.3071 H   0  0  0  0  0  0  0  0  0  0  0  0
  149.7574  141.9624  157.5515 H   0  0  0  0  0  0  0  0  0  0  0  0
  150.2810  143.9257  156.5144 H   0  0  0  0  0  0  0  0  0  0  0  0
  149.3922  142.4068  155.0882 H   0  0  0  0  0  0  0  0  0  0  0  0
  150.9611  141.6818  154.7567 H   0  0  0  0  0  0  0  0  0  0  0  0
  148.8200  140.2944  153.5896 H   0  0  0  0  0  0  0  0  0  0  0  0
  147.9916  139.2403  154.7056 H   0  0  0  0  0  0  0  0  0  0  0  0
  147.5026  141.9485  152.6841 H   0  0  0  0  0  0  0  0  0  0  0  0
  145.7626  143.7021  152.8828 H   0  0  0  0  0  0  0  0  0  0  0  0
  144.6086  144.0750  155.0553 H   0  0  0  0  0  0  0  0  0  0  0  0
  145.2038  142.6928  157.0310 H   0  0  0  0  0  0  0  0  0  0  0  0
  153.8889  142.3200  163.1242 H   0  0  0  0  0  0  0  0  0  0  0  0
  152.2587  142.9744  163.1683 H   0  0  0  0  0  0  0  0  0  0  0  0
  153.5876  143.9385  162.5090 H   0  0  0  0  0  0  0  0  0  0  0  0
  1  2  1  0  0  0  0
  1 25  1  0  0  0  0
  1 26  1  0  0  0  0
  1 27  1  0  0  0  0
  2 23  1  0  0  0  0
  2  3  2  0  0  0  0
  3  4  1  0  0  0  0
  4  5  1  0  0  0  0
  4 18  1  0  0  0  0
  5  6  1  0  0  0  0
  5 28  1  0  0  0  0
  5 29  1  0  0  0  0
  6  7  1  0  0  0  0
  6  8  1  0  0  0  0
  6 30  1  0  0  0  0
  7 31  1  0  0  0  0
  8  9  1  0  0  0  0
  8 32  1  0  0  0  0
  8 33  1  0  0  0  0
  9 10  1  0  0  0  0
 10 11  1  0  0  0  0
 10 34  1  0  0  0  0
 10 35  1  0  0  0  0
 11 16  1  0  0  0  0
 11 12  2  0  0  0  0
 12 13  1  0  0  0  0
 12 36  1  0  0  0  0
 13 14  2  0  0  0  0
 13 37  1  0  0  0  0
 14 15  1  0  0  0  0
 14 38  1  0  0  0  0
 15 16  2  0  0  0  0
 15 39  1  0  0  0  0
 16 17  1  0  0  0  0
 18 19  2  0  0  0  0
 18 20  1  0  0  0  0
 20 21  1  0  0  0  0
 20 23  2  0  0  0  0
 21 22  3  0  0  0  0
 23 24  1  0  0  0  0
 24 40  1  0  0  0  0
 24 41  1  0  0  0  0
 24 42  1  0  0  0  0
M  END
> <s_m_source_file>
AV-unprocessed.smi

> <i_m_source_file_index>
1623

> <i_lp_mmshare_version>
43012

> <i_f3d_flags>
0

> <s_epik_input>
TiNDYyhjMVtDSDNdKWMoPU8pbihuYzFbQ0gzXSlbQ0gyXVtDQEhdKFtPSF0pW0NIMl1PW0NIMl1jMltjSF1bY0hdW2NIXVtjSF1jMkNs

> <s_epik_cmdline>
J2VwaWtfcHl0aG9uJywgJy1waCcsICc3LjAnLCAnLXRuJywgJzgnLCAnLW1hJywgJzIwMCcsICctbWV0YWxfYmluZGluZycsICctaW1hZScsICc8aW5maWxlLm1hZT4nLCAnLW9tYWUnLCAnPG91dGZpbGUubWFlPic=

> <r_lp_tautomer_probability>
1

> <r_epik_Ionization_Penalty>
6.50533e-08

> <r_epik_Ionization_Penalty_Charging>
2.19172e-10

> <r_epik_Ionization_Penalty_Neutral>
6.48342e-08

> <r_epik_State_Penalty>
-0

> <r_epik_Charging_Adjusted_Penalty>
2.19172e-10

> <i_epik_Tot_Q>
0

> <i_epik_Tot_abs_Q>
0

> <r_epik_Metal_State_Penalty>
-0

> <b_epik_Metal_Only>
0

> <s_lp_Force_Field>
OPLS_2005

> <r_lp_Energy>
29.8059

> <b_lp_Chiralities_Consistent>
1

> <s_lp_Variant>
AV-unprocessed.smi:1623-2

> <Gold.Version>
5.8.1

> <Gold.Id.Protein>
6NUR|6NUR_protein|mol2

> <Gold.PLP.Fitness>
54.7812

> <Gold.PLP.PLP>
-49.3485

> <Gold.PLP.part.hbond>
-2.0000

> <Gold.PLP.part.metal>
0.0000

> <Gold.PLP.part.buried>
-8.8437

> <Gold.PLP.part.nonpolar>
-38.2927

> <Gold.PLP.part.repulsive>
0.0653

> <Gold.PLP.ligand.clash>
0.0000

> <Gold.PLP.ligand.torsion>
0.3730

> <Gold.PLP.Chemscore.Hbond>
2.0000

> <Gold.PLP.Chemscore.CHOScore>
0.0000

> <Gold.PLP.Chemscore.Metal>
0.0000

> <Gold.Chemscore.Hbonds>
donor molecule, donor type, donor heavy atom, donor atom, acceptor molecule, acceptor atom, score
      L1  H     7    31       P1  8028  1.00
      P1  H  7997  8010       L1    19  0.99

> <Gold.PLP.Chemscore.Internal.Correction>
0.1788

> <Gold.Rescore>
     Score         DG    S(hbond)    S(metal)    S(lipo)     H(rot)  DE(clash)    DE(int)     intcor
     18.42     -18.74       1.98        0.00     110.99       2.48       0.04       0.27       ----

> <Gold.Chemscore.Fitness>
18.4207

> <Gold.Chemscore.DG>
-18.7366

> <Gold.Chemscore.ZeroCoef>
-5.4800

> <Gold.Chemscore.Hbond>
1.9801

> <Gold.Chemscore.Metal>
0.0000

> <Gold.Chemscore.Lipo>
110.9913

> <Gold.Chemscore.Internal_Hbond>
0.0000

> <Gold.Chemscore.DEClash>
0.0444

> <Gold.Chemscore.DEInternal>
0.2715

> <Gold.Chemscore.Rot>
2.4777

> <Gold.Chemscore.Internal.Correction>
   9.000000E+99

> <Gold.Chemscore.Hbonds>
donor molecule, donor type, donor heavy atom, donor atom, acceptor molecule, acceptor atom, score
      L1  H     7    31       P1  8028  1.00
      P1  H  7997  8010       L1    19  0.83

> <Gold.Chemscore.Hbond.Weighted>
-6.6135

> <Gold.Chemscore.Metal.Weighted>
-0.0000

> <Gold.Chemscore.Lipo.Weighted>
-12.9860

> <Gold.Chemscore.Internal_Hbond.Weighted>
0.0000

> <Gold.Chemscore.DEClash.Weighted>
0.0444

> <Gold.Chemscore.DEInternal.Weighted>
0.2715

> <Gold.Chemscore.Rot.Weighted>
6.3428

> <Gold.Chemscore.Internal.Correction.Weighted>
   9.000000E+99

> <Gold.Protein.RotatedTorsions>
[ 6907 6896 6895 6894 ] final -160.53 input  -60.11 | X-H torsion
[ 7974 7965 7964 7962 ] final -172.46 input  175.53 | X-H torsion
[ 8008 7997 7996 7995 ] final   21.23 input   59.86 | X-H torsion
[ 10167 10162 10161 10158 ] final -173.29 input  -65.29 | X-H torsion
[ 10718 10713 10712 10709 ] final  108.43 input   66.30 | X-H torsion
[ 10763 10752 10751 10750 ] final -172.09 input  -60.55 | X-H torsion
[ 11005 11000 10999 10996 ] final  167.13 input  -57.11 | X-H torsion

> <Gold.Protein.ActiveResidues>
 VAL166  LYS551  ARG553  GLY616  TRP617  ASP618  TYR619  PRO620  LYS621  CYS622 
 ASP623  PHE694  ASN695  SER759  ASP760  ASP761  ALA762  ILE779  LEU786  VAL792 
 PHE793  MET794  SER795  GLU796  ALA797  LYS798  CYS799  TRP800  GLU811  SER814 

> <Gold.Protein.RotatedAtoms>
  151.3506  133.3927  159.2679 H   0  0  0  0  0  0  0  0  0  0  0  0  # atno 6907 bound_to 6896
  150.9805  134.9161  159.7851 H   0  0  0  0  0  0  0  0  0  0  0  0  # atno 6908 bound_to 6896
  152.5215  134.3469  159.9289 H   0  0  0  0  0  0  0  0  0  0  0  0  # atno 6909 bound_to 6896
  144.7146  140.1769  143.6362 H   0  0  0  0  0  0  0  0  0  0  0  0  # atno 7974 bound_to 7965
  154.9475  140.3061  155.5091 H   0  0  0  0  0  0  0  0  0  0  0  0  # atno 8008 bound_to 7997
  156.2990  140.2325  156.4488 H   0  0  0  0  0  0  0  0  0  0  0  0  # atno 8009 bound_to 7997
  154.8086  140.0430  157.1314 H   0  0  0  0  0  0  0  0  0  0  0  0  # atno 8010 bound_to 7997
  139.5697  144.1672  152.1365 H   0  0  0  0  0  0  0  0  0  0  0  0  # atno 10167 bound_to 10162
  157.6586  131.0893  150.6305 H   0  0  0  0  0  0  0  0  0  0  0  0  # atno 10718 bound_to 10713
  154.6232  135.2877  155.0302 H   0  0  0  0  0  0  0  0  0  0  0  0  # atno 10763 bound_to 10752
  154.1489  135.6506  153.4963 H   0  0  0  0  0  0  0  0  0  0  0  0  # atno 10764 bound_to 10752
  153.0245  135.5351  154.7030 H   0  0  0  0  0  0  0  0  0  0  0  0  # atno 10765 bound_to 10752
  140.2735  134.7807  157.3696 H   0  0  0  0  0  0  0  0  0  0  0  0  # atno 11005 bound_to 11000
  145.8892  139.2366  143.1560 LP  0  0  0  0  0  0  0  0  0  0  0  0  # atno 17320 bound_to 7965
  145.9920  140.8594  143.0061 LP  0  0  0  0  0  0  0  0  0  0  0  0  # atno 17321 bound_to 7965
  140.1202  144.5380  150.6868 LP  0  0  0  0  0  0  0  0  0  0  0  0  # atno 17342 bound_to 10162
  140.6981  143.2417  151.4943 LP  0  0  0  0  0  0  0  0  0  0  0  0  # atno 17343 bound_to 10162
  156.6609  130.4512  149.5688 LP  0  0  0  0  0  0  0  0  0  0  0  0  # atno 17370 bound_to 10713
  156.2068  130.6654  151.1226 LP  0  0  0  0  0  0  0  0  0  0  0  0  # atno 17371 bound_to 10713
  140.1350  134.5046  155.8075 LP  0  0  0  0  0  0  0  0  0  0  0  0  # atno 17394 bound_to 11000
  141.2174  133.6804  156.7108 LP  0  0  0  0  0  0  0  0  0  0  0  0  # atno 17395 bound_to 11000

$$$$
