AV-unprocessed.smi:525|AV-procd|sdf|2810|dock10
  -GOLD-   2262023293D 1   1.00000     0.00000
 Structure written by MMmdl.
 44 46  0  0  0  0  0  0  0  0  2 V2000
  153.2234  138.6203  154.5007 C   0  0  0  0  0  0  0  0  0  0  0  0
  152.9089  139.3433  155.6773 O   0  0  0  0  0  0  0  0  0  0  0  0
  151.6982  138.9079  156.2744 C   0  0  0  0  0  0  0  0  0  0  0  0
  151.4656  139.6647  157.5893 C   0  0  0  0  0  0  0  0  0  0  0  0
  151.1660  141.0852  157.3590 N   0  0  0  0  0  0  0  0  0  0  0  0
  150.5001  141.6832  156.3338 C   0  0  0  0  0  0  0  0  0  0  0  0
  149.7820  140.8676  154.9453 S   0  0  0  0  0  0  0  0  0  0  0  0
  148.0326  140.6066  155.3828 C   0  0  1  0  0  0  0  0  0  0  0  0
  147.2065  141.9012  155.4842 C   0  0  0  0  0  0  0  0  0  0  0  0
  147.1323  142.6586  154.3863 N   0  0  0  0  0  0  0  0  0  0  0  0
  146.6298  142.2127  156.5249 O   0  0  0  0  0  0  0  0  0  0  0  0
  147.4037  139.6417  154.3839 C   0  0  0  0  0  0  0  0  0  0  0  0
  146.8795  138.3993  154.8088 C   0  0  0  0  0  0  0  0  0  0  0  0
  146.2977  137.5170  153.8781 C   0  0  0  0  0  0  0  0  0  0  0  0
  146.2350  137.8698  152.5166 C   0  0  0  0  0  0  0  0  0  0  0  0
  146.7539  139.1059  152.0867 C   0  0  0  0  0  0  0  0  0  0  0  0
  147.3348  139.9894  153.0170 C   0  0  0  0  0  0  0  0  0  0  0  0
  150.5068  143.0255  156.5602 N   0  3  0  0  0  0  0  0  0  0  0  0
  151.1949  143.2929  157.7446 C   0  0  0  0  0  0  0  0  0  0  0  0
  151.4693  144.4975  158.3848 C   0  0  0  0  0  0  0  0  0  0  0  0
  152.2115  144.4233  159.5817 C   0  0  0  0  0  0  0  0  0  0  0  0
  152.6525  143.1871  160.0967 C   0  0  0  0  0  0  0  0  0  0  0  0
  152.3665  141.9719  159.4405 C   0  0  0  0  0  0  0  0  0  0  0  0
  151.6275  142.0522  158.2602 C   0  0  0  0  0  0  0  0  0  0  0  0
  154.1631  138.9856  154.0867 H   0  0  0  0  0  0  0  0  0  0  0  0
  152.4501  138.7481  153.7420 H   0  0  0  0  0  0  0  0  0  0  0  0
  153.3380  137.5563  154.7104 H   0  0  0  0  0  0  0  0  0  0  0  0
  150.8627  139.0849  155.5954 H   0  0  0  0  0  0  0  0  0  0  0  0
  151.7394  137.8348  156.4655 H   0  0  0  0  0  0  0  0  0  0  0  0
  150.6222  139.2305  158.1271 H   0  0  0  0  0  0  0  0  0  0  0  0
  152.3274  139.5766  158.2502 H   0  0  0  0  0  0  0  0  0  0  0  0
  148.0250  140.1405  156.3689 H   0  0  0  0  0  0  0  0  0  0  0  0
  146.5852  143.5074  154.3931 H   0  0  0  0  0  0  0  0  0  0  0  0
  147.6078  142.3675  153.5442 H   0  0  0  0  0  0  0  0  0  0  0  0
  146.9223  138.1193  155.8515 H   0  0  0  0  0  0  0  0  0  0  0  0
  145.8992  136.5694  154.2091 H   0  0  0  0  0  0  0  0  0  0  0  0
  145.7890  137.1931  151.8027 H   0  0  0  0  0  0  0  0  0  0  0  0
  146.7053  139.3772  151.0423 H   0  0  0  0  0  0  0  0  0  0  0  0
  147.7279  140.9351  152.6743 H   0  0  0  0  0  0  0  0  0  0  0  0
  151.1371  145.4464  157.9897 H   0  0  0  0  0  0  0  0  0  0  0  0
  152.4507  145.3329  160.1135 H   0  0  0  0  0  0  0  0  0  0  0  0
  153.2238  143.1696  161.0134 H   0  0  0  0  0  0  0  0  0  0  0  0
  152.7158  141.0323  159.8419 H   0  0  0  0  0  0  0  0  0  0  0  0
  150.0765  143.7057  155.9476 H   0  0  0  0  0  0  0  0  0  0  0  0
  1  2  1  0  0  0  0
  1 25  1  0  0  0  0
  1 26  1  0  0  0  0
  1 27  1  0  0  0  0
  2  3  1  0  0  0  0
  3  4  1  0  0  0  0
  3 28  1  0  0  0  0
  3 29  1  0  0  0  0
  4  5  1  0  0  0  0
  4 30  1  0  0  0  0
  4 31  1  0  0  0  0
  5 24  1  0  0  0  0
  5  6  1  0  0  0  0
  6  7  1  0  0  0  0
  6 18  2  0  0  0  0
  7  8  1  0  0  0  0
  8  9  1  0  0  0  0
  8 12  1  0  0  0  0
  8 32  1  0  0  0  0
  9 10  1  0  0  0  0
  9 11  2  0  0  0  0
 10 33  1  0  0  0  0
 10 34  1  0  0  0  0
 12 17  1  0  0  0  0
 12 13  2  0  0  0  0
 13 14  1  0  0  0  0
 13 35  1  0  0  0  0
 14 15  2  0  0  0  0
 14 36  1  0  0  0  0
 15 16  1  0  0  0  0
 15 37  1  0  0  0  0
 16 17  2  0  0  0  0
 16 38  1  0  0  0  0
 17 39  1  0  0  0  0
 18 19  1  0  0  0  0
 18 44  1  0  0  0  0
 19 24  2  0  0  0  0
 19 20  1  0  0  0  0
 20 21  2  0  0  0  0
 20 40  1  0  0  0  0
 21 22  1  0  0  0  0
 21 41  1  0  0  0  0
 22 23  2  0  0  0  0
 22 42  1  0  0  0  0
 23 24  1  0  0  0  0
 23 43  1  0  0  0  0
M  CHG  1  18   1
M  END
> <s_m_source_file>
AV-unprocessed.smi

> <i_m_source_file_index>
525

> <i_lp_mmshare_version>
43012

> <i_f3d_flags>
0

> <s_epik_input>
W2NIXTFbY0hdW2NIXVtjSF1jKGMxMiluKFtDSDJdW0NIMl1PW0NIM10pYyhuMilTW0NASF0oQyg9TylbTkgyXSljM1tjSF1bY0hdW2NIXVtjSF1bY0hdMw==

> <s_epik_cmdline>
J2VwaWtfcHl0aG9uJywgJy1waCcsICc3LjAnLCAnLXRuJywgJzgnLCAnLW1hJywgJzIwMCcsICctbWV0YWxfYmluZGluZycsICctaW1hZScsICc8aW5maWxlLm1hZT4nLCAnLW9tYWUnLCAnPG91dGZpbGUubWFlPic=

> <r_epik_Ionization_Penalty>
1.29485

> <r_epik_Ionization_Penalty_Charging>
1.29485

> <r_epik_Ionization_Penalty_Neutral>
1.02965e-06

> <r_epik_State_Penalty>
1.36828

> <r_epik_Charging_Adjusted_Penalty>
2.66313

> <i_epik_Tot_Q>
1

> <i_epik_Tot_abs_Q>
1

> <r_epik_Metal_State_Penalty>
1.43316

> <b_epik_Metal_Only>
0

> <s_lp_Force_Field>
OPLS_2005

> <r_lp_Energy>
11.9794

> <b_lp_Chiralities_Consistent>
1

> <s_lp_Variant>
AV-unprocessed.smi:525-4

> <Gold.Version>
5.8.1

> <Gold.Id.Protein>
6NUR|6NUR_protein|mol2

> <Gold.PLP.Fitness>
55.6985

> <Gold.PLP.PLP>
-48.2762

> <Gold.PLP.part.hbond>
-2.7825

> <Gold.PLP.part.metal>
0.0000

> <Gold.PLP.part.buried>
-2.9591

> <Gold.PLP.part.nonpolar>
-43.5044

> <Gold.PLP.part.repulsive>
0.3709

> <Gold.PLP.ligand.clash>
0.0000

> <Gold.PLP.ligand.torsion>
0.8368

> <Gold.PLP.Chemscore.Hbond>
2.9840

> <Gold.PLP.Chemscore.CHOScore>
0.0000

> <Gold.PLP.Chemscore.Metal>
0.0000

> <Gold.Chemscore.Hbonds>
donor molecule, donor type, donor heavy atom, donor atom, acceptor molecule, acceptor atom, score
      L1  H    18    44       P1  8028  1.98
      P1  H  7997  8010       L1     2  1.00

> <Gold.PLP.Chemscore.Internal.Correction>
0.1438

> <Gold.Rescore>
     Score         DG    S(hbond)    S(metal)    S(lipo)     H(rot)  DE(clash)    DE(int)     intcor
     17.95     -20.59       1.84        0.00     131.64       2.51       0.15       2.49       ----

> <Gold.Chemscore.Fitness>
17.9470

> <Gold.Chemscore.DG>
-20.5869

> <Gold.Chemscore.ZeroCoef>
-5.4800

> <Gold.Chemscore.Hbond>
1.8390

> <Gold.Chemscore.Metal>
0.0000

> <Gold.Chemscore.Lipo>
131.6408

> <Gold.Chemscore.Internal_Hbond>
0.0000

> <Gold.Chemscore.DEClash>
0.1451

> <Gold.Chemscore.DEInternal>
2.4949

> <Gold.Chemscore.Rot>
2.5145

> <Gold.Chemscore.Internal.Correction>
   9.000000E+99

> <Gold.Chemscore.Hbonds>
donor molecule, donor type, donor heavy atom, donor atom, acceptor molecule, acceptor atom, score
      L1  H    18    44       P1  8028  0.92
      P1  H  7997  8010       L1     2  0.60

> <Gold.Chemscore.Hbond.Weighted>
-6.1421

> <Gold.Chemscore.Metal.Weighted>
-0.0000

> <Gold.Chemscore.Lipo.Weighted>
-15.4020

> <Gold.Chemscore.Internal_Hbond.Weighted>
0.0000

> <Gold.Chemscore.DEClash.Weighted>
0.1451

> <Gold.Chemscore.DEInternal.Weighted>
2.4949

> <Gold.Chemscore.Rot.Weighted>
6.4372

> <Gold.Chemscore.Internal.Correction.Weighted>
   9.000000E+99

> <Gold.Protein.RotatedTorsions>
[ 6907 6896 6895 6894 ] final  173.86 input  -60.11 | X-H torsion
[ 7974 7965 7964 7962 ] final  -41.41 input  175.53 | X-H torsion
[ 8008 7997 7996 7995 ] final   86.25 input   59.86 | X-H torsion
[ 10167 10162 10161 10158 ] final   84.38 input  -65.29 | X-H torsion
[ 10718 10713 10712 10709 ] final -177.99 input   66.30 | X-H torsion
[ 10763 10752 10751 10750 ] final -168.17 input  -60.55 | X-H torsion
[ 11005 11000 10999 10996 ] final  -50.56 input  -57.11 | X-H torsion

> <Gold.Protein.ActiveResidues>
 VAL166  LYS551  ARG553  GLY616  TRP617  ASP618  TYR619  PRO620  LYS621  CYS622 
 ASP623  PHE694  ASN695  SER759  ASP760  ASP761  ALA762  ILE779  LEU786  VAL792 
 PHE793  MET794  SER795  GLU796  ALA797  LYS798  CYS799  TRP800  GLU811  SER814 

> <Gold.Protein.RotatedAtoms>
  151.7616  133.3334  159.3418 H   0  0  0  0  0  0  0  0  0  0  0  0  # atno 6907 bound_to 6896
  150.7496  134.6101  159.6091 H   0  0  0  0  0  0  0  0  0  0  0  0  # atno 6908 bound_to 6896
  152.3402  134.7147  160.0317 H   0  0  0  0  0  0  0  0  0  0  0  0  # atno 6909 bound_to 6896
  146.0214  140.6845  142.9176 H   0  0  0  0  0  0  0  0  0  0  0  0  # atno 7974 bound_to 7965
  155.9604  140.3394  155.6485 H   0  0  0  0  0  0  0  0  0  0  0  0  # atno 8008 bound_to 7997
  155.6805  140.0737  157.2504 H   0  0  0  0  0  0  0  0  0  0  0  0  # atno 8009 bound_to 7997
  154.4142  140.1675  156.1965 H   0  0  0  0  0  0  0  0  0  0  0  0  # atno 8010 bound_to 7997
  139.9086  144.6285  150.8561 H   0  0  0  0  0  0  0  0  0  0  0  0  # atno 10167 bound_to 10162
  156.8377  130.9675  151.3102 H   0  0  0  0  0  0  0  0  0  0  0  0  # atno 10718 bound_to 10713
  154.6656  135.2931  154.9810 H   0  0  0  0  0  0  0  0  0  0  0  0  # atno 10763 bound_to 10752
  154.0855  135.6598  153.4848 H   0  0  0  0  0  0  0  0  0  0  0  0  # atno 10764 bound_to 10752
  153.0455  135.5207  154.7627 H   0  0  0  0  0  0  0  0  0  0  0  0  # atno 10765 bound_to 10752
  141.0822  133.6650  156.3748 H   0  0  0  0  0  0  0  0  0  0  0  0  # atno 11005 bound_to 11000
  144.6991  140.3572  143.7170 LP  0  0  0  0  0  0  0  0  0  0  0  0  # atno 17320 bound_to 7965
  145.7187  139.1704  143.2497 LP  0  0  0  0  0  0  0  0  0  0  0  0  # atno 17321 bound_to 7965
  140.7690  143.3382  151.2263 LP  0  0  0  0  0  0  0  0  0  0  0  0  # atno 17342 bound_to 10162
  139.6962  143.9609  152.2883 LP  0  0  0  0  0  0  0  0  0  0  0  0  # atno 17343 bound_to 10162
  157.6373  130.8777  149.9382 LP  0  0  0  0  0  0  0  0  0  0  0  0  # atno 17370 bound_to 10713
  156.0898  130.3664  150.0416 LP  0  0  0  0  0  0  0  0  0  0  0  0  # atno 17371 bound_to 10713
  140.5442  134.6091  157.5389 LP  0  0  0  0  0  0  0  0  0  0  0  0  # atno 17394 bound_to 11000
  139.9637  134.7409  156.0183 LP  0  0  0  0  0  0  0  0  0  0  0  0  # atno 17395 bound_to 11000

$$$$
