AV-unprocessed.smi:1699|AV-procd|sdf|6817|dock9
  -GOLD-   22720 7593D 1   1.00000     0.00000
 Structure written by MMmdl.
 37 38  0  0  0  0  0  0  0  0  1 V2000
  151.5783  145.4740  159.4619 C   0  0  0  0  0  0  0  0  0  0  0  0
  152.0054  144.2348  160.2321 C   0  0  0  0  0  0  0  0  0  0  0  0
  152.4277  144.3659  161.5722 C   0  0  0  0  0  0  0  0  0  0  0  0
  152.8203  143.2189  162.2830 C   0  0  0  0  0  0  0  0  0  0  0  0
  152.7732  141.9811  161.6192 C   0  0  0  0  0  0  0  0  0  0  0  0
  152.3721  141.8467  160.3387 N   0  0  0  0  0  0  0  0  0  0  0  0
  151.9900  142.9441  159.6381 C   0  0  0  0  0  0  0  0  0  0  0  0
  151.5607  142.8791  158.2824 N   0  0  0  0  0  0  0  0  0  0  0  0
  150.8261  141.9271  157.6806 C   0  0  0  0  0  0  0  0  0  0  0  0
  150.3661  140.9269  158.2317 O   0  0  0  0  0  0  0  0  0  0  0  0
  150.6461  142.2083  156.3812 N   0  0  0  0  0  0  0  0  0  0  0  0
  149.8772  141.4046  155.4336 C   0  0  2  0  0  0  0  0  0  0  0  0
  148.3880  141.5139  155.7955 C   0  0  0  0  0  0  0  0  0  0  0  0
  150.3805  139.9468  155.4595 C   0  0  1  0  0  0  0  0  0  0  0  0
  149.7395  139.0272  154.4185 C   0  0  0  0  0  0  0  0  0  0  0  0
  150.7843  137.9434  154.1993 C   0  0  0  0  0  0  0  0  0  0  0  0
  152.0544  138.5147  154.8346 C   0  0  0  0  0  0  0  0  0  0  0  0
  151.7520  139.8762  155.1003 O   0  0  0  0  0  0  0  0  0  0  0  0
  151.6527  146.3702  160.0783 H   0  0  0  0  0  0  0  0  0  0  0  0
  150.5436  145.3793  159.1313 H   0  0  0  0  0  0  0  0  0  0  0  0
  152.2111  145.6165  158.5854 H   0  0  0  0  0  0  0  0  0  0  0  0
  152.4513  145.3329  162.0528 H   0  0  0  0  0  0  0  0  0  0  0  0
  153.1485  143.2859  163.3094 H   0  0  0  0  0  0  0  0  0  0  0  0
  153.0656  141.0746  162.1283 H   0  0  0  0  0  0  0  0  0  0  0  0
  151.8522  143.6504  157.7010 H   0  0  0  0  0  0  0  0  0  0  0  0
  151.0604  143.0547  156.0198 H   0  0  0  0  0  0  0  0  0  0  0  0
  150.0014  141.8031  154.4250 H   0  0  0  0  0  0  0  0  0  0  0  0
  147.7645  140.9771  155.0802 H   0  0  0  0  0  0  0  0  0  0  0  0
  148.0603  142.5540  155.7937 H   0  0  0  0  0  0  0  0  0  0  0  0
  148.1878  141.1029  156.7857 H   0  0  0  0  0  0  0  0  0  0  0  0
  150.2571  139.5193  156.4568 H   0  0  0  0  0  0  0  0  0  0  0  0
  148.7788  138.6279  154.7448 H   0  0  0  0  0  0  0  0  0  0  0  0
  149.5781  139.5688  153.4854 H   0  0  0  0  0  0  0  0  0  0  0  0
  150.5001  137.0070  154.6811 H   0  0  0  0  0  0  0  0  0  0  0  0
  150.9206  137.7466  153.1353 H   0  0  0  0  0  0  0  0  0  0  0  0
  152.2750  138.0076  155.7751 H   0  0  0  0  0  0  0  0  0  0  0  0
  152.9259  138.4244  154.1860 H   0  0  0  0  0  0  0  0  0  0  0  0
  1  2  1  0  0  0  0
  1 19  1  0  0  0  0
  1 20  1  0  0  0  0
  1 21  1  0  0  0  0
  2  7  1  0  0  0  0
  2  3  2  0  0  0  0
  3  4  1  0  0  0  0
  3 22  1  0  0  0  0
  4  5  2  0  0  0  0
  4 23  1  0  0  0  0
  5  6  1  0  0  0  0
  5 24  1  0  0  0  0
  6  7  2  0  0  0  0
  7  8  1  0  0  0  0
  8  9  1  0  0  0  0
  8 25  1  0  0  0  0
  9 10  2  0  0  0  0
  9 11  1  0  0  0  0
 11 12  1  0  0  0  0
 11 26  1  0  0  0  0
 12 13  1  0  0  0  0
 12 14  1  0  0  0  0
 12 27  1  0  0  0  0
 13 28  1  0  0  0  0
 13 29  1  0  0  0  0
 13 30  1  0  0  0  0
 14 18  1  0  0  0  0
 14 15  1  0  0  0  0
 14 31  1  0  0  0  0
 15 16  1  0  0  0  0
 15 32  1  0  0  0  0
 15 33  1  0  0  0  0
 16 17  1  0  0  0  0
 16 34  1  0  0  0  0
 16 35  1  0  0  0  0
 17 18  1  0  0  0  0
 17 36  1  0  0  0  0
 17 37  1  0  0  0  0
M  END
> <s_m_source_file>
AV-unprocessed.smi

> <i_m_source_file_index>
1699

> <i_lp_mmshare_version>
43012

> <i_f3d_flags>
0

> <s_epik_input>
W0NIM11jMVtjSF1bY0hdW2NIXW5jMVtOSF1DKD1PKVtOSF1bQ0BIXShbQ0gzXSlbQ0BASF0yW0NIMl1bQ0gyXVtDSDJdTzI=

> <s_epik_cmdline>
J2VwaWtfcHl0aG9uJywgJy1waCcsICc3LjAnLCAnLXRuJywgJzgnLCAnLW1hJywgJzIwMCcsICctbWV0YWxfYmluZGluZycsICctaW1hZScsICc8aW5maWxlLm1hZT4nLCAnLW9tYWUnLCAnPG91dGZpbGUubWFlPic=

> <r_lp_tautomer_probability>
1

> <r_epik_Ionization_Penalty>
5.52788e-05

> <r_epik_Ionization_Penalty_Charging>
0

> <r_epik_Ionization_Penalty_Neutral>
5.52788e-05

> <r_epik_State_Penalty>
-0

> <r_epik_Charging_Adjusted_Penalty>
0

> <i_epik_Tot_Q>
0

> <i_epik_Tot_abs_Q>
0

> <r_epik_Metal_State_Penalty>
-0

> <b_epik_Metal_Only>
0

> <s_lp_Force_Field>
OPLS_2005

> <r_lp_Energy>
21.1127

> <b_lp_Chiralities_Consistent>
1

> <s_lp_Variant>
AV-unprocessed.smi:1699-3

> <Gold.Version>
5.8.1

> <Gold.Id.Protein>
6NUR|6NUR_protein|mol2

> <Gold.PLP.Fitness>
44.8824

> <Gold.PLP.PLP>
-42.9148

> <Gold.PLP.part.hbond>
-1.7135

> <Gold.PLP.part.metal>
0.0000

> <Gold.PLP.part.buried>
-7.4241

> <Gold.PLP.part.nonpolar>
-35.2521

> <Gold.PLP.part.repulsive>
0.1666

> <Gold.PLP.ligand.clash>
0.0000

> <Gold.PLP.ligand.torsion>
0.3496

> <Gold.PLP.Chemscore.Hbond>
0.8816

> <Gold.PLP.Chemscore.CHOScore>
0.0000

> <Gold.PLP.Chemscore.Metal>
0.0000

> <Gold.Chemscore.Hbonds>
donor molecule, donor type, donor heavy atom, donor atom, acceptor molecule, acceptor atom, score
      P1  H  7989  7998       L1    18  0.89

> <Gold.PLP.Chemscore.Internal.Correction>
0.0220

> <Gold.Rescore>
     Score         DG    S(hbond)    S(metal)    S(lipo)     H(rot)  DE(clash)    DE(int)     intcor
     13.60     -16.22       0.73        0.00      97.75       1.22       0.30       2.31       ----

> <Gold.Chemscore.Fitness>
13.6031

> <Gold.Chemscore.DG>
-16.2215

> <Gold.Chemscore.ZeroCoef>
-5.4800

> <Gold.Chemscore.Hbond>
0.7270

> <Gold.Chemscore.Metal>
0.0000

> <Gold.Chemscore.Lipo>
97.7465

> <Gold.Chemscore.Internal_Hbond>
0.0000

> <Gold.Chemscore.DEClash>
0.3041

> <Gold.Chemscore.DEInternal>
2.3142

> <Gold.Chemscore.Rot>
1.2200

> <Gold.Chemscore.Internal.Correction>
   9.000000E+99

> <Gold.Chemscore.Hbonds>
donor molecule, donor type, donor heavy atom, donor atom, acceptor molecule, acceptor atom, score
      P1  H  7989  7998       L1    18  0.13

> <Gold.Chemscore.Hbond.Weighted>
-2.4283

> <Gold.Chemscore.Metal.Weighted>
-0.0000

> <Gold.Chemscore.Lipo.Weighted>
-11.4363

> <Gold.Chemscore.Internal_Hbond.Weighted>
0.0000

> <Gold.Chemscore.DEClash.Weighted>
0.3041

> <Gold.Chemscore.DEInternal.Weighted>
2.3142

> <Gold.Chemscore.Rot.Weighted>
3.1232

> <Gold.Chemscore.Internal.Correction.Weighted>
   9.000000E+99

> <Gold.Protein.RotatedTorsions>
[ 6907 6896 6895 6894 ] final  178.05 input  -60.11 | X-H torsion
[ 7974 7965 7964 7962 ] final  -44.45 input  175.53 | X-H torsion
[ 8008 7997 7996 7995 ] final -140.77 input   59.86 | X-H torsion
[ 10167 10162 10161 10158 ] final  169.97 input  -65.29 | X-H torsion
[ 10718 10713 10712 10709 ] final  -69.47 input   66.30 | X-H torsion
[ 10763 10752 10751 10750 ] final   -4.66 input  -60.55 | X-H torsion
[ 11005 11000 10999 10996 ] final  147.69 input  -57.11 | X-H torsion

> <Gold.Protein.ActiveResidues>
 VAL166  LYS551  ARG553  GLY616  TRP617  ASP618  TYR619  PRO620  LYS621  CYS622 
 ASP623  PHE694  ASN695  SER759  ASP760  ASP761  ALA762  ILE779  LEU786  VAL792 
 PHE793  MET794  SER795  GLU796  ALA797  LYS798  CYS799  TRP800  GLU811  SER814 

> <Gold.Protein.RotatedAtoms>
  151.6942  133.3311  159.3249 H   0  0  0  0  0  0  0  0  0  0  0  0  # atno 6907 bound_to 6896
  150.7765  134.6672  159.6381 H   0  0  0  0  0  0  0  0  0  0  0  0  # atno 6908 bound_to 6896
  152.3809  134.6595  160.0195 H   0  0  0  0  0  0  0  0  0  0  0  0  # atno 6909 bound_to 6896
  145.9919  140.7171  142.9312 H   0  0  0  0  0  0  0  0  0  0  0  0  # atno 7974 bound_to 7965
  155.4669  140.0550  157.2984 H   0  0  0  0  0  0  0  0  0  0  0  0  # atno 8008 bound_to 7997
  154.4714  140.2042  155.9939 H   0  0  0  0  0  0  0  0  0  0  0  0  # atno 8009 bound_to 7997
  156.1062  140.3211  155.8014 H   0  0  0  0  0  0  0  0  0  0  0  0  # atno 8010 bound_to 7997
  139.5006  144.3648  151.9787 H   0  0  0  0  0  0  0  0  0  0  0  0  # atno 10167 bound_to 10162
  156.0454  130.4313  150.2152 H   0  0  0  0  0  0  0  0  0  0  0  0  # atno 10718 bound_to 10713
  153.3878  135.7001  153.6517 H   0  0  0  0  0  0  0  0  0  0  0  0  # atno 10763 bound_to 10752
  153.5102  135.3633  155.2583 H   0  0  0  0  0  0  0  0  0  0  0  0  # atno 10764 bound_to 10752
  154.8699  135.4133  154.3189 H   0  0  0  0  0  0  0  0  0  0  0  0  # atno 10765 bound_to 10752
  140.0897  134.9048  157.1631 H   0  0  0  0  0  0  0  0  0  0  0  0  # atno 11005 bound_to 11000
  144.6892  140.3085  143.7252 LP  0  0  0  0  0  0  0  0  0  0  0  0  # atno 17320 bound_to 7965
  145.7617  139.1827  143.2263 LP  0  0  0  0  0  0  0  0  0  0  0  0  # atno 17321 bound_to 7965
  140.3084  144.3566  150.6040 LP  0  0  0  0  0  0  0  0  0  0  0  0  # atno 17342 bound_to 10162
  140.5818  143.2172  151.7414 LP  0  0  0  0  0  0  0  0  0  0  0  0  # atno 17343 bound_to 10162
  157.0242  130.9988  151.3331 LP  0  0  0  0  0  0  0  0  0  0  0  0  # atno 17370 bound_to 10713
  157.5323  130.8066  149.7931 LP  0  0  0  0  0  0  0  0  0  0  0  0  # atno 17371 bound_to 10713
  140.3370  134.2747  155.7218 LP  0  0  0  0  0  0  0  0  0  0  0  0  # atno 17394 bound_to 11000
  141.2074  133.7807  157.0122 LP  0  0  0  0  0  0  0  0  0  0  0  0  # atno 17395 bound_to 11000

$$$$
