AV-unprocessed.smi:741|AV-procd|sdf|3556|dock10
  -GOLD-   22720 0553D 1   1.00000     0.00000
 Structure written by MMmdl.
 43 44  0  0  0  0  0  0  0  0  3 V2000
  143.2024  136.9761  152.6438 C   0  0  0  0  0  0  0  0  0  0  0  0
  144.3956  136.0489  152.9174 C   0  0  0  0  0  0  0  0  0  0  0  0
  145.4441  136.0342  151.7884 C   0  0  2  0  0  0  0  0  0  0  0  0
  145.9410  134.5976  151.5113 C   0  0  0  0  0  0  0  0  0  0  0  0
  144.8354  133.6358  151.2817 N   0  3  0  0  0  0  0  0  0  0  0  0
  144.1077  133.8266  150.0051 C   0  0  0  0  0  0  0  0  0  0  0  0
  143.7979  132.4280  149.4530 C   0  0  0  0  0  0  0  0  0  0  0  0
  144.1225  131.4736  150.5984 C   0  0  0  0  0  0  0  0  0  0  0  0
  145.2192  132.2107  151.3582 C   0  0  0  0  0  0  0  0  0  0  0  0
  146.5613  136.9134  152.1433 N   0  0  0  0  0  0  0  0  0  0  0  0
  146.4707  138.0943  152.7729 C   0  0  0  0  0  0  0  0  0  0  0  0
  145.4009  138.6186  153.0794 O   0  0  0  0  0  0  0  0  0  0  0  0
  147.6867  138.6243  152.9921 N   0  0  0  0  0  0  0  0  0  0  0  0
  148.0202  139.8408  153.6493 C   0  0  0  0  0  0  0  0  0  0  0  0
  147.1177  140.9203  153.5219 C   0  0  0  0  0  0  0  0  0  0  0  0
  147.4127  142.1517  154.1420 C   0  0  0  0  0  0  0  0  0  0  0  0
  148.5574  142.2936  154.8437 N   0  3  0  0  0  0  0  0  0  0  0  0
  149.4572  141.2965  154.9818 C   0  0  0  0  0  0  0  0  0  0  0  0
  149.2165  140.0423  154.3843 C   0  0  0  0  0  0  0  0  0  0  0  0
  142.4711  136.9108  153.4496 H   0  0  0  0  0  0  0  0  0  0  0  0
  142.6974  136.7037  151.7165 H   0  0  0  0  0  0  0  0  0  0  0  0
  143.5110  138.0185  152.5649 H   0  0  0  0  0  0  0  0  0  0  0  0
  144.8670  136.3363  153.8582 H   0  0  0  0  0  0  0  0  0  0  0  0
  144.0166  135.0373  153.0671 H   0  0  0  0  0  0  0  0  0  0  0  0
  144.9512  136.4138  150.8915 H   0  0  0  0  0  0  0  0  0  0  0  0
  146.5807  134.6158  150.6272 H   0  0  0  0  0  0  0  0  0  0  0  0
  146.5647  134.2393  152.3318 H   0  0  0  0  0  0  0  0  0  0  0  0
  143.1942  134.3896  150.1984 H   0  0  0  0  0  0  0  0  0  0  0  0
  144.6989  134.3922  149.2831 H   0  0  0  0  0  0  0  0  0  0  0  0
  142.7676  132.3312  149.1100 H   0  0  0  0  0  0  0  0  0  0  0  0
  144.4500  132.2166  148.6045 H   0  0  0  0  0  0  0  0  0  0  0  0
  143.2481  131.3490  151.2386 H   0  0  0  0  0  0  0  0  0  0  0  0
  144.4332  130.4867  150.2542 H   0  0  0  0  0  0  0  0  0  0  0  0
  146.1772  132.0552  150.8593 H   0  0  0  0  0  0  0  0  0  0  0  0
  145.3155  131.8636  152.3867 H   0  0  0  0  0  0  0  0  0  0  0  0
  147.4850  136.5688  151.9241 H   0  0  0  0  0  0  0  0  0  0  0  0
  148.4683  138.1144  152.6066 H   0  0  0  0  0  0  0  0  0  0  0  0
  146.2026  140.8095  152.9580 H   0  0  0  0  0  0  0  0  0  0  0  0
  146.7738  143.0215  154.0957 H   0  0  0  0  0  0  0  0  0  0  0  0
  150.3410  141.5320  155.5568 H   0  0  0  0  0  0  0  0  0  0  0  0
  149.9607  139.2683  154.4912 H   0  0  0  0  0  0  0  0  0  0  0  0
  144.1520  133.7850  152.0104 H   0  0  0  0  0  0  0  0  0  0  0  0
  148.7534  143.1936  155.2831 H   0  0  0  0  0  0  0  0  0  0  0  0
  1  2  1  0  0  0  0
  1 20  1  0  0  0  0
  1 21  1  0  0  0  0
  1 22  1  0  0  0  0
  2  3  1  0  0  0  0
  2 23  1  0  0  0  0
  2 24  1  0  0  0  0
  3  4  1  0  0  0  0
  3 10  1  0  0  0  0
  3 25  1  0  0  0  0
  4  5  1  0  0  0  0
  4 26  1  0  0  0  0
  4 27  1  0  0  0  0
  5  9  1  0  0  0  0
  5  6  1  0  0  0  0
  5 42  1  0  0  0  0
  6  7  1  0  0  0  0
  6 28  1  0  0  0  0
  6 29  1  0  0  0  0
  7  8  1  0  0  0  0
  7 30  1  0  0  0  0
  7 31  1  0  0  0  0
  8  9  1  0  0  0  0
  8 32  1  0  0  0  0
  8 33  1  0  0  0  0
  9 34  1  0  0  0  0
  9 35  1  0  0  0  0
 10 11  1  0  0  0  0
 10 36  1  0  0  0  0
 11 12  2  0  0  0  0
 11 13  1  0  0  0  0
 13 14  1  0  0  0  0
 13 37  1  0  0  0  0
 14 19  1  0  0  0  0
 14 15  2  0  0  0  0
 15 16  1  0  0  0  0
 15 38  1  0  0  0  0
 16 17  2  0  0  0  0
 16 39  1  0  0  0  0
 17 18  1  0  0  0  0
 17 43  1  0  0  0  0
 18 19  2  0  0  0  0
 18 40  1  0  0  0  0
 19 41  1  0  0  0  0
M  CHG  1   5   1
M  CHG  1  17   1
M  END
> <s_m_source_file>
AV-unprocessed.smi

> <i_m_source_file_index>
741

> <i_lp_mmshare_version>
43012

> <i_f3d_flags>
0

> <s_epik_input>
W0NIMl0xW0NIMl1bQ0gyXVtDSDJdTjFbQ0gyXVtDQEBIXShbQ0gyXVtDSDNdKVtOSF1DKD1PKVtOSF1jMltjSF1bY0hdbltjSF1bY0hdMg==

> <s_epik_cmdline>
J2VwaWtfcHl0aG9uJywgJy1waCcsICc3LjAnLCAnLXRuJywgJzgnLCAnLW1hJywgJzIwMCcsICctbWV0YWxfYmluZGluZycsICctaW1hZScsICc8aW5maWxlLm1hZT4nLCAnLW9tYWUnLCAnPG91dGZpbGUubWFlPic=

> <r_epik_Ionization_Penalty>
1.10771

> <r_epik_Ionization_Penalty_Charging>
1.10769

> <r_epik_Ionization_Penalty_Neutral>
1.91663e-05

> <r_epik_State_Penalty>
1.16347

> <r_epik_Charging_Adjusted_Penalty>
2.27116

> <i_epik_Tot_Q>
2

> <i_epik_Tot_abs_Q>
2

> <r_epik_Metal_State_Penalty>
1.24871

> <b_epik_Metal_Only>
0

> <s_lp_Force_Field>
OPLS_2005

> <r_lp_Energy>
49.4114

> <b_lp_Chiralities_Consistent>
1

> <s_lp_Variant>
AV-unprocessed.smi:741-3

> <Gold.Version>
5.8.1

> <Gold.Id.Protein>
6NUR|6NUR_protein|mol2

> <Gold.PLP.Fitness>
43.5596

> <Gold.PLP.PLP>
-34.7620

> <Gold.PLP.part.hbond>
-3.8551

> <Gold.PLP.part.metal>
0.0000

> <Gold.PLP.part.buried>
-3.5697

> <Gold.PLP.part.nonpolar>
-32.9141

> <Gold.PLP.part.repulsive>
3.9412

> <Gold.PLP.ligand.clash>
0.0000

> <Gold.PLP.ligand.torsion>
1.1725

> <Gold.PLP.Chemscore.Hbond>
3.6930

> <Gold.PLP.Chemscore.CHOScore>
0.0000

> <Gold.PLP.Chemscore.Metal>
0.0000

> <Gold.Chemscore.Hbonds>
donor molecule, donor type, donor heavy atom, donor atom, acceptor molecule, acceptor atom, score
      L1  H    10    36       P1  7948  0.89
      L1  H    13    37       P1  7948  0.78
      L1  H    17    43       P1  8028  2.00

> <Gold.PLP.Chemscore.Internal.Correction>
0.0636

> <Gold.Rescore>
     Score         DG    S(hbond)    S(metal)    S(lipo)     H(rot)  DE(clash)    DE(int)     intcor
     14.25     -21.29       2.82        0.00      90.19       1.63       1.86       5.18       ----

> <Gold.Chemscore.Fitness>
14.2497

> <Gold.Chemscore.DG>
-21.2912

> <Gold.Chemscore.ZeroCoef>
-5.4800

> <Gold.Chemscore.Hbond>
2.8207

> <Gold.Chemscore.Metal>
0.0000

> <Gold.Chemscore.Lipo>
90.1924

> <Gold.Chemscore.Internal_Hbond>
0.0000

> <Gold.Chemscore.DEClash>
1.8605

> <Gold.Chemscore.DEInternal>
5.1811

> <Gold.Chemscore.Rot>
1.6260

> <Gold.Chemscore.Internal.Correction>
   9.000000E+99

> <Gold.Chemscore.Hbonds>
donor molecule, donor type, donor heavy atom, donor atom, acceptor molecule, acceptor atom, score
      L1  H    10    36       P1  7948  0.86
      L1  H    13    37       P1  7948  0.75
      L1  H    17    43       P1  8028  0.97

> <Gold.Chemscore.Hbond.Weighted>
-9.4213

> <Gold.Chemscore.Metal.Weighted>
-0.0000

> <Gold.Chemscore.Lipo.Weighted>
-10.5525

> <Gold.Chemscore.Internal_Hbond.Weighted>
0.0000

> <Gold.Chemscore.DEClash.Weighted>
1.8605

> <Gold.Chemscore.DEInternal.Weighted>
5.1811

> <Gold.Chemscore.Rot.Weighted>
4.1626

> <Gold.Chemscore.Internal.Correction.Weighted>
   9.000000E+99

> <Gold.Protein.RotatedTorsions>
[ 6907 6896 6895 6894 ] final  -41.02 input  -60.11 | X-H torsion
[ 7974 7965 7964 7962 ] final   -0.81 input  175.53 | X-H torsion
[ 8008 7997 7996 7995 ] final -126.19 input   59.86 | X-H torsion
[ 10167 10162 10161 10158 ] final  -57.21 input  -65.29 | X-H torsion
[ 10718 10713 10712 10709 ] final  -26.78 input   66.30 | X-H torsion
[ 10763 10752 10751 10750 ] final  -14.50 input  -60.55 | X-H torsion
[ 11005 11000 10999 10996 ] final  -74.11 input  -57.11 | X-H torsion

> <Gold.Protein.ActiveResidues>
 VAL166  LYS551  ARG553  GLY616  TRP617  ASP618  TYR619  PRO620  LYS621  CYS622 
 ASP623  PHE694  ASN695  SER759  ASP760  ASP761  ALA762  ILE779  LEU786  VAL792 
 PHE793  MET794  SER795  GLU796  ALA797  LYS798  CYS799  TRP800  GLU811  SER814 

> <Gold.Protein.RotatedAtoms>
  150.9716  134.9087  159.7790 H   0  0  0  0  0  0  0  0  0  0  0  0  # atno 6907 bound_to 6896
  152.5192  134.3534  159.9269 H   0  0  0  0  0  0  0  0  0  0  0  0  # atno 6908 bound_to 6896
  151.3543  133.3873  159.2718 H   0  0  0  0  0  0  0  0  0  0  0  0  # atno 6909 bound_to 6896
  146.2423  140.1326  142.8337 H   0  0  0  0  0  0  0  0  0  0  0  0  # atno 7974 bound_to 7965
  155.2256  140.0423  157.2955 H   0  0  0  0  0  0  0  0  0  0  0  0  # atno 8008 bound_to 7997
  154.5921  140.2429  155.7877 H   0  0  0  0  0  0  0  0  0  0  0  0  # atno 8009 bound_to 7997
  156.2266  140.2952  156.0091 H   0  0  0  0  0  0  0  0  0  0  0  0  # atno 8010 bound_to 7997
  140.6271  143.2443  151.5335 H   0  0  0  0  0  0  0  0  0  0  0  0  # atno 10167 bound_to 10162
  156.4467  130.4475  149.7017 H   0  0  0  0  0  0  0  0  0  0  0  0  # atno 10718 bound_to 10713
  153.5292  135.7015  153.5692 H   0  0  0  0  0  0  0  0  0  0  0  0  # atno 10763 bound_to 10752
  153.3707  135.3945  155.1786 H   0  0  0  0  0  0  0  0  0  0  0  0  # atno 10764 bound_to 10752
  154.8686  135.3811  154.4788 H   0  0  0  0  0  0  0  0  0  0  0  0  # atno 10765 bound_to 10752
  141.1631  133.6900  156.7315 H   0  0  0  0  0  0  0  0  0  0  0  0  # atno 11005 bound_to 11000
  145.0313  140.8873  143.5108 LP  0  0  0  0  0  0  0  0  0  0  0  0  # atno 17320 bound_to 7965
  145.1391  139.2583  143.5499 LP  0  0  0  0  0  0  0  0  0  0  0  0  # atno 17321 bound_to 7965
  139.5490  144.2445  152.1496 LP  0  0  0  0  0  0  0  0  0  0  0  0  # atno 17342 bound_to 10162
  140.1679  144.4963  150.6595 LP  0  0  0  0  0  0  0  0  0  0  0  0  # atno 17343 bound_to 10162
  156.3859  130.7603  151.2600 LP  0  0  0  0  0  0  0  0  0  0  0  0  # atno 17370 bound_to 10713
  157.7504  131.0282  150.4038 LP  0  0  0  0  0  0  0  0  0  0  0  0  # atno 17371 bound_to 10713
  140.2741  134.8368  157.3874 LP  0  0  0  0  0  0  0  0  0  0  0  0  # atno 17394 bound_to 11000
  140.1493  134.4870  155.7973 LP  0  0  0  0  0  0  0  0  0  0  0  0  # atno 17395 bound_to 11000

$$$$
