AV-unprocessed.smi:2032|AV-procd|sdf|8235|dock10
  -GOLD-   2272010503D 1   1.00000     0.00000
 Structure written by MMmdl.
 42 43  0  0  0  0  0  0  0  0  1 V2000
  151.0218  142.2433  156.1831 C   0  0  0  0  0  0  0  0  0  0  0  0
  150.3544  140.9031  155.8566 C   0  0  1  0  0  0  0  0  0  0  0  0
  149.2049  141.0590  154.8446 C   0  0  0  0  0  0  0  0  0  0  0  0
  148.6056  139.7774  154.4598 N   0  0  0  0  0  0  0  0  0  0  0  0
  147.4841  139.9314  153.5021 C   0  0  2  0  0  0  0  0  0  0  0  0
  146.7864  141.3115  153.6111 C   0  0  0  0  0  0  0  0  0  0  0  0
  146.4168  138.8071  153.6330 C   0  0  0  0  0  0  0  0  0  0  0  0
  146.6687  137.6647  152.7566 N   0  0  0  0  0  0  0  0  0  0  0  0
  145.7689  136.7302  152.4151 C   0  0  0  0  0  0  0  0  0  0  0  0
  144.5989  136.7381  152.7983 O   0  0  0  0  0  0  0  0  0  0  0  0
  146.3138  135.8042  151.6067 N   0  0  0  0  0  0  0  0  0  0  0  0
  145.6923  134.6617  151.0369 C   0  0  0  0  0  0  0  0  0  0  0  0
  144.3764  134.5463  150.8225 N   0  0  0  0  0  0  0  0  0  0  0  0
  144.0438  133.3153  150.2517 C   0  0  0  0  0  0  0  0  0  0  0  0
  145.1268  132.5000  150.0355 C   0  0  0  0  0  0  0  0  0  0  0  0
  146.6164  133.2501  150.5445 S   0  0  0  0  0  0  0  0  0  0  0  0
  149.6759  138.9146  153.9452 C   0  0  0  0  0  0  0  0  0  0  0  0
  150.8661  138.7589  154.9125 C   0  0  2  0  0  0  0  0  0  0  0  0
  150.5587  137.8512  156.1161 C   0  0  0  0  0  0  0  0  0  0  0  0
  151.3477  140.0375  155.3188 O   0  0  0  0  0  0  0  0  0  0  0  0
  150.3058  142.9453  156.6110 H   0  0  0  0  0  0  0  0  0  0  0  0
  151.4467  142.7007  155.2891 H   0  0  0  0  0  0  0  0  0  0  0  0
  151.8285  142.1109  156.9045 H   0  0  0  0  0  0  0  0  0  0  0  0
  149.9678  140.4813  156.7847 H   0  0  0  0  0  0  0  0  0  0  0  0
  148.4636  141.7045  155.3116 H   0  0  0  0  0  0  0  0  0  0  0  0
  149.5645  141.5796  153.9558 H   0  0  0  0  0  0  0  0  0  0  0  0
  147.8938  139.8646  152.4929 H   0  0  0  0  0  0  0  0  0  0  0  0
  145.9449  141.4078  152.9268 H   0  0  0  0  0  0  0  0  0  0  0  0
  147.4492  142.1351  153.3506 H   0  0  0  0  0  0  0  0  0  0  0  0
  146.4096  141.4843  154.6197 H   0  0  0  0  0  0  0  0  0  0  0  0
  146.4161  138.3815  154.6345 H   0  0  0  0  0  0  0  0  0  0  0  0
  145.4188  139.2203  153.4754 H   0  0  0  0  0  0  0  0  0  0  0  0
  147.6048  137.5771  152.3896 H   0  0  0  0  0  0  0  0  0  0  0  0
  147.2880  135.9286  151.3741 H   0  0  0  0  0  0  0  0  0  0  0  0
  143.0084  133.1019  150.0314 H   0  0  0  0  0  0  0  0  0  0  0  0
  145.1379  131.5077  149.6101 H   0  0  0  0  0  0  0  0  0  0  0  0
  149.3042  137.9138  153.7355 H   0  0  0  0  0  0  0  0  0  0  0  0
  150.0396  139.3176  152.9987 H   0  0  0  0  0  0  0  0  0  0  0  0
  151.6824  138.2893  154.3630 H   0  0  0  0  0  0  0  0  0  0  0  0
  150.3217  136.8392  155.7872 H   0  0  0  0  0  0  0  0  0  0  0  0
  149.7087  138.2108  156.6957 H   0  0  0  0  0  0  0  0  0  0  0  0
  151.4172  137.7880  156.7847 H   0  0  0  0  0  0  0  0  0  0  0  0
  1  2  1  0  0  0  0
  1 21  1  0  0  0  0
  1 22  1  0  0  0  0
  1 23  1  0  0  0  0
  2 20  1  0  0  0  0
  2  3  1  0  0  0  0
  2 24  1  0  0  0  0
  3  4  1  0  0  0  0
  3 25  1  0  0  0  0
  3 26  1  0  0  0  0
  4  5  1  0  0  0  0
  4 17  1  0  0  0  0
  5  6  1  0  0  0  0
  5  7  1  0  0  0  0
  5 27  1  0  0  0  0
  6 28  1  0  0  0  0
  6 29  1  0  0  0  0
  6 30  1  0  0  0  0
  7  8  1  0  0  0  0
  7 31  1  0  0  0  0
  7 32  1  0  0  0  0
  8  9  1  0  0  0  0
  8 33  1  0  0  0  0
  9 10  2  0  0  0  0
  9 11  1  0  0  0  0
 11 12  1  0  0  0  0
 11 34  1  0  0  0  0
 12 16  1  0  0  0  0
 12 13  2  0  0  0  0
 13 14  1  0  0  0  0
 14 15  2  0  0  0  0
 14 35  1  0  0  0  0
 15 16  1  0  0  0  0
 15 36  1  0  0  0  0
 17 18  1  0  0  0  0
 17 37  1  0  0  0  0
 17 38  1  0  0  0  0
 18 19  1  0  0  0  0
 18 20  1  0  0  0  0
 18 39  1  0  0  0  0
 19 40  1  0  0  0  0
 19 41  1  0  0  0  0
 19 42  1  0  0  0  0
M  END
> <s_m_source_file>
AV-unprocessed.smi

> <i_m_source_file_index>
2032

> <i_lp_mmshare_version>
43012

> <i_f3d_flags>
0

> <s_epik_input>
W0NIM11bQ0BASF0xW0NIMl1OKFtDSDJdW0NASF0oTzEpW0NIM10pW0NASF0oW0NIM10pW0NIMl1bTkhdQyg9TylbTkhdYzJuW2NIXVtjSF1zMg==

> <s_epik_cmdline>
J2VwaWtfcHl0aG9uJywgJy1waCcsICc3LjAnLCAnLXRuJywgJzgnLCAnLW1hJywgJzIwMCcsICctbWV0YWxfYmluZGluZycsICctaW1hZScsICc8aW5maWxlLm1hZT4nLCAnLW9tYWUnLCAnPG91dGZpbGUubWFlPic=

> <r_lp_tautomer_probability>
0.999

> <r_epik_Ionization_Penalty>
0.219202

> <r_epik_Ionization_Penalty_Charging>
0

> <r_epik_Ionization_Penalty_Neutral>
0.219202

> <r_epik_State_Penalty>
0.209349

> <r_epik_Charging_Adjusted_Penalty>
0.209349

> <i_epik_Tot_Q>
0

> <i_epik_Tot_abs_Q>
0

> <r_epik_Metal_State_Penalty>
0.247737

> <b_epik_Metal_Only>
0

> <s_lp_Force_Field>
OPLS_2005

> <r_lp_Energy>
29.5908

> <b_lp_Chiralities_Consistent>
1

> <s_lp_Variant>
AV-unprocessed.smi:2032-5

> <Gold.Version>
5.8.1

> <Gold.Id.Protein>
6NUR|6NUR_protein|mol2

> <Gold.PLP.Fitness>
40.7679

> <Gold.PLP.PLP>
-32.9538

> <Gold.PLP.part.hbond>
-3.0000

> <Gold.PLP.part.metal>
0.0000

> <Gold.PLP.part.buried>
-5.1333

> <Gold.PLP.part.nonpolar>
-25.6491

> <Gold.PLP.part.repulsive>
0.5964

> <Gold.PLP.ligand.clash>
0.8432

> <Gold.PLP.ligand.torsion>
1.4800

> <Gold.PLP.Chemscore.Hbond>
2.8640

> <Gold.PLP.Chemscore.CHOScore>
1.0000

> <Gold.PLP.Chemscore.Metal>
0.0000

> <Gold.Chemscore.Hbonds>
donor molecule, donor type, donor heavy atom, donor atom, acceptor molecule, acceptor atom, score
      L1  H     8    33       P1  7948  0.86
      L1  H    11    34       P1  7948  1.00
      P1  H  7989  7998       L1    20  1.00
      L1  C    14    35       P1 10186  1.00

> <Gold.PLP.Chemscore.Internal.Correction>
0.0254

> <Gold.Rescore>
     Score         DG    S(hbond)    S(metal)    S(lipo)     H(rot)  DE(clash)    DE(int)     intcor
     15.66     -18.55       2.16        0.00      84.44       1.57       0.23       2.66       ----

> <Gold.Chemscore.Fitness>
15.6567

> <Gold.Chemscore.DG>
-18.5521

> <Gold.Chemscore.ZeroCoef>
-5.4800

> <Gold.Chemscore.Hbond>
2.1630

> <Gold.Chemscore.Metal>
0.0000

> <Gold.Chemscore.Lipo>
84.4416

> <Gold.Chemscore.Internal_Hbond>
0.0000

> <Gold.Chemscore.DEClash>
0.2338

> <Gold.Chemscore.DEInternal>
2.6616

> <Gold.Chemscore.Rot>
1.5750

> <Gold.Chemscore.Internal.Correction>
   9.000000E+99

> <Gold.Chemscore.Hbonds>
donor molecule, donor type, donor heavy atom, donor atom, acceptor molecule, acceptor atom, score
      L1  H     8    33       P1  7948  0.84
      L1  H    11    34       P1  7948  0.96
      P1  H  7989  7998       L1    20  0.07

> <Gold.Chemscore.Hbond.Weighted>
-7.2243

> <Gold.Chemscore.Metal.Weighted>
-0.0000

> <Gold.Chemscore.Lipo.Weighted>
-9.8797

> <Gold.Chemscore.Internal_Hbond.Weighted>
0.0000

> <Gold.Chemscore.DEClash.Weighted>
0.2338

> <Gold.Chemscore.DEInternal.Weighted>
2.6616

> <Gold.Chemscore.Rot.Weighted>
4.0319

> <Gold.Chemscore.Internal.Correction.Weighted>
   9.000000E+99

> <Gold.Protein.RotatedTorsions>
[ 6907 6896 6895 6894 ] final  148.90 input  -60.11 | X-H torsion
[ 7974 7965 7964 7962 ] final  -65.70 input  175.53 | X-H torsion
[ 8008 7997 7996 7995 ] final  127.94 input   59.86 | X-H torsion
[ 10167 10162 10161 10158 ] final -128.47 input  -65.29 | X-H torsion
[ 10718 10713 10712 10709 ] final  171.69 input   66.30 | X-H torsion
[ 10763 10752 10751 10750 ] final -149.45 input  -60.55 | X-H torsion
[ 11005 11000 10999 10996 ] final  158.38 input  -57.11 | X-H torsion

> <Gold.Protein.ActiveResidues>
 VAL166  LYS551  ARG553  GLY616  TRP617  ASP618  TYR619  PRO620  LYS621  CYS622 
 ASP623  PHE694  ASN695  SER759  ASP760  ASP761  ALA762  ILE779  LEU786  VAL792 
 PHE793  MET794  SER795  GLU796  ALA797  LYS798  CYS799  TRP800  GLU811  SER814 

> <Gold.Protein.RotatedAtoms>
  152.1353  133.4431  159.4740 H   0  0  0  0  0  0  0  0  0  0  0  0  # atno 6907 bound_to 6896
  150.6881  134.2372  159.4467 H   0  0  0  0  0  0  0  0  0  0  0  0  # atno 6908 bound_to 6896
  152.0258  134.9796  160.0622 H   0  0  0  0  0  0  0  0  0  0  0  0  # atno 6909 bound_to 6896
  145.7510  140.8908  143.0480 H   0  0  0  0  0  0  0  0  0  0  0  0  # atno 7974 bound_to 7965
  156.2903  140.2656  156.2355 H   0  0  0  0  0  0  0  0  0  0  0  0  # atno 8008 bound_to 7997
  155.0029  140.0387  157.2386 H   0  0  0  0  0  0  0  0  0  0  0  0  # atno 8009 bound_to 7997
  154.7585  140.2756  155.6238 H   0  0  0  0  0  0  0  0  0  0  0  0  # atno 8010 bound_to 7997
  139.9500  143.6067  152.2478 H   0  0  0  0  0  0  0  0  0  0  0  0  # atno 10167 bound_to 10162
  156.9899  131.0144  151.2859 H   0  0  0  0  0  0  0  0  0  0  0  0  # atno 10718 bound_to 10713
  154.8176  135.3309  154.7131 H   0  0  0  0  0  0  0  0  0  0  0  0  # atno 10763 bound_to 10752
  153.7769  135.6921  153.4900 H   0  0  0  0  0  0  0  0  0  0  0  0  # atno 10764 bound_to 10752
  153.2006  135.4517  155.0210 H   0  0  0  0  0  0  0  0  0  0  0  0  # atno 10765 bound_to 10752
  140.1860  134.8442  157.2857 H   0  0  0  0  0  0  0  0  0  0  0  0  # atno 11005 bound_to 11000
  144.6850  139.9591  143.7480 LP  0  0  0  0  0  0  0  0  0  0  0  0  # atno 17320 bound_to 7965
  146.0357  139.3375  143.0728 LP  0  0  0  0  0  0  0  0  0  0  0  0  # atno 17321 bound_to 7965
  139.6636  144.7662  151.1915 LP  0  0  0  0  0  0  0  0  0  0  0  0  # atno 17342 bound_to 10162
  140.7586  143.5972  150.8736 LP  0  0  0  0  0  0  0  0  0  0  0  0  # atno 17343 bound_to 10162
  157.5466  130.8155  149.8093 LP  0  0  0  0  0  0  0  0  0  0  0  0  # atno 17370 bound_to 10713
  156.0211  130.3795  150.1959 LP  0  0  0  0  0  0  0  0  0  0  0  0  # atno 17371 bound_to 10713
  140.2213  134.4019  155.7564 LP  0  0  0  0  0  0  0  0  0  0  0  0  # atno 17394 bound_to 11000
  141.2225  133.7167  156.8495 LP  0  0  0  0  0  0  0  0  0  0  0  0  # atno 17395 bound_to 11000

$$$$
