AV-unprocessed.smi:3287|AV-procd|sdf|12590|dock4
  -GOLD-   2272018513D 1   1.00000     0.00000
 Structure written by MMmdl.
 43 44  0  0  0  0  0  0  0  0  2 V2000
  152.6146  143.8127  161.8453 C   0  0  0  0  0  0  0  0  0  0  0  0
  152.4575  143.6289  160.3253 C   0  0  2  0  0  0  0  0  0  0  0  0
  151.3616  144.5757  159.7954 C   0  0  0  0  0  0  0  0  0  0  0  0
  151.1676  144.4402  158.2792 C   0  0  0  0  0  0  0  0  0  0  0  0
  150.8304  142.9927  157.8909 C   0  0  1  0  0  0  0  0  0  0  0  0
  150.6597  142.8956  156.4244 N   0  3  0  0  0  0  0  0  0  0  0  0
  150.3821  141.5375  155.9086 C   0  0  0  0  0  0  0  0  0  0  0  0
  149.7132  141.5872  154.5237 C   0  0  2  0  0  0  0  0  0  0  0  0
  148.9481  142.7731  154.4273 O   0  0  0  0  0  0  0  0  0  0  0  0
  148.8658  140.3484  154.2803 C   0  0  0  0  0  0  0  0  0  0  0  0
  149.4374  139.0618  154.3684 C   0  0  0  0  0  0  0  0  0  0  0  0
  148.6129  137.9410  154.1432 C   0  0  0  0  0  0  0  0  0  0  0  0
  147.2987  138.0348  153.8482 N   0  0  0  0  0  0  0  0  0  0  0  0
  146.7557  139.2680  153.7668 C   0  0  0  0  0  0  0  0  0  0  0  0
  147.4913  140.4519  153.9743 C   0  0  0  0  0  0  0  0  0  0  0  0
  151.9347  142.0443  158.3986 C   0  0  0  0  0  0  0  0  0  0  0  0
  152.1532  142.1616  159.9222 C   0  0  1  0  0  0  0  0  0  0  0  0
  153.2502  141.1784  160.3693 C   0  0  0  0  0  0  0  0  0  0  0  0
  151.7288  143.4685  162.3797 H   0  0  0  0  0  0  0  0  0  0  0  0
  152.7661  144.8625  162.0986 H   0  0  0  0  0  0  0  0  0  0  0  0
  153.4749  143.2680  162.2333 H   0  0  0  0  0  0  0  0  0  0  0  0
  153.4004  143.9205  159.8599 H   0  0  0  0  0  0  0  0  0  0  0  0
  150.4178  144.3667  160.3013 H   0  0  0  0  0  0  0  0  0  0  0  0
  151.6147  145.6093  160.0347 H   0  0  0  0  0  0  0  0  0  0  0  0
  150.3714  145.1105  157.9527 H   0  0  0  0  0  0  0  0  0  0  0  0
  152.0746  144.7639  157.7662 H   0  0  0  0  0  0  0  0  0  0  0  0
  149.8831  142.7278  158.3638 H   0  0  0  0  0  0  0  0  0  0  0  0
  149.8692  143.4709  156.1702 H   0  0  0  0  0  0  0  0  0  0  0  0
  151.3189  140.9848  155.8355 H   0  0  0  0  0  0  0  0  0  0  0  0
  149.7476  140.9996  156.6148 H   0  0  0  0  0  0  0  0  0  0  0  0
  150.4842  141.6347  153.7531 H   0  0  0  0  0  0  0  0  0  0  0  0
  148.7264  143.0585  155.3012 H   0  0  0  0  0  0  0  0  0  0  0  0
  150.4835  138.9299  154.6030 H   0  0  0  0  0  0  0  0  0  0  0  0
  149.0198  136.9424  154.2031 H   0  0  0  0  0  0  0  0  0  0  0  0
  145.7027  139.3132  153.5312 H   0  0  0  0  0  0  0  0  0  0  0  0
  147.0063  141.4144  153.9002 H   0  0  0  0  0  0  0  0  0  0  0  0
  151.6817  141.0121  158.1562 H   0  0  0  0  0  0  0  0  0  0  0  0
  152.8697  142.2604  157.8794 H   0  0  0  0  0  0  0  0  0  0  0  0
  151.2257  141.8614  160.4125 H   0  0  0  0  0  0  0  0  0  0  0  0
  154.2258  141.4664  159.9765 H   0  0  0  0  0  0  0  0  0  0  0  0
  153.0376  140.1683  160.0183 H   0  0  0  0  0  0  0  0  0  0  0  0
  153.3277  141.1242  161.4547 H   0  0  0  0  0  0  0  0  0  0  0  0
  151.4823  143.2665  155.9710 H   0  0  0  0  0  0  0  0  0  0  0  0
  1  2  1  0  0  0  0
  1 19  1  0  0  0  0
  1 20  1  0  0  0  0
  1 21  1  0  0  0  0
  2 17  1  0  0  0  0
  2  3  1  0  0  0  0
  2 22  1  0  0  0  0
  3  4  1  0  0  0  0
  3 23  1  0  0  0  0
  3 24  1  0  0  0  0
  4  5  1  0  0  0  0
  4 25  1  0  0  0  0
  4 26  1  0  0  0  0
  5  6  1  0  0  0  0
  5 16  1  0  0  0  0
  5 27  1  0  0  0  0
  6  7  1  0  0  0  0
  6 28  1  0  0  0  0
  6 43  1  0  0  0  0
  7  8  1  0  0  0  0
  7 29  1  0  0  0  0
  7 30  1  0  0  0  0
  8  9  1  0  0  0  0
  8 10  1  0  0  0  0
  8 31  1  0  0  0  0
  9 32  1  0  0  0  0
 10 15  1  0  0  0  0
 10 11  2  0  0  0  0
 11 12  1  0  0  0  0
 11 33  1  0  0  0  0
 12 13  2  0  0  0  0
 12 34  1  0  0  0  0
 13 14  1  0  0  0  0
 14 15  2  0  0  0  0
 14 35  1  0  0  0  0
 15 36  1  0  0  0  0
 16 17  1  0  0  0  0
 16 37  1  0  0  0  0
 16 38  1  0  0  0  0
 17 18  1  0  0  0  0
 17 39  1  0  0  0  0
 18 40  1  0  0  0  0
 18 41  1  0  0  0  0
 18 42  1  0  0  0  0
M  CHG  1   6   1
M  END
> <s_m_source_file>
AV-unprocessed.smi

> <i_m_source_file_index>
3287

> <i_lp_mmshare_version>
43012

> <i_f3d_flags>
0

> <s_epik_input>
W0NIM11bQ0BASF0xW0NIMl1bQ0gyXVtDQEhdKFtDSDJdW0NASF0xW0NIM10pW05IXVtDSDJdW0NASF0oW09IXSljMltjSF1bY0hdbltjSF1bY0hdMg==

> <s_epik_cmdline>
J2VwaWtfcHl0aG9uJywgJy1waCcsICc3LjAnLCAnLXRuJywgJzgnLCAnLW1hJywgJzIwMCcsICctbWV0YWxfYmluZGluZycsICctaW1hZScsICc8aW5maWxlLm1hZT4nLCAnLW9tYWUnLCAnPG91dGZpbGUubWFlPic=

> <r_lp_tautomer_probability>
1

> <r_epik_Ionization_Penalty>
0.00537262

> <r_epik_Ionization_Penalty_Charging>
0.00321624

> <r_epik_Ionization_Penalty_Neutral>
0.00215638

> <r_epik_State_Penalty>
-0

> <r_epik_Charging_Adjusted_Penalty>
0.00321624

> <i_epik_Tot_Q>
1

> <i_epik_Tot_abs_Q>
1

> <r_epik_Metal_State_Penalty>
-0

> <b_epik_Metal_Only>
0

> <s_lp_Force_Field>
OPLS_2005

> <r_lp_Energy>
16.0387

> <b_lp_Chiralities_Consistent>
1

> <s_lp_Variant>
AV-unprocessed.smi:3287-1

> <Gold.Version>
5.8.1

> <Gold.Id.Protein>
6NUR|6NUR_protein|mol2

> <Gold.PLP.Fitness>
49.5581

> <Gold.PLP.PLP>
-36.6483

> <Gold.PLP.part.hbond>
-1.8541

> <Gold.PLP.part.metal>
0.0000

> <Gold.PLP.part.buried>
-0.4933

> <Gold.PLP.part.nonpolar>
-33.3067

> <Gold.PLP.part.repulsive>
0.2353

> <Gold.PLP.ligand.clash>
0.0000

> <Gold.PLP.ligand.torsion>
0.4653

> <Gold.PLP.Chemscore.Hbond>
3.0458

> <Gold.PLP.Chemscore.CHOScore>
1.5608

> <Gold.PLP.Chemscore.Metal>
0.0000

> <Gold.Chemscore.Hbonds>
donor molecule, donor type, donor heavy atom, donor atom, acceptor molecule, acceptor atom, score
      L1  H     6    28       P1  8028  2.00
      L1  H     9    32       P1  8028  0.34
      P1  H  8022  8030       L1     9  0.38
      L1  C    12    34       P1  7948  0.44
      L1  C    14    35       P1 10175  0.93

> <Gold.PLP.Chemscore.Internal.Correction>
0.0209

> <Gold.Rescore>
     Score         DG    S(hbond)    S(metal)    S(lipo)     H(rot)  DE(clash)    DE(int)     intcor
     19.66     -20.48       1.63        0.00     123.31       1.90       0.29       0.52       ----

> <Gold.Chemscore.Fitness>
19.6606

> <Gold.Chemscore.DG>
-20.4762

> <Gold.Chemscore.ZeroCoef>
-5.4800

> <Gold.Chemscore.Hbond>
1.6294

> <Gold.Chemscore.Metal>
0.0000

> <Gold.Chemscore.Lipo>
123.3066

> <Gold.Chemscore.Internal_Hbond>
0.0000

> <Gold.Chemscore.DEClash>
0.2915

> <Gold.Chemscore.DEInternal>
0.5240

> <Gold.Chemscore.Rot>
1.9035

> <Gold.Chemscore.Internal.Correction>
   9.000000E+99

> <Gold.Chemscore.Hbonds>
donor molecule, donor type, donor heavy atom, donor atom, acceptor molecule, acceptor atom, score
      L1  H     6    28       P1  8028  1.00
      L1  H     9    32       P1  8028  0.34
      P1  H  8022  8030       L1     9  0.03

> <Gold.Chemscore.Hbond.Weighted>
-5.4422

> <Gold.Chemscore.Metal.Weighted>
-0.0000

> <Gold.Chemscore.Lipo.Weighted>
-14.4269

> <Gold.Chemscore.Internal_Hbond.Weighted>
0.0000

> <Gold.Chemscore.DEClash.Weighted>
0.2915

> <Gold.Chemscore.DEInternal.Weighted>
0.5240

> <Gold.Chemscore.Rot.Weighted>
4.8729

> <Gold.Chemscore.Internal.Correction.Weighted>
   9.000000E+99

> <Gold.Protein.RotatedTorsions>
[ 6907 6896 6895 6894 ] final   -6.53 input  -60.11 | X-H torsion
[ 7974 7965 7964 7962 ] final   -5.15 input  175.53 | X-H torsion
[ 8008 7997 7996 7995 ] final -112.70 input   59.86 | X-H torsion
[ 10167 10162 10161 10158 ] final -157.29 input  -65.29 | X-H torsion
[ 10718 10713 10712 10709 ] final -121.29 input   66.30 | X-H torsion
[ 10763 10752 10751 10750 ] final  -41.05 input  -60.55 | X-H torsion
[ 11005 11000 10999 10996 ] final -156.17 input  -57.11 | X-H torsion

> <Gold.Protein.ActiveResidues>
 VAL166  LYS551  ARG553  GLY616  TRP617  ASP618  TYR619  PRO620  LYS621  CYS622 
 ASP623  PHE694  ASN695  SER759  ASP760  ASP761  ALA762  ILE779  LEU786  VAL792 
 PHE793  MET794  SER795  GLU796  ALA797  LYS798  CYS799  TRP800  GLU811  SER814 

> <Gold.Protein.RotatedAtoms>
  151.4641  135.1040  159.9732 H   0  0  0  0  0  0  0  0  0  0  0  0  # atno 6907 bound_to 6896
  152.4842  133.8326  159.7121 H   0  0  0  0  0  0  0  0  0  0  0  0  # atno 6908 bound_to 6896
  150.8937  133.7149  159.2924 H   0  0  0  0  0  0  0  0  0  0  0  0  # atno 6909 bound_to 6896
  146.2358  140.1977  142.8333 H   0  0  0  0  0  0  0  0  0  0  0  0  # atno 7974 bound_to 7965
  155.0093  140.0393  157.2392 H   0  0  0  0  0  0  0  0  0  0  0  0  # atno 8008 bound_to 7997
  154.7474  140.2760  155.6298 H   0  0  0  0  0  0  0  0  0  0  0  0  # atno 8009 bound_to 7997
  156.2878  140.2653  156.2219 H   0  0  0  0  0  0  0  0  0  0  0  0  # atno 8010 bound_to 7997
  139.6782  143.9627  152.2322 H   0  0  0  0  0  0  0  0  0  0  0  0  # atno 10167 bound_to 10162
  156.1325  130.6406  150.9644 H   0  0  0  0  0  0  0  0  0  0  0  0  # atno 10718 bound_to 10713
  153.9562  135.6745  153.4744 H   0  0  0  0  0  0  0  0  0  0  0  0  # atno 10763 bound_to 10752
  153.0860  135.4898  154.8595 H   0  0  0  0  0  0  0  0  0  0  0  0  # atno 10764 bound_to 10752
  154.7298  135.3135  154.8870 H   0  0  0  0  0  0  0  0  0  0  0  0  # atno 10765 bound_to 10752
  140.6785  134.4171  157.5228 H   0  0  0  0  0  0  0  0  0  0  0  0  # atno 11005 bound_to 11000
  144.9807  140.8456  143.5399 LP  0  0  0  0  0  0  0  0  0  0  0  0  # atno 17320 bound_to 7965
  145.1970  139.2271  143.5213 LP  0  0  0  0  0  0  0  0  0  0  0  0  # atno 17321 bound_to 7965
  139.9409  144.6682  150.8267 LP  0  0  0  0  0  0  0  0  0  0  0  0  # atno 17342 bound_to 10162
  140.7643  143.3245  151.2547 LP  0  0  0  0  0  0  0  0  0  0  0  0  # atno 17343 bound_to 10162
  157.6502  131.0898  150.8067 LP  0  0  0  0  0  0  0  0  0  0  0  0  # atno 17370 bound_to 10713
  156.8151  130.4965  149.5350 LP  0  0  0  0  0  0  0  0  0  0  0  0  # atno 17371 bound_to 10713
  139.8959  134.8672  156.2110 LP  0  0  0  0  0  0  0  0  0  0  0  0  # atno 17394 bound_to 11000
  141.0337  133.6975  156.1474 LP  0  0  0  0  0  0  0  0  0  0  0  0  # atno 17395 bound_to 11000

$$$$
