AV-unprocessed.smi:3056|AV-procd|sdf|11654|dock2
  -GOLD-   2272017 53D 1   1.00000     0.00000
 Structure written by MMmdl.
 47 48  0  0  0  0  0  0  0  0  1 V2000
  152.6329  143.4110  159.0644 C   0  0  0  0  0  0  0  0  0  0  0  0
  151.8561  142.2955  158.4265 C   0  0  0  0  0  0  0  0  0  0  0  0
  150.9553  142.3773  157.3278 C   0  0  0  0  0  0  0  0  0  0  0  0
  150.4344  141.2064  157.0014 N   0  0  0  0  0  0  0  0  0  0  0  0
  150.9765  140.3346  157.8819 N   0  0  0  0  0  0  0  0  0  0  0  0
  150.6494  138.9131  157.8127 C   0  0  1  0  0  0  0  0  0  0  0  0
  150.9086  138.3821  156.3892 C   0  0  0  0  0  0  0  0  0  0  0  0
  151.3988  138.1114  158.9114 C   0  0  2  0  0  0  0  0  0  0  0  0
  152.8761  137.8430  158.5650 C   0  0  0  0  0  0  0  0  0  0  0  0
  150.7321  136.8223  159.0797 N   0  0  0  0  0  0  0  0  0  0  0  0
  149.5048  136.9133  159.8826 C   0  0  0  0  0  0  0  0  0  0  0  0
  148.6131  135.6662  159.7601 C   0  0  0  0  0  0  0  0  0  0  0  0
  148.9130  134.7928  158.9433 O   0  0  0  0  0  0  0  0  0  0  0  0
  147.5200  135.5639  160.5536 N   0  0  0  0  0  0  0  0  0  0  0  0
  147.1895  136.5383  161.5963 C   0  0  0  0  0  0  0  0  0  0  0  0
  147.3173  135.8369  162.9602 C   0  0  0  0  0  0  0  0  0  0  0  0
  146.4606  134.6967  162.9978 O   0  0  0  0  0  0  0  0  0  0  0  0
  146.7328  133.7452  161.9689 C   0  0  1  0  0  0  0  0  0  0  0  0
  145.7644  132.5692  162.1341 C   0  0  0  0  0  0  0  0  0  0  0  0
  146.5859  134.4352  160.5977 C   0  0  0  0  0  0  0  0  0  0  0  0
  151.8420  140.9681  158.7494 C   0  0  0  0  0  0  0  0  0  0  0  0
  151.9746  144.1371  159.5412 H   0  0  0  0  0  0  0  0  0  0  0  0
  153.2336  143.9518  158.3330 H   0  0  0  0  0  0  0  0  0  0  0  0
  153.3156  143.0441  159.8314 H   0  0  0  0  0  0  0  0  0  0  0  0
  150.6682  143.2493  156.7589 H   0  0  0  0  0  0  0  0  0  0  0  0
  149.5771  138.8261  157.9960 H   0  0  0  0  0  0  0  0  0  0  0  0
  150.5004  137.3811  156.2536 H   0  0  0  0  0  0  0  0  0  0  0  0
  151.9748  138.3406  156.1646 H   0  0  0  0  0  0  0  0  0  0  0  0
  150.4358  139.0213  155.6427 H   0  0  0  0  0  0  0  0  0  0  0  0
  151.3511  138.6810  159.8413 H   0  0  0  0  0  0  0  0  0  0  0  0
  153.4464  138.7694  158.5036 H   0  0  0  0  0  0  0  0  0  0  0  0
  152.9733  137.3281  157.6086 H   0  0  0  0  0  0  0  0  0  0  0  0
  153.3633  137.2287  159.3222 H   0  0  0  0  0  0  0  0  0  0  0  0
  151.3815  136.1468  159.4568 H   0  0  0  0  0  0  0  0  0  0  0  0
  149.7602  137.0618  160.9320 H   0  0  0  0  0  0  0  0  0  0  0  0
  148.9346  137.7812  159.5478 H   0  0  0  0  0  0  0  0  0  0  0  0
  147.8284  137.4219  161.5734 H   0  0  0  0  0  0  0  0  0  0  0  0
  146.1699  136.8978  161.4498 H   0  0  0  0  0  0  0  0  0  0  0  0
  148.3488  135.5327  163.1446 H   0  0  0  0  0  0  0  0  0  0  0  0
  147.0360  136.5170  163.7642 H   0  0  0  0  0  0  0  0  0  0  0  0
  147.7533  133.3760  162.0870 H   0  0  0  0  0  0  0  0  0  0  0  0
  145.9418  131.8056  161.3764 H   0  0  0  0  0  0  0  0  0  0  0  0
  144.7279  132.8955  162.0454 H   0  0  0  0  0  0  0  0  0  0  0  0
  145.8841  132.1007  163.1113 H   0  0  0  0  0  0  0  0  0  0  0  0
  145.5685  134.8088  160.4725 H   0  0  0  0  0  0  0  0  0  0  0  0
  146.7322  133.7130  159.7959 H   0  0  0  0  0  0  0  0  0  0  0  0
  152.3757  140.4255  159.5157 H   0  0  0  0  0  0  0  0  0  0  0  0
  1  2  1  0  0  0  0
  1 22  1  0  0  0  0
  1 23  1  0  0  0  0
  1 24  1  0  0  0  0
  2 21  2  0  0  0  0
  2  3  1  0  0  0  0
  3  4  2  0  0  0  0
  3 25  1  0  0  0  0
  4  5  1  0  0  0  0
  5  6  1  0  0  0  0
  5 21  1  0  0  0  0
  6  7  1  0  0  0  0
  6  8  1  0  0  0  0
  6 26  1  0  0  0  0
  7 27  1  0  0  0  0
  7 28  1  0  0  0  0
  7 29  1  0  0  0  0
  8  9  1  0  0  0  0
  8 10  1  0  0  0  0
  8 30  1  0  0  0  0
  9 31  1  0  0  0  0
  9 32  1  0  0  0  0
  9 33  1  0  0  0  0
 10 11  1  0  0  0  0
 10 34  1  0  0  0  0
 11 12  1  0  0  0  0
 11 35  1  0  0  0  0
 11 36  1  0  0  0  0
 12 13  2  0  0  0  0
 12 14  1  0  0  0  0
 14 20  1  0  0  0  0
 14 15  1  0  0  0  0
 15 16  1  0  0  0  0
 15 37  1  0  0  0  0
 15 38  1  0  0  0  0
 16 17  1  0  0  0  0
 16 39  1  0  0  0  0
 16 40  1  0  0  0  0
 17 18  1  0  0  0  0
 18 19  1  0  0  0  0
 18 20  1  0  0  0  0
 18 41  1  0  0  0  0
 19 42  1  0  0  0  0
 19 43  1  0  0  0  0
 19 44  1  0  0  0  0
 20 45  1  0  0  0  0
 20 46  1  0  0  0  0
 21 47  1  0  0  0  0
M  END
> <s_m_source_file>
AV-unprocessed.smi

> <i_m_source_file_index>
3056

> <i_lp_mmshare_version>
43012

> <i_f3d_flags>
0

> <s_epik_input>
W0NIM11jMVtjSF1ubihbY0hdMSlbQ0BIXShbQ0gzXSlbQ0BIXShbQ0gzXSlbTkhdW0NIMl1DKD1PKU4yW0NIMl1bQ0gyXU9bQ0BASF0oW0NIM10pW0NIMl0y

> <s_epik_cmdline>
J2VwaWtfcHl0aG9uJywgJy1waCcsICc3LjAnLCAnLXRuJywgJzgnLCAnLW1hJywgJzIwMCcsICctbWV0YWxfYmluZGluZycsICctaW1hZScsICc8aW5maWxlLm1hZT4nLCAnLW9tYWUnLCAnPG91dGZpbGUubWFlPic=

> <r_lp_tautomer_probability>
1

> <r_epik_Ionization_Penalty>
0.667689

> <r_epik_Ionization_Penalty_Charging>
0

> <r_epik_Ionization_Penalty_Neutral>
0.667689

> <r_epik_State_Penalty>
0.684601

> <r_epik_Charging_Adjusted_Penalty>
0.684601

> <i_epik_Tot_Q>
0

> <i_epik_Tot_abs_Q>
0

> <r_epik_Metal_State_Penalty>
0.681448

> <b_epik_Metal_Only>
0

> <s_lp_Force_Field>
OPLS_2005

> <r_lp_Energy>
29.4013

> <b_lp_Chiralities_Consistent>
1

> <s_lp_Variant>
AV-unprocessed.smi:3056-10

> <Gold.Version>
5.8.1

> <Gold.Id.Protein>
6NUR|6NUR_protein|mol2

> <Gold.PLP.Fitness>
42.9178

> <Gold.PLP.PLP>
-37.8921

> <Gold.PLP.part.hbond>
-2.5784

> <Gold.PLP.part.metal>
0.0000

> <Gold.PLP.part.buried>
-5.0194

> <Gold.PLP.part.nonpolar>
-30.9271

> <Gold.PLP.part.repulsive>
0.0503

> <Gold.PLP.ligand.clash>
0.0000

> <Gold.PLP.ligand.torsion>
0.5771

> <Gold.PLP.Chemscore.Hbond>
1.0000

> <Gold.PLP.Chemscore.CHOScore>
1.0000

> <Gold.PLP.Chemscore.Metal>
0.0000

> <Gold.Chemscore.Hbonds>
donor molecule, donor type, donor heavy atom, donor atom, acceptor molecule, acceptor atom, score
      P1  H  6896  6908       L1    13  0.99
      L1  C     3    25       P1  8028  0.95

> <Gold.PLP.Chemscore.Internal.Correction>
0.1799

> <Gold.Rescore>
     Score         DG    S(hbond)    S(metal)    S(lipo)     H(rot)  DE(clash)    DE(int)     intcor
     15.29     -15.70       0.92        0.00      97.89       1.68       0.01       0.40       ----

> <Gold.Chemscore.Fitness>
15.2877

> <Gold.Chemscore.DG>
-15.7017

> <Gold.Chemscore.ZeroCoef>
-5.4800

> <Gold.Chemscore.Hbond>
0.9183

> <Gold.Chemscore.Metal>
0.0000

> <Gold.Chemscore.Lipo>
97.8934

> <Gold.Chemscore.Internal_Hbond>
0.0000

> <Gold.Chemscore.DEClash>
0.0126

> <Gold.Chemscore.DEInternal>
0.4014

> <Gold.Chemscore.Rot>
1.6793

> <Gold.Chemscore.Internal.Correction>
   9.000000E+99

> <Gold.Chemscore.Hbonds>
donor molecule, donor type, donor heavy atom, donor atom, acceptor molecule, acceptor atom, score
      P1  H  6896  6908       L1    13  0.66

> <Gold.Chemscore.Hbond.Weighted>
-3.0672

> <Gold.Chemscore.Metal.Weighted>
-0.0000

> <Gold.Chemscore.Lipo.Weighted>
-11.4535

> <Gold.Chemscore.Internal_Hbond.Weighted>
0.0000

> <Gold.Chemscore.DEClash.Weighted>
0.0126

> <Gold.Chemscore.DEInternal.Weighted>
0.4014

> <Gold.Chemscore.Rot.Weighted>
4.2990

> <Gold.Chemscore.Internal.Correction.Weighted>
   9.000000E+99

> <Gold.Protein.RotatedTorsions>
[ 6907 6896 6895 6894 ] final  138.49 input  -60.11 | X-H torsion
[ 7974 7965 7964 7962 ] final -127.43 input  175.53 | X-H torsion
[ 8008 7997 7996 7995 ] final -102.41 input   59.86 | X-H torsion
[ 10167 10162 10161 10158 ] final  168.42 input  -65.29 | X-H torsion
[ 10718 10713 10712 10709 ] final   37.49 input   66.30 | X-H torsion
[ 10763 10752 10751 10750 ] final  140.76 input  -60.55 | X-H torsion
[ 11005 11000 10999 10996 ] final  -81.87 input  -57.11 | X-H torsion

> <Gold.Protein.ActiveResidues>
 VAL166  LYS551  ARG553  GLY616  TRP617  ASP618  TYR619  PRO620  LYS621  CYS622 
 ASP623  PHE694  ASN695  SER759  ASP760  ASP761  ALA762  ILE779  LEU786  VAL792 
 PHE793  MET794  SER795  GLU796  ALA797  LYS798  CYS799  TRP800  GLU811  SER814 

> <Gold.Protein.RotatedAtoms>
  152.2660  133.5339  159.5409 H   0  0  0  0  0  0  0  0  0  0  0  0  # atno 6907 bound_to 6896
  150.7142  134.0764  159.3891 H   0  0  0  0  0  0  0  0  0  0  0  0  # atno 6908 bound_to 6896
  151.8680  135.0500  160.0527 H   0  0  0  0  0  0  0  0  0  0  0  0  # atno 6909 bound_to 6896
  144.9771  140.7604  143.4635 H   0  0  0  0  0  0  0  0  0  0  0  0  # atno 7974 bound_to 7965
  154.8563  140.0428  157.1636 H   0  0  0  0  0  0  0  0  0  0  0  0  # atno 8008 bound_to 7997
  154.8888  140.2983  155.5362 H   0  0  0  0  0  0  0  0  0  0  0  0  # atno 8009 bound_to 7997
  156.2997  140.2397  156.3901 H   0  0  0  0  0  0  0  0  0  0  0  0  # atno 8010 bound_to 7997
  139.4967  144.3816  151.9616 H   0  0  0  0  0  0  0  0  0  0  0  0  # atno 10167 bound_to 10162
  157.3476  130.7581  149.6955 H   0  0  0  0  0  0  0  0  0  0  0  0  # atno 10718 bound_to 10713
  153.9280  135.2993  155.3446 H   0  0  0  0  0  0  0  0  0  0  0  0  # atno 10763 bound_to 10752
  154.7541  135.4966  153.9346 H   0  0  0  0  0  0  0  0  0  0  0  0  # atno 10764 bound_to 10752
  153.1107  135.6758  153.9610 H   0  0  0  0  0  0  0  0  0  0  0  0  # atno 10765 bound_to 10752
  141.1665  133.7217  156.8487 H   0  0  0  0  0  0  0  0  0  0  0  0  # atno 11005 bound_to 11000
  145.2474  139.2046  143.4960 LP  0  0  0  0  0  0  0  0  0  0  0  0  # atno 17320 bound_to 7965
  146.3398  140.2380  142.8595 LP  0  0  0  0  0  0  0  0  0  0  0  0  # atno 17321 bound_to 7965
  140.3253  144.3380  150.6000 LP  0  0  0  0  0  0  0  0  0  0  0  0  # atno 17342 bound_to 10162
  140.5690  143.2183  151.7633 LP  0  0  0  0  0  0  0  0  0  0  0  0  # atno 17343 bound_to 10162
  155.9716  130.4150  150.4159 LP  0  0  0  0  0  0  0  0  0  0  0  0  # atno 17370 bound_to 10713
  157.2216  131.0484  151.2543 LP  0  0  0  0  0  0  0  0  0  0  0  0  # atno 17371 bound_to 10713
  140.1931  134.8951  157.3083 LP  0  0  0  0  0  0  0  0  0  0  0  0  # atno 17394 bound_to 11000
  140.2269  134.3956  155.7540 LP  0  0  0  0  0  0  0  0  0  0  0  0  # atno 17395 bound_to 11000

$$$$
