AV-unprocessed.smi:1699|AV-procd|sdf|6818|dock8
  -GOLD-   22720 7593D 1   1.00000     0.00000
 Structure written by MMmdl.
 37 38  0  0  0  0  0  0  0  0  1 V2000
  147.7144  133.0464  152.2858 C   0  0  0  0  0  0  0  0  0  0  0  0
  146.4154  133.0376  151.4960 C   0  0  0  0  0  0  0  0  0  0  0  0
  145.8949  131.8089  151.0374 C   0  0  0  0  0  0  0  0  0  0  0  0
  144.6942  131.8019  150.3073 C   0  0  0  0  0  0  0  0  0  0  0  0
  144.0596  133.0325  150.0665 C   0  0  0  0  0  0  0  0  0  0  0  0
  144.5497  134.2112  150.5012 N   0  0  0  0  0  0  0  0  0  0  0  0
  145.7084  134.2357  151.2067 C   0  0  0  0  0  0  0  0  0  0  0  0
  146.2854  135.4424  151.6945 N   0  0  0  0  0  0  0  0  0  0  0  0
  145.6643  136.5257  152.1934 C   0  0  0  0  0  0  0  0  0  0  0  0
  144.4469  136.6500  152.3288 O   0  0  0  0  0  0  0  0  0  0  0  0
  146.5491  137.4769  152.5289 N   0  0  0  0  0  0  0  0  0  0  0  0
  146.2278  138.7833  153.1020 C   0  0  1  0  0  0  0  0  0  0  0  0
  145.6500  138.5745  154.5095 C   0  0  0  0  0  0  0  0  0  0  0  0
  147.4770  139.6893  153.1239 C   0  0  1  0  0  0  0  0  0  0  0  0
  147.2981  141.0260  153.8481 C   0  0  0  0  0  0  0  0  0  0  0  0
  148.7222  141.3671  154.2188 C   0  0  0  0  0  0  0  0  0  0  0  0
  149.2810  139.9972  154.5896 C   0  0  0  0  0  0  0  0  0  0  0  0
  148.5477  139.0500  153.8165 O   0  0  0  0  0  0  0  0  0  0  0  0
  148.1114  132.0382  152.4084 H   0  0  0  0  0  0  0  0  0  0  0  0
  147.5540  133.4666  153.2790 H   0  0  0  0  0  0  0  0  0  0  0  0
  148.4696  133.6433  151.7736 H   0  0  0  0  0  0  0  0  0  0  0  0
  146.4077  130.8804  151.2411 H   0  0  0  0  0  0  0  0  0  0  0  0
  144.2705  130.8781  149.9421 H   0  0  0  0  0  0  0  0  0  0  0  0
  143.1344  133.0726  149.5112 H   0  0  0  0  0  0  0  0  0  0  0  0
  147.2925  135.4863  151.6523 H   0  0  0  0  0  0  0  0  0  0  0  0
  147.5282  137.2834  152.3779 H   0  0  0  0  0  0  0  0  0  0  0  0
  145.4581  139.2716  152.5015 H   0  0  0  0  0  0  0  0  0  0  0  0
  145.3614  139.5236  154.9618 H   0  0  0  0  0  0  0  0  0  0  0  0
  146.3746  138.0981  155.1707 H   0  0  0  0  0  0  0  0  0  0  0  0
  144.7608  137.9439  154.4792 H   0  0  0  0  0  0  0  0  0  0  0  0
  147.8152  139.8848  152.1047 H   0  0  0  0  0  0  0  0  0  0  0  0
  146.8240  141.7876  153.2283 H   0  0  0  0  0  0  0  0  0  0  0  0
  146.7001  140.8982  154.7517 H   0  0  0  0  0  0  0  0  0  0  0  0
  149.2490  141.7679  153.3518 H   0  0  0  0  0  0  0  0  0  0  0  0
  148.7945  142.0917  155.0304 H   0  0  0  0  0  0  0  0  0  0  0  0
  150.3521  139.9217  154.4013 H   0  0  0  0  0  0  0  0  0  0  0  0
  149.1074  139.7881  155.6457 H   0  0  0  0  0  0  0  0  0  0  0  0
  1  2  1  0  0  0  0
  1 19  1  0  0  0  0
  1 20  1  0  0  0  0
  1 21  1  0  0  0  0
  2  7  1  0  0  0  0
  2  3  2  0  0  0  0
  3  4  1  0  0  0  0
  3 22  1  0  0  0  0
  4  5  2  0  0  0  0
  4 23  1  0  0  0  0
  5  6  1  0  0  0  0
  5 24  1  0  0  0  0
  6  7  2  0  0  0  0
  7  8  1  0  0  0  0
  8  9  1  0  0  0  0
  8 25  1  0  0  0  0
  9 10  2  0  0  0  0
  9 11  1  0  0  0  0
 11 12  1  0  0  0  0
 11 26  1  0  0  0  0
 12 13  1  0  0  0  0
 12 14  1  0  0  0  0
 12 27  1  0  0  0  0
 13 28  1  0  0  0  0
 13 29  1  0  0  0  0
 13 30  1  0  0  0  0
 14 18  1  0  0  0  0
 14 15  1  0  0  0  0
 14 31  1  0  0  0  0
 15 16  1  0  0  0  0
 15 32  1  0  0  0  0
 15 33  1  0  0  0  0
 16 17  1  0  0  0  0
 16 34  1  0  0  0  0
 16 35  1  0  0  0  0
 17 18  1  0  0  0  0
 17 36  1  0  0  0  0
 17 37  1  0  0  0  0
M  END
> <s_m_source_file>
AV-unprocessed.smi

> <i_m_source_file_index>
1699

> <i_lp_mmshare_version>
43012

> <i_f3d_flags>
0

> <s_epik_input>
W0NIM11jMVtjSF1bY0hdW2NIXW5jMVtOSF1DKD1PKVtOSF1bQ0BIXShbQ0gzXSlbQ0BASF0yW0NIMl1bQ0gyXVtDSDJdTzI=

> <s_epik_cmdline>
J2VwaWtfcHl0aG9uJywgJy1waCcsICc3LjAnLCAnLXRuJywgJzgnLCAnLW1hJywgJzIwMCcsICctbWV0YWxfYmluZGluZycsICctaW1hZScsICc8aW5maWxlLm1hZT4nLCAnLW9tYWUnLCAnPG91dGZpbGUubWFlPic=

> <r_lp_tautomer_probability>
1

> <r_epik_Ionization_Penalty>
5.52788e-05

> <r_epik_Ionization_Penalty_Charging>
0

> <r_epik_Ionization_Penalty_Neutral>
5.52788e-05

> <r_epik_State_Penalty>
-0

> <r_epik_Charging_Adjusted_Penalty>
0

> <i_epik_Tot_Q>
0

> <i_epik_Tot_abs_Q>
0

> <r_epik_Metal_State_Penalty>
-0

> <b_epik_Metal_Only>
0

> <s_lp_Force_Field>
OPLS_2005

> <r_lp_Energy>
20.3495

> <b_lp_Chiralities_Consistent>
1

> <s_lp_Variant>
AV-unprocessed.smi:1699-4

> <Gold.Version>
5.8.1

> <Gold.Id.Protein>
6NUR|6NUR_protein|mol2

> <Gold.PLP.Fitness>
39.2412

> <Gold.PLP.PLP>
-31.0005

> <Gold.PLP.part.hbond>
-2.0000

> <Gold.PLP.part.metal>
0.0000

> <Gold.PLP.part.buried>
-2.3157

> <Gold.PLP.part.nonpolar>
-28.6378

> <Gold.PLP.part.repulsive>
1.4293

> <Gold.PLP.ligand.clash>
0.0000

> <Gold.PLP.ligand.torsion>
0.3851

> <Gold.PLP.Chemscore.Hbond>
2.0000

> <Gold.PLP.Chemscore.CHOScore>
1.0000

> <Gold.PLP.Chemscore.Metal>
0.0000

> <Gold.Chemscore.Hbonds>
donor molecule, donor type, donor heavy atom, donor atom, acceptor molecule, acceptor atom, score
      L1  H     8    25       P1  7948  1.00
      L1  H    11    26       P1  7948  1.00
      L1  C     5    24       P1 10186  1.00

> <Gold.PLP.Chemscore.Internal.Correction>
0.0109

> <Gold.Rescore>
     Score         DG    S(hbond)    S(metal)    S(lipo)     H(rot)  DE(clash)    DE(int)     intcor
     17.04     -17.62       1.96        0.00      74.42       1.22       0.08       0.49       ----

> <Gold.Chemscore.Fitness>
17.0422

> <Gold.Chemscore.DG>
-17.6173

> <Gold.Chemscore.ZeroCoef>
-5.4800

> <Gold.Chemscore.Hbond>
1.9621

> <Gold.Chemscore.Metal>
0.0000

> <Gold.Chemscore.Lipo>
74.4194

> <Gold.Chemscore.Internal_Hbond>
0.0000

> <Gold.Chemscore.DEClash>
0.0826

> <Gold.Chemscore.DEInternal>
0.4926

> <Gold.Chemscore.Rot>
1.2200

> <Gold.Chemscore.Internal.Correction>
   9.000000E+99

> <Gold.Chemscore.Hbonds>
donor molecule, donor type, donor heavy atom, donor atom, acceptor molecule, acceptor atom, score
      L1  H     8    25       P1  7948  0.98
      L1  H    11    26       P1  7948  0.98

> <Gold.Chemscore.Hbond.Weighted>
-6.5534

> <Gold.Chemscore.Metal.Weighted>
-0.0000

> <Gold.Chemscore.Lipo.Weighted>
-8.7071

> <Gold.Chemscore.Internal_Hbond.Weighted>
0.0000

> <Gold.Chemscore.DEClash.Weighted>
0.0826

> <Gold.Chemscore.DEInternal.Weighted>
0.4926

> <Gold.Chemscore.Rot.Weighted>
3.1232

> <Gold.Chemscore.Internal.Correction.Weighted>
   9.000000E+99

> <Gold.Protein.RotatedTorsions>
[ 6907 6896 6895 6894 ] final  -54.68 input  -60.11 | X-H torsion
[ 7974 7965 7964 7962 ] final   16.52 input  175.53 | X-H torsion
[ 8008 7997 7996 7995 ] final   87.09 input   59.86 | X-H torsion
[ 10167 10162 10161 10158 ] final  -62.34 input  -65.29 | X-H torsion
[ 10718 10713 10712 10709 ] final -132.41 input   66.30 | X-H torsion
[ 10763 10752 10751 10750 ] final  -38.24 input  -60.55 | X-H torsion
[ 11005 11000 10999 10996 ] final   42.04 input  -57.11 | X-H torsion

> <Gold.Protein.ActiveResidues>
 VAL166  LYS551  ARG553  GLY616  TRP617  ASP618  TYR619  PRO620  LYS621  CYS622 
 ASP623  PHE694  ASN695  SER759  ASP760  ASP761  ALA762  ILE779  LEU786  VAL792 
 PHE793  MET794  SER795  GLU796  ALA797  LYS798  CYS799  TRP800  GLU811  SER814 

> <Gold.Protein.RotatedAtoms>
  150.8317  134.7573  159.6858 H   0  0  0  0  0  0  0  0  0  0  0  0  # atno 6907 bound_to 6896
  152.4420  134.5568  159.9892 H   0  0  0  0  0  0  0  0  0  0  0  0  # atno 6908 bound_to 6896
  151.5727  133.3350  159.3028 H   0  0  0  0  0  0  0  0  0  0  0  0  # atno 6909 bound_to 6896
  146.2247  139.8736  142.8583 H   0  0  0  0  0  0  0  0  0  0  0  0  # atno 7974 bound_to 7965
  155.9710  140.3385  155.6575 H   0  0  0  0  0  0  0  0  0  0  0  0  # atno 8008 bound_to 7997
  155.6675  140.0723  157.2550 H   0  0  0  0  0  0  0  0  0  0  0  0  # atno 8009 bound_to 7997
  154.4166  140.1697  156.1830 H   0  0  0  0  0  0  0  0  0  0  0  0  # atno 8010 bound_to 7997
  140.5945  143.2348  151.6066 H   0  0  0  0  0  0  0  0  0  0  0  0  # atno 10167 bound_to 10162
  156.2343  130.7057  151.0891 H   0  0  0  0  0  0  0  0  0  0  0  0  # atno 10718 bound_to 10713
  153.9095  135.6794  153.4751 H   0  0  0  0  0  0  0  0  0  0  0  0  # atno 10763 bound_to 10752
  153.1086  135.4794  154.8992 H   0  0  0  0  0  0  0  0  0  0  0  0  # atno 10764 bound_to 10752
  154.7534  135.3191  154.8470 H   0  0  0  0  0  0  0  0  0  0  0  0  # atno 10765 bound_to 10752
  140.1776  134.4143  155.8219 H   0  0  0  0  0  0  0  0  0  0  0  0  # atno 11005 bound_to 11000
  145.2583  141.0068  143.3841 LP  0  0  0  0  0  0  0  0  0  0  0  0  # atno 17320 bound_to 7965
  144.9319  139.4289  143.6491 LP  0  0  0  0  0  0  0  0  0  0  0  0  # atno 17321 bound_to 7965
  139.5249  144.3089  152.1009 LP  0  0  0  0  0  0  0  0  0  0  0  0  # atno 17342 bound_to 10162
  140.2260  144.4418  150.6321 LP  0  0  0  0  0  0  0  0  0  0  0  0  # atno 17343 bound_to 10162
  157.7147  131.0716  150.6371 LP  0  0  0  0  0  0  0  0  0  0  0  0  # atno 17370 bound_to 10713
  156.6440  130.4466  149.5742 LP  0  0  0  0  0  0  0  0  0  0  0  0  # atno 17371 bound_to 10713
  141.2221  133.6985  156.7875 LP  0  0  0  0  0  0  0  0  0  0  0  0  # atno 17394 bound_to 11000
  140.2304  134.8690  157.3471 LP  0  0  0  0  0  0  0  0  0  0  0  0  # atno 17395 bound_to 11000

$$$$
