AV-unprocessed.smi:119|AV-procd|sdf|1135|dock10
  -GOLD-   2262018263D 1   1.00000     0.00000
 Structure written by MMmdl.
 51 54  0  0  0  0  0  0  0  0  1 V2000
  146.9714  140.5090  154.4653 C   0  0  0  0  0  0  0  0  0  0  0  0
  148.1415  141.2002  155.1835 C   0  0  2  0  0  0  0  0  0  0  0  0
  149.5141  140.9312  154.5344 C   0  0  0  0  0  0  0  0  0  0  0  0
  149.9895  139.4640  154.5370 C   0  0  0  0  0  0  0  0  0  0  0  0
  150.3248  138.9736  155.8802 N   0  0  0  0  0  0  0  0  0  0  0  0
  151.5545  139.1034  156.4438 C   0  0  0  0  0  0  0  0  0  0  0  0
  152.4990  139.6155  155.8366 O   0  0  0  0  0  0  0  0  0  0  0  0
  151.7839  138.5993  157.8862 C   0  0  0  0  0  0  0  0  0  0  0  0
  152.3414  139.6291  158.7914 N   0  0  0  0  0  0  0  0  0  0  0  0
  153.5163  139.3239  159.5204 C   0  0  0  0  0  0  0  0  0  0  0  0
  154.0648  138.2254  159.4173 O   0  0  0  0  0  0  0  0  0  0  0  0
  154.0185  140.3908  160.3777 C   0  0  0  0  0  0  0  0  0  0  0  0
  155.1204  140.1844  161.1188 F   0  0  0  0  0  0  0  0  0  0  0  0
  153.3929  141.5843  160.4448 C   0  0  0  0  0  0  0  0  0  0  0  0
  152.2490  141.8754  159.7199 N   0  0  0  0  0  0  0  0  0  0  0  0
  151.5718  143.2315  159.7438 C   0  0  1  0  0  0  0  0  0  0  0  0
  152.0465  144.2001  160.8305 C   0  0  0  0  0  0  0  0  0  0  0  0
  151.5899  145.5064  160.2233 C   0  0  0  0  0  0  0  0  0  0  0  0
  151.9163  145.2840  158.7464 C   0  0  0  0  0  0  0  0  0  0  0  0
  151.8314  143.8755  158.5326 O   0  0  0  0  0  0  0  0  0  0  0  0
  151.7025  140.8898  158.8670 C   0  0  0  0  0  0  0  0  0  0  0  0
  150.6927  141.1269  158.2001 O   0  0  0  0  0  0  0  0  0  0  0  0
  149.2764  138.3445  156.6045 C   0  0  0  0  0  0  0  0  0  0  0  0
  149.3047  136.9432  156.7841 C   0  0  0  0  0  0  0  0  0  0  0  0
  148.2779  136.2979  157.4987 C   0  0  0  0  0  0  0  0  0  0  0  0
  147.2170  137.0491  158.0386 C   0  0  0  0  0  0  0  0  0  0  0  0
  147.1826  138.4455  157.8631 C   0  0  0  0  0  0  0  0  0  0  0  0
  148.2048  139.0964  157.1439 C   0  0  0  0  0  0  0  0  0  0  0  0
  148.1274  140.8538  156.9671 S   0  0  0  0  0  0  0  0  0  0  0  0
  146.9541  140.7674  153.4063 H   0  0  0  0  0  0  0  0  0  0  0  0
  146.0173  140.8164  154.8940 H   0  0  0  0  0  0  0  0  0  0  0  0
  147.0275  139.4233  154.5417 H   0  0  0  0  0  0  0  0  0  0  0  0
  147.9680  142.2738  155.1026 H   0  0  0  0  0  0  0  0  0  0  0  0
  149.4725  141.2718  153.4994 H   0  0  0  0  0  0  0  0  0  0  0  0
  150.2604  141.5637  155.0150 H   0  0  0  0  0  0  0  0  0  0  0  0
  149.2197  138.8238  154.1053 H   0  0  0  0  0  0  0  0  0  0  0  0
  150.8332  139.3525  153.8567 H   0  0  0  0  0  0  0  0  0  0  0  0
  150.8384  138.2201  158.2754 H   0  0  0  0  0  0  0  0  0  0  0  0
  152.4370  137.7272  157.8731 H   0  0  0  0  0  0  0  0  0  0  0  0
  153.8227  142.3126  161.1117 H   0  0  0  0  0  0  0  0  0  0  0  0
  150.5038  143.0227  159.8379 H   0  0  0  0  0  0  0  0  0  0  0  0
  151.6040  143.9722  161.8005 H   0  0  0  0  0  0  0  0  0  0  0  0
  153.1332  144.2204  160.9021 H   0  0  0  0  0  0  0  0  0  0  0  0
  150.5145  145.6302  160.3602 H   0  0  0  0  0  0  0  0  0  0  0  0
  152.0922  146.3775  160.6450 H   0  0  0  0  0  0  0  0  0  0  0  0
  151.2374  145.8266  158.0883 H   0  0  0  0  0  0  0  0  0  0  0  0
  152.9342  145.6066  158.5250 H   0  0  0  0  0  0  0  0  0  0  0  0
  150.1165  136.3600  156.3742 H   0  0  0  0  0  0  0  0  0  0  0  0
  148.3058  135.2268  157.6342 H   0  0  0  0  0  0  0  0  0  0  0  0
  146.4307  136.5542  158.5891 H   0  0  0  0  0  0  0  0  0  0  0  0
  146.3675  139.0171  158.2822 H   0  0  0  0  0  0  0  0  0  0  0  0
  1  2  1  0  0  0  0
  1 30  1  0  0  0  0
  1 31  1  0  0  0  0
  1 32  1  0  0  0  0
  2 29  1  0  0  0  0
  2  3  1  0  0  0  0
  2 33  1  0  0  0  0
  3  4  1  0  0  0  0
  3 34  1  0  0  0  0
  3 35  1  0  0  0  0
  4  5  1  0  0  0  0
  4 36  1  0  0  0  0
  4 37  1  0  0  0  0
  5  6  1  0  0  0  0
  5 23  1  0  0  0  0
  6  7  2  0  0  0  0
  6  8  1  0  0  0  0
  8  9  1  0  0  0  0
  8 38  1  0  0  0  0
  8 39  1  0  0  0  0
  9 21  1  0  0  0  0
  9 10  1  0  0  0  0
 10 11  2  0  0  0  0
 10 12  1  0  0  0  0
 12 13  1  0  0  0  0
 12 14  2  0  0  0  0
 14 15  1  0  0  0  0
 14 40  1  0  0  0  0
 15 16  1  0  0  0  0
 15 21  1  0  0  0  0
 16 20  1  0  0  0  0
 16 17  1  0  0  0  0
 16 41  1  0  0  0  0
 17 18  1  0  0  0  0
 17 42  1  0  0  0  0
 17 43  1  0  0  0  0
 18 19  1  0  0  0  0
 18 44  1  0  0  0  0
 18 45  1  0  0  0  0
 19 20  1  0  0  0  0
 19 46  1  0  0  0  0
 19 47  1  0  0  0  0
 21 22  2  0  0  0  0
 23 28  2  0  0  0  0
 23 24  1  0  0  0  0
 24 25  2  0  0  0  0
 24 48  1  0  0  0  0
 25 26  1  0  0  0  0
 25 49  1  0  0  0  0
 26 27  2  0  0  0  0
 26 50  1  0  0  0  0
 27 28  1  0  0  0  0
 27 51  1  0  0  0  0
 28 29  1  0  0  0  0
M  END
> <s_m_source_file>
AV-unprocessed.smi

> <i_m_source_file_index>
119

> <i_lp_mmshare_version>
43012

> <i_f3d_flags>
0

> <s_epik_input>
W2NIXTFbY0hdW2NIXVtjSF1jKGMxMilTW0NASF0oW0NIM10pW0NIMl1bQ0gyXU4yQyg9TylbQ0gyXW4zYyg9TyljKEYpW2NIXW4oYzM9TylbQ0BASF00W0NIMl1bQ0gyXVtDSDJdTzQ=

> <s_epik_cmdline>
J2VwaWtfcHl0aG9uJywgJy1waCcsICc3LjAnLCAnLXRuJywgJzgnLCAnLW1hJywgJzIwMCcsICctbWV0YWxfYmluZGluZycsICctaW1hZScsICc8aW5maWxlLm1hZT4nLCAnLW9tYWUnLCAnPG91dGZpbGUubWFlPic=

> <r_lp_tautomer_probability>
1

> <r_epik_Ionization_Penalty>
1.68882e-06

> <r_epik_Ionization_Penalty_Charging>
3.67303e-09

> <r_epik_Ionization_Penalty_Neutral>
1.68515e-06

> <r_epik_State_Penalty>
-0

> <r_epik_Charging_Adjusted_Penalty>
3.67303e-09

> <i_epik_Tot_Q>
0

> <i_epik_Tot_abs_Q>
0

> <r_epik_Metal_State_Penalty>
-0

> <b_epik_Metal_Only>
0

> <s_epik_Chemistry_Notes>
This compound contains an acetal/aminal-like group ( X-CH(R)-Y where X, Y are N, S, or O) that may be acid/base labile, releasing an aldehyde.

> <s_lp_Force_Field>
OPLS_2005

> <r_lp_Energy>
51.5083

> <b_lp_Chiralities_Consistent>
1

> <s_lp_Variant>
AV-unprocessed.smi:119-3

> <Gold.Version>
5.8.1

> <Gold.Id.Protein>
6NUR|6NUR_protein|mol2

> <Gold.PLP.Fitness>
51.1856

> <Gold.PLP.PLP>
-48.8334

> <Gold.PLP.part.hbond>
-1.0000

> <Gold.PLP.part.metal>
0.0000

> <Gold.PLP.part.buried>
-6.0791

> <Gold.PLP.part.nonpolar>
-41.0791

> <Gold.PLP.part.repulsive>
0.0672

> <Gold.PLP.ligand.clash>
0.0000

> <Gold.PLP.ligand.torsion>
0.3325

> <Gold.PLP.Chemscore.Hbond>
1.0000

> <Gold.PLP.Chemscore.CHOScore>
0.0000

> <Gold.PLP.Chemscore.Metal>
0.0000

> <Gold.Chemscore.Hbonds>
donor molecule, donor type, donor heavy atom, donor atom, acceptor molecule, acceptor atom, score
      P1  H  7997  8010       L1     7  1.00

> <Gold.PLP.Chemscore.Internal.Correction>
0.0171

> <Gold.Rescore>
     Score         DG    S(hbond)    S(metal)    S(lipo)     H(rot)  DE(clash)    DE(int)     intcor
     13.39     -16.15       1.00        0.00      96.07       1.53       0.06       2.70       ----

> <Gold.Chemscore.Fitness>
13.3937

> <Gold.Chemscore.DG>
-16.1497

> <Gold.Chemscore.ZeroCoef>
-5.4800

> <Gold.Chemscore.Hbond>
0.9992

> <Gold.Chemscore.Metal>
0.0000

> <Gold.Chemscore.Lipo>
96.0727

> <Gold.Chemscore.Internal_Hbond>
0.0000

> <Gold.Chemscore.DEClash>
0.0580

> <Gold.Chemscore.DEInternal>
2.6980

> <Gold.Chemscore.Rot>
1.5266

> <Gold.Chemscore.Internal.Correction>
   9.000000E+99

> <Gold.Chemscore.Hbonds>
donor molecule, donor type, donor heavy atom, donor atom, acceptor molecule, acceptor atom, score
      P1  H  7997  8010       L1     7  0.98

> <Gold.Chemscore.Hbond.Weighted>
-3.3372

> <Gold.Chemscore.Metal.Weighted>
-0.0000

> <Gold.Chemscore.Lipo.Weighted>
-11.2405

> <Gold.Chemscore.Internal_Hbond.Weighted>
0.0000

> <Gold.Chemscore.DEClash.Weighted>
0.0580

> <Gold.Chemscore.DEInternal.Weighted>
2.6980

> <Gold.Chemscore.Rot.Weighted>
3.9081

> <Gold.Chemscore.Internal.Correction.Weighted>
   9.000000E+99

> <Gold.Protein.RotatedTorsions>
[ 6907 6896 6895 6894 ] final    8.13 input  -60.11 | X-H torsion
[ 7974 7965 7964 7962 ] final  -30.53 input  175.53 | X-H torsion
[ 8008 7997 7996 7995 ] final   78.57 input   59.86 | X-H torsion
[ 10167 10162 10161 10158 ] final -154.90 input  -65.29 | X-H torsion
[ 10718 10713 10712 10709 ] final  -13.58 input   66.30 | X-H torsion
[ 10763 10752 10751 10750 ] final  152.57 input  -60.55 | X-H torsion
[ 11005 11000 10999 10996 ] final   80.53 input  -57.11 | X-H torsion

> <Gold.Protein.ActiveResidues>
 VAL166  LYS551  ARG553  GLY616  TRP617  ASP618  TYR619  PRO620  LYS621  CYS622 
 ASP623  PHE694  ASN695  SER759  ASP760  ASP761  ALA762  ILE779  LEU786  VAL792 
 PHE793  MET794  SER795  GLU796  ALA797  LYS798  CYS799  TRP800  GLU811  SER814 

> <Gold.Protein.RotatedAtoms>
  151.7010  135.0930  160.0250 H   0  0  0  0  0  0  0  0  0  0  0  0  # atno 6907 bound_to 6896
  152.3720  133.6427  159.6103 H   0  0  0  0  0  0  0  0  0  0  0  0  # atno 6908 bound_to 6896
  150.7680  133.9171  159.3428 H   0  0  0  0  0  0  0  0  0  0  0  0  # atno 6909 bound_to 6896
  146.1136  140.5551  142.8767 H   0  0  0  0  0  0  0  0  0  0  0  0  # atno 7974 bound_to 7965
  155.8575  140.3455  155.5734 H   0  0  0  0  0  0  0  0  0  0  0  0  # atno 8008 bound_to 7997
  155.7970  140.0879  157.1997 H   0  0  0  0  0  0  0  0  0  0  0  0  # atno 8009 bound_to 7997
  154.4010  140.1472  156.3217 H   0  0  0  0  0  0  0  0  0  0  0  0  # atno 8010 bound_to 7997
  139.6975  143.9318  152.2414 H   0  0  0  0  0  0  0  0  0  0  0  0  # atno 10167 bound_to 10162
  156.6283  130.4894  149.6138 H   0  0  0  0  0  0  0  0  0  0  0  0  # atno 10718 bound_to 10713
  154.1222  135.2832  155.3205 H   0  0  0  0  0  0  0  0  0  0  0  0  # atno 10763 bound_to 10752
  154.6415  135.5401  153.7798 H   0  0  0  0  0  0  0  0  0  0  0  0  # atno 10764 bound_to 10752
  153.0309  135.6487  154.1376 H   0  0  0  0  0  0  0  0  0  0  0  0  # atno 10765 bound_to 10752
  139.9131  134.7927  156.1921 H   0  0  0  0  0  0  0  0  0  0  0  0  # atno 11005 bound_to 11000
  144.7533  140.5246  143.6786 LP  0  0  0  0  0  0  0  0  0  0  0  0  # atno 17320 bound_to 7965
  145.5612  139.1479  143.3340 LP  0  0  0  0  0  0  0  0  0  0  0  0  # atno 17321 bound_to 7965
  139.9151  144.6833  150.8521 LP  0  0  0  0  0  0  0  0  0  0  0  0  # atno 17342 bound_to 10162
  140.7700  143.3415  151.2198 LP  0  0  0  0  0  0  0  0  0  0  0  0  # atno 17343 bound_to 10162
  156.2255  130.6763  151.1412 LP  0  0  0  0  0  0  0  0  0  0  0  0  # atno 17370 bound_to 10713
  157.7207  131.0683  150.6145 LP  0  0  0  0  0  0  0  0  0  0  0  0  # atno 17371 bound_to 10713
  141.0577  133.6857  156.1892 LP  0  0  0  0  0  0  0  0  0  0  0  0  # atno 17394 bound_to 11000
  140.6710  134.4867  157.5587 LP  0  0  0  0  0  0  0  0  0  0  0  0  # atno 17395 bound_to 11000

$$$$
