AV-unprocessed.smi:1009|AV-procd|sdf|4414|dock5
  -GOLD-   22720 2363D 1   1.00000     0.00000
 Structure written by MMmdl.
 33 33  0  0  0  0  0  0  0  0  2 V2000
  151.3599  145.0047  158.6132 C   0  0  0  0  0  0  0  0  0  0  0  0
  150.6122  143.8949  157.9820 N   0  3  0  0  0  0  0  0  0  0  0  0
  149.4280  143.5124  158.7856 C   0  0  0  0  0  0  0  0  0  0  0  0
  151.4920  142.7457  157.6541 C   0  0  0  0  0  0  0  0  0  0  0  0
  150.9972  141.9528  156.4289 C   0  0  0  0  0  0  0  0  0  0  0  0
  151.6281  140.6410  156.3610 N   0  0  0  0  0  0  0  0  0  0  0  0
  151.4005  139.7271  155.4048 C   0  0  0  0  0  0  0  0  0  0  0  0
  150.6445  139.9172  154.4523 O   0  0  0  0  0  0  0  0  0  0  0  0
  152.1240  138.3886  155.5544 C   0  0  0  0  0  0  0  0  0  0  0  0
  151.1740  137.2925  155.6173 N   0  0  0  0  0  0  0  0  0  0  0  0
  150.2605  137.0080  156.6149 C   0  0  0  0  0  0  0  0  0  0  0  0
  149.5946  135.8719  156.2506 C   0  0  0  0  0  0  0  0  0  0  0  0
  150.1863  135.5436  155.0014 C   0  0  0  0  0  0  0  0  0  0  0  0
  149.8124  134.4339  154.2486 N   0  0  0  0  0  0  0  0  0  0  0  0
  151.1290  136.3839  154.6160 N   0  0  0  0  0  0  0  0  0  0  0  0
  151.7903  144.6939  159.5664 H   0  0  0  0  0  0  0  0  0  0  0  0
  150.7052  145.8579  158.7950 H   0  0  0  0  0  0  0  0  0  0  0  0
  152.1695  145.3446  157.9662 H   0  0  0  0  0  0  0  0  0  0  0  0
  149.7265  143.0858  159.7442 H   0  0  0  0  0  0  0  0  0  0  0  0
  148.8096  142.7819  158.2652 H   0  0  0  0  0  0  0  0  0  0  0  0
  148.8009  144.3826  158.9835 H   0  0  0  0  0  0  0  0  0  0  0  0
  152.4953  143.1142  157.4340 H   0  0  0  0  0  0  0  0  0  0  0  0
  151.5876  142.0997  158.5284 H   0  0  0  0  0  0  0  0  0  0  0  0
  149.9139  141.8299  156.4401 H   0  0  0  0  0  0  0  0  0  0  0  0
  151.2391  142.4930  155.5133 H   0  0  0  0  0  0  0  0  0  0  0  0
  152.2637  140.3966  157.1073 H   0  0  0  0  0  0  0  0  0  0  0  0
  152.7911  138.2283  154.7062 H   0  0  0  0  0  0  0  0  0  0  0  0
  152.7422  138.3891  156.4537 H   0  0  0  0  0  0  0  0  0  0  0  0
  150.1645  137.6301  157.4928 H   0  0  0  0  0  0  0  0  0  0  0  0
  148.8127  135.3603  156.7920 H   0  0  0  0  0  0  0  0  0  0  0  0
  149.0905  133.8015  154.5629 H   0  0  0  0  0  0  0  0  0  0  0  0
  150.2004  134.2668  153.3315 H   0  0  0  0  0  0  0  0  0  0  0  0
  150.2680  144.2549  157.1033 H   0  0  0  0  0  0  0  0  0  0  0  0
  1  2  1  0  0  0  0
  1 16  1  0  0  0  0
  1 17  1  0  0  0  0
  1 18  1  0  0  0  0
  2  3  1  0  0  0  0
  2  4  1  0  0  0  0
  2 33  1  0  0  0  0
  3 19  1  0  0  0  0
  3 20  1  0  0  0  0
  3 21  1  0  0  0  0
  4  5  1  0  0  0  0
  4 22  1  0  0  0  0
  4 23  1  0  0  0  0
  5  6  1  0  0  0  0
  5 24  1  0  0  0  0
  5 25  1  0  0  0  0
  6  7  1  0  0  0  0
  6 26  1  0  0  0  0
  7  8  2  0  0  0  0
  7  9  1  0  0  0  0
  9 10  1  0  0  0  0
  9 27  1  0  0  0  0
  9 28  1  0  0  0  0
 10 15  1  0  0  0  0
 10 11  1  0  0  0  0
 11 12  2  0  0  0  0
 11 29  1  0  0  0  0
 12 13  1  0  0  0  0
 12 30  1  0  0  0  0
 13 14  1  0  0  0  0
 13 15  2  0  0  0  0
 14 31  1  0  0  0  0
 14 32  1  0  0  0  0
M  CHG  1   2   1
M  END
> <s_m_source_file>
AV-unprocessed.smi

> <i_m_source_file_index>
1009

> <i_lp_mmshare_version>
43012

> <i_f3d_flags>
0

> <s_epik_input>
W0NIM11OKFtDSDNdKVtDSDJdW0NIMl1bTkhdQyg9TylbQ0gyXW4xW2NIXVtjSF1jKG4xKVtOSDJd

> <s_epik_cmdline>
J2VwaWtfcHl0aG9uJywgJy1waCcsICc3LjAnLCAnLXRuJywgJzgnLCAnLW1hJywgJzIwMCcsICctbWV0YWxfYmluZGluZycsICctaW1hZScsICc8aW5maWxlLm1hZT4nLCAnLW9tYWUnLCAnPG91dGZpbGUubWFlPic=

> <r_lp_tautomer_probability>
1

> <r_epik_Ionization_Penalty>
0.00595791

> <r_epik_Ionization_Penalty_Charging>
0.00581587

> <r_epik_Ionization_Penalty_Neutral>
0.000142034

> <r_epik_State_Penalty>
0.00427192

> <r_epik_Charging_Adjusted_Penalty>
0.0100878

> <i_epik_Tot_Q>
1

> <i_epik_Tot_abs_Q>
1

> <r_epik_Metal_State_Penalty>
-0

> <b_epik_Metal_Only>
0

> <s_lp_Force_Field>
OPLS_2005

> <r_lp_Energy>
4.99311

> <b_lp_Chiralities_Consistent>
1

> <s_lp_Variant>
AV-unprocessed.smi:1009-1

> <Gold.Version>
5.8.1

> <Gold.Id.Protein>
6NUR|6NUR_protein|mol2

> <Gold.PLP.Fitness>
35.2982

> <Gold.PLP.PLP>
-24.1101

> <Gold.PLP.part.hbond>
-3.8736

> <Gold.PLP.part.metal>
0.0000

> <Gold.PLP.part.buried>
-4.1273

> <Gold.PLP.part.nonpolar>
-16.5124

> <Gold.PLP.part.repulsive>
0.5099

> <Gold.PLP.ligand.clash>
0.0000

> <Gold.PLP.ligand.torsion>
0.4205

> <Gold.PLP.Chemscore.Hbond>
4.0000

> <Gold.PLP.Chemscore.CHOScore>
0.0000

> <Gold.PLP.Chemscore.Metal>
0.0000

> <Gold.Chemscore.Hbonds>
donor molecule, donor type, donor heavy atom, donor atom, acceptor molecule, acceptor atom, score
      L1  H     2    33       P1  8028  2.00
      P1  H  7989  7998       L1     8  1.00
      P1  H 10752 10765       L1    15  1.00

> <Gold.PLP.Chemscore.Internal.Correction>
0.0292

> <Gold.Rescore>
     Score         DG    S(hbond)    S(metal)    S(lipo)     H(rot)  DE(clash)    DE(int)     intcor
     12.85     -13.26       2.63        0.00      44.93       2.45       0.02       0.40       ----

> <Gold.Chemscore.Fitness>
12.8476

> <Gold.Chemscore.DG>
-13.2623

> <Gold.Chemscore.ZeroCoef>
-5.4800

> <Gold.Chemscore.Hbond>
2.6339

> <Gold.Chemscore.Metal>
0.0000

> <Gold.Chemscore.Lipo>
44.9255

> <Gold.Chemscore.Internal_Hbond>
0.0000

> <Gold.Chemscore.DEClash>
0.0183

> <Gold.Chemscore.DEInternal>
0.3964

> <Gold.Chemscore.Rot>
2.4497

> <Gold.Chemscore.Internal.Correction>
   9.000000E+99

> <Gold.Chemscore.Hbonds>
donor molecule, donor type, donor heavy atom, donor atom, acceptor molecule, acceptor atom, score
      L1  H     2    33       P1  8028  0.79
      P1  H  7989  7998       L1     8  0.26
      P1  H 10752 10765       L1    15  0.65

> <Gold.Chemscore.Hbond.Weighted>
-8.7973

> <Gold.Chemscore.Metal.Weighted>
-0.0000

> <Gold.Chemscore.Lipo.Weighted>
-5.2563

> <Gold.Chemscore.Internal_Hbond.Weighted>
0.0000

> <Gold.Chemscore.DEClash.Weighted>
0.0183

> <Gold.Chemscore.DEInternal.Weighted>
0.3964

> <Gold.Chemscore.Rot.Weighted>
6.2713

> <Gold.Chemscore.Internal.Correction.Weighted>
   9.000000E+99

> <Gold.Protein.RotatedTorsions>
[ 6907 6896 6895 6894 ] final   -4.05 input  -60.11 | X-H torsion
[ 7974 7965 7964 7962 ] final -143.23 input  175.53 | X-H torsion
[ 8008 7997 7996 7995 ] final    9.69 input   59.86 | X-H torsion
[ 10167 10162 10161 10158 ] final  107.20 input  -65.29 | X-H torsion
[ 10718 10713 10712 10709 ] final   23.86 input   66.30 | X-H torsion
[ 10763 10752 10751 10750 ] final  166.30 input  -60.55 | X-H torsion
[ 11005 11000 10999 10996 ] final  178.72 input  -57.11 | X-H torsion

> <Gold.Protein.ActiveResidues>
 VAL166  LYS551  ARG553  GLY616  TRP617  ASP618  TYR619  PRO620  LYS621  CYS622 
 ASP623  PHE694  ASN695  SER759  ASP760  ASP761  ALA762  ILE779  LEU786  VAL792 
 PHE793  MET794  SER795  GLU796  ALA797  LYS798  CYS799  TRP800  GLU811  SER814 

> <Gold.Protein.RotatedAtoms>
  151.5040  135.1063  159.9836 H   0  0  0  0  0  0  0  0  0  0  0  0  # atno 6907 bound_to 6896
  152.4690  133.7982  159.6949 H   0  0  0  0  0  0  0  0  0  0  0  0  # atno 6908 bound_to 6896
  150.8688  133.7472  159.2993 H   0  0  0  0  0  0  0  0  0  0  0  0  # atno 6909 bound_to 6896
  144.8385  140.5861  143.5468 H   0  0  0  0  0  0  0  0  0  0  0  0  # atno 7974 bound_to 7965
  154.7834  140.2823  155.6046 H   0  0  0  0  0  0  0  0  0  0  0  0  # atno 8008 bound_to 7997
  156.2953  140.2618  156.2593 H   0  0  0  0  0  0  0  0  0  0  0  0  # atno 8009 bound_to 7997
  154.9757  140.0375  157.2244 H   0  0  0  0  0  0  0  0  0  0  0  0  # atno 8010 bound_to 7997
  139.6946  144.7103  151.1289 H   0  0  0  0  0  0  0  0  0  0  0  0  # atno 10167 bound_to 10162
  157.1719  130.6763  149.6081 H   0  0  0  0  0  0  0  0  0  0  0  0  # atno 10718 bound_to 10713
  154.3370  135.2754  155.2442 H   0  0  0  0  0  0  0  0  0  0  0  0  # atno 10763 bound_to 10752
  154.4730  135.5878  153.6338 H   0  0  0  0  0  0  0  0  0  0  0  0  # atno 10764 bound_to 10752
  152.9861  135.6092  154.3567 H   0  0  0  0  0  0  0  0  0  0  0  0  # atno 10765 bound_to 10752
  140.3982  134.6801  157.4547 H   0  0  0  0  0  0  0  0  0  0  0  0  # atno 11005 bound_to 11000
  145.4744  139.1500  143.3796 LP  0  0  0  0  0  0  0  0  0  0  0  0  # atno 17320 bound_to 7965
  146.2681  140.4878  142.8826 LP  0  0  0  0  0  0  0  0  0  0  0  0  # atno 17321 bound_to 7965
  140.7693  143.5510  150.9205 LP  0  0  0  0  0  0  0  0  0  0  0  0  # atno 17342 bound_to 10162
  139.9189  143.6630  152.3101 LP  0  0  0  0  0  0  0  0  0  0  0  0  # atno 17343 bound_to 10162
  155.9737  130.4676  150.6330 LP  0  0  0  0  0  0  0  0  0  0  0  0  # atno 17370 bound_to 10713
  157.4035  131.0813  151.1287 LP  0  0  0  0  0  0  0  0  0  0  0  0  # atno 17371 bound_to 10713
  140.0356  134.6342  155.9048 LP  0  0  0  0  0  0  0  0  0  0  0  0  # atno 17394 bound_to 11000
  141.1866  133.6558  156.5247 LP  0  0  0  0  0  0  0  0  0  0  0  0  # atno 17395 bound_to 11000

$$$$
