AV-unprocessed.smi:12|AV-procd|sdf|68|dock4
  -GOLD-   2262015193D 1   1.00000     0.00000
 Structure written by MMmdl.
 41 44  0  0  0  0  0  0  0  0  1 V2000
  146.0047  136.9070  152.4458 C   0  0  0  0  0  0  0  0  0  0  0  0
  146.2851  138.0882  153.3571 C   0  0  0  0  0  0  0  0  0  0  0  0
  147.4031  138.8402  153.2238 C   0  0  0  0  0  0  0  0  0  0  0  0
  147.6134  139.8871  154.0771 N   0  0  0  0  0  0  0  0  0  0  0  0
  146.6556  140.1829  155.0710 C   0  0  0  0  0  0  0  0  0  0  0  0
  145.5614  139.5135  155.2612 N   0  0  0  0  0  0  0  0  0  0  0  0
  145.3016  138.4143  154.4202 C   0  0  0  0  0  0  0  0  0  0  0  0
  144.2804  137.7443  154.5668 O   0  0  0  0  0  0  0  0  0  0  0  0
  147.0730  141.2711  155.7741 O   0  0  0  0  0  0  0  0  0  0  0  0
  148.3430  141.7162  155.2758 C   0  0  1  0  0  0  0  0  0  0  0  0
  149.4349  141.4421  156.3070 C   0  0  2  0  0  0  0  0  0  0  0  0
  150.4071  142.4705  156.2861 O   0  0  0  0  0  0  0  0  0  0  0  0
  150.0071  140.0853  155.8734 C   0  0  2  0  0  0  0  0  0  0  0  0
  151.4483  139.7958  156.3137 C   0  0  0  0  0  0  0  0  0  0  0  0
  151.6883  140.4475  157.5499 O   0  0  0  0  0  0  0  0  0  0  0  0
  152.7462  140.0968  158.3055 C   0  0  0  0  0  0  0  0  0  0  0  0
  153.4914  139.1515  158.0396 O   0  0  0  0  0  0  0  0  0  0  0  0
  152.9237  140.9769  159.4964 C   0  0  0  0  0  0  0  0  0  0  0  0
  153.7700  140.5570  160.5492 C   0  0  0  0  0  0  0  0  0  0  0  0
  153.9569  141.3675  161.6858 C   0  0  0  0  0  0  0  0  0  0  0  0
  153.2982  142.6069  161.7845 C   0  0  0  0  0  0  0  0  0  0  0  0
  152.4527  143.0353  160.7447 C   0  0  0  0  0  0  0  0  0  0  0  0
  152.2655  142.2268  159.6065 C   0  0  0  0  0  0  0  0  0  0  0  0
  149.9002  140.1273  154.4560 O   0  0  0  0  0  0  0  0  0  0  0  0
  148.7454  140.8193  154.0867 C   0  0  1  0  0  0  0  0  0  0  0  0
  146.7964  136.7801  151.7070 H   0  0  0  0  0  0  0  0  0  0  0  0
  145.0649  137.0503  151.9116 H   0  0  0  0  0  0  0  0  0  0  0  0
  145.9346  135.9867  153.0265 H   0  0  0  0  0  0  0  0  0  0  0  0
  148.1343  138.6211  152.4594 H   0  0  0  0  0  0  0  0  0  0  0  0
  148.2888  142.7625  154.9711 H   0  0  0  0  0  0  0  0  0  0  0  0
  149.0303  141.3955  157.3188 H   0  0  0  0  0  0  0  0  0  0  0  0
  150.0121  143.2515  155.9294 H   0  0  0  0  0  0  0  0  0  0  0  0
  149.3483  139.2985  156.2458 H   0  0  0  0  0  0  0  0  0  0  0  0
  151.6184  138.7224  156.4082 H   0  0  0  0  0  0  0  0  0  0  0  0
  152.1457  140.1790  155.5673 H   0  0  0  0  0  0  0  0  0  0  0  0
  154.2861  139.6093  160.4958 H   0  0  0  0  0  0  0  0  0  0  0  0
  154.6072  141.0371  162.4823 H   0  0  0  0  0  0  0  0  0  0  0  0
  153.4412  143.2280  162.6566 H   0  0  0  0  0  0  0  0  0  0  0  0
  151.9459  143.9861  160.8191 H   0  0  0  0  0  0  0  0  0  0  0  0
  151.6082  142.5849  158.8277 H   0  0  0  0  0  0  0  0  0  0  0  0
  148.7631  141.2865  153.1016 H   0  0  0  0  0  0  0  0  0  0  0  0
  1  2  1  0  0  0  0
  1 26  1  0  0  0  0
  1 27  1  0  0  0  0
  1 28  1  0  0  0  0
  2  7  1  0  0  0  0
  2  3  2  0  0  0  0
  3  4  1  0  0  0  0
  3 29  1  0  0  0  0
  4 25  1  0  0  0  0
  4  5  1  0  0  0  0
  5  6  2  0  0  0  0
  5  9  1  0  0  0  0
  6  7  1  0  0  0  0
  7  8  2  0  0  0  0
  9 10  1  0  0  0  0
 10 25  1  0  0  0  0
 10 11  1  0  0  0  0
 10 30  1  0  0  0  0
 11 12  1  0  0  0  0
 11 13  1  0  0  0  0
 11 31  1  0  0  0  0
 12 32  1  0  0  0  0
 13 14  1  0  0  0  0
 13 24  1  0  0  0  0
 13 33  1  0  0  0  0
 14 15  1  0  0  0  0
 14 34  1  0  0  0  0
 14 35  1  0  0  0  0
 15 16  1  0  0  0  0
 16 17  2  0  0  0  0
 16 18  1  0  0  0  0
 18 23  1  0  0  0  0
 18 19  2  0  0  0  0
 19 20  1  0  0  0  0
 19 36  1  0  0  0  0
 20 21  2  0  0  0  0
 20 37  1  0  0  0  0
 21 22  1  0  0  0  0
 21 38  1  0  0  0  0
 22 23  2  0  0  0  0
 22 39  1  0  0  0  0
 23 40  1  0  0  0  0
 24 25  1  0  0  0  0
 25 41  1  0  0  0  0
M  END
> <s_m_source_file>
AV-unprocessed.smi

> <i_m_source_file_index>
12

> <i_lp_mmshare_version>
43012

> <i_f3d_flags>
0

> <s_epik_input>
W0NIM11jKFtjSF0xKWMoPU8pbmMobjEyKU9bQ0BIXTNbQ0BASF0yT1tDQEBIXShbQ0BASF0zW09IXSlbQ0gyXU9DKD1PKWM0W2NIXVtjSF1bY0hdW2NIXVtjSF00

> <s_epik_cmdline>
J2VwaWtfcHl0aG9uJywgJy1waCcsICc3LjAnLCAnLXRuJywgJzgnLCAnLW1hJywgJzIwMCcsICctbWV0YWxfYmluZGluZycsICctaW1hZScsICc8aW5maWxlLm1hZT4nLCAnLW9tYWUnLCAnPG91dGZpbGUubWFlPic=

> <r_lp_tautomer_probability>
0.933681

> <r_epik_Ionization_Penalty>
0.00399549

> <r_epik_Ionization_Penalty_Charging>
3.09373e-09

> <r_epik_Ionization_Penalty_Neutral>
0.00399549

> <r_epik_State_Penalty>
0.00284953

> <r_epik_Charging_Adjusted_Penalty>
0.00284953

> <i_epik_Tot_Q>
0

> <i_epik_Tot_abs_Q>
0

> <r_epik_Metal_State_Penalty>
-0

> <b_epik_Metal_Only>
0

> <s_epik_Chemistry_Notes>
This compound has an ester and may undergo hydrolysis at high or low pH. This compound contains an acetal/aminal-like group ( X-CH(R)-Y where X, Y are N, S, or O) that may be acid/base labile, releasing an aldehyde.

> <s_lp_Force_Field>
OPLS_2005

> <r_lp_Energy>
39.7302

> <b_lp_Chiralities_Consistent>
1

> <s_lp_Variant>
AV-unprocessed.smi:12-8

> <Gold.Version>
5.8.1

> <Gold.Id.Protein>
6NUR|6NUR_protein|mol2

> <Gold.PLP.Fitness>
51.0033

> <Gold.PLP.PLP>
-38.2903

> <Gold.PLP.part.hbond>
-3.0000

> <Gold.PLP.part.metal>
0.0000

> <Gold.PLP.part.buried>
-1.1013

> <Gold.PLP.part.nonpolar>
-33.7246

> <Gold.PLP.part.repulsive>
0.3372

> <Gold.PLP.ligand.clash>
0.0000

> <Gold.PLP.ligand.torsion>
0.5855

> <Gold.PLP.Chemscore.Hbond>
2.8406

> <Gold.PLP.Chemscore.CHOScore>
1.7833

> <Gold.PLP.Chemscore.Metal>
0.0000

> <Gold.Chemscore.Hbonds>
donor molecule, donor type, donor heavy atom, donor atom, acceptor molecule, acceptor atom, score
      L1  H    12    32       P1  8028  1.00
      P1  H  7989  7998       L1    24  0.81
      P1  H  7997  8010       L1    17  0.90
      L1  C     3    29       P1  7948  0.83
      L1  C     3    29       P1  7957  1.00

> <Gold.PLP.Chemscore.Internal.Correction>
0.0124

> <Gold.Rescore>
     Score         DG    S(hbond)    S(metal)    S(lipo)     H(rot)  DE(clash)    DE(int)     intcor
     16.76     -20.17       2.58        0.00      99.47       2.18       1.36       2.05       ----

> <Gold.Chemscore.Fitness>
16.7553

> <Gold.Chemscore.DG>
-20.1677

> <Gold.Chemscore.ZeroCoef>
-5.4800

> <Gold.Chemscore.Hbond>
2.5838

> <Gold.Chemscore.Metal>
0.0000

> <Gold.Chemscore.Lipo>
99.4745

> <Gold.Chemscore.Internal_Hbond>
0.0000

> <Gold.Chemscore.DEClash>
1.3616

> <Gold.Chemscore.DEInternal>
2.0508

> <Gold.Chemscore.Rot>
2.1800

> <Gold.Chemscore.Internal.Correction>
   9.000000E+99

> <Gold.Chemscore.Hbonds>
donor molecule, donor type, donor heavy atom, donor atom, acceptor molecule, acceptor atom, score
      L1  H    12    32       P1  8028  1.00
      P1  H  7989  7998       L1    24  0.54
      P1  H  7997  8010       L1    17  0.18

> <Gold.Chemscore.Hbond.Weighted>
-8.6299

> <Gold.Chemscore.Metal.Weighted>
-0.0000

> <Gold.Chemscore.Lipo.Weighted>
-11.6385

> <Gold.Chemscore.Internal_Hbond.Weighted>
0.0000

> <Gold.Chemscore.DEClash.Weighted>
1.3616

> <Gold.Chemscore.DEInternal.Weighted>
2.0508

> <Gold.Chemscore.Rot.Weighted>
5.5807

> <Gold.Chemscore.Internal.Correction.Weighted>
   9.000000E+99

> <Gold.Protein.RotatedTorsions>
[ 6907 6896 6895 6894 ] final -144.55 input  -60.11 | X-H torsion
[ 7974 7965 7964 7962 ] final  -96.52 input  175.53 | X-H torsion
[ 8008 7997 7996 7995 ] final   29.51 input   59.86 | X-H torsion
[ 10167 10162 10161 10158 ] final  105.97 input  -65.29 | X-H torsion
[ 10718 10713 10712 10709 ] final -107.13 input   66.30 | X-H torsion
[ 10763 10752 10751 10750 ] final   79.17 input  -60.55 | X-H torsion
[ 11005 11000 10999 10996 ] final   79.41 input  -57.11 | X-H torsion

> <Gold.Protein.ActiveResidues>
 VAL166  LYS551  ARG553  GLY616  TRP617  ASP618  TYR619  PRO620  LYS621  CYS622 
 ASP623  PHE694  ASN695  SER759  ASP760  ASP761  ALA762  ILE779  LEU786  VAL792 
 PHE793  MET794  SER795  GLU796  ALA797  LYS798  CYS799  TRP800  GLU811  SER814 

> <Gold.Protein.RotatedAtoms>
  151.1156  133.5141  159.2603 H   0  0  0  0  0  0  0  0  0  0  0  0  # atno 6907 bound_to 6896
  151.1918  135.0405  159.8845 H   0  0  0  0  0  0  0  0  0  0  0  0  # atno 6908 bound_to 6896
  152.5453  134.0996  159.8365 H   0  0  0  0  0  0  0  0  0  0  0  0  # atno 6909 bound_to 6896
  145.3458  140.9468  143.2582 H   0  0  0  0  0  0  0  0  0  0  0  0  # atno 7974 bound_to 7965
  155.0757  140.3205  155.4617 H   0  0  0  0  0  0  0  0  0  0  0  0  # atno 8008 bound_to 7997
  156.2780  140.2104  156.5830 H   0  0  0  0  0  0  0  0  0  0  0  0  # atno 8009 bound_to 7997
  154.7019  140.0506  157.0453 H   0  0  0  0  0  0  0  0  0  0  0  0  # atno 8010 bound_to 7997
  139.7048  144.7088  151.1125 H   0  0  0  0  0  0  0  0  0  0  0  0  # atno 10167 bound_to 10162
  156.0422  130.5647  150.7778 H   0  0  0  0  0  0  0  0  0  0  0  0  # atno 10718 bound_to 10713
  153.0932  135.4849  154.8729 H   0  0  0  0  0  0  0  0  0  0  0  0  # atno 10763 bound_to 10752
  154.7293  135.3056  154.8920 H   0  0  0  0  0  0  0  0  0  0  0  0  # atno 10764 bound_to 10752
  153.9560  135.6818  153.4798 H   0  0  0  0  0  0  0  0  0  0  0  0  # atno 10765 bound_to 10752
  139.9174  134.7840  156.1775 H   0  0  0  0  0  0  0  0  0  0  0  0  # atno 11005 bound_to 11000
  144.8755  139.4977  143.6747 LP  0  0  0  0  0  0  0  0  0  0  0  0  # atno 17320 bound_to 7965
  146.2989  139.7363  142.9106 LP  0  0  0  0  0  0  0  0  0  0  0  0  # atno 17321 bound_to 7965
  140.7719  143.5374  150.9352 LP  0  0  0  0  0  0  0  0  0  0  0  0  # atno 17342 bound_to 10162
  139.9057  143.6781  152.3124 LP  0  0  0  0  0  0  0  0  0  0  0  0  # atno 17343 bound_to 10162
  157.5254  131.0934  151.0024 LP  0  0  0  0  0  0  0  0  0  0  0  0  # atno 17370 bound_to 10713
  157.0344  130.5724  149.5347 LP  0  0  0  0  0  0  0  0  0  0  0  0  # atno 17371 bound_to 10713
  141.0662  133.6818  156.2050 LP  0  0  0  0  0  0  0  0  0  0  0  0  # atno 17394 bound_to 11000
  140.6581  134.4997  157.5582 LP  0  0  0  0  0  0  0  0  0  0  0  0  # atno 17395 bound_to 11000

$$$$
