AV-unprocessed.smi:787|AV-procd|sdf|3725|dock9
  -GOLD-   22720 1153D 1   1.00000     0.00000
 Structure written by MMmdl.
 47 49  0  0  0  0  0  0  0  0  2 V2000
  148.5572  133.1352  153.5660 C   0  0  0  0  0  0  0  0  0  0  0  0
  147.6820  133.9655  152.7535 N   0  0  0  0  0  0  0  0  0  0  0  0
  146.5834  133.3988  152.0918 C   0  0  0  0  0  0  0  0  0  0  0  0
  146.2786  132.0953  152.2892 N   0  0  0  0  0  0  0  0  0  0  0  0
  145.2322  131.5879  151.6251 C   0  0  0  0  0  0  0  0  0  0  0  0
  144.4082  132.1942  150.7568 N   0  0  0  0  0  0  0  0  0  0  0  0
  144.6997  133.4862  150.5564 C   0  0  0  0  0  0  0  0  0  0  0  0
  144.0224  134.3473  149.7108 N   0  0  0  0  0  0  0  0  0  0  0  0
  144.6996  135.4791  149.8796 C   0  0  0  0  0  0  0  0  0  0  0  0
  145.7273  135.4688  150.7524 N   0  0  0  0  0  0  0  0  0  0  0  0
  146.5655  136.6047  151.1119 C   0  0  0  0  0  0  0  0  0  0  0  0
  145.9159  137.5517  152.1486 C   0  0  2  0  0  0  0  0  0  0  0  0
  144.6481  137.9667  151.6779 O   0  0  0  0  0  0  0  0  0  0  0  0
  146.7553  138.8140  152.4359 C   0  0  0  0  0  0  0  0  0  0  0  0
  146.1902  139.6197  153.5500 N   0  3  1  0  0  0  0  0  0  0  0  0
  145.8452  138.7976  154.7321 C   0  0  0  0  0  0  0  0  0  0  0  0
  147.0199  140.7970  153.9102 C   0  0  0  0  0  0  0  0  0  0  0  0
  146.1641  141.9872  154.3119 C   0  0  0  0  0  0  0  0  0  0  0  0
  146.0345  143.0996  153.4523 C   0  0  0  0  0  0  0  0  0  0  0  0
  145.2211  144.1886  153.8209 C   0  0  0  0  0  0  0  0  0  0  0  0
  144.5398  144.1736  155.0533 C   0  0  0  0  0  0  0  0  0  0  0  0
  144.6728  143.0694  155.9174 C   0  0  0  0  0  0  0  0  0  0  0  0
  145.4836  141.9787  155.5479 C   0  0  0  0  0  0  0  0  0  0  0  0
  145.7813  134.1518  151.2096 C   0  0  0  0  0  0  0  0  0  0  0  0
  149.3742  133.7355  153.9662 H   0  0  0  0  0  0  0  0  0  0  0  0
  148.9864  132.3284  152.9711 H   0  0  0  0  0  0  0  0  0  0  0  0
  148.0108  132.7003  154.4037 H   0  0  0  0  0  0  0  0  0  0  0  0
  147.9808  134.8994  152.5147 H   0  0  0  0  0  0  0  0  0  0  0  0
  145.0254  130.5445  151.8112 H   0  0  0  0  0  0  0  0  0  0  0  0
  144.4177  136.3780  149.3510 H   0  0  0  0  0  0  0  0  0  0  0  0
  147.5243  136.2362  151.4763 H   0  0  0  0  0  0  0  0  0  0  0  0
  146.7885  137.1613  150.2006 H   0  0  0  0  0  0  0  0  0  0  0  0
  145.7607  136.9917  153.0707 H   0  0  0  0  0  0  0  0  0  0  0  0
  144.5177  138.8740  151.9102 H   0  0  0  0  0  0  0  0  0  0  0  0
  147.7882  138.5460  152.6632 H   0  0  0  0  0  0  0  0  0  0  0  0
  146.8007  139.4132  151.5286 H   0  0  0  0  0  0  0  0  0  0  0  0
  146.7414  138.3750  155.1886 H   0  0  0  0  0  0  0  0  0  0  0  0
  145.1809  137.9771  154.4606 H   0  0  0  0  0  0  0  0  0  0  0  0
  145.3314  139.3988  155.4832 H   0  0  0  0  0  0  0  0  0  0  0  0
  147.6630  140.5524  154.7569 H   0  0  0  0  0  0  0  0  0  0  0  0
  147.6807  141.0581  153.0819 H   0  0  0  0  0  0  0  0  0  0  0  0
  146.5498  143.1185  152.5030 H   0  0  0  0  0  0  0  0  0  0  0  0
  145.1187  145.0356  153.1581 H   0  0  0  0  0  0  0  0  0  0  0  0
  143.9162  145.0092  155.3361 H   0  0  0  0  0  0  0  0  0  0  0  0
  144.1507  143.0582  156.8628 H   0  0  0  0  0  0  0  0  0  0  0  0
  145.5762  141.1331  156.2138 H   0  0  0  0  0  0  0  0  0  0  0  0
  145.3217  140.0017  153.2025 H   0  0  0  0  0  0  0  0  0  0  0  0
  1  2  1  0  0  0  0
  1 25  1  0  0  0  0
  1 26  1  0  0  0  0
  1 27  1  0  0  0  0
  2  3  1  0  0  0  0
  2 28  1  0  0  0  0
  3 24  1  0  0  0  0
  3  4  2  0  0  0  0
  4  5  1  0  0  0  0
  5  6  2  0  0  0  0
  5 29  1  0  0  0  0
  6  7  1  0  0  0  0
  7 24  2  0  0  0  0
  7  8  1  0  0  0  0
  8  9  2  0  0  0  0
  9 10  1  0  0  0  0
  9 30  1  0  0  0  0
 10 11  1  0  0  0  0
 10 24  1  0  0  0  0
 11 12  1  0  0  0  0
 11 31  1  0  0  0  0
 11 32  1  0  0  0  0
 12 13  1  0  0  0  0
 12 14  1  0  0  0  0
 12 33  1  0  0  0  0
 13 34  1  0  0  0  0
 14 15  1  0  0  0  0
 14 35  1  0  0  0  0
 14 36  1  0  0  0  0
 15 16  1  0  0  0  0
 15 17  1  0  0  0  0
 15 47  1  0  0  0  0
 16 37  1  0  0  0  0
 16 38  1  0  0  0  0
 16 39  1  0  0  0  0
 17 18  1  0  0  0  0
 17 40  1  0  0  0  0
 17 41  1  0  0  0  0
 18 23  1  0  0  0  0
 18 19  2  0  0  0  0
 19 20  1  0  0  0  0
 19 42  1  0  0  0  0
 20 21  2  0  0  0  0
 20 43  1  0  0  0  0
 21 22  1  0  0  0  0
 21 44  1  0  0  0  0
 22 23  2  0  0  0  0
 22 45  1  0  0  0  0
 23 46  1  0  0  0  0
M  CHG  1  15   1
M  END
> <s_m_source_file>
AV-unprocessed.smi

> <i_m_source_file_index>
787

> <i_lp_mmshare_version>
43012

> <i_f3d_flags>
0

> <s_epik_input>
bjFbY0hdbmMoW05IXVtDSDNdKWMoYzEyKW4oW2NIXW4yKVtDSDJdW0NASF0oW09IXSlbQ0gyXU4oW0NIM10pW0NIMl1jM1tjSF1bY0hdW2NIXVtjSF1bY0hdMw==

> <s_epik_cmdline>
J2VwaWtfcHl0aG9uJywgJy1waCcsICc3LjAnLCAnLXRuJywgJzgnLCAnLW1hJywgJzIwMCcsICctbWV0YWxfYmluZGluZycsICctaW1hZScsICc8aW5maWxlLm1hZT4nLCAnLW9tYWUnLCAnPG91dGZpbGUubWFlPic=

> <r_lp_tautomer_probability>
0.999987

> <r_epik_Ionization_Penalty>
0.0526284

> <r_epik_Ionization_Penalty_Charging>
0.0475377

> <r_epik_Ionization_Penalty_Neutral>
0.00509065

> <r_epik_State_Penalty>
0.0404888

> <r_epik_Charging_Adjusted_Penalty>
0.0880265

> <i_epik_Tot_Q>
1

> <i_epik_Tot_abs_Q>
1

> <r_epik_Metal_State_Penalty>
0.040507

> <b_epik_Metal_Only>
0

> <s_lp_Force_Field>
OPLS_2005

> <r_lp_Energy>
14.0859

> <b_lp_Chiralities_Consistent>
1

> <s_lp_Variant>
AV-unprocessed.smi:787-1

> <Gold.Version>
5.8.1

> <Gold.Id.Protein>
6NUR|6NUR_protein|mol2

> <Gold.PLP.Fitness>
53.6518

> <Gold.PLP.PLP>
-40.1337

> <Gold.PLP.part.hbond>
-3.5328

> <Gold.PLP.part.metal>
0.0000

> <Gold.PLP.part.buried>
-3.4190

> <Gold.PLP.part.nonpolar>
-35.1114

> <Gold.PLP.part.repulsive>
2.5090

> <Gold.PLP.ligand.clash>
0.0000

> <Gold.PLP.ligand.torsion>
0.9073

> <Gold.PLP.Chemscore.Hbond>
4.0000

> <Gold.PLP.Chemscore.CHOScore>
1.0000

> <Gold.PLP.Chemscore.Metal>
0.0000

> <Gold.Chemscore.Hbonds>
donor molecule, donor type, donor heavy atom, donor atom, acceptor molecule, acceptor atom, score
      L1  H     2    28       P1  7948  1.00
      L1  H    13    34       P1 10175  1.00
      L1  H    15    47       P1 10175  2.00
      L1  C     9    30       P1 10171  1.00

> <Gold.PLP.Chemscore.Internal.Correction>
0.3326

> <Gold.Rescore>
     Score         DG    S(hbond)    S(metal)    S(lipo)     H(rot)  DE(clash)    DE(int)     intcor
     11.30     -16.69       2.89        0.00      83.07       3.19       4.16       1.23       ----

> <Gold.Chemscore.Fitness>
11.2967

> <Gold.Chemscore.DG>
-16.6925

> <Gold.Chemscore.ZeroCoef>
-5.4800

> <Gold.Chemscore.Hbond>
2.8943

> <Gold.Chemscore.Metal>
0.0000

> <Gold.Chemscore.Lipo>
83.0708

> <Gold.Chemscore.Internal_Hbond>
0.0000

> <Gold.Chemscore.DEClash>
4.1622

> <Gold.Chemscore.DEInternal>
1.2336

> <Gold.Chemscore.Rot>
3.1928

> <Gold.Chemscore.Internal.Correction>
   9.000000E+99

> <Gold.Chemscore.Hbonds>
donor molecule, donor type, donor heavy atom, donor atom, acceptor molecule, acceptor atom, score
      L1  H     2    28       P1  7948  0.82
      L1  H    13    34       P1 10175  0.99
      L1  H    15    47       P1 10175  1.00

> <Gold.Chemscore.Hbond.Weighted>
-9.6668

> <Gold.Chemscore.Metal.Weighted>
-0.0000

> <Gold.Chemscore.Lipo.Weighted>
-9.7193

> <Gold.Chemscore.Internal_Hbond.Weighted>
0.0000

> <Gold.Chemscore.DEClash.Weighted>
4.1622

> <Gold.Chemscore.DEInternal.Weighted>
1.2336

> <Gold.Chemscore.Rot.Weighted>
8.1736

> <Gold.Chemscore.Internal.Correction.Weighted>
   9.000000E+99

> <Gold.Protein.RotatedTorsions>
[ 6907 6896 6895 6894 ] final  -14.71 input  -60.11 | X-H torsion
[ 7974 7965 7964 7962 ] final   90.58 input  175.53 | X-H torsion
[ 8008 7997 7996 7995 ] final   44.97 input   59.86 | X-H torsion
[ 10167 10162 10161 10158 ] final  178.37 input  -65.29 | X-H torsion
[ 10718 10713 10712 10709 ] final -144.72 input   66.30 | X-H torsion
[ 10763 10752 10751 10750 ] final  118.20 input  -60.55 | X-H torsion
[ 11005 11000 10999 10996 ] final  148.42 input  -57.11 | X-H torsion

> <Gold.Protein.ActiveResidues>
 VAL166  LYS551  ARG553  GLY616  TRP617  ASP618  TYR619  PRO620  LYS621  CYS622 
 ASP623  PHE694  ASN695  SER759  ASP760  ASP761  ALA762  ILE779  LEU786  VAL792 
 PHE793  MET794  SER795  GLU796  ALA797  LYS798  CYS799  TRP800  GLU811  SER814 

> <Gold.Protein.RotatedAtoms>
  151.3351  135.0851  159.9351 H   0  0  0  0  0  0  0  0  0  0  0  0  # atno 6907 bound_to 6896
  152.5225  133.9503  159.7679 H   0  0  0  0  0  0  0  0  0  0  0  0  # atno 6908 bound_to 6896
  150.9849  133.6154  159.2746 H   0  0  0  0  0  0  0  0  0  0  0  0  # atno 6909 bound_to 6896
  145.5171  139.2278  143.2692 H   0  0  0  0  0  0  0  0  0  0  0  0  # atno 7974 bound_to 7965
  155.3282  140.3401  155.4240 H   0  0  0  0  0  0  0  0  0  0  0  0  # atno 8008 bound_to 7997
  156.1875  140.1686  156.8193 H   0  0  0  0  0  0  0  0  0  0  0  0  # atno 8009 bound_to 7997
  154.5403  140.0726  156.8482 H   0  0  0  0  0  0  0  0  0  0  0  0  # atno 8010 bound_to 7997
  139.5291  144.2688  152.0645 H   0  0  0  0  0  0  0  0  0  0  0  0  # atno 10167 bound_to 10162
  156.3736  130.7801  151.1984 H   0  0  0  0  0  0  0  0  0  0  0  0  # atno 10718 bound_to 10713
  153.5641  135.3515  155.2811 H   0  0  0  0  0  0  0  0  0  0  0  0  # atno 10763 bound_to 10752
  154.8691  135.4143  154.2798 H   0  0  0  0  0  0  0  0  0  0  0  0  # atno 10764 bound_to 10752
  153.3550  135.7057  153.6827 H   0  0  0  0  0  0  0  0  0  0  0  0  # atno 10765 bound_to 10752
  140.0958  134.9013  157.1721 H   0  0  0  0  0  0  0  0  0  0  0  0  # atno 11005 bound_to 11000
  146.2129  140.5981  142.9051 LP  0  0  0  0  0  0  0  0  0  0  0  0  # atno 17320 bound_to 7965
  144.7696  140.5607  143.6679 LP  0  0  0  0  0  0  0  0  0  0  0  0  # atno 17321 bound_to 7965
  140.2149  144.4525  150.6368 LP  0  0  0  0  0  0  0  0  0  0  0  0  # atno 17342 bound_to 10162
  140.6456  143.2213  151.6193 LP  0  0  0  0  0  0  0  0  0  0  0  0  # atno 17343 bound_to 10162
  157.7486  131.0365  150.4412 LP  0  0  0  0  0  0  0  0  0  0  0  0  # atno 17370 bound_to 10713
  156.4643  130.4039  149.6557 LP  0  0  0  0  0  0  0  0  0  0  0  0  # atno 17371 bound_to 10713
  140.3288  134.2833  155.7232 LP  0  0  0  0  0  0  0  0  0  0  0  0  # atno 17394 bound_to 11000
  141.2091  133.7757  157.0014 LP  0  0  0  0  0  0  0  0  0  0  0  0  # atno 17395 bound_to 11000

$$$$
