AV-unprocessed.smi:1327|AV-procd|sdf|5478|dock10
  -GOLD-   22720 5 53D 1   1.00000     0.00000
 Structure written by MMmdl.
 39 40  0  0  0  0  0  0  0  0  2 V2000
  154.9744  138.7321  158.8855 O   0  0  0  0  0  0  0  0  0  0  0  0
  155.3174  139.0075  160.2901 S   0  0  0  0  0  0  0  0  0  0  0  0
  156.7369  138.9288  160.6743 O   0  0  0  0  0  0  0  0  0  0  0  0
  154.5460  140.3082  160.8793 N   0  5  0  0  0  0  0  0  0  0  0  0
  153.7198  141.1146  159.9955 C   0  0  0  0  0  0  0  0  0  0  0  0
  152.7760  142.0382  160.8046 C   0  0  0  0  0  0  0  0  0  0  0  0
  152.1941  143.2254  160.0404 C   0  0  0  0  0  0  0  0  0  0  0  0
  152.1621  144.5152  160.6188 C   0  0  0  0  0  0  0  0  0  0  0  0
  151.5985  145.5720  159.8784 C   0  0  0  0  0  0  0  0  0  0  0  0
  151.0986  145.3074  158.5891 C   0  0  0  0  0  0  0  0  0  0  0  0
  151.1874  143.9917  158.0942 C   0  0  0  0  0  0  0  0  0  0  0  0
  151.7271  142.9718  158.7938 N   0  0  0  0  0  0  0  0  0  0  0  0
  154.4825  137.8133  161.2433 N   0  0  0  0  0  0  0  0  0  0  0  0
  154.5223  137.9757  162.7145 C   0  0  0  0  0  0  0  0  0  0  0  0
  153.8611  136.8473  163.5305 C   0  0  0  0  0  0  0  0  0  0  0  0
  154.7523  135.6075  163.7045 C   0  0  0  0  0  0  0  0  0  0  0  0
  154.8043  134.7036  162.4684 C   0  0  0  0  0  0  0  0  0  0  0  0
  155.2895  135.4189  161.2014 C   0  0  0  0  0  0  0  0  0  0  0  0
  154.2860  136.4611  160.6748 C   0  0  0  0  0  0  0  0  0  0  0  0
  154.3141  141.7209  159.3106 H   0  0  0  0  0  0  0  0  0  0  0  0
  153.1076  140.4775  159.3570 H   0  0  0  0  0  0  0  0  0  0  0  0
  151.9440  141.4453  161.1857 H   0  0  0  0  0  0  0  0  0  0  0  0
  153.2997  142.4080  161.6878 H   0  0  0  0  0  0  0  0  0  0  0  0
  152.5463  144.6855  161.6137 H   0  0  0  0  0  0  0  0  0  0  0  0
  151.5479  146.5674  160.2936 H   0  0  0  0  0  0  0  0  0  0  0  0
  150.6567  146.0926  157.9943 H   0  0  0  0  0  0  0  0  0  0  0  0
  150.8143  143.7506  157.1100 H   0  0  0  0  0  0  0  0  0  0  0  0
  155.5576  138.1031  163.0333 H   0  0  0  0  0  0  0  0  0  0  0  0
  154.0204  138.9133  162.9538 H   0  0  0  0  0  0  0  0  0  0  0  0
  153.6651  137.2438  164.5271 H   0  0  0  0  0  0  0  0  0  0  0  0
  152.8822  136.5828  163.1293 H   0  0  0  0  0  0  0  0  0  0  0  0
  155.7614  135.9111  163.9866 H   0  0  0  0  0  0  0  0  0  0  0  0
  154.3741  135.0182  164.5405 H   0  0  0  0  0  0  0  0  0  0  0  0
  155.4694  133.8653  162.6775 H   0  0  0  0  0  0  0  0  0  0  0  0
  153.8209  134.2677  162.2897 H   0  0  0  0  0  0  0  0  0  0  0  0
  156.2747  135.8583  161.3567 H   0  0  0  0  0  0  0  0  0  0  0  0
  155.4255  134.6630  160.4276 H   0  0  0  0  0  0  0  0  0  0  0  0
  153.2600  136.1376  160.8498 H   0  0  0  0  0  0  0  0  0  0  0  0
  154.3812  136.5151  159.5917 H   0  0  0  0  0  0  0  0  0  0  0  0
  1  2  2  0  0  0  0
  2  3  2  0  0  0  0
  2  4  1  0  0  0  0
  2 13  1  0  0  0  0
  4  5  1  0  0  0  0
  5  6  1  0  0  0  0
  5 20  1  0  0  0  0
  5 21  1  0  0  0  0
  6  7  1  0  0  0  0
  6 22  1  0  0  0  0
  6 23  1  0  0  0  0
  7 12  1  0  0  0  0
  7  8  2  0  0  0  0
  8  9  1  0  0  0  0
  8 24  1  0  0  0  0
  9 10  2  0  0  0  0
  9 25  1  0  0  0  0
 10 11  1  0  0  0  0
 10 26  1  0  0  0  0
 11 12  2  0  0  0  0
 11 27  1  0  0  0  0
 13 19  1  0  0  0  0
 13 14  1  0  0  0  0
 14 15  1  0  0  0  0
 14 28  1  0  0  0  0
 14 29  1  0  0  0  0
 15 16  1  0  0  0  0
 15 30  1  0  0  0  0
 15 31  1  0  0  0  0
 16 17  1  0  0  0  0
 16 32  1  0  0  0  0
 16 33  1  0  0  0  0
 17 18  1  0  0  0  0
 17 34  1  0  0  0  0
 17 35  1  0  0  0  0
 18 19  1  0  0  0  0
 18 36  1  0  0  0  0
 18 37  1  0  0  0  0
 19 38  1  0  0  0  0
 19 39  1  0  0  0  0
M  CHG  1   4  -1
M  END
> <s_m_source_file>
AV-unprocessed.smi

> <i_m_source_file_index>
1327

> <i_lp_mmshare_version>
43012

> <i_f3d_flags>
0

> <s_epik_input>
W0NIMl0xW0NIMl1bQ0gyXVtDSDJdW0NIMl1bQ0gyXU4xUyg9TykoPU8pW05IXVtDSDJdW0NIMl1jMltjSF1bY0hdW2NIXVtjSF1uMg==

> <s_epik_cmdline>
J2VwaWtfcHl0aG9uJywgJy1waCcsICc3LjAnLCAnLXRuJywgJzgnLCAnLW1hJywgJzIwMCcsICctbWV0YWxfYmluZGluZycsICctaW1hZScsICc8aW5maWxlLm1hZT4nLCAnLW9tYWUnLCAnPG91dGZpbGUubWFlPic=

> <r_lp_tautomer_probability>
1

> <r_epik_Ionization_Penalty>
3.18796

> <r_epik_Ionization_Penalty_Charging>
3.10426

> <r_epik_Ionization_Penalty_Neutral>
0.0836926

> <r_epik_State_Penalty>
3.10111

> <r_epik_Charging_Adjusted_Penalty>
6.20538

> <i_epik_Tot_Q>
-1

> <i_epik_Tot_abs_Q>
1

> <r_epik_Metal_State_Penalty>
0.463976

> <b_epik_Metal_Only>
1

> <s_lp_Force_Field>
OPLS_2005

> <r_lp_Energy>
9.11233

> <b_lp_Chiralities_Consistent>
1

> <s_lp_Variant>
AV-unprocessed.smi:1327-2

> <Gold.Version>
5.8.1

> <Gold.Id.Protein>
6NUR|6NUR_protein|mol2

> <Gold.PLP.Fitness>
45.8394

> <Gold.PLP.PLP>
-40.9412

> <Gold.PLP.part.hbond>
-1.0000

> <Gold.PLP.part.metal>
0.0000

> <Gold.PLP.part.buried>
-4.5529

> <Gold.PLP.part.nonpolar>
-34.4856

> <Gold.PLP.part.repulsive>
0.0370

> <Gold.PLP.ligand.clash>
0.0000

> <Gold.PLP.ligand.torsion>
2.0324

> <Gold.PLP.Chemscore.Hbond>
1.0000

> <Gold.PLP.Chemscore.CHOScore>
0.9606

> <Gold.PLP.Chemscore.Metal>
0.0000

> <Gold.Chemscore.Hbonds>
donor molecule, donor type, donor heavy atom, donor atom, acceptor molecule, acceptor atom, score
      P1  H  7997  8009       L1     1  1.00
      L1  C    11    27       P1  8028  0.87

> <Gold.PLP.Chemscore.Internal.Correction>
3.0810

> <Gold.Rescore>
     Score         DG    S(hbond)    S(metal)    S(lipo)     H(rot)  DE(clash)    DE(int)     intcor
     17.02     -19.07       0.98        0.00     116.14       1.27       0.03       2.01       ----

> <Gold.Chemscore.Fitness>
17.0246

> <Gold.Chemscore.DG>
-19.0665

> <Gold.Chemscore.ZeroCoef>
-5.4800

> <Gold.Chemscore.Hbond>
0.9757

> <Gold.Chemscore.Metal>
0.0000

> <Gold.Chemscore.Lipo>
116.1438

> <Gold.Chemscore.Internal_Hbond>
0.0000

> <Gold.Chemscore.DEClash>
0.0319

> <Gold.Chemscore.DEInternal>
2.0100

> <Gold.Chemscore.Rot>
1.2738

> <Gold.Chemscore.Internal.Correction>
   9.000000E+99

> <Gold.Chemscore.Hbonds>
donor molecule, donor type, donor heavy atom, donor atom, acceptor molecule, acceptor atom, score
      P1  H  7997  8009       L1     1  0.96

> <Gold.Chemscore.Hbond.Weighted>
-3.2587

> <Gold.Chemscore.Metal.Weighted>
-0.0000

> <Gold.Chemscore.Lipo.Weighted>
-13.5888

> <Gold.Chemscore.Internal_Hbond.Weighted>
0.0000

> <Gold.Chemscore.DEClash.Weighted>
0.0319

> <Gold.Chemscore.DEInternal.Weighted>
2.0100

> <Gold.Chemscore.Rot.Weighted>
3.2610

> <Gold.Chemscore.Internal.Correction.Weighted>
   9.000000E+99

> <Gold.Protein.RotatedTorsions>
[ 6907 6896 6895 6894 ] final   79.15 input  -60.11 | X-H torsion
[ 7974 7965 7964 7962 ] final -162.21 input  175.53 | X-H torsion
[ 8008 7997 7996 7995 ] final  117.11 input   59.86 | X-H torsion
[ 10167 10162 10161 10158 ] final   -4.52 input  -65.29 | X-H torsion
[ 10718 10713 10712 10709 ] final  -79.85 input   66.30 | X-H torsion
[ 10763 10752 10751 10750 ] final  -14.67 input  -60.55 | X-H torsion
[ 11005 11000 10999 10996 ] final -174.63 input  -57.11 | X-H torsion

> <Gold.Protein.ActiveResidues>
 VAL166  LYS551  ARG553  GLY616  TRP617  ASP618  TYR619  PRO620  LYS621  CYS622 
 ASP623  PHE694  ASN695  SER759  ASP760  ASP761  ALA762  ILE779  LEU786  VAL792 
 PHE793  MET794  SER795  GLU796  ALA797  LYS798  CYS799  TRP800  GLU811  SER814 

> <Gold.Protein.RotatedAtoms>
  152.5187  134.3555  159.9265 H   0  0  0  0  0  0  0  0  0  0  0  0  # atno 6907 bound_to 6896
  151.3506  133.3920  159.2687 H   0  0  0  0  0  0  0  0  0  0  0  0  # atno 6908 bound_to 6896
  150.9730  134.9118  159.7857 H   0  0  0  0  0  0  0  0  0  0  0  0  # atno 6909 bound_to 6896
  144.7365  140.3286  143.6157 H   0  0  0  0  0  0  0  0  0  0  0  0  # atno 7974 bound_to 7965
  156.2476  140.2903  156.0627 H   0  0  0  0  0  0  0  0  0  0  0  0  # atno 8008 bound_to 7997
  155.1757  140.0403  157.2889 H   0  0  0  0  0  0  0  0  0  0  0  0  # atno 8009 bound_to 7997
  154.6294  140.2495  155.7459 H   0  0  0  0  0  0  0  0  0  0  0  0  # atno 8010 bound_to 7997
  140.6930  143.6413  150.8432 H   0  0  0  0  0  0  0  0  0  0  0  0  # atno 10167 bound_to 10162
  156.0083  130.4557  150.3711 H   0  0  0  0  0  0  0  0  0  0  0  0  # atno 10718 bound_to 10713
  153.5317  135.7014  153.5680 H   0  0  0  0  0  0  0  0  0  0  0  0  # atno 10763 bound_to 10752
  153.3684  135.3951  155.1770 H   0  0  0  0  0  0  0  0  0  0  0  0  # atno 10764 bound_to 10752
  154.8684  135.3806  154.4815 H   0  0  0  0  0  0  0  0  0  0  0  0  # atno 10765 bound_to 10752
  140.4723  134.6153  157.4887 H   0  0  0  0  0  0  0  0  0  0  0  0  # atno 11005 bound_to 11000
  145.7495  139.1789  143.2330 LP  0  0  0  0  0  0  0  0  0  0  0  0  # atno 17320 bound_to 7965
  146.1072  140.7473  142.9521 LP  0  0  0  0  0  0  0  0  0  0  0  0  # atno 17321 bound_to 7965
  140.0129  143.5624  152.2832 LP  0  0  0  0  0  0  0  0  0  0  0  0  # atno 17342 bound_to 10162
  139.6354  144.7649  151.2449 LP  0  0  0  0  0  0  0  0  0  0  0  0  # atno 17343 bound_to 10162
  157.1795  131.0388  151.2755 LP  0  0  0  0  0  0  0  0  0  0  0  0  # atno 17370 bound_to 10713
  157.4158  130.7410  149.6874 LP  0  0  0  0  0  0  0  0  0  0  0  0  # atno 17371 bound_to 10713
  139.9877  134.7035  155.9744 LP  0  0  0  0  0  0  0  0  0  0  0  0  # atno 17394 bound_to 11000
  141.1571  133.6542  156.4196 LP  0  0  0  0  0  0  0  0  0  0  0  0  # atno 17395 bound_to 11000

$$$$
