AV-unprocessed.smi:3105|AV-procd|sdf|11820|dock4
  -GOLD-   2272017193D 1   1.00000     0.00000
 Structure written by MMmdl.
 34 34  0  0  0  0  0  0  0  0  2 V2000
  149.0956  140.1996  157.6270 C   0  0  0  0  0  0  0  0  0  0  0  0
  149.1678  141.4289  156.6960 C   0  0  1  0  0  0  0  0  0  0  0  0
  148.3594  142.5400  157.2505 N   0  3  0  0  0  0  0  0  0  0  0  0
  146.8943  142.3593  157.1751 C   0  0  0  0  0  0  0  0  0  0  0  0
  146.1826  143.2055  158.2455 C   0  0  0  0  0  0  0  0  0  0  0  0
  146.9861  143.3437  159.5431 C   0  0  0  0  0  0  0  0  0  0  0  0
  148.0590  144.1371  159.5020 N   0  0  0  0  0  0  0  0  0  0  0  0
  146.6506  142.7522  160.5673 O   0  0  0  0  0  0  0  0  0  0  0  0
  150.6225  141.9131  156.4500 C   0  0  2  0  0  0  0  0  0  0  0  0
  151.5628  140.7684  156.0247 C   0  0  0  0  0  0  0  0  0  0  0  0
  151.1780  142.6082  157.6047 N   0  0  0  0  0  0  0  0  0  0  0  0
  151.4036  143.9607  157.7610 C   0  0  0  0  0  0  0  0  0  0  0  0
  151.9392  144.1447  159.0033 C   0  0  0  0  0  0  0  0  0  0  0  0
  152.0094  142.8293  159.5401 C   0  0  0  0  0  0  0  0  0  0  0  0
  151.5551  141.9122  158.7014 N   0  0  0  0  0  0  0  0  0  0  0  0
  149.6304  139.3453  157.2124 H   0  0  0  0  0  0  0  0  0  0  0  0
  148.0692  139.8708  157.7864 H   0  0  0  0  0  0  0  0  0  0  0  0
  149.5290  140.4187  158.6032 H   0  0  0  0  0  0  0  0  0  0  0  0
  148.7419  141.1497  155.7307 H   0  0  0  0  0  0  0  0  0  0  0  0
  148.6307  142.6959  158.2107 H   0  0  0  0  0  0  0  0  0  0  0  0
  146.5531  142.6497  156.1802 H   0  0  0  0  0  0  0  0  0  0  0  0
  146.6451  141.3065  157.3093 H   0  0  0  0  0  0  0  0  0  0  0  0
  145.9841  144.2030  157.8502 H   0  0  0  0  0  0  0  0  0  0  0  0
  145.2148  142.7637  158.4865 H   0  0  0  0  0  0  0  0  0  0  0  0
  148.6289  144.2659  160.3256 H   0  0  0  0  0  0  0  0  0  0  0  0
  148.3000  144.6076  158.6412 H   0  0  0  0  0  0  0  0  0  0  0  0
  150.5995  142.6383  155.6346 H   0  0  0  0  0  0  0  0  0  0  0  0
  151.2439  140.3122  155.0877 H   0  0  0  0  0  0  0  0  0  0  0  0
  151.6027  139.9815  156.7787 H   0  0  0  0  0  0  0  0  0  0  0  0
  152.5792  141.1342  155.8749 H   0  0  0  0  0  0  0  0  0  0  0  0
  151.1666  144.6734  156.9846 H   0  0  0  0  0  0  0  0  0  0  0  0
  152.2375  145.0774  159.4590 H   0  0  0  0  0  0  0  0  0  0  0  0
  152.3749  142.5155  160.5069 H   0  0  0  0  0  0  0  0  0  0  0  0
  148.5816  143.3683  156.7169 H   0  0  0  0  0  0  0  0  0  0  0  0
  1  2  1  0  0  0  0
  1 16  1  0  0  0  0
  1 17  1  0  0  0  0
  1 18  1  0  0  0  0
  2  3  1  0  0  0  0
  2  9  1  0  0  0  0
  2 19  1  0  0  0  0
  3  4  1  0  0  0  0
  3 20  1  0  0  0  0
  3 34  1  0  0  0  0
  4  5  1  0  0  0  0
  4 21  1  0  0  0  0
  4 22  1  0  0  0  0
  5  6  1  0  0  0  0
  5 23  1  0  0  0  0
  5 24  1  0  0  0  0
  6  7  1  0  0  0  0
  6  8  2  0  0  0  0
  7 25  1  0  0  0  0
  7 26  1  0  0  0  0
  9 10  1  0  0  0  0
  9 11  1  0  0  0  0
  9 27  1  0  0  0  0
 10 28  1  0  0  0  0
 10 29  1  0  0  0  0
 10 30  1  0  0  0  0
 11 15  1  0  0  0  0
 11 12  1  0  0  0  0
 12 13  2  0  0  0  0
 12 31  1  0  0  0  0
 13 14  1  0  0  0  0
 13 32  1  0  0  0  0
 14 15  2  0  0  0  0
 14 33  1  0  0  0  0
M  CHG  1   3   1
M  END
> <s_m_source_file>
AV-unprocessed.smi

> <i_m_source_file_index>
3105

> <i_lp_mmshare_version>
43012

> <i_f3d_flags>
0

> <s_epik_input>
W05IMl1DKD1PKVtDSDJdW0NIMl1bTkhdW0NAQEhdKFtDSDNdKVtDQEhdKFtDSDNdKW4xW2NIXVtjSF1bY0hdbjE=

> <s_epik_cmdline>
J2VwaWtfcHl0aG9uJywgJy1waCcsICc3LjAnLCAnLXRuJywgJzgnLCAnLW1hJywgJzIwMCcsICctbWV0YWxfYmluZGluZycsICctaW1hZScsICc8aW5maWxlLm1hZT4nLCAnLW9tYWUnLCAnPG91dGZpbGUubWFlPic=

> <r_lp_tautomer_probability>
1

> <r_epik_Ionization_Penalty>
0.00475669

> <r_epik_Ionization_Penalty_Charging>
0.00474654

> <r_epik_Ionization_Penalty_Neutral>
1.01546e-05

> <r_epik_State_Penalty>
-0

> <r_epik_Charging_Adjusted_Penalty>
0.00474654

> <i_epik_Tot_Q>
1

> <i_epik_Tot_abs_Q>
1

> <r_epik_Metal_State_Penalty>
-0

> <b_epik_Metal_Only>
0

> <s_lp_Force_Field>
OPLS_2005

> <r_lp_Energy>
9.05092

> <b_lp_Chiralities_Consistent>
1

> <s_lp_Variant>
AV-unprocessed.smi:3105-2

> <Gold.Version>
5.8.1

> <Gold.Id.Protein>
6NUR|6NUR_protein|mol2

> <Gold.PLP.Fitness>
44.3042

> <Gold.PLP.PLP>
-28.6846

> <Gold.PLP.part.hbond>
-4.0000

> <Gold.PLP.part.metal>
0.0000

> <Gold.PLP.part.buried>
-3.4496

> <Gold.PLP.part.nonpolar>
-22.2382

> <Gold.PLP.part.repulsive>
0.1905

> <Gold.PLP.ligand.clash>
0.0000

> <Gold.PLP.ligand.torsion>
0.8624

> <Gold.PLP.Chemscore.Hbond>
4.8320

> <Gold.PLP.Chemscore.CHOScore>
0.9041

> <Gold.PLP.Chemscore.Metal>
0.0000

> <Gold.Chemscore.Hbonds>
donor molecule, donor type, donor heavy atom, donor atom, acceptor molecule, acceptor atom, score
      L1  H     3    34       P1  8028  2.00
      L1  H     7    26       P1  8029  0.99
      P1  H  6933  6944       L1     8  0.74
      P1  H  6934  6946       L1     8  0.99
      L1  C    12    31       P1  8028  0.75

> <Gold.PLP.Chemscore.Internal.Correction>
0.1363

> <Gold.Rescore>
     Score         DG    S(hbond)    S(metal)    S(lipo)     H(rot)  DE(clash)    DE(int)     intcor
     14.20     -16.63       3.39        0.00      60.83       2.85       0.17       2.27       ----

> <Gold.Chemscore.Fitness>
14.2005

> <Gold.Chemscore.DG>
-16.6338

> <Gold.Chemscore.ZeroCoef>
-5.4800

> <Gold.Chemscore.Hbond>
3.3911

> <Gold.Chemscore.Metal>
0.0000

> <Gold.Chemscore.Lipo>
60.8260

> <Gold.Chemscore.Internal_Hbond>
0.0000

> <Gold.Chemscore.DEClash>
0.1665

> <Gold.Chemscore.DEInternal>
2.2668

> <Gold.Chemscore.Rot>
2.8473

> <Gold.Chemscore.Internal.Correction>
   9.000000E+99

> <Gold.Chemscore.Hbonds>
donor molecule, donor type, donor heavy atom, donor atom, acceptor molecule, acceptor atom, score
      L1  H     3    34       P1  8028  0.50
      L1  H     7    26       P1  8029  0.88
      P1  H  6933  6944       L1     8  0.25
      P1  H  6934  6946       L1     8  0.92

> <Gold.Chemscore.Hbond.Weighted>
-11.3264

> <Gold.Chemscore.Metal.Weighted>
-0.0000

> <Gold.Chemscore.Lipo.Weighted>
-7.1166

> <Gold.Chemscore.Internal_Hbond.Weighted>
0.0000

> <Gold.Chemscore.DEClash.Weighted>
0.1665

> <Gold.Chemscore.DEInternal.Weighted>
2.2668

> <Gold.Chemscore.Rot.Weighted>
7.2892

> <Gold.Chemscore.Internal.Correction.Weighted>
   9.000000E+99

> <Gold.Protein.RotatedTorsions>
[ 6907 6896 6895 6894 ] final    8.58 input  -60.11 | X-H torsion
[ 7974 7965 7964 7962 ] final   16.70 input  175.53 | X-H torsion
[ 8008 7997 7996 7995 ] final -136.42 input   59.86 | X-H torsion
[ 10167 10162 10161 10158 ] final  110.43 input  -65.29 | X-H torsion
[ 10718 10713 10712 10709 ] final  162.13 input   66.30 | X-H torsion
[ 10763 10752 10751 10750 ] final -178.69 input  -60.55 | X-H torsion
[ 11005 11000 10999 10996 ] final   39.07 input  -57.11 | X-H torsion

> <Gold.Protein.ActiveResidues>
 VAL166  LYS551  ARG553  GLY616  TRP617  ASP618  TYR619  PRO620  LYS621  CYS622 
 ASP623  PHE694  ASN695  SER759  ASP760  ASP761  ALA762  ILE779  LEU786  VAL792 
 PHE793  MET794  SER795  GLU796  ALA797  LYS798  CYS799  TRP800  GLU811  SER814 

> <Gold.Protein.RotatedAtoms>
  151.7083  135.0917  160.0262 H   0  0  0  0  0  0  0  0  0  0  0  0  # atno 6907 bound_to 6896
  152.3678  133.6375  159.6072 H   0  0  0  0  0  0  0  0  0  0  0  0  # atno 6908 bound_to 6896
  150.7650  133.9236  159.3447 H   0  0  0  0  0  0  0  0  0  0  0  0  # atno 6909 bound_to 6896
  146.2241  139.8709  142.8587 H   0  0  0  0  0  0  0  0  0  0  0  0  # atno 7974 bound_to 7965
  155.3949  140.0502  157.3039 H   0  0  0  0  0  0  0  0  0  0  0  0  # atno 8008 bound_to 7997
  154.5018  140.2159  155.9292 H   0  0  0  0  0  0  0  0  0  0  0  0  # atno 8009 bound_to 7997
  156.1477  140.3142  155.8602 H   0  0  0  0  0  0  0  0  0  0  0  0  # atno 8010 bound_to 7997
  139.6689  144.7126  151.1725 H   0  0  0  0  0  0  0  0  0  0  0  0  # atno 10167 bound_to 10162
  157.1269  131.0506  151.2390 H   0  0  0  0  0  0  0  0  0  0  0  0  # atno 10718 bound_to 10713
  154.5445  135.2808  155.1065 H   0  0  0  0  0  0  0  0  0  0  0  0  # atno 10763 bound_to 10752
  154.2535  135.6335  153.5252 H   0  0  0  0  0  0  0  0  0  0  0  0  # atno 10764 bound_to 10752
  152.9987  135.5588  154.5994 H   0  0  0  0  0  0  0  0  0  0  0  0  # atno 10765 bound_to 10752
  140.2064  134.3808  155.8070 H   0  0  0  0  0  0  0  0  0  0  0  0  # atno 11005 bound_to 11000
  145.2609  141.0077  143.3827 LP  0  0  0  0  0  0  0  0  0  0  0  0  # atno 17320 bound_to 7965
  144.9299  139.4311  143.6500 LP  0  0  0  0  0  0  0  0  0  0  0  0  # atno 17321 bound_to 7965
  140.7610  143.5875  150.8830 LP  0  0  0  0  0  0  0  0  0  0  0  0  # atno 17342 bound_to 10162
  139.9539  143.6240  152.3021 LP  0  0  0  0  0  0  0  0  0  0  0  0  # atno 17343 bound_to 10162
  157.4427  130.7553  149.7083 LP  0  0  0  0  0  0  0  0  0  0  0  0  # atno 17370 bound_to 10713
  155.9816  130.4017  150.3461 LP  0  0  0  0  0  0  0  0  0  0  0  0  # atno 17371 bound_to 10713
  141.2227  133.7120  156.8345 LP  0  0  0  0  0  0  0  0  0  0  0  0  # atno 17394 bound_to 11000
  140.1998  134.8905  157.3156 LP  0  0  0  0  0  0  0  0  0  0  0  0  # atno 17395 bound_to 11000

$$$$
