AV-unprocessed.smi:2265|AV-procd|sdf|9143|dock2
  -GOLD-   2272012353D 1   1.00000     0.00000
 Structure written by MMmdl.
 36 37  0  0  0  0  0  0  0  0  1 V2000
  151.7223  144.1172  157.6834 C   0  0  0  0  0  0  0  0  0  0  0  0
  151.6379  144.3253  159.1994 C   0  0  0  0  0  0  0  0  0  0  0  0
  152.8341  143.7171  159.9440 C   0  0  0  0  0  0  0  0  0  0  0  0
  152.6376  142.2463  160.2523 C   0  0  2  0  0  0  0  0  0  0  0  0
  153.7101  141.4681  160.9671 C   0  0  0  0  0  0  0  0  0  0  0  0
  153.4192  141.1860  159.5074 C   0  0  1  0  0  0  0  0  0  0  0  0
  152.7754  139.9418  159.2125 N   0  0  0  0  0  0  0  0  0  0  0  0
  152.3149  139.5185  158.0217 C   0  0  0  0  0  0  0  0  0  0  0  0
  152.4550  140.2078  157.0116 O   0  0  0  0  0  0  0  0  0  0  0  0
  151.7518  138.2902  158.0579 N   0  0  0  0  0  0  0  0  0  0  0  0
  151.2042  137.5535  157.0007 C   0  0  0  0  0  0  0  0  0  0  0  0
  151.5011  137.7687  155.7495 N   0  0  0  0  0  0  0  0  0  0  0  0
  150.9312  137.0182  154.7209 C   0  0  0  0  0  0  0  0  0  0  0  0
  150.0460  136.0412  154.9882 C   0  0  0  0  0  0  0  0  0  0  0  0
  149.6744  135.7539  156.3093 N   0  0  0  0  0  0  0  0  0  0  0  0
  148.7086  134.6804  156.5452 C   0  0  0  0  0  0  0  0  0  0  0  0
  150.2004  136.4518  157.3525 C   0  0  0  0  0  0  0  0  0  0  0  0
  149.9076  136.2337  158.5299 O   0  0  0  0  0  0  0  0  0  0  0  0
  150.8601  144.5572  157.1821 H   0  0  0  0  0  0  0  0  0  0  0  0
  151.7481  143.0565  157.4320 H   0  0  0  0  0  0  0  0  0  0  0  0
  152.6191  144.5817  157.2720 H   0  0  0  0  0  0  0  0  0  0  0  0
  151.5788  145.3933  159.4122 H   0  0  0  0  0  0  0  0  0  0  0  0
  150.7126  143.8844  159.5719 H   0  0  0  0  0  0  0  0  0  0  0  0
  153.7392  143.8252  159.3456 H   0  0  0  0  0  0  0  0  0  0  0  0
  153.0078  144.2589  160.8747 H   0  0  0  0  0  0  0  0  0  0  0  0
  151.6112  141.9890  160.5084 H   0  0  0  0  0  0  0  0  0  0  0  0
  154.6395  141.9836  161.2018 H   0  0  0  0  0  0  0  0  0  0  0  0
  153.3871  140.7360  161.7048 H   0  0  0  0  0  0  0  0  0  0  0  0
  154.1875  141.5291  158.8158 H   0  0  0  0  0  0  0  0  0  0  0  0
  152.7379  139.2761  159.9709 H   0  0  0  0  0  0  0  0  0  0  0  0
  151.7486  137.8436  158.9634 H   0  0  0  0  0  0  0  0  0  0  0  0
  151.2367  137.2630  153.7143 H   0  0  0  0  0  0  0  0  0  0  0  0
  149.5794  135.4340  154.2264 H   0  0  0  0  0  0  0  0  0  0  0  0
  147.8481  135.0527  157.1032 H   0  0  0  0  0  0  0  0  0  0  0  0
  149.1669  133.8765  157.1228 H   0  0  0  0  0  0  0  0  0  0  0  0
  148.3324  134.2462  155.6185 H   0  0  0  0  0  0  0  0  0  0  0  0
  1  2  1  0  0  0  0
  1 19  1  0  0  0  0
  1 20  1  0  0  0  0
  1 21  1  0  0  0  0
  2  3  1  0  0  0  0
  2 22  1  0  0  0  0
  2 23  1  0  0  0  0
  3  4  1  0  0  0  0
  3 24  1  0  0  0  0
  3 25  1  0  0  0  0
  4  6  1  0  0  0  0
  4  5  1  0  0  0  0
  4 26  1  0  0  0  0
  5  6  1  0  0  0  0
  5 27  1  0  0  0  0
  5 28  1  0  0  0  0
  6  7  1  0  0  0  0
  6 29  1  0  0  0  0
  7  8  1  0  0  0  0
  7 30  1  0  0  0  0
  8  9  2  0  0  0  0
  8 10  1  0  0  0  0
 10 11  1  0  0  0  0
 10 31  1  0  0  0  0
 11 17  1  0  0  0  0
 11 12  2  0  0  0  0
 12 13  1  0  0  0  0
 13 14  2  0  0  0  0
 13 32  1  0  0  0  0
 14 15  1  0  0  0  0
 14 33  1  0  0  0  0
 15 16  1  0  0  0  0
 15 17  1  0  0  0  0
 16 34  1  0  0  0  0
 16 35  1  0  0  0  0
 16 36  1  0  0  0  0
 17 18  2  0  0  0  0
M  END
> <s_m_source_file>
AV-unprocessed.smi

> <i_m_source_file_index>
2265

> <i_lp_mmshare_version>
43012

> <i_f3d_flags>
0

> <s_epik_input>
W0NIM11bQ0gyXVtDSDJdW0NAQEhdMVtDSDJdW0NASF0xW05IXUMoPU8pW05IXWMybltjSF1bY0hdbihbQ0gzXSljMj1P

> <s_epik_cmdline>
J2VwaWtfcHl0aG9uJywgJy1waCcsICc3LjAnLCAnLXRuJywgJzgnLCAnLW1hJywgJzIwMCcsICctbWV0YWxfYmluZGluZycsICctaW1hZScsICc8aW5maWxlLm1hZT4nLCAnLW9tYWUnLCAnPG91dGZpbGUubWFlPic=

> <r_lp_tautomer_probability>
1

> <r_epik_Ionization_Penalty>
0.000728552

> <r_epik_Ionization_Penalty_Charging>
1.67739e-07

> <r_epik_Ionization_Penalty_Neutral>
0.000728385

> <r_epik_State_Penalty>
-0

> <r_epik_Charging_Adjusted_Penalty>
1.67739e-07

> <i_epik_Tot_Q>
0

> <i_epik_Tot_abs_Q>
0

> <r_epik_Metal_State_Penalty>
-0

> <b_epik_Metal_Only>
0

> <s_lp_Force_Field>
OPLS_2005

> <r_lp_Energy>
43.0048

> <b_lp_Chiralities_Consistent>
1

> <s_lp_Variant>
AV-unprocessed.smi:2265-1

> <Gold.Version>
5.8.1

> <Gold.Id.Protein>
6NUR|6NUR_protein|mol2

> <Gold.PLP.Fitness>
42.5926

> <Gold.PLP.PLP>
-31.7565

> <Gold.PLP.part.hbond>
-2.0000

> <Gold.PLP.part.metal>
0.0000

> <Gold.PLP.part.buried>
-2.9091

> <Gold.PLP.part.nonpolar>
-26.6682

> <Gold.PLP.part.repulsive>
0.1970

> <Gold.PLP.ligand.clash>
0.0000

> <Gold.PLP.ligand.torsion>
0.6863

> <Gold.PLP.Chemscore.Hbond>
2.0000

> <Gold.PLP.Chemscore.CHOScore>
1.8739

> <Gold.PLP.Chemscore.Metal>
0.0000

> <Gold.Chemscore.Hbonds>
donor molecule, donor type, donor heavy atom, donor atom, acceptor molecule, acceptor atom, score
      P1  H  6896  6907       L1    18  1.00
      P1  H  7997  8010       L1     9  1.00
      L1  C    13    32       P1  7949  0.92
      L1  C    14    33       P1  7948  0.90

> <Gold.PLP.Chemscore.Internal.Correction>
0.5872

> <Gold.Rescore>
     Score         DG    S(hbond)    S(metal)    S(lipo)     H(rot)  DE(clash)    DE(int)     intcor
     15.96     -17.86       1.89        0.00      83.88       1.46       0.00       1.90       ----

> <Gold.Chemscore.Fitness>
15.9556

> <Gold.Chemscore.DG>
-17.8588

> <Gold.Chemscore.ZeroCoef>
-5.4800

> <Gold.Chemscore.Hbond>
1.8875

> <Gold.Chemscore.Metal>
0.0000

> <Gold.Chemscore.Lipo>
83.8751

> <Gold.Chemscore.Internal_Hbond>
0.0000

> <Gold.Chemscore.DEClash>
0.0030

> <Gold.Chemscore.DEInternal>
1.9002

> <Gold.Chemscore.Rot>
1.4604

> <Gold.Chemscore.Internal.Correction>
   9.000000E+99

> <Gold.Chemscore.Hbonds>
donor molecule, donor type, donor heavy atom, donor atom, acceptor molecule, acceptor atom, score
      P1  H  6896  6907       L1    18  0.93
      P1  H  7997  8010       L1     9  0.43

> <Gold.Chemscore.Hbond.Weighted>
-6.3041

> <Gold.Chemscore.Metal.Weighted>
-0.0000

> <Gold.Chemscore.Lipo.Weighted>
-9.8134

> <Gold.Chemscore.Internal_Hbond.Weighted>
0.0000

> <Gold.Chemscore.DEClash.Weighted>
0.0030

> <Gold.Chemscore.DEInternal.Weighted>
1.9002

> <Gold.Chemscore.Rot.Weighted>
3.7387

> <Gold.Chemscore.Internal.Correction.Weighted>
   9.000000E+99

> <Gold.Protein.RotatedTorsions>
[ 6907 6896 6895 6894 ] final  -55.71 input  -60.11 | X-H torsion
[ 7974 7965 7964 7962 ] final  -66.02 input  175.53 | X-H torsion
[ 8008 7997 7996 7995 ] final   61.39 input   59.86 | X-H torsion
[ 10167 10162 10161 10158 ] final   -1.87 input  -65.29 | X-H torsion
[ 10718 10713 10712 10709 ] final  157.30 input   66.30 | X-H torsion
[ 10763 10752 10751 10750 ] final   40.63 input  -60.55 | X-H torsion
[ 11005 11000 10999 10996 ] final   87.63 input  -57.11 | X-H torsion

> <Gold.Protein.ActiveResidues>
 VAL166  LYS551  ARG553  GLY616  TRP617  ASP618  TYR619  PRO620  LYS621  CYS622 
 ASP623  PHE694  ASN695  SER759  ASP760  ASP761  ALA762  ILE779  LEU786  VAL792 
 PHE793  MET794  SER795  GLU796  ALA797  LYS798  CYS799  TRP800  GLU811  SER814 

> <Gold.Protein.RotatedAtoms>
  150.8229  134.7445  159.6787 H   0  0  0  0  0  0  0  0  0  0  0  0  # atno 6907 bound_to 6896
  152.4343  134.5715  159.9932 H   0  0  0  0  0  0  0  0  0  0  0  0  # atno 6908 bound_to 6896
  151.5894  133.3331  159.3060 H   0  0  0  0  0  0  0  0  0  0  0  0  # atno 6909 bound_to 6896
  145.7470  140.8927  143.0500 H   0  0  0  0  0  0  0  0  0  0  0  0  # atno 7974 bound_to 7965
  155.5976  140.3493  155.4584 H   0  0  0  0  0  0  0  0  0  0  0  0  # atno 8008 bound_to 7997
  156.0253  140.1262  157.0339 H   0  0  0  0  0  0  0  0  0  0  0  0  # atno 8009 bound_to 7997
  154.4331  140.1054  156.6008 H   0  0  0  0  0  0  0  0  0  0  0  0  # atno 8010 bound_to 7997
  140.6828  143.6724  150.8174 H   0  0  0  0  0  0  0  0  0  0  0  0  # atno 10167 bound_to 10162
  157.1933  131.0659  151.2067 H   0  0  0  0  0  0  0  0  0  0  0  0  # atno 10718 bound_to 10713
  152.9931  135.6186  154.2657 H   0  0  0  0  0  0  0  0  0  0  0  0  # atno 10763 bound_to 10752
  154.2392  135.2789  155.2862 H   0  0  0  0  0  0  0  0  0  0  0  0  # atno 10764 bound_to 10752
  154.5384  135.5768  153.6876 H   0  0  0  0  0  0  0  0  0  0  0  0  # atno 10765 bound_to 10752
  139.8915  134.8435  156.2887 H   0  0  0  0  0  0  0  0  0  0  0  0  # atno 11005 bound_to 11000
  144.6858  139.9538  143.7478 LP  0  0  0  0  0  0  0  0  0  0  0  0  # atno 17320 bound_to 7965
  146.0393  139.3407  143.0707 LP  0  0  0  0  0  0  0  0  0  0  0  0  # atno 17321 bound_to 7965
  140.0427  143.5330  152.2710 LP  0  0  0  0  0  0  0  0  0  0  0  0  # atno 17342 bound_to 10162
  139.6163  144.7620  151.2839 LP  0  0  0  0  0  0  0  0  0  0  0  0  # atno 17343 bound_to 10162
  157.3839  130.7246  149.6649 LP  0  0  0  0  0  0  0  0  0  0  0  0  # atno 17370 bound_to 10713
  155.9709  130.4165  150.4233 LP  0  0  0  0  0  0  0  0  0  0  0  0  # atno 17371 bound_to 10713
  140.9991  133.7162  156.0932 LP  0  0  0  0  0  0  0  0  0  0  0  0  # atno 17394 bound_to 11000
  140.7522  134.4032  157.5539 LP  0  0  0  0  0  0  0  0  0  0  0  0  # atno 17395 bound_to 11000

$$$$
