AV-unprocessed.smi:152|AV-procd|sdf|1246|dock4
  -GOLD-   2262018473D 1   1.00000     0.00000
 Structure written by MMmdl.
 58 61  0  0  0  0  0  0  0  0  2 V2000
  151.6495  145.7980  159.8989 C   0  0  0  0  0  0  0  0  0  0  0  0
  151.9073  144.7775  158.7815 C   0  0  0  0  0  0  0  0  0  0  0  0
  151.5257  143.3918  159.1587 N   0  3  2  0  0  0  0  0  0  0  0  0
  152.3168  142.8728  160.3008 C   0  0  0  0  0  0  0  0  0  0  0  0
  153.1976  141.7598  159.7432 C   0  0  0  0  0  0  0  0  0  0  0  0
  152.3269  141.1737  158.6453 C   0  0  0  0  0  0  0  0  0  0  0  0
  151.6116  142.3980  158.0527 C   0  0  1  0  0  0  0  0  0  0  0  0
  150.2117  142.0707  157.4864 C   0  0  0  0  0  0  0  0  0  0  0  0
  150.2494  141.4917  156.1432 N   0  0  0  0  0  0  0  0  0  0  0  0
  151.3457  140.5774  155.8347 C   0  0  0  0  0  0  0  0  0  0  0  0
  149.0806  141.3432  155.4617 C   0  0  0  0  0  0  0  0  0  0  0  0
  149.1122  140.8129  154.2094 N   0  0  0  0  0  0  0  0  0  0  0  0
  147.9842  140.6309  153.5176 C   0  0  0  0  0  0  0  0  0  0  0  0
  146.7316  140.9082  153.8799 N   0  0  0  0  0  0  0  0  0  0  0  0
  146.6883  141.4528  155.1288 C   0  0  0  0  0  0  0  0  0  0  0  0
  147.8022  141.7034  155.9814 C   0  0  0  0  0  0  0  0  0  0  0  0
  147.3591  142.2763  157.1685 N   0  0  0  0  0  0  0  0  0  0  0  0
  146.0640  142.3511  157.0294 C   0  0  0  0  0  0  0  0  0  0  0  0
  145.5767  141.8841  155.8310 N   0  0  0  0  0  0  0  0  0  0  0  0
  144.1844  141.8552  155.4092 C   0  0  0  0  0  0  0  0  0  0  0  0
  143.5421  143.2579  155.2720 C   0  0  0  0  0  0  0  0  0  0  0  0
  142.2216  143.0806  154.7879 O   0  0  0  0  0  0  0  0  0  0  0  0
  143.4718  144.0148  156.6164 C   0  0  0  0  0  0  0  0  0  0  0  0
  143.0236  145.4761  156.4352 C   0  0  0  0  0  0  0  0  0  0  0  0
  143.8735  146.1383  155.5065 O   0  0  0  0  0  0  0  0  0  0  0  0
  143.8213  145.5644  154.2058 C   0  0  0  0  0  0  0  0  0  0  0  0
  144.3230  144.1103  154.2517 C   0  0  0  0  0  0  0  0  0  0  0  0
  152.0236  146.7811  159.6132 H   0  0  0  0  0  0  0  0  0  0  0  0
  152.1527  145.5098  160.8222 H   0  0  0  0  0  0  0  0  0  0  0  0
  150.5857  145.9070  160.1102 H   0  0  0  0  0  0  0  0  0  0  0  0
  151.3853  145.0731  157.8701 H   0  0  0  0  0  0  0  0  0  0  0  0
  152.9729  144.7941  158.5488 H   0  0  0  0  0  0  0  0  0  0  0  0
  152.9011  143.6389  160.8128 H   0  0  0  0  0  0  0  0  0  0  0  0
  151.6189  142.4573  161.0285 H   0  0  0  0  0  0  0  0  0  0  0  0
  154.1075  142.1806  159.3135 H   0  0  0  0  0  0  0  0  0  0  0  0
  153.4840  141.0266  160.4977 H   0  0  0  0  0  0  0  0  0  0  0  0
  152.9026  140.6196  157.9032 H   0  0  0  0  0  0  0  0  0  0  0  0
  151.6057  140.4862  159.0898 H   0  0  0  0  0  0  0  0  0  0  0  0
  152.2462  142.8098  157.2660 H   0  0  0  0  0  0  0  0  0  0  0  0
  149.6655  141.4405  158.1843 H   0  0  0  0  0  0  0  0  0  0  0  0
  149.6221  142.9844  157.4212 H   0  0  0  0  0  0  0  0  0  0  0  0
  151.5170  140.5262  154.7589 H   0  0  0  0  0  0  0  0  0  0  0  0
  151.1296  139.5728  156.1997 H   0  0  0  0  0  0  0  0  0  0  0  0
  152.2716  140.9148  156.3009 H   0  0  0  0  0  0  0  0  0  0  0  0
  148.1024  140.2009  152.5338 H   0  0  0  0  0  0  0  0  0  0  0  0
  145.4243  142.7595  157.7984 H   0  0  0  0  0  0  0  0  0  0  0  0
  144.1303  141.3256  154.4573 H   0  0  0  0  0  0  0  0  0  0  0  0
  143.6243  141.2498  156.1233 H   0  0  0  0  0  0  0  0  0  0  0  0
  142.2587  142.9662  153.8504 H   0  0  0  0  0  0  0  0  0  0  0  0
  142.8016  143.5109  157.3139 H   0  0  0  0  0  0  0  0  0  0  0  0
  144.4582  144.0105  157.0822 H   0  0  0  0  0  0  0  0  0  0  0  0
  141.9870  145.5308  156.0993 H   0  0  0  0  0  0  0  0  0  0  0  0
  143.0722  146.0005  157.3897 H   0  0  0  0  0  0  0  0  0  0  0  0
  142.8058  145.6191  153.8110 H   0  0  0  0  0  0  0  0  0  0  0  0
  144.4502  146.1537  153.5383 H   0  0  0  0  0  0  0  0  0  0  0  0
  145.3792  144.1202  154.5242 H   0  0  0  0  0  0  0  0  0  0  0  0
  144.2693  143.6638  153.2578 H   0  0  0  0  0  0  0  0  0  0  0  0
  150.5646  143.4219  159.4682 H   0  0  0  0  0  0  0  0  0  0  0  0
  1  2  1  0  0  0  0
  1 28  1  0  0  0  0
  1 29  1  0  0  0  0
  1 30  1  0  0  0  0
  2  3  1  0  0  0  0
  2 31  1  0  0  0  0
  2 32  1  0  0  0  0
  3  7  1  0  0  0  0
  3  4  1  0  0  0  0
  3 58  1  0  0  0  0
  4  5  1  0  0  0  0
  4 33  1  0  0  0  0
  4 34  1  0  0  0  0
  5  6  1  0  0  0  0
  5 35  1  0  0  0  0
  5 36  1  0  0  0  0
  6  7  1  0  0  0  0
  6 37  1  0  0  0  0
  6 38  1  0  0  0  0
  7  8  1  0  0  0  0
  7 39  1  0  0  0  0
  8  9  1  0  0  0  0
  8 40  1  0  0  0  0
  8 41  1  0  0  0  0
  9 10  1  0  0  0  0
  9 11  1  0  0  0  0
 10 42  1  0  0  0  0
 10 43  1  0  0  0  0
 10 44  1  0  0  0  0
 11 16  1  0  0  0  0
 11 12  2  0  0  0  0
 12 13  1  0  0  0  0
 13 14  2  0  0  0  0
 13 45  1  0  0  0  0
 14 15  1  0  0  0  0
 15 19  1  0  0  0  0
 15 16  2  0  0  0  0
 16 17  1  0  0  0  0
 17 18  2  0  0  0  0
 18 19  1  0  0  0  0
 18 46  1  0  0  0  0
 19 20  1  0  0  0  0
 20 21  1  0  0  0  0
 20 47  1  0  0  0  0
 20 48  1  0  0  0  0
 21 27  1  0  0  0  0
 21 22  1  0  0  0  0
 21 23  1  0  0  0  0
 22 49  1  0  0  0  0
 23 24  1  0  0  0  0
 23 50  1  0  0  0  0
 23 51  1  0  0  0  0
 24 25  1  0  0  0  0
 24 52  1  0  0  0  0
 24 53  1  0  0  0  0
 25 26  1  0  0  0  0
 26 27  1  0  0  0  0
 26 54  1  0  0  0  0
 26 55  1  0  0  0  0
 27 56  1  0  0  0  0
 27 57  1  0  0  0  0
M  CHG  1   3   1
M  END
> <s_m_source_file>
AV-unprocessed.smi

> <i_m_source_file_index>
152

> <i_lp_mmshare_version>
43012

> <i_f3d_flags>
0

> <s_epik_input>
W0NIM11bQ0gyXU4xW0NIMl1bQ0gyXVtDSDJdW0NASF0xW0NIMl1OKFtDSDNdKWMobltjSF1uMiljKGMyMyluW2NIXW4zW0NIMl1DNChbT0hdKVtDSDJdW0NIMl1PW0NIMl1bQ0gyXTQ=

> <s_epik_cmdline>
J2VwaWtfcHl0aG9uJywgJy1waCcsICc3LjAnLCAnLXRuJywgJzgnLCAnLW1hJywgJzIwMCcsICctbWV0YWxfYmluZGluZycsICctaW1hZScsICc8aW5maWxlLm1hZT4nLCAnLW9tYWUnLCAnPG91dGZpbGUubWFlPic=

> <r_lp_tautomer_probability>
1

> <r_epik_Ionization_Penalty>
0.00152183

> <r_epik_Ionization_Penalty_Charging>
0.00112577

> <r_epik_Ionization_Penalty_Neutral>
0.000396066

> <r_epik_State_Penalty>
-0

> <r_epik_Charging_Adjusted_Penalty>
0.00112577

> <i_epik_Tot_Q>
1

> <i_epik_Tot_abs_Q>
1

> <r_epik_Metal_State_Penalty>
-0

> <b_epik_Metal_Only>
0

> <s_lp_Force_Field>
OPLS_2005

> <r_lp_Energy>
43.1926

> <b_lp_Chiralities_Consistent>
1

> <s_lp_Variant>
AV-unprocessed.smi:152-1

> <Gold.Version>
5.8.1

> <Gold.Id.Protein>
6NUR|6NUR_protein|mol2

> <Gold.PLP.Fitness>
52.2502

> <Gold.PLP.PLP>
-46.9281

> <Gold.PLP.part.hbond>
-1.1771

> <Gold.PLP.part.metal>
0.0000

> <Gold.PLP.part.buried>
-5.0482

> <Gold.PLP.part.nonpolar>
-41.6116

> <Gold.PLP.part.repulsive>
0.5764

> <Gold.PLP.ligand.clash>
0.0000

> <Gold.PLP.ligand.torsion>
0.6022

> <Gold.PLP.Chemscore.Hbond>
0.9750

> <Gold.PLP.Chemscore.CHOScore>
1.0000

> <Gold.PLP.Chemscore.Metal>
0.0000

> <Gold.Chemscore.Hbonds>
donor molecule, donor type, donor heavy atom, donor atom, acceptor molecule, acceptor atom, score
      L1  H    22    49       P1 10174  1.00
      L1  C    13    45       P1  7957  1.00

> <Gold.PLP.Chemscore.Internal.Correction>
0.6015

> <Gold.Rescore>
     Score         DG    S(hbond)    S(metal)    S(lipo)     H(rot)  DE(clash)    DE(int)     intcor
     12.42     -14.79       0.99        0.00     105.07       2.46       0.27       2.10       ----

> <Gold.Chemscore.Fitness>
12.4156

> <Gold.Chemscore.DG>
-14.7894

> <Gold.Chemscore.ZeroCoef>
-5.4800

> <Gold.Chemscore.Hbond>
0.9932

> <Gold.Chemscore.Metal>
0.0000

> <Gold.Chemscore.Lipo>
105.0699

> <Gold.Chemscore.Internal_Hbond>
0.0000

> <Gold.Chemscore.DEClash>
0.2740

> <Gold.Chemscore.DEInternal>
2.0998

> <Gold.Chemscore.Rot>
2.4614

> <Gold.Chemscore.Internal.Correction>
   9.000000E+99

> <Gold.Chemscore.Hbonds>
donor molecule, donor type, donor heavy atom, donor atom, acceptor molecule, acceptor atom, score
      L1  H    22    49       P1 10174  1.00

> <Gold.Chemscore.Hbond.Weighted>
-3.3174

> <Gold.Chemscore.Metal.Weighted>
-0.0000

> <Gold.Chemscore.Lipo.Weighted>
-12.2932

> <Gold.Chemscore.Internal_Hbond.Weighted>
0.0000

> <Gold.Chemscore.DEClash.Weighted>
0.2740

> <Gold.Chemscore.DEInternal.Weighted>
2.0998

> <Gold.Chemscore.Rot.Weighted>
6.3012

> <Gold.Chemscore.Internal.Correction.Weighted>
   9.000000E+99

> <Gold.Protein.RotatedTorsions>
[ 6907 6896 6895 6894 ] final   13.62 input  -60.11 | X-H torsion
[ 7974 7965 7964 7962 ] final  113.73 input  175.53 | X-H torsion
[ 8008 7997 7996 7995 ] final   62.70 input   59.86 | X-H torsion
[ 10167 10162 10161 10158 ] final   66.69 input  -65.29 | X-H torsion
[ 10718 10713 10712 10709 ] final -179.89 input   66.30 | X-H torsion
[ 10763 10752 10751 10750 ] final  105.67 input  -60.55 | X-H torsion
[ 11005 11000 10999 10996 ] final -154.92 input  -57.11 | X-H torsion

> <Gold.Protein.ActiveResidues>
 VAL166  LYS551  ARG553  GLY616  TRP617  ASP618  TYR619  PRO620  LYS621  CYS622 
 ASP623  PHE694  ASN695  SER759  ASP760  ASP761  ALA762  ILE779  LEU786  VAL792 
 PHE793  MET794  SER795  GLU796  ALA797  LYS798  CYS799  TRP800  GLU811  SER814 

> <Gold.Protein.RotatedAtoms>
  151.7892  135.0740  160.0384 H   0  0  0  0  0  0  0  0  0  0  0  0  # atno 6907 bound_to 6896
  152.3168  133.5807  159.5726 H   0  0  0  0  0  0  0  0  0  0  0  0  # atno 6908 bound_to 6896
  150.7348  133.9986  159.3672 H   0  0  0  0  0  0  0  0  0  0  0  0  # atno 6909 bound_to 6896
  145.2133  139.2896  143.4257 H   0  0  0  0  0  0  0  0  0  0  0  0  # atno 7974 bound_to 7965
  155.6185  140.3495  155.4644 H   0  0  0  0  0  0  0  0  0  0  0  0  # atno 8008 bound_to 7997
  156.0098  140.1231  157.0489 H   0  0  0  0  0  0  0  0  0  0  0  0  # atno 8009 bound_to 7997
  154.4277  140.1084  156.5799 H   0  0  0  0  0  0  0  0  0  0  0  0  # atno 8010 bound_to 7997
  140.0976  144.4932  150.7058 H   0  0  0  0  0  0  0  0  0  0  0  0  # atno 10167 bound_to 10162
  156.8658  130.9767  151.3078 H   0  0  0  0  0  0  0  0  0  0  0  0  # atno 10718 bound_to 10713
  153.3825  135.3902  155.1866 H   0  0  0  0  0  0  0  0  0  0  0  0  # atno 10763 bound_to 10752
  154.8709  135.3729  154.4839 H   0  0  0  0  0  0  0  0  0  0  0  0  # atno 10764 bound_to 10752
  153.5318  135.7085  153.5741 H   0  0  0  0  0  0  0  0  0  0  0  0  # atno 10765 bound_to 10752
  140.6921  134.4030  157.5218 H   0  0  0  0  0  0  0  0  0  0  0  0  # atno 11005 bound_to 11000
  146.3393  140.2415  142.8596 LP  0  0  0  0  0  0  0  0  0  0  0  0  # atno 17320 bound_to 7965
  144.9835  140.8481  143.5383 LP  0  0  0  0  0  0  0  0  0  0  0  0  # atno 17321 bound_to 7965
  140.6995  143.2425  151.4905 LP  0  0  0  0  0  0  0  0  0  0  0  0  # atno 17342 bound_to 10162
  139.5689  144.1975  152.1807 LP  0  0  0  0  0  0  0  0  0  0  0  0  # atno 17343 bound_to 10162
  157.6224  130.8665  149.9131 LP  0  0  0  0  0  0  0  0  0  0  0  0  # atno 17370 bound_to 10713
  156.0752  130.3680  150.0692 LP  0  0  0  0  0  0  0  0  0  0  0  0  # atno 17371 bound_to 10713
  139.8920  134.8764  156.2290 LP  0  0  0  0  0  0  0  0  0  0  0  0  # atno 17394 bound_to 11000
  141.0233  133.7029  156.1305 LP  0  0  0  0  0  0  0  0  0  0  0  0  # atno 17395 bound_to 11000

$$$$
