AV-unprocessed.smi:3237|AV-procd|sdf|12370|dock5
  -GOLD-   2272018233D 1   1.00000     0.00000
 Structure written by MMmdl.
 36 38  0  0  0  0  0  0  0  0  3 V2000
  146.9095  136.6308  162.6424 C   0  0  0  0  0  0  0  0  0  0  0  0
  147.5001  136.4204  161.2902 C   0  0  0  0  0  0  0  0  0  0  0  0
  148.4481  135.5591  160.8153 C   0  0  0  0  0  0  0  0  0  0  0  0
  148.5382  135.9021  159.4386 C   0  0  0  0  0  0  0  0  0  0  0  0
  149.3377  135.3207  158.5310 N   0  5  0  0  0  0  0  0  0  0  0  0
  149.0615  135.4298  157.2118 C   0  0  0  0  0  0  0  0  0  0  0  0
  148.1879  136.1342  156.7009 O   0  0  0  0  0  0  0  0  0  0  0  0
  149.8488  134.6748  156.4335 N   0  0  0  0  0  0  0  0  0  0  0  0
  149.7723  134.5931  154.9794 C   0  0  1  0  0  0  0  0  0  0  0  0
  150.4984  133.3888  154.3733 C   0  0  0  0  0  0  0  0  0  0  0  0
  149.6961  133.0517  153.1052 C   0  0  0  0  0  0  0  0  0  0  0  0
  148.4896  133.9115  153.1208 N   0  3  1  0  0  0  0  0  0  0  0  0
  147.2778  133.2728  152.5659 C   0  0  0  0  0  0  0  0  0  0  0  0
  147.3425  133.0512  151.0737 C   0  0  0  0  0  0  0  0  0  0  0  0
  146.4933  134.1697  151.6384 C   0  0  0  0  0  0  0  0  0  0  0  0
  148.3378  134.3956  154.5032 C   0  0  0  0  0  0  0  0  0  0  0  0
  147.7064  136.8743  159.1041 N   0  0  0  0  0  0  0  0  0  0  0  0
  147.0418  137.2173  160.2877 O   0  0  0  0  0  0  0  0  0  0  0  0
  146.7180  135.6764  163.1328 H   0  0  0  0  0  0  0  0  0  0  0  0
  145.9654  137.1724  162.5790 H   0  0  0  0  0  0  0  0  0  0  0  0
  147.5878  137.2057  163.2730 H   0  0  0  0  0  0  0  0  0  0  0  0
  148.9936  134.8066  161.3648 H   0  0  0  0  0  0  0  0  0  0  0  0
  150.5502  134.1119  156.8923 H   0  0  0  0  0  0  0  0  0  0  0  0
  150.1625  135.5123  154.5374 H   0  0  0  0  0  0  0  0  0  0  0  0
  151.5454  133.6058  154.1593 H   0  0  0  0  0  0  0  0  0  0  0  0
  150.4702  132.5409  155.0595 H   0  0  0  0  0  0  0  0  0  0  0  0
  150.2706  133.2491  152.1997 H   0  0  0  0  0  0  0  0  0  0  0  0
  149.4273  131.9941  153.1039 H   0  0  0  0  0  0  0  0  0  0  0  0
  146.7659  132.5591  153.2093 H   0  0  0  0  0  0  0  0  0  0  0  0
  148.2565  133.3283  150.5511 H   0  0  0  0  0  0  0  0  0  0  0  0
  146.8215  132.1848  150.6714 H   0  0  0  0  0  0  0  0  0  0  0  0
  145.4134  134.0393  151.6080 H   0  0  0  0  0  0  0  0  0  0  0  0
  146.8426  135.1903  151.4906 H   0  0  0  0  0  0  0  0  0  0  0  0
  147.8330  133.6381  155.1064 H   0  0  0  0  0  0  0  0  0  0  0  0
  147.7517  135.3142  154.5464 H   0  0  0  0  0  0  0  0  0  0  0  0
  148.7039  134.7211  152.5563 H   0  0  0  0  0  0  0  0  0  0  0  0
  1  2  1  0  0  0  0
  1 19  1  0  0  0  0
  1 20  1  0  0  0  0
  1 21  1  0  0  0  0
  2 18  1  0  0  0  0
  2  3  2  0  0  0  0
  3  4  1  0  0  0  0
  3 22  1  0  0  0  0
  4  5  1  0  0  0  0
  4 17  2  0  0  0  0
  5  6  1  0  0  0  0
  6  7  2  0  0  0  0
  6  8  1  0  0  0  0
  8  9  1  0  0  0  0
  8 23  1  0  0  0  0
  9 16  1  0  0  0  0
  9 10  1  0  0  0  0
  9 24  1  0  0  0  0
 10 11  1  0  0  0  0
 10 25  1  0  0  0  0
 10 26  1  0  0  0  0
 11 12  1  0  0  0  0
 11 27  1  0  0  0  0
 11 28  1  0  0  0  0
 12 13  1  0  0  0  0
 12 16  1  0  0  0  0
 12 36  1  0  0  0  0
 13 15  1  0  0  0  0
 13 14  1  0  0  0  0
 13 29  1  0  0  0  0
 14 15  1  0  0  0  0
 14 30  1  0  0  0  0
 14 31  1  0  0  0  0
 15 32  1  0  0  0  0
 15 33  1  0  0  0  0
 16 34  1  0  0  0  0
 16 35  1  0  0  0  0
 17 18  1  0  0  0  0
M  CHG  1   5  -1
M  CHG  1  12   1
M  END
> <s_m_source_file>
AV-unprocessed.smi

> <i_m_source_file_index>
3237

> <i_lp_mmshare_version>
43012

> <i_f3d_flags>
0

> <s_epik_input>
W0NIM11jMVtjSF1jKG5vMSlbTkhdQyg9TylbTkhdW0NAQEhdMltDSDJdW0NIMl1OKFtDSDJdMilbQ0hdM1tDSDJdW0NIMl0z

> <s_epik_cmdline>
J2VwaWtfcHl0aG9uJywgJy1waCcsICc3LjAnLCAnLXRuJywgJzgnLCAnLW1hJywgJzIwMCcsICctbWV0YWxfYmluZGluZycsICctaW1hZScsICc8aW5maWxlLm1hZT4nLCAnLW9tYWUnLCAnPG91dGZpbGUubWFlPic=

> <r_epik_Ionization_Penalty>
6.08472

> <r_epik_Ionization_Penalty_Charging>
6.08464

> <r_epik_Ionization_Penalty_Neutral>
8.41751e-05

> <r_epik_State_Penalty>
6.08438

> <r_epik_Charging_Adjusted_Penalty>
12.169

> <i_epik_Tot_Q>
0

> <i_epik_Tot_abs_Q>
2

> <r_epik_Metal_State_Penalty>
2.0369

> <b_epik_Metal_Only>
1

> <s_lp_Force_Field>
OPLS_2005

> <r_lp_Energy>
23.7623

> <b_lp_Chiralities_Consistent>
1

> <s_lp_Variant>
AV-unprocessed.smi:3237-8

> <Gold.Version>
5.8.1

> <Gold.Id.Protein>
6NUR|6NUR_protein|mol2

> <Gold.PLP.Fitness>
42.9316

> <Gold.PLP.PLP>
-28.5315

> <Gold.PLP.part.hbond>
-3.7156

> <Gold.PLP.part.metal>
0.0000

> <Gold.PLP.part.buried>
-1.9331

> <Gold.PLP.part.nonpolar>
-22.1176

> <Gold.PLP.part.repulsive>
0.0432

> <Gold.PLP.ligand.clash>
0.0000

> <Gold.PLP.ligand.torsion>
0.9398

> <Gold.PLP.Chemscore.Hbond>
5.0000

> <Gold.PLP.Chemscore.CHOScore>
0.0000

> <Gold.PLP.Chemscore.Metal>
0.0000

> <Gold.Chemscore.Hbonds>
donor molecule, donor type, donor heavy atom, donor atom, acceptor molecule, acceptor atom, score
      L1  H    12    36       P1  7948  1.20
      P1  H  6896  6908       L1     5  2.00
      P1  H  6934  6947       L1    18  1.00

> <Gold.PLP.Chemscore.Internal.Correction>
1.2797

> <Gold.Rescore>
     Score         DG    S(hbond)    S(metal)    S(lipo)     H(rot)  DE(clash)    DE(int)     intcor
     13.78     -17.97       2.67        0.00      57.79       1.25       0.02       4.17       ----

> <Gold.Chemscore.Fitness>
13.7774

> <Gold.Chemscore.DG>
-17.9682

> <Gold.Chemscore.ZeroCoef>
-5.4800

> <Gold.Chemscore.Hbond>
2.6700

> <Gold.Chemscore.Metal>
0.0000

> <Gold.Chemscore.Lipo>
57.7870

> <Gold.Chemscore.Internal_Hbond>
0.0000

> <Gold.Chemscore.DEClash>
0.0195

> <Gold.Chemscore.DEInternal>
4.1713

> <Gold.Chemscore.Rot>
1.2464

> <Gold.Chemscore.Internal.Correction>
   9.000000E+99

> <Gold.Chemscore.Hbonds>
donor molecule, donor type, donor heavy atom, donor atom, acceptor molecule, acceptor atom, score
      L1  H    12    36       P1  7948  0.04
      P1  H  6896  6908       L1     5  0.65
      P1  H  6934  6947       L1    18  0.57

> <Gold.Chemscore.Hbond.Weighted>
-8.9180

> <Gold.Chemscore.Metal.Weighted>
-0.0000

> <Gold.Chemscore.Lipo.Weighted>
-6.7611

> <Gold.Chemscore.Internal_Hbond.Weighted>
0.0000

> <Gold.Chemscore.DEClash.Weighted>
0.0195

> <Gold.Chemscore.DEInternal.Weighted>
4.1713

> <Gold.Chemscore.Rot.Weighted>
3.1909

> <Gold.Chemscore.Internal.Correction.Weighted>
   9.000000E+99

> <Gold.Protein.RotatedTorsions>
[ 6907 6896 6895 6894 ] final  154.32 input  -60.11 | X-H torsion
[ 7974 7965 7964 7962 ] final  -68.22 input  175.53 | X-H torsion
[ 8008 7997 7996 7995 ] final   66.28 input   59.86 | X-H torsion
[ 10167 10162 10161 10158 ] final   94.19 input  -65.29 | X-H torsion
[ 10718 10713 10712 10709 ] final -105.05 input   66.30 | X-H torsion
[ 10763 10752 10751 10750 ] final    7.79 input  -60.55 | X-H torsion
[ 11005 11000 10999 10996 ] final  146.54 input  -57.11 | X-H torsion

> <Gold.Protein.ActiveResidues>
 VAL166  LYS551  ARG553  GLY616  TRP617  ASP618  TYR619  PRO620  LYS621  CYS622 
 ASP623  PHE694  ASN695  SER759  ASP760  ASP761  ALA762  ILE779  LEU786  VAL792 
 PHE793  MET794  SER795  GLU796  ALA797  LYS798  CYS799  TRP800  GLU811  SER814 

> <Gold.Protein.RotatedAtoms>
  152.0602  133.4058  159.4414 H   0  0  0  0  0  0  0  0  0  0  0  0  # atno 6907 bound_to 6896
  150.6866  134.3209  159.4795 H   0  0  0  0  0  0  0  0  0  0  0  0  # atno 6908 bound_to 6896
  152.1029  134.9328  160.0619 H   0  0  0  0  0  0  0  0  0  0  0  0  # atno 6909 bound_to 6896
  145.7193  140.9045  143.0639 H   0  0  0  0  0  0  0  0  0  0  0  0  # atno 7974 bound_to 7965
  155.6749  140.3497  155.4833 H   0  0  0  0  0  0  0  0  0  0  0  0  # atno 8008 bound_to 7997
  155.9656  140.1146  157.0880 H   0  0  0  0  0  0  0  0  0  0  0  0  # atno 8009 bound_to 7997
  154.4153  140.1167  156.5224 H   0  0  0  0  0  0  0  0  0  0  0  0  # atno 8010 bound_to 7997
  139.8107  144.6774  150.9644 H   0  0  0  0  0  0  0  0  0  0  0  0  # atno 10167 bound_to 10162
  156.0329  130.5544  150.7483 H   0  0  0  0  0  0  0  0  0  0  0  0  # atno 10718 bound_to 10713
  153.2322  135.6894  153.7876 H   0  0  0  0  0  0  0  0  0  0  0  0  # atno 10763 bound_to 10752
  153.7036  135.3293  155.3231 H   0  0  0  0  0  0  0  0  0  0  0  0  # atno 10764 bound_to 10752
  154.8319  135.4574  154.1212 H   0  0  0  0  0  0  0  0  0  0  0  0  # atno 10765 bound_to 10752
  140.0801  134.9102  157.1487 H   0  0  0  0  0  0  0  0  0  0  0  0  # atno 11005 bound_to 11000
  144.6921  139.9180  143.7466 LP  0  0  0  0  0  0  0  0  0  0  0  0  # atno 17320 bound_to 7965
  146.0640  139.3632  143.0563 LP  0  0  0  0  0  0  0  0  0  0  0  0  # atno 17321 bound_to 7965
  140.7818  143.4188  151.0875 LP  0  0  0  0  0  0  0  0  0  0  0  0  # atno 17342 bound_to 10162
  139.7855  143.8294  152.3144 LP  0  0  0  0  0  0  0  0  0  0  0  0  # atno 17343 bound_to 10162
  157.5034  131.0920  151.0286 LP  0  0  0  0  0  0  0  0  0  0  0  0  # atno 17370 bound_to 10713
  157.0661  130.5845  149.5394 LP  0  0  0  0  0  0  0  0  0  0  0  0  # atno 17371 bound_to 10713
  140.3500  134.2609  155.7200 LP  0  0  0  0  0  0  0  0  0  0  0  0  # atno 17394 bound_to 11000
  141.2044  133.7888  157.0291 LP  0  0  0  0  0  0  0  0  0  0  0  0  # atno 17395 bound_to 11000

$$$$
