AV-unprocessed.smi:2482|AV-procd|sdf|9782|dock5
  -GOLD-   2272013423D 1   1.00000     0.00000
 Structure written by MMmdl.
 34 35  0  0  0  0  0  0  0  0  3 V2000
  150.5632  138.3565  153.8984 C   0  0  0  0  0  0  0  0  0  0  0  0
  150.7594  139.4816  154.8975 C   0  0  0  0  0  0  0  0  0  0  0  0
  149.9671  140.5610  154.7220 N   0  0  0  0  0  0  0  0  0  0  0  0
  150.1013  141.5856  155.5870 C   0  0  0  0  0  0  0  0  0  0  0  0
  151.0218  141.5825  156.6518 C   0  0  0  0  0  0  0  0  0  0  0  0
  151.8628  140.4636  156.8432 C   0  0  0  0  0  0  0  0  0  0  0  0
  152.7416  140.4443  157.8590 N   0  5  0  0  0  0  0  0  0  0  0  0
  152.4468  141.0765  159.0207 C   0  0  0  0  0  0  0  0  0  0  0  0
  151.5146  140.8574  159.7971 O   0  0  0  0  0  0  0  0  0  0  0  0
  153.4624  142.2004  159.3265 C   0  0  1  0  0  0  0  0  0  0  0  0
  152.8785  143.6308  159.2437 C   0  0  0  0  0  0  0  0  0  0  0  0
  151.9451  143.8922  160.3652 N   0  3  2  0  0  0  0  0  0  0  0  0
  151.3127  145.2256  160.2835 C   0  0  0  0  0  0  0  0  0  0  0  0
  152.6051  143.6485  161.6675 C   0  0  0  0  0  0  0  0  0  0  0  0
  153.1768  142.2223  161.7174 C   0  0  0  0  0  0  0  0  0  0  0  0
  154.0616  142.0221  160.6160 O   0  0  0  0  0  0  0  0  0  0  0  0
  151.7157  139.3817  155.9366 C   0  0  0  0  0  0  0  0  0  0  0  0
  152.6881  137.9544  156.0909 Cl  0  0  0  0  0  0  0  0  0  0  0  0
  151.4869  138.1719  153.3495 H   0  0  0  0  0  0  0  0  0  0  0  0
  149.7826  138.5938  153.1746 H   0  0  0  0  0  0  0  0  0  0  0  0
  150.2776  137.4386  154.4127 H   0  0  0  0  0  0  0  0  0  0  0  0
  149.4543  142.4354  155.4268 H   0  0  0  0  0  0  0  0  0  0  0  0
  151.0815  142.4343  157.3136 H   0  0  0  0  0  0  0  0  0  0  0  0
  154.2584  142.1196  158.5847 H   0  0  0  0  0  0  0  0  0  0  0  0
  153.6902  144.3592  159.2733 H   0  0  0  0  0  0  0  0  0  0  0  0
  152.3652  143.7777  158.2920 H   0  0  0  0  0  0  0  0  0  0  0  0
  152.0579  146.0183  160.3596 H   0  0  0  0  0  0  0  0  0  0  0  0
  150.5884  145.3568  161.0878 H   0  0  0  0  0  0  0  0  0  0  0  0
  150.7840  145.3419  159.3368 H   0  0  0  0  0  0  0  0  0  0  0  0
  153.4045  144.3765  161.8149 H   0  0  0  0  0  0  0  0  0  0  0  0
  151.8888  143.7888  162.4779 H   0  0  0  0  0  0  0  0  0  0  0  0
  153.7351  142.0773  162.6422 H   0  0  0  0  0  0  0  0  0  0  0  0
  152.3765  141.4812  161.7209 H   0  0  0  0  0  0  0  0  0  0  0  0
  151.2028  143.2112  160.2830 H   0  0  0  0  0  0  0  0  0  0  0  0
  1  2  1  0  0  0  0
  1 19  1  0  0  0  0
  1 20  1  0  0  0  0
  1 21  1  0  0  0  0
  2 17  1  0  0  0  0
  2  3  2  0  0  0  0
  3  4  1  0  0  0  0
  4  5  2  0  0  0  0
  4 22  1  0  0  0  0
  5  6  1  0  0  0  0
  5 23  1  0  0  0  0
  6  7  1  0  0  0  0
  6 17  2  0  0  0  0
  7  8  1  0  0  0  0
  8  9  2  0  0  0  0
  8 10  1  0  0  0  0
 10 16  1  0  0  0  0
 10 11  1  0  0  0  0
 10 24  1  0  0  0  0
 11 12  1  0  0  0  0
 11 25  1  0  0  0  0
 11 26  1  0  0  0  0
 12 13  1  0  0  0  0
 12 14  1  0  0  0  0
 12 34  1  0  0  0  0
 13 27  1  0  0  0  0
 13 28  1  0  0  0  0
 13 29  1  0  0  0  0
 14 15  1  0  0  0  0
 14 30  1  0  0  0  0
 14 31  1  0  0  0  0
 15 16  1  0  0  0  0
 15 32  1  0  0  0  0
 15 33  1  0  0  0  0
 17 18  1  0  0  0  0
M  CHG  1   7  -1
M  CHG  1  12   1
M  END
> <s_m_source_file>
AV-unprocessed.smi

> <i_m_source_file_index>
2482

> <i_lp_mmshare_version>
43012

> <i_f3d_flags>
0

> <s_epik_input>
W0NIM11jMW5bY0hdW2NIXWMoYzFDbClbTkhdQyg9TylbQ0BASF0yW0NIMl1OKFtDSDNdKVtDSDJdW0NIMl1PMg==

> <s_epik_cmdline>
J2VwaWtfcHl0aG9uJywgJy1waCcsICc3LjAnLCAnLXRuJywgJzgnLCAnLW1hJywgJzIwMCcsICctbWV0YWxfYmluZGluZycsICctaW1hZScsICc8aW5maWxlLm1hZT4nLCAnLW9tYWUnLCAnPG91dGZpbGUubWFlPic=

> <r_epik_Ionization_Penalty>
6.9249

> <r_epik_Ionization_Penalty_Charging>
6.74596

> <r_epik_Ionization_Penalty_Neutral>
0.178941

> <r_epik_State_Penalty>
6.78185

> <r_epik_Charging_Adjusted_Penalty>
13.5278

> <i_epik_Tot_Q>
0

> <i_epik_Tot_abs_Q>
2

> <r_epik_Metal_State_Penalty>
2.70608

> <b_epik_Metal_Only>
1

> <s_lp_Force_Field>
OPLS_2005

> <r_lp_Energy>
12.3896

> <b_lp_Chiralities_Consistent>
1

> <s_lp_Variant>
AV-unprocessed.smi:2482-8

> <Gold.Version>
5.8.1

> <Gold.Id.Protein>
6NUR|6NUR_protein|mol2

> <Gold.PLP.Fitness>
46.1466

> <Gold.PLP.PLP>
-38.8634

> <Gold.PLP.part.hbond>
-2.9573

> <Gold.PLP.part.metal>
0.0000

> <Gold.PLP.part.buried>
-2.7228

> <Gold.PLP.part.nonpolar>
-32.1554

> <Gold.PLP.part.repulsive>
0.1486

> <Gold.PLP.ligand.clash>
0.0000

> <Gold.PLP.ligand.torsion>
0.8792

> <Gold.PLP.Chemscore.Hbond>
1.8524

> <Gold.PLP.Chemscore.CHOScore>
1.0000

> <Gold.PLP.Chemscore.Metal>
0.0000

> <Gold.Chemscore.Hbonds>
donor molecule, donor type, donor heavy atom, donor atom, acceptor molecule, acceptor atom, score
      P1  H  7997  8009       L1     7  1.65
      L1  C     4    22       P1  8028  1.00

> <Gold.PLP.Chemscore.Internal.Correction>
0.4842

> <Gold.Rescore>
     Score         DG    S(hbond)    S(metal)    S(lipo)     H(rot)  DE(clash)    DE(int)     intcor
     15.28     -17.32       0.52        0.00     108.24       1.00       0.03       2.01       ----

> <Gold.Chemscore.Fitness>
15.2781

> <Gold.Chemscore.DG>
-17.3224

> <Gold.Chemscore.ZeroCoef>
-5.4800

> <Gold.Chemscore.Hbond>
0.5206

> <Gold.Chemscore.Metal>
0.0000

> <Gold.Chemscore.Lipo>
108.2355

> <Gold.Chemscore.Internal_Hbond>
0.0000

> <Gold.Chemscore.DEClash>
0.0313

> <Gold.Chemscore.DEInternal>
2.0130

> <Gold.Chemscore.Rot>
1.0000

> <Gold.Chemscore.Internal.Correction>
   9.000000E+99

> <Gold.Chemscore.Hbonds>
donor molecule, donor type, donor heavy atom, donor atom, acceptor molecule, acceptor atom, score
      P1  H  7997  8009       L1     7  0.34

> <Gold.Chemscore.Hbond.Weighted>
-1.7389

> <Gold.Chemscore.Metal.Weighted>
-0.0000

> <Gold.Chemscore.Lipo.Weighted>
-12.6636

> <Gold.Chemscore.Internal_Hbond.Weighted>
0.0000

> <Gold.Chemscore.DEClash.Weighted>
0.0313

> <Gold.Chemscore.DEInternal.Weighted>
2.0130

> <Gold.Chemscore.Rot.Weighted>
2.5600

> <Gold.Chemscore.Internal.Correction.Weighted>
   9.000000E+99

> <Gold.Protein.RotatedTorsions>
[ 6907 6896 6895 6894 ] final  -31.43 input  -60.11 | X-H torsion
[ 7974 7965 7964 7962 ] final  157.22 input  175.53 | X-H torsion
[ 8008 7997 7996 7995 ] final  159.56 input   59.86 | X-H torsion
[ 10167 10162 10161 10158 ] final   60.91 input  -65.29 | X-H torsion
[ 10718 10713 10712 10709 ] final  -50.59 input   66.30 | X-H torsion
[ 10763 10752 10751 10750 ] final   -0.39 input  -60.55 | X-H torsion
[ 11005 11000 10999 10996 ] final -134.52 input  -57.11 | X-H torsion

> <Gold.Protein.ActiveResidues>
 VAL166  LYS551  ARG553  GLY616  TRP617  ASP618  TYR619  PRO620  LYS621  CYS622 
 ASP623  PHE694  ASN695  SER759  ASP760  ASP761  ALA762  ILE779  LEU786  VAL792 
 PHE793  MET794  SER795  GLU796  ALA797  LYS798  CYS799  TRP800  GLU811  SER814 

> <Gold.Protein.RotatedAtoms>
  151.0922  134.9923  159.8407 H   0  0  0  0  0  0  0  0  0  0  0  0  # atno 6907 bound_to 6896
  152.5430  134.2052  159.8738 H   0  0  0  0  0  0  0  0  0  0  0  0  # atno 6908 bound_to 6896
  151.2089  133.4523  159.2631 H   0  0  0  0  0  0  0  0  0  0  0  0  # atno 6909 bound_to 6896
  144.7916  139.7311  143.6219 H   0  0  0  0  0  0  0  0  0  0  0  0  # atno 7974 bound_to 7965
  156.2231  140.1828  156.7430 H   0  0  0  0  0  0  0  0  0  0  0  0  # atno 8008 bound_to 7997
  154.5896  140.0653  156.9249 H   0  0  0  0  0  0  0  0  0  0  0  0  # atno 8009 bound_to 7997
  155.2359  140.3318  155.4300 H   0  0  0  0  0  0  0  0  0  0  0  0  # atno 8010 bound_to 7997
  140.1605  144.4375  150.6712 H   0  0  0  0  0  0  0  0  0  0  0  0  # atno 10167 bound_to 10162
  156.1786  130.4150  149.9540 H   0  0  0  0  0  0  0  0  0  0  0  0  # atno 10718 bound_to 10713
  153.3313  135.6975  153.6946 H   0  0  0  0  0  0  0  0  0  0  0  0  # atno 10763 bound_to 10752
  153.5747  135.3509  155.2852 H   0  0  0  0  0  0  0  0  0  0  0  0  # atno 10764 bound_to 10752
  154.8618  135.4280  154.2502 H   0  0  0  0  0  0  0  0  0  0  0  0  # atno 10765 bound_to 10752
  140.8983  134.1724  157.4479 H   0  0  0  0  0  0  0  0  0  0  0  0  # atno 11005 bound_to 11000
  146.2170  139.5567  142.9643 LP  0  0  0  0  0  0  0  0  0  0  0  0  # atno 17320 bound_to 7965
  145.5780  141.0386  143.2138 LP  0  0  0  0  0  0  0  0  0  0  0  0  # atno 17321 bound_to 7965
  140.6646  143.2263  151.5774 LP  0  0  0  0  0  0  0  0  0  0  0  0  # atno 17342 bound_to 10162
  139.5383  144.2718  152.1298 LP  0  0  0  0  0  0  0  0  0  0  0  0  # atno 17343 bound_to 10162
  156.7317  130.9046  151.3626 LP  0  0  0  0  0  0  0  0  0  0  0  0  # atno 17370 bound_to 10713
  157.6853  130.9179  150.0370 LP  0  0  0  0  0  0  0  0  0  0  0  0  # atno 17371 bound_to 10713
  139.8738  134.9887  156.5425 LP  0  0  0  0  0  0  0  0  0  0  0  0  # atno 17394 bound_to 11000
  140.8262  133.8315  155.8941 LP  0  0  0  0  0  0  0  0  0  0  0  0  # atno 17395 bound_to 11000

$$$$
