AV-unprocessed.smi:1705|AV-procd|sdf|6884|dock8
  -GOLD-   22720 8 93D 1   1.00000     0.00000
 Structure written by MMmdl.
 38 39  0  0  0  0  0  0  0  0  1 V2000
  150.4604  137.3373  156.5951 C   0  0  0  0  0  0  0  0  0  0  0  0
  151.1533  138.5139  155.8938 C   0  0  2  0  0  0  0  0  0  0  0  0
  151.3856  139.5926  156.8458 N   0  0  0  0  0  0  0  0  0  0  0  0
  152.2399  139.7038  157.9431 C   0  0  0  0  0  0  0  0  0  0  0  0
  153.0969  138.7141  158.3354 C   0  0  0  0  0  0  0  0  0  0  0  0
  153.2624  137.4638  157.6632 C   0  0  0  0  0  0  0  0  0  0  0  0
  153.3932  136.4248  157.1673 N   0  0  0  0  0  0  0  0  0  0  0  0
  153.9721  138.8618  159.4983 C   0  0  0  0  0  0  0  0  0  0  0  0
  154.7751  137.9998  159.8640 O   0  0  0  0  0  0  0  0  0  0  0  0
  153.8456  140.0846  160.1866 N   0  0  0  0  0  0  0  0  0  0  0  0
  154.6981  140.2867  161.3425 C   0  0  0  0  0  0  0  0  0  0  0  0
  152.9895  141.1307  159.7921 C   0  0  0  0  0  0  0  0  0  0  0  0
  152.9412  142.1944  160.4178 O   0  0  0  0  0  0  0  0  0  0  0  0
  152.1916  140.9170  158.6413 N   0  0  0  0  0  0  0  0  0  0  0  0
  151.3398  142.0385  158.2909 C   0  0  0  0  0  0  0  0  0  0  0  0
  150.3510  139.0096  154.6718 C   0  0  1  0  0  0  0  0  0  0  0  0
  148.8241  138.9224  154.7881 C   0  0  0  0  0  0  0  0  0  0  0  0
  148.3810  140.0259  153.8547 C   0  0  0  0  0  0  0  0  0  0  0  0
  149.4382  141.0912  154.1221 C   0  0  0  0  0  0  0  0  0  0  0  0
  150.6413  140.3758  154.3835 O   0  0  0  0  0  0  0  0  0  0  0  0
  150.2928  136.5124  155.9021 H   0  0  0  0  0  0  0  0  0  0  0  0
  149.4938  137.6274  157.0080 H   0  0  0  0  0  0  0  0  0  0  0  0
  151.0704  136.9582  157.4158 H   0  0  0  0  0  0  0  0  0  0  0  0
  152.1053  138.1225  155.5465 H   0  0  0  0  0  0  0  0  0  0  0  0
  150.6489  140.2829  156.8240 H   0  0  0  0  0  0  0  0  0  0  0  0
  154.2696  141.0377  162.0069 H   0  0  0  0  0  0  0  0  0  0  0  0
  155.6726  140.6011  160.9660 H   0  0  0  0  0  0  0  0  0  0  0  0
  154.7675  139.3507  161.8991 H   0  0  0  0  0  0  0  0  0  0  0  0
  150.5868  142.1288  159.0755 H   0  0  0  0  0  0  0  0  0  0  0  0
  150.8631  141.8795  157.3267 H   0  0  0  0  0  0  0  0  0  0  0  0
  151.9657  142.9307  158.2241 H   0  0  0  0  0  0  0  0  0  0  0  0
  150.6596  138.4423  153.7922 H   0  0  0  0  0  0  0  0  0  0  0  0
  148.4324  137.9442  154.5085 H   0  0  0  0  0  0  0  0  0  0  0  0
  148.4869  139.1452  155.8009 H   0  0  0  0  0  0  0  0  0  0  0  0
  148.4378  139.6888  152.8190 H   0  0  0  0  0  0  0  0  0  0  0  0
  147.3660  140.3730  154.0494 H   0  0  0  0  0  0  0  0  0  0  0  0
  149.5573  141.7842  153.2889 H   0  0  0  0  0  0  0  0  0  0  0  0
  149.1791  141.6688  155.0104 H   0  0  0  0  0  0  0  0  0  0  0  0
  1  2  1  0  0  0  0
  1 21  1  0  0  0  0
  1 22  1  0  0  0  0
  1 23  1  0  0  0  0
  2  3  1  0  0  0  0
  2 16  1  0  0  0  0
  2 24  1  0  0  0  0
  3  4  1  0  0  0  0
  3 25  1  0  0  0  0
  4 14  1  0  0  0  0
  4  5  2  0  0  0  0
  5  6  1  0  0  0  0
  5  8  1  0  0  0  0
  6  7  3  0  0  0  0
  8  9  2  0  0  0  0
  8 10  1  0  0  0  0
 10 11  1  0  0  0  0
 10 12  1  0  0  0  0
 11 26  1  0  0  0  0
 11 27  1  0  0  0  0
 11 28  1  0  0  0  0
 12 13  2  0  0  0  0
 12 14  1  0  0  0  0
 14 15  1  0  0  0  0
 15 29  1  0  0  0  0
 15 30  1  0  0  0  0
 15 31  1  0  0  0  0
 16 20  1  0  0  0  0
 16 17  1  0  0  0  0
 16 32  1  0  0  0  0
 17 18  1  0  0  0  0
 17 33  1  0  0  0  0
 17 34  1  0  0  0  0
 18 19  1  0  0  0  0
 18 35  1  0  0  0  0
 18 36  1  0  0  0  0
 19 20  1  0  0  0  0
 19 37  1  0  0  0  0
 19 38  1  0  0  0  0
M  END
> <s_m_source_file>
AV-unprocessed.smi

> <i_m_source_file_index>
1705

> <i_lp_mmshare_version>
43012

> <i_f3d_flags>
0

> <s_epik_input>
TzFbQ0gyXVtDSDJdW0NIMl1bQ0BIXTFbQ0BIXShbQ0gzXSlbTkhdYzJjKEMjTiljKD1PKW4oW0NIM10pYyg9TyluMltDSDNd

> <s_epik_cmdline>
J2VwaWtfcHl0aG9uJywgJy1waCcsICc3LjAnLCAnLXRuJywgJzgnLCAnLW1hJywgJzIwMCcsICctbWV0YWxfYmluZGluZycsICctaW1hZScsICc8aW5maWxlLm1hZT4nLCAnLW9tYWUnLCAnPG91dGZpbGUubWFlPic=

> <r_epik_Ionization_Penalty>
0.000446268

> <r_epik_Ionization_Penalty_Charging>
9.41922e-10

> <r_epik_Ionization_Penalty_Neutral>
0.000446267

> <r_epik_State_Penalty>
0.000275531

> <r_epik_Charging_Adjusted_Penalty>
0.000275532

> <i_epik_Tot_Q>
0

> <i_epik_Tot_abs_Q>
0

> <r_epik_Metal_State_Penalty>
-0

> <b_epik_Metal_Only>
0

> <s_lp_Force_Field>
OPLS_2005

> <r_lp_Energy>
40.5078

> <b_lp_Chiralities_Consistent>
1

> <s_lp_Variant>
AV-unprocessed.smi:1705-3

> <Gold.Version>
5.8.1

> <Gold.Id.Protein>
6NUR|6NUR_protein|mol2

> <Gold.PLP.Fitness>
32.6422

> <Gold.PLP.PLP>
-28.1513

> <Gold.PLP.part.hbond>
-2.0000

> <Gold.PLP.part.metal>
0.0000

> <Gold.PLP.part.buried>
-3.6526

> <Gold.PLP.part.nonpolar>
-22.5446

> <Gold.PLP.part.repulsive>
0.1753

> <Gold.PLP.ligand.clash>
1.7701

> <Gold.PLP.ligand.torsion>
0.7632

> <Gold.PLP.Chemscore.Hbond>
2.0000

> <Gold.PLP.Chemscore.CHOScore>
0.0000

> <Gold.PLP.Chemscore.Metal>
0.0000

> <Gold.Chemscore.Hbonds>
donor molecule, donor type, donor heavy atom, donor atom, acceptor molecule, acceptor atom, score
      P1  H  7989  7998       L1    20  0.71
      P1  H 10752 10764       L1     7  0.75

> <Gold.PLP.Chemscore.Internal.Correction>
1.7873

> <Gold.Rescore>
     Score         DG    S(hbond)    S(metal)    S(lipo)     H(rot)  DE(clash)    DE(int)     intcor
     11.82     -14.02       1.72        0.00      51.97       1.28       0.01       2.19       ----

> <Gold.Chemscore.Fitness>
11.8167

> <Gold.Chemscore.DG>
-14.0238

> <Gold.Chemscore.ZeroCoef>
-5.4800

> <Gold.Chemscore.Hbond>
1.7169

> <Gold.Chemscore.Metal>
0.0000

> <Gold.Chemscore.Lipo>
51.9729

> <Gold.Chemscore.Internal_Hbond>
0.0000

> <Gold.Chemscore.DEClash>
0.0149

> <Gold.Chemscore.DEInternal>
2.1922

> <Gold.Chemscore.Rot>
1.2780

> <Gold.Chemscore.Internal.Correction>
   9.000000E+99

> <Gold.Chemscore.Hbonds>
donor molecule, donor type, donor heavy atom, donor atom, acceptor molecule, acceptor atom, score
      P1  H  7989  7998       L1    20  0.42
      P1  H 10752 10764       L1     7  0.72

> <Gold.Chemscore.Hbond.Weighted>
-5.7346

> <Gold.Chemscore.Metal.Weighted>
-0.0000

> <Gold.Chemscore.Lipo.Weighted>
-6.0808

> <Gold.Chemscore.Internal_Hbond.Weighted>
0.0000

> <Gold.Chemscore.DEClash.Weighted>
0.0149

> <Gold.Chemscore.DEInternal.Weighted>
2.1922

> <Gold.Chemscore.Rot.Weighted>
3.2717

> <Gold.Chemscore.Internal.Correction.Weighted>
   9.000000E+99

> <Gold.Protein.RotatedTorsions>
[ 6907 6896 6895 6894 ] final -163.65 input  -60.11 | X-H torsion
[ 7974 7965 7964 7962 ] final   -2.67 input  175.53 | X-H torsion
[ 8008 7997 7996 7995 ] final  149.90 input   59.86 | X-H torsion
[ 10167 10162 10161 10158 ] final  120.14 input  -65.29 | X-H torsion
[ 10718 10713 10712 10709 ] final   61.55 input   66.30 | X-H torsion
[ 10763 10752 10751 10750 ] final   20.58 input  -60.55 | X-H torsion
[ 11005 11000 10999 10996 ] final  -56.02 input  -57.11 | X-H torsion

> <Gold.Protein.ActiveResidues>
 VAL166  LYS551  ARG553  GLY616  TRP617  ASP618  TYR619  PRO620  LYS621  CYS622 
 ASP623  PHE694  ASN695  SER759  ASP760  ASP761  ALA762  ILE779  LEU786  VAL792 
 PHE793  MET794  SER795  GLU796  ALA797  LYS798  CYS799  TRP800  GLU811  SER814 

> <Gold.Protein.RotatedAtoms>
  151.3994  133.3762  159.2730 H   0  0  0  0  0  0  0  0  0  0  0  0  # atno 6907 bound_to 6896
  150.9445  134.8852  159.7643 H   0  0  0  0  0  0  0  0  0  0  0  0  # atno 6908 bound_to 6896
  152.5085  134.3946  159.9448 H   0  0  0  0  0  0  0  0  0  0  0  0  # atno 6909 bound_to 6896
  146.2401  140.1606  142.8333 H   0  0  0  0  0  0  0  0  0  0  0  0  # atno 7974 bound_to 7965
  156.2737  140.2089  156.5931 H   0  0  0  0  0  0  0  0  0  0  0  0  # atno 8008 bound_to 7997
  154.6966  140.0525  157.0440 H   0  0  0  0  0  0  0  0  0  0  0  0  # atno 8009 bound_to 7997
  155.0792  140.3185  155.4609 H   0  0  0  0  0  0  0  0  0  0  0  0  # atno 8010 bound_to 7997
  139.6001  144.7054  151.3083 H   0  0  0  0  0  0  0  0  0  0  0  0  # atno 10167 bound_to 10162
  157.5836  130.9001  149.9475 H   0  0  0  0  0  0  0  0  0  0  0  0  # atno 10718 bound_to 10713
  153.1065  135.6686  153.9576 H   0  0  0  0  0  0  0  0  0  0  0  0  # atno 10763 bound_to 10752
  153.9132  135.3023  155.3450 H   0  0  0  0  0  0  0  0  0  0  0  0  # atno 10764 bound_to 10752
  154.7486  135.5045  153.9325 H   0  0  0  0  0  0  0  0  0  0  0  0  # atno 10765 bound_to 10752
  141.1101  133.6611  156.4557 H   0  0  0  0  0  0  0  0  0  0  0  0  # atno 11005 bound_to 11000
  145.0093  140.8700  143.5234 LP  0  0  0  0  0  0  0  0  0  0  0  0  # atno 17320 bound_to 7965
  145.1637  139.2444  143.5378 LP  0  0  0  0  0  0  0  0  0  0  0  0  # atno 17321 bound_to 7965
  140.7243  143.7049  150.7815 LP  0  0  0  0  0  0  0  0  0  0  0  0  # atno 17342 bound_to 10162
  140.0623  143.5142  152.2621 LP  0  0  0  0  0  0  0  0  0  0  0  0  # atno 17343 bound_to 10162
  156.0883  130.3666  150.0444 LP  0  0  0  0  0  0  0  0  0  0  0  0  # atno 17370 bound_to 10713
  156.8579  130.9481  151.3620 LP  0  0  0  0  0  0  0  0  0  0  0  0  # atno 17371 bound_to 10713
  140.4798  134.6675  157.5166 LP  0  0  0  0  0  0  0  0  0  0  0  0  # atno 17394 bound_to 11000
  139.9990  134.6865  155.9561 LP  0  0  0  0  0  0  0  0  0  0  0  0  # atno 17395 bound_to 11000

$$$$
