AV-unprocessed.smi:3284|AV-procd|sdf|12575|dock8
  -GOLD-   2272018493D 1   1.00000     0.00000
 Structure written by MMmdl.
 44 45  0  0  0  0  0  0  0  0  2 V2000
  152.4571  138.8854  154.9489 C   0  0  0  0  0  0  0  0  0  0  0  0
  151.2809  139.7345  155.3997 C   0  0  0  0  0  0  0  0  0  0  0  0
  151.2863  140.3616  156.5924 C   0  0  0  0  0  0  0  0  0  0  0  0
  150.1745  141.2613  157.1008 C   0  0  0  0  0  0  0  0  0  0  0  0
  148.9255  141.2385  156.2049 C   0  0  0  0  0  0  0  0  0  0  0  0
  149.3000  141.1539  154.7141 C   0  0  2  0  0  0  0  0  0  0  0  0
  148.0816  141.3856  153.8048 C   0  0  0  0  0  0  0  0  0  0  0  0
  150.1222  139.8648  154.4080 C   0  0  2  0  0  0  0  0  0  0  0  0
  149.2937  138.5544  154.3899 C   0  0  0  0  0  0  0  0  0  0  0  0
  148.4716  138.4241  153.1710 N   0  3  0  0  0  0  0  0  0  0  0  0
  147.0186  138.5544  153.4010 C   0  0  0  0  0  0  0  0  0  0  0  0
  146.2111  138.1321  152.1642 C   0  0  0  0  0  0  0  0  0  0  0  0
  145.0371  137.2605  152.4966 C   0  0  0  0  0  0  0  0  0  0  0  0
  144.1318  137.5668  153.4214 N   0  0  0  0  0  0  0  0  0  0  0  0
  143.2199  136.5172  153.3876 C   0  0  0  0  0  0  0  0  0  0  0  0
  143.6049  135.6106  152.4296 C   0  0  0  0  0  0  0  0  0  0  0  0
  144.7721  136.1029  151.8610 N   0  0  0  0  0  0  0  0  0  0  0  0
  145.5309  135.4745  150.7970 C   0  0  0  0  0  0  0  0  0  0  0  0
  152.8630  139.2694  154.0128 H   0  0  0  0  0  0  0  0  0  0  0  0
  152.1629  137.8480  154.7950 H   0  0  0  0  0  0  0  0  0  0  0  0
  153.2588  138.8955  155.6883 H   0  0  0  0  0  0  0  0  0  0  0  0
  152.1397  140.2580  157.2467 H   0  0  0  0  0  0  0  0  0  0  0  0
  149.9111  140.9741  158.1192 H   0  0  0  0  0  0  0  0  0  0  0  0
  150.5719  142.2753  157.1523 H   0  0  0  0  0  0  0  0  0  0  0  0
  148.2945  140.3926  156.4773 H   0  0  0  0  0  0  0  0  0  0  0  0
  148.3292  142.1309  156.3994 H   0  0  0  0  0  0  0  0  0  0  0  0
  149.9685  141.9939  154.5164 H   0  0  0  0  0  0  0  0  0  0  0  0
  147.2781  140.6798  154.0151 H   0  0  0  0  0  0  0  0  0  0  0  0
  148.3509  141.2972  152.7520 H   0  0  0  0  0  0  0  0  0  0  0  0
  147.6746  142.3864  153.9528 H   0  0  0  0  0  0  0  0  0  0  0  0
  150.5743  139.9934  153.4231 H   0  0  0  0  0  0  0  0  0  0  0  0
  149.9492  137.6848  154.4201 H   0  0  0  0  0  0  0  0  0  0  0  0
  148.6584  138.4875  155.2730 H   0  0  0  0  0  0  0  0  0  0  0  0
  148.7558  139.1397  152.5173 H   0  0  0  0  0  0  0  0  0  0  0  0
  146.7284  137.9499  154.2615 H   0  0  0  0  0  0  0  0  0  0  0  0
  146.7928  139.5927  153.6471 H   0  0  0  0  0  0  0  0  0  0  0  0
  145.8676  139.0170  151.6283 H   0  0  0  0  0  0  0  0  0  0  0  0
  146.8558  137.5947  151.4673 H   0  0  0  0  0  0  0  0  0  0  0  0
  142.3647  136.4963  154.0472 H   0  0  0  0  0  0  0  0  0  0  0  0
  143.1548  134.6809  152.1133 H   0  0  0  0  0  0  0  0  0  0  0  0
  145.0186  134.5772  150.4484 H   0  0  0  0  0  0  0  0  0  0  0  0
  146.5187  135.1943  151.1641 H   0  0  0  0  0  0  0  0  0  0  0  0
  145.6392  136.1655  149.9604 H   0  0  0  0  0  0  0  0  0  0  0  0
  148.6520  137.5210  152.7548 H   0  0  0  0  0  0  0  0  0  0  0  0
  1  2  1  0  0  0  0
  1 19  1  0  0  0  0
  1 20  1  0  0  0  0
  1 21  1  0  0  0  0
  2  8  1  0  0  0  0
  2  3  2  0  0  0  0
  3  4  1  0  0  0  0
  3 22  1  0  0  0  0
  4  5  1  0  0  0  0
  4 23  1  0  0  0  0
  4 24  1  0  0  0  0
  5  6  1  0  0  0  0
  5 25  1  0  0  0  0
  5 26  1  0  0  0  0
  6  7  1  0  0  0  0
  6  8  1  0  0  0  0
  6 27  1  0  0  0  0
  7 28  1  0  0  0  0
  7 29  1  0  0  0  0
  7 30  1  0  0  0  0
  8  9  1  0  0  0  0
  8 31  1  0  0  0  0
  9 10  1  0  0  0  0
  9 32  1  0  0  0  0
  9 33  1  0  0  0  0
 10 11  1  0  0  0  0
 10 34  1  0  0  0  0
 10 44  1  0  0  0  0
 11 12  1  0  0  0  0
 11 35  1  0  0  0  0
 11 36  1  0  0  0  0
 12 13  1  0  0  0  0
 12 37  1  0  0  0  0
 12 38  1  0  0  0  0
 13 17  1  0  0  0  0
 13 14  2  0  0  0  0
 14 15  1  0  0  0  0
 15 16  2  0  0  0  0
 15 39  1  0  0  0  0
 16 17  1  0  0  0  0
 16 40  1  0  0  0  0
 17 18  1  0  0  0  0
 18 41  1  0  0  0  0
 18 42  1  0  0  0  0
 18 43  1  0  0  0  0
M  CHG  1  10   1
M  END
> <s_m_source_file>
AV-unprocessed.smi

> <i_m_source_file_index>
3284

> <i_lp_mmshare_version>
43012

> <i_f3d_flags>
0

> <s_epik_input>
W0NIM11DMT1bQ0hdW0NIMl1bQ0gyXVtDQEBIXShbQ0gzXSlbQ0BIXTFbQ0gyXVtOSF1bQ0gyXVtDSDJdYzJuW2NIXVtjSF1uMltDSDNd

> <s_epik_cmdline>
J2VwaWtfcHl0aG9uJywgJy1waCcsICc3LjAnLCAnLXRuJywgJzgnLCAnLW1hJywgJzIwMCcsICctbWV0YWxfYmluZGluZycsICctaW1hZScsICc8aW5maWxlLm1hZT4nLCAnLW9tYWUnLCAnPG91dGZpbGUubWFlPic=

> <r_lp_tautomer_probability>
1

> <r_epik_Ionization_Penalty>
0.150779

> <r_epik_Ionization_Penalty_Charging>
0.150779

> <r_epik_Ionization_Penalty_Neutral>
1.39452e-13

> <r_epik_State_Penalty>
0.349447

> <r_epik_Charging_Adjusted_Penalty>
0.500226

> <i_epik_Tot_Q>
1

> <i_epik_Tot_abs_Q>
1

> <r_epik_Metal_State_Penalty>
0.000470967

> <b_epik_Metal_Only>
0

> <s_lp_Force_Field>
OPLS_2005

> <r_lp_Energy>
16.0755

> <b_lp_Chiralities_Consistent>
1

> <s_lp_Variant>
AV-unprocessed.smi:3284-4

> <Gold.Version>
5.8.1

> <Gold.Id.Protein>
6NUR|6NUR_protein|mol2

> <Gold.PLP.Fitness>
44.9586

> <Gold.PLP.PLP>
-37.8093

> <Gold.PLP.part.hbond>
-2.0000

> <Gold.PLP.part.metal>
0.0000

> <Gold.PLP.part.buried>
-2.0369

> <Gold.PLP.part.nonpolar>
-35.0979

> <Gold.PLP.part.repulsive>
0.2201

> <Gold.PLP.ligand.clash>
0.0000

> <Gold.PLP.ligand.torsion>
0.9412

> <Gold.PLP.Chemscore.Hbond>
3.0000

> <Gold.PLP.Chemscore.CHOScore>
0.0000

> <Gold.PLP.Chemscore.Metal>
0.0000

> <Gold.Chemscore.Hbonds>
donor molecule, donor type, donor heavy atom, donor atom, acceptor molecule, acceptor atom, score
      L1  H    10    34       P1  7957  1.00
      L1  H    10    44       P1  7948  2.00

> <Gold.PLP.Chemscore.Internal.Correction>
0.0318

> <Gold.Rescore>
     Score         DG    S(hbond)    S(metal)    S(lipo)     H(rot)  DE(clash)    DE(int)     intcor
     17.09     -18.07       1.97        0.00      86.51       1.61       0.04       0.95       ----

> <Gold.Chemscore.Fitness>
17.0864

> <Gold.Chemscore.DG>
-18.0721

> <Gold.Chemscore.ZeroCoef>
-5.4800

> <Gold.Chemscore.Hbond>
1.9742

> <Gold.Chemscore.Metal>
0.0000

> <Gold.Chemscore.Lipo>
86.5067

> <Gold.Chemscore.Internal_Hbond>
0.0000

> <Gold.Chemscore.DEClash>
0.0397

> <Gold.Chemscore.DEInternal>
0.9460

> <Gold.Chemscore.Rot>
1.6105

> <Gold.Chemscore.Internal.Correction>
   9.000000E+99

> <Gold.Chemscore.Hbonds>
donor molecule, donor type, donor heavy atom, donor atom, acceptor molecule, acceptor atom, score
      L1  H    10    34       P1  7957  1.00
      L1  H    10    44       P1  7948  0.97

> <Gold.Chemscore.Hbond.Weighted>
-6.5938

> <Gold.Chemscore.Metal.Weighted>
-0.0000

> <Gold.Chemscore.Lipo.Weighted>
-10.1213

> <Gold.Chemscore.Internal_Hbond.Weighted>
0.0000

> <Gold.Chemscore.DEClash.Weighted>
0.0397

> <Gold.Chemscore.DEInternal.Weighted>
0.9460

> <Gold.Chemscore.Rot.Weighted>
4.1230

> <Gold.Chemscore.Internal.Correction.Weighted>
   9.000000E+99

> <Gold.Protein.RotatedTorsions>
[ 6907 6896 6895 6894 ] final   96.77 input  -60.11 | X-H torsion
[ 7974 7965 7964 7962 ] final  -96.68 input  175.53 | X-H torsion
[ 8008 7997 7996 7995 ] final -106.40 input   59.86 | X-H torsion
[ 10167 10162 10161 10158 ] final  -65.75 input  -65.29 | X-H torsion
[ 10718 10713 10712 10709 ] final   -4.53 input   66.30 | X-H torsion
[ 10763 10752 10751 10750 ] final  152.91 input  -60.55 | X-H torsion
[ 11005 11000 10999 10996 ] final -124.74 input  -57.11 | X-H torsion

> <Gold.Protein.ActiveResidues>
 VAL166  LYS551  ARG553  GLY616  TRP617  ASP618  TYR619  PRO620  LYS621  CYS622 
 ASP623  PHE694  ASN695  SER759  ASP760  ASP761  ALA762  ILE779  LEU786  VAL792 
 PHE793  MET794  SER795  GLU796  ALA797  LYS798  CYS799  TRP800  GLU811  SER814 

> <Gold.Protein.RotatedAtoms>
  152.5431  134.0835  159.8245 H   0  0  0  0  0  0  0  0  0  0  0  0  # atno 6907 bound_to 6896
  151.0934  133.5291  159.2621 H   0  0  0  0  0  0  0  0  0  0  0  0  # atno 6908 bound_to 6896
  151.2073  135.0476  159.8951 H   0  0  0  0  0  0  0  0  0  0  0  0  # atno 6909 bound_to 6896
  145.3437  140.9464  143.2593 H   0  0  0  0  0  0  0  0  0  0  0  0  # atno 7974 bound_to 7965
  154.9140  140.0409  157.1962 H   0  0  0  0  0  0  0  0  0  0  0  0  # atno 8008 bound_to 7997
  154.8320  140.2900  155.5695 H   0  0  0  0  0  0  0  0  0  0  0  0  # atno 8009 bound_to 7997
  156.2987  140.2499  156.3247 H   0  0  0  0  0  0  0  0  0  0  0  0  # atno 8010 bound_to 7997
  140.5707  143.2317  151.6543 H   0  0  0  0  0  0  0  0  0  0  0  0  # atno 10167 bound_to 10162
  156.7600  130.5266  149.5787 H   0  0  0  0  0  0  0  0  0  0  0  0  # atno 10718 bound_to 10713
  154.1276  135.2829  155.3193 H   0  0  0  0  0  0  0  0  0  0  0  0  # atno 10763 bound_to 10752
  154.6378  135.5413  153.7758 H   0  0  0  0  0  0  0  0  0  0  0  0  # atno 10764 bound_to 10752
  153.0292  135.6479  154.1428 H   0  0  0  0  0  0  0  0  0  0  0  0  # atno 10765 bound_to 10752
  140.9817  134.0663  157.3757 H   0  0  0  0  0  0  0  0  0  0  0  0  # atno 11005 bound_to 11000
  144.8771  139.4956  143.6740 LP  0  0  0  0  0  0  0  0  0  0  0  0  # atno 17320 bound_to 7965
  146.2997  139.7387  142.9100 LP  0  0  0  0  0  0  0  0  0  0  0  0  # atno 17321 bound_to 7965
  139.5116  144.3503  152.0658 LP  0  0  0  0  0  0  0  0  0  0  0  0  # atno 17342 bound_to 10162
  140.2641  144.4036  150.6175 LP  0  0  0  0  0  0  0  0  0  0  0  0  # atno 17343 bound_to 10162
  156.1345  130.6201  151.0381 LP  0  0  0  0  0  0  0  0  0  0  0  0  # atno 17370 bound_to 10713
  157.6739  131.0855  150.7544 LP  0  0  0  0  0  0  0  0  0  0  0  0  # atno 17371 bound_to 10713
  139.8953  135.0140  156.6995 LP  0  0  0  0  0  0  0  0  0  0  0  0  # atno 17394 bound_to 11000
  140.7176  133.9169  155.8125 LP  0  0  0  0  0  0  0  0  0  0  0  0  # atno 17395 bound_to 11000

$$$$
