AV-unprocessed.smi:1246|AV-procd|sdf|5241|dock2
  -GOLD-   22720 4353D 1   1.00000     0.00000
 Structure written by MMmdl.
 35 36  0  0  0  0  0  0  0  0  1 V2000
  150.7178  142.1184  156.3143 C   0  0  0  0  0  0  0  0  0  0  0  0
  150.4173  140.8974  155.4960 C   0  0  0  0  0  0  0  0  0  0  0  0
  149.1864  140.5395  154.8726 C   0  0  0  0  0  0  0  0  0  0  0  0
  149.4884  139.3467  154.2741 C   0  0  0  0  0  0  0  0  0  0  0  0
  148.6880  138.5336  153.5348 N   0  0  0  0  0  0  0  0  0  0  0  0
  147.3452  138.4923  153.4874 C   0  0  0  0  0  0  0  0  0  0  0  0
  146.5841  139.2188  154.1268 O   0  0  0  0  0  0  0  0  0  0  0  0
  146.9217  137.5469  152.6369 N   0  0  0  0  0  0  0  0  0  0  0  0
  145.5249  137.2556  152.3357 C   0  0  0  0  0  0  0  0  0  0  0  0
  145.3883  136.0250  151.4242 C   0  0  2  0  0  0  0  0  0  0  0  0
  143.9765  135.4481  151.3767 C   0  0  0  0  0  0  0  0  0  0  0  0
  144.2441  134.0394  150.8962 C   0  0  0  0  0  0  0  0  0  0  0  0
  145.5670  133.7018  151.5833 C   0  0  0  0  0  0  0  0  0  0  0  0
  146.1815  134.9469  151.9092 O   0  0  0  0  0  0  0  0  0  0  0  0
  150.8047  139.0382  154.5353 N   0  0  0  0  0  0  0  0  0  0  0  0
  151.5793  137.8844  154.1217 C   0  0  0  0  0  0  0  0  0  0  0  0
  151.3755  140.0004  155.2918 N   0  0  0  0  0  0  0  0  0  0  0  0
  149.8397  142.7579  156.4051 H   0  0  0  0  0  0  0  0  0  0  0  0
  151.5130  142.7093  155.8595 H   0  0  0  0  0  0  0  0  0  0  0  0
  151.0364  141.8479  157.3213 H   0  0  0  0  0  0  0  0  0  0  0  0
  148.2522  141.0804  154.8781 H   0  0  0  0  0  0  0  0  0  0  0  0
  149.1734  137.8785  152.9398 H   0  0  0  0  0  0  0  0  0  0  0  0
  147.6141  136.9982  152.1488 H   0  0  0  0  0  0  0  0  0  0  0  0
  144.9985  137.0867  153.2753 H   0  0  0  0  0  0  0  0  0  0  0  0
  145.0572  138.1248  151.8704 H   0  0  0  0  0  0  0  0  0  0  0  0
  145.7109  136.2598  150.4081 H   0  0  0  0  0  0  0  0  0  0  0  0
  143.5355  135.4257  152.3744 H   0  0  0  0  0  0  0  0  0  0  0  0
  143.3102  136.0057  150.7181 H   0  0  0  0  0  0  0  0  0  0  0  0
  143.4441  133.3418  151.1452 H   0  0  0  0  0  0  0  0  0  0  0  0
  144.3739  134.0363  149.8130 H   0  0  0  0  0  0  0  0  0  0  0  0
  145.3955  133.1469  152.5063 H   0  0  0  0  0  0  0  0  0  0  0  0
  146.2136  133.1014  150.9429 H   0  0  0  0  0  0  0  0  0  0  0  0
  151.5253  137.7752  153.0386 H   0  0  0  0  0  0  0  0  0  0  0  0
  151.1761  136.9872  154.5914 H   0  0  0  0  0  0  0  0  0  0  0  0
  152.6243  137.9981  154.4130 H   0  0  0  0  0  0  0  0  0  0  0  0
  1  2  1  0  0  0  0
  1 18  1  0  0  0  0
  1 19  1  0  0  0  0
  1 20  1  0  0  0  0
  2 17  2  0  0  0  0
  2  3  1  0  0  0  0
  3  4  2  0  0  0  0
  3 21  1  0  0  0  0
  4  5  1  0  0  0  0
  4 15  1  0  0  0  0
  5  6  1  0  0  0  0
  5 22  1  0  0  0  0
  6  7  2  0  0  0  0
  6  8  1  0  0  0  0
  8  9  1  0  0  0  0
  8 23  1  0  0  0  0
  9 10  1  0  0  0  0
  9 24  1  0  0  0  0
  9 25  1  0  0  0  0
 10 14  1  0  0  0  0
 10 11  1  0  0  0  0
 10 26  1  0  0  0  0
 11 12  1  0  0  0  0
 11 27  1  0  0  0  0
 11 28  1  0  0  0  0
 12 13  1  0  0  0  0
 12 29  1  0  0  0  0
 12 30  1  0  0  0  0
 13 14  1  0  0  0  0
 13 31  1  0  0  0  0
 13 32  1  0  0  0  0
 15 16  1  0  0  0  0
 15 17  1  0  0  0  0
 16 33  1  0  0  0  0
 16 34  1  0  0  0  0
 16 35  1  0  0  0  0
M  END
> <s_m_source_file>
AV-unprocessed.smi

> <i_m_source_file_index>
1246

> <i_lp_mmshare_version>
43012

> <i_f3d_flags>
0

> <s_epik_input>
W0NIM11jMVtjSF1jKG4objEpW0NIM10pW05IXUMoPU8pW05IXVtDSDJdW0NAQEhdMltDSDJdW0NIMl1bQ0gyXU8y

> <s_epik_cmdline>
J2VwaWtfcHl0aG9uJywgJy1waCcsICc3LjAnLCAnLXRuJywgJzgnLCAnLW1hJywgJzIwMCcsICctbWV0YWxfYmluZGluZycsICctaW1hZScsICc8aW5maWxlLm1hZT4nLCAnLW9tYWUnLCAnPG91dGZpbGUubWFlPic=

> <r_lp_tautomer_probability>
1

> <r_epik_Ionization_Penalty>
9.6187e-05

> <r_epik_Ionization_Penalty_Charging>
0

> <r_epik_Ionization_Penalty_Neutral>
9.6187e-05

> <r_epik_State_Penalty>
-0

> <r_epik_Charging_Adjusted_Penalty>
0

> <i_epik_Tot_Q>
0

> <i_epik_Tot_abs_Q>
0

> <r_epik_Metal_State_Penalty>
-0

> <b_epik_Metal_Only>
0

> <s_lp_Force_Field>
OPLS_2005

> <r_lp_Energy>
17.9178

> <b_lp_Chiralities_Consistent>
1

> <s_lp_Variant>
AV-unprocessed.smi:1246-1

> <Gold.Version>
5.8.1

> <Gold.Id.Protein>
6NUR|6NUR_protein|mol2

> <Gold.PLP.Fitness>
37.3628

> <Gold.PLP.PLP>
-31.8516

> <Gold.PLP.part.hbond>
-4.0000

> <Gold.PLP.part.metal>
0.0000

> <Gold.PLP.part.buried>
-3.3698

> <Gold.PLP.part.nonpolar>
-26.1847

> <Gold.PLP.part.repulsive>
1.1084

> <Gold.PLP.ligand.clash>
0.0000

> <Gold.PLP.ligand.torsion>
0.1938

> <Gold.PLP.Chemscore.Hbond>
1.9645

> <Gold.PLP.Chemscore.CHOScore>
0.0000

> <Gold.PLP.Chemscore.Metal>
0.0000

> <Gold.Chemscore.Hbonds>
donor molecule, donor type, donor heavy atom, donor atom, acceptor molecule, acceptor atom, score
      L1  H     5    22       P1  7948  0.91
      L1  H     8    23       P1  7948  1.00
      P1  H  7989  7998       L1    17  0.05

> <Gold.PLP.Chemscore.Internal.Correction>
0.0053

> <Gold.Rescore>
     Score         DG    S(hbond)    S(metal)    S(lipo)     H(rot)  DE(clash)    DE(int)     intcor
     14.37     -15.51       1.93        0.00      58.04       1.25       0.09       1.06       ----

> <Gold.Chemscore.Fitness>
14.3714

> <Gold.Chemscore.DG>
-15.5145

> <Gold.Chemscore.ZeroCoef>
-5.4800

> <Gold.Chemscore.Hbond>
1.9276

> <Gold.Chemscore.Metal>
0.0000

> <Gold.Chemscore.Lipo>
58.0415

> <Gold.Chemscore.Internal_Hbond>
0.0000

> <Gold.Chemscore.DEClash>
0.0863

> <Gold.Chemscore.DEInternal>
1.0568

> <Gold.Chemscore.Rot>
1.2478

> <Gold.Chemscore.Internal.Correction>
   9.000000E+99

> <Gold.Chemscore.Hbonds>
donor molecule, donor type, donor heavy atom, donor atom, acceptor molecule, acceptor atom, score
      L1  H     5    22       P1  7948  0.86
      L1  H     8    23       P1  7948  0.95

> <Gold.Chemscore.Hbond.Weighted>
-6.4380

> <Gold.Chemscore.Metal.Weighted>
-0.0000

> <Gold.Chemscore.Lipo.Weighted>
-6.7909

> <Gold.Chemscore.Internal_Hbond.Weighted>
0.0000

> <Gold.Chemscore.DEClash.Weighted>
0.0863

> <Gold.Chemscore.DEInternal.Weighted>
1.0568

> <Gold.Chemscore.Rot.Weighted>
3.1944

> <Gold.Chemscore.Internal.Correction.Weighted>
   9.000000E+99

> <Gold.Protein.RotatedTorsions>
[ 6907 6896 6895 6894 ] final -140.68 input  -60.11 | X-H torsion
[ 7974 7965 7964 7962 ] final  -61.91 input  175.53 | X-H torsion
[ 8008 7997 7996 7995 ] final   83.80 input   59.86 | X-H torsion
[ 10167 10162 10161 10158 ] final  -50.71 input  -65.29 | X-H torsion
[ 10718 10713 10712 10709 ] final  100.93 input   66.30 | X-H torsion
[ 10763 10752 10751 10750 ] final  174.19 input  -60.55 | X-H torsion
[ 11005 11000 10999 10996 ] final  -39.19 input  -57.11 | X-H torsion

> <Gold.Protein.ActiveResidues>
 VAL166  LYS551  ARG553  GLY616  TRP617  ASP618  TYR619  PRO620  LYS621  CYS622 
 ASP623  PHE694  ASN695  SER759  ASP760  ASP761  ALA762  ILE779  LEU786  VAL792 
 PHE793  MET794  SER795  GLU796  ALA797  LYS798  CYS799  TRP800  GLU811  SER814 

> <Gold.Protein.RotatedAtoms>
  151.0639  133.5521  159.2631 H   0  0  0  0  0  0  0  0  0  0  0  0  # atno 6907 bound_to 6896
  151.2486  135.0613  159.9063 H   0  0  0  0  0  0  0  0  0  0  0  0  # atno 6908 bound_to 6896
  152.5402  134.0403  159.8118 H   0  0  0  0  0  0  0  0  0  0  0  0  # atno 6909 bound_to 6896
  145.7977  140.8673  143.0247 H   0  0  0  0  0  0  0  0  0  0  0  0  # atno 7974 bound_to 7965
  155.9286  140.3416  155.6231 H   0  0  0  0  0  0  0  0  0  0  0  0  # atno 8008 bound_to 7997
  155.7185  140.0780  157.2359 H   0  0  0  0  0  0  0  0  0  0  0  0  # atno 8009 bound_to 7997
  154.4081  140.1610  156.2363 H   0  0  0  0  0  0  0  0  0  0  0  0  # atno 8010 bound_to 7997
  140.6624  143.2647  151.4398 H   0  0  0  0  0  0  0  0  0  0  0  0  # atno 10167 bound_to 10162
  157.6842  131.0712  150.5176 H   0  0  0  0  0  0  0  0  0  0  0  0  # atno 10718 bound_to 10713
  154.4504  135.2764  155.1785 H   0  0  0  0  0  0  0  0  0  0  0  0  # atno 10763 bound_to 10752
  154.3614  135.6128  153.5696 H   0  0  0  0  0  0  0  0  0  0  0  0  # atno 10764 bound_to 10752
  152.9846  135.5835  154.4848 H   0  0  0  0  0  0  0  0  0  0  0  0  # atno 10765 bound_to 10752
  141.0084  133.6920  156.2154 H   0  0  0  0  0  0  0  0  0  0  0  0  # atno 11005 bound_to 11000
  144.6773  140.0214  143.7483 LP  0  0  0  0  0  0  0  0  0  0  0  0  # atno 17320 bound_to 7965
  145.9910  139.3015  143.0984 LP  0  0  0  0  0  0  0  0  0  0  0  0  # atno 17321 bound_to 7965
  139.5862  144.1599  152.2032 LP  0  0  0  0  0  0  0  0  0  0  0  0  # atno 17342 bound_to 10162
  140.0939  144.5597  150.7035 LP  0  0  0  0  0  0  0  0  0  0  0  0  # atno 17343 bound_to 10162
  156.5490  130.4227  149.6117 LP  0  0  0  0  0  0  0  0  0  0  0  0  # atno 17370 bound_to 10713
  156.2919  130.7129  151.1980 LP  0  0  0  0  0  0  0  0  0  0  0  0  # atno 17371 bound_to 10713
  140.6775  134.4802  157.5588 LP  0  0  0  0  0  0  0  0  0  0  0  0  # atno 17394 bound_to 11000
  139.9076  134.8415  156.1648 LP  0  0  0  0  0  0  0  0  0  0  0  0  # atno 17395 bound_to 11000

$$$$
