AV-unprocessed.smi:2061|AV-procd|sdf|8360|dock2
  -GOLD-   2272011 33D 1   1.00000     0.00000
 Structure written by MMmdl.
 45 46  0  0  0  0  0  0  0  0  1 V2000
  146.6757  130.3323  152.5383 C   0  0  0  0  0  0  0  0  0  0  0  0
  147.2549  131.5374  153.1963 C   0  0  0  0  0  0  0  0  0  0  0  0
  147.9504  132.6140  152.7217 C   0  0  0  0  0  0  0  0  0  0  0  0
  148.1934  133.3797  153.8931 C   0  0  0  0  0  0  0  0  0  0  0  0
  148.9061  134.6045  153.8280 N   0  0  0  0  0  0  0  0  0  0  0  0
  149.7635  135.1020  154.7357 C   0  0  0  0  0  0  0  0  0  0  0  0
  150.0720  134.5513  155.7929 O   0  0  0  0  0  0  0  0  0  0  0  0
  150.2548  136.2872  154.3428 N   0  0  0  0  0  0  0  0  0  0  0  0
  151.2128  137.0994  155.0907 C   0  0  0  0  0  0  0  0  0  0  0  0
  151.7313  138.3264  154.2878 C   0  0  2  0  0  0  0  0  0  0  0  0
  153.1889  138.6351  154.7159 C   0  0  0  0  0  0  0  0  0  0  0  0
  150.8405  139.5066  154.3933 N   0  0  0  0  0  0  0  0  0  0  0  0
  150.8695  140.1244  155.7237 C   0  0  0  0  0  0  0  0  0  0  0  0
  149.9297  141.3398  155.8441 C   0  0  2  0  0  0  0  0  0  0  0  0
  149.9096  141.9184  157.2628 C   0  0  0  0  0  0  0  0  0  0  0  0
  148.6062  140.9438  155.5077 O   0  0  0  0  0  0  0  0  0  0  0  0
  148.5124  140.4140  154.1919 C   0  0  2  0  0  0  0  0  0  0  0  0
  147.0473  140.0558  153.9205 C   0  0  0  0  0  0  0  0  0  0  0  0
  149.4437  139.1928  154.0730 C   0  0  0  0  0  0  0  0  0  0  0  0
  147.6910  132.8213  154.9837 N   0  0  0  0  0  0  0  0  0  0  0  0
  147.0870  131.6380  154.5427 O   0  0  0  0  0  0  0  0  0  0  0  0
  146.9005  130.3243  151.4717 H   0  0  0  0  0  0  0  0  0  0  0  0
  145.5922  130.3116  152.6555 H   0  0  0  0  0  0  0  0  0  0  0  0
  147.0813  129.4201  152.9764 H   0  0  0  0  0  0  0  0  0  0  0  0
  148.2381  132.8175  151.7009 H   0  0  0  0  0  0  0  0  0  0  0  0
  148.7465  135.1601  153.0011 H   0  0  0  0  0  0  0  0  0  0  0  0
  149.9443  136.6589  153.4572 H   0  0  0  0  0  0  0  0  0  0  0  0
  150.6690  137.4118  155.9802 H   0  0  0  0  0  0  0  0  0  0  0  0
  152.0568  136.5033  155.4419 H   0  0  0  0  0  0  0  0  0  0  0  0
  151.7673  138.0269  153.2392 H   0  0  0  0  0  0  0  0  0  0  0  0
  153.8327  137.7584  154.6615 H   0  0  0  0  0  0  0  0  0  0  0  0
  153.2283  139.0081  155.7398 H   0  0  0  0  0  0  0  0  0  0  0  0
  153.6660  139.3702  154.0695 H   0  0  0  0  0  0  0  0  0  0  0  0
  150.6055  139.3827  156.4794 H   0  0  0  0  0  0  0  0  0  0  0  0
  151.8711  140.4769  155.9609 H   0  0  0  0  0  0  0  0  0  0  0  0
  150.2531  142.1205  155.1532 H   0  0  0  0  0  0  0  0  0  0  0  0
  150.9026  142.2528  157.5644 H   0  0  0  0  0  0  0  0  0  0  0  0
  149.5712  141.1767  157.9869 H   0  0  0  0  0  0  0  0  0  0  0  0
  149.2381  142.7751  157.3242 H   0  0  0  0  0  0  0  0  0  0  0  0
  148.8212  141.1796  153.4779 H   0  0  0  0  0  0  0  0  0  0  0  0
  146.9216  139.6549  152.9144 H   0  0  0  0  0  0  0  0  0  0  0  0
  146.4085  140.9348  154.0093 H   0  0  0  0  0  0  0  0  0  0  0  0
  146.6856  139.3082  154.6268 H   0  0  0  0  0  0  0  0  0  0  0  0
  149.3582  138.8287  153.0511 H   0  0  0  0  0  0  0  0  0  0  0  0
  149.0865  138.3948  154.7258 H   0  0  0  0  0  0  0  0  0  0  0  0
  1  2  1  0  0  0  0
  1 22  1  0  0  0  0
  1 23  1  0  0  0  0
  1 24  1  0  0  0  0
  2 21  1  0  0  0  0
  2  3  2  0  0  0  0
  3  4  1  0  0  0  0
  3 25  1  0  0  0  0
  4  5  1  0  0  0  0
  4 20  2  0  0  0  0
  5  6  1  0  0  0  0
  5 26  1  0  0  0  0
  6  7  2  0  0  0  0
  6  8  1  0  0  0  0
  8  9  1  0  0  0  0
  8 27  1  0  0  0  0
  9 10  1  0  0  0  0
  9 28  1  0  0  0  0
  9 29  1  0  0  0  0
 10 11  1  0  0  0  0
 10 12  1  0  0  0  0
 10 30  1  0  0  0  0
 11 31  1  0  0  0  0
 11 32  1  0  0  0  0
 11 33  1  0  0  0  0
 12 19  1  0  0  0  0
 12 13  1  0  0  0  0
 13 14  1  0  0  0  0
 13 34  1  0  0  0  0
 13 35  1  0  0  0  0
 14 15  1  0  0  0  0
 14 16  1  0  0  0  0
 14 36  1  0  0  0  0
 15 37  1  0  0  0  0
 15 38  1  0  0  0  0
 15 39  1  0  0  0  0
 16 17  1  0  0  0  0
 17 18  1  0  0  0  0
 17 19  1  0  0  0  0
 17 40  1  0  0  0  0
 18 41  1  0  0  0  0
 18 42  1  0  0  0  0
 18 43  1  0  0  0  0
 19 44  1  0  0  0  0
 19 45  1  0  0  0  0
 20 21  1  0  0  0  0
M  END
> <s_m_source_file>
AV-unprocessed.smi

> <i_m_source_file_index>
2061

> <i_lp_mmshare_version>
43012

> <i_f3d_flags>
0

> <s_epik_input>
W0NIM11jMVtjSF1jKG5vMSlbTkhdQyg9TylbTkhdW0NIMl1bQ0BIXShbQ0gzXSlOMltDSDJdW0NAQEhdKFtDSDNdKU9bQ0BASF0oW0NIM10pW0NIMl0y

> <s_epik_cmdline>
J2VwaWtfcHl0aG9uJywgJy1waCcsICc3LjAnLCAnLXRuJywgJzgnLCAnLW1hJywgJzIwMCcsICctbWV0YWxfYmluZGluZycsICctaW1hZScsICc8aW5maWxlLm1hZT4nLCAnLW9tYWUnLCAnPG91dGZpbGUubWFlPic=

> <r_epik_Ionization_Penalty>
0.214073

> <r_epik_Ionization_Penalty_Charging>
0

> <r_epik_Ionization_Penalty_Neutral>
0.214073

> <r_epik_State_Penalty>
0.204211

> <r_epik_Charging_Adjusted_Penalty>
0.204211

> <i_epik_Tot_Q>
0

> <i_epik_Tot_abs_Q>
0

> <r_epik_Metal_State_Penalty>
0.217067

> <b_epik_Metal_Only>
0

> <s_lp_Force_Field>
OPLS_2005

> <r_lp_Energy>
26.137

> <b_lp_Chiralities_Consistent>
1

> <s_lp_Variant>
AV-unprocessed.smi:2061-1

> <Gold.Version>
5.8.1

> <Gold.Id.Protein>
6NUR|6NUR_protein|mol2

> <Gold.PLP.Fitness>
40.6027

> <Gold.PLP.PLP>
-33.3073

> <Gold.PLP.part.hbond>
-3.6235

> <Gold.PLP.part.metal>
0.0000

> <Gold.PLP.part.buried>
-1.8767

> <Gold.PLP.part.nonpolar>
-29.8021

> <Gold.PLP.part.repulsive>
0.4180

> <Gold.PLP.ligand.clash>
0.0000

> <Gold.PLP.ligand.torsion>
0.6904

> <Gold.PLP.Chemscore.Hbond>
2.8620

> <Gold.PLP.Chemscore.CHOScore>
0.0000

> <Gold.PLP.Chemscore.Metal>
0.0000

> <Gold.Chemscore.Hbonds>
donor molecule, donor type, donor heavy atom, donor atom, acceptor molecule, acceptor atom, score
      L1  H     5    26       P1  7948  1.00
      L1  H     8    27       P1  7948  0.79
      P1  H  7989  7998       L1    12  0.90

> <Gold.PLP.Chemscore.Internal.Correction>
0.0903

> <Gold.Rescore>
     Score         DG    S(hbond)    S(metal)    S(lipo)     H(rot)  DE(clash)    DE(int)     intcor
     14.10     -16.09       1.65        0.00      77.47       1.55       0.09       1.91       ----

> <Gold.Chemscore.Fitness>
14.0974

> <Gold.Chemscore.DG>
-16.0920

> <Gold.Chemscore.ZeroCoef>
-5.4800

> <Gold.Chemscore.Hbond>
1.6496

> <Gold.Chemscore.Metal>
0.0000

> <Gold.Chemscore.Lipo>
77.4672

> <Gold.Chemscore.Internal_Hbond>
0.0000

> <Gold.Chemscore.DEClash>
0.0871

> <Gold.Chemscore.DEInternal>
1.9075

> <Gold.Chemscore.Rot>
1.5474

> <Gold.Chemscore.Internal.Correction>
   9.000000E+99

> <Gold.Chemscore.Hbonds>
donor molecule, donor type, donor heavy atom, donor atom, acceptor molecule, acceptor atom, score
      L1  H     5    26       P1  7948  0.47
      L1  H     8    27       P1  7948  0.15
      P1  H  7989  7998       L1    12  0.10

> <Gold.Chemscore.Hbond.Weighted>
-5.5096

> <Gold.Chemscore.Metal.Weighted>
-0.0000

> <Gold.Chemscore.Lipo.Weighted>
-9.0637

> <Gold.Chemscore.Internal_Hbond.Weighted>
0.0000

> <Gold.Chemscore.DEClash.Weighted>
0.0871

> <Gold.Chemscore.DEInternal.Weighted>
1.9075

> <Gold.Chemscore.Rot.Weighted>
3.9612

> <Gold.Chemscore.Internal.Correction.Weighted>
   9.000000E+99

> <Gold.Protein.RotatedTorsions>
[ 6907 6896 6895 6894 ] final  101.12 input  -60.11 | X-H torsion
[ 7974 7965 7964 7962 ] final  -56.50 input  175.53 | X-H torsion
[ 8008 7997 7996 7995 ] final   27.39 input   59.86 | X-H torsion
[ 10167 10162 10161 10158 ] final  -59.98 input  -65.29 | X-H torsion
[ 10718 10713 10712 10709 ] final -130.85 input   66.30 | X-H torsion
[ 10763 10752 10751 10750 ] final   25.53 input  -60.55 | X-H torsion
[ 11005 11000 10999 10996 ] final   31.98 input  -57.11 | X-H torsion

> <Gold.Protein.ActiveResidues>
 VAL166  LYS551  ARG553  GLY616  TRP617  ASP618  TYR619  PRO620  LYS621  CYS622 
 ASP623  PHE694  ASN695  SER759  ASP760  ASP761  ALA762  ILE779  LEU786  VAL792 
 PHE793  MET794  SER795  GLU796  ALA797  LYS798  CYS799  TRP800  GLU811  SER814 

> <Gold.Protein.RotatedAtoms>
  152.5357  134.0174  159.7965 H   0  0  0  0  0  0  0  0  0  0  0  0  # atno 6907 bound_to 6896
  151.0366  133.5735  159.2662 H   0  0  0  0  0  0  0  0  0  0  0  0  # atno 6908 bound_to 6896
  151.2720  135.0695  159.9191 H   0  0  0  0  0  0  0  0  0  0  0  0  # atno 6909 bound_to 6896
  145.8620  140.8279  142.9932 H   0  0  0  0  0  0  0  0  0  0  0  0  # atno 7974 bound_to 7965
  155.0421  140.3170  155.4721 H   0  0  0  0  0  0  0  0  0  0  0  0  # atno 8008 bound_to 7997
  156.2852  140.2161  156.5488 H   0  0  0  0  0  0  0  0  0  0  0  0  # atno 8009 bound_to 7997
  154.7281  140.0484  157.0689 H   0  0  0  0  0  0  0  0  0  0  0  0  # atno 8010 bound_to 7997
  140.6100  143.2384  151.5731 H   0  0  0  0  0  0  0  0  0  0  0  0  # atno 10167 bound_to 10162
  156.2185  130.6964  151.0730 H   0  0  0  0  0  0  0  0  0  0  0  0  # atno 10718 bound_to 10713
  153.0685  135.6581  154.0299 H   0  0  0  0  0  0  0  0  0  0  0  0  # atno 10763 bound_to 10752
  153.9950  135.2942  155.3410 H   0  0  0  0  0  0  0  0  0  0  0  0  # atno 10764 bound_to 10752
  154.7052  135.5228  153.8654 H   0  0  0  0  0  0  0  0  0  0  0  0  # atno 10765 bound_to 10752
  140.2782  134.3003  155.7808 H   0  0  0  0  0  0  0  0  0  0  0  0  # atno 11005 bound_to 11000
  144.6726  140.1109  143.7455 LP  0  0  0  0  0  0  0  0  0  0  0  0  # atno 17320 bound_to 7965
  145.9237  139.2562  143.1366 LP  0  0  0  0  0  0  0  0  0  0  0  0  # atno 17321 bound_to 7965
  139.5354  144.2796  152.1240 LP  0  0  0  0  0  0  0  0  0  0  0  0  # atno 17342 bound_to 10162
  140.1993  144.4674  150.6439 LP  0  0  0  0  0  0  0  0  0  0  0  0  # atno 17343 bound_to 10162
  157.7076  131.0749  150.6615 LP  0  0  0  0  0  0  0  0  0  0  0  0  # atno 17370 bound_to 10713
  156.6677  130.4530  149.5667 LP  0  0  0  0  0  0  0  0  0  0  0  0  # atno 17371 bound_to 10713
  141.2167  133.7509  156.9440 LP  0  0  0  0  0  0  0  0  0  0  0  0  # atno 17394 bound_to 11000
  140.1308  134.9357  157.2334 LP  0  0  0  0  0  0  0  0  0  0  0  0  # atno 17395 bound_to 11000

$$$$
