AV-unprocessed.smi:912|AV-procd|sdf|4147|dock1
  -GOLD-   22720 2 53D 1   1.00000     0.00000
 Structure written by MMmdl.
 26 26  0  0  0  0  0  0  0  0  3 V2000
  146.2159  137.8253  151.6161 C   0  0  0  0  0  0  0  0  0  0  0  0
  146.1562  136.4030  151.2074 N   0  3  0  0  0  0  0  0  0  0  0  0
  145.3199  135.4754  152.0261 C   0  0  2  0  0  0  0  0  0  0  0  0
  143.9395  136.1114  152.3250 C   0  0  0  0  0  0  0  0  0  0  0  0
  146.1001  135.1725  153.3417 C   0  0  0  0  0  0  0  0  0  0  0  0
  147.3417  134.6786  153.1322 N   0  5  0  0  0  0  0  0  0  0  0  0
  145.5762  135.3897  154.4333 O   0  0  0  0  0  0  0  0  0  0  0  0
  145.0656  134.1780  151.2253 C   0  0  0  0  0  0  0  0  0  0  0  0
  146.1277  133.4064  150.6892 C   0  0  0  0  0  0  0  0  0  0  0  0
  145.8345  132.2161  149.9955 C   0  0  0  0  0  0  0  0  0  0  0  0
  144.5818  131.7482  149.8215 N   0  0  0  0  0  0  0  0  0  0  0  0
  143.5685  132.4634  150.3496 C   0  0  0  0  0  0  0  0  0  0  0  0
  143.7538  133.6666  151.0592 C   0  0  0  0  0  0  0  0  0  0  0  0
  146.9390  138.3489  150.9914 H   0  0  0  0  0  0  0  0  0  0  0  0
  146.5315  137.9378  152.6534 H   0  0  0  0  0  0  0  0  0  0  0  0
  145.2528  138.3186  151.4861 H   0  0  0  0  0  0  0  0  0  0  0  0
  145.8183  136.3666  150.2572 H   0  0  0  0  0  0  0  0  0  0  0  0
  143.2866  135.4093  152.8458 H   0  0  0  0  0  0  0  0  0  0  0  0
  143.4314  136.4011  151.4046 H   0  0  0  0  0  0  0  0  0  0  0  0
  144.0142  136.9996  152.9533 H   0  0  0  0  0  0  0  0  0  0  0  0
  148.0869  135.3134  152.8222 H   0  0  0  0  0  0  0  0  0  0  0  0
  147.1586  133.7080  150.8025 H   0  0  0  0  0  0  0  0  0  0  0  0
  146.6308  131.6191  149.5762 H   0  0  0  0  0  0  0  0  0  0  0  0
  142.5759  132.0611  150.2093 H   0  0  0  0  0  0  0  0  0  0  0  0
  142.8902  134.1701  151.4666 H   0  0  0  0  0  0  0  0  0  0  0  0
  147.0963  136.0332  151.2276 H   0  0  0  0  0  0  0  0  0  0  0  0
  1  2  1  0  0  0  0
  1 14  1  0  0  0  0
  1 15  1  0  0  0  0
  1 16  1  0  0  0  0
  2  3  1  0  0  0  0
  2 17  1  0  0  0  0
  2 26  1  0  0  0  0
  3  4  1  0  0  0  0
  3  5  1  0  0  0  0
  3  8  1  0  0  0  0
  4 18  1  0  0  0  0
  4 19  1  0  0  0  0
  4 20  1  0  0  0  0
  5  6  1  0  0  0  0
  5  7  2  0  0  0  0
  6 21  1  0  0  0  0
  8 13  1  0  0  0  0
  8  9  2  0  0  0  0
  9 10  1  0  0  0  0
  9 22  1  0  0  0  0
 10 11  2  0  0  0  0
 10 23  1  0  0  0  0
 11 12  1  0  0  0  0
 12 13  2  0  0  0  0
 12 24  1  0  0  0  0
 13 25  1  0  0  0  0
M  CHG  1   2   1
M  CHG  1   6  -1
M  END
> <s_m_source_file>
AV-unprocessed.smi

> <i_m_source_file_index>
912

> <i_lp_mmshare_version>
43012

> <i_f3d_flags>
0

> <s_epik_input>
W0NIM11bTkhdW0NAQF0oW0NIM10pKEMoPU8pW05IMl0pYzFbY0hdW2NIXW5bY0hdW2NIXTE=

> <s_epik_cmdline>
J2VwaWtfcHl0aG9uJywgJy1waCcsICc3LjAnLCAnLXRuJywgJzgnLCAnLW1hJywgJzIwMCcsICctbWV0YWxfYmluZGluZycsICctaW1hZScsICc8aW5maWxlLm1hZT4nLCAnLW9tYWUnLCAnPG91dGZpbGUubWFlPic=

> <r_epik_Ionization_Penalty>
6.88213

> <r_epik_Ionization_Penalty_Charging>
6.88153

> <r_epik_Ionization_Penalty_Neutral>
0.000601258

> <r_epik_State_Penalty>
7.02604

> <r_epik_Charging_Adjusted_Penalty>
13.9076

> <i_epik_Tot_Q>
0

> <i_epik_Tot_abs_Q>
2

> <r_epik_Metal_State_Penalty>
3.10652

> <b_epik_Metal_Only>
1

> <s_lp_Force_Field>
OPLS_2005

> <r_lp_Energy>
7.66147

> <b_lp_Chiralities_Consistent>
1

> <s_lp_Variant>
AV-unprocessed.smi:912-8

> <Gold.Version>
5.8.1

> <Gold.Id.Protein>
6NUR|6NUR_protein|mol2

> <Gold.PLP.Fitness>
37.7874

> <Gold.PLP.PLP>
-23.1553

> <Gold.PLP.part.hbond>
-2.9020

> <Gold.PLP.part.metal>
0.0000

> <Gold.PLP.part.buried>
-1.6631

> <Gold.PLP.part.nonpolar>
-20.3588

> <Gold.PLP.part.repulsive>
0.2971

> <Gold.PLP.ligand.clash>
0.0000

> <Gold.PLP.ligand.torsion>
0.3527

> <Gold.PLP.Chemscore.Hbond>
3.0562

> <Gold.PLP.Chemscore.CHOScore>
2.0272

> <Gold.PLP.Chemscore.Metal>
0.0000

> <Gold.Chemscore.Hbonds>
donor molecule, donor type, donor heavy atom, donor atom, acceptor molecule, acceptor atom, score
      L1  H     2    26       P1  7948  1.95
      L1  H     6    21       P1  7948  1.00
      P1  H 10785 10796       L1    11  0.07
      L1  C    10    23       P1 10747  0.97
      L1  C    12    24       P1 10186  0.04
      L1  C    12    24       P1 10952  1.00

> <Gold.PLP.Chemscore.Internal.Correction>
0.0873

> <Gold.Rescore>
     Score         DG    S(hbond)    S(metal)    S(lipo)     H(rot)  DE(clash)    DE(int)     intcor
     12.57     -14.05       1.97        0.00      56.52       1.80       0.12       1.36       ----

> <Gold.Chemscore.Fitness>
12.5725

> <Gold.Chemscore.DG>
-14.0545

> <Gold.Chemscore.ZeroCoef>
-5.4800

> <Gold.Chemscore.Hbond>
1.9698

> <Gold.Chemscore.Metal>
0.0000

> <Gold.Chemscore.Lipo>
56.5182

> <Gold.Chemscore.Internal_Hbond>
0.0000

> <Gold.Chemscore.DEClash>
0.1214

> <Gold.Chemscore.DEInternal>
1.3605

> <Gold.Chemscore.Rot>
1.8037

> <Gold.Chemscore.Internal.Correction>
   9.000000E+99

> <Gold.Chemscore.Hbonds>
donor molecule, donor type, donor heavy atom, donor atom, acceptor molecule, acceptor atom, score
      L1  H     2    26       P1  7948  0.93
      L1  H     6    21       P1  7948  0.95
      P1  H 10785 10796       L1    11  0.01

> <Gold.Chemscore.Hbond.Weighted>
-6.5793

> <Gold.Chemscore.Metal.Weighted>
-0.0000

> <Gold.Chemscore.Lipo.Weighted>
-6.6126

> <Gold.Chemscore.Internal_Hbond.Weighted>
0.0000

> <Gold.Chemscore.DEClash.Weighted>
0.1214

> <Gold.Chemscore.DEInternal.Weighted>
1.3605

> <Gold.Chemscore.Rot.Weighted>
4.6174

> <Gold.Chemscore.Internal.Correction.Weighted>
   9.000000E+99

> <Gold.Protein.RotatedTorsions>
[ 6907 6896 6895 6894 ] final  -15.23 input  -60.11 | X-H torsion
[ 7974 7965 7964 7962 ] final  147.81 input  175.53 | X-H torsion
[ 8008 7997 7996 7995 ] final -145.68 input   59.86 | X-H torsion
[ 10167 10162 10161 10158 ] final  -87.76 input  -65.29 | X-H torsion
[ 10718 10713 10712 10709 ] final  -96.04 input   66.30 | X-H torsion
[ 10763 10752 10751 10750 ] final  -39.86 input  -60.55 | X-H torsion
[ 11005 11000 10999 10996 ] final -121.12 input  -57.11 | X-H torsion

> <Gold.Protein.ActiveResidues>
 VAL166  LYS551  ARG553  GLY616  TRP617  ASP618  TYR619  PRO620  LYS621  CYS622 
 ASP623  PHE694  ASN695  SER759  ASP760  ASP761  ALA762  ILE779  LEU786  VAL792 
 PHE793  MET794  SER795  GLU796  ALA797  LYS798  CYS799  TRP800  GLU811  SER814 

> <Gold.Protein.RotatedAtoms>
  151.3272  135.0833  159.9325 H   0  0  0  0  0  0  0  0  0  0  0  0  # atno 6907 bound_to 6896
  152.5243  133.9579  159.7713 H   0  0  0  0  0  0  0  0  0  0  0  0  # atno 6908 bound_to 6896
  150.9911  133.6096  159.2738 H   0  0  0  0  0  0  0  0  0  0  0  0  # atno 6909 bound_to 6896
  144.8563  139.6075  143.5951 H   0  0  0  0  0  0  0  0  0  0  0  0  # atno 7974 bound_to 7965
  155.5471  140.0613  157.2858 H   0  0  0  0  0  0  0  0  0  0  0  0  # atno 8008 bound_to 7997
  154.4433  140.1909  156.0693 H   0  0  0  0  0  0  0  0  0  0  0  0  # atno 8009 bound_to 7997
  156.0543  140.3280  155.7391 H   0  0  0  0  0  0  0  0  0  0  0  0  # atno 8010 bound_to 7997
  140.3813  143.2747  151.9379 H   0  0  0  0  0  0  0  0  0  0  0  0  # atno 10167 bound_to 10162
  156.0054  130.5134  150.6166 H   0  0  0  0  0  0  0  0  0  0  0  0  # atno 10718 bound_to 10713
  153.9364  135.6766  153.4745 H   0  0  0  0  0  0  0  0  0  0  0  0  # atno 10763 bound_to 10752
  153.0953  135.4854  154.8764 H   0  0  0  0  0  0  0  0  0  0  0  0  # atno 10764 bound_to 10752
  154.7400  135.3158  154.8702 H   0  0  0  0  0  0  0  0  0  0  0  0  # atno 10765 bound_to 10752
  141.0093  134.0288  157.3435 H   0  0  0  0  0  0  0  0  0  0  0  0  # atno 11005 bound_to 11000
  146.2825  139.6916  142.9219 LP  0  0  0  0  0  0  0  0  0  0  0  0  # atno 17320 bound_to 7965
  145.4400  141.0421  143.2863 LP  0  0  0  0  0  0  0  0  0  0  0  0  # atno 17321 bound_to 7965
  139.4795  144.5815  151.7924 LP  0  0  0  0  0  0  0  0  0  0  0  0  # atno 17342 bound_to 10162
  140.4934  144.1277  150.5955 LP  0  0  0  0  0  0  0  0  0  0  0  0  # atno 17343 bound_to 10162
  157.3989  131.0807  151.1326 LP  0  0  0  0  0  0  0  0  0  0  0  0  # atno 17370 bound_to 10713
  157.1994  130.6388  149.5733 LP  0  0  0  0  0  0  0  0  0  0  0  0  # atno 17371 bound_to 10713
  139.9081  135.0184  156.7574 LP  0  0  0  0  0  0  0  0  0  0  0  0  # atno 17394 bound_to 11000
  140.6760  133.9517  155.7883 LP  0  0  0  0  0  0  0  0  0  0  0  0  # atno 17395 bound_to 11000

$$$$
