AV-unprocessed.smi:3046|AV-procd|sdf|11617|dock1
  -GOLD-   2272017 03D 1   1.00000     0.00000
 Structure written by MMmdl.
 37 37  0  0  0  0  0  0  0  0  1 V2000
  146.7047  142.2451  153.9412 C   0  0  0  0  0  0  0  0  0  0  0  0
  146.6191  141.6482  155.1393 C   0  0  0  0  0  0  0  0  0  0  0  0
  146.2549  140.1939  155.3472 C   0  0  0  0  0  0  0  0  0  0  0  0
  146.0245  139.5406  154.0684 N   0  0  0  0  0  0  0  0  0  0  0  0
  146.5687  138.3726  153.6984 C   0  0  0  0  0  0  0  0  0  0  0  0
  147.3321  137.7284  154.4190 O   0  0  0  0  0  0  0  0  0  0  0  0
  146.2078  137.8787  152.2920 C   0  0  2  0  0  0  0  0  0  0  0  0
  146.5662  138.9194  151.2123 C   0  0  0  0  0  0  0  0  0  0  0  0
  144.7783  137.5349  152.2395 N   0  0  0  0  0  0  0  0  0  0  0  0
  144.5259  136.1047  152.0772 C   0  0  2  0  0  0  0  0  0  0  0  0
  144.9230  135.4110  153.3874 C   0  0  0  0  0  0  0  0  0  0  0  0
  145.3418  135.5599  150.8844 C   0  0  0  0  0  0  0  0  0  0  0  0
  145.2177  134.1223  150.7151 N   0  0  0  0  0  0  0  0  0  0  0  0
  144.0757  133.3835  150.4875 C   0  0  0  0  0  0  0  0  0  0  0  0
  144.4487  132.0723  150.4095 C   0  0  0  0  0  0  0  0  0  0  0  0
  145.8593  132.1111  150.5925 C   0  0  0  0  0  0  0  0  0  0  0  0
  146.3173  133.3398  150.7708 N   0  0  0  0  0  0  0  0  0  0  0  0
  146.5145  141.7002  153.0280 H   0  0  0  0  0  0  0  0  0  0  0  0
  146.9667  143.2897  153.8589 H   0  0  0  0  0  0  0  0  0  0  0  0
  146.8123  142.2269  156.0312 H   0  0  0  0  0  0  0  0  0  0  0  0
  147.0749  139.6978  155.8682 H   0  0  0  0  0  0  0  0  0  0  0  0
  145.3662  140.1116  155.9755 H   0  0  0  0  0  0  0  0  0  0  0  0
  145.4124  140.0080  153.4152 H   0  0  0  0  0  0  0  0  0  0  0  0
  146.8041  136.9821  152.1157 H   0  0  0  0  0  0  0  0  0  0  0  0
  147.6137  139.2152  151.2824 H   0  0  0  0  0  0  0  0  0  0  0  0
  145.9589  139.8207  151.3040 H   0  0  0  0  0  0  0  0  0  0  0  0
  146.4127  138.5231  150.2086 H   0  0  0  0  0  0  0  0  0  0  0  0
  144.3055  138.0514  151.5114 H   0  0  0  0  0  0  0  0  0  0  0  0
  143.4662  135.9063  151.9097 H   0  0  0  0  0  0  0  0  0  0  0  0
  144.7513  134.3360  153.3271 H   0  0  0  0  0  0  0  0  0  0  0  0
  144.3367  135.7887  154.2260 H   0  0  0  0  0  0  0  0  0  0  0  0
  145.9775  135.5650  153.6199 H   0  0  0  0  0  0  0  0  0  0  0  0
  145.0348  136.0469  149.9576 H   0  0  0  0  0  0  0  0  0  0  0  0
  146.3995  135.7919  151.0185 H   0  0  0  0  0  0  0  0  0  0  0  0
  143.1024  133.8459  150.4123 H   0  0  0  0  0  0  0  0  0  0  0  0
  143.8109  131.2161  150.2470 H   0  0  0  0  0  0  0  0  0  0  0  0
  146.5596  131.2889  150.6016 H   0  0  0  0  0  0  0  0  0  0  0  0
  1  2  2  0  0  0  0
  1 18  1  0  0  0  0
  1 19  1  0  0  0  0
  2  3  1  0  0  0  0
  2 20  1  0  0  0  0
  3  4  1  0  0  0  0
  3 21  1  0  0  0  0
  3 22  1  0  0  0  0
  4  5  1  0  0  0  0
  4 23  1  0  0  0  0
  5  6  2  0  0  0  0
  5  7  1  0  0  0  0
  7  8  1  0  0  0  0
  7  9  1  0  0  0  0
  7 24  1  0  0  0  0
  8 25  1  0  0  0  0
  8 26  1  0  0  0  0
  8 27  1  0  0  0  0
  9 10  1  0  0  0  0
  9 28  1  0  0  0  0
 10 11  1  0  0  0  0
 10 12  1  0  0  0  0
 10 29  1  0  0  0  0
 11 30  1  0  0  0  0
 11 31  1  0  0  0  0
 11 32  1  0  0  0  0
 12 13  1  0  0  0  0
 12 33  1  0  0  0  0
 12 34  1  0  0  0  0
 13 17  1  0  0  0  0
 13 14  1  0  0  0  0
 14 15  2  0  0  0  0
 14 35  1  0  0  0  0
 15 16  1  0  0  0  0
 15 36  1  0  0  0  0
 16 17  2  0  0  0  0
 16 37  1  0  0  0  0
M  END
> <s_m_source_file>
AV-unprocessed.smi

> <i_m_source_file_index>
3046

> <i_lp_mmshare_version>
43012

> <i_f3d_flags>
0

> <s_epik_input>
W0NIMl09W0NIXVtDSDJdW05IXUMoPU8pW0NASF0oW0NIM10pW05IXVtDQEhdKFtDSDNdKVtDSDJdbjFbY0hdW2NIXVtjSF1uMQ==

> <s_epik_cmdline>
J2VwaWtfcHl0aG9uJywgJy1waCcsICc3LjAnLCAnLXRuJywgJzgnLCAnLW1hJywgJzIwMCcsICctbWV0YWxfYmluZGluZycsICctaW1hZScsICc8aW5maWxlLm1hZT4nLCAnLW9tYWUnLCAnPG91dGZpbGUubWFlPic=

> <r_lp_tautomer_probability>
1

> <r_epik_Ionization_Penalty>
0.950627

> <r_epik_Ionization_Penalty_Charging>
0

> <r_epik_Ionization_Penalty_Neutral>
0.950627

> <r_epik_State_Penalty>
0.994814

> <r_epik_Charging_Adjusted_Penalty>
0.994814

> <i_epik_Tot_Q>
0

> <i_epik_Tot_abs_Q>
0

> <r_epik_Metal_State_Penalty>
0.994788

> <b_epik_Metal_Only>
0

> <s_lp_Force_Field>
OPLS_2005

> <r_lp_Energy>
5.49444

> <b_lp_Chiralities_Consistent>
1

> <s_lp_Variant>
AV-unprocessed.smi:3046-5

> <Gold.Version>
5.8.1

> <Gold.Id.Protein>
6NUR|6NUR_protein|mol2

> <Gold.PLP.Fitness>
43.5018

> <Gold.PLP.PLP>
-32.8621

> <Gold.PLP.part.hbond>
-3.0000

> <Gold.PLP.part.metal>
0.0000

> <Gold.PLP.part.buried>
-2.9162

> <Gold.PLP.part.nonpolar>
-27.5748

> <Gold.PLP.part.repulsive>
0.3101

> <Gold.PLP.ligand.clash>
0.0000

> <Gold.PLP.ligand.torsion>
0.8869

> <Gold.PLP.Chemscore.Hbond>
2.0000

> <Gold.PLP.Chemscore.CHOScore>
2.0000

> <Gold.PLP.Chemscore.Metal>
0.0000

> <Gold.Chemscore.Hbonds>
donor molecule, donor type, donor heavy atom, donor atom, acceptor molecule, acceptor atom, score
      L1  H     4    23       P1 10175  1.00
      L1  H     9    28       P1 10171  1.00
      L1  C    14    35       P1 10186  1.00
      L1  C    16    37       P1 10747  1.00

> <Gold.PLP.Chemscore.Internal.Correction>
0.4134

> <Gold.Rescore>
     Score         DG    S(hbond)    S(metal)    S(lipo)     H(rot)  DE(clash)    DE(int)     intcor
     14.24     -15.45       1.99        0.00      76.07       2.17       0.41       0.80       ----

> <Gold.Chemscore.Fitness>
14.2416

> <Gold.Chemscore.DG>
-15.4481

> <Gold.Chemscore.ZeroCoef>
-5.4800

> <Gold.Chemscore.Hbond>
1.9860

> <Gold.Chemscore.Metal>
0.0000

> <Gold.Chemscore.Lipo>
76.0688

> <Gold.Chemscore.Internal_Hbond>
0.0000

> <Gold.Chemscore.DEClash>
0.4091

> <Gold.Chemscore.DEInternal>
0.7974

> <Gold.Chemscore.Rot>
2.1739

> <Gold.Chemscore.Internal.Correction>
   9.000000E+99

> <Gold.Chemscore.Hbonds>
donor molecule, donor type, donor heavy atom, donor atom, acceptor molecule, acceptor atom, score
      L1  H     4    23       P1 10175  0.93
      L1  H     9    28       P1 10171  0.99

> <Gold.Chemscore.Hbond.Weighted>
-6.6332

> <Gold.Chemscore.Metal.Weighted>
-0.0000

> <Gold.Chemscore.Lipo.Weighted>
-8.9000

> <Gold.Chemscore.Internal_Hbond.Weighted>
0.0000

> <Gold.Chemscore.DEClash.Weighted>
0.4091

> <Gold.Chemscore.DEInternal.Weighted>
0.7974

> <Gold.Chemscore.Rot.Weighted>
5.5652

> <Gold.Chemscore.Internal.Correction.Weighted>
   9.000000E+99

> <Gold.Protein.RotatedTorsions>
[ 6907 6896 6895 6894 ] final -112.57 input  -60.11 | X-H torsion
[ 7974 7965 7964 7962 ] final  116.54 input  175.53 | X-H torsion
[ 8008 7997 7996 7995 ] final   14.06 input   59.86 | X-H torsion
[ 10167 10162 10161 10158 ] final   45.32 input  -65.29 | X-H torsion
[ 10718 10713 10712 10709 ] final  -48.67 input   66.30 | X-H torsion
[ 10763 10752 10751 10750 ] final   35.02 input  -60.55 | X-H torsion
[ 11005 11000 10999 10996 ] final   52.14 input  -57.11 | X-H torsion

> <Gold.Protein.ActiveResidues>
 VAL166  LYS551  ARG553  GLY616  TRP617  ASP618  TYR619  PRO620  LYS621  CYS622 
 ASP623  PHE694  ASN695  SER759  ASP760  ASP761  ALA762  ILE779  LEU786  VAL792 
 PHE793  MET794  SER795  GLU796  ALA797  LYS798  CYS799  TRP800  GLU811  SER814 

> <Gold.Protein.RotatedAtoms>
  150.7768  133.9070  159.3357 H   0  0  0  0  0  0  0  0  0  0  0  0  # atno 6907 bound_to 6896
  151.6943  135.0939  160.0249 H   0  0  0  0  0  0  0  0  0  0  0  0  # atno 6908 bound_to 6896
  152.3806  133.6503  159.6194 H   0  0  0  0  0  0  0  0  0  0  0  0  # atno 6909 bound_to 6896
  145.1784  139.3063  143.4431 H   0  0  0  0  0  0  0  0  0  0  0  0  # atno 7974 bound_to 7965
  154.8432  140.2918  155.5646 H   0  0  0  0  0  0  0  0  0  0  0  0  # atno 8008 bound_to 7997
  156.3013  140.2510  156.3310 H   0  0  0  0  0  0  0  0  0  0  0  0  # atno 8009 bound_to 7997
  154.9102  140.0389  157.1931 H   0  0  0  0  0  0  0  0  0  0  0  0  # atno 8010 bound_to 7997
  140.3253  144.2655  150.6176 H   0  0  0  0  0  0  0  0  0  0  0  0  # atno 10167 bound_to 10162
  156.1966  130.4154  149.9298 H   0  0  0  0  0  0  0  0  0  0  0  0  # atno 10718 bound_to 10713
  153.0138  135.6345  154.1760 H   0  0  0  0  0  0  0  0  0  0  0  0  # atno 10763 bound_to 10752
  154.1500  135.2829  155.3139 H   0  0  0  0  0  0  0  0  0  0  0  0  # atno 10764 bound_to 10752
  154.6060  135.5572  153.7484 H   0  0  0  0  0  0  0  0  0  0  0  0  # atno 10765 bound_to 10752
  140.0874  134.5256  155.8886 H   0  0  0  0  0  0  0  0  0  0  0  0  # atno 11005 bound_to 11000
  146.3457  140.1955  142.8589 LP  0  0  0  0  0  0  0  0  0  0  0  0  # atno 17320 bound_to 7965
  145.0161  140.8755  143.5195 LP  0  0  0  0  0  0  0  0  0  0  0  0  # atno 17321 bound_to 7965
  140.5446  143.2217  151.8028 LP  0  0  0  0  0  0  0  0  0  0  0  0  # atno 17342 bound_to 10162
  139.4866  144.4556  151.9603 LP  0  0  0  0  0  0  0  0  0  0  0  0  # atno 17343 bound_to 10162
  156.7022  130.8937  151.3600 LP  0  0  0  0  0  0  0  0  0  0  0  0  # atno 17370 bound_to 10713
  157.6961  130.9283  150.0648 LP  0  0  0  0  0  0  0  0  0  0  0  0  # atno 17371 bound_to 10713
  141.2067  133.6657  156.6257 LP  0  0  0  0  0  0  0  0  0  0  0  0  # atno 17394 bound_to 11000
  140.3401  134.7856  157.4391 LP  0  0  0  0  0  0  0  0  0  0  0  0  # atno 17395 bound_to 11000

$$$$
