AV-unprocessed.smi:2009|AV-procd|sdf|8146|dock5
  -GOLD-   2272010383D 1   1.00000     0.00000
 Structure written by MMmdl.
 38 39  0  0  0  0  0  0  0  0  1 V2000
  150.0414  141.2963  156.1669 C   0  0  0  0  0  0  0  0  0  0  0  0
  150.2398  142.0986  157.4620 C   0  0  1  0  0  0  0  0  0  0  0  0
  151.4733  143.0302  157.4260 C   0  0  0  0  0  0  0  0  0  0  0  0
  151.7245  143.7225  158.6799 N   0  0  0  0  0  0  0  0  0  0  0  0
  151.8602  145.0775  158.9000 C   0  0  0  0  0  0  0  0  0  0  0  0
  152.0918  145.2521  160.2342 C   0  0  0  0  0  0  0  0  0  0  0  0
  152.0846  143.9279  160.7546 C   0  0  0  0  0  0  0  0  0  0  0  0
  151.8682  143.0150  159.8222 N   0  0  0  0  0  0  0  0  0  0  0  0
  149.0188  142.8571  157.7454 N   0  0  0  0  0  0  0  0  0  0  0  0
  147.5317  142.0373  158.0486 S   0  0  0  0  0  0  0  0  0  0  0  0
  147.6983  140.6334  157.6418 O   0  0  0  0  0  0  0  0  0  0  0  0
  147.0607  142.3814  159.3987 O   0  0  0  0  0  0  0  0  0  0  0  0
  146.5254  142.8453  156.8934 N   0  0  0  0  0  0  0  0  0  0  0  0
  146.4096  142.2207  155.5608 C   0  0  0  0  0  0  0  0  0  0  0  0
  145.8233  143.1992  154.5290 C   0  0  0  0  0  0  0  0  0  0  0  0
  144.4838  143.7707  155.0025 C   0  0  0  0  0  0  0  0  0  0  0  0
  144.6701  144.4264  156.3737 C   0  0  0  0  0  0  0  0  0  0  0  0
  145.2624  143.4346  157.3882 C   0  0  0  0  0  0  0  0  0  0  0  0
  150.9342  140.7194  155.9246 H   0  0  0  0  0  0  0  0  0  0  0  0
  149.8225  141.9453  155.3183 H   0  0  0  0  0  0  0  0  0  0  0  0
  149.2134  140.5937  156.2656 H   0  0  0  0  0  0  0  0  0  0  0  0
  150.3822  141.3829  158.2725 H   0  0  0  0  0  0  0  0  0  0  0  0
  152.3709  142.4793  157.1443 H   0  0  0  0  0  0  0  0  0  0  0  0
  151.3339  143.7844  156.6506 H   0  0  0  0  0  0  0  0  0  0  0  0
  151.7789  145.7959  158.0976 H   0  0  0  0  0  0  0  0  0  0  0  0
  152.2452  146.1834  160.7585 H   0  0  0  0  0  0  0  0  0  0  0  0
  152.2315  143.6047  161.7746 H   0  0  0  0  0  0  0  0  0  0  0  0
  148.9029  143.6837  157.1597 H   0  0  0  0  0  0  0  0  0  0  0  0
  147.3913  141.8876  155.2243 H   0  0  0  0  0  0  0  0  0  0  0  0
  145.7840  141.3308  155.6408 H   0  0  0  0  0  0  0  0  0  0  0  0
  146.5290  144.0130  154.3576 H   0  0  0  0  0  0  0  0  0  0  0  0
  145.6948  142.6950  153.5710 H   0  0  0  0  0  0  0  0  0  0  0  0
  144.1072  144.4985  154.2836 H   0  0  0  0  0  0  0  0  0  0  0  0
  143.7408  142.9749  155.0672 H   0  0  0  0  0  0  0  0  0  0  0  0
  145.3293  145.2907  156.2812 H   0  0  0  0  0  0  0  0  0  0  0  0
  143.7149  144.8043  156.7384 H   0  0  0  0  0  0  0  0  0  0  0  0
  144.5533  142.6308  157.5906 H   0  0  0  0  0  0  0  0  0  0  0  0
  145.4311  143.9464  158.3350 H   0  0  0  0  0  0  0  0  0  0  0  0
  1  2  1  0  0  0  0
  1 19  1  0  0  0  0
  1 20  1  0  0  0  0
  1 21  1  0  0  0  0
  2  3  1  0  0  0  0
  2  9  1  0  0  0  0
  2 22  1  0  0  0  0
  3  4  1  0  0  0  0
  3 23  1  0  0  0  0
  3 24  1  0  0  0  0
  4  8  1  0  0  0  0
  4  5  1  0  0  0  0
  5  6  2  0  0  0  0
  5 25  1  0  0  0  0
  6  7  1  0  0  0  0
  6 26  1  0  0  0  0
  7  8  2  0  0  0  0
  7 27  1  0  0  0  0
  9 10  1  0  0  0  0
  9 28  1  0  0  0  0
 10 11  2  0  0  0  0
 10 12  2  0  0  0  0
 10 13  1  0  0  0  0
 13 18  1  0  0  0  0
 13 14  1  0  0  0  0
 14 15  1  0  0  0  0
 14 29  1  0  0  0  0
 14 30  1  0  0  0  0
 15 16  1  0  0  0  0
 15 31  1  0  0  0  0
 15 32  1  0  0  0  0
 16 17  1  0  0  0  0
 16 33  1  0  0  0  0
 16 34  1  0  0  0  0
 17 18  1  0  0  0  0
 17 35  1  0  0  0  0
 17 36  1  0  0  0  0
 18 37  1  0  0  0  0
 18 38  1  0  0  0  0
M  END
> <s_m_source_file>
AV-unprocessed.smi

> <i_m_source_file_index>
2009

> <i_lp_mmshare_version>
43012

> <i_f3d_flags>
0

> <s_epik_input>
bjFbY0hdW2NIXVtjSF1uMVtDSDJdW0NAQEhdKFtDSDNdKVtOSF1TKD1PKSg9TylOMltDSDJdW0NIMl1bQ0gyXVtDSDJdW0NIMl0y

> <s_epik_cmdline>
J2VwaWtfcHl0aG9uJywgJy1waCcsICc3LjAnLCAnLXRuJywgJzgnLCAnLW1hJywgJzIwMCcsICctbWV0YWxfYmluZGluZycsICctaW1hZScsICc8aW5maWxlLm1hZT4nLCAnLW9tYWUnLCAnPG91dGZpbGUubWFlPic=

> <r_lp_tautomer_probability>
1

> <r_epik_Ionization_Penalty>
0.0313937

> <r_epik_Ionization_Penalty_Charging>
0

> <r_epik_Ionization_Penalty_Neutral>
0.0313937

> <r_epik_State_Penalty>
0.0259441

> <r_epik_Charging_Adjusted_Penalty>
0.0259441

> <i_epik_Tot_Q>
0

> <i_epik_Tot_abs_Q>
0

> <r_epik_Metal_State_Penalty>
0.365037

> <b_epik_Metal_Only>
0

> <s_lp_Force_Field>
OPLS_2005

> <r_lp_Energy>
8.11637

> <b_lp_Chiralities_Consistent>
1

> <s_lp_Variant>
AV-unprocessed.smi:2009-2

> <Gold.Version>
5.8.1

> <Gold.Id.Protein>
6NUR|6NUR_protein|mol2

> <Gold.PLP.Fitness>
40.8896

> <Gold.PLP.PLP>
-36.2987

> <Gold.PLP.part.hbond>
-2.2580

> <Gold.PLP.part.metal>
0.0000

> <Gold.PLP.part.buried>
-6.4127

> <Gold.PLP.part.nonpolar>
-28.8610

> <Gold.PLP.part.repulsive>
0.2513

> <Gold.PLP.ligand.clash>
0.0000

> <Gold.PLP.ligand.torsion>
0.7697

> <Gold.PLP.Chemscore.Hbond>
1.7800

> <Gold.PLP.Chemscore.CHOScore>
0.0000

> <Gold.PLP.Chemscore.Metal>
0.0000

> <Gold.Chemscore.Hbonds>
donor molecule, donor type, donor heavy atom, donor atom, acceptor molecule, acceptor atom, score
      L1  H     9    28       P1  8028  1.00
      P1  H  6934  6946       L1    12  0.78

> <Gold.PLP.Chemscore.Internal.Correction>
0.7903

> <Gold.Rescore>
     Score         DG    S(hbond)    S(metal)    S(lipo)     H(rot)  DE(clash)    DE(int)     intcor
     12.03     -14.43       1.22        0.00      81.63       1.82       0.23       2.18       ----

> <Gold.Chemscore.Fitness>
12.0261

> <Gold.Chemscore.DG>
-14.4331

> <Gold.Chemscore.ZeroCoef>
-5.4800

> <Gold.Chemscore.Hbond>
1.2189

> <Gold.Chemscore.Metal>
0.0000

> <Gold.Chemscore.Lipo>
81.6290

> <Gold.Chemscore.Internal_Hbond>
0.0000

> <Gold.Chemscore.DEClash>
0.2261

> <Gold.Chemscore.DEInternal>
2.1809

> <Gold.Chemscore.Rot>
1.8237

> <Gold.Chemscore.Internal.Correction>
   9.000000E+99

> <Gold.Chemscore.Hbonds>
donor molecule, donor type, donor heavy atom, donor atom, acceptor molecule, acceptor atom, score
      L1  H     9    28       P1  8028  0.26
      P1  H  6933  6944       L1    12  0.01
      P1  H  6934  6946       L1    12  0.69

> <Gold.Chemscore.Hbond.Weighted>
-4.0711

> <Gold.Chemscore.Metal.Weighted>
-0.0000

> <Gold.Chemscore.Lipo.Weighted>
-9.5506

> <Gold.Chemscore.Internal_Hbond.Weighted>
0.0000

> <Gold.Chemscore.DEClash.Weighted>
0.2261

> <Gold.Chemscore.DEInternal.Weighted>
2.1809

> <Gold.Chemscore.Rot.Weighted>
4.6686

> <Gold.Chemscore.Internal.Correction.Weighted>
   9.000000E+99

> <Gold.Protein.RotatedTorsions>
[ 6907 6896 6895 6894 ] final -105.60 input  -60.11 | X-H torsion
[ 7974 7965 7964 7962 ] final  -10.39 input  175.53 | X-H torsion
[ 8008 7997 7996 7995 ] final -177.25 input   59.86 | X-H torsion
[ 10167 10162 10161 10158 ] final  156.57 input  -65.29 | X-H torsion
[ 10718 10713 10712 10709 ] final -158.48 input   66.30 | X-H torsion
[ 10763 10752 10751 10750 ] final -126.08 input  -60.55 | X-H torsion
[ 11005 11000 10999 10996 ] final -143.15 input  -57.11 | X-H torsion

> <Gold.Protein.ActiveResidues>
 VAL166  LYS551  ARG553  GLY616  TRP617  ASP618  TYR619  PRO620  LYS621  CYS622 
 ASP623  PHE694  ASN695  SER759  ASP760  ASP761  ALA762  ILE779  LEU786  VAL792 
 PHE793  MET794  SER795  GLU796  ALA797  LYS798  CYS799  TRP800  GLU811  SER814 

> <Gold.Protein.RotatedAtoms>
  150.7345  134.0102  159.3666 H   0  0  0  0  0  0  0  0  0  0  0  0  # atno 6907 bound_to 6896
  151.8061  135.0692  160.0416 H   0  0  0  0  0  0  0  0  0  0  0  0  # atno 6908 bound_to 6896
  152.3106  133.5712  159.5714 H   0  0  0  0  0  0  0  0  0  0  0  0  # atno 6909 bound_to 6896
  146.2222  140.2756  142.8359 H   0  0  0  0  0  0  0  0  0  0  0  0  # atno 7974 bound_to 7965
  156.0047  140.1228  157.0513 H   0  0  0  0  0  0  0  0  0  0  0  0  # atno 8008 bound_to 7997
  154.4254  140.1100  156.5814 H   0  0  0  0  0  0  0  0  0  0  0  0  # atno 8009 bound_to 7997
  155.6164  140.3472  155.4640 H   0  0  0  0  0  0  0  0  0  0  0  0  # atno 8010 bound_to 7997
  139.4821  144.4996  151.8188 H   0  0  0  0  0  0  0  0  0  0  0  0  # atno 10167 bound_to 10162
  156.5548  130.8621  151.2791 H   0  0  0  0  0  0  0  0  0  0  0  0  # atno 10718 bound_to 10713
  154.8742  135.4007  154.3373 H   0  0  0  0  0  0  0  0  0  0  0  0  # atno 10763 bound_to 10752
  153.4178  135.7022  153.6320 H   0  0  0  0  0  0  0  0  0  0  0  0  # atno 10764 bound_to 10752
  153.4995  135.3730  155.2503 H   0  0  0  0  0  0  0  0  0  0  0  0  # atno 10765 bound_to 10752
  140.8154  134.2695  157.4923 H   0  0  0  0  0  0  0  0  0  0  0  0  # atno 11005 bound_to 11000
  144.9235  140.7895  143.5733 LP  0  0  0  0  0  0  0  0  0  0  0  0  # atno 17320 bound_to 7965
  145.2694  139.1960  143.4849 LP  0  0  0  0  0  0  0  0  0  0  0  0  # atno 17321 bound_to 7965
  140.4488  144.1884  150.5896 LP  0  0  0  0  0  0  0  0  0  0  0  0  # atno 17342 bound_to 10162
  140.4606  143.2450  151.9224 LP  0  0  0  0  0  0  0  0  0  0  0  0  # atno 17343 bound_to 10162
  157.7380  130.9806  150.2228 LP  0  0  0  0  0  0  0  0  0  0  0  0  # atno 17370 bound_to 10713
  156.2852  130.3738  149.7896 LP  0  0  0  0  0  0  0  0  0  0  0  0  # atno 17371 bound_to 10713
  139.8711  134.9506  156.4060 LP  0  0  0  0  0  0  0  0  0  0  0  0  # atno 17394 bound_to 11000
  140.9155  133.7682  155.9843 LP  0  0  0  0  0  0  0  0  0  0  0  0  # atno 17395 bound_to 11000

$$$$
