AV-unprocessed.smi:249|AV-procd|sdf|1904|dock4
  -GOLD-   2262020583D 1   1.00000     0.00000
 Structure written by MMmdl.
 64 67  0  0  0  0  0  0  0  0  2 V2000
  154.2806  140.8782  160.4588 C   0  0  0  0  0  0  0  0  0  0  0  0
  152.8711  141.4731  160.3047 C   0  0  0  0  0  0  0  0  0  0  0  0
  152.3118  141.3365  158.9283 N   0  3  2  0  0  0  0  0  0  0  0  0
  151.3274  142.4142  158.6213 C   0  0  0  0  0  0  0  0  0  0  0  0
  150.8023  142.3305  157.1792 C   0  0  0  0  0  0  0  0  0  0  0  0
  150.1457  140.9644  156.8941 C   0  0  2  0  0  0  0  0  0  0  0  0
  148.9033  140.7352  157.6502 N   0  0  0  0  0  0  0  0  0  0  0  0
  148.3233  139.3968  157.5983 C   0  0  0  0  0  0  0  0  0  0  0  0
  147.9406  141.6703  157.4884 C   0  0  0  0  0  0  0  0  0  0  0  0
  147.4465  141.8425  156.2378 N   0  0  0  0  0  0  0  0  0  0  0  0
  146.4855  142.7458  156.0197 C   0  0  0  0  0  0  0  0  0  0  0  0
  145.8925  143.5622  156.8939 N   0  0  0  0  0  0  0  0  0  0  0  0
  146.3959  143.3941  158.1505 C   0  0  0  0  0  0  0  0  0  0  0  0
  147.4157  142.4799  158.5343 C   0  0  0  0  0  0  0  0  0  0  0  0
  147.6693  142.5938  159.8958 N   0  0  0  0  0  0  0  0  0  0  0  0
  146.8420  143.5210  160.2962 C   0  0  0  0  0  0  0  0  0  0  0  0
  146.0353  144.0495  159.3137 N   0  0  0  0  0  0  0  0  0  0  0  0
  145.0268  145.0812  159.4755 C   0  0  0  0  0  0  0  0  0  0  0  0
  145.3226  146.3579  158.6500 C   0  0  1  0  0  0  0  0  0  0  0  0
  144.2347  146.6500  157.5880 C   0  0  0  0  0  0  0  0  0  0  0  0
  144.0986  145.5776  156.6779 O   0  0  0  0  0  0  0  0  0  0  0  0
  145.5966  147.5758  159.5679 C   0  0  2  0  0  0  0  0  0  0  0  0
  145.9419  148.8625  158.8388 C   0  0  0  0  0  0  0  0  0  0  0  0
  146.5993  149.6881  159.9389 C   0  0  0  0  0  0  0  0  0  0  0  0
  147.2658  148.7493  160.7745 O   0  0  0  0  0  0  0  0  0  0  0  0
  146.8271  147.4289  160.4703 C   0  0  0  0  0  0  0  0  0  0  0  0
  151.2164  139.8979  157.1887 C   0  0  0  0  0  0  0  0  0  0  0  0
  151.7562  139.9741  158.6359 C   0  0  1  0  0  0  0  0  0  0  0  0
  152.7880  138.8442  158.8348 C   0  0  0  0  0  0  0  0  0  0  0  0
  154.5684  140.8530  161.5101 H   0  0  0  0  0  0  0  0  0  0  0  0
  155.0380  141.4658  159.9409 H   0  0  0  0  0  0  0  0  0  0  0  0
  154.3230  139.8558  160.0824 H   0  0  0  0  0  0  0  0  0  0  0  0
  152.2468  140.9427  161.0197 H   0  0  0  0  0  0  0  0  0  0  0  0
  152.8670  142.5218  160.6052 H   0  0  0  0  0  0  0  0  0  0  0  0
  150.4999  142.3641  159.3304 H   0  0  0  0  0  0  0  0  0  0  0  0
  151.7846  143.3945  158.7441 H   0  0  0  0  0  0  0  0  0  0  0  0
  150.1170  143.1547  156.9809 H   0  0  0  0  0  0  0  0  0  0  0  0
  151.6347  142.4785  156.4898 H   0  0  0  0  0  0  0  0  0  0  0  0
  149.9011  140.9111  155.8330 H   0  0  0  0  0  0  0  0  0  0  0  0
  147.2871  139.3846  157.9411 H   0  0  0  0  0  0  0  0  0  0  0  0
  148.8840  138.7185  158.2414 H   0  0  0  0  0  0  0  0  0  0  0  0
  148.3479  139.0042  156.5810 H   0  0  0  0  0  0  0  0  0  0  0  0
  146.1410  142.8252  154.9991 H   0  0  0  0  0  0  0  0  0  0  0  0
  146.7908  143.8412  161.3269 H   0  0  0  0  0  0  0  0  0  0  0  0
  144.0587  144.6651  159.1937 H   0  0  0  0  0  0  0  0  0  0  0  0
  144.9635  145.3155  160.5384 H   0  0  0  0  0  0  0  0  0  0  0  0
  146.2422  146.1668  158.0949 H   0  0  0  0  0  0  0  0  0  0  0  0
  143.2699  146.8330  158.0601 H   0  0  0  0  0  0  0  0  0  0  0  0
  144.4671  147.5562  157.0285 H   0  0  0  0  0  0  0  0  0  0  0  0
  143.8861  145.9304  155.8273 H   0  0  0  0  0  0  0  0  0  0  0  0
  144.7265  147.7610  160.2003 H   0  0  0  0  0  0  0  0  0  0  0  0
  146.6575  148.6688  158.0381 H   0  0  0  0  0  0  0  0  0  0  0  0
  145.0733  149.3616  158.4086 H   0  0  0  0  0  0  0  0  0  0  0  0
  147.2896  150.4345  159.5458 H   0  0  0  0  0  0  0  0  0  0  0  0
  145.8424  150.2036  160.5312 H   0  0  0  0  0  0  0  0  0  0  0  0
  146.6105  146.8705  161.3813 H   0  0  0  0  0  0  0  0  0  0  0  0
  147.6338  146.9157  159.9452 H   0  0  0  0  0  0  0  0  0  0  0  0
  150.8278  138.9014  156.9785 H   0  0  0  0  0  0  0  0  0  0  0  0
  152.0464  140.0318  156.4930 H   0  0  0  0  0  0  0  0  0  0  0  0
  150.9277  139.7945  159.3231 H   0  0  0  0  0  0  0  0  0  0  0  0
  152.4016  137.8948  158.4625 H   0  0  0  0  0  0  0  0  0  0  0  0
  153.0268  138.6779  159.8844 H   0  0  0  0  0  0  0  0  0  0  0  0
  153.7153  139.0519  158.2997 H   0  0  0  0  0  0  0  0  0  0  0  0
  153.0856  141.4647  158.2921 H   0  0  0  0  0  0  0  0  0  0  0  0
  1  2  1  0  0  0  0
  1 30  1  0  0  0  0
  1 31  1  0  0  0  0
  1 32  1  0  0  0  0
  2  3  1  0  0  0  0
  2 33  1  0  0  0  0
  2 34  1  0  0  0  0
  3 28  1  0  0  0  0
  3  4  1  0  0  0  0
  3 64  1  0  0  0  0
  4  5  1  0  0  0  0
  4 35  1  0  0  0  0
  4 36  1  0  0  0  0
  5  6  1  0  0  0  0
  5 37  1  0  0  0  0
  5 38  1  0  0  0  0
  6  7  1  0  0  0  0
  6 27  1  0  0  0  0
  6 39  1  0  0  0  0
  7  8  1  0  0  0  0
  7  9  1  0  0  0  0
  8 40  1  0  0  0  0
  8 41  1  0  0  0  0
  8 42  1  0  0  0  0
  9 14  1  0  0  0  0
  9 10  2  0  0  0  0
 10 11  1  0  0  0  0
 11 12  2  0  0  0  0
 11 43  1  0  0  0  0
 12 13  1  0  0  0  0
 13 17  1  0  0  0  0
 13 14  2  0  0  0  0
 14 15  1  0  0  0  0
 15 16  2  0  0  0  0
 16 17  1  0  0  0  0
 16 44  1  0  0  0  0
 17 18  1  0  0  0  0
 18 19  1  0  0  0  0
 18 45  1  0  0  0  0
 18 46  1  0  0  0  0
 19 20  1  0  0  0  0
 19 22  1  0  0  0  0
 19 47  1  0  0  0  0
 20 21  1  0  0  0  0
 20 48  1  0  0  0  0
 20 49  1  0  0  0  0
 21 50  1  0  0  0  0
 22 26  1  0  0  0  0
 22 23  1  0  0  0  0
 22 51  1  0  0  0  0
 23 24  1  0  0  0  0
 23 52  1  0  0  0  0
 23 53  1  0  0  0  0
 24 25  1  0  0  0  0
 24 54  1  0  0  0  0
 24 55  1  0  0  0  0
 25 26  1  0  0  0  0
 26 56  1  0  0  0  0
 26 57  1  0  0  0  0
 27 28  1  0  0  0  0
 27 58  1  0  0  0  0
 27 59  1  0  0  0  0
 28 29  1  0  0  0  0
 28 60  1  0  0  0  0
 29 61  1  0  0  0  0
 29 62  1  0  0  0  0
 29 63  1  0  0  0  0
M  CHG  1   3   1
M  END
> <s_m_source_file>
AV-unprocessed.smi

> <i_m_source_file_index>
249

> <i_lp_mmshare_version>
43012

> <i_f3d_flags>
0

> <s_epik_input>
W0NIM11bQ0gyXU4xW0NIMl1bQ0gyXVtDQEhdKFtDSDJdW0NASF0xW0NIM10pTihbQ0gzXSljKG5bY0hdbjIpYyhjMjMpbltjSF1uM1tDSDJdW0NASF0oW0NIMl1bT0hdKVtDQEBIXTRbQ0gyXVtDSDJdT1tDSDJdNA==

> <s_epik_cmdline>
J2VwaWtfcHl0aG9uJywgJy1waCcsICc3LjAnLCAnLXRuJywgJzgnLCAnLW1hJywgJzIwMCcsICctbWV0YWxfYmluZGluZycsICctaW1hZScsICc8aW5maWxlLm1hZT4nLCAnLW9tYWUnLCAnPG91dGZpbGUubWFlPic=

> <r_lp_tautomer_probability>
1

> <r_epik_Ionization_Penalty>
0.00294688

> <r_epik_Ionization_Penalty_Charging>
0.00169971

> <r_epik_Ionization_Penalty_Neutral>
0.00124717

> <r_epik_State_Penalty>
-0

> <r_epik_Charging_Adjusted_Penalty>
0.00169971

> <i_epik_Tot_Q>
1

> <i_epik_Tot_abs_Q>
1

> <r_epik_Metal_State_Penalty>
-0

> <b_epik_Metal_Only>
0

> <s_lp_Force_Field>
OPLS_2005

> <r_lp_Energy>
56.7452

> <b_lp_Chiralities_Consistent>
1

> <s_lp_Variant>
AV-unprocessed.smi:249-7

> <Gold.Version>
5.8.1

> <Gold.Id.Protein>
6NUR|6NUR_protein|mol2

> <Gold.PLP.Fitness>
46.2363

> <Gold.PLP.PLP>
-44.7249

> <Gold.PLP.part.hbond>
-4.6623

> <Gold.PLP.part.metal>
0.0000

> <Gold.PLP.part.buried>
-7.1260

> <Gold.PLP.part.nonpolar>
-34.8269

> <Gold.PLP.part.repulsive>
0.5643

> <Gold.PLP.ligand.clash>
0.0000

> <Gold.PLP.ligand.torsion>
1.2757

> <Gold.PLP.Chemscore.Hbond>
1.0959

> <Gold.PLP.Chemscore.CHOScore>
0.0000

> <Gold.PLP.Chemscore.Metal>
0.0000

> <Gold.Chemscore.Hbonds>
donor molecule, donor type, donor heavy atom, donor atom, acceptor molecule, acceptor atom, score
      P1  H  6933  6944       L1    15  0.56
      P1  H  6934  6946       L1    15  0.50

> <Gold.PLP.Chemscore.Internal.Correction>
0.7750

> <Gold.Rescore>
     Score         DG    S(hbond)    S(metal)    S(lipo)     H(rot)  DE(clash)    DE(int)     intcor
     10.34     -12.97       0.80        0.00     104.49       2.90       0.21       2.41       ----

> <Gold.Chemscore.Fitness>
10.3438

> <Gold.Chemscore.DG>
-12.9665

> <Gold.Chemscore.ZeroCoef>
-5.4800

> <Gold.Chemscore.Hbond>
0.8044

> <Gold.Chemscore.Metal>
0.0000

> <Gold.Chemscore.Lipo>
104.4907

> <Gold.Chemscore.Internal_Hbond>
0.0000

> <Gold.Chemscore.DEClash>
0.2086

> <Gold.Chemscore.DEInternal>
2.4141

> <Gold.Chemscore.Rot>
2.9006

> <Gold.Chemscore.Internal.Correction>
   9.000000E+99

> <Gold.Chemscore.Hbonds>
donor molecule, donor type, donor heavy atom, donor atom, acceptor molecule, acceptor atom, score
      P1  H  6933  6944       L1    15  0.11
      P1  H  6934  6946       L1    15  0.11

> <Gold.Chemscore.Hbond.Weighted>
-2.6867

> <Gold.Chemscore.Metal.Weighted>
-0.0000

> <Gold.Chemscore.Lipo.Weighted>
-12.2254

> <Gold.Chemscore.Internal_Hbond.Weighted>
0.0000

> <Gold.Chemscore.DEClash.Weighted>
0.2086

> <Gold.Chemscore.DEInternal.Weighted>
2.4141

> <Gold.Chemscore.Rot.Weighted>
7.4256

> <Gold.Chemscore.Internal.Correction.Weighted>
   9.000000E+99

> <Gold.Protein.RotatedTorsions>
[ 6907 6896 6895 6894 ] final   96.93 input  -60.11 | X-H torsion
[ 7974 7965 7964 7962 ] final  108.21 input  175.53 | X-H torsion
[ 8008 7997 7996 7995 ] final -102.58 input   59.86 | X-H torsion
[ 10167 10162 10161 10158 ] final -162.99 input  -65.29 | X-H torsion
[ 10718 10713 10712 10709 ] final  110.78 input   66.30 | X-H torsion
[ 10763 10752 10751 10750 ] final  -26.62 input  -60.55 | X-H torsion
[ 11005 11000 10999 10996 ] final   75.88 input  -57.11 | X-H torsion

> <Gold.Protein.ActiveResidues>
 VAL166  LYS551  ARG553  GLY616  TRP617  ASP618  TYR619  PRO620  LYS621  CYS622 
 ASP623  PHE694  ASN695  SER759  ASP760  ASP761  ALA762  ILE779  LEU786  VAL792 
 PHE793  MET794  SER795  GLU796  ALA797  LYS798  CYS799  TRP800  GLU811  SER814 

> <Gold.Protein.RotatedAtoms>
  152.5429  134.0812  159.8235 H   0  0  0  0  0  0  0  0  0  0  0  0  # atno 6907 bound_to 6896
  151.0913  133.5306  159.2622 H   0  0  0  0  0  0  0  0  0  0  0  0  # atno 6908 bound_to 6896
  151.2096  135.0485  159.8960 H   0  0  0  0  0  0  0  0  0  0  0  0  # atno 6909 bound_to 6896
  145.2836  139.2624  143.3902 H   0  0  0  0  0  0  0  0  0  0  0  0  # atno 7974 bound_to 7965
  154.8587  140.0427  157.1651 H   0  0  0  0  0  0  0  0  0  0  0  0  # atno 8008 bound_to 7997
  154.8864  140.2980  155.5375 H   0  0  0  0  0  0  0  0  0  0  0  0  # atno 8009 bound_to 7997
  156.2998  140.2401  156.3874 H   0  0  0  0  0  0  0  0  0  0  0  0  # atno 8010 bound_to 7997
  139.6352  144.0363  152.2048 H   0  0  0  0  0  0  0  0  0  0  0  0  # atno 10167 bound_to 10162
  157.6477  131.0939  150.6652 H   0  0  0  0  0  0  0  0  0  0  0  0  # atno 10718 bound_to 10713
  153.7188  135.6946  153.5018 H   0  0  0  0  0  0  0  0  0  0  0  0  # atno 10763 bound_to 10752
  153.2218  135.4367  155.0497 H   0  0  0  0  0  0  0  0  0  0  0  0  # atno 10764 bound_to 10752
  154.8291  135.3462  154.6723 H   0  0  0  0  0  0  0  0  0  0  0  0  # atno 10765 bound_to 10752
  139.9323  134.7554  156.1326 H   0  0  0  0  0  0  0  0  0  0  0  0  # atno 11005 bound_to 11000
  146.3208  140.3310  142.8640 LP  0  0  0  0  0  0  0  0  0  0  0  0  # atno 17320 bound_to 7965
  144.9232  140.7891  143.5735 LP  0  0  0  0  0  0  0  0  0  0  0  0  # atno 17321 bound_to 7965
  140.0038  144.6274  150.7706 LP  0  0  0  0  0  0  0  0  0  0  0  0  # atno 17342 bound_to 10162
  140.7461  143.2886  151.3393 LP  0  0  0  0  0  0  0  0  0  0  0  0  # atno 17343 bound_to 10162
  156.6967  130.4611  149.5584 LP  0  0  0  0  0  0  0  0  0  0  0  0  # atno 17370 bound_to 10713
  156.1824  130.6507  151.0966 LP  0  0  0  0  0  0  0  0  0  0  0  0  # atno 17371 bound_to 10713
  141.0919  133.6711  156.2559 LP  0  0  0  0  0  0  0  0  0  0  0  0  # atno 17394 bound_to 11000
  140.6168  134.5402  157.5542 LP  0  0  0  0  0  0  0  0  0  0  0  0  # atno 17395 bound_to 11000

$$$$
