AV-unprocessed.smi:234|AV-procd|sdf|1797|dock4
  -GOLD-   2262020363D 1   1.00000     0.00000
 Structure written by MMmdl.
 59 62  0  0  0  0  0  0  0  0  1 V2000
  141.5379  135.2899  162.5019 C   0  0  0  0  0  0  0  0  0  0  0  0
  142.7707  136.1689  162.7524 C   0  0  0  0  0  0  0  0  0  0  0  0
  143.9771  135.4635  162.4987 O   0  0  0  0  0  0  0  0  0  0  0  0
  145.1537  136.2630  162.5805 C   0  0  2  0  0  0  0  0  0  0  0  0
  145.3189  137.0787  161.2977 C   0  0  0  0  0  0  0  0  0  0  0  0
  146.1090  135.8844  160.7440 C   0  0  1  0  0  0  0  0  0  0  0  0
  147.2649  136.2570  159.9214 N   0  0  0  0  0  0  0  0  0  0  0  0
  148.3283  135.2727  159.7497 C   0  0  0  0  0  0  0  0  0  0  0  0
  147.0342  136.9598  158.7850 C   0  0  0  0  0  0  0  0  0  0  0  0
  145.9276  136.7068  158.0362 N   0  0  0  0  0  0  0  0  0  0  0  0
  145.7072  137.3921  156.9106 C   0  0  0  0  0  0  0  0  0  0  0  0
  146.4499  138.3549  156.3608 N   0  0  0  0  0  0  0  0  0  0  0  0
  147.5626  138.6101  157.1073 C   0  0  0  0  0  0  0  0  0  0  0  0
  147.9314  137.9587  158.3176 C   0  0  0  0  0  0  0  0  0  0  0  0
  149.1293  138.4786  158.7920 N   0  0  0  0  0  0  0  0  0  0  0  0
  149.4481  139.3903  157.9139 C   0  0  0  0  0  0  0  0  0  0  0  0
  148.5581  139.5429  156.8741 N   0  0  0  0  0  0  0  0  0  0  0  0
  148.6608  140.4882  155.7724 C   0  0  0  0  0  0  0  0  0  0  0  0
  150.0089  140.3968  155.0096 C   0  0  2  0  0  0  0  0  0  0  0  0
  149.7946  140.8751  153.6915 O   0  0  0  0  0  0  0  0  0  0  0  0
  150.5616  138.9783  154.9084 C   0  0  0  0  0  0  0  0  0  0  0  0
  152.0601  139.2053  154.7841 C   0  0  0  0  0  0  0  0  0  0  0  0
  152.2851  140.2701  155.6911 O   0  0  0  0  0  0  0  0  0  0  0  0
  151.2014  141.1939  155.6093 C   0  0  2  0  0  0  0  0  0  0  0  0
  150.9987  141.7875  157.0122 C   0  0  0  0  0  0  0  0  0  0  0  0
  146.4490  135.4944  162.2098 C   0  0  0  0  0  0  0  0  0  0  0  0
  147.7243  136.0892  162.8294 C   0  0  0  0  0  0  0  0  0  0  0  0
  146.4613  133.9982  162.5360 C   0  0  0  0  0  0  0  0  0  0  0  0
  140.6207  135.8601  162.6494 H   0  0  0  0  0  0  0  0  0  0  0  0
  141.5072  134.4352  163.1776 H   0  0  0  0  0  0  0  0  0  0  0  0
  141.5320  134.9097  161.4801 H   0  0  0  0  0  0  0  0  0  0  0  0
  142.7391  137.0249  162.0782 H   0  0  0  0  0  0  0  0  0  0  0  0
  142.7675  136.5731  163.7660 H   0  0  0  0  0  0  0  0  0  0  0  0
  145.2344  136.8706  163.4839 H   0  0  0  0  0  0  0  0  0  0  0  0
  144.3891  137.2962  160.7707 H   0  0  0  0  0  0  0  0  0  0  0  0
  145.9188  137.9791  161.4413 H   0  0  0  0  0  0  0  0  0  0  0  0
  145.4522  135.1532  160.2687 H   0  0  0  0  0  0  0  0  0  0  0  0
  148.4449  134.9754  158.7060 H   0  0  0  0  0  0  0  0  0  0  0  0
  148.1259  134.3688  160.3230 H   0  0  0  0  0  0  0  0  0  0  0  0
  149.2770  135.6846  160.0942 H   0  0  0  0  0  0  0  0  0  0  0  0
  144.8066  137.1319  156.3744 H   0  0  0  0  0  0  0  0  0  0  0  0
  150.3430  139.9888  158.0054 H   0  0  0  0  0  0  0  0  0  0  0  0
  147.8265  140.3082  155.0933 H   0  0  0  0  0  0  0  0  0  0  0  0
  148.5168  141.4889  156.1804 H   0  0  0  0  0  0  0  0  0  0  0  0
  149.7199  140.1319  153.1123 H   0  0  0  0  0  0  0  0  0  0  0  0
  150.3686  138.4340  155.8334 H   0  0  0  0  0  0  0  0  0  0  0  0
  150.1420  138.3967  154.0863 H   0  0  0  0  0  0  0  0  0  0  0  0
  152.6448  138.3231  155.0449 H   0  0  0  0  0  0  0  0  0  0  0  0
  152.3300  139.5157  153.7736 H   0  0  0  0  0  0  0  0  0  0  0  0
  151.5001  141.9993  154.9356 H   0  0  0  0  0  0  0  0  0  0  0  0
  150.1903  142.5187  157.0234 H   0  0  0  0  0  0  0  0  0  0  0  0
  151.9023  142.2978  157.3467 H   0  0  0  0  0  0  0  0  0  0  0  0
  150.7708  141.0136  157.7456 H   0  0  0  0  0  0  0  0  0  0  0  0
  148.6224  135.5859  162.4708 H   0  0  0  0  0  0  0  0  0  0  0  0
  147.7147  135.9989  163.9161 H   0  0  0  0  0  0  0  0  0  0  0  0
  147.8378  137.1488  162.5988 H   0  0  0  0  0  0  0  0  0  0  0  0
  147.3660  133.5118  162.1713 H   0  0  0  0  0  0  0  0  0  0  0  0
  145.6164  133.4792  162.0833 H   0  0  0  0  0  0  0  0  0  0  0  0
  146.4105  133.8241  163.6108 H   0  0  0  0  0  0  0  0  0  0  0  0
  1  2  1  0  0  0  0
  1 29  1  0  0  0  0
  1 30  1  0  0  0  0
  1 31  1  0  0  0  0
  2  3  1  0  0  0  0
  2 32  1  0  0  0  0
  2 33  1  0  0  0  0
  3  4  1  0  0  0  0
  4 26  1  0  0  0  0
  4  5  1  0  0  0  0
  4 34  1  0  0  0  0
  5  6  1  0  0  0  0
  5 35  1  0  0  0  0
  5 36  1  0  0  0  0
  6  7  1  0  0  0  0
  6 26  1  0  0  0  0
  6 37  1  0  0  0  0
  7  8  1  0  0  0  0
  7  9  1  0  0  0  0
  8 38  1  0  0  0  0
  8 39  1  0  0  0  0
  8 40  1  0  0  0  0
  9 14  1  0  0  0  0
  9 10  2  0  0  0  0
 10 11  1  0  0  0  0
 11 12  2  0  0  0  0
 11 41  1  0  0  0  0
 12 13  1  0  0  0  0
 13 17  1  0  0  0  0
 13 14  2  0  0  0  0
 14 15  1  0  0  0  0
 15 16  2  0  0  0  0
 16 17  1  0  0  0  0
 16 42  1  0  0  0  0
 17 18  1  0  0  0  0
 18 19  1  0  0  0  0
 18 43  1  0  0  0  0
 18 44  1  0  0  0  0
 19 24  1  0  0  0  0
 19 20  1  0  0  0  0
 19 21  1  0  0  0  0
 20 45  1  0  0  0  0
 21 22  1  0  0  0  0
 21 46  1  0  0  0  0
 21 47  1  0  0  0  0
 22 23  1  0  0  0  0
 22 48  1  0  0  0  0
 22 49  1  0  0  0  0
 23 24  1  0  0  0  0
 24 25  1  0  0  0  0
 24 50  1  0  0  0  0
 25 51  1  0  0  0  0
 25 52  1  0  0  0  0
 25 53  1  0  0  0  0
 26 27  1  0  0  0  0
 26 28  1  0  0  0  0
 27 54  1  0  0  0  0
 27 55  1  0  0  0  0
 27 56  1  0  0  0  0
 28 57  1  0  0  0  0
 28 58  1  0  0  0  0
 28 59  1  0  0  0  0
M  END
> <s_m_source_file>
AV-unprocessed.smi

> <i_m_source_file_index>
234

> <i_lp_mmshare_version>
43012

> <i_f3d_flags>
0

> <s_epik_input>
W0NIM11bQ0gyXU9bQ0BASF0oQzEoW0NIM10pW0NIM10pW0NIMl1bQ0BIXTFOKFtDSDNdKWMobltjSF1uMiljKGMyMyluW2NIXW4zW0NIMl1bQ0BAXTQoW09IXSlbQ0gyXVtDSDJdT1tDQEhdNFtDSDNd

> <s_epik_cmdline>
J2VwaWtfcHl0aG9uJywgJy1waCcsICc3LjAnLCAnLXRuJywgJzgnLCAnLW1hJywgJzIwMCcsICctbWV0YWxfYmluZGluZycsICctaW1hZScsICc8aW5maWxlLm1hZT4nLCAnLW9tYWUnLCAnPG91dGZpbGUubWFlPic=

> <r_lp_tautomer_probability>
1

> <r_epik_Ionization_Penalty>
0.00349132

> <r_epik_Ionization_Penalty_Charging>
0

> <r_epik_Ionization_Penalty_Neutral>
0.00349132

> <r_epik_State_Penalty>
0.00242418

> <r_epik_Charging_Adjusted_Penalty>
0.00242418

> <i_epik_Tot_Q>
0

> <i_epik_Tot_abs_Q>
0

> <r_epik_Metal_State_Penalty>
-0

> <b_epik_Metal_Only>
0

> <s_lp_Force_Field>
OPLS_2005

> <r_lp_Energy>
49.2938

> <b_lp_Chiralities_Consistent>
1

> <s_lp_Variant>
AV-unprocessed.smi:234-13

> <Gold.Version>
5.8.1

> <Gold.Id.Protein>
6NUR|6NUR_protein|mol2

> <Gold.PLP.Fitness>
44.6235

> <Gold.PLP.PLP>
-39.1588

> <Gold.PLP.part.hbond>
-4.8546

> <Gold.PLP.part.metal>
0.0000

> <Gold.PLP.part.buried>
-1.5710

> <Gold.PLP.part.nonpolar>
-29.8363

> <Gold.PLP.part.repulsive>
0.0403

> <Gold.PLP.ligand.clash>
0.2007

> <Gold.PLP.ligand.torsion>
1.2427

> <Gold.PLP.Chemscore.Hbond>
2.3249

> <Gold.PLP.Chemscore.CHOScore>
0.0000

> <Gold.PLP.Chemscore.Metal>
0.0000

> <Gold.Chemscore.Hbonds>
donor molecule, donor type, donor heavy atom, donor atom, acceptor molecule, acceptor atom, score
      L1  H    20    45       P1  7957  0.61
      P1  H  7989  7998       L1    20  0.10
      P1  H  7997  8008       L1    23  0.78
      P1  H  8011  8017       L1    20  0.95

> <Gold.PLP.Chemscore.Internal.Correction>
1.1761

> <Gold.Rescore>
     Score         DG    S(hbond)    S(metal)    S(lipo)     H(rot)  DE(clash)    DE(int)     intcor
     12.54     -15.34       1.57        0.00      96.82       2.62       0.30       2.50       ----

> <Gold.Chemscore.Fitness>
12.5388

> <Gold.Chemscore.DG>
-15.3437

> <Gold.Chemscore.ZeroCoef>
-5.4800

> <Gold.Chemscore.Hbond>
1.5713

> <Gold.Chemscore.Metal>
0.0000

> <Gold.Chemscore.Lipo>
96.8169

> <Gold.Chemscore.Internal_Hbond>
0.0000

> <Gold.Chemscore.DEClash>
0.3036

> <Gold.Chemscore.DEInternal>
2.5012

> <Gold.Chemscore.Rot>
2.6219

> <Gold.Chemscore.Internal.Correction>
   9.000000E+99

> <Gold.Chemscore.Hbonds>
donor molecule, donor type, donor heavy atom, donor atom, acceptor molecule, acceptor atom, score
      L1  H    20    45       P1  7957  0.61
      P1  H  7997  8008       L1    23  0.38
      P1  H  8011  8017       L1    20  0.22

> <Gold.Chemscore.Hbond.Weighted>
-5.2482

> <Gold.Chemscore.Metal.Weighted>
-0.0000

> <Gold.Chemscore.Lipo.Weighted>
-11.3276

> <Gold.Chemscore.Internal_Hbond.Weighted>
0.0000

> <Gold.Chemscore.DEClash.Weighted>
0.3036

> <Gold.Chemscore.DEInternal.Weighted>
2.5012

> <Gold.Chemscore.Rot.Weighted>
6.7121

> <Gold.Chemscore.Internal.Correction.Weighted>
   9.000000E+99

> <Gold.Protein.RotatedTorsions>
[ 6907 6896 6895 6894 ] final   69.97 input  -60.11 | X-H torsion
[ 7974 7965 7964 7962 ] final   14.25 input  175.53 | X-H torsion
[ 8008 7997 7996 7995 ] final  -30.26 input   59.86 | X-H torsion
[ 10167 10162 10161 10158 ] final  156.16 input  -65.29 | X-H torsion
[ 10718 10713 10712 10709 ] final  -86.35 input   66.30 | X-H torsion
[ 10763 10752 10751 10750 ] final  168.90 input  -60.55 | X-H torsion
[ 11005 11000 10999 10996 ] final   74.37 input  -57.11 | X-H torsion

> <Gold.Protein.ActiveResidues>
 VAL166  LYS551  ARG553  GLY616  TRP617  ASP618  TYR619  PRO620  LYS621  CYS622 
 ASP623  PHE694  ASN695  SER759  ASP760  ASP761  ALA762  ILE779  LEU786  VAL792 
 PHE793  MET794  SER795  GLU796  ALA797  LYS798  CYS799  TRP800  GLU811  SER814 

> <Gold.Protein.RotatedAtoms>
  152.4720  134.4937  159.9702 H   0  0  0  0  0  0  0  0  0  0  0  0  # atno 6907 bound_to 6896
  151.4961  133.3508  159.2869 H   0  0  0  0  0  0  0  0  0  0  0  0  # atno 6908 bound_to 6896
  150.8736  134.8142  159.7234 H   0  0  0  0  0  0  0  0  0  0  0  0  # atno 6909 bound_to 6896
  146.2309  139.9069  142.8530 H   0  0  0  0  0  0  0  0  0  0  0  0  # atno 7974 bound_to 7965
  154.4257  140.1796  156.1379 H   0  0  0  0  0  0  0  0  0  0  0  0  # atno 8008 bound_to 7997
  156.0015  140.3359  155.6826 H   0  0  0  0  0  0  0  0  0  0  0  0  # atno 8009 bound_to 7997
  155.6235  140.0662  157.2661 H   0  0  0  0  0  0  0  0  0  0  0  0  # atno 8010 bound_to 7997
  139.4821  144.5034  151.8134 H   0  0  0  0  0  0  0  0  0  0  0  0  # atno 10167 bound_to 10162
  155.9990  130.4762  150.4701 H   0  0  0  0  0  0  0  0  0  0  0  0  # atno 10718 bound_to 10713
  154.3753  135.2753  155.2243 H   0  0  0  0  0  0  0  0  0  0  0  0  # atno 10763 bound_to 10752
  154.4372  135.5963  153.6110 H   0  0  0  0  0  0  0  0  0  0  0  0  # atno 10764 bound_to 10752
  152.9836  135.6010  154.3989 H   0  0  0  0  0  0  0  0  0  0  0  0  # atno 10765 bound_to 10752
  139.9394  134.7427  156.1140 H   0  0  0  0  0  0  0  0  0  0  0  0  # atno 11005 bound_to 11000
  145.2268  140.9957  143.4014 LP  0  0  0  0  0  0  0  0  0  0  0  0  # atno 17320 bound_to 7965
  144.9564  139.4027  143.6377 LP  0  0  0  0  0  0  0  0  0  0  0  0  # atno 17321 bound_to 7965
  140.4529  144.1829  150.5899 LP  0  0  0  0  0  0  0  0  0  0  0  0  # atno 17342 bound_to 10162
  140.4566  143.2465  151.9277 LP  0  0  0  0  0  0  0  0  0  0  0  0  # atno 17343 bound_to 10162
  157.2717  131.0588  151.2255 LP  0  0  0  0  0  0  0  0  0  0  0  0  # atno 17370 bound_to 10713
  157.3333  130.6996  149.6337 LP  0  0  0  0  0  0  0  0  0  0  0  0  # atno 17371 bound_to 10713
  141.1022  133.6673  156.2781 LP  0  0  0  0  0  0  0  0  0  0  0  0  # atno 17394 bound_to 11000
  140.5991  134.5573  157.5514 LP  0  0  0  0  0  0  0  0  0  0  0  0  # atno 17395 bound_to 11000

$$$$
