AV-unprocessed.smi:38|AV-procd|sdf|348|dock1
  -GOLD-   2262016183D 1   1.00000     0.00000
 Structure written by MMmdl.
 27 28  0  0  0  0  0  0  0  0  2 V2000
  153.1358  140.5281  158.8110 O   0  0  0  0  0  0  0  0  0  0  0  0
  152.3583  140.7158  157.8763 C   0  0  0  0  0  0  0  0  0  0  0  0
  152.4096  139.9965  156.7174 N   0  5  0  0  0  0  0  0  0  0  0  0
  151.5439  140.2036  155.6818 C   0  0  0  0  0  0  0  0  0  0  0  0
  151.5985  139.5765  154.6238 O   0  0  0  0  0  0  0  0  0  0  0  0
  150.5343  141.1942  155.8204 N   0  0  0  0  0  0  0  0  0  0  0  0
  149.5765  141.4459  154.6812 C   0  0  2  0  0  0  0  0  0  0  0  0
  148.3363  142.1931  155.1598 C   0  0  0  0  0  0  0  0  0  0  0  0
  147.2529  141.6534  154.2313 C   0  0  2  0  0  0  0  0  0  0  0  0
  146.1188  141.2649  154.9846 O   0  0  0  0  0  0  0  0  0  0  0  0
  147.9267  140.4939  153.4589 C   0  0  2  0  0  0  0  0  0  0  0  0
  147.1005  139.2024  153.3120 C   0  0  0  0  0  0  0  0  0  0  0  0
  147.5629  138.4513  152.2096 O   0  0  0  0  0  0  0  0  0  0  0  0
  149.1167  140.2309  154.1909 O   0  0  0  0  0  0  0  0  0  0  0  0
  150.4704  141.9536  156.9762 C   0  0  0  0  0  0  0  0  0  0  0  0
  151.3327  141.7510  157.9933 C   0  0  0  0  0  0  0  0  0  0  0  0
  151.2481  142.5047  159.1033 F   0  0  0  0  0  0  0  0  0  0  0  0
  150.1273  141.9606  153.8914 H   0  0  0  0  0  0  0  0  0  0  0  0
  146.9393  142.4250  153.5273 H   0  0  0  0  0  0  0  0  0  0  0  0
  148.2107  140.8677  152.4730 H   0  0  0  0  0  0  0  0  0  0  0  0
  148.1363  141.9316  156.2008 H   0  0  0  0  0  0  0  0  0  0  0  0
  148.4825  143.2713  155.0872 H   0  0  0  0  0  0  0  0  0  0  0  0
  146.4019  141.0304  155.8550 H   0  0  0  0  0  0  0  0  0  0  0  0
  147.1363  138.6033  154.2224 H   0  0  0  0  0  0  0  0  0  0  0  0
  146.0547  139.4391  153.1156 H   0  0  0  0  0  0  0  0  0  0  0  0
  148.2559  138.9346  151.7865 H   0  0  0  0  0  0  0  0  0  0  0  0
  149.7243  142.7286  157.0714 H   0  0  0  0  0  0  0  0  0  0  0  0
  1  2  2  0  0  0  0
  2 16  1  0  0  0  0
  2  3  1  0  0  0  0
  3  4  1  0  0  0  0
  4  5  2  0  0  0  0
  4  6  1  0  0  0  0
  6  7  1  0  0  0  0
  6 15  1  0  0  0  0
  7 18  1  0  0  0  0
  7 14  1  0  0  0  0
  7  8  1  0  0  0  0
  8  9  1  0  0  0  0
  8 21  1  0  0  0  0
  8 22  1  0  0  0  0
  9 19  1  0  0  0  0
  9 10  1  0  0  0  0
  9 11  1  0  0  0  0
 10 23  1  0  0  0  0
 11 20  1  0  0  0  0
 11 12  1  0  0  0  0
 11 14  1  0  0  0  0
 12 13  1  0  0  0  0
 12 24  1  0  0  0  0
 12 25  1  0  0  0  0
 13 26  1  0  0  0  0
 15 16  2  0  0  0  0
 15 27  1  0  0  0  0
 16 17  1  0  0  0  0
M  CHG  1   3  -1
M  END
> <s_m_source_file>
AV-unprocessed.smi

> <i_m_source_file_index>
38

> <i_lp_mmshare_version>
43012

> <i_f3d_flags>
0

> <s_epik_input>
Tz1jMVtuSF1jKD1PKW4oW2NIXWMxRilbQ0BIXTJbQ0gyXVtDQEhdKFtPSF0pW0NASF0oTzIpW0NIMl1bT0hd

> <s_epik_cmdline>
J2VwaWtfcHl0aG9uJywgJy1waCcsICc3LjAnLCAnLXRuJywgJzgnLCAnLW1hJywgJzIwMCcsICctbWV0YWxfYmluZGluZycsICctaW1hZScsICc8aW5maWxlLm1hZT4nLCAnLW9tYWUnLCAnPG91dGZpbGUubWFlPic=

> <r_epik_Ionization_Penalty>
1.68146

> <r_epik_Ionization_Penalty_Charging>
3.4211e-08

> <r_epik_Ionization_Penalty_Neutral>
1.68146

> <r_epik_State_Penalty>
1.78593

> <r_epik_Charging_Adjusted_Penalty>
1.78593

> <i_epik_Tot_Q>
-1

> <i_epik_Tot_abs_Q>
1

> <r_epik_Metal_State_Penalty>
0.0113696

> <b_epik_Metal_Only>
0

> <s_epik_Chemistry_Notes>
This compound contains an acetal/aminal-like group ( X-CH(R)-Y where X, Y are N, S, or O) that may be acid/base labile, releasing an aldehyde.

> <s_lp_Force_Field>
OPLS_2005

> <r_lp_Energy>
42.0277

> <b_lp_Chiralities_Consistent>
1

> <s_lp_Variant>
AV-unprocessed.smi:38-14

> <Gold.Version>
5.8.1

> <Gold.Id.Protein>
6NUR|6NUR_protein|mol2

> <Gold.PLP.Fitness>
41.1129

> <Gold.PLP.PLP>
-27.5035

> <Gold.PLP.part.hbond>
-4.0000

> <Gold.PLP.part.metal>
0.0000

> <Gold.PLP.part.buried>
2.0753

> <Gold.PLP.part.nonpolar>
-25.7626

> <Gold.PLP.part.repulsive>
0.2826

> <Gold.PLP.ligand.clash>
0.0000

> <Gold.PLP.ligand.torsion>
0.7062

> <Gold.PLP.Chemscore.Hbond>
4.0000

> <Gold.PLP.Chemscore.CHOScore>
1.0000

> <Gold.PLP.Chemscore.Metal>
0.0000

> <Gold.Chemscore.Hbonds>
donor molecule, donor type, donor heavy atom, donor atom, acceptor molecule, acceptor atom, score
      L1  H    13    26       P1  7957  1.00
      P1  H  7989  7998       L1     5  1.00
      P1  H  7997  8008       L1     3  1.70
      L1  C    15    27       P1  8028  0.88

> <Gold.PLP.Chemscore.Internal.Correction>
0.0216

> <Gold.Rescore>
     Score         DG    S(hbond)    S(metal)    S(lipo)     H(rot)  DE(clash)    DE(int)     intcor
      7.11     -11.33       2.64        0.00      37.50       2.88       2.06       2.15       ----

> <Gold.Chemscore.Fitness>
7.1122

> <Gold.Chemscore.DG>
-11.3257

> <Gold.Chemscore.ZeroCoef>
-5.4800

> <Gold.Chemscore.Hbond>
2.6450

> <Gold.Chemscore.Metal>
0.0000

> <Gold.Chemscore.Lipo>
37.5037

> <Gold.Chemscore.Internal_Hbond>
0.0000

> <Gold.Chemscore.DEClash>
2.0599

> <Gold.Chemscore.DEInternal>
2.1536

> <Gold.Chemscore.Rot>
2.8815

> <Gold.Chemscore.Internal.Correction>
   9.000000E+99

> <Gold.Chemscore.Hbonds>
donor molecule, donor type, donor heavy atom, donor atom, acceptor molecule, acceptor atom, score
      L1  H    13    26       P1  7957  0.91
      P1  H  7989  7998       L1     5  0.30
      P1  H  7997  8008       L1     3  0.14

> <Gold.Chemscore.Hbond.Weighted>
-8.8343

> <Gold.Chemscore.Metal.Weighted>
-0.0000

> <Gold.Chemscore.Lipo.Weighted>
-4.3879

> <Gold.Chemscore.Internal_Hbond.Weighted>
0.0000

> <Gold.Chemscore.DEClash.Weighted>
2.0599

> <Gold.Chemscore.DEInternal.Weighted>
2.1536

> <Gold.Chemscore.Rot.Weighted>
7.3765

> <Gold.Chemscore.Internal.Correction.Weighted>
   9.000000E+99

> <Gold.Protein.RotatedTorsions>
[ 6907 6896 6895 6894 ] final -134.45 input  -60.11 | X-H torsion
[ 7974 7965 7964 7962 ] final  111.52 input  175.53 | X-H torsion
[ 8008 7997 7996 7995 ] final  -47.35 input   59.86 | X-H torsion
[ 10167 10162 10161 10158 ] final   60.36 input  -65.29 | X-H torsion
[ 10718 10713 10712 10709 ] final  171.71 input   66.30 | X-H torsion
[ 10763 10752 10751 10750 ] final  123.15 input  -60.55 | X-H torsion
[ 11005 11000 10999 10996 ] final    9.61 input  -57.11 | X-H torsion

> <Gold.Protein.ActiveResidues>
 VAL166  LYS551  ARG553  GLY616  TRP617  ASP618  TYR619  PRO620  LYS621  CYS622 
 ASP623  PHE694  ASN695  SER759  ASP760  ASP761  ALA762  ILE779  LEU786  VAL792 
 PHE793  MET794  SER795  GLU796  ALA797  LYS798  CYS799  TRP800  GLU811  SER814 

> <Gold.Protein.RotatedAtoms>
  150.9860  133.6197  159.2715 H   0  0  0  0  0  0  0  0  0  0  0  0  # atno 6907 bound_to 6896
  151.3435  135.0868  159.9388 H   0  0  0  0  0  0  0  0  0  0  0  0  # atno 6908 bound_to 6896
  152.5231  133.9467  159.7706 H   0  0  0  0  0  0  0  0  0  0  0  0  # atno 6909 bound_to 6896
  145.2412  139.2778  143.4116 H   0  0  0  0  0  0  0  0  0  0  0  0  # atno 7974 bound_to 7965
  154.4016  140.1348  156.4161 H   0  0  0  0  0  0  0  0  0  0  0  0  # atno 8008 bound_to 7997
  155.7687  140.3484  155.5215 H   0  0  0  0  0  0  0  0  0  0  0  0  # atno 8009 bound_to 7997
  155.8788  140.0984  157.1490 H   0  0  0  0  0  0  0  0  0  0  0  0  # atno 8010 bound_to 7997
  140.1664  144.4320  150.6683 H   0  0  0  0  0  0  0  0  0  0  0  0  # atno 10167 bound_to 10162
  156.9896  131.0143  151.2860 H   0  0  0  0  0  0  0  0  0  0  0  0  # atno 10718 bound_to 10713
  153.6409  135.3379  155.3071 H   0  0  0  0  0  0  0  0  0  0  0  0  # atno 10763 bound_to 10752
  154.8559  135.4318  154.2005 H   0  0  0  0  0  0  0  0  0  0  0  0  # atno 10764 bound_to 10752
  153.2924  135.7018  153.7354 H   0  0  0  0  0  0  0  0  0  0  0  0  # atno 10765 bound_to 10752
  140.5238  134.0533  155.7852 H   0  0  0  0  0  0  0  0  0  0  0  0  # atno 11005 bound_to 11000
  146.3328  140.2776  142.8609 LP  0  0  0  0  0  0  0  0  0  0  0  0  # atno 17320 bound_to 7965
  144.9587  140.8253  143.5527 LP  0  0  0  0  0  0  0  0  0  0  0  0  # atno 17321 bound_to 7965
  140.6610  143.2252  151.5856 LP  0  0  0  0  0  0  0  0  0  0  0  0  # atno 17342 bound_to 10162
  139.5357  144.2786  152.1247 LP  0  0  0  0  0  0  0  0  0  0  0  0  # atno 17343 bound_to 10162
  157.5468  130.8156  149.8096 LP  0  0  0  0  0  0  0  0  0  0  0  0  # atno 17370 bound_to 10713
  156.0212  130.3795  150.1956 LP  0  0  0  0  0  0  0  0  0  0  0  0  # atno 17371 bound_to 10713
  141.1319  133.9287  157.2516 LP  0  0  0  0  0  0  0  0  0  0  0  0  # atno 17394 bound_to 11000
  139.9591  135.0158  156.9212 LP  0  0  0  0  0  0  0  0  0  0  0  0  # atno 17395 bound_to 11000

$$$$
