AV-unprocessed.smi:1335|AV-procd|sdf|5495|dock3
  -GOLD-   22720 5 73D 1   1.00000     0.00000
 Structure written by MMmdl.
 47 49  0  0  0  0  0  0  0  0  1 V2000
  145.0817  141.3769  158.6958 C   0  0  0  0  0  0  0  0  0  0  0  0
  145.7481  141.2488  157.4484 O   0  0  0  0  0  0  0  0  0  0  0  0
  145.2845  141.9844  156.3768 C   0  0  0  0  0  0  0  0  0  0  0  0
  144.2449  142.9444  156.4807 C   0  0  0  0  0  0  0  0  0  0  0  0
  143.8075  143.6552  155.3469 C   0  0  0  0  0  0  0  0  0  0  0  0
  144.3982  143.4170  154.0940 C   0  0  0  0  0  0  0  0  0  0  0  0
  145.4306  142.4696  153.9779 C   0  0  0  0  0  0  0  0  0  0  0  0
  145.8779  141.7573  155.1102 C   0  0  0  0  0  0  0  0  0  0  0  0
  146.9994  140.7437  154.9337 C   0  0  0  0  0  0  0  0  0  0  0  0
  148.2087  141.1551  155.5519 O   0  0  0  0  0  0  0  0  0  0  0  0
  149.3783  140.7458  154.8572 C   0  0  0  0  0  0  0  0  0  0  0  0
  150.5576  140.7601  155.8402 C   0  0  1  0  0  0  0  0  0  0  0  0
  151.6908  140.2731  155.1505 O   0  0  0  0  0  0  0  0  0  0  0  0
  150.8629  142.1815  156.3585 C   0  0  0  0  0  0  0  0  0  0  0  0
  151.5701  142.1419  157.6355 N   0  0  0  0  0  0  0  0  0  0  0  0
  152.4277  141.1808  158.0508 C   0  0  0  0  0  0  0  0  0  0  0  0
  152.7562  140.1819  157.4112 O   0  0  0  0  0  0  0  0  0  0  0  0
  152.8443  141.5023  159.2980 N   0  0  0  0  0  0  0  0  0  0  0  0
  153.7705  140.7489  160.1346 C   0  0  0  0  0  0  0  0  0  0  0  0
  152.2142  142.6862  159.7023 C   0  0  0  0  0  0  0  0  0  0  0  0
  152.2939  143.4099  160.9042 C   0  0  0  0  0  0  0  0  0  0  0  0
  151.5098  144.5833  161.0042 C   0  0  0  0  0  0  0  0  0  0  0  0
  150.6814  144.9984  159.9289 C   0  0  0  0  0  0  0  0  0  0  0  0
  150.6192  144.2494  158.7303 C   0  0  0  0  0  0  0  0  0  0  0  0
  151.4106  143.0896  158.6567 C   0  0  0  0  0  0  0  0  0  0  0  0
  145.5533  140.7172  159.4239 H   0  0  0  0  0  0  0  0  0  0  0  0
  144.0330  141.0859  158.6194 H   0  0  0  0  0  0  0  0  0  0  0  0
  145.1491  142.3947  159.0819 H   0  0  0  0  0  0  0  0  0  0  0  0
  143.7623  143.1554  157.4225 H   0  0  0  0  0  0  0  0  0  0  0  0
  143.0155  144.3834  155.4398 H   0  0  0  0  0  0  0  0  0  0  0  0
  144.0607  143.9603  153.2235 H   0  0  0  0  0  0  0  0  0  0  0  0
  145.8815  142.2879  153.0131 H   0  0  0  0  0  0  0  0  0  0  0  0
  146.6860  139.8154  155.4123 H   0  0  0  0  0  0  0  0  0  0  0  0
  147.1686  140.4927  153.8861 H   0  0  0  0  0  0  0  0  0  0  0  0
  149.2214  139.7397  154.4649 H   0  0  0  0  0  0  0  0  0  0  0  0
  149.5885  141.3986  154.0087 H   0  0  0  0  0  0  0  0  0  0  0  0
  150.3371  140.0800  156.6645 H   0  0  0  0  0  0  0  0  0  0  0  0
  151.6426  139.3295  155.1224 H   0  0  0  0  0  0  0  0  0  0  0  0
  151.4209  142.7637  155.6228 H   0  0  0  0  0  0  0  0  0  0  0  0
  149.9354  142.7341  156.5122 H   0  0  0  0  0  0  0  0  0  0  0  0
  153.2299  140.2575  160.9441 H   0  0  0  0  0  0  0  0  0  0  0  0
  154.5137  141.4152  160.5737 H   0  0  0  0  0  0  0  0  0  0  0  0
  154.3029  139.9839  159.5679 H   0  0  0  0  0  0  0  0  0  0  0  0
  152.9238  143.0853  161.7189 H   0  0  0  0  0  0  0  0  0  0  0  0
  151.5412  145.1691  161.9111 H   0  0  0  0  0  0  0  0  0  0  0  0
  150.0898  145.8965  160.0271 H   0  0  0  0  0  0  0  0  0  0  0  0
  149.9877  144.5596  157.9110 H   0  0  0  0  0  0  0  0  0  0  0  0
  1  2  1  0  0  0  0
  1 26  1  0  0  0  0
  1 27  1  0  0  0  0
  1 28  1  0  0  0  0
  2  3  1  0  0  0  0
  3  8  1  0  0  0  0
  3  4  2  0  0  0  0
  4  5  1  0  0  0  0
  4 29  1  0  0  0  0
  5  6  2  0  0  0  0
  5 30  1  0  0  0  0
  6  7  1  0  0  0  0
  6 31  1  0  0  0  0
  7  8  2  0  0  0  0
  7 32  1  0  0  0  0
  8  9  1  0  0  0  0
  9 10  1  0  0  0  0
  9 33  1  0  0  0  0
  9 34  1  0  0  0  0
 10 11  1  0  0  0  0
 11 12  1  0  0  0  0
 11 35  1  0  0  0  0
 11 36  1  0  0  0  0
 12 13  1  0  0  0  0
 12 14  1  0  0  0  0
 12 37  1  0  0  0  0
 13 38  1  0  0  0  0
 14 15  1  0  0  0  0
 14 39  1  0  0  0  0
 14 40  1  0  0  0  0
 15 25  1  0  0  0  0
 15 16  1  0  0  0  0
 16 17  2  0  0  0  0
 16 18  1  0  0  0  0
 18 19  1  0  0  0  0
 18 20  1  0  0  0  0
 19 41  1  0  0  0  0
 19 42  1  0  0  0  0
 19 43  1  0  0  0  0
 20 25  2  0  0  0  0
 20 21  1  0  0  0  0
 21 22  2  0  0  0  0
 21 44  1  0  0  0  0
 22 23  1  0  0  0  0
 22 45  1  0  0  0  0
 23 24  2  0  0  0  0
 23 46  1  0  0  0  0
 24 25  1  0  0  0  0
 24 47  1  0  0  0  0
M  END
> <s_m_source_file>
AV-unprocessed.smi

> <i_m_source_file_index>
1335

> <i_lp_mmshare_version>
43012

> <i_f3d_flags>
0

> <s_epik_input>
W0NIM11PYzFbY0hdW2NIXVtjSF1bY0hdYzFbQ0gyXU9bQ0gyXVtDQEhdKFtPSF0pW0NIMl1uKGMoPU8pbjJbQ0gzXSljKGMyMylbY0hdW2NIXVtjSF1bY0hdMw==

> <s_epik_cmdline>
J2VwaWtfcHl0aG9uJywgJy1waCcsICc3LjAnLCAnLXRuJywgJzgnLCAnLW1hJywgJzIwMCcsICctbWV0YWxfYmluZGluZycsICctaW1hZScsICc8aW5maWxlLm1hZT4nLCAnLW9tYWUnLCAnPG91dGZpbGUubWFlPic=

> <r_lp_tautomer_probability>
1

> <r_epik_Ionization_Penalty>
1.07897e-06

> <r_epik_Ionization_Penalty_Charging>
2.2947e-09

> <r_epik_Ionization_Penalty_Neutral>
1.07667e-06

> <r_epik_State_Penalty>
-0

> <r_epik_Charging_Adjusted_Penalty>
2.2947e-09

> <i_epik_Tot_Q>
0

> <i_epik_Tot_abs_Q>
0

> <r_epik_Metal_State_Penalty>
-0

> <b_epik_Metal_Only>
0

> <s_lp_Force_Field>
OPLS_2005

> <r_lp_Energy>
49.5291

> <b_lp_Chiralities_Consistent>
1

> <s_lp_Variant>
AV-unprocessed.smi:1335-2

> <Gold.Version>
5.8.1

> <Gold.Id.Protein>
6NUR|6NUR_protein|mol2

> <Gold.PLP.Fitness>
59.2927

> <Gold.PLP.PLP>
-55.2591

> <Gold.PLP.part.hbond>
-2.0000

> <Gold.PLP.part.metal>
0.0000

> <Gold.PLP.part.buried>
-10.2160

> <Gold.PLP.part.nonpolar>
-42.2404

> <Gold.PLP.part.repulsive>
0.2773

> <Gold.PLP.ligand.clash>
0.0000

> <Gold.PLP.ligand.torsion>
1.0693

> <Gold.PLP.Chemscore.Hbond>
1.9833

> <Gold.PLP.Chemscore.CHOScore>
0.0000

> <Gold.PLP.Chemscore.Metal>
0.0000

> <Gold.Chemscore.Hbonds>
donor molecule, donor type, donor heavy atom, donor atom, acceptor molecule, acceptor atom, score
      P1  H  7989  7998       L1    13  0.90
      P1  H  7997  8010       L1    17  1.00

> <Gold.PLP.Chemscore.Internal.Correction>
0.2224

> <Gold.Rescore>
     Score         DG    S(hbond)    S(metal)    S(lipo)     H(rot)  DE(clash)    DE(int)     intcor
     15.21     -19.27       1.53        0.00     128.94       2.50       0.35       3.71       ----

> <Gold.Chemscore.Fitness>
15.2083

> <Gold.Chemscore.DG>
-19.2705

> <Gold.Chemscore.ZeroCoef>
-5.4800

> <Gold.Chemscore.Hbond>
1.5312

> <Gold.Chemscore.Metal>
0.0000

> <Gold.Chemscore.Lipo>
128.9418

> <Gold.Chemscore.Internal_Hbond>
0.0000

> <Gold.Chemscore.DEClash>
0.3476

> <Gold.Chemscore.DEInternal>
3.7147

> <Gold.Chemscore.Rot>
2.5038

> <Gold.Chemscore.Internal.Correction>
   9.000000E+99

> <Gold.Chemscore.Hbonds>
donor molecule, donor type, donor heavy atom, donor atom, acceptor molecule, acceptor atom, score
      P1  H  7989  7998       L1    13  0.43
      P1  H  7997  8010       L1    17  0.91

> <Gold.Chemscore.Hbond.Weighted>
-5.1141

> <Gold.Chemscore.Metal.Weighted>
-0.0000

> <Gold.Chemscore.Lipo.Weighted>
-15.0862

> <Gold.Chemscore.Internal_Hbond.Weighted>
0.0000

> <Gold.Chemscore.DEClash.Weighted>
0.3476

> <Gold.Chemscore.DEInternal.Weighted>
3.7147

> <Gold.Chemscore.Rot.Weighted>
6.4098

> <Gold.Chemscore.Internal.Correction.Weighted>
   9.000000E+99

> <Gold.Protein.RotatedTorsions>
[ 6907 6896 6895 6894 ] final   41.31 input  -60.11 | X-H torsion
[ 7974 7965 7964 7962 ] final -133.42 input  175.53 | X-H torsion
[ 8008 7997 7996 7995 ] final   50.46 input   59.86 | X-H torsion
[ 10167 10162 10161 10158 ] final   45.64 input  -65.29 | X-H torsion
[ 10718 10713 10712 10709 ] final   81.61 input   66.30 | X-H torsion
[ 10763 10752 10751 10750 ] final -146.92 input  -60.55 | X-H torsion
[ 11005 11000 10999 10996 ] final  119.04 input  -57.11 | X-H torsion

> <Gold.Protein.ActiveResidues>
 VAL166  LYS551  ARG553  GLY616  TRP617  ASP618  TYR619  PRO620  LYS621  CYS622 
 ASP623  PHE694  ASN695  SER759  ASP760  ASP761  ALA762  ILE779  LEU786  VAL792 
 PHE793  MET794  SER795  GLU796  ALA797  LYS798  CYS799  TRP800  GLU811  SER814 

> <Gold.Protein.RotatedAtoms>
  152.1937  134.8650  160.0514 H   0  0  0  0  0  0  0  0  0  0  0  0  # atno 6907 bound_to 6896
  151.9529  133.3666  159.4015 H   0  0  0  0  0  0  0  0  0  0  0  0  # atno 6908 bound_to 6896
  150.6940  134.4245  159.5264 H   0  0  0  0  0  0  0  0  0  0  0  0  # atno 6909 bound_to 6896
  144.9195  140.6996  143.4974 H   0  0  0  0  0  0  0  0  0  0  0  0  # atno 7974 bound_to 7965
  155.4192  140.3445  155.4270 H   0  0  0  0  0  0  0  0  0  0  0  0  # atno 8008 bound_to 7997
  156.1403  140.1540  156.8962 H   0  0  0  0  0  0  0  0  0  0  0  0  # atno 8009 bound_to 7997
  154.4966  140.0826  156.7689 H   0  0  0  0  0  0  0  0  0  0  0  0  # atno 8010 bound_to 7997
  140.3221  144.2693  150.6181 H   0  0  0  0  0  0  0  0  0  0  0  0  # atno 10167 bound_to 10162
  157.6837  131.0011  150.2252 H   0  0  0  0  0  0  0  0  0  0  0  0  # atno 10718 bound_to 10713
  154.8312  135.3374  154.6737 H   0  0  0  0  0  0  0  0  0  0  0  0  # atno 10763 bound_to 10752
  153.7357  135.6949  153.4983 H   0  0  0  0  0  0  0  0  0  0  0  0  # atno 10764 bound_to 10752
  153.2280  135.4426  155.0515 H   0  0  0  0  0  0  0  0  0  0  0  0  # atno 10765 bound_to 10752
  139.9131  134.9625  156.7594 H   0  0  0  0  0  0  0  0  0  0  0  0  # atno 11005 bound_to 11000
  145.3320  139.1757  143.4532 LP  0  0  0  0  0  0  0  0  0  0  0  0  # atno 17320 bound_to 7965
  146.3198  140.3350  142.8643 LP  0  0  0  0  0  0  0  0  0  0  0  0  # atno 17321 bound_to 7965
  140.5474  143.2212  151.7984 LP  0  0  0  0  0  0  0  0  0  0  0  0  # atno 17342 bound_to 10162
  139.4872  144.4521  151.9641 LP  0  0  0  0  0  0  0  0  0  0  0  0  # atno 17343 bound_to 10162
  156.2896  130.3744  149.7855 LP  0  0  0  0  0  0  0  0  0  0  0  0  # atno 17370 bound_to 10713
  156.5518  130.8345  151.3302 LP  0  0  0  0  0  0  0  0  0  0  0  0  # atno 17371 bound_to 10713
  140.6709  133.9560  155.7856 LP  0  0  0  0  0  0  0  0  0  0  0  0  # atno 17394 bound_to 11000
  141.0578  134.0391  157.3699 LP  0  0  0  0  0  0  0  0  0  0  0  0  # atno 17395 bound_to 11000

$$$$
