AV-unprocessed.smi:1947|AV-procd|sdf|7866|dock4
  -GOLD-   2272010 13D 1   1.00000     0.00000
 Structure written by MMmdl.
 39 40  0  0  0  0  0  0  0  0  1 V2000
  145.9892  142.3771  154.2411 C   0  0  0  0  0  0  0  0  0  0  0  0
  147.4212  142.0467  154.6911 C   0  0  1  0  0  0  0  0  0  0  0  0
  147.4927  141.7476  156.2017 C   0  0  0  0  0  0  0  0  0  0  0  0
  148.9330  141.4510  156.6487 C   0  0  0  0  0  0  0  0  0  0  0  0
  149.5418  140.2969  155.8378 C   0  0  0  0  0  0  0  0  0  0  0  0
  149.4737  140.5778  154.3272 C   0  0  0  0  0  0  0  0  0  0  0  0
  148.0391  140.8956  153.8661 C   0  0  1  0  0  0  0  0  0  0  0  0
  147.2444  139.7277  154.0329 O   0  0  0  0  0  0  0  0  0  0  0  0
  147.0725  138.9648  152.8494 C   0  0  0  0  0  0  0  0  0  0  0  0
  146.1445  137.7799  153.1556 C   0  0  0  0  0  0  0  0  0  0  0  0
  144.7451  138.1913  153.1974 N   0  0  0  0  0  0  0  0  0  0  0  0
  143.7265  137.4256  153.6126 C   0  0  0  0  0  0  0  0  0  0  0  0
  143.8718  136.2887  154.0612 O   0  0  0  0  0  0  0  0  0  0  0  0
  142.5519  138.0584  153.4626 N   0  0  0  0  0  0  0  0  0  0  0  0
  141.2533  137.5611  153.7350 C   0  0  0  0  0  0  0  0  0  0  0  0
  141.1501  136.3900  154.3744 N   0  0  0  0  0  0  0  0  0  0  0  0
  139.8253  136.0233  154.5786 N   0  0  0  0  0  0  0  0  0  0  0  0
  138.9806  136.9343  154.0864 C   0  0  0  0  0  0  0  0  0  0  0  0
  139.7183  138.3321  153.3242 S   0  0  0  0  0  0  0  0  0  0  0  0
  145.3074  141.5497  154.4378 H   0  0  0  0  0  0  0  0  0  0  0  0
  145.9522  142.5909  153.1726 H   0  0  0  0  0  0  0  0  0  0  0  0
  145.6053  143.2521  154.7661 H   0  0  0  0  0  0  0  0  0  0  0  0
  148.0243  142.9367  154.5059 H   0  0  0  0  0  0  0  0  0  0  0  0
  147.1024  142.5937  156.7682 H   0  0  0  0  0  0  0  0  0  0  0  0
  146.8539  140.8966  156.4423 H   0  0  0  0  0  0  0  0  0  0  0  0
  149.5453  142.3455  156.5271 H   0  0  0  0  0  0  0  0  0  0  0  0
  148.9494  141.2073  157.7114 H   0  0  0  0  0  0  0  0  0  0  0  0
  150.5774  140.1371  156.1392 H   0  0  0  0  0  0  0  0  0  0  0  0
  149.0096  139.3721  156.0634 H   0  0  0  0  0  0  0  0  0  0  0  0
  150.1231  141.4214  154.0896 H   0  0  0  0  0  0  0  0  0  0  0  0
  149.8643  139.7247  153.7716 H   0  0  0  0  0  0  0  0  0  0  0  0
  148.0744  141.2001  152.8179 H   0  0  0  0  0  0  0  0  0  0  0  0
  146.6464  139.5828  152.0573 H   0  0  0  0  0  0  0  0  0  0  0  0
  148.0407  138.6056  152.4984 H   0  0  0  0  0  0  0  0  0  0  0  0
  146.2790  136.9912  152.4141 H   0  0  0  0  0  0  0  0  0  0  0  0
  146.4037  137.3477  154.1225 H   0  0  0  0  0  0  0  0  0  0  0  0
  144.5345  139.1126  152.8425 H   0  0  0  0  0  0  0  0  0  0  0  0
  142.5882  138.9963  153.0911 H   0  0  0  0  0  0  0  0  0  0  0  0
  137.9150  136.7821  154.1734 H   0  0  0  0  0  0  0  0  0  0  0  0
  1  2  1  0  0  0  0
  1 20  1  0  0  0  0
  1 21  1  0  0  0  0
  1 22  1  0  0  0  0
  2  7  1  0  0  0  0
  2  3  1  0  0  0  0
  2 23  1  0  0  0  0
  3  4  1  0  0  0  0
  3 24  1  0  0  0  0
  3 25  1  0  0  0  0
  4  5  1  0  0  0  0
  4 26  1  0  0  0  0
  4 27  1  0  0  0  0
  5  6  1  0  0  0  0
  5 28  1  0  0  0  0
  5 29  1  0  0  0  0
  6  7  1  0  0  0  0
  6 30  1  0  0  0  0
  6 31  1  0  0  0  0
  7  8  1  0  0  0  0
  7 32  1  0  0  0  0
  8  9  1  0  0  0  0
  9 10  1  0  0  0  0
  9 33  1  0  0  0  0
  9 34  1  0  0  0  0
 10 11  1  0  0  0  0
 10 35  1  0  0  0  0
 10 36  1  0  0  0  0
 11 12  1  0  0  0  0
 11 37  1  0  0  0  0
 12 13  2  0  0  0  0
 12 14  1  0  0  0  0
 14 15  1  0  0  0  0
 14 38  1  0  0  0  0
 15 19  1  0  0  0  0
 15 16  2  0  0  0  0
 16 17  1  0  0  0  0
 17 18  2  0  0  0  0
 18 19  1  0  0  0  0
 18 39  1  0  0  0  0
M  END
> <s_m_source_file>
AV-unprocessed.smi

> <i_m_source_file_index>
1947

> <i_lp_mmshare_version>
43012

> <i_f3d_flags>
0

> <s_epik_input>
W0NIM11bQ0BASF0xW0NIMl1bQ0gyXVtDSDJdW0NIMl1bQ0BIXTFPW0NIMl1bQ0gyXVtOSF1DKD1PKVtOSF1jMm5uW2NIXXMy

> <s_epik_cmdline>
J2VwaWtfcHl0aG9uJywgJy1waCcsICc3LjAnLCAnLXRuJywgJzgnLCAnLW1hJywgJzIwMCcsICctbWV0YWxfYmluZGluZycsICctaW1hZScsICc8aW5maWxlLm1hZT4nLCAnLW9tYWUnLCAnPG91dGZpbGUubWFlPic=

> <r_lp_tautomer_probability>
1

> <r_epik_Ionization_Penalty>
0.00220897

> <r_epik_Ionization_Penalty_Charging>
0

> <r_epik_Ionization_Penalty_Neutral>
0.00220897

> <r_epik_State_Penalty>
-0

> <r_epik_Charging_Adjusted_Penalty>
0

> <i_epik_Tot_Q>
0

> <i_epik_Tot_abs_Q>
0

> <r_epik_Metal_State_Penalty>
0.345002

> <b_epik_Metal_Only>
0

> <s_lp_Force_Field>
OPLS_2005

> <r_lp_Energy>
8.88806

> <b_lp_Chiralities_Consistent>
1

> <s_lp_Variant>
AV-unprocessed.smi:1947-2

> <Gold.Version>
5.8.1

> <Gold.Id.Protein>
6NUR|6NUR_protein|mol2

> <Gold.PLP.Fitness>
39.4242

> <Gold.PLP.PLP>
-31.7652

> <Gold.PLP.part.hbond>
-3.5728

> <Gold.PLP.part.metal>
0.0000

> <Gold.PLP.part.buried>
-3.5212

> <Gold.PLP.part.nonpolar>
-25.6078

> <Gold.PLP.part.repulsive>
0.4190

> <Gold.PLP.ligand.clash>
0.0000

> <Gold.PLP.ligand.torsion>
0.6833

> <Gold.PLP.Chemscore.Hbond>
3.0000

> <Gold.PLP.Chemscore.CHOScore>
0.0000

> <Gold.PLP.Chemscore.Metal>
0.0000

> <Gold.Chemscore.Hbonds>
donor molecule, donor type, donor heavy atom, donor atom, acceptor molecule, acceptor atom, score
      L1  H    11    37       P1 10175  1.00
      L1  H    14    38       P1 10175  0.99
      P1  H 11000 11005       L1    17  1.00

> <Gold.PLP.Chemscore.Internal.Correction>
0.0256

> <Gold.Rescore>
     Score         DG    S(hbond)    S(metal)    S(lipo)     H(rot)  DE(clash)    DE(int)     intcor
     15.45     -18.01       2.85        0.00      68.06       1.94       0.34       2.22       ----

> <Gold.Chemscore.Fitness>
15.4452

> <Gold.Chemscore.DG>
-18.0080

> <Gold.Chemscore.ZeroCoef>
-5.4800

> <Gold.Chemscore.Hbond>
2.8527

> <Gold.Chemscore.Metal>
0.0000

> <Gold.Chemscore.Lipo>
68.0562

> <Gold.Chemscore.Internal_Hbond>
0.0000

> <Gold.Chemscore.DEClash>
0.3406

> <Gold.Chemscore.DEInternal>
2.2222

> <Gold.Chemscore.Rot>
1.9385

> <Gold.Chemscore.Internal.Correction>
   9.000000E+99

> <Gold.Chemscore.Hbonds>
donor molecule, donor type, donor heavy atom, donor atom, acceptor molecule, acceptor atom, score
      L1  H    11    37       P1 10175  0.99
      L1  H    14    38       P1 10175  0.94
      P1  H 11000 11005       L1    17  0.35

> <Gold.Chemscore.Hbond.Weighted>
-9.5280

> <Gold.Chemscore.Metal.Weighted>
-0.0000

> <Gold.Chemscore.Lipo.Weighted>
-7.9626

> <Gold.Chemscore.Internal_Hbond.Weighted>
0.0000

> <Gold.Chemscore.DEClash.Weighted>
0.3406

> <Gold.Chemscore.DEInternal.Weighted>
2.2222

> <Gold.Chemscore.Rot.Weighted>
4.9625

> <Gold.Chemscore.Internal.Correction.Weighted>
   9.000000E+99

> <Gold.Protein.RotatedTorsions>
[ 6907 6896 6895 6894 ] final  113.74 input  -60.11 | X-H torsion
[ 7974 7965 7964 7962 ] final   13.98 input  175.53 | X-H torsion
[ 8008 7997 7996 7995 ] final  -89.93 input   59.86 | X-H torsion
[ 10167 10162 10161 10158 ] final  -19.69 input  -65.29 | X-H torsion
[ 10718 10713 10712 10709 ] final   65.38 input   66.30 | X-H torsion
[ 10763 10752 10751 10750 ] final -161.48 input  -60.55 | X-H torsion
[ 11005 11000 10999 10996 ] final   68.40 input  -57.11 | X-H torsion

> <Gold.Protein.ActiveResidues>
 VAL166  LYS551  ARG553  GLY616  TRP617  ASP618  TYR619  PRO620  LYS621  CYS622 
 ASP623  PHE694  ASN695  SER759  ASP760  ASP761  ALA762  ILE779  LEU786  VAL792 
 PHE793  MET794  SER795  GLU796  ALA797  LYS798  CYS799  TRP800  GLU811  SER814 

> <Gold.Protein.RotatedAtoms>
  152.4843  133.8333  159.7114 H   0  0  0  0  0  0  0  0  0  0  0  0  # atno 6907 bound_to 6896
  150.8917  133.7225  159.2909 H   0  0  0  0  0  0  0  0  0  0  0  0  # atno 6908 bound_to 6896
  151.4695  135.1048  159.9799 H   0  0  0  0  0  0  0  0  0  0  0  0  # atno 6909 bound_to 6896
  146.2316  139.9109  142.8524 H   0  0  0  0  0  0  0  0  0  0  0  0  # atno 7974 bound_to 7965
  154.6924  140.0536  157.0377 H   0  0  0  0  0  0  0  0  0  0  0  0  # atno 8008 bound_to 7997
  155.0798  140.3208  155.4586 H   0  0  0  0  0  0  0  0  0  0  0  0  # atno 8009 bound_to 7997
  156.2733  140.2067  156.5925 H   0  0  0  0  0  0  0  0  0  0  0  0  # atno 8010 bound_to 7997
  140.7270  143.4794  151.0138 H   0  0  0  0  0  0  0  0  0  0  0  0  # atno 10167 bound_to 10162
  157.6101  130.9211  149.9969 H   0  0  0  0  0  0  0  0  0  0  0  0  # atno 10718 bound_to 10713
  154.7300  135.3044  154.8907 H   0  0  0  0  0  0  0  0  0  0  0  0  # atno 10763 bound_to 10752
  153.9753  135.6737  153.4752 H   0  0  0  0  0  0  0  0  0  0  0  0  # atno 10764 bound_to 10752
  153.0910  135.4959  154.8609 H   0  0  0  0  0  0  0  0  0  0  0  0  # atno 10765 bound_to 10752
  139.9713  134.6895  156.0441 H   0  0  0  0  0  0  0  0  0  0  0  0  # atno 11005 bound_to 11000
  145.2231  140.9943  143.4034 LP  0  0  0  0  0  0  0  0  0  0  0  0  # atno 17320 bound_to 7965
  144.9593  139.3997  143.6363 LP  0  0  0  0  0  0  0  0  0  0  0  0  # atno 17321 bound_to 7965
  139.8492  143.7461  152.3178 LP  0  0  0  0  0  0  0  0  0  0  0  0  # atno 17342 bound_to 10162
  139.7637  144.7498  151.0326 LP  0  0  0  0  0  0  0  0  0  0  0  0  # atno 17343 bound_to 10162
  156.1201  130.3646  149.9901 LP  0  0  0  0  0  0  0  0  0  0  0  0  # atno 17370 bound_to 10713
  156.7983  130.9281  151.3646 LP  0  0  0  0  0  0  0  0  0  0  0  0  # atno 17371 bound_to 10713
  141.1393  133.6568  156.3683 LP  0  0  0  0  0  0  0  0  0  0  0  0  # atno 17394 bound_to 11000
  140.5287  134.6234  157.5342 LP  0  0  0  0  0  0  0  0  0  0  0  0  # atno 17395 bound_to 11000

$$$$
