AV-unprocessed.smi:460|AV-procd|sdf|2628|dock1
  -GOLD-   2262023 33D 1   1.00000     0.00000
 Structure written by MMmdl.
 47 49  0  0  0  0  0  0  0  0  2 V2000
  147.3979  140.0093  153.4921 C   0  0  0  0  0  0  0  0  0  0  0  0
  148.5988  140.3706  154.3807 C   0  0  0  0  0  0  0  0  0  0  0  0
  148.2478  141.2516  155.5987 C   0  0  2  0  0  0  0  0  0  0  0  0
  147.8263  142.5142  155.1300 O   0  0  0  0  0  0  0  0  0  0  0  0
  149.3832  141.3808  156.5705 C   0  0  0  0  0  0  0  0  0  0  0  0
  149.9731  142.5491  156.9560 N   0  3  0  0  0  0  0  0  0  0  0  0
  150.9901  142.2891  157.8733 C   0  0  0  0  0  0  0  0  0  0  0  0
  151.8705  143.1477  158.5240 C   0  0  0  0  0  0  0  0  0  0  0  0
  152.7985  142.5538  159.4043 C   0  0  0  0  0  0  0  0  0  0  0  0
  152.8265  141.1590  159.6092 C   0  0  0  0  0  0  0  0  0  0  0  0
  151.9269  140.2993  158.9449 C   0  0  0  0  0  0  0  0  0  0  0  0
  151.0105  140.8948  158.0776 C   0  0  0  0  0  0  0  0  0  0  0  0
  149.9873  140.3771  157.2737 N   0  0  0  0  0  0  0  0  0  0  0  0
  149.7261  138.9292  157.3002 C   0  0  0  0  0  0  0  0  0  0  0  0
  149.2025  138.4486  158.6605 C   0  0  0  0  0  0  0  0  0  0  0  0
  148.9021  137.0638  158.5680 O   0  0  0  0  0  0  0  0  0  0  0  0
  148.2713  136.4544  159.6307 C   0  0  0  0  0  0  0  0  0  0  0  0
  147.6749  137.1685  160.6996 C   0  0  0  0  0  0  0  0  0  0  0  0
  147.0570  136.4803  161.7594 C   0  0  0  0  0  0  0  0  0  0  0  0
  147.0302  135.0754  161.7635 C   0  0  0  0  0  0  0  0  0  0  0  0
  147.6187  134.3572  160.7065 C   0  0  0  0  0  0  0  0  0  0  0  0
  148.2419  135.0406  159.6318 C   0  0  0  0  0  0  0  0  0  0  0  0
  148.8244  134.4036  158.5555 O   0  0  0  0  0  0  0  0  0  0  0  0
  148.7095  132.9919  158.4632 C   0  0  0  0  0  0  0  0  0  0  0  0
  147.7258  139.4710  152.6026 H   0  0  0  0  0  0  0  0  0  0  0  0
  146.8646  140.8983  153.1605 H   0  0  0  0  0  0  0  0  0  0  0  0
  146.6844  139.3721  154.0138 H   0  0  0  0  0  0  0  0  0  0  0  0
  149.0775  139.4489  154.7144 H   0  0  0  0  0  0  0  0  0  0  0  0
  149.3392  140.8898  153.7706 H   0  0  0  0  0  0  0  0  0  0  0  0
  147.3969  140.8031  156.1092 H   0  0  0  0  0  0  0  0  0  0  0  0
  148.4336  143.1673  155.4427 H   0  0  0  0  0  0  0  0  0  0  0  0
  151.8510  144.2161  158.3669 H   0  0  0  0  0  0  0  0  0  0  0  0
  153.5031  143.1801  159.9320 H   0  0  0  0  0  0  0  0  0  0  0  0
  153.5528  140.7394  160.2902 H   0  0  0  0  0  0  0  0  0  0  0  0
  151.9605  139.2326  159.1088 H   0  0  0  0  0  0  0  0  0  0  0  0
  149.0211  138.6825  156.5065 H   0  0  0  0  0  0  0  0  0  0  0  0
  150.6537  138.4147  157.0478 H   0  0  0  0  0  0  0  0  0  0  0  0
  149.9470  138.6328  159.4363 H   0  0  0  0  0  0  0  0  0  0  0  0
  148.3013  139.0078  158.9167 H   0  0  0  0  0  0  0  0  0  0  0  0
  147.6843  138.2471  160.7318 H   0  0  0  0  0  0  0  0  0  0  0  0
  146.6055  137.0315  162.5712 H   0  0  0  0  0  0  0  0  0  0  0  0
  146.5564  134.5472  162.5780 H   0  0  0  0  0  0  0  0  0  0  0  0
  147.5748  133.2794  160.7415 H   0  0  0  0  0  0  0  0  0  0  0  0
  149.2496  132.6465  157.5819 H   0  0  0  0  0  0  0  0  0  0  0  0
  147.6691  132.6823  158.3551 H   0  0  0  0  0  0  0  0  0  0  0  0
  149.1470  132.4980  159.3318 H   0  0  0  0  0  0  0  0  0  0  0  0
  149.7003  143.4574  156.6036 H   0  0  0  0  0  0  0  0  0  0  0  0
  1  2  1  0  0  0  0
  1 25  1  0  0  0  0
  1 26  1  0  0  0  0
  1 27  1  0  0  0  0
  2  3  1  0  0  0  0
  2 28  1  0  0  0  0
  2 29  1  0  0  0  0
  3  4  1  0  0  0  0
  3  5  1  0  0  0  0
  3 30  1  0  0  0  0
  4 31  1  0  0  0  0
  5 13  1  0  0  0  0
  5  6  2  0  0  0  0
  6  7  1  0  0  0  0
  6 47  1  0  0  0  0
  7 12  2  0  0  0  0
  7  8  1  0  0  0  0
  8  9  2  0  0  0  0
  8 32  1  0  0  0  0
  9 10  1  0  0  0  0
  9 33  1  0  0  0  0
 10 11  2  0  0  0  0
 10 34  1  0  0  0  0
 11 12  1  0  0  0  0
 11 35  1  0  0  0  0
 12 13  1  0  0  0  0
 13 14  1  0  0  0  0
 14 15  1  0  0  0  0
 14 36  1  0  0  0  0
 14 37  1  0  0  0  0
 15 16  1  0  0  0  0
 15 38  1  0  0  0  0
 15 39  1  0  0  0  0
 16 17  1  0  0  0  0
 17 22  1  0  0  0  0
 17 18  2  0  0  0  0
 18 19  1  0  0  0  0
 18 40  1  0  0  0  0
 19 20  2  0  0  0  0
 19 41  1  0  0  0  0
 20 21  1  0  0  0  0
 20 42  1  0  0  0  0
 21 22  2  0  0  0  0
 21 43  1  0  0  0  0
 22 23  1  0  0  0  0
 23 24  1  0  0  0  0
 24 44  1  0  0  0  0
 24 45  1  0  0  0  0
 24 46  1  0  0  0  0
M  CHG  1   6   1
M  END
> <s_m_source_file>
AV-unprocessed.smi

> <i_m_source_file_index>
460

> <i_lp_mmshare_version>
43012

> <i_f3d_flags>
0

> <s_epik_input>
W2NIXTFbY0hdW2NIXVtjSF1jKGMxMiluKGMobjIpW0NAQEhdKFtPSF0pW0NIMl1bQ0gzXSlbQ0gyXVtDSDJdT2MzW2NIXVtjSF1bY0hdW2NIXWMzT1tDSDNd

> <s_epik_cmdline>
J2VwaWtfcHl0aG9uJywgJy1waCcsICc3LjAnLCAnLXRuJywgJzgnLCAnLW1hJywgJzIwMCcsICctbWV0YWxfYmluZGluZycsICctaW1hZScsICc8aW5maWxlLm1hZT4nLCAnLW9tYWUnLCAnPG91dGZpbGUubWFlPic=

> <r_lp_tautomer_probability>
1

> <r_epik_Ionization_Penalty>
1.48085

> <r_epik_Ionization_Penalty_Charging>
1.48083

> <r_epik_Ionization_Penalty_Neutral>
1.80167e-05

> <r_epik_State_Penalty>
1.56944

> <r_epik_Charging_Adjusted_Penalty>
3.05027

> <i_epik_Tot_Q>
1

> <i_epik_Tot_abs_Q>
1

> <r_epik_Metal_State_Penalty>
5.61877

> <b_epik_Metal_Only>
0

> <s_lp_Force_Field>
OPLS_2005

> <r_lp_Energy>
23.3046

> <b_lp_Chiralities_Consistent>
1

> <s_lp_Variant>
AV-unprocessed.smi:460-3

> <Gold.Version>
5.8.1

> <Gold.Id.Protein>
6NUR|6NUR_protein|mol2

> <Gold.PLP.Fitness>
47.7447

> <Gold.PLP.PLP>
-37.7761

> <Gold.PLP.part.hbond>
-3.0000

> <Gold.PLP.part.metal>
0.0000

> <Gold.PLP.part.buried>
-3.3492

> <Gold.PLP.part.nonpolar>
-31.9462

> <Gold.PLP.part.repulsive>
0.0177

> <Gold.PLP.ligand.clash>
0.0000

> <Gold.PLP.ligand.torsion>
0.2681

> <Gold.PLP.Chemscore.Hbond>
3.4760

> <Gold.PLP.Chemscore.CHOScore>
0.0000

> <Gold.PLP.Chemscore.Metal>
0.0000

> <Gold.Chemscore.Hbonds>
donor molecule, donor type, donor heavy atom, donor atom, acceptor molecule, acceptor atom, score
      L1  H     4    31       P1  8028  1.00
      L1  H     6    47       P1  8028  2.00
      P1  H  6896  6907       L1    23  0.46

> <Gold.PLP.Chemscore.Internal.Correction>
0.0767

> <Gold.Rescore>
     Score         DG    S(hbond)    S(metal)    S(lipo)     H(rot)  DE(clash)    DE(int)     intcor
     18.26     -18.74       1.96        0.00     110.93       2.45       0.20       0.28       ----

> <Gold.Chemscore.Fitness>
18.2587

> <Gold.Chemscore.DG>
-18.7374

> <Gold.Chemscore.ZeroCoef>
-5.4800

> <Gold.Chemscore.Hbond>
1.9576

> <Gold.Chemscore.Metal>
0.0000

> <Gold.Chemscore.Lipo>
110.9265

> <Gold.Chemscore.Internal_Hbond>
0.0000

> <Gold.Chemscore.DEClash>
0.2024

> <Gold.Chemscore.DEInternal>
0.2763

> <Gold.Chemscore.Rot>
2.4450

> <Gold.Chemscore.Internal.Correction>
   9.000000E+99

> <Gold.Chemscore.Hbonds>
donor molecule, donor type, donor heavy atom, donor atom, acceptor molecule, acceptor atom, score
      L1  H     4    31       P1  8028  0.93
      L1  H     6    47       P1  8028  1.00

> <Gold.Chemscore.Hbond.Weighted>
-6.5383

> <Gold.Chemscore.Metal.Weighted>
-0.0000

> <Gold.Chemscore.Lipo.Weighted>
-12.9784

> <Gold.Chemscore.Internal_Hbond.Weighted>
0.0000

> <Gold.Chemscore.DEClash.Weighted>
0.2024

> <Gold.Chemscore.DEInternal.Weighted>
0.2763

> <Gold.Chemscore.Rot.Weighted>
6.2593

> <Gold.Chemscore.Internal.Correction.Weighted>
   9.000000E+99

> <Gold.Protein.RotatedTorsions>
[ 6907 6896 6895 6894 ] final  -85.29 input  -60.11 | X-H torsion
[ 7974 7965 7964 7962 ] final   17.96 input  175.53 | X-H torsion
[ 8008 7997 7996 7995 ] final   16.21 input   59.86 | X-H torsion
[ 10167 10162 10161 10158 ] final  -60.41 input  -65.29 | X-H torsion
[ 10718 10713 10712 10709 ] final  -34.08 input   66.30 | X-H torsion
[ 10763 10752 10751 10750 ] final  158.76 input  -60.55 | X-H torsion
[ 11005 11000 10999 10996 ] final   80.90 input  -57.11 | X-H torsion

> <Gold.Protein.ActiveResidues>
 VAL166  LYS551  ARG553  GLY616  TRP617  ASP618  TYR619  PRO620  LYS621  CYS622 
 ASP623  PHE694  ASN695  SER759  ASP760  ASP761  ALA762  ILE779  LEU786  VAL792 
 PHE793  MET794  SER795  GLU796  ALA797  LYS798  CYS799  TRP800  GLU811  SER814 

> <Gold.Protein.RotatedAtoms>
  150.6871  134.3227  159.4793 H   0  0  0  0  0  0  0  0  0  0  0  0  # atno 6907 bound_to 6896
  152.1101  134.9278  160.0576 H   0  0  0  0  0  0  0  0  0  0  0  0  # atno 6908 bound_to 6896
  152.0524  133.3990  159.4419 H   0  0  0  0  0  0  0  0  0  0  0  0  # atno 6909 bound_to 6896
  146.2201  139.8526  142.8620 H   0  0  0  0  0  0  0  0  0  0  0  0  # atno 7974 bound_to 7965
  154.8737  140.2962  155.5466 H   0  0  0  0  0  0  0  0  0  0  0  0  # atno 8008 bound_to 7997
  156.3022  140.2455  156.3663 H   0  0  0  0  0  0  0  0  0  0  0  0  # atno 8009 bound_to 7997
  154.8790  140.0398  157.1760 H   0  0  0  0  0  0  0  0  0  0  0  0  # atno 8010 bound_to 7997
  140.6073  143.2377  151.5791 H   0  0  0  0  0  0  0  0  0  0  0  0  # atno 10167 bound_to 10162
  156.3549  130.4314  149.7673 H   0  0  0  0  0  0  0  0  0  0  0  0  # atno 10718 bound_to 10713
  154.2211  135.2782  155.2924 H   0  0  0  0  0  0  0  0  0  0  0  0  # atno 10763 bound_to 10752
  154.5701  135.5621  153.7090 H   0  0  0  0  0  0  0  0  0  0  0  0  # atno 10764 bound_to 10752
  153.0041  135.6319  154.2351 H   0  0  0  0  0  0  0  0  0  0  0  0  # atno 10765 bound_to 10752
  139.9117  134.7956  156.1971 H   0  0  0  0  0  0  0  0  0  0  0  0  # atno 11005 bound_to 11000
  145.2786  141.0131  143.3730 LP  0  0  0  0  0  0  0  0  0  0  0  0  # atno 17320 bound_to 7965
  144.9167  139.4461  143.6561 LP  0  0  0  0  0  0  0  0  0  0  0  0  # atno 17321 bound_to 7965
  139.5334  144.2849  152.1199 LP  0  0  0  0  0  0  0  0  0  0  0  0  # atno 17342 bound_to 10162
  140.2041  144.4628  150.6417 LP  0  0  0  0  0  0  0  0  0  0  0  0  # atno 17343 bound_to 10162
  156.4859  130.8062  151.3075 LP  0  0  0  0  0  0  0  0  0  0  0  0  # atno 17370 bound_to 10713
  157.7466  130.9991  150.2876 LP  0  0  0  0  0  0  0  0  0  0  0  0  # atno 17371 bound_to 10713
  141.0548  133.6871  156.1839 LP  0  0  0  0  0  0  0  0  0  0  0  0  # atno 17394 bound_to 11000
  140.6754  134.4823  157.5588 LP  0  0  0  0  0  0  0  0  0  0  0  0  # atno 17395 bound_to 11000

$$$$
