AV-unprocessed.smi:3314|AV-procd|sdf|12742|dock1
  -GOLD-   2272019 83D 1   1.00000     0.00000
 Structure written by MMmdl.
 38 39  0  0  0  0  0  0  0  0  2 V2000
  153.6176  141.0097  159.5023 C   0  0  0  0  0  0  0  0  0  0  0  0
  152.5908  141.9446  158.8972 C   0  0  0  0  0  0  0  0  0  0  0  0
  152.4623  143.2701  159.3616 C   0  0  0  0  0  0  0  0  0  0  0  0
  151.5020  144.1134  158.7674 C   0  0  0  0  0  0  0  0  0  0  0  0
  151.3081  145.5510  159.2015 C   0  0  0  0  0  0  0  0  0  0  0  0
  150.7204  143.6397  157.7718 N   0  3  0  0  0  0  0  0  0  0  0  0
  150.7923  142.3754  157.2947 C   0  0  0  0  0  0  0  0  0  0  0  0
  149.9099  142.0398  156.2318 N   0  0  0  0  0  0  0  0  0  0  0  0
  150.1125  141.2173  155.1854 C   0  0  0  0  0  0  0  0  0  0  0  0
  151.1463  140.5785  154.9878 O   0  0  0  0  0  0  0  0  0  0  0  0
  148.9341  141.1074  154.2095 C   0  0  1  0  0  0  0  0  0  0  0  0
  148.3832  139.6698  154.0700 C   0  0  0  0  0  0  0  0  0  0  0  0
  147.2286  139.6214  153.1832 N   0  0  0  0  0  0  0  0  0  0  0  0
  146.7129  138.2678  153.0461 C   0  0  0  0  0  0  0  0  0  0  0  0
  146.2054  140.5405  153.6622 C   0  0  0  0  0  0  0  0  0  0  0  0
  146.7520  141.9709  153.8083 C   0  0  0  0  0  0  0  0  0  0  0  0
  147.8894  141.9656  154.6669 O   0  0  0  0  0  0  0  0  0  0  0  0
  151.7535  141.4950  157.8539 C   0  0  0  0  0  0  0  0  0  0  0  0
  154.1716  141.4931  160.3075 H   0  0  0  0  0  0  0  0  0  0  0  0
  154.3311  140.6895  158.7426 H   0  0  0  0  0  0  0  0  0  0  0  0
  153.1291  140.1240  159.9097 H   0  0  0  0  0  0  0  0  0  0  0  0
  153.0937  143.6368  160.1580 H   0  0  0  0  0  0  0  0  0  0  0  0
  151.9719  145.8046  160.0286 H   0  0  0  0  0  0  0  0  0  0  0  0
  150.2807  145.7153  159.5274 H   0  0  0  0  0  0  0  0  0  0  0  0
  151.5204  146.2292  158.3746 H   0  0  0  0  0  0  0  0  0  0  0  0
  148.9845  142.4390  156.2951 H   0  0  0  0  0  0  0  0  0  0  0  0
  149.2784  141.4591  153.2351 H   0  0  0  0  0  0  0  0  0  0  0  0
  149.1651  139.0135  153.6852 H   0  0  0  0  0  0  0  0  0  0  0  0
  148.1066  139.2837  155.0529 H   0  0  0  0  0  0  0  0  0  0  0  0
  145.8729  138.2435  152.3512 H   0  0  0  0  0  0  0  0  0  0  0  0
  146.3720  137.8766  154.0055 H   0  0  0  0  0  0  0  0  0  0  0  0
  147.4822  137.5984  152.6598 H   0  0  0  0  0  0  0  0  0  0  0  0
  145.3585  140.5431  152.9752 H   0  0  0  0  0  0  0  0  0  0  0  0
  145.8247  140.1999  154.6265 H   0  0  0  0  0  0  0  0  0  0  0  0
  147.0257  142.3806  152.8349 H   0  0  0  0  0  0  0  0  0  0  0  0
  145.9899  142.6269  154.2290 H   0  0  0  0  0  0  0  0  0  0  0  0
  151.8762  140.4845  157.4961 H   0  0  0  0  0  0  0  0  0  0  0  0
  150.0355  144.2743  157.3602 H   0  0  0  0  0  0  0  0  0  0  0  0
  1  2  1  0  0  0  0
  1 19  1  0  0  0  0
  1 20  1  0  0  0  0
  1 21  1  0  0  0  0
  2 18  1  0  0  0  0
  2  3  2  0  0  0  0
  3  4  1  0  0  0  0
  3 22  1  0  0  0  0
  4  5  1  0  0  0  0
  4  6  2  0  0  0  0
  5 23  1  0  0  0  0
  5 24  1  0  0  0  0
  5 25  1  0  0  0  0
  6  7  1  0  0  0  0
  6 38  1  0  0  0  0
  7  8  1  0  0  0  0
  7 18  2  0  0  0  0
  8  9  1  0  0  0  0
  8 26  1  0  0  0  0
  9 10  2  0  0  0  0
  9 11  1  0  0  0  0
 11 17  1  0  0  0  0
 11 12  1  0  0  0  0
 11 27  1  0  0  0  0
 12 13  1  0  0  0  0
 12 28  1  0  0  0  0
 12 29  1  0  0  0  0
 13 14  1  0  0  0  0
 13 15  1  0  0  0  0
 14 30  1  0  0  0  0
 14 31  1  0  0  0  0
 14 32  1  0  0  0  0
 15 16  1  0  0  0  0
 15 33  1  0  0  0  0
 15 34  1  0  0  0  0
 16 17  1  0  0  0  0
 16 35  1  0  0  0  0
 16 36  1  0  0  0  0
 18 37  1  0  0  0  0
M  CHG  1   6   1
M  END
> <s_m_source_file>
AV-unprocessed.smi

> <i_m_source_file_index>
3314

> <i_lp_mmshare_version>
43012

> <i_f3d_flags>
0

> <s_epik_input>
W0NIM11jMVtjSF1jKFtDSDNdKW5jKFtjSF0xKVtOSF1DKD1PKVtDQEBIXTJbQ0gyXU4oW0NIM10pW0NIMl1bQ0gyXU8y

> <s_epik_cmdline>
J2VwaWtfcHl0aG9uJywgJy1waCcsICc3LjAnLCAnLXRuJywgJzgnLCAnLW1hJywgJzIwMCcsICctbWV0YWxfYmluZGluZycsICctaW1hZScsICc8aW5maWxlLm1hZT4nLCAnLW9tYWUnLCAnPG91dGZpbGUubWFlPic=

> <r_epik_Ionization_Penalty>
2.57421

> <r_epik_Ionization_Penalty_Charging>
1.80498

> <r_epik_Ionization_Penalty_Neutral>
0.76923

> <r_epik_State_Penalty>
2.63884

> <r_epik_Charging_Adjusted_Penalty>
4.44382

> <i_epik_Tot_Q>
1

> <i_epik_Tot_abs_Q>
1

> <r_epik_Metal_State_Penalty>
6.15142

> <b_epik_Metal_Only>
0

> <s_lp_Force_Field>
OPLS_2005

> <r_lp_Energy>
30.3211

> <b_lp_Chiralities_Consistent>
1

> <s_lp_Variant>
AV-unprocessed.smi:3314-12

> <Gold.Version>
5.8.1

> <Gold.Id.Protein>
6NUR|6NUR_protein|mol2

> <Gold.PLP.Fitness>
42.9723

> <Gold.PLP.PLP>
-34.3191

> <Gold.PLP.part.hbond>
-3.0000

> <Gold.PLP.part.metal>
0.0000

> <Gold.PLP.part.buried>
-0.4669

> <Gold.PLP.part.nonpolar>
-31.0098

> <Gold.PLP.part.repulsive>
0.9135

> <Gold.PLP.ligand.clash>
0.0000

> <Gold.PLP.ligand.torsion>
0.2341

> <Gold.PLP.Chemscore.Hbond>
3.0397

> <Gold.PLP.Chemscore.CHOScore>
0.0000

> <Gold.PLP.Chemscore.Metal>
0.0000

> <Gold.Chemscore.Hbonds>
donor molecule, donor type, donor heavy atom, donor atom, acceptor molecule, acceptor atom, score
      L1  H     6    38       P1  8028  1.69
      L1  H     8    26       P1  8028  0.05
      P1  H  7989  7998       L1    10  0.96

> <Gold.PLP.Chemscore.Internal.Correction>
0.0023

> <Gold.Rescore>
     Score         DG    S(hbond)    S(metal)    S(lipo)     H(rot)  DE(clash)    DE(int)     intcor
     15.10     -17.59       1.10        0.00      93.94       1.00       1.42       1.07       ----

> <Gold.Chemscore.Fitness>
15.1035

> <Gold.Chemscore.DG>
-17.5917

> <Gold.Chemscore.ZeroCoef>
-5.4800

> <Gold.Chemscore.Hbond>
1.1019

> <Gold.Chemscore.Metal>
0.0000

> <Gold.Chemscore.Lipo>
93.9435

> <Gold.Chemscore.Internal_Hbond>
0.0000

> <Gold.Chemscore.DEClash>
1.4210

> <Gold.Chemscore.DEInternal>
1.0671

> <Gold.Chemscore.Rot>
1.0000

> <Gold.Chemscore.Internal.Correction>
   9.000000E+99

> <Gold.Chemscore.Hbonds>
donor molecule, donor type, donor heavy atom, donor atom, acceptor molecule, acceptor atom, score
      L1  H     6    38       P1  8028  0.44
      L1  H     8    26       P1  8028  0.05
      P1  H  7989  7998       L1    10  0.59

> <Gold.Chemscore.Hbond.Weighted>
-3.6803

> <Gold.Chemscore.Metal.Weighted>
-0.0000

> <Gold.Chemscore.Lipo.Weighted>
-10.9914

> <Gold.Chemscore.Internal_Hbond.Weighted>
0.0000

> <Gold.Chemscore.DEClash.Weighted>
1.4210

> <Gold.Chemscore.DEInternal.Weighted>
1.0671

> <Gold.Chemscore.Rot.Weighted>
2.5600

> <Gold.Chemscore.Internal.Correction.Weighted>
   9.000000E+99

> <Gold.Protein.RotatedTorsions>
[ 6907 6896 6895 6894 ] final   77.75 input  -60.11 | X-H torsion
[ 7974 7965 7964 7962 ] final   79.63 input  175.53 | X-H torsion
[ 8008 7997 7996 7995 ] final   52.03 input   59.86 | X-H torsion
[ 10167 10162 10161 10158 ] final   91.56 input  -65.29 | X-H torsion
[ 10718 10713 10712 10709 ] final -139.18 input   66.30 | X-H torsion
[ 10763 10752 10751 10750 ] final   51.61 input  -60.55 | X-H torsion
[ 11005 11000 10999 10996 ] final   42.97 input  -57.11 | X-H torsion

> <Gold.Protein.ActiveResidues>
 VAL166  LYS551  ARG553  GLY616  TRP617  ASP618  TYR619  PRO620  LYS621  CYS622 
 ASP623  PHE694  ASN695  SER759  ASP760  ASP761  ALA762  ILE779  LEU786  VAL792 
 PHE793  MET794  SER795  GLU796  ALA797  LYS798  CYS799  TRP800  GLU811  SER814 

> <Gold.Protein.RotatedAtoms>
  152.5131  134.3768  159.9337 H   0  0  0  0  0  0  0  0  0  0  0  0  # atno 6907 bound_to 6896
  151.3724  133.3844  159.2709 H   0  0  0  0  0  0  0  0  0  0  0  0  # atno 6908 bound_to 6896
  150.9567  134.8980  159.7764 H   0  0  0  0  0  0  0  0  0  0  0  0  # atno 6909 bound_to 6896
  145.6617  139.2473  143.1918 H   0  0  0  0  0  0  0  0  0  0  0  0  # atno 7974 bound_to 7965
  155.4451  140.3456  155.4294 H   0  0  0  0  0  0  0  0  0  0  0  0  # atno 8008 bound_to 7997
  156.1255  140.1499  156.9173 H   0  0  0  0  0  0  0  0  0  0  0  0  # atno 8009 bound_to 7997
  154.4855  140.0857  156.7455 H   0  0  0  0  0  0  0  0  0  0  0  0  # atno 8010 bound_to 7997
  139.8363  144.6663  150.9338 H   0  0  0  0  0  0  0  0  0  0  0  0  # atno 10167 bound_to 10162
  156.3078  130.7464  151.1532 H   0  0  0  0  0  0  0  0  0  0  0  0  # atno 10718 bound_to 10713
  152.9786  135.5840  154.4443 H   0  0  0  0  0  0  0  0  0  0  0  0  # atno 10763 bound_to 10752
  154.4040  135.2769  155.2080 H   0  0  0  0  0  0  0  0  0  0  0  0  # atno 10764 bound_to 10752
  154.3899  135.6127  153.5891 H   0  0  0  0  0  0  0  0  0  0  0  0  # atno 10765 bound_to 10752
  140.1689  134.4247  155.8270 H   0  0  0  0  0  0  0  0  0  0  0  0  # atno 11005 bound_to 11000
  146.1119  140.7417  142.9499 LP  0  0  0  0  0  0  0  0  0  0  0  0  # atno 17320 bound_to 7965
  144.7087  140.3953  143.7098 LP  0  0  0  0  0  0  0  0  0  0  0  0  # atno 17321 bound_to 7965
  140.7802  143.3954  151.1238 LP  0  0  0  0  0  0  0  0  0  0  0  0  # atno 17342 bound_to 10162
  139.7604  143.8644  152.3099 LP  0  0  0  0  0  0  0  0  0  0  0  0  # atno 17343 bound_to 10162
  157.7384  131.0541  150.5299 LP  0  0  0  0  0  0  0  0  0  0  0  0  # atno 17370 bound_to 10713
  156.5435  130.4214  149.6142 LP  0  0  0  0  0  0  0  0  0  0  0  0  # atno 17371 bound_to 10713
  141.2216  133.6947  156.7728 LP  0  0  0  0  0  0  0  0  0  0  0  0  # atno 17394 bound_to 11000
  140.2401  134.8620  157.3565 LP  0  0  0  0  0  0  0  0  0  0  0  0  # atno 17395 bound_to 11000

$$$$
