AV-unprocessed.smi:1958|AV-procd|sdf|7909|dock2
  -GOLD-   2272010 73D 1   1.00000     0.00000
 Structure written by MMmdl.
 48 49  0  0  0  0  0  0  0  0  2 V2000
  151.5090  142.6608  159.1640 C   0  0  0  0  0  0  0  0  0  0  0  0
  151.8413  142.9654  157.8211 O   0  0  0  0  0  0  0  0  0  0  0  0
  151.1031  142.1926  156.8902 C   0  0  0  0  0  0  0  0  0  0  0  0
  151.2922  140.7057  157.2240 C   0  0  0  0  0  0  0  0  0  0  0  0
  151.0112  139.8531  156.0648 N   0  0  0  0  0  0  0  0  0  0  0  0
  149.7384  140.0133  155.5439 N   0  0  0  0  0  0  0  0  0  0  0  0
  149.3658  139.3246  154.5139 C   0  0  0  0  0  0  0  0  0  0  0  0
  148.0077  139.4746  153.9214 C   0  0  0  0  0  0  0  0  0  0  0  0
  147.2564  140.3966  154.2422 O   0  0  0  0  0  0  0  0  0  0  0  0
  147.6656  138.5296  153.0260 N   0  0  0  0  0  0  0  0  0  0  0  0
  146.3886  138.4390  152.3226 C   0  0  0  0  0  0  0  0  0  0  0  0
  145.5023  137.2766  152.8425 C   0  0  1  0  0  0  0  0  0  0  0  0
  144.0126  137.5387  152.5076 C   0  0  0  0  0  0  0  0  0  0  0  0
  146.0020  135.9616  152.3189 N   0  3  0  0  0  0  0  0  0  0  0  0
  145.9474  134.8756  153.3367 C   0  0  0  0  0  0  0  0  0  0  0  0
  146.5430  133.5692  152.7877 C   0  0  0  0  0  0  0  0  0  0  0  0
  145.8346  133.1815  151.6206 O   0  0  0  0  0  0  0  0  0  0  0  0
  145.9599  134.1526  150.5932 C   0  0  0  0  0  0  0  0  0  0  0  0
  145.3601  135.4906  151.0594 C   0  0  0  0  0  0  0  0  0  0  0  0
  150.2683  138.3727  153.8889 C   0  0  0  0  0  0  0  0  0  0  0  0
  151.5032  138.2191  154.4155 C   0  0  0  0  0  0  0  0  0  0  0  0
  151.9485  138.9824  155.5826 C   0  0  0  0  0  0  0  0  0  0  0  0
  153.0634  138.8522  156.0869 O   0  0  0  0  0  0  0  0  0  0  0  0
  152.0992  143.2827  159.8369 H   0  0  0  0  0  0  0  0  0  0  0  0
  151.7229  141.6168  159.3956 H   0  0  0  0  0  0  0  0  0  0  0  0
  150.4545  142.8552  159.3634 H   0  0  0  0  0  0  0  0  0  0  0  0
  150.0468  142.4619  156.9365 H   0  0  0  0  0  0  0  0  0  0  0  0
  151.4524  142.3973  155.8769 H   0  0  0  0  0  0  0  0  0  0  0  0
  152.3155  140.5397  157.5660 H   0  0  0  0  0  0  0  0  0  0  0  0
  150.6573  140.4271  158.0667 H   0  0  0  0  0  0  0  0  0  0  0  0
  148.3474  137.8122  152.8236 H   0  0  0  0  0  0  0  0  0  0  0  0
  145.8360  139.3782  152.3795 H   0  0  0  0  0  0  0  0  0  0  0  0
  146.6437  138.3046  151.2734 H   0  0  0  0  0  0  0  0  0  0  0  0
  145.5774  137.2474  153.9308 H   0  0  0  0  0  0  0  0  0  0  0  0
  143.6762  138.5069  152.8765 H   0  0  0  0  0  0  0  0  0  0  0  0
  143.3517  136.8095  152.9758 H   0  0  0  0  0  0  0  0  0  0  0  0
  143.8370  137.5210  151.4315 H   0  0  0  0  0  0  0  0  0  0  0  0
  146.4980  135.1448  154.2355 H   0  0  0  0  0  0  0  0  0  0  0  0
  144.9118  134.7102  153.6375 H   0  0  0  0  0  0  0  0  0  0  0  0
  147.6056  133.6847  152.5672 H   0  0  0  0  0  0  0  0  0  0  0  0
  146.4571  132.7762  153.5307 H   0  0  0  0  0  0  0  0  0  0  0  0
  147.0080  134.2720  150.3141 H   0  0  0  0  0  0  0  0  0  0  0  0
  145.4351  133.7964  149.7065 H   0  0  0  0  0  0  0  0  0  0  0  0
  144.2847  135.3866  151.2126 H   0  0  0  0  0  0  0  0  0  0  0  0
  145.5095  136.2081  150.2534 H   0  0  0  0  0  0  0  0  0  0  0  0
  149.9661  137.7952  153.0274 H   0  0  0  0  0  0  0  0  0  0  0  0
  152.1840  137.5132  153.9629 H   0  0  0  0  0  0  0  0  0  0  0  0
  146.9766  136.1015  152.0926 H   0  0  0  0  0  0  0  0  0  0  0  0
  1  2  1  0  0  0  0
  1 24  1  0  0  0  0
  1 25  1  0  0  0  0
  1 26  1  0  0  0  0
  2  3  1  0  0  0  0
  3  4  1  0  0  0  0
  3 27  1  0  0  0  0
  3 28  1  0  0  0  0
  4  5  1  0  0  0  0
  4 29  1  0  0  0  0
  4 30  1  0  0  0  0
  5 22  1  0  0  0  0
  5  6  1  0  0  0  0
  6  7  2  0  0  0  0
  7  8  1  0  0  0  0
  7 20  1  0  0  0  0
  8  9  2  0  0  0  0
  8 10  1  0  0  0  0
 10 11  1  0  0  0  0
 10 31  1  0  0  0  0
 11 12  1  0  0  0  0
 11 32  1  0  0  0  0
 11 33  1  0  0  0  0
 12 13  1  0  0  0  0
 12 14  1  0  0  0  0
 12 34  1  0  0  0  0
 13 35  1  0  0  0  0
 13 36  1  0  0  0  0
 13 37  1  0  0  0  0
 14 19  1  0  0  0  0
 14 15  1  0  0  0  0
 14 48  1  0  0  0  0
 15 16  1  0  0  0  0
 15 38  1  0  0  0  0
 15 39  1  0  0  0  0
 16 17  1  0  0  0  0
 16 40  1  0  0  0  0
 16 41  1  0  0  0  0
 17 18  1  0  0  0  0
 18 19  1  0  0  0  0
 18 42  1  0  0  0  0
 18 43  1  0  0  0  0
 19 44  1  0  0  0  0
 19 45  1  0  0  0  0
 20 21  2  0  0  0  0
 20 46  1  0  0  0  0
 21 22  1  0  0  0  0
 21 47  1  0  0  0  0
 22 23  2  0  0  0  0
M  CHG  1  14   1
M  END
> <s_m_source_file>
AV-unprocessed.smi

> <i_m_source_file_index>
1958

> <i_lp_mmshare_version>
43012

> <i_f3d_flags>
0

> <s_epik_input>
W0NIM11PW0NIMl1bQ0gyXW4xbmMoW2NIXVtjSF1jMT1PKUMoPU8pW05IXVtDSDJdW0NASF0oW0NIM10pTjJbQ0gyXVtDSDJdT1tDSDJdW0NIMl0y

> <s_epik_cmdline>
J2VwaWtfcHl0aG9uJywgJy1waCcsICc3LjAnLCAnLXRuJywgJzgnLCAnLW1hJywgJzIwMCcsICctbWV0YWxfYmluZGluZycsICctaW1hZScsICc8aW5maWxlLm1hZT4nLCAnLW9tYWUnLCAnPG91dGZpbGUubWFlPic=

> <r_lp_tautomer_probability>
1

> <r_epik_Ionization_Penalty>
0.724355

> <r_epik_Ionization_Penalty_Charging>
0.724348

> <r_epik_Ionization_Penalty_Neutral>
6.31911e-06

> <r_epik_State_Penalty>
0.749058

> <r_epik_Charging_Adjusted_Penalty>
1.47341

> <i_epik_Tot_Q>
1

> <i_epik_Tot_abs_Q>
1

> <r_epik_Metal_State_Penalty>
0.750821

> <b_epik_Metal_Only>
0

> <s_lp_Force_Field>
OPLS_2005

> <r_lp_Energy>
42.169

> <b_lp_Chiralities_Consistent>
1

> <s_lp_Variant>
AV-unprocessed.smi:1958-4

> <Gold.Version>
5.8.1

> <Gold.Id.Protein>
6NUR|6NUR_protein|mol2

> <Gold.PLP.Fitness>
47.8399

> <Gold.PLP.PLP>
-38.5493

> <Gold.PLP.part.hbond>
-3.6695

> <Gold.PLP.part.metal>
0.0000

> <Gold.PLP.part.buried>
-3.8050

> <Gold.PLP.part.nonpolar>
-31.2084

> <Gold.PLP.part.repulsive>
0.4399

> <Gold.PLP.ligand.clash>
0.1263

> <Gold.PLP.ligand.torsion>
1.3651

> <Gold.PLP.Chemscore.Hbond>
3.8960

> <Gold.PLP.Chemscore.CHOScore>
0.0000

> <Gold.PLP.Chemscore.Metal>
0.0000

> <Gold.Chemscore.Hbonds>
donor molecule, donor type, donor heavy atom, donor atom, acceptor molecule, acceptor atom, score
      L1  H    10    31       P1  7948  1.00
      L1  H    14    48       P1  7948  2.00
      P1  H  7997  8009       L1    23  0.94

> <Gold.PLP.Chemscore.Internal.Correction>
0.4591

> <Gold.Rescore>
     Score         DG    S(hbond)    S(metal)    S(lipo)     H(rot)  DE(clash)    DE(int)     intcor
     17.22     -18.56       2.74        0.00      79.96       2.12       0.18       1.15       ----

> <Gold.Chemscore.Fitness>
17.2247

> <Gold.Chemscore.DG>
-18.5559

> <Gold.Chemscore.ZeroCoef>
-5.4800

> <Gold.Chemscore.Hbond>
2.7403

> <Gold.Chemscore.Metal>
0.0000

> <Gold.Chemscore.Lipo>
79.9636

> <Gold.Chemscore.Internal_Hbond>
0.0000

> <Gold.Chemscore.DEClash>
0.1799

> <Gold.Chemscore.DEInternal>
1.1513

> <Gold.Chemscore.Rot>
2.1221

> <Gold.Chemscore.Internal.Correction>
   9.000000E+99

> <Gold.Chemscore.Hbonds>
donor molecule, donor type, donor heavy atom, donor atom, acceptor molecule, acceptor atom, score
      L1  H    10    31       P1  7948  0.96
      L1  H    14    48       P1  7948  0.98
      P1  H  7997  8009       L1    23  0.90

> <Gold.Chemscore.Hbond.Weighted>
-9.1526

> <Gold.Chemscore.Metal.Weighted>
-0.0000

> <Gold.Chemscore.Lipo.Weighted>
-9.3557

> <Gold.Chemscore.Internal_Hbond.Weighted>
0.0000

> <Gold.Chemscore.DEClash.Weighted>
0.1799

> <Gold.Chemscore.DEInternal.Weighted>
1.1513

> <Gold.Chemscore.Rot.Weighted>
5.4325

> <Gold.Chemscore.Internal.Correction.Weighted>
   9.000000E+99

> <Gold.Protein.RotatedTorsions>
[ 6907 6896 6895 6894 ] final  124.58 input  -60.11 | X-H torsion
[ 7974 7965 7964 7962 ] final   32.24 input  175.53 | X-H torsion
[ 8008 7997 7996 7995 ] final -143.29 input   59.86 | X-H torsion
[ 10167 10162 10161 10158 ] final  -33.61 input  -65.29 | X-H torsion
[ 10718 10713 10712 10709 ] final  -57.84 input   66.30 | X-H torsion
[ 10763 10752 10751 10750 ] final  -74.53 input  -60.55 | X-H torsion
[ 11005 11000 10999 10996 ] final   25.66 input  -57.11 | X-H torsion

> <Gold.Protein.ActiveResidues>
 VAL166  LYS551  ARG553  GLY616  TRP617  ASP618  TYR619  PRO620  LYS621  CYS622 
 ASP623  PHE694  ASN695  SER759  ASP760  ASP761  ALA762  ILE779  LEU786  VAL792 
 PHE793  MET794  SER795  GLU796  ALA797  LYS798  CYS799  TRP800  GLU811  SER814 

> <Gold.Protein.RotatedAtoms>
  152.4065  133.6898  159.6360 H   0  0  0  0  0  0  0  0  0  0  0  0  # atno 6907 bound_to 6896
  150.7950  133.8699  159.3264 H   0  0  0  0  0  0  0  0  0  0  0  0  # atno 6908 bound_to 6896
  151.6452  135.1010  160.0201 H   0  0  0  0  0  0  0  0  0  0  0  0  # atno 6909 bound_to 6896
  146.1499  139.6552  142.9106 H   0  0  0  0  0  0  0  0  0  0  0  0  # atno 7974 bound_to 7965
  155.5082  140.0581  157.2928 H   0  0  0  0  0  0  0  0  0  0  0  0  # atno 8008 bound_to 7997
  154.4562  140.1974  156.0323 H   0  0  0  0  0  0  0  0  0  0  0  0  # atno 8009 bound_to 7997
  156.0803  140.3248  155.7689 H   0  0  0  0  0  0  0  0  0  0  0  0  # atno 8010 bound_to 7997
  140.7201  143.3608  151.1968 H   0  0  0  0  0  0  0  0  0  0  0  0  # atno 10167 bound_to 10162
  156.1180  130.4168  150.0495 H   0  0  0  0  0  0  0  0  0  0  0  0  # atno 10718 bound_to 10713
  154.4744  135.5861  153.6344 H   0  0  0  0  0  0  0  0  0  0  0  0  # atno 10763 bound_to 10752
  152.9839  135.6074  154.3326 H   0  0  0  0  0  0  0  0  0  0  0  0  # atno 10764 bound_to 10752
  154.3211  135.2843  155.2498 H   0  0  0  0  0  0  0  0  0  0  0  0  # atno 10765 bound_to 10752
  140.3455  134.2286  155.7685 H   0  0  0  0  0  0  0  0  0  0  0  0  # atno 11005 bound_to 11000
  145.4848  141.0438  143.2626 LP  0  0  0  0  0  0  0  0  0  0  0  0  # atno 17320 bound_to 7965
  144.7891  139.6365  143.7121 LP  0  0  0  0  0  0  0  0  0  0  0  0  # atno 17321 bound_to 7965
  139.7159  143.9301  152.2966 LP  0  0  0  0  0  0  0  0  0  0  0  0  # atno 17342 bound_to 10162
  139.9042  144.6894  150.8632 LP  0  0  0  0  0  0  0  0  0  0  0  0  # atno 17343 bound_to 10162
  156.8441  130.9436  151.3630 LP  0  0  0  0  0  0  0  0  0  0  0  0  # atno 17370 bound_to 10713
  157.6364  130.8770  149.9366 LP  0  0  0  0  0  0  0  0  0  0  0  0  # atno 17371 bound_to 10713
  141.2027  133.7931  157.0378 LP  0  0  0  0  0  0  0  0  0  0  0  0  # atno 17394 bound_to 11000
  140.0746  134.9683  157.1524 LP  0  0  0  0  0  0  0  0  0  0  0  0  # atno 17395 bound_to 11000

$$$$
