AV-unprocessed.smi:3193|AV-procd|sdf|12201|dock1
  -GOLD-   2272018 33D 1   1.00000     0.00000
 Structure written by MMmdl.
 40 41  0  0  0  0  0  0  0  0  2 V2000
  151.1278  145.4983  159.7245 C   0  0  0  0  0  0  0  0  0  0  0  0
  151.4657  144.0329  160.0573 C   0  0  2  0  0  0  0  0  0  0  0  0
  152.1903  143.9741  161.4192 C   0  0  0  0  0  0  0  0  0  0  0  0
  152.5375  142.5377  161.8299 C   0  0  0  0  0  0  0  0  0  0  0  0
  153.3801  141.8539  160.7488 C   0  0  0  0  0  0  0  0  0  0  0  0
  152.6592  141.8860  159.3942 C   0  0  0  0  0  0  0  0  0  0  0  0
  152.3033  143.3263  158.9520 C   0  0  1  0  0  0  0  0  0  0  0  0
  151.5900  143.3110  157.5807 C   0  0  0  0  0  0  0  0  0  0  0  0
  150.1467  143.0268  157.7143 N   0  3  0  0  0  0  0  0  0  0  0  0
  149.7708  141.6441  157.3620 C   0  0  0  0  0  0  0  0  0  0  0  0
  149.8034  141.4335  155.8424 C   0  0  0  0  0  0  0  0  0  0  0  0
  150.8855  140.5518  155.4540 N   0  0  0  0  0  0  0  0  0  0  0  0
  150.8255  139.4973  154.5524 C   0  0  0  0  0  0  0  0  0  0  0  0
  152.0903  138.9563  154.4961 C   0  0  0  0  0  0  0  0  0  0  0  0
  152.9382  139.6580  155.3502 N   0  0  0  0  0  0  0  0  0  0  0  0
  152.1546  140.5860  155.8832 C   0  0  0  0  0  0  0  0  0  0  0  0
  152.0267  146.0695  159.4902 H   0  0  0  0  0  0  0  0  0  0  0  0
  150.6379  145.9872  160.5672 H   0  0  0  0  0  0  0  0  0  0  0  0
  150.4440  145.5802  158.8806 H   0  0  0  0  0  0  0  0  0  0  0  0
  150.5218  143.4955  160.1634 H   0  0  0  0  0  0  0  0  0  0  0  0
  153.1041  144.5687  161.3762 H   0  0  0  0  0  0  0  0  0  0  0  0
  151.5680  144.4260  162.1929 H   0  0  0  0  0  0  0  0  0  0  0  0
  153.0779  142.5415  162.7771 H   0  0  0  0  0  0  0  0  0  0  0  0
  151.6209  141.9705  161.9975 H   0  0  0  0  0  0  0  0  0  0  0  0
  154.3464  142.3529  160.6641 H   0  0  0  0  0  0  0  0  0  0  0  0
  153.5875  140.8229  161.0366 H   0  0  0  0  0  0  0  0  0  0  0  0
  153.2949  141.4033  158.6517 H   0  0  0  0  0  0  0  0  0  0  0  0
  151.7510  141.2847  159.4555 H   0  0  0  0  0  0  0  0  0  0  0  0
  153.2349  143.8833  158.8380 H   0  0  0  0  0  0  0  0  0  0  0  0
  151.7310  144.2639  157.0686 H   0  0  0  0  0  0  0  0  0  0  0  0
  152.0071  142.5379  156.9371 H   0  0  0  0  0  0  0  0  0  0  0  0
  149.8736  143.1997  158.6713 H   0  0  0  0  0  0  0  0  0  0  0  0
  150.4559  140.9495  157.8503 H   0  0  0  0  0  0  0  0  0  0  0  0
  148.7710  141.4357  157.7460 H   0  0  0  0  0  0  0  0  0  0  0  0
  148.8628  141.0038  155.4949 H   0  0  0  0  0  0  0  0  0  0  0  0
  149.9301  142.3858  155.3253 H   0  0  0  0  0  0  0  0  0  0  0  0
  149.9151  139.2259  154.0380 H   0  0  0  0  0  0  0  0  0  0  0  0
  152.4527  138.1238  153.9111 H   0  0  0  0  0  0  0  0  0  0  0  0
  152.5135  141.3101  156.6003 H   0  0  0  0  0  0  0  0  0  0  0  0
  149.6393  143.6611  157.1138 H   0  0  0  0  0  0  0  0  0  0  0  0
  1  2  1  0  0  0  0
  1 17  1  0  0  0  0
  1 18  1  0  0  0  0
  1 19  1  0  0  0  0
  2  7  1  0  0  0  0
  2  3  1  0  0  0  0
  2 20  1  0  0  0  0
  3  4  1  0  0  0  0
  3 21  1  0  0  0  0
  3 22  1  0  0  0  0
  4  5  1  0  0  0  0
  4 23  1  0  0  0  0
  4 24  1  0  0  0  0
  5  6  1  0  0  0  0
  5 25  1  0  0  0  0
  5 26  1  0  0  0  0
  6  7  1  0  0  0  0
  6 27  1  0  0  0  0
  6 28  1  0  0  0  0
  7  8  1  0  0  0  0
  7 29  1  0  0  0  0
  8  9  1  0  0  0  0
  8 30  1  0  0  0  0
  8 31  1  0  0  0  0
  9 10  1  0  0  0  0
  9 32  1  0  0  0  0
  9 40  1  0  0  0  0
 10 11  1  0  0  0  0
 10 33  1  0  0  0  0
 10 34  1  0  0  0  0
 11 12  1  0  0  0  0
 11 35  1  0  0  0  0
 11 36  1  0  0  0  0
 12 16  1  0  0  0  0
 12 13  1  0  0  0  0
 13 14  2  0  0  0  0
 13 37  1  0  0  0  0
 14 15  1  0  0  0  0
 14 38  1  0  0  0  0
 15 16  2  0  0  0  0
 16 39  1  0  0  0  0
M  CHG  1   9   1
M  END
> <s_m_source_file>
AV-unprocessed.smi

> <i_m_source_file_index>
3193

> <i_lp_mmshare_version>
43012

> <i_f3d_flags>
0

> <s_epik_input>
W0NIM11bQ0BASF0xW0NIMl1bQ0gyXVtDSDJdW0NIMl1bQ0BIXTFbQ0gyXVtOSF1bQ0gyXVtDSDJdbjJbY0hdW2NIXW5bY0hdMg==

> <s_epik_cmdline>
J2VwaWtfcHl0aG9uJywgJy1waCcsICc3LjAnLCAnLXRuJywgJzgnLCAnLW1hJywgJzIwMCcsICctbWV0YWxfYmluZGluZycsICctaW1hZScsICc8aW5maWxlLm1hZT4nLCAnLW9tYWUnLCAnPG91dGZpbGUubWFlPic=

> <r_lp_tautomer_probability>
1

> <r_epik_Ionization_Penalty>
0.0503046

> <r_epik_Ionization_Penalty_Charging>
0.0503046

> <r_epik_Ionization_Penalty_Neutral>
0

> <r_epik_State_Penalty>
0.0981804

> <r_epik_Charging_Adjusted_Penalty>
0.148485

> <i_epik_Tot_Q>
1

> <i_epik_Tot_abs_Q>
1

> <r_epik_Metal_State_Penalty>
0.000105854

> <b_epik_Metal_Only>
0

> <s_lp_Force_Field>
OPLS_2005

> <r_lp_Energy>
18.7855

> <b_lp_Chiralities_Consistent>
1

> <s_lp_Variant>
AV-unprocessed.smi:3193-1

> <Gold.Version>
5.8.1

> <Gold.Id.Protein>
6NUR|6NUR_protein|mol2

> <Gold.PLP.Fitness>
51.9642

> <Gold.PLP.PLP>
-45.0537

> <Gold.PLP.part.hbond>
-2.0000

> <Gold.PLP.part.metal>
0.0000

> <Gold.PLP.part.buried>
-3.6916

> <Gold.PLP.part.nonpolar>
-38.4725

> <Gold.PLP.part.repulsive>
0.0321

> <Gold.PLP.ligand.clash>
0.0000

> <Gold.PLP.ligand.torsion>
1.0987

> <Gold.PLP.Chemscore.Hbond>
3.0000

> <Gold.PLP.Chemscore.CHOScore>
0.0000

> <Gold.PLP.Chemscore.Metal>
0.0000

> <Gold.Chemscore.Hbonds>
donor molecule, donor type, donor heavy atom, donor atom, acceptor molecule, acceptor atom, score
      L1  H     9    40       P1  8028  2.00
      P1  H  7997  8010       L1    15  1.00

> <Gold.PLP.Chemscore.Internal.Correction>
0.1080

> <Gold.Rescore>
     Score         DG    S(hbond)    S(metal)    S(lipo)     H(rot)  DE(clash)    DE(int)     intcor
     16.55     -17.52       0.98        0.00     116.22       1.89       0.02       0.95       ----

> <Gold.Chemscore.Fitness>
16.5526

> <Gold.Chemscore.DG>
-17.5228

> <Gold.Chemscore.ZeroCoef>
-5.4800

> <Gold.Chemscore.Hbond>
0.9828

> <Gold.Chemscore.Metal>
0.0000

> <Gold.Chemscore.Lipo>
116.2156

> <Gold.Chemscore.Internal_Hbond>
0.0000

> <Gold.Chemscore.DEClash>
0.0243

> <Gold.Chemscore.DEInternal>
0.9458

> <Gold.Chemscore.Rot>
1.8895

> <Gold.Chemscore.Internal.Correction>
   9.000000E+99

> <Gold.Chemscore.Hbonds>
donor molecule, donor type, donor heavy atom, donor atom, acceptor molecule, acceptor atom, score
      L1  H     9    40       P1  8028  0.88
      P1  H  7997  8010       L1    15  0.35

> <Gold.Chemscore.Hbond.Weighted>
-3.2826

> <Gold.Chemscore.Metal.Weighted>
-0.0000

> <Gold.Chemscore.Lipo.Weighted>
-13.5972

> <Gold.Chemscore.Internal_Hbond.Weighted>
0.0000

> <Gold.Chemscore.DEClash.Weighted>
0.0243

> <Gold.Chemscore.DEInternal.Weighted>
0.9458

> <Gold.Chemscore.Rot.Weighted>
4.8371

> <Gold.Chemscore.Internal.Correction.Weighted>
   9.000000E+99

> <Gold.Protein.RotatedTorsions>
[ 6907 6896 6895 6894 ] final  -79.15 input  -60.11 | X-H torsion
[ 7974 7965 7964 7962 ] final  178.81 input  175.53 | X-H torsion
[ 8008 7997 7996 7995 ] final  110.42 input   59.86 | X-H torsion
[ 10167 10162 10161 10158 ] final  -31.41 input  -65.29 | X-H torsion
[ 10718 10713 10712 10709 ] final -104.97 input   66.30 | X-H torsion
[ 10763 10752 10751 10750 ] final -130.54 input  -60.55 | X-H torsion
[ 11005 11000 10999 10996 ] final   -4.66 input  -57.11 | X-H torsion

> <Gold.Protein.ActiveResidues>
 VAL166  LYS551  ARG553  GLY616  TRP617  ASP618  TYR619  PRO620  LYS621  CYS622 
 ASP623  PHE694  ASN695  SER759  ASP760  ASP761  ALA762  ILE779  LEU786  VAL792 
 PHE793  MET794  SER795  GLU796  ALA797  LYS798  CYS799  TRP800  GLU811  SER814 

> <Gold.Protein.RotatedAtoms>
  150.6956  134.4164  159.5184 H   0  0  0  0  0  0  0  0  0  0  0  0  # atno 6907 bound_to 6896
  152.1914  134.8665  160.0526 H   0  0  0  0  0  0  0  0  0  0  0  0  # atno 6908 bound_to 6896
  151.9619  133.3663  159.4075 H   0  0  0  0  0  0  0  0  0  0  0  0  # atno 6909 bound_to 6896
  144.7152  140.0454  143.6436 H   0  0  0  0  0  0  0  0  0  0  0  0  # atno 7974 bound_to 7965
  156.2051  140.3039  155.9610 H   0  0  0  0  0  0  0  0  0  0  0  0  # atno 8008 bound_to 7997
  155.2860  140.0440  157.3036 H   0  0  0  0  0  0  0  0  0  0  0  0  # atno 8009 bound_to 7997
  154.5623  140.2324  155.8326 H   0  0  0  0  0  0  0  0  0  0  0  0  # atno 8010 bound_to 7997
  140.7236  143.3773  151.1666 H   0  0  0  0  0  0  0  0  0  0  0  0  # atno 10167 bound_to 10162
  156.0326  130.5541  150.7472 H   0  0  0  0  0  0  0  0  0  0  0  0  # atno 10718 bound_to 10713
  154.8755  135.3859  154.4099 H   0  0  0  0  0  0  0  0  0  0  0  0  # atno 10763 bound_to 10752
  153.4814  135.7030  153.5941 H   0  0  0  0  0  0  0  0  0  0  0  0  # atno 10764 bound_to 10752
  153.4355  135.3868  155.2164 H   0  0  0  0  0  0  0  0  0  0  0  0  # atno 10765 bound_to 10752
  140.6827  133.9140  155.8565 H   0  0  0  0  0  0  0  0  0  0  0  0  # atno 11005 bound_to 11000
  145.9989  139.3074  143.0940 LP  0  0  0  0  0  0  0  0  0  0  0  0  # atno 17320 bound_to 7965
  145.8817  140.9359  143.0598 LP  0  0  0  0  0  0  0  0  0  0  0  0  # atno 17321 bound_to 7965
  139.7355  143.9005  152.3033 LP  0  0  0  0  0  0  0  0  0  0  0  0  # atno 17342 bound_to 10162
  139.8809  144.7018  150.8879 LP  0  0  0  0  0  0  0  0  0  0  0  0  # atno 17343 bound_to 10162
  157.5025  131.0919  151.0296 LP  0  0  0  0  0  0  0  0  0  0  0  0  # atno 17370 bound_to 10713
  157.0673  130.5850  149.5396 LP  0  0  0  0  0  0  0  0  0  0  0  0  # atno 17371 bound_to 10713
  141.0305  134.0763  157.4020 LP  0  0  0  0  0  0  0  0  0  0  0  0  # atno 17394 bound_to 11000
  139.8947  135.0137  156.6964 LP  0  0  0  0  0  0  0  0  0  0  0  0  # atno 17395 bound_to 11000

$$$$
