AV-unprocessed.smi:2572|AV-procd|sdf|10110|dock6
  -GOLD-   2272014123D 1   1.00000     0.00000
 Structure written by MMmdl.
 38 39  0  0  0  0  0  0  0  0  1 V2000
  150.7205  141.9504  155.8507 C   0  0  0  0  0  0  0  0  0  0  0  0
  150.0735  140.8905  155.1493 O   0  0  0  0  0  0  0  0  0  0  0  0
  150.5368  139.6083  155.3875 C   0  0  0  0  0  0  0  0  0  0  0  0
  150.7074  138.7176  154.2592 C   0  0  0  0  0  0  0  0  0  0  0  0
  151.1616  137.4645  154.4767 C   0  0  0  0  0  0  0  0  0  0  0  0
  151.4873  136.9848  155.8193 C   0  0  0  0  0  0  0  0  0  0  0  0
  151.9098  135.8508  156.0443 O   0  0  0  0  0  0  0  0  0  0  0  0
  151.2808  137.9124  156.8009 N   0  0  0  0  0  0  0  0  0  0  0  0
  151.5657  137.6082  158.2083 C   0  0  0  0  0  0  0  0  0  0  0  0
  152.6741  138.5171  158.7829 C   0  0  2  0  0  0  0  0  0  0  0  0
  153.0557  138.0239  160.0527 O   0  0  0  0  0  0  0  0  0  0  0  0
  152.1849  139.9660  158.9656 C   0  0  0  0  0  0  0  0  0  0  0  0
  153.2040  140.8720  159.6770 C   0  0  0  0  0  0  0  0  0  0  0  0
  152.7293  142.3105  159.7562 C   0  0  0  0  0  0  0  0  0  0  0  0
  152.5670  142.9355  161.0107 C   0  0  0  0  0  0  0  0  0  0  0  0
  152.1344  144.2742  161.0833 C   0  0  0  0  0  0  0  0  0  0  0  0
  151.8635  144.9922  159.9023 C   0  0  0  0  0  0  0  0  0  0  0  0
  152.0240  144.3711  158.6485 C   0  0  0  0  0  0  0  0  0  0  0  0
  152.4559  143.0323  158.5752 C   0  0  0  0  0  0  0  0  0  0  0  0
  150.8152  139.1990  156.5852 N   0  0  0  0  0  0  0  0  0  0  0  0
  150.2598  142.8968  155.5679 H   0  0  0  0  0  0  0  0  0  0  0  0
  151.7805  142.0168  155.5992 H   0  0  0  0  0  0  0  0  0  0  0  0
  150.6141  141.8470  156.9321 H   0  0  0  0  0  0  0  0  0  0  0  0
  150.4714  139.0610  153.2629 H   0  0  0  0  0  0  0  0  0  0  0  0
  151.2891  136.7968  153.6373 H   0  0  0  0  0  0  0  0  0  0  0  0
  150.6432  137.7680  158.7696 H   0  0  0  0  0  0  0  0  0  0  0  0
  151.8033  136.5541  158.3641 H   0  0  0  0  0  0  0  0  0  0  0  0
  153.5426  138.5153  158.1229 H   0  0  0  0  0  0  0  0  0  0  0  0
  152.3409  137.5181  160.4079 H   0  0  0  0  0  0  0  0  0  0  0  0
  151.9756  140.3938  157.9842 H   0  0  0  0  0  0  0  0  0  0  0  0
  151.2379  139.9739  159.5074 H   0  0  0  0  0  0  0  0  0  0  0  0
  153.3976  140.5082  160.6867 H   0  0  0  0  0  0  0  0  0  0  0  0
  154.1600  140.8421  159.1529 H   0  0  0  0  0  0  0  0  0  0  0  0
  152.7767  142.3912  161.9198 H   0  0  0  0  0  0  0  0  0  0  0  0
  152.0123  144.7504  162.0450 H   0  0  0  0  0  0  0  0  0  0  0  0
  151.5336  146.0193  159.9579 H   0  0  0  0  0  0  0  0  0  0  0  0
  151.8169  144.9215  157.7426 H   0  0  0  0  0  0  0  0  0  0  0  0
  152.5792  142.5620  157.6104 H   0  0  0  0  0  0  0  0  0  0  0  0
  1  2  1  0  0  0  0
  1 21  1  0  0  0  0
  1 22  1  0  0  0  0
  1 23  1  0  0  0  0
  2  3  1  0  0  0  0
  3 20  2  0  0  0  0
  3  4  1  0  0  0  0
  4  5  2  0  0  0  0
  4 24  1  0  0  0  0
  5  6  1  0  0  0  0
  5 25  1  0  0  0  0
  6  7  2  0  0  0  0
  6  8  1  0  0  0  0
  8  9  1  0  0  0  0
  8 20  1  0  0  0  0
  9 10  1  0  0  0  0
  9 26  1  0  0  0  0
  9 27  1  0  0  0  0
 10 11  1  0  0  0  0
 10 12  1  0  0  0  0
 10 28  1  0  0  0  0
 11 29  1  0  0  0  0
 12 13  1  0  0  0  0
 12 30  1  0  0  0  0
 12 31  1  0  0  0  0
 13 14  1  0  0  0  0
 13 32  1  0  0  0  0
 13 33  1  0  0  0  0
 14 19  1  0  0  0  0
 14 15  2  0  0  0  0
 15 16  1  0  0  0  0
 15 34  1  0  0  0  0
 16 17  2  0  0  0  0
 16 35  1  0  0  0  0
 17 18  1  0  0  0  0
 17 36  1  0  0  0  0
 18 19  2  0  0  0  0
 18 37  1  0  0  0  0
 19 38  1  0  0  0  0
M  END
> <s_m_source_file>
AV-unprocessed.smi

> <i_m_source_file_index>
2572

> <i_lp_mmshare_version>
43012

> <i_f3d_flags>
0

> <s_epik_input>
W0NIM11PYzFbY0hdW2NIXWMoPU8pbihuMSlbQ0gyXVtDQEhdKFtPSF0pW0NIMl1bQ0gyXWMyW2NIXVtjSF1bY0hdW2NIXVtjSF0y

> <s_epik_cmdline>
J2VwaWtfcHl0aG9uJywgJy1waCcsICc3LjAnLCAnLXRuJywgJzgnLCAnLW1hJywgJzIwMCcsICctbWV0YWxfYmluZGluZycsICctaW1hZScsICc8aW5maWxlLm1hZT4nLCAnLW9tYWUnLCAnPG91dGZpbGUubWFlPic=

> <r_lp_tautomer_probability>
1

> <r_epik_Ionization_Penalty>
8.48543e-06

> <r_epik_Ionization_Penalty_Charging>
6.90219e-06

> <r_epik_Ionization_Penalty_Neutral>
1.58323e-06

> <r_epik_State_Penalty>
-0

> <r_epik_Charging_Adjusted_Penalty>
6.90219e-06

> <i_epik_Tot_Q>
0

> <i_epik_Tot_abs_Q>
0

> <r_epik_Metal_State_Penalty>
-0

> <b_epik_Metal_Only>
0

> <s_lp_Force_Field>
OPLS_2005

> <r_lp_Energy>
29.9707

> <b_lp_Chiralities_Consistent>
1

> <s_lp_Variant>
AV-unprocessed.smi:2572-1

> <Gold.Version>
5.8.1

> <Gold.Id.Protein>
6NUR|6NUR_protein|mol2

> <Gold.PLP.Fitness>
48.5588

> <Gold.PLP.PLP>
-46.1237

> <Gold.PLP.part.hbond>
-1.3701

> <Gold.PLP.part.metal>
0.0000

> <Gold.PLP.part.buried>
-6.7714

> <Gold.PLP.part.nonpolar>
-38.7588

> <Gold.PLP.part.repulsive>
0.1041

> <Gold.PLP.ligand.clash>
0.0000

> <Gold.PLP.ligand.torsion>
0.3061

> <Gold.PLP.Chemscore.Hbond>
1.0006

> <Gold.PLP.Chemscore.CHOScore>
0.0000

> <Gold.PLP.Chemscore.Metal>
0.0000

> <Gold.Chemscore.Hbonds>
donor molecule, donor type, donor heavy atom, donor atom, acceptor molecule, acceptor atom, score
      P1  H  7989  7998       L1     2  0.04
      P1  H 10752 10765       L1     7  1.00

> <Gold.PLP.Chemscore.Internal.Correction>
0.0456

> <Gold.Rescore>
     Score         DG    S(hbond)    S(metal)    S(lipo)     H(rot)  DE(clash)    DE(int)     intcor
     14.38     -15.88       0.99        0.00     115.75       2.52       0.05       1.45       ----

> <Gold.Chemscore.Fitness>
14.3799

> <Gold.Chemscore.DG>
-15.8780

> <Gold.Chemscore.ZeroCoef>
-5.4800

> <Gold.Chemscore.Hbond>
0.9908

> <Gold.Chemscore.Metal>
0.0000

> <Gold.Chemscore.Lipo>
115.7524

> <Gold.Chemscore.Internal_Hbond>
0.0000

> <Gold.Chemscore.DEClash>
0.0515

> <Gold.Chemscore.DEInternal>
1.4466

> <Gold.Chemscore.Rot>
2.5212

> <Gold.Chemscore.Internal.Correction>
   9.000000E+99

> <Gold.Chemscore.Hbonds>
donor molecule, donor type, donor heavy atom, donor atom, acceptor molecule, acceptor atom, score
      P1  H 10752 10765       L1     7  0.60

> <Gold.Chemscore.Hbond.Weighted>
-3.3092

> <Gold.Chemscore.Metal.Weighted>
-0.0000

> <Gold.Chemscore.Lipo.Weighted>
-13.5430

> <Gold.Chemscore.Internal_Hbond.Weighted>
0.0000

> <Gold.Chemscore.DEClash.Weighted>
0.0515

> <Gold.Chemscore.DEInternal.Weighted>
1.4466

> <Gold.Chemscore.Rot.Weighted>
6.4543

> <Gold.Chemscore.Internal.Correction.Weighted>
   9.000000E+99

> <Gold.Protein.RotatedTorsions>
[ 6907 6896 6895 6894 ] final  113.44 input  -60.11 | X-H torsion
[ 7974 7965 7964 7962 ] final -157.44 input  175.53 | X-H torsion
[ 8008 7997 7996 7995 ] final   26.76 input   59.86 | X-H torsion
[ 10167 10162 10161 10158 ] final -143.37 input  -65.29 | X-H torsion
[ 10718 10713 10712 10709 ] final   49.05 input   66.30 | X-H torsion
[ 10763 10752 10751 10750 ] final -162.73 input  -60.55 | X-H torsion
[ 11005 11000 10999 10996 ] final  124.10 input  -57.11 | X-H torsion

> <Gold.Protein.ActiveResidues>
 VAL166  LYS551  ARG553  GLY616  TRP617  ASP618  TYR619  PRO620  LYS621  CYS622 
 ASP623  PHE694  ASN695  SER759  ASP760  ASP761  ALA762  ILE779  LEU786  VAL792 
 PHE793  MET794  SER795  GLU796  ALA797  LYS798  CYS799  TRP800  GLU811  SER814 

> <Gold.Protein.RotatedAtoms>
  152.4861  133.8376  159.7135 H   0  0  0  0  0  0  0  0  0  0  0  0  # atno 6907 bound_to 6896
  150.8948  133.7186  159.2901 H   0  0  0  0  0  0  0  0  0  0  0  0  # atno 6908 bound_to 6896
  151.4646  135.1045  159.9787 H   0  0  0  0  0  0  0  0  0  0  0  0  # atno 6909 bound_to 6896
  144.7548  140.3968  143.6020 H   0  0  0  0  0  0  0  0  0  0  0  0  # atno 7974 bound_to 7965
  155.0323  140.3160  155.4754 H   0  0  0  0  0  0  0  0  0  0  0  0  # atno 8008 bound_to 7997
  156.2871  140.2178  156.5387 H   0  0  0  0  0  0  0  0  0  0  0  0  # atno 8009 bound_to 7997
  154.7360  140.0477  157.0756 H   0  0  0  0  0  0  0  0  0  0  0  0  # atno 8010 bound_to 7997
  139.8000  143.7847  152.2657 H   0  0  0  0  0  0  0  0  0  0  0  0  # atno 10167 bound_to 10162
  157.4748  130.8278  149.8027 H   0  0  0  0  0  0  0  0  0  0  0  0  # atno 10718 bound_to 10713
  154.7188  135.3021  154.9081 H   0  0  0  0  0  0  0  0  0  0  0  0  # atno 10763 bound_to 10752
  153.9959  135.6713  153.4760 H   0  0  0  0  0  0  0  0  0  0  0  0  # atno 10764 bound_to 10752
  153.0816  135.5006  154.8430 H   0  0  0  0  0  0  0  0  0  0  0  0  # atno 10765 bound_to 10752
  139.9343  134.9640  156.8359 H   0  0  0  0  0  0  0  0  0  0  0  0  # atno 11005 bound_to 11000
  145.6817  139.1620  143.2697 LP  0  0  0  0  0  0  0  0  0  0  0  0  # atno 17320 bound_to 7965
  146.1545  140.6878  142.9306 LP  0  0  0  0  0  0  0  0  0  0  0  0  # atno 17321 bound_to 7965
  139.7964  144.7391  150.9884 LP  0  0  0  0  0  0  0  0  0  0  0  0  # atno 17342 bound_to 10162
  140.7820  143.4389  151.0581 LP  0  0  0  0  0  0  0  0  0  0  0  0  # atno 17343 bound_to 10162
  156.0091  130.3841  150.2326 LP  0  0  0  0  0  0  0  0  0  0  0  0  # atno 17370 bound_to 10713
  157.0510  131.0062  151.3253 LP  0  0  0  0  0  0  0  0  0  0  0  0  # atno 17371 bound_to 10713
  140.6117  134.0076  155.7580 LP  0  0  0  0  0  0  0  0  0  0  0  0  # atno 17394 bound_to 11000
  141.0949  133.9859  157.3177 LP  0  0  0  0  0  0  0  0  0  0  0  0  # atno 17395 bound_to 11000

$$$$
