AV-unprocessed.smi:712|AV-procd|sdf|3469|dock2
  -GOLD-   22720 0453D 1   1.00000     0.00000
 Structure written by MMmdl.
 51 52  0  0  0  0  0  0  0  0  2 V2000
  152.7194  143.1328  161.1120 C   0  0  0  0  0  0  0  0  0  0  0  0
  152.2767  142.5445  159.7884 C   0  0  0  0  0  0  0  0  0  0  0  0
  151.2906  143.2211  158.9714 C   0  0  0  0  0  0  0  0  0  0  0  0
  150.9169  142.6698  157.8060 C   0  0  0  0  0  0  0  0  0  0  0  0
  151.4552  141.4515  157.3542 N   0  0  0  0  0  0  0  0  0  0  0  0
  150.9604  140.9264  156.0709 C   0  0  0  0  0  0  0  0  0  0  0  0
  149.4436  141.1024  155.9384 C   0  0  0  0  0  0  0  0  0  0  0  0
  148.7171  140.9825  156.9249 O   0  0  0  0  0  0  0  0  0  0  0  0
  148.9813  141.3634  154.7068 N   0  0  0  0  0  0  0  0  0  0  0  0
  147.5745  141.4169  154.3244 C   0  0  0  0  0  0  0  0  0  0  0  0
  146.9427  140.0108  154.3032 C   0  0  1  0  0  0  0  0  0  0  0  0
  147.4922  139.1021  153.1752 C   0  0  0  0  0  0  0  0  0  0  0  0
  146.9408  137.7256  153.2526 N   0  3  2  0  0  0  0  0  0  0  0  0
  145.5622  137.5811  152.7116 C   0  0  0  0  0  0  0  0  0  0  0  0
  145.2024  136.1157  152.3817 C   0  0  0  0  0  0  0  0  0  0  0  0
  145.6518  135.7538  150.9586 C   0  0  0  0  0  0  0  0  0  0  0  0
  143.7001  135.8405  152.5577 C   0  0  0  0  0  0  0  0  0  0  0  0
  147.1153  137.1691  154.6160 C   0  0  0  0  0  0  0  0  0  0  0  0
  146.5654  138.1293  155.6848 C   0  0  0  0  0  0  0  0  0  0  0  0
  147.2071  139.3925  155.5579 O   0  0  0  0  0  0  0  0  0  0  0  0
  152.3885  140.7617  158.0788 C   0  0  0  0  0  0  0  0  0  0  0  0
  152.8567  139.6892  157.6940 O   0  0  0  0  0  0  0  0  0  0  0  0
  152.7900  141.3739  159.3501 C   0  0  0  0  0  0  0  0  0  0  0  0
  152.4098  144.1745  161.2008 H   0  0  0  0  0  0  0  0  0  0  0  0
  153.8051  143.0932  161.2064 H   0  0  0  0  0  0  0  0  0  0  0  0
  152.2810  142.5733  161.9388 H   0  0  0  0  0  0  0  0  0  0  0  0
  150.8556  144.1558  159.2937 H   0  0  0  0  0  0  0  0  0  0  0  0
  150.1818  143.1201  157.1548 H   0  0  0  0  0  0  0  0  0  0  0  0
  151.4375  141.4309  155.2297 H   0  0  0  0  0  0  0  0  0  0  0  0
  151.2333  139.8741  155.9691 H   0  0  0  0  0  0  0  0  0  0  0  0
  149.6567  141.4620  153.9624 H   0  0  0  0  0  0  0  0  0  0  0  0
  147.0101  142.0891  154.9729 H   0  0  0  0  0  0  0  0  0  0  0  0
  147.5299  141.8486  153.3242 H   0  0  0  0  0  0  0  0  0  0  0  0
  145.8632  140.1305  154.1994 H   0  0  0  0  0  0  0  0  0  0  0  0
  147.2900  139.5281  152.1947 H   0  0  0  0  0  0  0  0  0  0  0  0
  148.5778  139.0374  153.2606 H   0  0  0  0  0  0  0  0  0  0  0  0
  144.8409  137.9514  153.4416 H   0  0  0  0  0  0  0  0  0  0  0  0
  145.4413  138.2099  151.8295 H   0  0  0  0  0  0  0  0  0  0  0  0
  145.7396  135.4522  153.0577 H   0  0  0  0  0  0  0  0  0  0  0  0
  145.1538  136.3759  150.2142 H   0  0  0  0  0  0  0  0  0  0  0  0
  145.4259  134.7124  150.7274 H   0  0  0  0  0  0  0  0  0  0  0  0
  146.7274  135.8877  150.8399 H   0  0  0  0  0  0  0  0  0  0  0  0
  143.1006  136.4713  151.9005 H   0  0  0  0  0  0  0  0  0  0  0  0
  143.3776  136.0250  153.5826 H   0  0  0  0  0  0  0  0  0  0  0  0
  143.4630  134.8015  152.3266 H   0  0  0  0  0  0  0  0  0  0  0  0
  146.6491  136.1866  154.6964 H   0  0  0  0  0  0  0  0  0  0  0  0
  148.1815  137.0150  154.7875 H   0  0  0  0  0  0  0  0  0  0  0  0
  145.4835  138.2409  155.5990 H   0  0  0  0  0  0  0  0  0  0  0  0
  146.7640  137.7333  156.6807 H   0  0  0  0  0  0  0  0  0  0  0  0
  153.5238  140.8628  159.9563 H   0  0  0  0  0  0  0  0  0  0  0  0
  147.5143  137.1520  152.6504 H   0  0  0  0  0  0  0  0  0  0  0  0
  1  2  1  0  0  0  0
  1 24  1  0  0  0  0
  1 25  1  0  0  0  0
  1 26  1  0  0  0  0
  2 23  2  0  0  0  0
  2  3  1  0  0  0  0
  3  4  2  0  0  0  0
  3 27  1  0  0  0  0
  4  5  1  0  0  0  0
  4 28  1  0  0  0  0
  5  6  1  0  0  0  0
  5 21  1  0  0  0  0
  6  7  1  0  0  0  0
  6 29  1  0  0  0  0
  6 30  1  0  0  0  0
  7  8  2  0  0  0  0
  7  9  1  0  0  0  0
  9 10  1  0  0  0  0
  9 31  1  0  0  0  0
 10 11  1  0  0  0  0
 10 32  1  0  0  0  0
 10 33  1  0  0  0  0
 11 20  1  0  0  0  0
 11 12  1  0  0  0  0
 11 34  1  0  0  0  0
 12 13  1  0  0  0  0
 12 35  1  0  0  0  0
 12 36  1  0  0  0  0
 13 14  1  0  0  0  0
 13 18  1  0  0  0  0
 13 51  1  0  0  0  0
 14 15  1  0  0  0  0
 14 37  1  0  0  0  0
 14 38  1  0  0  0  0
 15 16  1  0  0  0  0
 15 17  1  0  0  0  0
 15 39  1  0  0  0  0
 16 40  1  0  0  0  0
 16 41  1  0  0  0  0
 16 42  1  0  0  0  0
 17 43  1  0  0  0  0
 17 44  1  0  0  0  0
 17 45  1  0  0  0  0
 18 19  1  0  0  0  0
 18 46  1  0  0  0  0
 18 47  1  0  0  0  0
 19 20  1  0  0  0  0
 19 48  1  0  0  0  0
 19 49  1  0  0  0  0
 21 22  2  0  0  0  0
 21 23  1  0  0  0  0
 23 50  1  0  0  0  0
M  CHG  1  13   1
M  END
> <s_m_source_file>
AV-unprocessed.smi

> <i_m_source_file_index>
712

> <i_lp_mmshare_version>
43012

> <i_f3d_flags>
0

> <s_epik_input>
W0NIM11jMVtjSF1bY0hdbihjKD1PKVtjSF0xKVtDSDJdQyg9TylbTkhdW0NIMl1bQ0BASF0yW0NIMl1OKFtDSDJdW0NIMl1PMilbQ0gyXVtDSF0oW0NIM10pW0NIM10=

> <s_epik_cmdline>
J2VwaWtfcHl0aG9uJywgJy1waCcsICc3LjAnLCAnLXRuJywgJzgnLCAnLW1hJywgJzIwMCcsICctbWV0YWxfYmluZGluZycsICctaW1hZScsICc8aW5maWxlLm1hZT4nLCAnLW9tYWUnLCAnPG91dGZpbGUubWFlPic=

> <r_lp_tautomer_probability>
1

> <r_epik_Ionization_Penalty>
0.0975935

> <r_epik_Ionization_Penalty_Charging>
0.0975934

> <r_epik_Ionization_Penalty_Neutral>
6.27044e-08

> <r_epik_State_Penalty>
0.0877056

> <r_epik_Charging_Adjusted_Penalty>
0.185299

> <i_epik_Tot_Q>
1

> <i_epik_Tot_abs_Q>
1

> <r_epik_Metal_State_Penalty>
0.0877109

> <b_epik_Metal_Only>
0

> <s_lp_Force_Field>
OPLS_2005

> <r_lp_Energy>
28.3742

> <b_lp_Chiralities_Consistent>
1

> <s_lp_Variant>
AV-unprocessed.smi:712-2

> <Gold.Version>
5.8.1

> <Gold.Id.Protein>
6NUR|6NUR_protein|mol2

> <Gold.PLP.Fitness>
49.4647

> <Gold.PLP.PLP>
-39.6367

> <Gold.PLP.part.hbond>
-2.0000

> <Gold.PLP.part.metal>
0.0000

> <Gold.PLP.part.buried>
-3.9407

> <Gold.PLP.part.nonpolar>
-34.0303

> <Gold.PLP.part.repulsive>
0.3288

> <Gold.PLP.ligand.clash>
0.0000

> <Gold.PLP.ligand.torsion>
1.1466

> <Gold.PLP.Chemscore.Hbond>
3.0000

> <Gold.PLP.Chemscore.CHOScore>
1.0000

> <Gold.PLP.Chemscore.Metal>
0.0000

> <Gold.Chemscore.Hbonds>
donor molecule, donor type, donor heavy atom, donor atom, acceptor molecule, acceptor atom, score
      L1  H    13    51       P1  7948  2.00
      P1  H  7997  8008       L1    22  1.00
      L1  C     4    28       P1  8028  0.98

> <Gold.PLP.Chemscore.Internal.Correction>
0.1210

> <Gold.Rescore>
     Score         DG    S(hbond)    S(metal)    S(lipo)     H(rot)  DE(clash)    DE(int)     intcor
     12.91     -18.70       1.93        0.00      99.24       1.89       0.55       5.24       ----

> <Gold.Chemscore.Fitness>
12.9077

> <Gold.Chemscore.DG>
-18.6980

> <Gold.Chemscore.ZeroCoef>
-5.4800

> <Gold.Chemscore.Hbond>
1.9273

> <Gold.Chemscore.Metal>
0.0000

> <Gold.Chemscore.Lipo>
99.2449

> <Gold.Chemscore.Internal_Hbond>
0.0000

> <Gold.Chemscore.DEClash>
0.5504

> <Gold.Chemscore.DEInternal>
5.2399

> <Gold.Chemscore.Rot>
1.8871

> <Gold.Chemscore.Internal.Correction>
   9.000000E+99

> <Gold.Chemscore.Hbonds>
donor molecule, donor type, donor heavy atom, donor atom, acceptor molecule, acceptor atom, score
      L1  H    13    51       P1  7948  1.00
      P1  H  7997  8008       L1    22  0.60

> <Gold.Chemscore.Hbond.Weighted>
-6.4373

> <Gold.Chemscore.Metal.Weighted>
-0.0000

> <Gold.Chemscore.Lipo.Weighted>
-11.6116

> <Gold.Chemscore.Internal_Hbond.Weighted>
0.0000

> <Gold.Chemscore.DEClash.Weighted>
0.5504

> <Gold.Chemscore.DEInternal.Weighted>
5.2399

> <Gold.Chemscore.Rot.Weighted>
4.8309

> <Gold.Chemscore.Internal.Correction.Weighted>
   9.000000E+99

> <Gold.Protein.RotatedTorsions>
[ 6907 6896 6895 6894 ] final -162.03 input  -60.11 | X-H torsion
[ 7974 7965 7964 7962 ] final  171.11 input  175.53 | X-H torsion
[ 8008 7997 7996 7995 ] final  -77.72 input   59.86 | X-H torsion
[ 10167 10162 10161 10158 ] final   26.24 input  -65.29 | X-H torsion
[ 10718 10713 10712 10709 ] final -158.41 input   66.30 | X-H torsion
[ 10763 10752 10751 10750 ] final  173.16 input  -60.55 | X-H torsion
[ 11005 11000 10999 10996 ] final -149.04 input  -57.11 | X-H torsion

> <Gold.Protein.ActiveResidues>
 VAL166  LYS551  ARG553  GLY616  TRP617  ASP618  TYR619  PRO620  LYS621  CYS622 
 ASP623  PHE694  ASN695  SER759  ASP760  ASP761  ALA762  ILE779  LEU786  VAL792 
 PHE793  MET794  SER795  GLU796  ALA797  LYS798  CYS799  TRP800  GLU811  SER814 

> <Gold.Protein.RotatedAtoms>
  151.3740  133.3845  159.2702 H   0  0  0  0  0  0  0  0  0  0  0  0  # atno 6907 bound_to 6896
  150.9629  134.9015  159.7752 H   0  0  0  0  0  0  0  0  0  0  0  0  # atno 6908 bound_to 6896
  152.5156  134.3699  159.9367 H   0  0  0  0  0  0  0  0  0  0  0  0  # atno 6909 bound_to 6896
  144.7304  139.9301  143.6424 H   0  0  0  0  0  0  0  0  0  0  0  0  # atno 7974 bound_to 7965
  154.5622  140.0706  156.8837 H   0  0  0  0  0  0  0  0  0  0  0  0  # atno 8008 bound_to 7997
  155.2789  140.3370  155.4241 H   0  0  0  0  0  0  0  0  0  0  0  0  # atno 8009 bound_to 7997
  156.2052  140.1737  156.7801 H   0  0  0  0  0  0  0  0  0  0  0  0  # atno 8010 bound_to 7997
  140.5039  144.0270  150.6344 H   0  0  0  0  0  0  0  0  0  0  0  0  # atno 10167 bound_to 10162
  156.5538  130.8617  151.2788 H   0  0  0  0  0  0  0  0  0  0  0  0  # atno 10718 bound_to 10713
  154.4362  135.2761  155.1878 H   0  0  0  0  0  0  0  0  0  0  0  0  # atno 10763 bound_to 10752
  154.3764  135.6097  153.5771 H   0  0  0  0  0  0  0  0  0  0  0  0  # atno 10764 bound_to 10752
  152.9838  135.5869  154.4682 H   0  0  0  0  0  0  0  0  0  0  0  0  # atno 10765 bound_to 10752
  140.7549  134.3364  157.5116 H   0  0  0  0  0  0  0  0  0  0  0  0  # atno 11005 bound_to 11000
  146.0864  139.3852  143.0433 LP  0  0  0  0  0  0  0  0  0  0  0  0  # atno 17320 bound_to 7965
  145.7771  140.9872  143.1119 LP  0  0  0  0  0  0  0  0  0  0  0  0  # atno 17321 bound_to 7965
  140.3574  143.2928  152.0421 LP  0  0  0  0  0  0  0  0  0  0  0  0  # atno 17342 bound_to 10162
  139.4879  144.6329  151.7034 LP  0  0  0  0  0  0  0  0  0  0  0  0  # atno 17343 bound_to 10162
  157.7382  130.9809  150.2239 LP  0  0  0  0  0  0  0  0  0  0  0  0  # atno 17370 bound_to 10713
  156.2861  130.3739  149.7888 LP  0  0  0  0  0  0  0  0  0  0  0  0  # atno 17371 bound_to 10713
  139.8781  134.9165  156.3157 LP  0  0  0  0  0  0  0  0  0  0  0  0  # atno 17394 bound_to 11000
  140.9716  133.7323  156.0543 LP  0  0  0  0  0  0  0  0  0  0  0  0  # atno 17395 bound_to 11000

$$$$
