AV-unprocessed.smi:3075|AV-procd|sdf|11724|dock9
  -GOLD-   2272017123D 1   1.00000     0.00000
 Structure written by MMmdl.
 29 30  0  0  0  0  0  0  0  0  1 V2000
  153.8007  139.6344  158.6529 N   0  0  0  0  0  0  0  0  0  0  0  0
  152.4228  140.0359  158.8577 C   0  0  0  0  0  0  0  0  0  0  0  0
  152.1950  141.5146  158.5805 C   0  0  0  0  0  0  0  0  0  0  0  0
  152.7247  142.4663  159.4777 C   0  0  0  0  0  0  0  0  0  0  0  0
  152.5004  143.8346  159.2425 C   0  0  0  0  0  0  0  0  0  0  0  0
  151.7471  144.2001  158.1127 C   0  0  0  0  0  0  0  0  0  0  0  0
  151.2352  143.3033  157.2448 N   0  0  0  0  0  0  0  0  0  0  0  0
  151.4511  141.9823  157.4631 C   0  0  0  0  0  0  0  0  0  0  0  0
  150.9277  141.0778  156.5204 N   0  0  0  0  0  0  0  0  0  0  0  0
  149.9706  141.6100  155.5553 C   0  0  0  0  0  0  0  0  0  0  0  0
  149.3554  140.4593  154.7408 C   0  0  0  0  0  0  0  0  0  0  0  0
  150.3938  139.7102  154.1152 O   0  0  0  0  0  0  0  0  0  0  0  0
  151.2855  139.1334  155.0652 C   0  0  0  0  0  0  0  0  0  0  0  0
  151.9484  140.2449  155.8970 C   0  0  0  0  0  0  0  0  0  0  0  0
  154.2629  140.3150  158.0669 H   0  0  0  0  0  0  0  0  0  0  0  0
  154.2883  139.6538  159.5371 H   0  0  0  0  0  0  0  0  0  0  0  0
  151.7713  139.4096  158.2487 H   0  0  0  0  0  0  0  0  0  0  0  0
  152.1572  139.8327  159.8956 H   0  0  0  0  0  0  0  0  0  0  0  0
  153.2949  142.1506  160.3392 H   0  0  0  0  0  0  0  0  0  0  0  0
  152.8936  144.5844  159.9128 H   0  0  0  0  0  0  0  0  0  0  0  0
  151.5516  145.2404  157.8984 H   0  0  0  0  0  0  0  0  0  0  0  0
  149.1875  142.1625  156.0760 H   0  0  0  0  0  0  0  0  0  0  0  0
  150.4708  142.3081  154.8825 H   0  0  0  0  0  0  0  0  0  0  0  0
  148.7556  139.8079  155.3786 H   0  0  0  0  0  0  0  0  0  0  0  0
  148.6903  140.8552  153.9732 H   0  0  0  0  0  0  0  0  0  0  0  0
  150.7463  138.4362  155.7089 H   0  0  0  0  0  0  0  0  0  0  0  0
  152.0445  138.5567  154.5361 H   0  0  0  0  0  0  0  0  0  0  0  0
  152.5752  140.8672  155.2568 H   0  0  0  0  0  0  0  0  0  0  0  0
  152.6012  139.8057  156.6507 H   0  0  0  0  0  0  0  0  0  0  0  0
  1  2  1  0  0  0  0
  1 15  1  0  0  0  0
  1 16  1  0  0  0  0
  2  3  1  0  0  0  0
  2 17  1  0  0  0  0
  2 18  1  0  0  0  0
  3  8  1  0  0  0  0
  3  4  2  0  0  0  0
  4  5  1  0  0  0  0
  4 19  1  0  0  0  0
  5  6  2  0  0  0  0
  5 20  1  0  0  0  0
  6  7  1  0  0  0  0
  6 21  1  0  0  0  0
  7  8  2  0  0  0  0
  8  9  1  0  0  0  0
  9 14  1  0  0  0  0
  9 10  1  0  0  0  0
 10 11  1  0  0  0  0
 10 22  1  0  0  0  0
 10 23  1  0  0  0  0
 11 12  1  0  0  0  0
 11 24  1  0  0  0  0
 11 25  1  0  0  0  0
 12 13  1  0  0  0  0
 13 14  1  0  0  0  0
 13 26  1  0  0  0  0
 13 27  1  0  0  0  0
 14 28  1  0  0  0  0
 14 29  1  0  0  0  0
M  END
> <s_m_source_file>
AV-unprocessed.smi

> <i_m_source_file_index>
3075

> <i_lp_mmshare_version>
43012

> <i_f3d_flags>
0

> <s_epik_input>
W05IMl1bQ0gyXWMxW2NIXVtjSF1bY0hdbmMxTjJbQ0gyXVtDSDJdT1tDSDJdW0NIMl0y

> <s_epik_cmdline>
J2VwaWtfcHl0aG9uJywgJy1waCcsICc3LjAnLCAnLXRuJywgJzgnLCAnLW1hJywgJzIwMCcsICctbWV0YWxfYmluZGluZycsICctaW1hZScsICc8aW5maWxlLm1hZT4nLCAnLW9tYWUnLCAnPG91dGZpbGUubWFlPic=

> <r_lp_tautomer_probability>
1

> <r_epik_Ionization_Penalty>
1.38161

> <r_epik_Ionization_Penalty_Charging>
0

> <r_epik_Ionization_Penalty_Neutral>
1.38161

> <r_epik_State_Penalty>
1.45585

> <r_epik_Charging_Adjusted_Penalty>
1.45585

> <i_epik_Tot_Q>
0

> <i_epik_Tot_abs_Q>
0

> <r_epik_Metal_State_Penalty>
1.45048

> <b_epik_Metal_Only>
0

> <s_lp_Force_Field>
OPLS_2005

> <r_lp_Energy>
18.9945

> <b_lp_Chiralities_Consistent>
1

> <s_lp_Variant>
AV-unprocessed.smi:3075-2

> <Gold.Version>
5.8.1

> <Gold.Id.Protein>
6NUR|6NUR_protein|mol2

> <Gold.PLP.Fitness>
34.2879

> <Gold.PLP.PLP>
-32.0176

> <Gold.PLP.part.hbond>
-2.0000

> <Gold.PLP.part.metal>
0.0000

> <Gold.PLP.part.buried>
-4.1314

> <Gold.PLP.part.nonpolar>
-26.2722

> <Gold.PLP.part.repulsive>
0.6411

> <Gold.PLP.ligand.clash>
0.0000

> <Gold.PLP.ligand.torsion>
0.2284

> <Gold.PLP.Chemscore.Hbond>
0.8500

> <Gold.PLP.Chemscore.CHOScore>
0.0000

> <Gold.PLP.Chemscore.Metal>
0.0000

> <Gold.Chemscore.Hbonds>
donor molecule, donor type, donor heavy atom, donor atom, acceptor molecule, acceptor atom, score
      P1  H  7989  7998       L1    12  0.70

> <Gold.PLP.Chemscore.Internal.Correction>
0.1771

> <Gold.Rescore>
     Score         DG    S(hbond)    S(metal)    S(lipo)     H(rot)  DE(clash)    DE(int)     intcor
     12.37     -13.53       0.51        0.00      82.45       1.29       0.08       1.08       ----

> <Gold.Chemscore.Fitness>
12.3717

> <Gold.Chemscore.DG>
-13.5309

> <Gold.Chemscore.ZeroCoef>
-5.4800

> <Gold.Chemscore.Hbond>
0.5090

> <Gold.Chemscore.Metal>
0.0000

> <Gold.Chemscore.Lipo>
82.4524

> <Gold.Chemscore.Internal_Hbond>
0.0000

> <Gold.Chemscore.DEClash>
0.0776

> <Gold.Chemscore.DEInternal>
1.0817

> <Gold.Chemscore.Rot>
1.2875

> <Gold.Chemscore.Internal.Correction>
   9.000000E+99

> <Gold.Chemscore.Hbonds>
donor molecule, donor type, donor heavy atom, donor atom, acceptor molecule, acceptor atom, score
      P1  H  7989  7998       L1    12  0.05

> <Gold.Chemscore.Hbond.Weighted>
-1.7000

> <Gold.Chemscore.Metal.Weighted>
-0.0000

> <Gold.Chemscore.Lipo.Weighted>
-9.6469

> <Gold.Chemscore.Internal_Hbond.Weighted>
0.0000

> <Gold.Chemscore.DEClash.Weighted>
0.0776

> <Gold.Chemscore.DEInternal.Weighted>
1.0817

> <Gold.Chemscore.Rot.Weighted>
3.2961

> <Gold.Chemscore.Internal.Correction.Weighted>
   9.000000E+99

> <Gold.Protein.RotatedTorsions>
[ 6907 6896 6895 6894 ] final  -96.86 input  -60.11 | X-H torsion
[ 7974 7965 7964 7962 ] final -100.89 input  175.53 | X-H torsion
[ 8008 7997 7996 7995 ] final  -57.01 input   59.86 | X-H torsion
[ 10167 10162 10161 10158 ] final   56.43 input  -65.29 | X-H torsion
[ 10718 10713 10712 10709 ] final -119.17 input   66.30 | X-H torsion
[ 10763 10752 10751 10750 ] final   88.10 input  -60.55 | X-H torsion
[ 11005 11000 10999 10996 ] final -111.10 input  -57.11 | X-H torsion

> <Gold.Protein.ActiveResidues>
 VAL166  LYS551  ARG553  GLY616  TRP617  ASP618  TYR619  PRO620  LYS621  CYS622 
 ASP623  PHE694  ASN695  SER759  ASP760  ASP761  ALA762  ILE779  LEU786  VAL792 
 PHE793  MET794  SER795  GLU796  ALA797  LYS798  CYS799  TRP800  GLU811  SER814 

> <Gold.Protein.RotatedAtoms>
  150.7000  134.1437  159.4114 H   0  0  0  0  0  0  0  0  0  0  0  0  # atno 6907 bound_to 6896
  151.9421  135.0206  160.0546 H   0  0  0  0  0  0  0  0  0  0  0  0  # atno 6908 bound_to 6896
  152.2084  133.4858  159.5133 H   0  0  0  0  0  0  0  0  0  0  0  0  # atno 6909 bound_to 6896
  145.2886  140.9346  143.2890 H   0  0  0  0  0  0  0  0  0  0  0  0  # atno 7974 bound_to 7965
  154.4252  140.1116  156.5730 H   0  0  0  0  0  0  0  0  0  0  0  0  # atno 8008 bound_to 7997
  155.6192  140.3495  155.4628 H   0  0  0  0  0  0  0  0  0  0  0  0  # atno 8009 bound_to 7997
  156.0037  140.1204  157.0512 H   0  0  0  0  0  0  0  0  0  0  0  0  # atno 8010 bound_to 7997
  140.2088  144.3910  150.6497 H   0  0  0  0  0  0  0  0  0  0  0  0  # atno 10167 bound_to 10162
  156.1161  130.6286  150.9382 H   0  0  0  0  0  0  0  0  0  0  0  0  # atno 10718 bound_to 10713
  153.1734  135.4519  154.9933 H   0  0  0  0  0  0  0  0  0  0  0  0  # atno 10763 bound_to 10752
  154.7982  135.3245  154.7619 H   0  0  0  0  0  0  0  0  0  0  0  0  # atno 10764 bound_to 10752
  153.8092  135.6956  153.4898 H   0  0  0  0  0  0  0  0  0  0  0  0  # atno 10765 bound_to 10752
  141.0754  133.9310  157.2401 H   0  0  0  0  0  0  0  0  0  0  0  0  # atno 11005 bound_to 11000
  144.9192  139.4433  143.6549 LP  0  0  0  0  0  0  0  0  0  0  0  0  # atno 17320 bound_to 7965
  146.3192  139.8042  142.8959 LP  0  0  0  0  0  0  0  0  0  0  0  0  # atno 17321 bound_to 7965
  140.6338  143.2191  151.6439 LP  0  0  0  0  0  0  0  0  0  0  0  0  # atno 17342 bound_to 10162
  139.5188  144.3274  152.0857 LP  0  0  0  0  0  0  0  0  0  0  0  0  # atno 17343 bound_to 10162
  157.6344  131.0917  150.8378 LP  0  0  0  0  0  0  0  0  0  0  0  0  # atno 17370 bound_to 10713
  156.8481  130.5071  149.5314 LP  0  0  0  0  0  0  0  0  0  0  0  0  # atno 17371 bound_to 10713
  139.9566  135.0164  156.9145 LP  0  0  0  0  0  0  0  0  0  0  0  0  # atno 17394 bound_to 11000
  140.5585  134.0558  155.7391 LP  0  0  0  0  0  0  0  0  0  0  0  0  # atno 17395 bound_to 11000

$$$$
