AV-unprocessed.smi:2909|AV-procd|sdf|11171|dock4
  -GOLD-   2272016 63D 1   1.00000     0.00000
 Structure written by MMmdl.
 44 45  0  0  0  0  0  0  0  0  1 V2000
  146.5090  143.0610  153.7854 C   0  0  0  0  0  0  0  0  0  0  0  0
  147.1509  141.7173  153.8580 C   0  0  0  0  0  0  0  0  0  0  0  0
  148.4048  141.3339  154.2422 C   0  0  0  0  0  0  0  0  0  0  0  0
  148.4019  139.9147  154.0946 C   0  0  0  0  0  0  0  0  0  0  0  0
  149.5229  138.9503  154.3768 C   0  0  0  0  0  0  0  0  0  0  0  0
  150.6560  139.6653  155.1130 C   0  0  0  0  0  0  0  0  0  0  0  0
  151.7923  139.6690  154.6394 O   0  0  0  0  0  0  0  0  0  0  0  0
  150.3350  140.2607  156.2728 N   0  0  0  0  0  0  0  0  0  0  0  0
  151.2679  140.9671  157.1445 C   0  0  2  0  0  0  0  0  0  0  0  0
  151.4857  140.1841  158.4505 C   0  0  0  0  0  0  0  0  0  0  0  0
  152.4087  140.9429  159.4167 C   0  0  0  0  0  0  0  0  0  0  0  0
  151.8933  142.3670  159.7418 C   0  0  1  0  0  0  0  0  0  0  0  0
  152.8468  143.1339  160.7054 C   0  0  0  0  0  0  0  0  0  0  0  0
  153.3267  142.2640  161.8838 C   0  0  0  0  0  0  0  0  0  0  0  0
  152.2177  144.4234  161.2679 C   0  0  0  0  0  0  0  0  0  0  0  0
  151.6517  143.1318  158.4167 C   0  0  0  0  0  0  0  0  0  0  0  0
  150.7252  142.3694  157.4561 C   0  0  0  0  0  0  0  0  0  0  0  0
  147.2402  139.4576  153.6481 N   0  0  0  0  0  0  0  0  0  0  0  0
  146.4864  140.5637  153.5112 N   0  0  0  0  0  0  0  0  0  0  0  0
  145.5319  140.5171  153.1836 H   0  0  0  0  0  0  0  0  0  0  0  0
  147.2599  143.8459  153.6928 H   0  0  0  0  0  0  0  0  0  0  0  0
  145.9238  143.2578  154.6836 H   0  0  0  0  0  0  0  0  0  0  0  0
  145.8431  143.1305  152.9248 H   0  0  0  0  0  0  0  0  0  0  0  0
  149.2069  141.9716  154.5833 H   0  0  0  0  0  0  0  0  0  0  0  0
  149.1743  138.1115  154.9812 H   0  0  0  0  0  0  0  0  0  0  0  0
  149.9010  138.5237  153.4470 H   0  0  0  0  0  0  0  0  0  0  0  0
  149.3762  140.2040  156.5843 H   0  0  0  0  0  0  0  0  0  0  0  0
  152.2250  141.0780  156.6312 H   0  0  0  0  0  0  0  0  0  0  0  0
  150.5262  140.0004  158.9362 H   0  0  0  0  0  0  0  0  0  0  0  0
  151.9134  139.2043  158.2342 H   0  0  0  0  0  0  0  0  0  0  0  0
  152.4967  140.3475  160.3244 H   0  0  0  0  0  0  0  0  0  0  0  0
  153.4097  141.0034  158.9878 H   0  0  0  0  0  0  0  0  0  0  0  0
  150.9291  142.2632  160.2420 H   0  0  0  0  0  0  0  0  0  0  0  0
  153.7326  143.4287  160.1412 H   0  0  0  0  0  0  0  0  0  0  0  0
  152.4851  141.8494  162.4395 H   0  0  0  0  0  0  0  0  0  0  0  0
  153.9283  142.8459  162.5829 H   0  0  0  0  0  0  0  0  0  0  0  0
  153.9550  141.4373  161.5543 H   0  0  0  0  0  0  0  0  0  0  0  0
  151.2666  144.2190  161.7606 H   0  0  0  0  0  0  0  0  0  0  0  0
  152.0443  145.1670  160.4909 H   0  0  0  0  0  0  0  0  0  0  0  0
  152.8738  144.8938  162.0009 H   0  0  0  0  0  0  0  0  0  0  0  0
  151.1998  144.1039  158.6088 H   0  0  0  0  0  0  0  0  0  0  0  0
  152.6057  143.3250  157.9242 H   0  0  0  0  0  0  0  0  0  0  0  0
  150.6098  142.9377  156.5323 H   0  0  0  0  0  0  0  0  0  0  0  0
  149.7307  142.2935  157.8984 H   0  0  0  0  0  0  0  0  0  0  0  0
  1  2  1  0  0  0  0
  1 21  1  0  0  0  0
  1 22  1  0  0  0  0
  1 23  1  0  0  0  0
  2 19  1  0  0  0  0
  2  3  2  0  0  0  0
  3  4  1  0  0  0  0
  3 24  1  0  0  0  0
  4  5  1  0  0  0  0
  4 18  2  0  0  0  0
  5  6  1  0  0  0  0
  5 25  1  0  0  0  0
  5 26  1  0  0  0  0
  6  7  2  0  0  0  0
  6  8  1  0  0  0  0
  8  9  1  0  0  0  0
  8 27  1  0  0  0  0
  9 17  1  0  0  0  0
  9 10  1  0  0  0  0
  9 28  1  0  0  0  0
 10 11  1  0  0  0  0
 10 29  1  0  0  0  0
 10 30  1  0  0  0  0
 11 12  1  0  0  0  0
 11 31  1  0  0  0  0
 11 32  1  0  0  0  0
 12 13  1  0  0  0  0
 12 16  1  0  0  0  0
 12 33  1  0  0  0  0
 13 14  1  0  0  0  0
 13 15  1  0  0  0  0
 13 34  1  0  0  0  0
 14 35  1  0  0  0  0
 14 36  1  0  0  0  0
 14 37  1  0  0  0  0
 15 38  1  0  0  0  0
 15 39  1  0  0  0  0
 15 40  1  0  0  0  0
 16 17  1  0  0  0  0
 16 41  1  0  0  0  0
 16 42  1  0  0  0  0
 17 43  1  0  0  0  0
 17 44  1  0  0  0  0
 18 19  1  0  0  0  0
 19 20  1  0  0  0  0
M  END
> <s_m_source_file>
AV-unprocessed.smi

> <i_m_source_file_index>
2909

> <i_lp_mmshare_version>
43012

> <i_f3d_flags>
0

> <s_epik_input>
W0NIM11jMVtjSF1jKG5bbkhdMSlbQ0gyXUMoPU8pW05IXVtDQEBIXTJbQ0gyXVtDSDJdW0NAQEhdKFtDSF0oW0NIM10pW0NIM10pW0NIMl1bQ0gyXTI=

> <s_epik_cmdline>
J2VwaWtfcHl0aG9uJywgJy1waCcsICc3LjAnLCAnLXRuJywgJzgnLCAnLW1hJywgJzIwMCcsICctbWV0YWxfYmluZGluZycsICctaW1hZScsICc8aW5maWxlLm1hZT4nLCAnLW9tYWUnLCAnPG91dGZpbGUubWFlPic=

> <r_lp_tautomer_probability>
0.5

> <r_epik_Ionization_Penalty>
9.34828e-05

> <r_epik_Ionization_Penalty_Charging>
0

> <r_epik_Ionization_Penalty_Neutral>
9.34828e-05

> <r_epik_State_Penalty>
0.41068

> <r_epik_Charging_Adjusted_Penalty>
0.41068

> <i_epik_Tot_Q>
0

> <i_epik_Tot_abs_Q>
0

> <r_epik_Metal_State_Penalty>
0.4107

> <b_epik_Metal_Only>
0

> <s_lp_Force_Field>
OPLS_2005

> <r_lp_Energy>
11.82

> <b_lp_Chiralities_Consistent>
1

> <s_lp_Variant>
AV-unprocessed.smi:2909-1

> <Gold.Version>
5.8.1

> <Gold.Id.Protein>
6NUR|6NUR_protein|mol2

> <Gold.PLP.Fitness>
49.0071

> <Gold.PLP.PLP>
-43.6354

> <Gold.PLP.part.hbond>
-2.0000

> <Gold.PLP.part.metal>
0.0000

> <Gold.PLP.part.buried>
-4.8261

> <Gold.PLP.part.nonpolar>
-36.6077

> <Gold.PLP.part.repulsive>
0.3210

> <Gold.PLP.ligand.clash>
0.0000

> <Gold.PLP.ligand.torsion>
0.3251

> <Gold.PLP.Chemscore.Hbond>
2.0000

> <Gold.PLP.Chemscore.CHOScore>
0.0000

> <Gold.PLP.Chemscore.Metal>
0.0000

> <Gold.Chemscore.Hbonds>
donor molecule, donor type, donor heavy atom, donor atom, acceptor molecule, acceptor atom, score
      L1  H    19    20       P1 10175  1.00
      P1  H  7989  7998       L1     7  1.00

> <Gold.PLP.Chemscore.Internal.Correction>
0.0218

> <Gold.Rescore>
     Score         DG    S(hbond)    S(metal)    S(lipo)     H(rot)  DE(clash)    DE(int)     intcor
     20.95     -21.32       1.88        0.00     114.50       1.50       0.01       0.36       ----

> <Gold.Chemscore.Fitness>
20.9472

> <Gold.Chemscore.DG>
-21.3187

> <Gold.Chemscore.ZeroCoef>
-5.4800

> <Gold.Chemscore.Hbond>
1.8817

> <Gold.Chemscore.Metal>
0.0000

> <Gold.Chemscore.Lipo>
114.5023

> <Gold.Chemscore.Internal_Hbond>
0.0000

> <Gold.Chemscore.DEClash>
0.0119

> <Gold.Chemscore.DEInternal>
0.3595

> <Gold.Chemscore.Rot>
1.5011

> <Gold.Chemscore.Internal.Correction>
   9.000000E+99

> <Gold.Chemscore.Hbonds>
donor molecule, donor type, donor heavy atom, donor atom, acceptor molecule, acceptor atom, score
      L1  H    19    20       P1 10175  0.89
      P1  H  7989  7998       L1     7  0.33

> <Gold.Chemscore.Hbond.Weighted>
-6.2848

> <Gold.Chemscore.Metal.Weighted>
-0.0000

> <Gold.Chemscore.Lipo.Weighted>
-13.3968

> <Gold.Chemscore.Internal_Hbond.Weighted>
0.0000

> <Gold.Chemscore.DEClash.Weighted>
0.0119

> <Gold.Chemscore.DEInternal.Weighted>
0.3595

> <Gold.Chemscore.Rot.Weighted>
3.8429

> <Gold.Chemscore.Internal.Correction.Weighted>
   9.000000E+99

> <Gold.Protein.RotatedTorsions>
[ 6907 6896 6895 6894 ] final  -48.23 input  -60.11 | X-H torsion
[ 7974 7965 7964 7962 ] final  -76.81 input  175.53 | X-H torsion
[ 8008 7997 7996 7995 ] final  -90.16 input   59.86 | X-H torsion
[ 10167 10162 10161 10158 ] final   70.47 input  -65.29 | X-H torsion
[ 10718 10713 10712 10709 ] final -116.85 input   66.30 | X-H torsion
[ 10763 10752 10751 10750 ] final -127.19 input  -60.55 | X-H torsion
[ 11005 11000 10999 10996 ] final -104.55 input  -57.11 | X-H torsion

> <Gold.Protein.ActiveResidues>
 VAL166  LYS551  ARG553  GLY616  TRP617  ASP618  TYR619  PRO620  LYS621  CYS622 
 ASP623  PHE694  ASN695  SER759  ASP760  ASP761  ALA762  ILE779  LEU786  VAL792 
 PHE793  MET794  SER795  GLU796  ALA797  LYS798  CYS799  TRP800  GLU811  SER814 

> <Gold.Protein.RotatedAtoms>
  150.8926  134.8331  159.7303 H   0  0  0  0  0  0  0  0  0  0  0  0  # atno 6907 bound_to 6896
  152.4846  134.4624  159.9619 H   0  0  0  0  0  0  0  0  0  0  0  0  # atno 6908 bound_to 6896
  151.4685  133.3536  159.2855 H   0  0  0  0  0  0  0  0  0  0  0  0  # atno 6909 bound_to 6896
  145.6079  140.9393  143.1205 H   0  0  0  0  0  0  0  0  0  0  0  0  # atno 7974 bound_to 7965
  154.6953  140.0533  157.0404 H   0  0  0  0  0  0  0  0  0  0  0  0  # atno 8008 bound_to 7997
  155.0760  140.3204  155.4597 H   0  0  0  0  0  0  0  0  0  0  0  0  # atno 8009 bound_to 7997
  156.2742  140.2073  156.5888 H   0  0  0  0  0  0  0  0  0  0  0  0  # atno 8010 bound_to 7997
  140.0566  144.5267  150.7324 H   0  0  0  0  0  0  0  0  0  0  0  0  # atno 10167 bound_to 10162
  156.0992  130.6158  150.9088 H   0  0  0  0  0  0  0  0  0  0  0  0  # atno 10718 bound_to 10713
  154.8751  135.3970  154.3554 H   0  0  0  0  0  0  0  0  0  0  0  0  # atno 10763 bound_to 10752
  153.4334  135.7025  153.6221 H   0  0  0  0  0  0  0  0  0  0  0  0  # atno 10764 bound_to 10752
  153.4833  135.3764  155.2423 H   0  0  0  0  0  0  0  0  0  0  0  0  # atno 10765 bound_to 10752
  141.1095  133.8733  157.1625 H   0  0  0  0  0  0  0  0  0  0  0  0  # atno 11005 bound_to 11000
  144.7282  139.7808  143.7357 LP  0  0  0  0  0  0  0  0  0  0  0  0  # atno 17320 bound_to 7965
  146.1526  139.4614  143.0039 LP  0  0  0  0  0  0  0  0  0  0  0  0  # atno 17321 bound_to 7965
  140.7191  143.2572  151.4336 LP  0  0  0  0  0  0  0  0  0  0  0  0  # atno 17342 bound_to 10162
  139.5919  144.1480  152.2099 LP  0  0  0  0  0  0  0  0  0  0  0  0  # atno 17343 bound_to 10162
  157.6159  131.0933  150.8711 LP  0  0  0  0  0  0  0  0  0  0  0  0  # atno 17370 bound_to 10713
  156.8843  130.5190  149.5289 LP  0  0  0  0  0  0  0  0  0  0  0  0  # atno 17371 bound_to 10713
  139.9981  135.0038  157.0129 LP  0  0  0  0  0  0  0  0  0  0  0  0  # atno 17394 bound_to 11000
  140.4813  134.1286  155.7217 LP  0  0  0  0  0  0  0  0  0  0  0  0  # atno 17395 bound_to 11000

$$$$
