AV-unprocessed.smi:1223|AV-procd|sdf|5127|dock4
  -GOLD-   22720 4183D 1   1.00000     0.00000
 Structure written by MMmdl.
 33 34  0  0  0  0  0  0  0  0  1 V2000
  151.2571  141.2868  157.5190 O   0  0  0  0  0  0  0  0  0  0  0  0
  150.9273  142.3451  156.9839 C   0  0  0  0  0  0  0  0  0  0  0  0
  151.5974  143.6552  157.4014 C   0  0  0  0  0  0  0  0  0  0  0  0
  151.9487  143.6420  158.8109 N   0  0  0  0  0  0  0  0  0  0  0  0
  151.6196  144.5626  159.7842 C   0  0  0  0  0  0  0  0  0  0  0  0
  152.1584  144.1221  160.9590 C   0  0  0  0  0  0  0  0  0  0  0  0
  152.8074  142.9080  160.5992 C   0  0  0  0  0  0  0  0  0  0  0  0
  152.6821  142.6241  159.3129 N   0  0  0  0  0  0  0  0  0  0  0  0
  149.9851  142.4323  156.0313 N   0  0  0  0  0  0  0  0  0  0  0  0
  149.2416  141.3137  155.4516 C   0  0  1  0  0  0  0  0  0  0  0  0
  148.3301  141.8166  154.3100 C   0  0  0  0  0  0  0  0  0  0  0  0
  147.1445  140.8879  154.0016 C   0  0  0  0  0  0  0  0  0  0  0  0
  147.5349  139.4895  153.5003 C   0  0  0  0  0  0  0  0  0  0  0  0
  148.2776  138.6433  154.5487 C   0  0  0  0  0  0  0  0  0  0  0  0
  149.6868  138.9983  154.6586 N   0  0  0  0  0  0  0  0  0  0  0  0
  150.1990  140.1764  155.0462 C   0  0  0  0  0  0  0  0  0  0  0  0
  151.4176  140.3484  155.0721 O   0  0  0  0  0  0  0  0  0  0  0  0
  152.4930  143.8208  156.8005 H   0  0  0  0  0  0  0  0  0  0  0  0
  150.9262  144.4951  157.2168 H   0  0  0  0  0  0  0  0  0  0  0  0
  151.0330  145.4419  159.5617 H   0  0  0  0  0  0  0  0  0  0  0  0
  152.0965  144.5944  161.9280 H   0  0  0  0  0  0  0  0  0  0  0  0
  153.3621  142.2289  161.2298 H   0  0  0  0  0  0  0  0  0  0  0  0
  149.7890  143.3462  155.6476 H   0  0  0  0  0  0  0  0  0  0  0  0
  148.6098  140.9098  156.2449 H   0  0  0  0  0  0  0  0  0  0  0  0
  147.9166  142.7904  154.5759 H   0  0  0  0  0  0  0  0  0  0  0  0
  148.9185  141.9850  153.4068 H   0  0  0  0  0  0  0  0  0  0  0  0
  146.5160  140.7946  154.8882 H   0  0  0  0  0  0  0  0  0  0  0  0
  146.5200  141.3650  153.2456 H   0  0  0  0  0  0  0  0  0  0  0  0
  146.6199  138.9650  153.2238 H   0  0  0  0  0  0  0  0  0  0  0  0
  148.1237  139.5643  152.5851 H   0  0  0  0  0  0  0  0  0  0  0  0
  147.7913  138.7058  155.5231 H   0  0  0  0  0  0  0  0  0  0  0  0
  148.2365  137.5945  154.2539 H   0  0  0  0  0  0  0  0  0  0  0  0
  150.3460  138.2771  154.4033 H   0  0  0  0  0  0  0  0  0  0  0  0
  1  2  2  0  0  0  0
  2  3  1  0  0  0  0
  2  9  1  0  0  0  0
  3  4  1  0  0  0  0
  3 18  1  0  0  0  0
  3 19  1  0  0  0  0
  4  8  1  0  0  0  0
  4  5  1  0  0  0  0
  5  6  2  0  0  0  0
  5 20  1  0  0  0  0
  6  7  1  0  0  0  0
  6 21  1  0  0  0  0
  7  8  2  0  0  0  0
  7 22  1  0  0  0  0
  9 10  1  0  0  0  0
  9 23  1  0  0  0  0
 10 16  1  0  0  0  0
 10 11  1  0  0  0  0
 10 24  1  0  0  0  0
 11 12  1  0  0  0  0
 11 25  1  0  0  0  0
 11 26  1  0  0  0  0
 12 13  1  0  0  0  0
 12 27  1  0  0  0  0
 12 28  1  0  0  0  0
 13 14  1  0  0  0  0
 13 29  1  0  0  0  0
 13 30  1  0  0  0  0
 14 15  1  0  0  0  0
 14 31  1  0  0  0  0
 14 32  1  0  0  0  0
 15 16  1  0  0  0  0
 15 33  1  0  0  0  0
 16 17  2  0  0  0  0
M  END
> <s_m_source_file>
AV-unprocessed.smi

> <i_m_source_file_index>
1223

> <i_lp_mmshare_version>
43012

> <i_f3d_flags>
0

> <s_epik_input>
bjFbY0hdW2NIXVtjSF1uMVtDSDJdQyg9TylbTkhdW0NAQEhdMltDSDJdW0NIMl1bQ0gyXVtDSDJdW05IXUMyPU8=

> <s_epik_cmdline>
J2VwaWtfcHl0aG9uJywgJy1waCcsICc3LjAnLCAnLXRuJywgJzgnLCAnLW1hJywgJzIwMCcsICctbWV0YWxfYmluZGluZycsICctaW1hZScsICc8aW5maWxlLm1hZT4nLCAnLW9tYWUnLCAnPG91dGZpbGUubWFlPic=

> <r_lp_tautomer_probability>
1

> <r_epik_Ionization_Penalty>
1.16214e-05

> <r_epik_Ionization_Penalty_Charging>
0

> <r_epik_Ionization_Penalty_Neutral>
1.16214e-05

> <r_epik_State_Penalty>
-0

> <r_epik_Charging_Adjusted_Penalty>
0

> <i_epik_Tot_Q>
0

> <i_epik_Tot_abs_Q>
0

> <r_epik_Metal_State_Penalty>
-0

> <b_epik_Metal_Only>
0

> <s_lp_Force_Field>
OPLS_2005

> <r_lp_Energy>
10.4026

> <b_lp_Chiralities_Consistent>
1

> <s_lp_Variant>
AV-unprocessed.smi:1223-2

> <Gold.Version>
5.8.1

> <Gold.Id.Protein>
6NUR|6NUR_protein|mol2

> <Gold.PLP.Fitness>
42.2478

> <Gold.PLP.PLP>
-37.2081

> <Gold.PLP.part.hbond>
-2.0000

> <Gold.PLP.part.metal>
0.0000

> <Gold.PLP.part.buried>
-3.8629

> <Gold.PLP.part.nonpolar>
-31.2103

> <Gold.PLP.part.repulsive>
0.2488

> <Gold.PLP.ligand.clash>
0.0000

> <Gold.PLP.ligand.torsion>
0.4829

> <Gold.PLP.Chemscore.Hbond>
1.9920

> <Gold.PLP.Chemscore.CHOScore>
0.0000

> <Gold.PLP.Chemscore.Metal>
0.0000

> <Gold.Chemscore.Hbonds>
donor molecule, donor type, donor heavy atom, donor atom, acceptor molecule, acceptor atom, score
      L1  H     9    23       P1  8028  1.00
      P1  H  7989  7998       L1    17  0.99

> <Gold.PLP.Chemscore.Internal.Correction>
0.0294

> <Gold.Rescore>
     Score         DG    S(hbond)    S(metal)    S(lipo)     H(rot)  DE(clash)    DE(int)     intcor
     12.87     -14.90       1.52        0.00      71.70       1.58       0.02       2.00       ----

> <Gold.Chemscore.Fitness>
12.8746

> <Gold.Chemscore.DG>
-14.8980

> <Gold.Chemscore.ZeroCoef>
-5.4800

> <Gold.Chemscore.Hbond>
1.5185

> <Gold.Chemscore.Metal>
0.0000

> <Gold.Chemscore.Lipo>
71.7007

> <Gold.Chemscore.Internal_Hbond>
0.0000

> <Gold.Chemscore.DEClash>
0.0186

> <Gold.Chemscore.DEInternal>
2.0048

> <Gold.Chemscore.Rot>
1.5792

> <Gold.Chemscore.Internal.Correction>
   9.000000E+99

> <Gold.Chemscore.Hbonds>
donor molecule, donor type, donor heavy atom, donor atom, acceptor molecule, acceptor atom, score
      L1  H     9    23       P1  8028  0.94
      P1  H  7989  7998       L1    17  0.24

> <Gold.Chemscore.Hbond.Weighted>
-5.0719

> <Gold.Chemscore.Metal.Weighted>
-0.0000

> <Gold.Chemscore.Lipo.Weighted>
-8.3890

> <Gold.Chemscore.Internal_Hbond.Weighted>
0.0000

> <Gold.Chemscore.DEClash.Weighted>
0.0186

> <Gold.Chemscore.DEInternal.Weighted>
2.0048

> <Gold.Chemscore.Rot.Weighted>
4.0428

> <Gold.Chemscore.Internal.Correction.Weighted>
   9.000000E+99

> <Gold.Protein.RotatedTorsions>
[ 6907 6896 6895 6894 ] final  -39.33 input  -60.11 | X-H torsion
[ 7974 7965 7964 7962 ] final  -39.17 input  175.53 | X-H torsion
[ 8008 7997 7996 7995 ] final   23.34 input   59.86 | X-H torsion
[ 10167 10162 10161 10158 ] final  -92.30 input  -65.29 | X-H torsion
[ 10718 10713 10712 10709 ] final   35.69 input   66.30 | X-H torsion
[ 10763 10752 10751 10750 ] final  -87.01 input  -60.55 | X-H torsion
[ 11005 11000 10999 10996 ] final  124.12 input  -57.11 | X-H torsion

> <Gold.Protein.ActiveResidues>
 VAL166  LYS551  ARG553  GLY616  TRP617  ASP618  TYR619  PRO620  LYS621  CYS622 
 ASP623  PHE694  ASN695  SER759  ASP760  ASP761  ALA762  ILE779  LEU786  VAL792 
 PHE793  MET794  SER795  GLU796  ALA797  LYS798  CYS799  TRP800  GLU811  SER814 

> <Gold.Protein.RotatedAtoms>
  150.9917  134.9250  159.7902 H   0  0  0  0  0  0  0  0  0  0  0  0  # atno 6907 bound_to 6896
  152.5253  134.3273  159.9180 H   0  0  0  0  0  0  0  0  0  0  0  0  # atno 6908 bound_to 6896
  151.3279  133.3971  159.2694 H   0  0  0  0  0  0  0  0  0  0  0  0  # atno 6909 bound_to 6896
  146.0420  140.6595  142.9082 H   0  0  0  0  0  0  0  0  0  0  0  0  # atno 7974 bound_to 7965
  154.9795  140.3100  155.4953 H   0  0  0  0  0  0  0  0  0  0  0  0  # atno 8008 bound_to 7997
  156.2955  140.2269  156.4832 H   0  0  0  0  0  0  0  0  0  0  0  0  # atno 8009 bound_to 7997
  154.7803  140.0446  157.1110 H   0  0  0  0  0  0  0  0  0  0  0  0  # atno 8010 bound_to 7997
  140.3362  143.2967  151.9887 H   0  0  0  0  0  0  0  0  0  0  0  0  # atno 10167 bound_to 10162
  157.3258  130.7472  149.6814 H   0  0  0  0  0  0  0  0  0  0  0  0  # atno 10718 bound_to 10713
  154.6289  135.5428  153.7658 H   0  0  0  0  0  0  0  0  0  0  0  0  # atno 10763 bound_to 10752
  153.0274  135.6431  154.1331 H   0  0  0  0  0  0  0  0  0  0  0  0  # atno 10764 bound_to 10752
  154.1262  135.2917  155.3176 H   0  0  0  0  0  0  0  0  0  0  0  0  # atno 10765 bound_to 10752
  139.9344  134.9640  156.8361 H   0  0  0  0  0  0  0  0  0  0  0  0  # atno 11005 bound_to 11000
  144.7079  140.3926  143.7103 LP  0  0  0  0  0  0  0  0  0  0  0  0  # atno 17320 bound_to 7965
  145.6868  139.1630  143.2669 LP  0  0  0  0  0  0  0  0  0  0  0  0  # atno 17321 bound_to 7965
  139.4848  144.6195  151.7283 LP  0  0  0  0  0  0  0  0  0  0  0  0  # atno 17342 bound_to 10162
  140.5352  144.0667  150.6068 LP  0  0  0  0  0  0  0  0  0  0  0  0  # atno 17343 bound_to 10162
  155.9690  130.4210  150.4448 LP  0  0  0  0  0  0  0  0  0  0  0  0  # atno 17370 bound_to 10713
  157.2471  131.0538  151.2402 LP  0  0  0  0  0  0  0  0  0  0  0  0  # atno 17371 bound_to 10713
  140.6116  134.0077  155.7579 LP  0  0  0  0  0  0  0  0  0  0  0  0  # atno 17394 bound_to 11000
  141.0950  133.9858  157.3175 LP  0  0  0  0  0  0  0  0  0  0  0  0  # atno 17395 bound_to 11000

$$$$
