AV-unprocessed.smi:3030|AV-procd|sdf|11535|dock2
  -GOLD-   2272016483D 1   1.00000     0.00000
 Structure written by MMmdl.
 52 53  0  0  0  0  0  0  0  0  1 V2000
  154.6314  140.5656  161.2969 C   0  0  0  0  0  0  0  0  0  0  0  0
  154.0240  141.7200  162.1019 C   0  0  0  0  0  0  0  0  0  0  0  0
  153.1158  142.5207  161.2941 N   0  0  0  0  0  0  0  0  0  0  0  0
  152.4904  143.6497  161.8136 C   0  0  0  0  0  0  0  0  0  0  0  0
  151.6681  144.4495  161.1073 C   0  0  0  0  0  0  0  0  0  0  0  0
  151.3975  144.1376  159.6890 C   0  0  0  0  0  0  0  0  0  0  0  0
  150.6412  144.8388  159.0169 O   0  0  0  0  0  0  0  0  0  0  0  0
  152.0830  142.9436  159.1286 C   0  0  0  0  0  0  0  0  0  0  0  0
  151.8183  142.6429  157.7834 N   0  0  0  0  0  0  0  0  0  0  0  0
  150.7115  142.1041  157.2411 C   0  0  0  0  0  0  0  0  0  0  0  0
  149.7250  141.7114  157.8637 O   0  0  0  0  0  0  0  0  0  0  0  0
  150.8221  142.0365  155.9063 N   0  0  0  0  0  0  0  0  0  0  0  0
  149.8299  141.4869  154.9822 C   0  0  2  0  0  0  0  0  0  0  0  0
  148.4414  141.9952  155.4206 C   0  0  0  0  0  0  0  0  0  0  0  0
  147.3063  141.4229  154.5546 C   0  0  2  0  0  0  0  0  0  0  0  0
  145.9348  141.9419  155.0094 C   0  0  0  0  0  0  0  0  0  0  0  0
  147.3581  139.8872  154.5697 C   0  0  0  0  0  0  0  0  0  0  0  0
  148.7252  139.3725  154.0978 C   0  0  0  0  0  0  0  0  0  0  0  0
  149.8855  139.9323  154.9556 C   0  0  1  0  0  0  0  0  0  0  0  0
  151.2748  139.3514  154.5531 C   0  0  0  0  0  0  0  0  0  0  0  0
  151.2169  137.9236  153.9783 C   0  0  0  0  0  0  0  0  0  0  0  0
  152.2987  139.4330  155.6982 C   0  0  0  0  0  0  0  0  0  0  0  0
  152.8814  142.2202  159.9538 C   0  0  0  0  0  0  0  0  0  0  0  0
  155.3103  139.9777  161.9147 H   0  0  0  0  0  0  0  0  0  0  0  0
  155.1959  140.9365  160.4408 H   0  0  0  0  0  0  0  0  0  0  0  0
  153.8566  139.8954  160.9233 H   0  0  0  0  0  0  0  0  0  0  0  0
  153.4905  141.3264  162.9677 H   0  0  0  0  0  0  0  0  0  0  0  0
  154.8180  142.3558  162.4953 H   0  0  0  0  0  0  0  0  0  0  0  0
  152.7110  143.8421  162.8536 H   0  0  0  0  0  0  0  0  0  0  0  0
  151.2016  145.3150  161.5545 H   0  0  0  0  0  0  0  0  0  0  0  0
  152.5791  142.8438  157.1508 H   0  0  0  0  0  0  0  0  0  0  0  0
  151.6723  142.3877  155.4904 H   0  0  0  0  0  0  0  0  0  0  0  0
  150.0063  141.8624  153.9733 H   0  0  0  0  0  0  0  0  0  0  0  0
  148.2673  141.7298  156.4648 H   0  0  0  0  0  0  0  0  0  0  0  0
  148.4209  143.0851  155.3747 H   0  0  0  0  0  0  0  0  0  0  0  0
  147.4614  141.7576  153.5278 H   0  0  0  0  0  0  0  0  0  0  0  0
  145.7201  141.6470  156.0371 H   0  0  0  0  0  0  0  0  0  0  0  0
  145.1370  141.5505  154.3774 H   0  0  0  0  0  0  0  0  0  0  0  0
  145.8899  143.0300  154.9589 H   0  0  0  0  0  0  0  0  0  0  0  0
  147.1546  139.5175  155.5757 H   0  0  0  0  0  0  0  0  0  0  0  0
  146.5752  139.4817  153.9280 H   0  0  0  0  0  0  0  0  0  0  0  0
  148.7154  138.2837  154.1285 H   0  0  0  0  0  0  0  0  0  0  0  0
  148.8616  139.6504  153.0525 H   0  0  0  0  0  0  0  0  0  0  0  0
  149.7014  139.6032  155.9799 H   0  0  0  0  0  0  0  0  0  0  0  0
  151.6826  139.9862  153.7671 H   0  0  0  0  0  0  0  0  0  0  0  0
  150.8844  137.1998  154.7219 H   0  0  0  0  0  0  0  0  0  0  0  0
  152.2019  137.6050  153.6362 H   0  0  0  0  0  0  0  0  0  0  0  0
  150.5462  137.8568  153.1229 H   0  0  0  0  0  0  0  0  0  0  0  0
  152.0466  138.7625  156.5196 H   0  0  0  0  0  0  0  0  0  0  0  0
  152.3648  140.4452  156.0980 H   0  0  0  0  0  0  0  0  0  0  0  0
  153.2938  139.1564  155.3487 H   0  0  0  0  0  0  0  0  0  0  0  0
  153.3886  141.3224  159.6366 H   0  0  0  0  0  0  0  0  0  0  0  0
  1  2  1  0  0  0  0
  1 24  1  0  0  0  0
  1 25  1  0  0  0  0
  1 26  1  0  0  0  0
  2  3  1  0  0  0  0
  2 27  1  0  0  0  0
  2 28  1  0  0  0  0
  3 23  1  0  0  0  0
  3  4  1  0  0  0  0
  4  5  2  0  0  0  0
  4 29  1  0  0  0  0
  5  6  1  0  0  0  0
  5 30  1  0  0  0  0
  6  7  2  0  0  0  0
  6  8  1  0  0  0  0
  8  9  1  0  0  0  0
  8 23  2  0  0  0  0
  9 10  1  0  0  0  0
  9 31  1  0  0  0  0
 10 11  2  0  0  0  0
 10 12  1  0  0  0  0
 12 13  1  0  0  0  0
 12 32  1  0  0  0  0
 13 19  1  0  0  0  0
 13 14  1  0  0  0  0
 13 33  1  0  0  0  0
 14 15  1  0  0  0  0
 14 34  1  0  0  0  0
 14 35  1  0  0  0  0
 15 16  1  0  0  0  0
 15 17  1  0  0  0  0
 15 36  1  0  0  0  0
 16 37  1  0  0  0  0
 16 38  1  0  0  0  0
 16 39  1  0  0  0  0
 17 18  1  0  0  0  0
 17 40  1  0  0  0  0
 17 41  1  0  0  0  0
 18 19  1  0  0  0  0
 18 42  1  0  0  0  0
 18 43  1  0  0  0  0
 19 20  1  0  0  0  0
 19 44  1  0  0  0  0
 20 21  1  0  0  0  0
 20 22  1  0  0  0  0
 20 45  1  0  0  0  0
 21 46  1  0  0  0  0
 21 47  1  0  0  0  0
 21 48  1  0  0  0  0
 22 49  1  0  0  0  0
 22 50  1  0  0  0  0
 22 51  1  0  0  0  0
 23 52  1  0  0  0  0
M  END
> <s_m_source_file>
AV-unprocessed.smi

> <i_m_source_file_index>
3030

> <i_lp_mmshare_version>
43012

> <i_f3d_flags>
0

> <s_epik_input>
W0NIM11bQ0gyXW4xW2NIXVtjSF1jKD1PKWMoW2NIXTEpW05IXUMoPU8pW05IXVtDQEBIXTJbQ0gyXVtDQEBIXShbQ0gzXSlbQ0gyXVtDSDJdW0NASF0yW0NIXShbQ0gzXSlbQ0gzXQ==

> <s_epik_cmdline>
J2VwaWtfcHl0aG9uJywgJy1waCcsICc3LjAnLCAnLXRuJywgJzgnLCAnLW1hJywgJzIwMCcsICctbWV0YWxfYmluZGluZycsICctaW1hZScsICc8aW5maWxlLm1hZT4nLCAnLW9tYWUnLCAnPG91dGZpbGUubWFlPic=

> <r_lp_tautomer_probability>
1

> <r_epik_Ionization_Penalty>
0.00147933

> <r_epik_Ionization_Penalty_Charging>
0.00145753

> <r_epik_Ionization_Penalty_Neutral>
2.17987e-05

> <r_epik_State_Penalty>
0.00097457

> <r_epik_Charging_Adjusted_Penalty>
0.0024321

> <i_epik_Tot_Q>
0

> <i_epik_Tot_abs_Q>
0

> <r_epik_Metal_State_Penalty>
-0

> <b_epik_Metal_Only>
0

> <s_lp_Force_Field>
OPLS_2005

> <r_lp_Energy>
10.2365

> <b_lp_Chiralities_Consistent>
1

> <s_lp_Variant>
AV-unprocessed.smi:3030-3

> <Gold.Version>
5.8.1

> <Gold.Id.Protein>
6NUR|6NUR_protein|mol2

> <Gold.PLP.Fitness>
45.8633

> <Gold.PLP.PLP>
-48.5666

> <Gold.PLP.part.hbond>
0.0000

> <Gold.PLP.part.metal>
0.0000

> <Gold.PLP.part.buried>
2.5693

> <Gold.PLP.part.nonpolar>
-49.7056

> <Gold.PLP.part.repulsive>
0.4340

> <Gold.PLP.ligand.clash>
0.0000

> <Gold.PLP.ligand.torsion>
1.4419

> <Gold.PLP.Chemscore.Hbond>
0.0000

> <Gold.PLP.Chemscore.CHOScore>
0.0000

> <Gold.PLP.Chemscore.Metal>
0.0000

> <Gold.PLP.Chemscore.Internal.Correction>
0.1806

> <Gold.Rescore>
     Score         DG    S(hbond)    S(metal)    S(lipo)     H(rot)  DE(clash)    DE(int)     intcor
     13.38     -16.71       0.00        0.00     123.76       1.27       0.27       3.06       ----

> <Gold.Chemscore.Fitness>
13.3767

> <Gold.Chemscore.DG>
-16.7128

> <Gold.Chemscore.ZeroCoef>
-5.4800

> <Gold.Chemscore.Hbond>
0.0000

> <Gold.Chemscore.Metal>
0.0000

> <Gold.Chemscore.Lipo>
123.7623

> <Gold.Chemscore.Internal_Hbond>
0.0000

> <Gold.Chemscore.DEClash>
0.2749

> <Gold.Chemscore.DEInternal>
3.0611

> <Gold.Chemscore.Rot>
1.2685

> <Gold.Chemscore.Internal.Correction>
   9.000000E+99

> <Gold.Chemscore.Hbond.Weighted>
-0.0000

> <Gold.Chemscore.Metal.Weighted>
-0.0000

> <Gold.Chemscore.Lipo.Weighted>
-14.4802

> <Gold.Chemscore.Internal_Hbond.Weighted>
0.0000

> <Gold.Chemscore.DEClash.Weighted>
0.2749

> <Gold.Chemscore.DEInternal.Weighted>
3.0611

> <Gold.Chemscore.Rot.Weighted>
3.2474

> <Gold.Chemscore.Internal.Correction.Weighted>
   9.000000E+99

> <Gold.Protein.RotatedTorsions>
[ 6907 6896 6895 6894 ] final  -87.99 input  -60.11 | X-H torsion
[ 7974 7965 7964 7962 ] final  -54.28 input  175.53 | X-H torsion
[ 8008 7997 7996 7995 ] final   81.95 input   59.86 | X-H torsion
[ 10167 10162 10161 10158 ] final  173.78 input  -65.29 | X-H torsion
[ 10718 10713 10712 10709 ] final  118.21 input   66.30 | X-H torsion
[ 10763 10752 10751 10750 ] final -124.65 input  -60.55 | X-H torsion
[ 11005 11000 10999 10996 ] final  142.22 input  -57.11 | X-H torsion

> <Gold.Protein.ActiveResidues>
 VAL166  LYS551  ARG553  GLY616  TRP617  ASP618  TYR619  PRO620  LYS621  CYS622 
 ASP623  PHE694  ASN695  SER759  ASP760  ASP761  ALA762  ILE779  LEU786  VAL792 
 PHE793  MET794  SER795  GLU796  ALA797  LYS798  CYS799  TRP800  GLU811  SER814 

> <Gold.Protein.RotatedAtoms>
  150.6867  134.2810  159.4626 H   0  0  0  0  0  0  0  0  0  0  0  0  # atno 6907 bound_to 6896
  152.0724  134.9522  160.0583 H   0  0  0  0  0  0  0  0  0  0  0  0  # atno 6908 bound_to 6896
  152.0907  133.4164  159.4579 H   0  0  0  0  0  0  0  0  0  0  0  0  # atno 6909 bound_to 6896
  145.8873  140.8098  142.9809 H   0  0  0  0  0  0  0  0  0  0  0  0  # atno 7974 bound_to 7965
  155.9041  140.3431  155.6049 H   0  0  0  0  0  0  0  0  0  0  0  0  # atno 8008 bound_to 7997
  155.7465  140.0814  157.2240 H   0  0  0  0  0  0  0  0  0  0  0  0  # atno 8009 bound_to 7997
  154.4047  140.1561  156.2663 H   0  0  0  0  0  0  0  0  0  0  0  0  # atno 8010 bound_to 7997
  139.5119  144.3222  152.0192 H   0  0  0  0  0  0  0  0  0  0  0  0  # atno 10167 bound_to 10162
  157.6045  131.1045  150.7724 H   0  0  0  0  0  0  0  0  0  0  0  0  # atno 10718 bound_to 10713
  154.8726  135.4056  154.3140 H   0  0  0  0  0  0  0  0  0  0  0  0  # atno 10763 bound_to 10752
  153.3979  135.7017  153.6452 H   0  0  0  0  0  0  0  0  0  0  0  0  # atno 10764 bound_to 10752
  153.5207  135.3688  155.2601 H   0  0  0  0  0  0  0  0  0  0  0  0  # atno 10765 bound_to 10752
  140.0460  134.9280  157.0931 H   0  0  0  0  0  0  0  0  0  0  0  0  # atno 11005 bound_to 11000
  144.6729  140.1475  143.7432 LP  0  0  0  0  0  0  0  0  0  0  0  0  # atno 17320 bound_to 7965
  145.8951  139.2398  143.1526 LP  0  0  0  0  0  0  0  0  0  0  0  0  # atno 17321 bound_to 7965
  140.2663  144.4012  150.6167 LP  0  0  0  0  0  0  0  0  0  0  0  0  # atno 17342 bound_to 10162
  140.6121  143.2170  151.6866 LP  0  0  0  0  0  0  0  0  0  0  0  0  # atno 17343 bound_to 10162
  156.8115  130.4954  149.5355 LP  0  0  0  0  0  0  0  0  0  0  0  0  # atno 17370 bound_to 10713
  156.1128  130.6053  151.0074 LP  0  0  0  0  0  0  0  0  0  0  0  0  # atno 17371 bound_to 10713
  140.3992  134.2101  155.7164 LP  0  0  0  0  0  0  0  0  0  0  0  0  # atno 17394 bound_to 11000
  141.1907  133.8211  157.0907 LP  0  0  0  0  0  0  0  0  0  0  0  0  # atno 17395 bound_to 11000

$$$$
