AV-unprocessed.smi:268|AV-procd|sdf|2040|dock7
  -GOLD-   2262021253D 1   1.00000     0.00000
 Structure written by MMmdl.
 50 53  0  0  0  0  0  0  0  0  1 V2000
  150.5684  145.4829  160.2954 C   0  0  0  0  0  0  0  0  0  0  0  0
  151.0085  145.0995  158.8808 C   0  0  0  0  0  0  0  0  0  0  0  0
  151.4087  143.7393  158.8771 O   0  0  0  0  0  0  0  0  0  0  0  0
  151.0730  143.0729  157.6712 C   0  0  2  0  0  0  0  0  0  0  0  0
  149.6845  142.4198  157.6784 C   0  0  0  0  0  0  0  0  0  0  0  0
  150.3152  141.1378  157.1030 C   0  0  1  0  0  0  0  0  0  0  0  0
  150.2065  141.0570  155.6405 N   0  0  0  0  0  0  0  0  0  0  0  0
  148.8861  141.2713  155.0538 C   0  0  0  0  0  0  0  0  0  0  0  0
  150.9048  140.0851  154.9974 C   0  0  0  0  0  0  0  0  0  0  0  0
  152.0436  140.3944  154.3207 N   0  0  0  0  0  0  0  0  0  0  0  0
  152.7374  139.4391  153.6951 C   0  0  0  0  0  0  0  0  0  0  0  0
  152.4781  138.1323  153.6211 N   0  0  0  0  0  0  0  0  0  0  0  0
  151.3396  137.8149  154.3017 C   0  0  0  0  0  0  0  0  0  0  0  0
  150.5033  138.7199  155.0137 C   0  0  0  0  0  0  0  0  0  0  0  0
  149.4352  138.0331  155.5779 N   0  0  0  0  0  0  0  0  0  0  0  0
  149.6295  136.7930  155.2208 C   0  0  0  0  0  0  0  0  0  0  0  0
  150.7442  136.5730  154.4431 N   0  0  0  0  0  0  0  0  0  0  0  0
  151.1949  135.2991  153.9034 C   0  0  0  0  0  0  0  0  0  0  0  0
  151.8379  134.3722  154.9520 C   0  0  0  0  0  0  0  0  0  0  0  0
  150.8614  134.2146  156.1357 C   0  0  0  0  0  0  0  0  0  0  0  0
  151.3473  133.3280  157.1240 O   0  0  0  0  0  0  0  0  0  0  0  0
  152.4368  133.0760  154.3872 C   0  0  0  0  0  0  0  0  0  0  0  0
  153.7194  133.3300  155.0020 O   0  0  0  0  0  0  0  0  0  0  0  0
  153.2978  134.6749  155.3193 C   0  0  0  0  0  0  0  0  0  0  0  0
  151.6780  141.6678  157.5967 C   0  0  0  0  0  0  0  0  0  0  0  0
  150.2552  146.5262  160.3366 H   0  0  0  0  0  0  0  0  0  0  0  0
  151.3825  145.3494  161.0083 H   0  0  0  0  0  0  0  0  0  0  0  0
  149.7300  144.8683  160.6241 H   0  0  0  0  0  0  0  0  0  0  0  0
  150.1859  145.2553  158.1814 H   0  0  0  0  0  0  0  0  0  0  0  0
  151.8366  145.7350  158.5640 H   0  0  0  0  0  0  0  0  0  0  0  0
  151.2722  143.6507  156.7666 H   0  0  0  0  0  0  0  0  0  0  0  0
  149.2954  142.2711  158.6869 H   0  0  0  0  0  0  0  0  0  0  0  0
  148.9536  142.9224  157.0443 H   0  0  0  0  0  0  0  0  0  0  0  0
  149.9896  140.2340  157.6197 H   0  0  0  0  0  0  0  0  0  0  0  0
  148.9046  142.1502  154.4088 H   0  0  0  0  0  0  0  0  0  0  0  0
  148.1344  141.4367  155.8261 H   0  0  0  0  0  0  0  0  0  0  0  0
  148.5555  140.4183  154.4582 H   0  0  0  0  0  0  0  0  0  0  0  0
  153.6273  139.7697  153.1804 H   0  0  0  0  0  0  0  0  0  0  0  0
  148.9569  136.0012  155.5161 H   0  0  0  0  0  0  0  0  0  0  0  0
  150.3472  134.8059  153.4260 H   0  0  0  0  0  0  0  0  0  0  0  0
  151.8998  135.5138  153.0991 H   0  0  0  0  0  0  0  0  0  0  0  0
  150.6788  135.1707  156.6262 H   0  0  0  0  0  0  0  0  0  0  0  0
  149.8944  133.8436  155.7945 H   0  0  0  0  0  0  0  0  0  0  0  0
  150.6100  132.9529  157.5807 H   0  0  0  0  0  0  0  0  0  0  0  0
  151.9673  132.1632  154.7553 H   0  0  0  0  0  0  0  0  0  0  0  0
  152.5088  133.0583  153.2987 H   0  0  0  0  0  0  0  0  0  0  0  0
  153.7795  135.4068  154.6701 H   0  0  0  0  0  0  0  0  0  0  0  0
  153.4523  134.9272  156.3690 H   0  0  0  0  0  0  0  0  0  0  0  0
  152.5131  141.5822  156.9008 H   0  0  0  0  0  0  0  0  0  0  0  0
  151.9428  141.2716  158.5783 H   0  0  0  0  0  0  0  0  0  0  0  0
  1  2  1  0  0  0  0
  1 26  1  0  0  0  0
  1 27  1  0  0  0  0
  1 28  1  0  0  0  0
  2  3  1  0  0  0  0
  2 29  1  0  0  0  0
  2 30  1  0  0  0  0
  3  4  1  0  0  0  0
  4 25  1  0  0  0  0
  4  5  1  0  0  0  0
  4 31  1  0  0  0  0
  5  6  1  0  0  0  0
  5 32  1  0  0  0  0
  5 33  1  0  0  0  0
  6  7  1  0  0  0  0
  6 25  1  0  0  0  0
  6 34  1  0  0  0  0
  7  8  1  0  0  0  0
  7  9  1  0  0  0  0
  8 35  1  0  0  0  0
  8 36  1  0  0  0  0
  8 37  1  0  0  0  0
  9 14  1  0  0  0  0
  9 10  2  0  0  0  0
 10 11  1  0  0  0  0
 11 12  2  0  0  0  0
 11 38  1  0  0  0  0
 12 13  1  0  0  0  0
 13 17  1  0  0  0  0
 13 14  2  0  0  0  0
 14 15  1  0  0  0  0
 15 16  2  0  0  0  0
 16 17  1  0  0  0  0
 16 39  1  0  0  0  0
 17 18  1  0  0  0  0
 18 19  1  0  0  0  0
 18 40  1  0  0  0  0
 18 41  1  0  0  0  0
 19 24  1  0  0  0  0
 19 20  1  0  0  0  0
 19 22  1  0  0  0  0
 20 21  1  0  0  0  0
 20 42  1  0  0  0  0
 20 43  1  0  0  0  0
 21 44  1  0  0  0  0
 22 23  1  0  0  0  0
 22 45  1  0  0  0  0
 22 46  1  0  0  0  0
 23 24  1  0  0  0  0
 24 47  1  0  0  0  0
 24 48  1  0  0  0  0
 25 49  1  0  0  0  0
 25 50  1  0  0  0  0
M  END
> <s_m_source_file>
AV-unprocessed.smi

> <i_m_source_file_index>
268

> <i_lp_mmshare_version>
43012

> <i_f3d_flags>
0

> <s_epik_input>
W0NIM11bQ0gyXU9bQ0BASF0xW0NIMl1bQ0BIXShbQ0gyXTEpTihbQ0gzXSljKG5bY0hdbjIpYyhjMjMpbltjSF1uM1tDSDJdQzQoW0NIMl1bT0hdKVtDSDJdT1tDSDJdNA==

> <s_epik_cmdline>
J2VwaWtfcHl0aG9uJywgJy1waCcsICc3LjAnLCAnLXRuJywgJzgnLCAnLW1hJywgJzIwMCcsICctbWV0YWxfYmluZGluZycsICctaW1hZScsICc8aW5maWxlLm1hZT4nLCAnLW9tYWUnLCAnPG91dGZpbGUubWFlPic=

> <r_lp_tautomer_probability>
1

> <r_epik_Ionization_Penalty>
0.00205824

> <r_epik_Ionization_Penalty_Charging>
0

> <r_epik_Ionization_Penalty_Neutral>
0.00205824

> <r_epik_State_Penalty>
0.00125218

> <r_epik_Charging_Adjusted_Penalty>
0.00125218

> <i_epik_Tot_Q>
0

> <i_epik_Tot_abs_Q>
0

> <r_epik_Metal_State_Penalty>
-0

> <b_epik_Metal_Only>
0

> <s_lp_Force_Field>
OPLS_2005

> <r_lp_Energy>
42.2334

> <b_lp_Chiralities_Consistent>
1

> <s_lp_Variant>
AV-unprocessed.smi:268-1

> <Gold.Version>
5.8.1

> <Gold.Id.Protein>
6NUR|6NUR_protein|mol2

> <Gold.PLP.Fitness>
48.5584

> <Gold.PLP.PLP>
-41.3656

> <Gold.PLP.part.hbond>
-3.0000

> <Gold.PLP.part.metal>
0.0000

> <Gold.PLP.part.buried>
-8.6685

> <Gold.PLP.part.nonpolar>
-30.4334

> <Gold.PLP.part.repulsive>
0.2842

> <Gold.PLP.ligand.clash>
0.0000

> <Gold.PLP.ligand.torsion>
1.3424

> <Gold.PLP.Chemscore.Hbond>
2.8496

> <Gold.PLP.Chemscore.CHOScore>
0.0000

> <Gold.PLP.Chemscore.Metal>
0.0000

> <Gold.PLP.Chemscore.Internal.Correction>
1.3288

> <Gold.Rescore>
     Score         DG    S(hbond)    S(metal)    S(lipo)     H(rot)  DE(clash)    DE(int)     intcor
     13.01     -14.43       2.19        0.00      82.93       3.15       0.20       1.23       ----

> <Gold.Chemscore.Fitness>
13.0053

> <Gold.Chemscore.DG>
-14.4269

> <Gold.Chemscore.ZeroCoef>
-5.4800

> <Gold.Chemscore.Hbond>
2.1912

> <Gold.Chemscore.Metal>
0.0000

> <Gold.Chemscore.Lipo>
82.9317

> <Gold.Chemscore.Internal_Hbond>
0.0000

> <Gold.Chemscore.DEClash>
0.1964

> <Gold.Chemscore.DEInternal>
1.2252

> <Gold.Chemscore.Rot>
3.1542

> <Gold.Chemscore.Internal.Correction>
   9.000000E+99

> <Gold.Chemscore.Hbond.Weighted>
-7.3187

> <Gold.Chemscore.Metal.Weighted>
-0.0000

> <Gold.Chemscore.Lipo.Weighted>
-9.7030

> <Gold.Chemscore.Internal_Hbond.Weighted>
0.0000

> <Gold.Chemscore.DEClash.Weighted>
0.1964

> <Gold.Chemscore.DEInternal.Weighted>
1.2252

> <Gold.Chemscore.Rot.Weighted>
8.0748

> <Gold.Chemscore.Internal.Correction.Weighted>
   9.000000E+99

> <Gold.Protein.RotatedTorsions>
[ 6907 6896 6895 6894 ] final  118.41 input  -60.11 | X-H torsion
[ 7974 7965 7964 7962 ] final    1.96 input  175.53 | X-H torsion
[ 8008 7997 7996 7995 ] final  111.05 input   59.86 | X-H torsion
[ 10167 10162 10161 10158 ] final   -9.14 input  -65.29 | X-H torsion
[ 10718 10713 10712 10709 ] final  122.41 input   66.30 | X-H torsion
[ 10763 10752 10751 10750 ] final   34.93 input  -60.55 | X-H torsion
[ 11005 11000 10999 10996 ] final   16.45 input  -57.11 | X-H torsion

> <Gold.Protein.ActiveResidues>
 VAL166  LYS551  ARG553  GLY616  TRP617  ASP618  TYR619  PRO620  LYS621  CYS622 
 ASP623  PHE694  ASN695  SER759  ASP760  ASP761  ALA762  ILE779  LEU786  VAL792 
 PHE793  MET794  SER795  GLU796  ALA797  LYS798  CYS799  TRP800  GLU811  SER814 

> <Gold.Protein.RotatedAtoms>
  152.4545  133.7695  159.6790 H   0  0  0  0  0  0  0  0  0  0  0  0  # atno 6907 bound_to 6896
  150.8467  133.7841  159.3047 H   0  0  0  0  0  0  0  0  0  0  0  0  # atno 6908 bound_to 6896
  151.5449  135.1071  159.9987 H   0  0  0  0  0  0  0  0  0  0  0  0  # atno 6909 bound_to 6896
  146.2442  140.0909  142.8352 H   0  0  0  0  0  0  0  0  0  0  0  0  # atno 7974 bound_to 7965
  156.2097  140.3027  155.9705 H   0  0  0  0  0  0  0  0  0  0  0  0  # atno 8008 bound_to 7997
  155.2755  140.0435  157.3028 H   0  0  0  0  0  0  0  0  0  0  0  0  # atno 8009 bound_to 7997
  154.5682  140.2340  155.8240 H   0  0  0  0  0  0  0  0  0  0  0  0  # atno 8010 bound_to 7997
  140.7079  143.5891  150.8912 H   0  0  0  0  0  0  0  0  0  0  0  0  # atno 10167 bound_to 10162
  157.5744  131.1080  150.8307 H   0  0  0  0  0  0  0  0  0  0  0  0  # atno 10718 bound_to 10713
  153.0141  135.6347  154.1747 H   0  0  0  0  0  0  0  0  0  0  0  0  # atno 10763 bound_to 10752
  154.1487  135.2830  155.3143 H   0  0  0  0  0  0  0  0  0  0  0  0  # atno 10764 bound_to 10752
  154.6070  135.5569  153.7494 H   0  0  0  0  0  0  0  0  0  0  0  0  # atno 10765 bound_to 10752
  140.4470  134.1263  155.7697 H   0  0  0  0  0  0  0  0  0  0  0  0  # atno 11005 bound_to 11000
  145.0652  140.9116  143.4915 LP  0  0  0  0  0  0  0  0  0  0  0  0  # atno 17320 bound_to 7965
  145.1032  139.2808  143.5676 LP  0  0  0  0  0  0  0  0  0  0  0  0  # atno 17321 bound_to 7965
  139.9616  143.6157  152.3000 LP  0  0  0  0  0  0  0  0  0  0  0  0  # atno 17342 bound_to 10162
  139.6712  144.7661  151.1780 LP  0  0  0  0  0  0  0  0  0  0  0  0  # atno 17343 bound_to 10162
  156.8770  130.5166  149.5293 LP  0  0  0  0  0  0  0  0  0  0  0  0  # atno 17370 bound_to 10713
  156.0789  130.5804  150.9525 LP  0  0  0  0  0  0  0  0  0  0  0  0  # atno 17371 bound_to 10713
  141.1681  133.8663  157.1654 LP  0  0  0  0  0  0  0  0  0  0  0  0  # atno 17394 bound_to 11000
  140.0032  135.0019  157.0235 LP  0  0  0  0  0  0  0  0  0  0  0  0  # atno 17395 bound_to 11000

$$$$
