AV-unprocessed.smi:1794|AV-procd|sdf|7235|dock10
  -GOLD-   22720 8483D 1   1.00000     0.00000
 Structure written by MMmdl.
 56 58  0  0  0  0  0  0  0  0  3 V2000
  151.1425  138.4617  153.7679 C   0  0  0  0  0  0  0  0  0  0  0  0
  150.2176  138.3359  155.0038 C   0  0  0  0  0  0  0  0  0  0  0  0
  148.7699  138.6774  154.5590 C   0  0  0  0  0  0  0  0  0  0  0  0
  150.2198  136.8667  155.5210 C   0  0  0  0  0  0  0  0  0  0  0  0
  149.5744  135.9306  154.6043 N   0  0  0  0  0  0  0  0  0  0  0  0
  149.4833  134.6109  154.8109 C   0  0  0  0  0  0  0  0  0  0  0  0
  149.9242  134.0492  155.8133 O   0  0  0  0  0  0  0  0  0  0  0  0
  148.8758  133.9969  153.7820 N   0  0  0  0  0  0  0  0  0  0  0  0
  148.6614  132.6017  153.5981 C   0  0  0  0  0  0  0  0  0  0  0  0
  149.5686  131.6422  154.1168 C   0  0  0  0  0  0  0  0  0  0  0  0
  149.3419  130.2703  153.8980 C   0  0  0  0  0  0  0  0  0  0  0  0
  148.2079  129.8768  153.1673 C   0  0  0  0  0  0  0  0  0  0  0  0
  147.3528  130.8122  152.7048 N   0  3  0  0  0  0  0  0  0  0  0  0
  147.5085  132.1462  152.8948 C   0  0  0  0  0  0  0  0  0  0  0  0
  146.5239  133.0086  152.3611 N   0  0  0  0  0  0  0  0  0  0  0  0
  146.3110  133.0865  150.9206 C   0  0  0  0  0  0  0  0  0  0  0  0
  144.9821  133.8193  150.7580 C   0  0  0  0  0  0  0  0  0  0  0  0
  144.1825  133.3163  151.9561 C   0  0  0  0  0  0  0  0  0  0  0  0
  145.2418  133.1312  153.0480 C   0  0  0  0  0  0  0  0  0  0  0  0
  150.6643  139.2519  156.1192 N   0  3  0  0  0  0  0  0  0  0  0  0
  150.7052  140.7042  155.7785 C   0  0  0  0  0  0  0  0  0  0  0  0
  151.3352  141.5182  156.9198 C   0  0  0  0  0  0  0  0  0  0  0  0
  150.5883  141.3176  158.1100 O   0  0  0  0  0  0  0  0  0  0  0  0
  150.6124  139.9574  158.5150 C   0  0  0  0  0  0  0  0  0  0  0  0
  149.9740  139.0729  157.4299 C   0  0  0  0  0  0  0  0  0  0  0  0
  150.7608  137.8858  152.9242 H   0  0  0  0  0  0  0  0  0  0  0  0
  152.1478  138.0913  153.9687 H   0  0  0  0  0  0  0  0  0  0  0  0
  151.2291  139.4937  153.4285 H   0  0  0  0  0  0  0  0  0  0  0  0
  148.3773  137.9597  153.8386 H   0  0  0  0  0  0  0  0  0  0  0  0
  148.7092  139.6444  154.0597 H   0  0  0  0  0  0  0  0  0  0  0  0
  148.0845  138.6894  155.4073 H   0  0  0  0  0  0  0  0  0  0  0  0
  151.2341  136.4994  155.6698 H   0  0  0  0  0  0  0  0  0  0  0  0
  149.7210  136.8116  156.4904 H   0  0  0  0  0  0  0  0  0  0  0  0
  149.1870  136.3138  153.7546 H   0  0  0  0  0  0  0  0  0  0  0  0
  148.6508  134.5794  152.9890 H   0  0  0  0  0  0  0  0  0  0  0  0
  150.4370  131.9383  154.6853 H   0  0  0  0  0  0  0  0  0  0  0  0
  150.0300  129.5320  154.2835 H   0  0  0  0  0  0  0  0  0  0  0  0
  147.9553  128.8498  152.9465 H   0  0  0  0  0  0  0  0  0  0  0  0
  147.1272  133.6123  150.4245 H   0  0  0  0  0  0  0  0  0  0  0  0
  146.2326  132.0869  150.4913 H   0  0  0  0  0  0  0  0  0  0  0  0
  145.1362  134.8962  150.8397 H   0  0  0  0  0  0  0  0  0  0  0  0
  144.4973  133.6167  149.8026 H   0  0  0  0  0  0  0  0  0  0  0  0
  143.3833  133.9968  152.2512 H   0  0  0  0  0  0  0  0  0  0  0  0
  143.7311  132.3527  151.7155 H   0  0  0  0  0  0  0  0  0  0  0  0
  145.0231  132.2619  153.6694 H   0  0  0  0  0  0  0  0  0  0  0  0
  145.2700  134.0112  153.6912 H   0  0  0  0  0  0  0  0  0  0  0  0
  151.2832  140.8933  154.8772 H   0  0  0  0  0  0  0  0  0  0  0  0
  149.6967  141.0769  155.5962 H   0  0  0  0  0  0  0  0  0  0  0  0
  152.3789  141.2390  157.0724 H   0  0  0  0  0  0  0  0  0  0  0  0
  151.3225  142.5802  156.6736 H   0  0  0  0  0  0  0  0  0  0  0  0
  151.6378  139.6441  158.7186 H   0  0  0  0  0  0  0  0  0  0  0  0
  150.0602  139.8596  159.4498 H   0  0  0  0  0  0  0  0  0  0  0  0
  148.9153  139.3146  157.3320 H   0  0  0  0  0  0  0  0  0  0  0  0
  150.0415  138.0461  157.7842 H   0  0  0  0  0  0  0  0  0  0  0  0
  151.6236  138.9897  156.2971 H   0  0  0  0  0  0  0  0  0  0  0  0
  146.5338  130.4940  152.1865 H   0  0  0  0  0  0  0  0  0  0  0  0
  1  2  1  0  0  0  0
  1 26  1  0  0  0  0
  1 27  1  0  0  0  0
  1 28  1  0  0  0  0
  2  3  1  0  0  0  0
  2  4  1  0  0  0  0
  2 20  1  0  0  0  0
  3 29  1  0  0  0  0
  3 30  1  0  0  0  0
  3 31  1  0  0  0  0
  4  5  1  0  0  0  0
  4 32  1  0  0  0  0
  4 33  1  0  0  0  0
  5  6  1  0  0  0  0
  5 34  1  0  0  0  0
  6  7  2  0  0  0  0
  6  8  1  0  0  0  0
  8  9  1  0  0  0  0
  8 35  1  0  0  0  0
  9 14  1  0  0  0  0
  9 10  2  0  0  0  0
 10 11  1  0  0  0  0
 10 36  1  0  0  0  0
 11 12  2  0  0  0  0
 11 37  1  0  0  0  0
 12 13  1  0  0  0  0
 12 38  1  0  0  0  0
 13 14  2  0  0  0  0
 13 56  1  0  0  0  0
 14 15  1  0  0  0  0
 15 19  1  0  0  0  0
 15 16  1  0  0  0  0
 16 17  1  0  0  0  0
 16 39  1  0  0  0  0
 16 40  1  0  0  0  0
 17 18  1  0  0  0  0
 17 41  1  0  0  0  0
 17 42  1  0  0  0  0
 18 19  1  0  0  0  0
 18 43  1  0  0  0  0
 18 44  1  0  0  0  0
 19 45  1  0  0  0  0
 19 46  1  0  0  0  0
 20 25  1  0  0  0  0
 20 21  1  0  0  0  0
 20 55  1  0  0  0  0
 21 22  1  0  0  0  0
 21 47  1  0  0  0  0
 21 48  1  0  0  0  0
 22 23  1  0  0  0  0
 22 49  1  0  0  0  0
 22 50  1  0  0  0  0
 23 24  1  0  0  0  0
 24 25  1  0  0  0  0
 24 51  1  0  0  0  0
 24 52  1  0  0  0  0
 25 53  1  0  0  0  0
 25 54  1  0  0  0  0
M  CHG  1  13   1
M  CHG  1  20   1
M  END
> <s_m_source_file>
AV-unprocessed.smi

> <i_m_source_file_index>
1794

> <i_lp_mmshare_version>
43012

> <i_f3d_flags>
0

> <s_epik_input>
W0NIMl0xW0NIMl1PW0NIMl1bQ0gyXU4xQyhbQ0gzXSkoW0NIM10pW0NIMl1bTkhdQyg9TylbTkhdYzJbY0hdW2NIXVtjSF1uYzJOM1tDSDJdW0NIMl1bQ0gyXVtDSDJdMw==

> <s_epik_cmdline>
J2VwaWtfcHl0aG9uJywgJy1waCcsICc3LjAnLCAnLXRuJywgJzgnLCAnLW1hJywgJzIwMCcsICctbWV0YWxfYmluZGluZycsICctaW1hZScsICc8aW5maWxlLm1hZT4nLCAnLW9tYWUnLCAnPG91dGZpbGUubWFlPic=

> <r_lp_tautomer_probability>
0.999994

> <r_epik_Ionization_Penalty>
1.80144

> <r_epik_Ionization_Penalty_Charging>
1.80142

> <r_epik_Ionization_Penalty_Neutral>
2.02981e-05

> <r_epik_State_Penalty>
1.84115

> <r_epik_Charging_Adjusted_Penalty>
3.64257

> <i_epik_Tot_Q>
2

> <i_epik_Tot_abs_Q>
2

> <r_epik_Metal_State_Penalty>
1.92426

> <b_epik_Metal_Only>
0

> <s_lp_Force_Field>
OPLS_2005

> <r_lp_Energy>
63.0658

> <b_lp_Chiralities_Consistent>
1

> <s_lp_Variant>
AV-unprocessed.smi:1794-4

> <Gold.Version>
5.8.1

> <Gold.Id.Protein>
6NUR|6NUR_protein|mol2

> <Gold.PLP.Fitness>
42.0529

> <Gold.PLP.PLP>
-37.3003

> <Gold.PLP.part.hbond>
-3.0000

> <Gold.PLP.part.metal>
0.0000

> <Gold.PLP.part.buried>
-5.2487

> <Gold.PLP.part.nonpolar>
-28.9408

> <Gold.PLP.part.repulsive>
0.2511

> <Gold.PLP.ligand.clash>
0.0000

> <Gold.PLP.ligand.torsion>
0.5629

> <Gold.PLP.Chemscore.Hbond>
1.8000

> <Gold.PLP.Chemscore.CHOScore>
0.0000

> <Gold.PLP.Chemscore.Metal>
0.0000

> <Gold.Chemscore.Hbonds>
donor molecule, donor type, donor heavy atom, donor atom, acceptor molecule, acceptor atom, score
      L1  H     5    34       P1  7948  0.98
      L1  H     8    35       P1  7948  0.90

> <Gold.PLP.Chemscore.Internal.Correction>
0.4783

> <Gold.Rescore>
     Score         DG    S(hbond)    S(metal)    S(lipo)     H(rot)  DE(clash)    DE(int)     intcor
     12.87     -14.94       1.10        0.00      85.39       1.64       0.28       1.79       ----

> <Gold.Chemscore.Fitness>
12.8697

> <Gold.Chemscore.DG>
-14.9432

> <Gold.Chemscore.ZeroCoef>
-5.4800

> <Gold.Chemscore.Hbond>
1.0952

> <Gold.Chemscore.Metal>
0.0000

> <Gold.Chemscore.Lipo>
85.3906

> <Gold.Chemscore.Internal_Hbond>
0.0000

> <Gold.Chemscore.DEClash>
0.2790

> <Gold.Chemscore.DEInternal>
1.7945

> <Gold.Chemscore.Rot>
1.6350

> <Gold.Chemscore.Internal.Correction>
   9.000000E+99

> <Gold.Chemscore.Hbonds>
donor molecule, donor type, donor heavy atom, donor atom, acceptor molecule, acceptor atom, score
      L1  H     5    34       P1  7948  0.88
      L1  H     8    35       P1  7948  0.17

> <Gold.Chemscore.Hbond.Weighted>
-3.6581

> <Gold.Chemscore.Metal.Weighted>
-0.0000

> <Gold.Chemscore.Lipo.Weighted>
-9.9907

> <Gold.Chemscore.Internal_Hbond.Weighted>
0.0000

> <Gold.Chemscore.DEClash.Weighted>
0.2790

> <Gold.Chemscore.DEInternal.Weighted>
1.7945

> <Gold.Chemscore.Rot.Weighted>
4.1856

> <Gold.Chemscore.Internal.Correction.Weighted>
   9.000000E+99

> <Gold.Protein.RotatedTorsions>
[ 6907 6896 6895 6894 ] final   85.15 input  -60.11 | X-H torsion
[ 7974 7965 7964 7962 ] final  -63.86 input  175.53 | X-H torsion
[ 8008 7997 7996 7995 ] final -157.28 input   59.86 | X-H torsion
[ 10167 10162 10161 10158 ] final   69.57 input  -65.29 | X-H torsion
[ 10718 10713 10712 10709 ] final  -78.71 input   66.30 | X-H torsion
[ 10763 10752 10751 10750 ] final  -22.21 input  -60.55 | X-H torsion
[ 11005 11000 10999 10996 ] final -140.89 input  -57.11 | X-H torsion

> <Gold.Protein.ActiveResidues>
 VAL166  LYS551  ARG553  GLY616  TRP617  ASP618  TYR619  PRO620  LYS621  CYS622 
 ASP623  PHE694  ASN695  SER759  ASP760  ASP761  ALA762  ILE779  LEU786  VAL792 
 PHE793  MET794  SER795  GLU796  ALA797  LYS798  CYS799  TRP800  GLU811  SER814 

> <Gold.Protein.RotatedAtoms>
  152.5368  134.2630  159.8942 H   0  0  0  0  0  0  0  0  0  0  0  0  # atno 6907 bound_to 6896
  151.2590  133.4305  159.2623 H   0  0  0  0  0  0  0  0  0  0  0  0  # atno 6908 bound_to 6896
  151.0470  134.9661  159.8248 H   0  0  0  0  0  0  0  0  0  0  0  0  # atno 6909 bound_to 6896
  145.7739  140.8798  143.0366 H   0  0  0  0  0  0  0  0  0  0  0  0  # atno 7974 bound_to 7965
  155.7300  140.0801  157.2293 H   0  0  0  0  0  0  0  0  0  0  0  0  # atno 8008 bound_to 7997
  154.4034  140.1597  156.2553 H   0  0  0  0  0  0  0  0  0  0  0  0  # atno 8009 bound_to 7997
  155.9118  140.3403  155.6107 H   0  0  0  0  0  0  0  0  0  0  0  0  # atno 8010 bound_to 7997
  140.0664  144.5190  150.7258 H   0  0  0  0  0  0  0  0  0  0  0  0  # atno 10167 bound_to 10162
  156.0110  130.4525  150.3537 H   0  0  0  0  0  0  0  0  0  0  0  0  # atno 10718 bound_to 10713
  153.6484  135.6982  153.5217 H   0  0  0  0  0  0  0  0  0  0  0  0  # atno 10763 bound_to 10752
  153.2726  135.4210  155.1002 H   0  0  0  0  0  0  0  0  0  0  0  0  # atno 10764 bound_to 10752
  154.8482  135.3582  154.6028 H   0  0  0  0  0  0  0  0  0  0  0  0  # atno 10765 bound_to 10752
  140.8378  134.2439  157.4825 H   0  0  0  0  0  0  0  0  0  0  0  0  # atno 11005 bound_to 11000
  144.6808  139.9894  143.7484 LP  0  0  0  0  0  0  0  0  0  0  0  0  # atno 17320 bound_to 7965
  146.0142  139.3196  143.0852 LP  0  0  0  0  0  0  0  0  0  0  0  0  # atno 17321 bound_to 7965
  140.7147  143.2534  151.4471 LP  0  0  0  0  0  0  0  0  0  0  0  0  # atno 17342 bound_to 10162
  139.5863  144.1598  152.2032 LP  0  0  0  0  0  0  0  0  0  0  0  0  # atno 17343 bound_to 10162
  157.1628  131.0349  151.2832 LP  0  0  0  0  0  0  0  0  0  0  0  0  # atno 17370 bound_to 10713
  157.4296  130.7483  149.6979 LP  0  0  0  0  0  0  0  0  0  0  0  0  # atno 17371 bound_to 10713
  139.8704  134.9619  156.4413 LP  0  0  0  0  0  0  0  0  0  0  0  0  # atno 17394 bound_to 11000
  140.8928  133.7835  155.9592 LP  0  0  0  0  0  0  0  0  0  0  0  0  # atno 17395 bound_to 11000

$$$$
