AV-unprocessed.smi:1047|AV-procd|sdf|4591|dock9
  -GOLD-   22720 3 73D 1   1.00000     0.00000
 Structure written by MMmdl.
 57 59  0  0  0  0  0  0  0  0  3 V2000
  152.1876  143.9783  161.4032 C   0  0  0  0  0  0  0  0  0  0  0  0
  151.8668  144.0377  159.9026 C   0  0  0  0  0  0  0  0  0  0  0  0
  151.5315  142.7523  159.2921 N   0  0  0  0  0  0  0  0  0  0  0  0
  152.6788  141.8515  159.3074 C   0  0  0  0  0  0  0  0  0  0  0  0
  152.3511  140.4932  158.6649 C   0  0  0  0  0  0  0  0  0  0  0  0
  151.8769  140.6976  157.3379 O   0  0  0  0  0  0  0  0  0  0  0  0
  150.7187  141.5271  157.2820 C   0  0  2  0  0  0  0  0  0  0  0  0
  150.2994  141.6671  155.8124 C   0  0  0  0  0  0  0  0  0  0  0  0
  148.8591  141.9685  155.6962 N   0  3  0  0  0  0  0  0  0  0  0  0
  148.1147  141.0287  154.8337 C   0  0  0  0  0  0  0  0  0  0  0  0
  147.0799  141.7640  153.9655 C   0  0  1  0  0  0  0  0  0  0  0  0
  146.5076  140.8428  153.0569 O   0  0  0  0  0  0  0  0  0  0  0  0
  145.9691  142.4124  154.8157 C   0  0  0  0  0  0  0  0  0  0  0  0
  145.3521  143.5735  154.1573 N   0  0  0  0  0  0  0  0  0  0  0  0
  145.6677  144.1664  152.9736 C   0  0  0  0  0  0  0  0  0  0  0  0
  144.8089  145.2069  152.7920 N   0  3  0  0  0  0  0  0  0  0  0  0
  143.9314  145.2815  153.8752 C   0  0  0  0  0  0  0  0  0  0  0  0
  142.8899  146.1622  154.1414 C   0  0  0  0  0  0  0  0  0  0  0  0
  142.1754  145.9712  155.3453 C   0  0  0  0  0  0  0  0  0  0  0  0
  141.0299  146.9162  155.6665 C   0  0  0  0  0  0  0  0  0  0  0  0
  142.5163  144.9218  156.2372 C   0  0  0  0  0  0  0  0  0  0  0  0
  141.7409  144.7263  157.5292 C   0  0  0  0  0  0  0  0  0  0  0  0
  143.5790  144.0359  155.9482 C   0  0  0  0  0  0  0  0  0  0  0  0
  144.2740  144.2376  154.7573 C   0  0  0  0  0  0  0  0  0  0  0  0
  151.0560  142.8911  157.9179 C   0  0  0  0  0  0  0  0  0  0  0  0
  152.5319  144.9494  161.7590 H   0  0  0  0  0  0  0  0  0  0  0  0
  152.9758  143.2534  161.6084 H   0  0  0  0  0  0  0  0  0  0  0  0
  151.3151  143.7081  161.9976 H   0  0  0  0  0  0  0  0  0  0  0  0
  151.0609  144.7525  159.7303 H   0  0  0  0  0  0  0  0  0  0  0  0
  152.7429  144.4477  159.3984 H   0  0  0  0  0  0  0  0  0  0  0  0
  153.5153  142.3081  158.7758 H   0  0  0  0  0  0  0  0  0  0  0  0
  153.0115  141.6929  160.3338 H   0  0  0  0  0  0  0  0  0  0  0  0
  153.2403  139.8634  158.6332 H   0  0  0  0  0  0  0  0  0  0  0  0
  151.6007  139.9589  159.2497 H   0  0  0  0  0  0  0  0  0  0  0  0
  149.9097  141.0580  157.8453 H   0  0  0  0  0  0  0  0  0  0  0  0
  150.8624  142.4753  155.3438 H   0  0  0  0  0  0  0  0  0  0  0  0
  150.5314  140.7526  155.2646 H   0  0  0  0  0  0  0  0  0  0  0  0
  148.4539  141.9475  156.6213 H   0  0  0  0  0  0  0  0  0  0  0  0
  148.8098  140.4666  154.2082 H   0  0  0  0  0  0  0  0  0  0  0  0
  147.6080  140.3063  155.4751 H   0  0  0  0  0  0  0  0  0  0  0  0
  147.5811  142.5432  153.3893 H   0  0  0  0  0  0  0  0  0  0  0  0
  145.6039  141.0789  152.9130 H   0  0  0  0  0  0  0  0  0  0  0  0
  145.1963  141.6903  155.0799 H   0  0  0  0  0  0  0  0  0  0  0  0
  146.3861  142.7682  155.7587 H   0  0  0  0  0  0  0  0  0  0  0  0
  146.4566  143.8662  152.2988 H   0  0  0  0  0  0  0  0  0  0  0  0
  142.6359  146.9589  153.4574 H   0  0  0  0  0  0  0  0  0  0  0  0
  141.2334  147.4646  156.5866 H   0  0  0  0  0  0  0  0  0  0  0  0
  140.0988  146.3627  155.7908 H   0  0  0  0  0  0  0  0  0  0  0  0
  140.8788  147.6455  154.8702 H   0  0  0  0  0  0  0  0  0  0  0  0
  142.1399  143.8970  158.1139 H   0  0  0  0  0  0  0  0  0  0  0  0
  140.6933  144.5108  157.3176 H   0  0  0  0  0  0  0  0  0  0  0  0
  141.7927  145.6233  158.1468 H   0  0  0  0  0  0  0  0  0  0  0  0
  143.8326  143.2373  156.6286 H   0  0  0  0  0  0  0  0  0  0  0  0
  150.1645  143.5172  157.8915 H   0  0  0  0  0  0  0  0  0  0  0  0
  151.8120  143.3981  157.3157 H   0  0  0  0  0  0  0  0  0  0  0  0
  148.7523  142.9004  155.3210 H   0  0  0  0  0  0  0  0  0  0  0  0
  144.8223  145.8199  151.9869 H   0  0  0  0  0  0  0  0  0  0  0  0
  1  2  1  0  0  0  0
  1 26  1  0  0  0  0
  1 27  1  0  0  0  0
  1 28  1  0  0  0  0
  2  3  1  0  0  0  0
  2 29  1  0  0  0  0
  2 30  1  0  0  0  0
  3 25  1  0  0  0  0
  3  4  1  0  0  0  0
  4  5  1  0  0  0  0
  4 31  1  0  0  0  0
  4 32  1  0  0  0  0
  5  6  1  0  0  0  0
  5 33  1  0  0  0  0
  5 34  1  0  0  0  0
  6  7  1  0  0  0  0
  7  8  1  0  0  0  0
  7 25  1  0  0  0  0
  7 35  1  0  0  0  0
  8  9  1  0  0  0  0
  8 36  1  0  0  0  0
  8 37  1  0  0  0  0
  9 10  1  0  0  0  0
  9 38  1  0  0  0  0
  9 56  1  0  0  0  0
 10 11  1  0  0  0  0
 10 39  1  0  0  0  0
 10 40  1  0  0  0  0
 11 12  1  0  0  0  0
 11 13  1  0  0  0  0
 11 41  1  0  0  0  0
 12 42  1  0  0  0  0
 13 14  1  0  0  0  0
 13 43  1  0  0  0  0
 13 44  1  0  0  0  0
 14 24  1  0  0  0  0
 14 15  1  0  0  0  0
 15 16  2  0  0  0  0
 15 45  1  0  0  0  0
 16 17  1  0  0  0  0
 16 57  1  0  0  0  0
 17 24  2  0  0  0  0
 17 18  1  0  0  0  0
 18 19  2  0  0  0  0
 18 46  1  0  0  0  0
 19 20  1  0  0  0  0
 19 21  1  0  0  0  0
 20 47  1  0  0  0  0
 20 48  1  0  0  0  0
 20 49  1  0  0  0  0
 21 22  1  0  0  0  0
 21 23  2  0  0  0  0
 22 50  1  0  0  0  0
 22 51  1  0  0  0  0
 22 52  1  0  0  0  0
 23 24  1  0  0  0  0
 23 53  1  0  0  0  0
 25 54  1  0  0  0  0
 25 55  1  0  0  0  0
M  CHG  1   9   1
M  CHG  1  16   1
M  END
> <s_m_source_file>
AV-unprocessed.smi

> <i_m_source_file_index>
1047

> <i_lp_mmshare_version>
43012

> <i_f3d_flags>
0

> <s_epik_input>
W0NIM11bQ0gyXU4xW0NIMl1bQ0gyXU9bQ0BIXShbQ0gyXTEpW0NIMl1bTkhdW0NIMl1bQ0BIXShbT0hdKVtDSDJdbihbY0hdbjIpYyhjMjMpW2NIXWMoW0NIM10pYyhbY0hdMylbQ0gzXQ==

> <s_epik_cmdline>
J2VwaWtfcHl0aG9uJywgJy1waCcsICc3LjAnLCAnLXRuJywgJzgnLCAnLW1hJywgJzIwMCcsICctbWV0YWxfYmluZGluZycsICctaW1hZScsICc8aW5maWxlLm1hZT4nLCAnLW9tYWUnLCAnPG91dGZpbGUubWFlPic=

> <r_epik_Ionization_Penalty>
1.75732

> <r_epik_Ionization_Penalty_Charging>
1.18089

> <r_epik_Ionization_Penalty_Neutral>
0.576429

> <r_epik_State_Penalty>
1.69377

> <r_epik_Charging_Adjusted_Penalty>
2.87466

> <i_epik_Tot_Q>
2

> <i_epik_Tot_abs_Q>
2

> <r_epik_Metal_State_Penalty>
5.70174

> <b_epik_Metal_Only>
0

> <s_lp_Force_Field>
OPLS_2005

> <r_lp_Energy>
38.6305

> <b_lp_Chiralities_Consistent>
1

> <s_lp_Variant>
AV-unprocessed.smi:1047-32

> <Gold.Version>
5.8.1

> <Gold.Id.Protein>
6NUR|6NUR_protein|mol2

> <Gold.PLP.Fitness>
56.3162

> <Gold.PLP.PLP>
-50.2802

> <Gold.PLP.part.hbond>
-2.0000

> <Gold.PLP.part.metal>
0.0000

> <Gold.PLP.part.buried>
-8.5222

> <Gold.PLP.part.nonpolar>
-41.1274

> <Gold.PLP.part.repulsive>
0.3999

> <Gold.PLP.ligand.clash>
0.0000

> <Gold.PLP.ligand.torsion>
1.2786

> <Gold.PLP.Chemscore.Hbond>
2.8240

> <Gold.PLP.Chemscore.CHOScore>
0.0000

> <Gold.PLP.Chemscore.Metal>
0.0000

> <Gold.Chemscore.Hbonds>
donor molecule, donor type, donor heavy atom, donor atom, acceptor molecule, acceptor atom, score
      L1  H     9    56       P1  8028  1.89
      L1  H    12    42       P1 10175  0.86

> <Gold.PLP.Chemscore.Internal.Correction>
0.1212

> <Gold.Rescore>
     Score         DG    S(hbond)    S(metal)    S(lipo)     H(rot)  DE(clash)    DE(int)     intcor
     17.10     -18.53       1.62        0.00     124.12       2.69       0.18       1.25       ----

> <Gold.Chemscore.Fitness>
17.0980

> <Gold.Chemscore.DG>
-18.5273

> <Gold.Chemscore.ZeroCoef>
-5.4800

> <Gold.Chemscore.Hbond>
1.6216

> <Gold.Chemscore.Metal>
0.0000

> <Gold.Chemscore.Lipo>
124.1191

> <Gold.Chemscore.Internal_Hbond>
0.0000

> <Gold.Chemscore.DEClash>
0.1758

> <Gold.Chemscore.DEInternal>
1.2534

> <Gold.Chemscore.Rot>
2.6917

> <Gold.Chemscore.Internal.Correction>
   9.000000E+99

> <Gold.Chemscore.Hbonds>
donor molecule, donor type, donor heavy atom, donor atom, acceptor molecule, acceptor atom, score
      L1  H     9    56       P1  8028  0.91
      L1  H    12    42       P1 10175  0.15

> <Gold.Chemscore.Hbond.Weighted>
-5.4161

> <Gold.Chemscore.Metal.Weighted>
-0.0000

> <Gold.Chemscore.Lipo.Weighted>
-14.5219

> <Gold.Chemscore.Internal_Hbond.Weighted>
0.0000

> <Gold.Chemscore.DEClash.Weighted>
0.1758

> <Gold.Chemscore.DEInternal.Weighted>
1.2534

> <Gold.Chemscore.Rot.Weighted>
6.8907

> <Gold.Chemscore.Internal.Correction.Weighted>
   9.000000E+99

> <Gold.Protein.RotatedTorsions>
[ 6907 6896 6895 6894 ] final   85.86 input  -60.11 | X-H torsion
[ 7974 7965 7964 7962 ] final  -48.23 input  175.53 | X-H torsion
[ 8008 7997 7996 7995 ] final  116.08 input   59.86 | X-H torsion
[ 10167 10162 10161 10158 ] final   95.82 input  -65.29 | X-H torsion
[ 10718 10713 10712 10709 ] final  -44.70 input   66.30 | X-H torsion
[ 10763 10752 10751 10750 ] final   27.19 input  -60.55 | X-H torsion
[ 11005 11000 10999 10996 ] final  -63.41 input  -57.11 | X-H torsion

> <Gold.Protein.ActiveResidues>
 VAL166  LYS551  ARG553  GLY616  TRP617  ASP618  TYR619  PRO620  LYS621  CYS622 
 ASP623  PHE694  ASN695  SER759  ASP760  ASP761  ALA762  ILE779  LEU786  VAL792 
 PHE793  MET794  SER795  GLU796  ALA797  LYS798  CYS799  TRP800  GLU811  SER814 

> <Gold.Protein.RotatedAtoms>
  152.5383  134.2520  159.8902 H   0  0  0  0  0  0  0  0  0  0  0  0  # atno 6907 bound_to 6896
  151.2483  133.4357  159.2618 H   0  0  0  0  0  0  0  0  0  0  0  0  # atno 6908 bound_to 6896
  151.0563  134.9721  159.8293 H   0  0  0  0  0  0  0  0  0  0  0  0  # atno 6909 bound_to 6896
  145.9533  140.7551  142.9493 H   0  0  0  0  0  0  0  0  0  0  0  0  # atno 7974 bound_to 7965
  156.2419  140.2925  156.0468 H   0  0  0  0  0  0  0  0  0  0  0  0  # atno 8008 bound_to 7997
  155.1926  140.0407  157.2920 H   0  0  0  0  0  0  0  0  0  0  0  0  # atno 8009 bound_to 7997
  154.6184  140.2469  155.7587 H   0  0  0  0  0  0  0  0  0  0  0  0  # atno 8010 bound_to 7997
  139.7952  144.6836  150.9839 H   0  0  0  0  0  0  0  0  0  0  0  0  # atno 10167 bound_to 10162
  156.2359  130.4176  149.8819 H   0  0  0  0  0  0  0  0  0  0  0  0  # atno 10718 bound_to 10713
  153.0572  135.6543  154.0548 H   0  0  0  0  0  0  0  0  0  0  0  0  # atno 10763 bound_to 10752
  154.0224  135.2919  155.3381 H   0  0  0  0  0  0  0  0  0  0  0  0  # atno 10764 bound_to 10752
  154.6893  135.5289  153.8438 H   0  0  0  0  0  0  0  0  0  0  0  0  # atno 10765 bound_to 10752
  141.1392  133.6651  156.5676 H   0  0  0  0  0  0  0  0  0  0  0  0  # atno 11005 bound_to 11000
  144.6800  140.2471  143.7336 LP  0  0  0  0  0  0  0  0  0  0  0  0  # atno 17320 bound_to 7965
  145.8140  139.2015  143.1976 LP  0  0  0  0  0  0  0  0  0  0  0  0  # atno 17321 bound_to 7965
  140.7820  143.4339  151.0653 LP  0  0  0  0  0  0  0  0  0  0  0  0  # atno 17342 bound_to 10162
  139.8014  143.8079  152.3163 LP  0  0  0  0  0  0  0  0  0  0  0  0  # atno 17343 bound_to 10162
  156.6417  130.8707  151.3515 LP  0  0  0  0  0  0  0  0  0  0  0  0  # atno 17370 bound_to 10713
  157.7154  130.9490  150.1236 LP  0  0  0  0  0  0  0  0  0  0  0  0  # atno 17371 bound_to 10713
  140.3939  134.7416  157.4738 LP  0  0  0  0  0  0  0  0  0  0  0  0  # atno 17394 bound_to 11000
  140.0546  134.6082  155.8821 LP  0  0  0  0  0  0  0  0  0  0  0  0  # atno 17395 bound_to 11000

$$$$
