AV-unprocessed.smi:1893|AV-procd|sdf|7674|dock8
  -GOLD-   22720 9413D 1   1.00000     0.00000
 Structure written by MMmdl.
 43 44  0  0  0  0  0  0  0  0  2 V2000
  151.7563  144.6751  158.5499 C   0  0  0  0  0  0  0  0  0  0  0  0
  152.4987  143.3298  158.6737 C   0  0  1  0  0  0  0  0  0  0  0  0
  153.2316  143.2821  160.0325 C   0  0  0  0  0  0  0  0  0  0  0  0
  153.9791  141.9611  160.2364 C   0  0  0  0  0  0  0  0  0  0  0  0
  153.0028  140.7938  160.0811 C   0  0  0  0  0  0  0  0  0  0  0  0
  152.3016  140.8580  158.7174 C   0  0  0  0  0  0  0  0  0  0  0  0
  151.5888  142.1500  158.5179 N   0  3  2  0  0  0  0  0  0  0  0  0
  150.8041  142.1429  157.2527 C   0  0  0  0  0  0  0  0  0  0  0  0
  149.6103  141.1735  157.3331 C   0  0  0  0  0  0  0  0  0  0  0  0
  148.7143  141.3406  156.1956 N   0  0  0  0  0  0  0  0  0  0  0  0
  149.0122  141.0139  154.9278 C   0  0  0  0  0  0  0  0  0  0  0  0
  150.0843  140.5007  154.6044 O   0  0  0  0  0  0  0  0  0  0  0  0
  147.9383  141.3282  153.8736 C   0  0  2  0  0  0  0  0  0  0  0  0
  146.8597  142.3031  154.3880 C   0  0  0  0  0  0  0  0  0  0  0  0
  147.3585  140.0922  153.3624 N   0  0  0  0  0  0  0  0  0  0  0  0
  147.2960  138.8796  153.9170 C   0  0  0  0  0  0  0  0  0  0  0  0
  146.6469  137.9854  153.1851 N   0  0  0  0  0  0  0  0  0  0  0  0
  146.3070  138.7671  152.1178 C   0  0  0  0  0  0  0  0  0  0  0  0
  146.6969  140.0401  152.1792 N   0  0  0  0  0  0  0  0  0  0  0  0
  152.4369  145.5099  158.7202 H   0  0  0  0  0  0  0  0  0  0  0  0
  150.9533  144.7540  159.2836 H   0  0  0  0  0  0  0  0  0  0  0  0
  151.3254  144.8236  157.5603 H   0  0  0  0  0  0  0  0  0  0  0  0
  153.2469  143.2807  157.8807 H   0  0  0  0  0  0  0  0  0  0  0  0
  153.9377  144.1101  160.1061 H   0  0  0  0  0  0  0  0  0  0  0  0
  152.5145  143.4189  160.8435 H   0  0  0  0  0  0  0  0  0  0  0  0
  154.7858  141.8728  159.5075 H   0  0  0  0  0  0  0  0  0  0  0  0
  154.4426  141.9375  161.2232 H   0  0  0  0  0  0  0  0  0  0  0  0
  153.5348  139.8474  160.1828 H   0  0  0  0  0  0  0  0  0  0  0  0
  152.2607  140.8210  160.8803 H   0  0  0  0  0  0  0  0  0  0  0  0
  153.0286  140.7160  157.9160 H   0  0  0  0  0  0  0  0  0  0  0  0
  151.5891  140.0345  158.6501 H   0  0  0  0  0  0  0  0  0  0  0  0
  150.4736  143.1501  156.9948 H   0  0  0  0  0  0  0  0  0  0  0  0
  151.4388  141.8346  156.4204 H   0  0  0  0  0  0  0  0  0  0  0  0
  149.9599  140.1408  157.3837 H   0  0  0  0  0  0  0  0  0  0  0  0
  149.0310  141.3452  158.2393 H   0  0  0  0  0  0  0  0  0  0  0  0
  147.8110  141.7525  156.3802 H   0  0  0  0  0  0  0  0  0  0  0  0
  148.4416  141.8164  153.0371 H   0  0  0  0  0  0  0  0  0  0  0  0
  147.3039  143.2422  154.7201 H   0  0  0  0  0  0  0  0  0  0  0  0
  146.2977  141.8891  155.2262 H   0  0  0  0  0  0  0  0  0  0  0  0
  146.1457  142.5423  153.5996 H   0  0  0  0  0  0  0  0  0  0  0  0
  147.7295  138.6470  154.8788 H   0  0  0  0  0  0  0  0  0  0  0  0
  145.7483  138.3889  151.2741 H   0  0  0  0  0  0  0  0  0  0  0  0
  150.9136  142.2073  159.2670 H   0  0  0  0  0  0  0  0  0  0  0  0
  1  2  1  0  0  0  0
  1 20  1  0  0  0  0
  1 21  1  0  0  0  0
  1 22  1  0  0  0  0
  2  7  1  0  0  0  0
  2  3  1  0  0  0  0
  2 23  1  0  0  0  0
  3  4  1  0  0  0  0
  3 24  1  0  0  0  0
  3 25  1  0  0  0  0
  4  5  1  0  0  0  0
  4 26  1  0  0  0  0
  4 27  1  0  0  0  0
  5  6  1  0  0  0  0
  5 28  1  0  0  0  0
  5 29  1  0  0  0  0
  6  7  1  0  0  0  0
  6 30  1  0  0  0  0
  6 31  1  0  0  0  0
  7  8  1  0  0  0  0
  7 43  1  0  0  0  0
  8  9  1  0  0  0  0
  8 32  1  0  0  0  0
  8 33  1  0  0  0  0
  9 10  1  0  0  0  0
  9 34  1  0  0  0  0
  9 35  1  0  0  0  0
 10 11  1  0  0  0  0
 10 36  1  0  0  0  0
 11 12  2  0  0  0  0
 11 13  1  0  0  0  0
 13 14  1  0  0  0  0
 13 15  1  0  0  0  0
 13 37  1  0  0  0  0
 14 38  1  0  0  0  0
 14 39  1  0  0  0  0
 14 40  1  0  0  0  0
 15 19  1  0  0  0  0
 15 16  1  0  0  0  0
 16 17  2  0  0  0  0
 16 41  1  0  0  0  0
 17 18  1  0  0  0  0
 18 19  2  0  0  0  0
 18 42  1  0  0  0  0
M  CHG  1   7   1
M  END
> <s_m_source_file>
AV-unprocessed.smi

> <i_m_source_file_index>
1893

> <i_lp_mmshare_version>
43012

> <i_f3d_flags>
0

> <s_epik_input>
W0NIM11bQ0BASF0xW0NIMl1bQ0gyXVtDSDJdW0NIMl1OMVtDSDJdW0NIMl1bTkhdQyg9TylbQ0BIXShbQ0gzXSluMltjSF1uW2NIXW4y

> <s_epik_cmdline>
J2VwaWtfcHl0aG9uJywgJy1waCcsICc3LjAnLCAnLXRuJywgJzgnLCAnLW1hJywgJzIwMCcsICctbWV0YWxfYmluZGluZycsICctaW1hZScsICc8aW5maWxlLm1hZT4nLCAnLW9tYWUnLCAnPG91dGZpbGUubWFlPic=

> <r_lp_tautomer_probability>
1

> <r_epik_Ionization_Penalty>
0.00266409

> <r_epik_Ionization_Penalty_Charging>
0.00265606

> <r_epik_Ionization_Penalty_Neutral>
8.02794e-06

> <r_epik_State_Penalty>
0.00184955

> <r_epik_Charging_Adjusted_Penalty>
0.00450561

> <i_epik_Tot_Q>
1

> <i_epik_Tot_abs_Q>
1

> <r_epik_Metal_State_Penalty>
-0

> <b_epik_Metal_Only>
0

> <s_lp_Force_Field>
OPLS_2005

> <r_lp_Energy>
24.4169

> <b_lp_Chiralities_Consistent>
1

> <s_lp_Variant>
AV-unprocessed.smi:1893-4

> <Gold.Version>
5.8.1

> <Gold.Id.Protein>
6NUR|6NUR_protein|mol2

> <Gold.PLP.Fitness>
44.3641

> <Gold.PLP.PLP>
-40.2967

> <Gold.PLP.part.hbond>
-1.0000

> <Gold.PLP.part.metal>
0.0000

> <Gold.PLP.part.buried>
-5.7006

> <Gold.PLP.part.nonpolar>
-37.6471

> <Gold.PLP.part.repulsive>
2.9878

> <Gold.PLP.ligand.clash>
0.0000

> <Gold.PLP.ligand.torsion>
0.9312

> <Gold.PLP.Chemscore.Hbond>
0.9280

> <Gold.PLP.Chemscore.CHOScore>
1.0000

> <Gold.PLP.Chemscore.Metal>
0.0000

> <Gold.Chemscore.Hbonds>
donor molecule, donor type, donor heavy atom, donor atom, acceptor molecule, acceptor atom, score
      P1  H  7989  7998       L1    12  0.91
      L1  C    18    42       P1 10171  1.00

> <Gold.PLP.Chemscore.Internal.Correction>
0.1458

> <Gold.Rescore>
     Score         DG    S(hbond)    S(metal)    S(lipo)     H(rot)  DE(clash)    DE(int)     intcor
     12.33     -13.28       0.96        0.00      94.69       2.54       0.22       0.73       ----

> <Gold.Chemscore.Fitness>
12.3267

> <Gold.Chemscore.DG>
-13.2785

> <Gold.Chemscore.ZeroCoef>
-5.4800

> <Gold.Chemscore.Hbond>
0.9631

> <Gold.Chemscore.Metal>
0.0000

> <Gold.Chemscore.Lipo>
94.6858

> <Gold.Chemscore.Internal_Hbond>
0.0000

> <Gold.Chemscore.DEClash>
0.2227

> <Gold.Chemscore.DEInternal>
0.7292

> <Gold.Chemscore.Rot>
2.5377

> <Gold.Chemscore.Internal.Correction>
   9.000000E+99

> <Gold.Chemscore.Hbonds>
donor molecule, donor type, donor heavy atom, donor atom, acceptor molecule, acceptor atom, score
      P1  H  7989  7998       L1    12  0.88

> <Gold.Chemscore.Hbond.Weighted>
-3.2168

> <Gold.Chemscore.Metal.Weighted>
-0.0000

> <Gold.Chemscore.Lipo.Weighted>
-11.0782

> <Gold.Chemscore.Internal_Hbond.Weighted>
0.0000

> <Gold.Chemscore.DEClash.Weighted>
0.2227

> <Gold.Chemscore.DEInternal.Weighted>
0.7292

> <Gold.Chemscore.Rot.Weighted>
6.4966

> <Gold.Chemscore.Internal.Correction.Weighted>
   9.000000E+99

> <Gold.Protein.RotatedTorsions>
[ 6907 6896 6895 6894 ] final   52.07 input  -60.11 | X-H torsion
[ 7974 7965 7964 7962 ] final  159.49 input  175.53 | X-H torsion
[ 8008 7997 7996 7995 ] final -108.23 input   59.86 | X-H torsion
[ 10167 10162 10161 10158 ] final   11.57 input  -65.29 | X-H torsion
[ 10718 10713 10712 10709 ] final  147.89 input   66.30 | X-H torsion
[ 10763 10752 10751 10750 ] final  131.77 input  -60.55 | X-H torsion
[ 11005 11000 10999 10996 ] final   57.02 input  -57.11 | X-H torsion

> <Gold.Protein.ActiveResidues>
 VAL166  LYS551  ARG553  GLY616  TRP617  ASP618  TYR619  PRO620  LYS621  CYS622 
 ASP623  PHE694  ASN695  SER759  ASP760  ASP761  ALA762  ILE779  LEU786  VAL792 
 PHE793  MET794  SER795  GLU796  ALA797  LYS798  CYS799  TRP800  GLU811  SER814 

> <Gold.Protein.RotatedAtoms>
  152.3194  134.7399  160.0317 H   0  0  0  0  0  0  0  0  0  0  0  0  # atno 6907 bound_to 6896
  151.7852  133.3348  159.3491 H   0  0  0  0  0  0  0  0  0  0  0  0  # atno 6908 bound_to 6896
  150.7362  134.5825  159.5990 H   0  0  0  0  0  0  0  0  0  0  0  0  # atno 6909 bound_to 6896
  144.7788  139.7624  143.6268 H   0  0  0  0  0  0  0  0  0  0  0  0  # atno 7974 bound_to 7965
  154.9412  140.0403  157.2097 H   0  0  0  0  0  0  0  0  0  0  0  0  # atno 8008 bound_to 7997
  154.8067  140.2861  155.5860 H   0  0  0  0  0  0  0  0  0  0  0  0  # atno 8009 bound_to 7997
  156.2967  140.2544  156.2947 H   0  0  0  0  0  0  0  0  0  0  0  0  # atno 8010 bound_to 7997
  140.6123  143.8381  150.7079 H   0  0  0  0  0  0  0  0  0  0  0  0  # atno 10167 bound_to 10162
  157.3154  131.0895  151.1283 H   0  0  0  0  0  0  0  0  0  0  0  0  # atno 10718 bound_to 10713
  153.7797  135.3170  155.3364 H   0  0  0  0  0  0  0  0  0  0  0  0  # atno 10763 bound_to 10752
  154.8166  135.4632  154.0663 H   0  0  0  0  0  0  0  0  0  0  0  0  # atno 10764 bound_to 10752
  153.1948  135.6914  153.8391 H   0  0  0  0  0  0  0  0  0  0  0  0  # atno 10765 bound_to 10752
  140.0484  134.5772  155.9293 H   0  0  0  0  0  0  0  0  0  0  0  0  # atno 11005 bound_to 11000
  146.1983  139.5263  142.9760 LP  0  0  0  0  0  0  0  0  0  0  0  0  # atno 17320 bound_to 7965
  145.6110  141.0339  143.1966 LP  0  0  0  0  0  0  0  0  0  0  0  0  # atno 17321 bound_to 7965
  140.1953  143.4003  152.1833 LP  0  0  0  0  0  0  0  0  0  0  0  0  # atno 17342 bound_to 10162
  139.5371  144.7220  151.4857 LP  0  0  0  0  0  0  0  0  0  0  0  0  # atno 17343 bound_to 10162
  157.2589  130.6649  149.5965 LP  0  0  0  0  0  0  0  0  0  0  0  0  # atno 17370 bound_to 10713
  155.9681  130.4515  150.5737 LP  0  0  0  0  0  0  0  0  0  0  0  0  # atno 17371 bound_to 10713
  141.1918  133.6573  156.5475 LP  0  0  0  0  0  0  0  0  0  0  0  0  # atno 17394 bound_to 11000
  140.3956  134.7402  157.4748 LP  0  0  0  0  0  0  0  0  0  0  0  0  # atno 17395 bound_to 11000

$$$$
