AV-unprocessed.smi:40|AV-procd|sdf|375|dock8
  -GOLD-   2262016223D 1   1.00000     0.00000
 Structure written by MMmdl.
 47 48  0  0  0  0  0  0  0  0  1 V2000
  151.6691  145.1175  159.7757 C   0  0  0  0  0  0  0  0  0  0  0  0
  152.0718  143.8326  159.0436 C   0  0  0  0  0  0  0  0  0  0  0  0
  152.2400  142.6395  159.9951 C   0  0  0  0  0  0  0  0  0  0  0  0
  152.8989  141.4298  159.3144 C   0  0  0  0  0  0  0  0  0  0  0  0
  152.0854  140.8982  158.1227 C   0  0  0  0  0  0  0  0  0  0  0  0
  152.4161  139.5452  157.8379 O   0  0  0  0  0  0  0  0  0  0  0  0
  151.5273  138.7237  157.2365 C   0  0  0  0  0  0  0  0  0  0  0  0
  150.3374  138.9897  157.0694 O   0  0  0  0  0  0  0  0  0  0  0  0
  152.1537  137.4732  156.8590 N   0  0  0  0  0  0  0  0  0  0  0  0
  151.5570  136.4315  156.2405 C   0  0  0  0  0  0  0  0  0  0  0  0
  151.7919  135.2232  156.7184 N   0  0  0  0  0  0  0  0  0  0  0  0
  151.2601  134.0785  156.1863 C   0  0  0  0  0  0  0  0  0  0  0  0
  151.5128  132.9807  156.6800 O   0  0  0  0  0  0  0  0  0  0  0  0
  150.4098  134.2186  155.0640 N   0  0  0  0  0  0  0  0  0  0  0  0
  149.8098  132.9905  154.4160 C   0  0  2  0  0  0  0  0  0  0  0  0
  149.2626  133.3794  153.1942 O   0  0  0  0  0  0  0  0  0  0  0  0
  148.0543  132.6683  152.9814 C   0  0  2  0  0  0  0  0  0  0  0  0
  147.1647  133.4277  151.9908 C   0  0  0  0  0  0  0  0  0  0  0  0
  147.4580  132.5328  154.3841 C   0  0  1  0  0  0  0  0  0  0  0  0
  146.6037  131.4083  154.4471 O   0  0  0  0  0  0  0  0  0  0  0  0
  148.6906  132.3342  155.2597 C   0  0  2  0  0  0  0  0  0  0  0  0
  148.5012  132.9104  156.5399 O   0  0  0  0  0  0  0  0  0  0  0  0
  150.1351  135.4811  154.5608 C   0  0  0  0  0  0  0  0  0  0  0  0
  150.6720  136.5955  155.1011 C   0  0  0  0  0  0  0  0  0  0  0  0
  150.3725  137.8067  154.6004 F   0  0  0  0  0  0  0  0  0  0  0  0
  150.6281  132.3003  154.2079 H   0  0  0  0  0  0  0  0  0  0  0  0
  148.3123  131.6855  152.5817 H   0  0  0  0  0  0  0  0  0  0  0  0
  146.9234  133.4435  154.6599 H   0  0  0  0  0  0  0  0  0  0  0  0
  148.9339  131.2758  155.3659 H   0  0  0  0  0  0  0  0  0  0  0  0
  151.5616  145.9460  159.0753 H   0  0  0  0  0  0  0  0  0  0  0  0
  152.4191  145.4015  160.5143 H   0  0  0  0  0  0  0  0  0  0  0  0
  150.7175  144.9942  160.2936 H   0  0  0  0  0  0  0  0  0  0  0  0
  151.3181  143.5974  158.2913 H   0  0  0  0  0  0  0  0  0  0  0  0
  153.0039  144.0046  158.5041 H   0  0  0  0  0  0  0  0  0  0  0  0
  152.8393  142.9422  160.8547 H   0  0  0  0  0  0  0  0  0  0  0  0
  151.2635  142.3515  160.3865 H   0  0  0  0  0  0  0  0  0  0  0  0
  153.9074  141.6894  158.9900 H   0  0  0  0  0  0  0  0  0  0  0  0
  153.0123  140.6278  160.0443 H   0  0  0  0  0  0  0  0  0  0  0  0
  151.0161  141.0006  158.3131 H   0  0  0  0  0  0  0  0  0  0  0  0
  152.2982  141.4966  157.2366 H   0  0  0  0  0  0  0  0  0  0  0  0
  153.1496  137.4305  157.0174 H   0  0  0  0  0  0  0  0  0  0  0  0
  146.2239  132.9013  151.8276 H   0  0  0  0  0  0  0  0  0  0  0  0
  147.6598  133.5333  151.0252 H   0  0  0  0  0  0  0  0  0  0  0  0
  146.9304  134.4280  152.3558 H   0  0  0  0  0  0  0  0  0  0  0  0
  146.0083  131.5225  155.1721 H   0  0  0  0  0  0  0  0  0  0  0  0
  148.4661  132.2148  157.1784 H   0  0  0  0  0  0  0  0  0  0  0  0
  149.4669  135.5868  153.7180 H   0  0  0  0  0  0  0  0  0  0  0  0
  1  2  1  0  0  0  0
  1 30  1  0  0  0  0
  1 31  1  0  0  0  0
  1 32  1  0  0  0  0
  2  3  1  0  0  0  0
  2 33  1  0  0  0  0
  2 34  1  0  0  0  0
  3  4  1  0  0  0  0
  3 35  1  0  0  0  0
  3 36  1  0  0  0  0
  4  5  1  0  0  0  0
  4 37  1  0  0  0  0
  4 38  1  0  0  0  0
  5  6  1  0  0  0  0
  5 39  1  0  0  0  0
  5 40  1  0  0  0  0
  6  7  1  0  0  0  0
  7  8  2  0  0  0  0
  7  9  1  0  0  0  0
  9 10  1  0  0  0  0
  9 41  1  0  0  0  0
 10 24  1  0  0  0  0
 10 11  2  0  0  0  0
 11 12  1  0  0  0  0
 12 13  2  0  0  0  0
 12 14  1  0  0  0  0
 14 15  1  0  0  0  0
 14 23  1  0  0  0  0
 15 26  1  0  0  0  0
 15 21  1  0  0  0  0
 15 16  1  0  0  0  0
 16 17  1  0  0  0  0
 17 27  1  0  0  0  0
 17 18  1  0  0  0  0
 17 19  1  0  0  0  0
 18 42  1  0  0  0  0
 18 43  1  0  0  0  0
 18 44  1  0  0  0  0
 19 28  1  0  0  0  0
 19 20  1  0  0  0  0
 19 21  1  0  0  0  0
 20 45  1  0  0  0  0
 21 29  1  0  0  0  0
 21 22  1  0  0  0  0
 22 46  1  0  0  0  0
 23 24  2  0  0  0  0
 23 47  1  0  0  0  0
 24 25  1  0  0  0  0
M  END
> <s_m_source_file>
AV-unprocessed.smi

> <i_m_source_file_index>
40

> <i_lp_mmshare_version>
43012

> <i_f3d_flags>
0

> <s_epik_input>
W0NIM11bQ0gyXVtDSDJdW0NIMl1bQ0gyXU9DKD1PKVtOSF1jMW5jKD1PKW4oW2NIXWMxRilbQ0BASF0yT1tDQEhdKFtDSDNdKVtDQEBIXShbT0hdKVtDQEhdMltPSF0=

> <s_epik_cmdline>
J2VwaWtfcHl0aG9uJywgJy1waCcsICc3LjAnLCAnLXRuJywgJzgnLCAnLW1hJywgJzIwMCcsICctbWV0YWxfYmluZGluZycsICctaW1hZScsICc8aW5maWxlLm1hZT4nLCAnLW9tYWUnLCAnPG91dGZpbGUubWFlPic=

> <r_lp_tautomer_probability>
1

> <r_epik_Ionization_Penalty>
2.29506e-06

> <r_epik_Ionization_Penalty_Charging>
8.26867e-09

> <r_epik_Ionization_Penalty_Neutral>
2.2868e-06

> <r_epik_State_Penalty>
-0

> <r_epik_Charging_Adjusted_Penalty>
8.26867e-09

> <i_epik_Tot_Q>
0

> <i_epik_Tot_abs_Q>
0

> <r_epik_Metal_State_Penalty>
-0

> <b_epik_Metal_Only>
0

> <s_epik_Chemistry_Notes>
This compound has an ester and may undergo hydrolysis at high or low pH. This compound contains an acetal/aminal-like group ( X-CH(R)-Y where X, Y are N, S, or O) that may be acid/base labile, releasing an aldehyde.

> <s_lp_Force_Field>
OPLS_2005

> <r_lp_Energy>
38.1616

> <b_lp_Chiralities_Consistent>
1

> <s_lp_Variant>
AV-unprocessed.smi:40-9

> <Gold.Version>
5.8.1

> <Gold.Id.Protein>
6NUR|6NUR_protein|mol2

> <Gold.PLP.Fitness>
43.0481

> <Gold.PLP.PLP>
-38.9005

> <Gold.PLP.part.hbond>
-2.0000

> <Gold.PLP.part.metal>
0.0000

> <Gold.PLP.part.buried>
-5.0084

> <Gold.PLP.part.nonpolar>
-32.6163

> <Gold.PLP.part.repulsive>
0.3108

> <Gold.PLP.ligand.clash>
0.0000

> <Gold.PLP.ligand.torsion>
1.0364

> <Gold.PLP.Chemscore.Hbond>
0.9920

> <Gold.PLP.Chemscore.CHOScore>
1.0000

> <Gold.PLP.Chemscore.Metal>
0.0000

> <Gold.Chemscore.Hbonds>
donor molecule, donor type, donor heavy atom, donor atom, acceptor molecule, acceptor atom, score
      L1  C    23    47       P1  7948  0.91

> <Gold.PLP.Chemscore.Internal.Correction>
0.2445

> <Gold.Rescore>
     Score         DG    S(hbond)    S(metal)    S(lipo)     H(rot)  DE(clash)    DE(int)     intcor
      5.40      -8.70       0.84        0.00      84.32       3.70       0.02       3.28       ----

> <Gold.Chemscore.Fitness>
5.4010

> <Gold.Chemscore.DG>
-8.6980

> <Gold.Chemscore.ZeroCoef>
-5.4800

> <Gold.Chemscore.Hbond>
0.8425

> <Gold.Chemscore.Metal>
0.0000

> <Gold.Chemscore.Lipo>
84.3171

> <Gold.Chemscore.Internal_Hbond>
0.0000

> <Gold.Chemscore.DEClash>
0.0213

> <Gold.Chemscore.DEInternal>
3.2757

> <Gold.Chemscore.Rot>
3.6957

> <Gold.Chemscore.Internal.Correction>
   9.000000E+99

> <Gold.Chemscore.Hbond.Weighted>
-2.8138

> <Gold.Chemscore.Metal.Weighted>
-0.0000

> <Gold.Chemscore.Lipo.Weighted>
-9.8651

> <Gold.Chemscore.Internal_Hbond.Weighted>
0.0000

> <Gold.Chemscore.DEClash.Weighted>
0.0213

> <Gold.Chemscore.DEInternal.Weighted>
3.2757

> <Gold.Chemscore.Rot.Weighted>
9.4610

> <Gold.Chemscore.Internal.Correction.Weighted>
   9.000000E+99

> <Gold.Protein.RotatedTorsions>
[ 6907 6896 6895 6894 ] final -154.66 input  -60.11 | X-H torsion
[ 7974 7965 7964 7962 ] final   64.52 input  175.53 | X-H torsion
[ 8008 7997 7996 7995 ] final   42.77 input   59.86 | X-H torsion
[ 10167 10162 10161 10158 ] final  100.28 input  -65.29 | X-H torsion
[ 10718 10713 10712 10709 ] final   23.66 input   66.30 | X-H torsion
[ 10763 10752 10751 10750 ] final  144.20 input  -60.55 | X-H torsion
[ 11005 11000 10999 10996 ] final  175.69 input  -57.11 | X-H torsion

> <Gold.Protein.ActiveResidues>
 VAL166  LYS551  ARG553  GLY616  TRP617  ASP618  TYR619  PRO620  LYS621  CYS622 
 ASP623  PHE694  ASN695  SER759  ASP760  ASP761  ALA762  ILE779  LEU786  VAL792 
 PHE793  MET794  SER795  GLU796  ALA797  LYS798  CYS799  TRP800  GLU811  SER814 

> <Gold.Protein.RotatedAtoms>
  151.2609  133.4302  159.2615 H   0  0  0  0  0  0  0  0  0  0  0  0  # atno 6907 bound_to 6896
  151.0532  134.9687  159.8232 H   0  0  0  0  0  0  0  0  0  0  0  0  # atno 6908 bound_to 6896
  152.5386  134.2562  159.8970 H   0  0  0  0  0  0  0  0  0  0  0  0  # atno 6909 bound_to 6896
  145.8493  139.3244  143.0885 H   0  0  0  0  0  0  0  0  0  0  0  0  # atno 7974 bound_to 7965
  155.2916  140.3379  155.4252 H   0  0  0  0  0  0  0  0  0  0  0  0  # atno 8008 bound_to 7997
  156.2043  140.1745  156.7873 H   0  0  0  0  0  0  0  0  0  0  0  0  # atno 8009 bound_to 7997
  154.5600  140.0689  156.8788 H   0  0  0  0  0  0  0  0  0  0  0  0  # atno 8010 bound_to 7997
  139.7541  144.6975  151.0388 H   0  0  0  0  0  0  0  0  0  0  0  0  # atno 10167 bound_to 10162
  157.1692  130.6752  149.6071 H   0  0  0  0  0  0  0  0  0  0  0  0  # atno 10718 bound_to 10713
  153.9850  135.2937  155.3417 H   0  0  0  0  0  0  0  0  0  0  0  0  # atno 10763 bound_to 10752
  154.7247  135.5094  153.8871 H   0  0  0  0  0  0  0  0  0  0  0  0  # atno 10764 bound_to 10752
  153.0836  135.6686  154.0109 H   0  0  0  0  0  0  0  0  0  0  0  0  # atno 10765 bound_to 10752
  140.3650  134.7080  157.4355 H   0  0  0  0  0  0  0  0  0  0  0  0  # atno 11005 bound_to 11000
  145.9376  140.9003  143.0324 LP  0  0  0  0  0  0  0  0  0  0  0  0  # atno 17320 bound_to 7965
  144.6730  140.1504  143.7430 LP  0  0  0  0  0  0  0  0  0  0  0  0  # atno 17321 bound_to 7965
  140.7801  143.4774  151.0064 LP  0  0  0  0  0  0  0  0  0  0  0  0  # atno 17342 bound_to 10162
  139.8461  143.7500  152.3179 LP  0  0  0  0  0  0  0  0  0  0  0  0  # atno 17343 bound_to 10162
  155.9741  130.4685  150.6361 LP  0  0  0  0  0  0  0  0  0  0  0  0  # atno 17370 bound_to 10713
  157.4059  131.0817  151.1265 LP  0  0  0  0  0  0  0  0  0  0  0  0  # atno 17371 bound_to 10713
  140.0597  134.6013  155.8763 LP  0  0  0  0  0  0  0  0  0  0  0  0  # atno 17394 bound_to 11000
  141.1972  133.6595  156.5732 LP  0  0  0  0  0  0  0  0  0  0  0  0  # atno 17395 bound_to 11000

$$$$
