AV-unprocessed.smi:2071|AV-procd|sdf|8440|dock8
  -GOLD-   2272011143D 1   1.00000     0.00000
 Structure written by MMmdl.
 45 47  0  0  0  0  0  0  0  0  1 V2000
  151.4286  134.7913  156.0273 O   0  0  0  0  0  0  0  0  0  0  0  0
  150.9075  135.5051  155.1708 C   0  0  0  0  0  0  0  0  0  0  0  0
  151.1129  136.8273  155.0873 N   0  0  0  0  0  0  0  0  0  0  0  0
  151.9603  137.6023  155.9861 C   0  0  0  0  0  0  0  0  0  0  0  0
  151.5491  139.0828  156.0115 C   0  0  0  0  0  0  0  0  0  0  0  0
  151.5038  139.6542  157.4384 C   0  0  0  0  0  0  0  0  0  0  0  0
  151.1073  141.0650  157.4365 N   0  0  0  0  0  0  0  0  0  0  0  0
  150.0795  141.5622  156.7246 C   0  0  0  0  0  0  0  0  0  0  0  0
  149.3402  140.9323  155.9697 O   0  0  0  0  0  0  0  0  0  0  0  0
  149.9845  142.8740  156.9770 N   0  0  0  0  0  0  0  0  0  0  0  0
  150.9803  143.3349  157.9239 C   0  0  0  0  0  0  0  0  0  0  0  0
  150.3815  143.9501  159.1952 C   0  0  0  0  0  0  0  0  0  0  0  0
  151.4990  144.8273  159.7760 C   0  0  0  0  0  0  0  0  0  0  0  0
  152.4513  145.1534  158.6112 C   0  0  0  0  0  0  0  0  0  0  0  0
  151.8941  144.4370  157.3721 C   0  0  0  0  0  0  0  0  0  0  0  0
  151.7004  142.0143  158.1725 C   0  0  0  0  0  0  0  0  0  0  0  0
  152.6580  141.8752  158.9343 O   0  0  0  0  0  0  0  0  0  0  0  0
  150.0823  135.0813  154.1980 N   0  0  0  0  0  0  0  0  0  0  0  0
  149.6124  133.7652  153.9361 C   0  0  0  0  0  0  0  0  0  0  0  0
  150.1173  132.5949  154.5538 C   0  0  0  0  0  0  0  0  0  0  0  0
  149.5521  131.3499  154.2160 C   0  0  0  0  0  0  0  0  0  0  0  0
  148.4998  131.3198  153.2808 C   0  0  0  0  0  0  0  0  0  0  0  0
  148.0001  132.4273  152.6939 N   0  0  0  0  0  0  0  0  0  0  0  0
  148.5472  133.6172  153.0223 C   0  0  0  0  0  0  0  0  0  0  0  0
  150.6486  137.3358  154.3489 H   0  0  0  0  0  0  0  0  0  0  0  0
  151.9295  137.1786  156.9914 H   0  0  0  0  0  0  0  0  0  0  0  0
  152.9906  137.5097  155.6422 H   0  0  0  0  0  0  0  0  0  0  0  0
  152.2487  139.6629  155.4079 H   0  0  0  0  0  0  0  0  0  0  0  0
  150.5697  139.1982  155.5449 H   0  0  0  0  0  0  0  0  0  0  0  0
  150.8097  139.0736  158.0486 H   0  0  0  0  0  0  0  0  0  0  0  0
  152.4790  139.5431  157.9155 H   0  0  0  0  0  0  0  0  0  0  0  0
  149.2924  143.4849  156.5682 H   0  0  0  0  0  0  0  0  0  0  0  0
  149.5244  144.5733  158.9362 H   0  0  0  0  0  0  0  0  0  0  0  0
  150.0346  143.2040  159.9119 H   0  0  0  0  0  0  0  0  0  0  0  0
  151.0962  145.7289  160.2384 H   0  0  0  0  0  0  0  0  0  0  0  0
  152.0401  144.2807  160.5495 H   0  0  0  0  0  0  0  0  0  0  0  0
  152.5309  146.2277  158.4419 H   0  0  0  0  0  0  0  0  0  0  0  0
  153.4525  144.7866  158.8406 H   0  0  0  0  0  0  0  0  0  0  0  0
  152.6898  144.0546  156.7307 H   0  0  0  0  0  0  0  0  0  0  0  0
  151.3089  145.1393  156.7765 H   0  0  0  0  0  0  0  0  0  0  0  0
  149.7914  135.7815  153.5315 H   0  0  0  0  0  0  0  0  0  0  0  0
  150.9107  132.6235  155.2838 H   0  0  0  0  0  0  0  0  0  0  0  0
  149.9150  130.4384  154.6678 H   0  0  0  0  0  0  0  0  0  0  0  0
  148.0442  130.3816  153.0007 H   0  0  0  0  0  0  0  0  0  0  0  0
  148.1205  134.4815  152.5339 H   0  0  0  0  0  0  0  0  0  0  0  0
  1  2  2  0  0  0  0
  2  3  1  0  0  0  0
  2 18  1  0  0  0  0
  3  4  1  0  0  0  0
  3 25  1  0  0  0  0
  4  5  1  0  0  0  0
  4 26  1  0  0  0  0
  4 27  1  0  0  0  0
  5  6  1  0  0  0  0
  5 28  1  0  0  0  0
  5 29  1  0  0  0  0
  6  7  1  0  0  0  0
  6 30  1  0  0  0  0
  6 31  1  0  0  0  0
  7 16  1  0  0  0  0
  7  8  1  0  0  0  0
  8  9  2  0  0  0  0
  8 10  1  0  0  0  0
 10 11  1  0  0  0  0
 10 32  1  0  0  0  0
 11 15  1  0  0  0  0
 11 12  1  0  0  0  0
 11 16  1  0  0  0  0
 12 13  1  0  0  0  0
 12 33  1  0  0  0  0
 12 34  1  0  0  0  0
 13 14  1  0  0  0  0
 13 35  1  0  0  0  0
 13 36  1  0  0  0  0
 14 15  1  0  0  0  0
 14 37  1  0  0  0  0
 14 38  1  0  0  0  0
 15 39  1  0  0  0  0
 15 40  1  0  0  0  0
 16 17  2  0  0  0  0
 18 19  1  0  0  0  0
 18 41  1  0  0  0  0
 19 24  1  0  0  0  0
 19 20  2  0  0  0  0
 20 21  1  0  0  0  0
 20 42  1  0  0  0  0
 21 22  2  0  0  0  0
 21 43  1  0  0  0  0
 22 23  1  0  0  0  0
 22 44  1  0  0  0  0
 23 24  2  0  0  0  0
 24 45  1  0  0  0  0
M  END
> <s_m_source_file>
AV-unprocessed.smi

> <i_m_source_file_index>
2071

> <i_lp_mmshare_version>
43012

> <i_f3d_flags>
0

> <s_epik_input>
W2NIXTFuW2NIXVtjSF1bY0hdYzFbTkhdQyg9TylbTkhdW0NIMl1bQ0gyXVtDSDJdTihDMj1PKUMoPU8pW05IXUMyM1tDSDJdW0NIMl1bQ0gyXVtDSDJdMw==

> <s_epik_cmdline>
J2VwaWtfcHl0aG9uJywgJy1waCcsICc3LjAnLCAnLXRuJywgJzgnLCAnLW1hJywgJzIwMCcsICctbWV0YWxfYmluZGluZycsICctaW1hZScsICc8aW5maWxlLm1hZT4nLCAnLW9tYWUnLCAnPG91dGZpbGUubWFlPic=

> <r_lp_tautomer_probability>
1

> <r_epik_Ionization_Penalty>
0.00482956

> <r_epik_Ionization_Penalty_Charging>
0

> <r_epik_Ionization_Penalty_Neutral>
0.00482956

> <r_epik_State_Penalty>
0.00344413

> <r_epik_Charging_Adjusted_Penalty>
0.00344413

> <i_epik_Tot_Q>
0

> <i_epik_Tot_abs_Q>
0

> <r_epik_Metal_State_Penalty>
0.0123255

> <b_epik_Metal_Only>
0

> <s_lp_Force_Field>
OPLS_2005

> <r_lp_Energy>
39.9018

> <b_lp_Chiralities_Consistent>
1

> <s_lp_Variant>
AV-unprocessed.smi:2071-1

> <Gold.Version>
5.8.1

> <Gold.Id.Protein>
6NUR|6NUR_protein|mol2

> <Gold.PLP.Fitness>
50.9118

> <Gold.PLP.PLP>
-43.3519

> <Gold.PLP.part.hbond>
-2.3382

> <Gold.PLP.part.metal>
0.0000

> <Gold.PLP.part.buried>
-6.1416

> <Gold.PLP.part.nonpolar>
-34.6040

> <Gold.PLP.part.repulsive>
0.3415

> <Gold.PLP.ligand.clash>
0.0000

> <Gold.PLP.ligand.torsion>
0.7066

> <Gold.PLP.Chemscore.Hbond>
2.0000

> <Gold.PLP.Chemscore.CHOScore>
0.9861

> <Gold.PLP.Chemscore.Metal>
0.0000

> <Gold.Chemscore.Hbonds>
donor molecule, donor type, donor heavy atom, donor atom, acceptor molecule, acceptor atom, score
      L1  H    10    32       P1  8028  1.00
      L1  H    18    41       P1  7948  0.68
      L1  C    22    44       P1 10747  0.01
      L1  C    24    45       P1  7948  0.93

> <Gold.PLP.Chemscore.Internal.Correction>
0.0148

> <Gold.Rescore>
     Score         DG    S(hbond)    S(metal)    S(lipo)     H(rot)  DE(clash)    DE(int)     intcor
     14.37     -17.50       1.57        0.00     100.87       1.96       0.03       3.10       ----

> <Gold.Chemscore.Fitness>
14.3670

> <Gold.Chemscore.DG>
-17.4968

> <Gold.Chemscore.ZeroCoef>
-5.4800

> <Gold.Chemscore.Hbond>
1.5693

> <Gold.Chemscore.Metal>
0.0000

> <Gold.Chemscore.Lipo>
100.8680

> <Gold.Chemscore.Internal_Hbond>
0.0000

> <Gold.Chemscore.DEClash>
0.0263

> <Gold.Chemscore.DEInternal>
3.1035

> <Gold.Chemscore.Rot>
1.9634

> <Gold.Chemscore.Internal.Correction>
   9.000000E+99

> <Gold.Chemscore.Hbonds>
donor molecule, donor type, donor heavy atom, donor atom, acceptor molecule, acceptor atom, score
      L1  H    10    32       P1  8028  0.93
      L1  H    18    41       P1  7948  0.07

> <Gold.Chemscore.Hbond.Weighted>
-5.2416

> <Gold.Chemscore.Metal.Weighted>
-0.0000

> <Gold.Chemscore.Lipo.Weighted>
-11.8016

> <Gold.Chemscore.Internal_Hbond.Weighted>
0.0000

> <Gold.Chemscore.DEClash.Weighted>
0.0263

> <Gold.Chemscore.DEInternal.Weighted>
3.1035

> <Gold.Chemscore.Rot.Weighted>
5.0263

> <Gold.Chemscore.Internal.Correction.Weighted>
   9.000000E+99

> <Gold.Protein.RotatedTorsions>
[ 6907 6896 6895 6894 ] final -169.24 input  -60.11 | X-H torsion
[ 7974 7965 7964 7962 ] final -100.44 input  175.53 | X-H torsion
[ 8008 7997 7996 7995 ] final   50.99 input   59.86 | X-H torsion
[ 10167 10162 10161 10158 ] final  -74.34 input  -65.29 | X-H torsion
[ 10718 10713 10712 10709 ] final   11.82 input   66.30 | X-H torsion
[ 10763 10752 10751 10750 ] final -155.04 input  -60.55 | X-H torsion
[ 11005 11000 10999 10996 ] final -100.73 input  -57.11 | X-H torsion

> <Gold.Protein.ActiveResidues>
 VAL166  LYS551  ARG553  GLY616  TRP617  ASP618  TYR619  PRO620  LYS621  CYS622 
 ASP623  PHE694  ASN695  SER759  ASP760  ASP761  ALA762  ILE779  LEU786  VAL792 
 PHE793  MET794  SER795  GLU796  ALA797  LYS798  CYS799  TRP800  GLU811  SER814 

> <Gold.Protein.RotatedAtoms>
  151.4885  133.3530  159.2849 H   0  0  0  0  0  0  0  0  0  0  0  0  # atno 6907 bound_to 6896
  150.8850  134.8249  159.7263 H   0  0  0  0  0  0  0  0  0  0  0  0  # atno 6908 bound_to 6896
  152.4787  134.4787  159.9710 H   0  0  0  0  0  0  0  0  0  0  0  0  # atno 6909 bound_to 6896
  145.2945  140.9361  143.2859 H   0  0  0  0  0  0  0  0  0  0  0  0  # atno 7974 bound_to 7965
  155.4279  140.3449  155.4277 H   0  0  0  0  0  0  0  0  0  0  0  0  # atno 8008 bound_to 7997
  156.1354  140.1526  156.9033 H   0  0  0  0  0  0  0  0  0  0  0  0  # atno 8009 bound_to 7997
  154.4927  140.0836  156.7611 H   0  0  0  0  0  0  0  0  0  0  0  0  # atno 8010 bound_to 7997
  140.5035  143.2357  151.7713 H   0  0  0  0  0  0  0  0  0  0  0  0  # atno 10167 bound_to 10162
  157.0011  130.6080  149.5696 H   0  0  0  0  0  0  0  0  0  0  0  0  # atno 10718 bound_to 10713
  154.7816  135.3176  154.7978 H   0  0  0  0  0  0  0  0  0  0  0  0  # atno 10763 bound_to 10752
  153.8688  135.6846  153.4780 H   0  0  0  0  0  0  0  0  0  0  0  0  # atno 10764 bound_to 10752
  153.1454  135.4721  154.9495 H   0  0  0  0  0  0  0  0  0  0  0  0  # atno 10765 bound_to 10752
  141.1259  133.8422  157.1141 H   0  0  0  0  0  0  0  0  0  0  0  0  # atno 11005 bound_to 11000
  144.9145  139.4488  143.6571 LP  0  0  0  0  0  0  0  0  0  0  0  0  # atno 17320 bound_to 7965
  146.3173  139.7971  142.8973 LP  0  0  0  0  0  0  0  0  0  0  0  0  # atno 17321 bound_to 7965
  139.4878  144.4490  151.9677 LP  0  0  0  0  0  0  0  0  0  0  0  0  # atno 17342 bound_to 10162
  140.3579  144.3009  150.5938 LP  0  0  0  0  0  0  0  0  0  0  0  0  # atno 17343 bound_to 10162
  156.0171  130.5265  150.8166 LP  0  0  0  0  0  0  0  0  0  0  0  0  # atno 17370 bound_to 10713
  157.5389  131.0940  150.9854 LP  0  0  0  0  0  0  0  0  0  0  0  0  # atno 17371 bound_to 10713
  140.0257  134.9925  157.0681 LP  0  0  0  0  0  0  0  0  0  0  0  0  # atno 17394 bound_to 11000
  140.4366  134.1724  155.7171 LP  0  0  0  0  0  0  0  0  0  0  0  0  # atno 17395 bound_to 11000

$$$$
