AV-unprocessed.smi:38|AV-procd|sdf|341|dock2
  -GOLD-   2262016173D 1   1.00000     0.00000
 Structure written by MMmdl.
 28 29  0  0  0  0  0  0  0  0  1 V2000
  152.6327  139.6022  156.1337 O   0  0  0  0  0  0  0  0  0  0  0  0
  151.5376  139.6273  155.5754 C   0  0  0  0  0  0  0  0  0  0  0  0
  150.6775  140.7133  155.7640 N   0  0  0  0  0  0  0  0  0  0  0  0
  149.4142  140.8583  155.1875 C   0  0  0  0  0  0  0  0  0  0  0  0
  148.7511  141.8697  155.4127 O   0  0  0  0  0  0  0  0  0  0  0  0
  148.9643  139.8127  154.3509 N   0  0  0  0  0  0  0  0  0  0  0  0
  147.6034  139.9093  153.7002 C   0  0  1  0  0  0  0  0  0  0  0  0
  147.7095  139.7389  152.1842 C   0  0  0  0  0  0  0  0  0  0  0  0
  146.4690  138.9221  151.8894 C   0  0  1  0  0  0  0  0  0  0  0  0
  146.6226  138.1849  150.6937 O   0  0  0  0  0  0  0  0  0  0  0  0
  146.3806  138.0220  153.1247 C   0  0  2  0  0  0  0  0  0  0  0  0
  144.9633  137.4965  153.3992 C   0  0  0  0  0  0  0  0  0  0  0  0
  144.4048  136.9681  152.2155 O   0  0  0  0  0  0  0  0  0  0  0  0
  146.7918  138.8814  154.1882 O   0  0  0  0  0  0  0  0  0  0  0  0
  149.7900  138.7191  154.1262 C   0  0  0  0  0  0  0  0  0  0  0  0
  151.0154  138.5924  154.6880 C   0  0  0  0  0  0  0  0  0  0  0  0
  151.7591  137.5052  154.4218 F   0  0  0  0  0  0  0  0  0  0  0  0
  150.9993  141.4574  156.3658 H   0  0  0  0  0  0  0  0  0  0  0  0
  147.1479  140.8544  153.9997 H   0  0  0  0  0  0  0  0  0  0  0  0
  145.5972  139.5749  151.8228 H   0  0  0  0  0  0  0  0  0  0  0  0
  147.0926  137.2003  153.0277 H   0  0  0  0  0  0  0  0  0  0  0  0
  147.7385  140.7032  151.6762 H   0  0  0  0  0  0  0  0  0  0  0  0
  148.6127  139.1774  151.9371 H   0  0  0  0  0  0  0  0  0  0  0  0
  145.7656  138.0036  150.3388 H   0  0  0  0  0  0  0  0  0  0  0  0
  144.9642  136.7446  154.1890 H   0  0  0  0  0  0  0  0  0  0  0  0
  144.3185  138.3120  153.7278 H   0  0  0  0  0  0  0  0  0  0  0  0
  144.1498  137.6862  151.6567 H   0  0  0  0  0  0  0  0  0  0  0  0
  149.4547  137.9285  153.4721 H   0  0  0  0  0  0  0  0  0  0  0  0
  1  2  2  0  0  0  0
  2 16  1  0  0  0  0
  2  3  1  0  0  0  0
  3 18  1  0  0  0  0
  3  4  1  0  0  0  0
  4  5  2  0  0  0  0
  4  6  1  0  0  0  0
  6  7  1  0  0  0  0
  6 15  1  0  0  0  0
  7 19  1  0  0  0  0
  7 14  1  0  0  0  0
  7  8  1  0  0  0  0
  8  9  1  0  0  0  0
  8 22  1  0  0  0  0
  8 23  1  0  0  0  0
  9 20  1  0  0  0  0
  9 10  1  0  0  0  0
  9 11  1  0  0  0  0
 10 24  1  0  0  0  0
 11 21  1  0  0  0  0
 11 12  1  0  0  0  0
 11 14  1  0  0  0  0
 12 13  1  0  0  0  0
 12 25  1  0  0  0  0
 12 26  1  0  0  0  0
 13 27  1  0  0  0  0
 15 16  2  0  0  0  0
 15 28  1  0  0  0  0
 16 17  1  0  0  0  0
M  END
> <s_m_source_file>
AV-unprocessed.smi

> <i_m_source_file_index>
38

> <i_lp_mmshare_version>
43012

> <i_f3d_flags>
0

> <s_epik_input>
Tz1jMVtuSF1jKD1PKW4oW2NIXWMxRilbQ0BIXTJbQ0gyXVtDQEhdKFtPSF0pW0NASF0oTzIpW0NIMl1bT0hd

> <s_epik_cmdline>
J2VwaWtfcHl0aG9uJywgJy1waCcsICc3LjAnLCAnLXRuJywgJzgnLCAnLW1hJywgJzIwMCcsICctbWV0YWxfYmluZGluZycsICctaW1hZScsICc8aW5maWxlLm1hZT4nLCAnLW9tYWUnLCAnPG91dGZpbGUubWFlPic=

> <r_lp_tautomer_probability>
0.999537

> <r_epik_Ionization_Penalty>
0.0357432

> <r_epik_Ionization_Penalty_Charging>
0.0357431

> <r_epik_Ionization_Penalty_Neutral>
1.19946e-07

> <r_epik_State_Penalty>
0.0298169

> <r_epik_Charging_Adjusted_Penalty>
0.06556

> <i_epik_Tot_Q>
0

> <i_epik_Tot_abs_Q>
0

> <r_epik_Metal_State_Penalty>
2.348

> <b_epik_Metal_Only>
0

> <s_epik_Chemistry_Notes>
This compound contains an acetal/aminal-like group ( X-CH(R)-Y where X, Y are N, S, or O) that may be acid/base labile, releasing an aldehyde.

> <s_lp_Force_Field>
OPLS_2005

> <r_lp_Energy>
27.15

> <b_lp_Chiralities_Consistent>
1

> <s_lp_Variant>
AV-unprocessed.smi:38-7

> <Gold.Version>
5.8.1

> <Gold.Id.Protein>
6NUR|6NUR_protein|mol2

> <Gold.PLP.Fitness>
40.5931

> <Gold.PLP.PLP>
-25.9644

> <Gold.PLP.part.hbond>
-4.3336

> <Gold.PLP.part.metal>
0.0000

> <Gold.PLP.part.buried>
2.4237

> <Gold.PLP.part.nonpolar>
-27.0317

> <Gold.PLP.part.repulsive>
1.8938

> <Gold.PLP.ligand.clash>
0.0000

> <Gold.PLP.ligand.torsion>
0.1523

> <Gold.PLP.Chemscore.Hbond>
3.9745

> <Gold.PLP.Chemscore.CHOScore>
1.0000

> <Gold.PLP.Chemscore.Metal>
0.0000

> <Gold.Chemscore.Hbonds>
donor molecule, donor type, donor heavy atom, donor atom, acceptor molecule, acceptor atom, score
      L1  H    10    24       P1 10171  0.99
      L1  H    13    27       P1 10171  0.91
      P1  H  7954  7966       L1    10  1.00
      P1  H  7997  8010       L1     1  1.00
      L1  C    15    28       P1  7948  1.00

> <Gold.PLP.Chemscore.Internal.Correction>
0.0097

> <Gold.Rescore>
     Score         DG    S(hbond)    S(metal)    S(lipo)     H(rot)  DE(clash)    DE(int)     intcor
     13.79     -16.15       3.83        0.00      45.59       2.91       2.17       0.20       ----

> <Gold.Chemscore.Fitness>
13.7911

> <Gold.Chemscore.DG>
-16.1546

> <Gold.Chemscore.ZeroCoef>
-5.4800

> <Gold.Chemscore.Hbond>
3.8325

> <Gold.Chemscore.Metal>
0.0000

> <Gold.Chemscore.Lipo>
45.5907

> <Gold.Chemscore.Internal_Hbond>
0.0000

> <Gold.Chemscore.DEClash>
2.1658

> <Gold.Chemscore.DEInternal>
0.1976

> <Gold.Chemscore.Rot>
2.9141

> <Gold.Chemscore.Internal.Correction>
   9.000000E+99

> <Gold.Chemscore.Hbonds>
donor molecule, donor type, donor heavy atom, donor atom, acceptor molecule, acceptor atom, score
      L1  H    10    24       P1 10171  0.88
      L1  H    13    27       P1 10171  0.85
      P1  H  7954  7966       L1    10  0.94
      P1  H  7997  8010       L1     1  0.99

> <Gold.Chemscore.Hbond.Weighted>
-12.8005

> <Gold.Chemscore.Metal.Weighted>
-0.0000

> <Gold.Chemscore.Lipo.Weighted>
-5.3341

> <Gold.Chemscore.Internal_Hbond.Weighted>
0.0000

> <Gold.Chemscore.DEClash.Weighted>
2.1658

> <Gold.Chemscore.DEInternal.Weighted>
0.1976

> <Gold.Chemscore.Rot.Weighted>
7.4601

> <Gold.Chemscore.Internal.Correction.Weighted>
   9.000000E+99

> <Gold.Protein.RotatedTorsions>
[ 6907 6896 6895 6894 ] final -124.17 input  -60.11 | X-H torsion
[ 7974 7965 7964 7962 ] final  107.31 input  175.53 | X-H torsion
[ 8008 7997 7996 7995 ] final   93.76 input   59.86 | X-H torsion
[ 10167 10162 10161 10158 ] final -133.26 input  -65.29 | X-H torsion
[ 10718 10713 10712 10709 ] final   17.74 input   66.30 | X-H torsion
[ 10763 10752 10751 10750 ] final  -50.41 input  -60.55 | X-H torsion
[ 11005 11000 10999 10996 ] final   23.09 input  -57.11 | X-H torsion

> <Gold.Protein.ActiveResidues>
 VAL166  LYS551  ARG553  GLY616  TRP617  ASP618  TYR619  PRO620  LYS621  CYS622 
 ASP623  PHE694  ASN695  SER759  ASP760  ASP761  ALA762  ILE779  LEU786  VAL792 
 PHE793  MET794  SER795  GLU796  ALA797  LYS798  CYS799  TRP800  GLU811  SER814 

> <Gold.Protein.RotatedAtoms>
  150.8741  133.7463  159.2951 H   0  0  0  0  0  0  0  0  0  0  0  0  # atno 6907 bound_to 6896
  151.5065  135.1062  159.9852 H   0  0  0  0  0  0  0  0  0  0  0  0  # atno 6908 bound_to 6896
  152.4716  133.7997  159.7002 H   0  0  0  0  0  0  0  0  0  0  0  0  # atno 6909 bound_to 6896
  145.2953  139.2587  143.3843 H   0  0  0  0  0  0  0  0  0  0  0  0  # atno 7974 bound_to 7965
  156.0504  140.3308  155.7344 H   0  0  0  0  0  0  0  0  0  0  0  0  # atno 8008 bound_to 7997
  155.5610  140.0619  157.2846 H   0  0  0  0  0  0  0  0  0  0  0  0  # atno 8009 bound_to 7997
  154.4433  140.1877  156.0770 H   0  0  0  0  0  0  0  0  0  0  0  0  # atno 8010 bound_to 7997
  139.9001  143.6618  152.2596 H   0  0  0  0  0  0  0  0  0  0  0  0  # atno 10167 bound_to 10162
  157.0864  130.6409  149.5838 H   0  0  0  0  0  0  0  0  0  0  0  0  # atno 10718 bound_to 10713
  154.1099  135.6550  153.4883 H   0  0  0  0  0  0  0  0  0  0  0  0  # atno 10763 bound_to 10752
  153.0260  135.5245  154.7202 H   0  0  0  0  0  0  0  0  0  0  0  0  # atno 10764 bound_to 10752
  154.6379  135.2984  155.0108 H   0  0  0  0  0  0  0  0  0  0  0  0  # atno 10765 bound_to 10752
  140.3734  134.1998  155.7666 H   0  0  0  0  0  0  0  0  0  0  0  0  # atno 11005 bound_to 11000
  146.3171  140.3453  142.8651 LP  0  0  0  0  0  0  0  0  0  0  0  0  # atno 17320 bound_to 7965
  144.9139  140.7789  143.5790 LP  0  0  0  0  0  0  0  0  0  0  0  0  # atno 17321 bound_to 7965
  139.7033  144.7632  151.1236 LP  0  0  0  0  0  0  0  0  0  0  0  0  # atno 17342 bound_to 10162
  140.7708  143.5429  150.9292 LP  0  0  0  0  0  0  0  0  0  0  0  0  # atno 17343 bound_to 10162
  155.9909  130.4962  150.7279 LP  0  0  0  0  0  0  0  0  0  0  0  0  # atno 17370 bound_to 10713
  157.4757  131.0897  151.0592 LP  0  0  0  0  0  0  0  0  0  0  0  0  # atno 17371 bound_to 10713
  141.1947  133.8122  157.0745 LP  0  0  0  0  0  0  0  0  0  0  0  0  # atno 17394 bound_to 11000
  140.0534  134.9793  157.1177 LP  0  0  0  0  0  0  0  0  0  0  0  0  # atno 17395 bound_to 11000

$$$$
