AV-unprocessed.smi:2349|AV-procd|sdf|9371|dock7
  -GOLD-   2272012593D 1   1.00000     0.00000
 Structure written by MMmdl.
 52 53  0  0  0  0  0  0  0  0  1 V2000
  142.8918  134.5379  163.0496 C   0  0  0  0  0  0  0  0  0  0  0  0
  144.2610  135.0374  162.6389 C   0  0  0  0  0  0  0  0  0  0  0  0
  145.3414  134.1434  162.4840 C   0  0  0  0  0  0  0  0  0  0  0  0
  146.5926  134.6637  162.1006 C   0  0  0  0  0  0  0  0  0  0  0  0
  146.7160  136.0520  161.8895 C   0  0  0  0  0  0  0  0  0  0  0  0
  148.0411  136.6588  161.4605 C   0  0  0  0  0  0  0  0  0  0  0  0
  148.5686  136.0901  160.1323 C   0  0  0  0  0  0  0  0  0  0  0  0
  148.9120  137.1559  159.1999 N   0  0  0  0  0  0  0  0  0  0  0  0
  150.1115  137.3262  158.6234 C   0  0  0  0  0  0  0  0  0  0  0  0
  151.0613  136.5781  158.8594 O   0  0  0  0  0  0  0  0  0  0  0  0
  150.1818  138.3760  157.7658 N   0  0  0  0  0  0  0  0  0  0  0  0
  149.2206  139.4870  157.6630 C   0  0  0  0  0  0  0  0  0  0  0  0
  149.8652  140.7519  158.2563 C   0  0  0  0  0  0  0  0  0  0  0  0
  151.1918  141.0964  157.5419 C   0  0  0  0  0  0  0  0  0  0  0  0
  151.8741  142.3148  158.2087 C   0  0  0  0  0  0  0  0  0  0  0  0
  152.4401  142.0576  159.6204 C   0  0  0  0  0  0  0  0  0  0  0  0
  152.8705  140.9376  159.9019 O   0  0  0  0  0  0  0  0  0  0  0  0
  152.4549  143.0752  160.5130 N   0  0  0  0  0  0  0  0  0  0  0  0
  151.9905  144.4119  160.1348 C   0  0  0  0  0  0  0  0  0  0  0  0
  152.8925  142.9225  161.9029 C   0  0  0  0  0  0  0  0  0  0  0  0
  152.1118  139.8510  157.4786 C   0  0  0  0  0  0  0  0  0  0  0  0
  151.3622  138.6229  156.9300 C   0  0  0  0  0  0  0  0  0  0  0  0
  145.5736  136.8598  162.0762 C   0  0  0  0  0  0  0  0  0  0  0  0
  144.3694  136.3697  162.4399 N   0  0  0  0  0  0  0  0  0  0  0  0
  142.8506  133.4483  163.0437 H   0  0  0  0  0  0  0  0  0  0  0  0
  142.1281  134.9093  162.3658 H   0  0  0  0  0  0  0  0  0  0  0  0
  142.6507  134.8830  164.0553 H   0  0  0  0  0  0  0  0  0  0  0  0
  145.2171  133.0838  162.6529 H   0  0  0  0  0  0  0  0  0  0  0  0
  147.4403  134.0076  161.9677 H   0  0  0  0  0  0  0  0  0  0  0  0
  147.9224  137.7397  161.3737 H   0  0  0  0  0  0  0  0  0  0  0  0
  148.7773  136.4975  162.2489 H   0  0  0  0  0  0  0  0  0  0  0  0
  149.4361  135.4550  160.3180 H   0  0  0  0  0  0  0  0  0  0  0  0
  147.8055  135.4620  159.6704 H   0  0  0  0  0  0  0  0  0  0  0  0
  148.1766  137.8043  158.9592 H   0  0  0  0  0  0  0  0  0  0  0  0
  148.9764  139.6528  156.6127 H   0  0  0  0  0  0  0  0  0  0  0  0
  148.2642  139.2954  158.1495 H   0  0  0  0  0  0  0  0  0  0  0  0
  149.1703  141.5887  158.1763 H   0  0  0  0  0  0  0  0  0  0  0  0
  150.0446  140.6000  159.3219 H   0  0  0  0  0  0  0  0  0  0  0  0
  150.9302  141.3658  156.5173 H   0  0  0  0  0  0  0  0  0  0  0  0
  152.7037  142.6497  157.5852 H   0  0  0  0  0  0  0  0  0  0  0  0
  151.1563  143.1348  158.2384 H   0  0  0  0  0  0  0  0  0  0  0  0
  152.3699  144.7021  159.1538 H   0  0  0  0  0  0  0  0  0  0  0  0
  152.3200  145.1780  160.8375 H   0  0  0  0  0  0  0  0  0  0  0  0
  150.9005  144.4355  160.0987 H   0  0  0  0  0  0  0  0  0  0  0  0
  152.4653  142.0290  162.3600 H   0  0  0  0  0  0  0  0  0  0  0  0
  152.5881  143.7646  162.5249 H   0  0  0  0  0  0  0  0  0  0  0  0
  153.9796  142.8507  161.9527 H   0  0  0  0  0  0  0  0  0  0  0  0
  152.9834  140.0465  156.8543 H   0  0  0  0  0  0  0  0  0  0  0  0
  152.4934  139.6238  158.4751 H   0  0  0  0  0  0  0  0  0  0  0  0
  152.0362  137.7662  156.8870 H   0  0  0  0  0  0  0  0  0  0  0  0
  151.0486  138.8028  155.9007 H   0  0  0  0  0  0  0  0  0  0  0  0
  145.6227  137.9273  161.9187 H   0  0  0  0  0  0  0  0  0  0  0  0
  1  2  1  0  0  0  0
  1 25  1  0  0  0  0
  1 26  1  0  0  0  0
  1 27  1  0  0  0  0
  2 24  1  0  0  0  0
  2  3  2  0  0  0  0
  3  4  1  0  0  0  0
  3 28  1  0  0  0  0
  4  5  2  0  0  0  0
  4 29  1  0  0  0  0
  5  6  1  0  0  0  0
  5 23  1  0  0  0  0
  6  7  1  0  0  0  0
  6 30  1  0  0  0  0
  6 31  1  0  0  0  0
  7  8  1  0  0  0  0
  7 32  1  0  0  0  0
  7 33  1  0  0  0  0
  8  9  1  0  0  0  0
  8 34  1  0  0  0  0
  9 10  2  0  0  0  0
  9 11  1  0  0  0  0
 11 22  1  0  0  0  0
 11 12  1  0  0  0  0
 12 13  1  0  0  0  0
 12 35  1  0  0  0  0
 12 36  1  0  0  0  0
 13 14  1  0  0  0  0
 13 37  1  0  0  0  0
 13 38  1  0  0  0  0
 14 15  1  0  0  0  0
 14 21  1  0  0  0  0
 14 39  1  0  0  0  0
 15 16  1  0  0  0  0
 15 40  1  0  0  0  0
 15 41  1  0  0  0  0
 16 17  2  0  0  0  0
 16 18  1  0  0  0  0
 18 19  1  0  0  0  0
 18 20  1  0  0  0  0
 19 42  1  0  0  0  0
 19 43  1  0  0  0  0
 19 44  1  0  0  0  0
 20 45  1  0  0  0  0
 20 46  1  0  0  0  0
 20 47  1  0  0  0  0
 21 22  1  0  0  0  0
 21 48  1  0  0  0  0
 21 49  1  0  0  0  0
 22 50  1  0  0  0  0
 22 51  1  0  0  0  0
 23 24  2  0  0  0  0
 23 52  1  0  0  0  0
M  END
> <s_m_source_file>
AV-unprocessed.smi

> <i_m_source_file_index>
2349

> <i_lp_mmshare_version>
43012

> <i_f3d_flags>
0

> <s_epik_input>
W0NIM11jMVtjSF1bY0hdYyhbY0hdbjEpW0NIMl1bQ0gyXVtOSF1DKD1PKU4yW0NIMl1bQ0gyXVtDSF0oW0NIMl1bQ0gyXTIpW0NIMl1DKD1PKU4oW0NIM10pW0NIM10=

> <s_epik_cmdline>
J2VwaWtfcHl0aG9uJywgJy1waCcsICc3LjAnLCAnLXRuJywgJzgnLCAnLW1hJywgJzIwMCcsICctbWV0YWxfYmluZGluZycsICctaW1hZScsICc8aW5maWxlLm1hZT4nLCAnLW9tYWUnLCAnPG91dGZpbGUubWFlPic=

> <r_epik_Ionization_Penalty>
0.0570544

> <r_epik_Ionization_Penalty_Charging>
0

> <r_epik_Ionization_Penalty_Neutral>
0.0570544

> <r_epik_State_Penalty>
0.0491874

> <r_epik_Charging_Adjusted_Penalty>
0.0491874

> <i_epik_Tot_Q>
0

> <i_epik_Tot_abs_Q>
0

> <r_epik_Metal_State_Penalty>
0.0448474

> <b_epik_Metal_Only>
0

> <s_lp_Force_Field>
OPLS_2005

> <r_lp_Energy>
37.0132

> <b_lp_Chiralities_Consistent>
1

> <s_lp_Variant>
AV-unprocessed.smi:2349-1

> <Gold.Version>
5.8.1

> <Gold.Id.Protein>
6NUR|6NUR_protein|mol2

> <Gold.PLP.Fitness>
49.6385

> <Gold.PLP.PLP>
-48.1978

> <Gold.PLP.part.hbond>
-1.0000

> <Gold.PLP.part.metal>
0.0000

> <Gold.PLP.part.buried>
-5.8540

> <Gold.PLP.part.nonpolar>
-41.2851

> <Gold.PLP.part.repulsive>
0.2432

> <Gold.PLP.ligand.clash>
0.0000

> <Gold.PLP.ligand.torsion>
0.8352

> <Gold.PLP.Chemscore.Hbond>
1.0000

> <Gold.PLP.Chemscore.CHOScore>
0.0000

> <Gold.PLP.Chemscore.Metal>
0.0000

> <Gold.Chemscore.Hbonds>
donor molecule, donor type, donor heavy atom, donor atom, acceptor molecule, acceptor atom, score
      P1  H  6896  6907       L1    10  0.96

> <Gold.PLP.Chemscore.Internal.Correction>
0.1109

> <Gold.Rescore>
     Score         DG    S(hbond)    S(metal)    S(lipo)     H(rot)  DE(clash)    DE(int)     intcor
     14.99     -18.04       0.95        0.00     116.49       1.66       0.90       2.15       ----

> <Gold.Chemscore.Fitness>
14.9946

> <Gold.Chemscore.DG>
-18.0419

> <Gold.Chemscore.ZeroCoef>
-5.4800

> <Gold.Chemscore.Hbond>
0.9536

> <Gold.Chemscore.Metal>
0.0000

> <Gold.Chemscore.Lipo>
116.4931

> <Gold.Chemscore.Internal_Hbond>
0.0000

> <Gold.Chemscore.DEClash>
0.9022

> <Gold.Chemscore.DEInternal>
2.1452

> <Gold.Chemscore.Rot>
1.6612

> <Gold.Chemscore.Internal.Correction>
   9.000000E+99

> <Gold.Chemscore.Hbonds>
donor molecule, donor type, donor heavy atom, donor atom, acceptor molecule, acceptor atom, score
      P1  H  6896  6907       L1    10  0.92

> <Gold.Chemscore.Hbond.Weighted>
-3.1850

> <Gold.Chemscore.Metal.Weighted>
-0.0000

> <Gold.Chemscore.Lipo.Weighted>
-13.6297

> <Gold.Chemscore.Internal_Hbond.Weighted>
0.0000

> <Gold.Chemscore.DEClash.Weighted>
0.9022

> <Gold.Chemscore.DEInternal.Weighted>
2.1452

> <Gold.Chemscore.Rot.Weighted>
4.2528

> <Gold.Chemscore.Internal.Correction.Weighted>
   9.000000E+99

> <Gold.Protein.RotatedTorsions>
[ 6907 6896 6895 6894 ] final  -24.05 input  -60.11 | X-H torsion
[ 7974 7965 7964 7962 ] final   18.18 input  175.53 | X-H torsion
[ 8008 7997 7996 7995 ] final  102.32 input   59.86 | X-H torsion
[ 10167 10162 10161 10158 ] final    2.25 input  -65.29 | X-H torsion
[ 10718 10713 10712 10709 ] final  162.76 input   66.30 | X-H torsion
[ 10763 10752 10751 10750 ] final -101.39 input  -60.55 | X-H torsion
[ 11005 11000 10999 10996 ] final  169.62 input  -57.11 | X-H torsion

> <Gold.Protein.ActiveResidues>
 VAL166  LYS551  ARG553  GLY616  TRP617  ASP618  TYR619  PRO620  LYS621  CYS622 
 ASP623  PHE694  ASN695  SER759  ASP760  ASP761  ALA762  ILE779  LEU786  VAL792 
 PHE793  MET794  SER795  GLU796  ALA797  LYS798  CYS799  TRP800  GLU811  SER814 

> <Gold.Protein.RotatedAtoms>
  151.1951  135.0419  159.8848 H   0  0  0  0  0  0  0  0  0  0  0  0  # atno 6907 bound_to 6896
  152.5437  134.0912  159.8288 H   0  0  0  0  0  0  0  0  0  0  0  0  # atno 6908 bound_to 6896
  151.1046  133.5171  159.2640 H   0  0  0  0  0  0  0  0  0  0  0  0  # atno 6909 bound_to 6896
  146.2193  139.8494  142.8625 H   0  0  0  0  0  0  0  0  0  0  0  0  # atno 7974 bound_to 7965
  156.1382  140.3183  155.8453 H   0  0  0  0  0  0  0  0  0  0  0  0  # atno 8008 bound_to 7997
  155.4205  140.0512  157.3043 H   0  0  0  0  0  0  0  0  0  0  0  0  # atno 8009 bound_to 7997
  154.4954  140.2108  155.9471 H   0  0  0  0  0  0  0  0  0  0  0  0  # atno 8010 bound_to 7997
  140.6644  143.7218  150.7799 H   0  0  0  0  0  0  0  0  0  0  0  0  # atno 10167 bound_to 10162
  157.1180  131.0485  151.2428 H   0  0  0  0  0  0  0  0  0  0  0  0  # atno 10718 bound_to 10713
  154.7654  135.4899  153.9544 H   0  0  0  0  0  0  0  0  0  0  0  0  # atno 10763 bound_to 10752
  153.1301  135.6751  153.9199 H   0  0  0  0  0  0  0  0  0  0  0  0  # atno 10764 bound_to 10752
  153.8905  135.3121  155.3426 H   0  0  0  0  0  0  0  0  0  0  0  0  # atno 10765 bound_to 10752
  140.2997  134.7605  157.3906 H   0  0  0  0  0  0  0  0  0  0  0  0  # atno 11005 bound_to 11000
  145.2817  141.0140  143.3713 LP  0  0  0  0  0  0  0  0  0  0  0  0  # atno 17320 bound_to 7965
  144.9145  139.4488  143.6571 LP  0  0  0  0  0  0  0  0  0  0  0  0  # atno 17321 bound_to 7965
  140.0893  143.4893  152.2487 LP  0  0  0  0  0  0  0  0  0  0  0  0  # atno 17342 bound_to 10162
  139.5888  144.7542  151.3453 LP  0  0  0  0  0  0  0  0  0  0  0  0  # atno 17343 bound_to 10162
  157.4501  130.7593  149.7144 LP  0  0  0  0  0  0  0  0  0  0  0  0  # atno 17370 bound_to 10713
  155.9835  130.4000  150.3361 LP  0  0  0  0  0  0  0  0  0  0  0  0  # atno 17371 bound_to 10713
  140.1120  134.5333  155.8258 LP  0  0  0  0  0  0  0  0  0  0  0  0  # atno 17394 bound_to 11000
  141.2130  133.6727  156.6707 LP  0  0  0  0  0  0  0  0  0  0  0  0  # atno 17395 bound_to 11000

$$$$
