AV-unprocessed.smi:2833|AV-procd|sdf|10914|dock10
  -GOLD-   2272015363D 1   1.00000     0.00000
 Structure written by MMmdl.
 28 29  0  0  0  0  0  0  0  0  1 V2000
  149.2034  141.2837  153.1767 O   0  0  0  0  0  0  0  0  0  0  0  0
  148.5955  140.8053  154.3578 C   0  0  0  0  0  0  0  0  0  0  0  0
  149.6428  140.1350  155.2604 C   0  0  2  0  0  0  0  0  0  0  0  0
  150.1165  141.0838  156.3800 C   0  0  0  0  0  0  0  0  0  0  0  0
  151.1749  140.4530  157.1589 N   0  0  0  0  0  0  0  0  0  0  0  0
  151.5694  141.1947  158.2820 C   0  0  0  0  0  0  0  0  0  0  0  0
  151.2222  142.5039  158.3395 N   0  0  0  0  0  0  0  0  0  0  0  0
  151.6041  143.2209  159.4184 C   0  0  0  0  0  0  0  0  0  0  0  0
  152.3443  142.6746  160.4853 C   0  0  0  0  0  0  0  0  0  0  0  0
  152.7991  143.6491  161.8343 Cl  0  0  0  0  0  0  0  0  0  0  0  0
  152.7044  141.3150  160.4251 C   0  0  0  0  0  0  0  0  0  0  0  0
  152.3111  140.5602  159.3032 C   0  0  0  0  0  0  0  0  0  0  0  0
  152.6417  139.2492  159.2119 F   0  0  0  0  0  0  0  0  0  0  0  0
  152.2912  140.0153  156.3313 C   0  0  0  0  0  0  0  0  0  0  0  0
  151.7793  139.1103  155.1988 C   0  0  0  0  0  0  0  0  0  0  0  0
  150.7750  139.7989  154.4592 O   0  0  0  0  0  0  0  0  0  0  0  0
  149.2951  140.5630  152.5724 H   0  0  0  0  0  0  0  0  0  0  0  0
  148.0824  141.6149  154.8779 H   0  0  0  0  0  0  0  0  0  0  0  0
  147.8366  140.0813  154.0595 H   0  0  0  0  0  0  0  0  0  0  0  0
  149.2183  139.2348  155.7101 H   0  0  0  0  0  0  0  0  0  0  0  0
  150.4813  142.0170  155.9480 H   0  0  0  0  0  0  0  0  0  0  0  0
  149.2825  141.3354  157.0365 H   0  0  0  0  0  0  0  0  0  0  0  0
  151.3110  144.2604  159.4291 H   0  0  0  0  0  0  0  0  0  0  0  0
  153.2717  140.8583  161.2227 H   0  0  0  0  0  0  0  0  0  0  0  0
  152.8010  140.8828  155.9094 H   0  0  0  0  0  0  0  0  0  0  0  0
  153.0175  139.4777  156.9423 H   0  0  0  0  0  0  0  0  0  0  0  0
  152.5974  138.8469  154.5285 H   0  0  0  0  0  0  0  0  0  0  0  0
  151.3789  138.1763  155.5963 H   0  0  0  0  0  0  0  0  0  0  0  0
  1  2  1  0  0  0  0
  1 17  1  0  0  0  0
  2  3  1  0  0  0  0
  2 18  1  0  0  0  0
  2 19  1  0  0  0  0
  3 16  1  0  0  0  0
  3  4  1  0  0  0  0
  3 20  1  0  0  0  0
  4  5  1  0  0  0  0
  4 21  1  0  0  0  0
  4 22  1  0  0  0  0
  5  6  1  0  0  0  0
  5 14  1  0  0  0  0
  6 12  1  0  0  0  0
  6  7  2  0  0  0  0
  7  8  1  0  0  0  0
  8  9  2  0  0  0  0
  8 23  1  0  0  0  0
  9 10  1  0  0  0  0
  9 11  1  0  0  0  0
 11 12  2  0  0  0  0
 11 24  1  0  0  0  0
 12 13  1  0  0  0  0
 14 15  1  0  0  0  0
 14 25  1  0  0  0  0
 14 26  1  0  0  0  0
 15 16  1  0  0  0  0
 15 27  1  0  0  0  0
 15 28  1  0  0  0  0
M  END
> <s_m_source_file>
AV-unprocessed.smi

> <i_m_source_file_index>
2833

> <i_lp_mmshare_version>
43012

> <i_f3d_flags>
0

> <s_epik_input>
W09IXVtDSDJdW0NAQEhdMVtDSDJdTihbQ0gyXVtDSDJdTzEpYzJuW2NIXWMoQ2wpW2NIXWMyRg==

> <s_epik_cmdline>
J2VwaWtfcHl0aG9uJywgJy1waCcsICc3LjAnLCAnLXRuJywgJzgnLCAnLW1hJywgJzIwMCcsICctbWV0YWxfYmluZGluZycsICctaW1hZScsICc8aW5maWxlLm1hZT4nLCAnLW9tYWUnLCAnPG91dGZpbGUubWFlPic=

> <r_lp_tautomer_probability>
1

> <r_epik_Ionization_Penalty>
1.06846e-07

> <r_epik_Ionization_Penalty_Charging>
0

> <r_epik_Ionization_Penalty_Neutral>
1.06846e-07

> <r_epik_State_Penalty>
-0

> <r_epik_Charging_Adjusted_Penalty>
0

> <i_epik_Tot_Q>
0

> <i_epik_Tot_abs_Q>
0

> <r_epik_Metal_State_Penalty>
-0

> <b_epik_Metal_Only>
0

> <s_lp_Force_Field>
OPLS_2005

> <r_lp_Energy>
22.731

> <b_lp_Chiralities_Consistent>
1

> <s_lp_Variant>
AV-unprocessed.smi:2833-1

> <Gold.Version>
5.8.1

> <Gold.Id.Protein>
6NUR|6NUR_protein|mol2

> <Gold.PLP.Fitness>
39.7281

> <Gold.PLP.PLP>
-32.2894

> <Gold.PLP.part.hbond>
-3.3957

> <Gold.PLP.part.metal>
0.0000

> <Gold.PLP.part.buried>
-3.4420

> <Gold.PLP.part.nonpolar>
-25.1087

> <Gold.PLP.part.repulsive>
0.1530

> <Gold.PLP.ligand.clash>
0.0000

> <Gold.PLP.ligand.torsion>
0.8226

> <Gold.PLP.Chemscore.Hbond>
2.9920

> <Gold.PLP.Chemscore.CHOScore>
0.0000

> <Gold.PLP.Chemscore.Metal>
0.0000

> <Gold.Chemscore.Hbonds>
donor molecule, donor type, donor heavy atom, donor atom, acceptor molecule, acceptor atom, score
      L1  H     1    17       P1  7957  0.98
      P1  H  7989  7998       L1    16  1.00
      P1  H  8011  8017       L1     1  0.99

> <Gold.PLP.Chemscore.Internal.Correction>
0.1080

> <Gold.Rescore>
     Score         DG    S(hbond)    S(metal)    S(lipo)     H(rot)  DE(clash)    DE(int)     intcor
     16.11     -18.23       2.29        0.00      82.35       1.78       0.12       2.00       ----

> <Gold.Chemscore.Fitness>
16.1050

> <Gold.Chemscore.DG>
-18.2276

> <Gold.Chemscore.ZeroCoef>
-5.4800

> <Gold.Chemscore.Hbond>
2.2942

> <Gold.Chemscore.Metal>
0.0000

> <Gold.Chemscore.Lipo>
82.3478

> <Gold.Chemscore.Internal_Hbond>
0.0000

> <Gold.Chemscore.DEClash>
0.1243

> <Gold.Chemscore.DEInternal>
1.9982

> <Gold.Chemscore.Rot>
1.7773

> <Gold.Chemscore.Internal.Correction>
   9.000000E+99

> <Gold.Chemscore.Hbonds>
donor molecule, donor type, donor heavy atom, donor atom, acceptor molecule, acceptor atom, score
      L1  H     1    17       P1  7957  0.87
      P1  H  7989  7998       L1    16  0.45
      P1  H  8011  8017       L1     1  0.23

> <Gold.Chemscore.Hbond.Weighted>
-7.6628

> <Gold.Chemscore.Metal.Weighted>
-0.0000

> <Gold.Chemscore.Lipo.Weighted>
-9.6347

> <Gold.Chemscore.Internal_Hbond.Weighted>
0.0000

> <Gold.Chemscore.DEClash.Weighted>
0.1243

> <Gold.Chemscore.DEInternal.Weighted>
1.9982

> <Gold.Chemscore.Rot.Weighted>
4.5499

> <Gold.Chemscore.Internal.Correction.Weighted>
   9.000000E+99

> <Gold.Protein.RotatedTorsions>
[ 6907 6896 6895 6894 ] final -112.02 input  -60.11 | X-H torsion
[ 7974 7965 7964 7962 ] final  160.28 input  175.53 | X-H torsion
[ 8008 7997 7996 7995 ] final  167.26 input   59.86 | X-H torsion
[ 10167 10162 10161 10158 ] final   -7.07 input  -65.29 | X-H torsion
[ 10718 10713 10712 10709 ] final -134.88 input   66.30 | X-H torsion
[ 10763 10752 10751 10750 ] final  -22.19 input  -60.55 | X-H torsion
[ 11005 11000 10999 10996 ] final  -32.02 input  -57.11 | X-H torsion

> <Gold.Protein.ActiveResidues>
 VAL166  LYS551  ARG553  GLY616  TRP617  ASP618  TYR619  PRO620  LYS621  CYS622 
 ASP623  PHE694  ASN695  SER759  ASP760  ASP761  ALA762  ILE779  LEU786  VAL792 
 PHE793  MET794  SER795  GLU796  ALA797  LYS798  CYS799  TRP800  GLU811  SER814 

> <Gold.Protein.RotatedAtoms>
  150.7729  133.9151  159.3380 H   0  0  0  0  0  0  0  0  0  0  0  0  # atno 6907 bound_to 6896
  151.7033  135.0924  160.0264 H   0  0  0  0  0  0  0  0  0  0  0  0  # atno 6908 bound_to 6896
  152.3754  133.6436  159.6155 H   0  0  0  0  0  0  0  0  0  0  0  0  # atno 6909 bound_to 6896
  144.7745  139.7735  143.6284 H   0  0  0  0  0  0  0  0  0  0  0  0  # atno 7974 bound_to 7965
  156.1649  140.1621  156.8549 H   0  0  0  0  0  0  0  0  0  0  0  0  # atno 8008 bound_to 7997
  154.5197  140.0781  156.8184 H   0  0  0  0  0  0  0  0  0  0  0  0  # atno 8009 bound_to 7997
  155.3632  140.3396  155.4243 H   0  0  0  0  0  0  0  0  0  0  0  0  # atno 8010 bound_to 7997
  140.7017  143.6123  150.8692 H   0  0  0  0  0  0  0  0  0  0  0  0  # atno 10167 bound_to 10162
  156.2602  130.7205  151.1136 H   0  0  0  0  0  0  0  0  0  0  0  0  # atno 10718 bound_to 10713
  153.6481  135.6982  153.5218 H   0  0  0  0  0  0  0  0  0  0  0  0  # atno 10763 bound_to 10752
  153.2729  135.4209  155.1004 H   0  0  0  0  0  0  0  0  0  0  0  0  # atno 10764 bound_to 10752
  154.8483  135.3583  154.6025 H   0  0  0  0  0  0  0  0  0  0  0  0  # atno 10765 bound_to 10752
  140.9517  133.7217  156.1231 H   0  0  0  0  0  0  0  0  0  0  0  0  # atno 11005 bound_to 11000
  146.1915  139.5159  142.9802 LP  0  0  0  0  0  0  0  0  0  0  0  0  # atno 17320 bound_to 7965
  145.6225  141.0320  143.1907 LP  0  0  0  0  0  0  0  0  0  0  0  0  # atno 17321 bound_to 7965
  139.9845  143.5914  152.2931 LP  0  0  0  0  0  0  0  0  0  0  0  0  # atno 17342 bound_to 10162
  139.6547  144.7662  151.2078 LP  0  0  0  0  0  0  0  0  0  0  0  0  # atno 17343 bound_to 10162
  157.7247  131.0658  150.5982 LP  0  0  0  0  0  0  0  0  0  0  0  0  # atno 17370 bound_to 10713
  156.6069  130.4369  149.5874 LP  0  0  0  0  0  0  0  0  0  0  0  0  # atno 17371 bound_to 10713
  140.7593  134.3957  157.5528 LP  0  0  0  0  0  0  0  0  0  0  0  0  # atno 17394 bound_to 11000
  139.8849  134.8951  156.2672 LP  0  0  0  0  0  0  0  0  0  0  0  0  # atno 17395 bound_to 11000

$$$$
