AV-unprocessed.smi:2044|AV-procd|sdf|8304|dock10
  -GOLD-   2272010573D 1   1.00000     0.00000
 Structure written by MMmdl.
 39 40  0  0  0  0  0  0  0  0  3 V2000
  152.2986  143.4169  160.5063 C   0  0  0  0  0  0  0  0  0  0  0  0
  152.1536  142.4540  159.3775 C   0  0  0  0  0  0  0  0  0  0  0  0
  152.8628  141.3476  159.0045 C   0  0  0  0  0  0  0  0  0  0  0  0
  152.1766  140.8984  157.8429 C   0  0  0  0  0  0  0  0  0  0  0  0
  152.5012  139.8331  157.0940 N   0  5  0  0  0  0  0  0  0  0  0  0
  151.7986  139.5496  155.9737 C   0  0  0  0  0  0  0  0  0  0  0  0
  151.7077  140.2551  154.9664 O   0  0  0  0  0  0  0  0  0  0  0  0
  151.1618  138.3722  156.0216 N   0  0  0  0  0  0  0  0  0  0  0  0
  150.3515  137.8105  154.9468 C   0  0  0  0  0  0  0  0  0  0  0  0
  149.2498  138.7895  154.4614 C   0  0  2  0  0  0  0  0  0  0  0  0
  148.7177  139.6288  155.6495 C   0  0  0  0  0  0  0  0  0  0  0  0
  148.1319  138.0839  153.7492 N   0  3  0  0  0  0  0  0  0  0  0  0
  147.3360  137.1899  154.6367 C   0  0  0  0  0  0  0  0  0  0  0  0
  146.2227  136.4686  153.8593 C   0  0  0  0  0  0  0  0  0  0  0  0
  145.3798  137.4235  153.2356 O   0  0  0  0  0  0  0  0  0  0  0  0
  146.0983  138.2012  152.2916 C   0  0  0  0  0  0  0  0  0  0  0  0
  147.2132  138.9880  153.0009 C   0  0  0  0  0  0  0  0  0  0  0  0
  151.1536  141.6749  157.5283 N   0  0  0  0  0  0  0  0  0  0  0  0
  151.1274  142.6711  158.5115 O   0  0  0  0  0  0  0  0  0  0  0  0
  153.2885  143.8730  160.4992 H   0  0  0  0  0  0  0  0  0  0  0  0
  152.1653  142.9115  161.4628 H   0  0  0  0  0  0  0  0  0  0  0  0
  151.5591  144.2152  160.4402 H   0  0  0  0  0  0  0  0  0  0  0  0
  153.7302  140.9231  159.4872 H   0  0  0  0  0  0  0  0  0  0  0  0
  151.2599  137.8238  156.8636 H   0  0  0  0  0  0  0  0  0  0  0  0
  151.0522  137.5714  154.1476 H   0  0  0  0  0  0  0  0  0  0  0  0
  149.8966  136.8746  155.2763 H   0  0  0  0  0  0  0  0  0  0  0  0
  149.7126  139.4742  153.7485 H   0  0  0  0  0  0  0  0  0  0  0  0
  149.5214  140.0856  156.2264 H   0  0  0  0  0  0  0  0  0  0  0  0
  148.1341  139.0152  156.3363 H   0  0  0  0  0  0  0  0  0  0  0  0
  148.0954  140.4610  155.3248 H   0  0  0  0  0  0  0  0  0  0  0  0
  147.9622  136.4230  155.0881 H   0  0  0  0  0  0  0  0  0  0  0  0
  146.9033  137.7744  155.4501 H   0  0  0  0  0  0  0  0  0  0  0  0
  146.6424  135.7894  153.1152 H   0  0  0  0  0  0  0  0  0  0  0  0
  145.6238  135.8623  154.5391 H   0  0  0  0  0  0  0  0  0  0  0  0
  146.5101  137.5609  151.5097 H   0  0  0  0  0  0  0  0  0  0  0  0
  145.4071  138.8893  151.8045 H   0  0  0  0  0  0  0  0  0  0  0  0
  146.7804  139.7186  153.6861 H   0  0  0  0  0  0  0  0  0  0  0  0
  147.7474  139.5394  152.2293 H   0  0  0  0  0  0  0  0  0  0  0  0
  148.5671  137.4902  153.0575 H   0  0  0  0  0  0  0  0  0  0  0  0
  1  2  1  0  0  0  0
  1 20  1  0  0  0  0
  1 21  1  0  0  0  0
  1 22  1  0  0  0  0
  2 19  1  0  0  0  0
  2  3  2  0  0  0  0
  3  4  1  0  0  0  0
  3 23  1  0  0  0  0
  4  5  1  0  0  0  0
  4 18  2  0  0  0  0
  5  6  1  0  0  0  0
  6  7  2  0  0  0  0
  6  8  1  0  0  0  0
  8  9  1  0  0  0  0
  8 24  1  0  0  0  0
  9 10  1  0  0  0  0
  9 25  1  0  0  0  0
  9 26  1  0  0  0  0
 10 11  1  0  0  0  0
 10 12  1  0  0  0  0
 10 27  1  0  0  0  0
 11 28  1  0  0  0  0
 11 29  1  0  0  0  0
 11 30  1  0  0  0  0
 12 17  1  0  0  0  0
 12 13  1  0  0  0  0
 12 39  1  0  0  0  0
 13 14  1  0  0  0  0
 13 31  1  0  0  0  0
 13 32  1  0  0  0  0
 14 15  1  0  0  0  0
 14 33  1  0  0  0  0
 14 34  1  0  0  0  0
 15 16  1  0  0  0  0
 16 17  1  0  0  0  0
 16 35  1  0  0  0  0
 16 36  1  0  0  0  0
 17 37  1  0  0  0  0
 17 38  1  0  0  0  0
 18 19  1  0  0  0  0
M  CHG  1   5  -1
M  CHG  1  12   1
M  END
> <s_m_source_file>
AV-unprocessed.smi

> <i_m_source_file_index>
2044

> <i_lp_mmshare_version>
43012

> <i_f3d_flags>
0

> <s_epik_input>
W0NIM11jMVtjSF1jKG5vMSlbTkhdQyg9TylbTkhdW0NIMl1bQ0BIXShbQ0gzXSlOMltDSDJdW0NIMl1PW0NIMl1bQ0gyXTI=

> <s_epik_cmdline>
J2VwaWtfcHl0aG9uJywgJy1waCcsICc3LjAnLCAnLXRuJywgJzgnLCAnLW1hJywgJzIwMCcsICctbWV0YWxfYmluZGluZycsICctaW1hZScsICc8aW5maWxlLm1hZT4nLCAnLW9tYWUnLCAnPG91dGZpbGUubWFlPic=

> <r_epik_Ionization_Penalty>
6.73014

> <r_epik_Ionization_Penalty_Charging>
6.73004

> <r_epik_Ionization_Penalty_Neutral>
9.51297e-05

> <r_epik_State_Penalty>
6.93052

> <r_epik_Charging_Adjusted_Penalty>
13.6606

> <i_epik_Tot_Q>
0

> <i_epik_Tot_abs_Q>
2

> <r_epik_Metal_State_Penalty>
2.86736

> <b_epik_Metal_Only>
1

> <s_lp_Force_Field>
OPLS_2005

> <r_lp_Energy>
9.04271

> <b_lp_Chiralities_Consistent>
1

> <s_lp_Variant>
AV-unprocessed.smi:2044-7

> <Gold.Version>
5.8.1

> <Gold.Id.Protein>
6NUR|6NUR_protein|mol2

> <Gold.PLP.Fitness>
39.7441

> <Gold.PLP.PLP>
-26.8462

> <Gold.PLP.part.hbond>
-2.9962

> <Gold.PLP.part.metal>
0.0000

> <Gold.PLP.part.buried>
-3.3343

> <Gold.PLP.part.nonpolar>
-21.5285

> <Gold.PLP.part.repulsive>
0.4014

> <Gold.PLP.ligand.clash>
0.0000

> <Gold.PLP.ligand.torsion>
0.9352

> <Gold.PLP.Chemscore.Hbond>
4.8960

> <Gold.PLP.Chemscore.CHOScore>
0.0000

> <Gold.PLP.Chemscore.Metal>
0.0000

> <Gold.Chemscore.Hbonds>
donor molecule, donor type, donor heavy atom, donor atom, acceptor molecule, acceptor atom, score
      L1  H    12    39       P1  7948  2.00
      P1  H  7989  7998       L1     7  0.93
      P1  H  7997  8008       L1     5  2.00

> <Gold.PLP.Chemscore.Internal.Correction>
0.0803

> <Gold.Rescore>
     Score         DG    S(hbond)    S(metal)    S(lipo)     H(rot)  DE(clash)    DE(int)     intcor
     14.49     -16.64       2.36        0.00      62.91       1.59       0.01       2.14       ----

> <Gold.Chemscore.Fitness>
14.4852

> <Gold.Chemscore.DG>
-16.6403

> <Gold.Chemscore.ZeroCoef>
-5.4800

> <Gold.Chemscore.Hbond>
2.3587

> <Gold.Chemscore.Metal>
0.0000

> <Gold.Chemscore.Lipo>
62.9101

> <Gold.Chemscore.Internal_Hbond>
0.0000

> <Gold.Chemscore.DEClash>
0.0123

> <Gold.Chemscore.DEInternal>
2.1429

> <Gold.Chemscore.Rot>
1.5930

> <Gold.Chemscore.Internal.Correction>
   9.000000E+99

> <Gold.Chemscore.Hbonds>
donor molecule, donor type, donor heavy atom, donor atom, acceptor molecule, acceptor atom, score
      L1  H    12    39       P1  7948  1.00
      P1  H  7989  7998       L1     7  0.88
      P1  H  7997  8008       L1     5  0.21

> <Gold.Chemscore.Hbond.Weighted>
-7.8779

> <Gold.Chemscore.Metal.Weighted>
-0.0000

> <Gold.Chemscore.Lipo.Weighted>
-7.3605

> <Gold.Chemscore.Internal_Hbond.Weighted>
0.0000

> <Gold.Chemscore.DEClash.Weighted>
0.0123

> <Gold.Chemscore.DEInternal.Weighted>
2.1429

> <Gold.Chemscore.Rot.Weighted>
4.0781

> <Gold.Chemscore.Internal.Correction.Weighted>
   9.000000E+99

> <Gold.Protein.RotatedTorsions>
[ 6907 6896 6895 6894 ] final   59.45 input  -60.11 | X-H torsion
[ 7974 7965 7964 7962 ] final  -60.94 input  175.53 | X-H torsion
[ 8008 7997 7996 7995 ] final  -42.74 input   59.86 | X-H torsion
[ 10167 10162 10161 10158 ] final   65.56 input  -65.29 | X-H torsion
[ 10718 10713 10712 10709 ] final   23.64 input   66.30 | X-H torsion
[ 10763 10752 10751 10750 ] final  148.54 input  -60.55 | X-H torsion
[ 11005 11000 10999 10996 ] final -133.86 input  -57.11 | X-H torsion

> <Gold.Protein.ActiveResidues>
 VAL166  LYS551  ARG553  GLY616  TRP617  ASP618  TYR619  PRO620  LYS621  CYS622 
 ASP623  PHE694  ASN695  SER759  ASP760  ASP761  ALA762  ILE779  LEU786  VAL792 
 PHE793  MET794  SER795  GLU796  ALA797  LYS798  CYS799  TRP800  GLU811  SER814 

> <Gold.Protein.RotatedAtoms>
  152.3916  134.6432  160.0105 H   0  0  0  0  0  0  0  0  0  0  0  0  # atno 6907 bound_to 6896
  151.6665  133.3309  159.3194 H   0  0  0  0  0  0  0  0  0  0  0  0  # atno 6908 bound_to 6896
  150.7831  134.6836  159.6502 H   0  0  0  0  0  0  0  0  0  0  0  0  # atno 6909 bound_to 6896
  145.8095  140.8607  143.0189 H   0  0  0  0  0  0  0  0  0  0  0  0  # atno 7974 bound_to 7965
  154.3998  140.1466  156.3404 H   0  0  0  0  0  0  0  0  0  0  0  0  # atno 8008 bound_to 7997
  155.8361  140.3464  155.5581 H   0  0  0  0  0  0  0  0  0  0  0  0  # atno 8009 bound_to 7997
  155.8136  140.0887  157.1880 H   0  0  0  0  0  0  0  0  0  0  0  0  # atno 8010 bound_to 7997
  140.1099  144.4827  150.6984 H   0  0  0  0  0  0  0  0  0  0  0  0  # atno 10167 bound_to 10162
  157.1689  130.6750  149.6070 H   0  0  0  0  0  0  0  0  0  0  0  0  # atno 10718 bound_to 10713
  154.0564  135.2877  155.3332 H   0  0  0  0  0  0  0  0  0  0  0  0  # atno 10763 bound_to 10752
  154.6836  135.5253  153.8300 H   0  0  0  0  0  0  0  0  0  0  0  0  # atno 10764 bound_to 10752
  153.0540  135.6588  154.0756 H   0  0  0  0  0  0  0  0  0  0  0  0  # atno 10765 bound_to 10752
  140.9043  134.1650  157.4437 H   0  0  0  0  0  0  0  0  0  0  0  0  # atno 11005 bound_to 11000
  144.6759  140.0375  143.7481 LP  0  0  0  0  0  0  0  0  0  0  0  0  # atno 17320 bound_to 7965
  145.9793  139.2928  143.1052 LP  0  0  0  0  0  0  0  0  0  0  0  0  # atno 17321 bound_to 7965
  140.6931  143.2387  151.5076 LP  0  0  0  0  0  0  0  0  0  0  0  0  # atno 17342 bound_to 10162
  139.5625  144.2123  152.1713 LP  0  0  0  0  0  0  0  0  0  0  0  0  # atno 17343 bound_to 10162
  155.9741  130.4686  150.6365 LP  0  0  0  0  0  0  0  0  0  0  0  0  # atno 17370 bound_to 10713
  157.4062  131.0817  151.1263 LP  0  0  0  0  0  0  0  0  0  0  0  0  # atno 17371 bound_to 10713
  139.8747  134.9910  156.5531 LP  0  0  0  0  0  0  0  0  0  0  0  0  # atno 17394 bound_to 11000
  140.8191  133.8368  155.8879 LP  0  0  0  0  0  0  0  0  0  0  0  0  # atno 17395 bound_to 11000

$$$$
