AV-unprocessed.smi:1165|AV-procd|sdf|4929|dock4
  -GOLD-   22720 3513D 1   1.00000     0.00000
 Structure written by MMmdl.
 41 42  0  0  0  0  0  0  0  0  1 V2000
  151.7508  145.5136  159.4030 C   0  0  0  0  0  0  0  0  0  0  0  0
  151.8962  144.0246  159.7352 C   0  0  1  0  0  0  0  0  0  0  0  0
  152.7688  143.2859  158.7003 C   0  0  0  0  0  0  0  0  0  0  0  0
  153.0174  141.8948  159.1135 N   0  0  0  0  0  0  0  0  0  0  0  0
  152.0174  140.6276  158.4680 S   0  0  0  0  0  0  0  0  0  0  0  0
  152.5077  140.2624  157.1301 O   0  0  0  0  0  0  0  0  0  0  0  0
  151.8185  139.6019  159.5032 O   0  0  0  0  0  0  0  0  0  0  0  0
  150.5382  141.4869  158.2777 N   0  0  0  0  0  0  0  0  0  0  0  0
  149.9828  141.6398  156.9372 C   0  0  0  0  0  0  0  0  0  0  0  0
  149.8323  140.2663  156.2717 C   0  0  0  0  0  0  0  0  0  0  0  0
  148.8058  140.2806  155.1568 C   0  0  0  0  0  0  0  0  0  0  0  0
  148.5228  139.1113  154.4212 C   0  0  0  0  0  0  0  0  0  0  0  0
  147.5616  139.1721  153.3941 C   0  0  0  0  0  0  0  0  0  0  0  0
  146.9232  140.4036  153.1453 C   0  0  0  0  0  0  0  0  0  0  0  0
  147.1874  141.5299  153.8424 N   0  0  0  0  0  0  0  0  0  0  0  0
  148.1105  141.4630  154.8258 C   0  0  0  0  0  0  0  0  0  0  0  0
  153.5062  141.7838  160.4979 C   0  0  0  0  0  0  0  0  0  0  0  0
  152.6010  142.5696  161.4676 C   0  0  1  0  0  0  0  0  0  0  0  0
  153.1602  142.5816  162.8942 C   0  0  0  0  0  0  0  0  0  0  0  0
  152.4903  143.9164  161.0233 O   0  0  0  0  0  0  0  0  0  0  0  0
  151.2839  145.6542  158.4280 H   0  0  0  0  0  0  0  0  0  0  0  0
  152.7214  146.0106  159.3845 H   0  0  0  0  0  0  0  0  0  0  0  0
  151.1317  146.0196  160.1443 H   0  0  0  0  0  0  0  0  0  0  0  0
  150.8983  143.5859  159.7647 H   0  0  0  0  0  0  0  0  0  0  0  0
  152.3067  143.3125  157.7137 H   0  0  0  0  0  0  0  0  0  0  0  0
  153.7314  143.7899  158.6052 H   0  0  0  0  0  0  0  0  0  0  0  0
  150.5271  142.3547  158.8129 H   0  0  0  0  0  0  0  0  0  0  0  0
  149.0173  142.1422  157.0060 H   0  0  0  0  0  0  0  0  0  0  0  0
  150.6425  142.2787  156.3488 H   0  0  0  0  0  0  0  0  0  0  0  0
  150.7904  139.9410  155.8639 H   0  0  0  0  0  0  0  0  0  0  0  0
  149.5441  139.5198  157.0133 H   0  0  0  0  0  0  0  0  0  0  0  0
  149.0326  138.1842  154.6387 H   0  0  0  0  0  0  0  0  0  0  0  0
  147.3192  138.2964  152.8102 H   0  0  0  0  0  0  0  0  0  0  0  0
  146.1808  140.4860  152.3653 H   0  0  0  0  0  0  0  0  0  0  0  0
  148.2996  142.3807  155.3631 H   0  0  0  0  0  0  0  0  0  0  0  0
  153.5756  140.7372  160.7935 H   0  0  0  0  0  0  0  0  0  0  0  0
  154.5198  142.1850  160.5351 H   0  0  0  0  0  0  0  0  0  0  0  0
  151.6075  142.1218  161.5000 H   0  0  0  0  0  0  0  0  0  0  0  0
  153.2525  141.5691  163.2880 H   0  0  0  0  0  0  0  0  0  0  0  0
  152.5060  143.1401  163.5642 H   0  0  0  0  0  0  0  0  0  0  0  0
  154.1461  143.0459  162.9285 H   0  0  0  0  0  0  0  0  0  0  0  0
  1  2  1  0  0  0  0
  1 21  1  0  0  0  0
  1 22  1  0  0  0  0
  1 23  1  0  0  0  0
  2 20  1  0  0  0  0
  2  3  1  0  0  0  0
  2 24  1  0  0  0  0
  3  4  1  0  0  0  0
  3 25  1  0  0  0  0
  3 26  1  0  0  0  0
  4  5  1  0  0  0  0
  4 17  1  0  0  0  0
  5  6  2  0  0  0  0
  5  7  2  0  0  0  0
  5  8  1  0  0  0  0
  8  9  1  0  0  0  0
  8 27  1  0  0  0  0
  9 10  1  0  0  0  0
  9 28  1  0  0  0  0
  9 29  1  0  0  0  0
 10 11  1  0  0  0  0
 10 30  1  0  0  0  0
 10 31  1  0  0  0  0
 11 16  1  0  0  0  0
 11 12  2  0  0  0  0
 12 13  1  0  0  0  0
 12 32  1  0  0  0  0
 13 14  2  0  0  0  0
 13 33  1  0  0  0  0
 14 15  1  0  0  0  0
 14 34  1  0  0  0  0
 15 16  2  0  0  0  0
 16 35  1  0  0  0  0
 17 18  1  0  0  0  0
 17 36  1  0  0  0  0
 17 37  1  0  0  0  0
 18 19  1  0  0  0  0
 18 20  1  0  0  0  0
 18 38  1  0  0  0  0
 19 39  1  0  0  0  0
 19 40  1  0  0  0  0
 19 41  1  0  0  0  0
M  END
> <s_m_source_file>
AV-unprocessed.smi

> <i_m_source_file_index>
1165

> <i_lp_mmshare_version>
43012

> <i_f3d_flags>
0

> <s_epik_input>
W0NIM11bQ0BASF0xW0NIMl1OKFtDSDJdW0NASF0oTzEpW0NIM10pUyg9TykoPU8pW05IXVtDSDJdW0NIMl1jMltjSF1bY0hdW2NIXW5bY0hdMg==

> <s_epik_cmdline>
J2VwaWtfcHl0aG9uJywgJy1waCcsICc3LjAnLCAnLXRuJywgJzgnLCAnLW1hJywgJzIwMCcsICctbWV0YWxfYmluZGluZycsICctaW1hZScsICc8aW5maWxlLm1hZT4nLCAnLW9tYWUnLCAnPG91dGZpbGUubWFlPic=

> <r_epik_Ionization_Penalty>
0.0861056

> <r_epik_Ionization_Penalty_Charging>
0

> <r_epik_Ionization_Penalty_Neutral>
0.0861056

> <r_epik_State_Penalty>
0.0574425

> <r_epik_Charging_Adjusted_Penalty>
0.0574425

> <i_epik_Tot_Q>
0

> <i_epik_Tot_abs_Q>
0

> <r_epik_Metal_State_Penalty>
0.317425

> <b_epik_Metal_Only>
0

> <s_lp_Force_Field>
OPLS_2005

> <r_lp_Energy>
3.52917

> <b_lp_Chiralities_Consistent>
1

> <s_lp_Variant>
AV-unprocessed.smi:1165-2

> <Gold.Version>
5.8.1

> <Gold.Id.Protein>
6NUR|6NUR_protein|mol2

> <Gold.PLP.Fitness>
49.1846

> <Gold.PLP.PLP>
-40.7607

> <Gold.PLP.part.hbond>
-1.0000

> <Gold.PLP.part.metal>
0.0000

> <Gold.PLP.part.buried>
-1.8485

> <Gold.PLP.part.nonpolar>
-38.6086

> <Gold.PLP.part.repulsive>
0.2679

> <Gold.PLP.ligand.clash>
0.0000

> <Gold.PLP.ligand.torsion>
1.2760

> <Gold.PLP.Chemscore.Hbond>
0.9760

> <Gold.PLP.Chemscore.CHOScore>
1.9804

> <Gold.PLP.Chemscore.Metal>
0.0000

> <Gold.Chemscore.Hbonds>
donor molecule, donor type, donor heavy atom, donor atom, acceptor molecule, acceptor atom, score
      P1  H  7997  8008       L1     6  0.96
      L1  C    14    34       P1 10175  1.00
      L1  C    16    35       P1  8028  1.00

> <Gold.PLP.Chemscore.Internal.Correction>
2.1065

> <Gold.Rescore>
     Score         DG    S(hbond)    S(metal)    S(lipo)     H(rot)  DE(clash)    DE(int)     intcor
     15.44     -17.96       0.94        0.00     113.00       1.52       0.23       2.30       ----

> <Gold.Chemscore.Fitness>
15.4410

> <Gold.Chemscore.DG>
-17.9621

> <Gold.Chemscore.ZeroCoef>
-5.4800

> <Gold.Chemscore.Hbond>
0.9416

> <Gold.Chemscore.Metal>
0.0000

> <Gold.Chemscore.Lipo>
113.0037

> <Gold.Chemscore.Internal_Hbond>
0.0000

> <Gold.Chemscore.DEClash>
0.2252

> <Gold.Chemscore.DEInternal>
2.2959

> <Gold.Chemscore.Rot>
1.5172

> <Gold.Chemscore.Internal.Correction>
   9.000000E+99

> <Gold.Chemscore.Hbonds>
donor molecule, donor type, donor heavy atom, donor atom, acceptor molecule, acceptor atom, score
      P1  H  7997  8008       L1     6  0.90

> <Gold.Chemscore.Hbond.Weighted>
-3.1448

> <Gold.Chemscore.Metal.Weighted>
-0.0000

> <Gold.Chemscore.Lipo.Weighted>
-13.2214

> <Gold.Chemscore.Internal_Hbond.Weighted>
0.0000

> <Gold.Chemscore.DEClash.Weighted>
0.2252

> <Gold.Chemscore.DEInternal.Weighted>
2.2959

> <Gold.Chemscore.Rot.Weighted>
3.8841

> <Gold.Chemscore.Internal.Correction.Weighted>
   9.000000E+99

> <Gold.Protein.RotatedTorsions>
[ 6907 6896 6895 6894 ] final   65.36 input  -60.11 | X-H torsion
[ 7974 7965 7964 7962 ] final  162.27 input  175.53 | X-H torsion
[ 8008 7997 7996 7995 ] final  -67.96 input   59.86 | X-H torsion
[ 10167 10162 10161 10158 ] final -163.02 input  -65.29 | X-H torsion
[ 10718 10713 10712 10709 ] final   51.91 input   66.30 | X-H torsion
[ 10763 10752 10751 10750 ] final   27.27 input  -60.55 | X-H torsion
[ 11005 11000 10999 10996 ] final   30.57 input  -57.11 | X-H torsion

> <Gold.Protein.ActiveResidues>
 VAL166  LYS551  ARG553  GLY616  TRP617  ASP618  TYR619  PRO620  LYS621  CYS622 
 ASP623  PHE694  ASN695  SER759  ASP760  ASP761  ALA762  ILE779  LEU786  VAL792 
 PHE793  MET794  SER795  GLU796  ALA797  LYS798  CYS799  TRP800  GLU811  SER814 

> <Gold.Protein.RotatedAtoms>
  152.4401  134.5607  159.9893 H   0  0  0  0  0  0  0  0  0  0  0  0  # atno 6907 bound_to 6896
  151.5707  133.3384  159.2997 H   0  0  0  0  0  0  0  0  0  0  0  0  # atno 6908 bound_to 6896
  150.8306  134.7591  159.6914 H   0  0  0  0  0  0  0  0  0  0  0  0  # atno 6909 bound_to 6896
  144.7645  139.8016  143.6320 H   0  0  0  0  0  0  0  0  0  0  0  0  # atno 7974 bound_to 7965
  154.4835  140.0882  156.7432 H   0  0  0  0  0  0  0  0  0  0  0  0  # atno 8008 bound_to 7997
  155.4410  140.3453  155.4272 H   0  0  0  0  0  0  0  0  0  0  0  0  # atno 8009 bound_to 7997
  156.1227  140.1478  156.9170 H   0  0  0  0  0  0  0  0  0  0  0  0  # atno 8010 bound_to 7997
  139.6350  144.0366  152.2047 H   0  0  0  0  0  0  0  0  0  0  0  0  # atno 10167 bound_to 10162
  157.5025  130.8447  149.8334 H   0  0  0  0  0  0  0  0  0  0  0  0  # atno 10718 bound_to 10713
  153.0567  135.6541  154.0560 H   0  0  0  0  0  0  0  0  0  0  0  0  # atno 10763 bound_to 10752
  154.0237  135.2917  155.3379 H   0  0  0  0  0  0  0  0  0  0  0  0  # atno 10764 bound_to 10752
  154.6885  135.5292  153.8427 H   0  0  0  0  0  0  0  0  0  0  0  0  # atno 10765 bound_to 10752
  140.2930  134.2843  155.7771 H   0  0  0  0  0  0  0  0  0  0  0  0  # atno 11005 bound_to 11000
  146.1739  139.4901  142.9910 LP  0  0  0  0  0  0  0  0  0  0  0  0  # atno 17320 bound_to 7965
  145.6514  141.0262  143.1758 LP  0  0  0  0  0  0  0  0  0  0  0  0  # atno 17321 bound_to 7965
  140.0042  144.6271  150.7703 LP  0  0  0  0  0  0  0  0  0  0  0  0  # atno 17342 bound_to 10162
  140.7460  143.2885  151.3397 LP  0  0  0  0  0  0  0  0  0  0  0  0  # atno 17343 bound_to 10162
  156.0238  130.3786  150.1883 LP  0  0  0  0  0  0  0  0  0  0  0  0  # atno 17370 bound_to 10713
  157.0073  130.9940  151.3375 LP  0  0  0  0  0  0  0  0  0  0  0  0  # atno 17371 bound_to 10713
  141.2143  133.7597  156.9652 LP  0  0  0  0  0  0  0  0  0  0  0  0  # atno 17394 bound_to 11000
  140.1178  134.9436  157.2160 LP  0  0  0  0  0  0  0  0  0  0  0  0  # atno 17395 bound_to 11000

$$$$
