AV-unprocessed.smi:1627|AV-procd|sdf|6518|dock2
  -GOLD-   22720 7193D 1   1.00000     0.00000
 Structure written by MMmdl.
 44 45  0  0  0  0  0  0  0  0  2 V2000
  151.8110  140.7233  159.0641 C   0  0  0  0  0  0  0  0  0  0  0  0
  151.5739  141.3184  157.6681 C   0  0  2  0  0  0  0  0  0  0  0  0
  150.6066  142.3561  157.8033 O   0  0  0  0  0  0  0  0  0  0  0  0
  150.8517  143.2913  158.8493 C   0  0  0  0  0  0  0  0  0  0  0  0
  152.0885  144.1285  158.5020 C   0  0  0  0  0  0  0  0  0  0  0  0
  152.0017  145.3121  159.1076 F   0  0  0  0  0  0  0  0  0  0  0  0
  153.1931  143.5125  158.9221 F   0  0  0  0  0  0  0  0  0  0  0  0
  152.1575  144.3258  157.1857 F   0  0  0  0  0  0  0  0  0  0  0  0
  151.0753  140.2480  156.6834 C   0  0  0  0  0  0  0  0  0  0  0  0
  151.3037  140.3778  155.4817 O   0  0  0  0  0  0  0  0  0  0  0  0
  150.4122  139.2134  157.2342 N   0  0  0  0  0  0  0  0  0  0  0  0
  149.8358  138.0718  156.6105 C   0  0  0  0  0  0  0  0  0  0  0  0
  149.3530  137.0473  157.4544 C   0  0  0  0  0  0  0  0  0  0  0  0
  148.7787  135.8875  156.8950 C   0  0  0  0  0  0  0  0  0  0  0  0
  148.6972  135.7655  155.4895 C   0  0  0  0  0  0  0  0  0  0  0  0
  148.1493  134.6509  154.8414 N   0  0  0  0  0  0  0  0  0  0  0  0
  149.1532  133.8397  154.1574 C   0  0  0  0  0  0  0  0  0  0  0  0
  148.5341  132.5353  153.6254 C   0  0  0  0  0  0  0  0  0  0  0  0
  147.3117  132.8274  152.7403 C   0  0  0  0  0  0  0  0  0  0  0  0
  146.3041  133.7042  153.5008 C   0  0  0  0  0  0  0  0  0  0  0  0
  146.9794  134.9806  154.0312 C   0  0  0  0  0  0  0  0  0  0  0  0
  149.1709  136.7638  154.7138 N   0  3  0  0  0  0  0  0  0  0  0  0
  149.7281  137.8906  155.2088 C   0  0  0  0  0  0  0  0  0  0  0  0
  152.5347  139.9082  159.0298 H   0  0  0  0  0  0  0  0  0  0  0  0
  150.8891  140.3351  159.4988 H   0  0  0  0  0  0  0  0  0  0  0  0
  152.2008  141.4803  159.7449 H   0  0  0  0  0  0  0  0  0  0  0  0
  152.5153  141.7433  157.3138 H   0  0  0  0  0  0  0  0  0  0  0  0
  149.9876  143.9460  158.9718 H   0  0  0  0  0  0  0  0  0  0  0  0
  151.0132  142.7823  159.8002 H   0  0  0  0  0  0  0  0  0  0  0  0
  150.2880  139.2643  158.2351 H   0  0  0  0  0  0  0  0  0  0  0  0
  149.4205  137.1459  158.5281 H   0  0  0  0  0  0  0  0  0  0  0  0
  148.4081  135.1039  157.5400 H   0  0  0  0  0  0  0  0  0  0  0  0
  149.5816  134.4091  153.3313 H   0  0  0  0  0  0  0  0  0  0  0  0
  149.9691  133.6083  154.8436 H   0  0  0  0  0  0  0  0  0  0  0  0
  149.2779  131.9696  153.0636 H   0  0  0  0  0  0  0  0  0  0  0  0
  148.2343  131.9052  154.4639 H   0  0  0  0  0  0  0  0  0  0  0  0
  147.6298  133.3374  151.8303 H   0  0  0  0  0  0  0  0  0  0  0  0
  146.8402  131.8951  152.4273 H   0  0  0  0  0  0  0  0  0  0  0  0
  145.4678  133.9653  152.8516 H   0  0  0  0  0  0  0  0  0  0  0  0
  145.8850  133.1395  154.3345 H   0  0  0  0  0  0  0  0  0  0  0  0
  146.2690  135.5546  154.6279 H   0  0  0  0  0  0  0  0  0  0  0  0
  147.2801  135.6131  153.1949 H   0  0  0  0  0  0  0  0  0  0  0  0
  150.0650  138.5862  154.4562 H   0  0  0  0  0  0  0  0  0  0  0  0
  149.1073  136.6611  153.7005 H   0  0  0  0  0  0  0  0  0  0  0  0
  1  2  1  0  0  0  0
  1 24  1  0  0  0  0
  1 25  1  0  0  0  0
  1 26  1  0  0  0  0
  2  3  1  0  0  0  0
  2  9  1  0  0  0  0
  2 27  1  0  0  0  0
  3  4  1  0  0  0  0
  4  5  1  0  0  0  0
  4 28  1  0  0  0  0
  4 29  1  0  0  0  0
  5  6  1  0  0  0  0
  5  7  1  0  0  0  0
  5  8  1  0  0  0  0
  9 10  2  0  0  0  0
  9 11  1  0  0  0  0
 11 12  1  0  0  0  0
 11 30  1  0  0  0  0
 12 23  1  0  0  0  0
 12 13  2  0  0  0  0
 13 14  1  0  0  0  0
 13 31  1  0  0  0  0
 14 15  2  0  0  0  0
 14 32  1  0  0  0  0
 15 16  1  0  0  0  0
 15 22  1  0  0  0  0
 16 21  1  0  0  0  0
 16 17  1  0  0  0  0
 17 18  1  0  0  0  0
 17 33  1  0  0  0  0
 17 34  1  0  0  0  0
 18 19  1  0  0  0  0
 18 35  1  0  0  0  0
 18 36  1  0  0  0  0
 19 20  1  0  0  0  0
 19 37  1  0  0  0  0
 19 38  1  0  0  0  0
 20 21  1  0  0  0  0
 20 39  1  0  0  0  0
 20 40  1  0  0  0  0
 21 41  1  0  0  0  0
 21 42  1  0  0  0  0
 22 23  2  0  0  0  0
 22 44  1  0  0  0  0
 23 43  1  0  0  0  0
M  CHG  1  22   1
M  END
> <s_m_source_file>
AV-unprocessed.smi

> <i_m_source_file_index>
1627

> <i_lp_mmshare_version>
43012

> <i_f3d_flags>
0

> <s_epik_input>
RkMoRikoRilbQ0gyXU9bQ0BASF0oW0NIM10pQyg9TylbTkhdYzFbY0hdW2NIXWMobltjSF0xKU4yW0NIMl1bQ0gyXVtDSDJdW0NIMl1bQ0gyXTI=

> <s_epik_cmdline>
J2VwaWtfcHl0aG9uJywgJy1waCcsICc3LjAnLCAnLXRuJywgJzgnLCAnLW1hJywgJzIwMCcsICctbWV0YWxfYmluZGluZycsICctaW1hZScsICc8aW5maWxlLm1hZT4nLCAnLW9tYWUnLCAnPG91dGZpbGUubWFlPic=

> <r_lp_tautomer_probability>
0.999994

> <r_epik_Ionization_Penalty>
1.93197

> <r_epik_Ionization_Penalty_Charging>
1.93197

> <r_epik_Ionization_Penalty_Neutral>
3.16684e-06

> <r_epik_State_Penalty>
2.05557

> <r_epik_Charging_Adjusted_Penalty>
3.98754

> <i_epik_Tot_Q>
1

> <i_epik_Tot_abs_Q>
1

> <r_epik_Metal_State_Penalty>
2.08108

> <b_epik_Metal_Only>
0

> <s_lp_Force_Field>
OPLS_2005

> <r_lp_Energy>
33.3851

> <b_lp_Chiralities_Consistent>
1

> <s_lp_Variant>
AV-unprocessed.smi:1627-3

> <Gold.Version>
5.8.1

> <Gold.Id.Protein>
6NUR|6NUR_protein|mol2

> <Gold.PLP.Fitness>
45.3312

> <Gold.PLP.PLP>
-39.2492

> <Gold.PLP.part.hbond>
-2.0000

> <Gold.PLP.part.metal>
0.0000

> <Gold.PLP.part.buried>
-5.2928

> <Gold.PLP.part.nonpolar>
-31.6107

> <Gold.PLP.part.repulsive>
0.2329

> <Gold.PLP.ligand.clash>
0.0096

> <Gold.PLP.ligand.torsion>
1.3882

> <Gold.PLP.Chemscore.Hbond>
2.8897

> <Gold.PLP.Chemscore.CHOScore>
0.0000

> <Gold.PLP.Chemscore.Metal>
0.0000

> <Gold.Chemscore.Hbonds>
donor molecule, donor type, donor heavy atom, donor atom, acceptor molecule, acceptor atom, score
      L1  H    22    44       P1  7948  2.00
      P1  H  7989  7998       L1    10  0.86

> <Gold.PLP.Chemscore.Internal.Correction>
0.1988

> <Gold.Rescore>
     Score         DG    S(hbond)    S(metal)    S(lipo)     H(rot)  DE(clash)    DE(int)     intcor
     11.77     -15.39       1.95        0.00      70.78       1.90       0.19       3.43       ----

> <Gold.Chemscore.Fitness>
11.7686

> <Gold.Chemscore.DG>
-15.3918

> <Gold.Chemscore.ZeroCoef>
-5.4800

> <Gold.Chemscore.Hbond>
1.9450

> <Gold.Chemscore.Metal>
0.0000

> <Gold.Chemscore.Lipo>
70.7786

> <Gold.Chemscore.Internal_Hbond>
0.0000

> <Gold.Chemscore.DEClash>
0.1929

> <Gold.Chemscore.DEInternal>
3.4303

> <Gold.Chemscore.Rot>
1.9007

> <Gold.Chemscore.Internal.Correction>
   9.000000E+99

> <Gold.Chemscore.Hbonds>
donor molecule, donor type, donor heavy atom, donor atom, acceptor molecule, acceptor atom, score
      L1  H    22    44       P1  7948  0.99
      P1  H  7989  7998       L1    10  0.81

> <Gold.Chemscore.Hbond.Weighted>
-6.4964

> <Gold.Chemscore.Metal.Weighted>
-0.0000

> <Gold.Chemscore.Lipo.Weighted>
-8.2811

> <Gold.Chemscore.Internal_Hbond.Weighted>
0.0000

> <Gold.Chemscore.DEClash.Weighted>
0.1929

> <Gold.Chemscore.DEInternal.Weighted>
3.4303

> <Gold.Chemscore.Rot.Weighted>
4.8657

> <Gold.Chemscore.Internal.Correction.Weighted>
   9.000000E+99

> <Gold.Protein.RotatedTorsions>
[ 6907 6896 6895 6894 ] final   39.31 input  -60.11 | X-H torsion
[ 7974 7965 7964 7962 ] final -167.73 input  175.53 | X-H torsion
[ 8008 7997 7996 7995 ] final  -43.21 input   59.86 | X-H torsion
[ 10167 10162 10161 10158 ] final -111.98 input  -65.29 | X-H torsion
[ 10718 10713 10712 10709 ] final  -87.15 input   66.30 | X-H torsion
[ 10763 10752 10751 10750 ] final  -89.13 input  -60.55 | X-H torsion
[ 11005 11000 10999 10996 ] final  -80.48 input  -57.11 | X-H torsion

> <Gold.Protein.ActiveResidues>
 VAL166  LYS551  ARG553  GLY616  TRP617  ASP618  TYR619  PRO620  LYS621  CYS622 
 ASP623  PHE694  ASN695  SER759  ASP760  ASP761  ALA762  ILE779  LEU786  VAL792 
 PHE793  MET794  SER795  GLU796  ALA797  LYS798  CYS799  TRP800  GLU811  SER814 

> <Gold.Protein.RotatedAtoms>
  152.1679  134.8858  160.0536 H   0  0  0  0  0  0  0  0  0  0  0  0  # atno 6907 bound_to 6896
  151.9829  133.3759  159.4122 H   0  0  0  0  0  0  0  0  0  0  0  0  # atno 6908 bound_to 6896
  150.6897  134.3942  159.5134 H   0  0  0  0  0  0  0  0  0  0  0  0  # atno 6909 bound_to 6896
  144.7217  140.2475  143.6283 H   0  0  0  0  0  0  0  0  0  0  0  0  # atno 7974 bound_to 7965
  154.3997  140.1453  156.3482 H   0  0  0  0  0  0  0  0  0  0  0  0  # atno 8008 bound_to 7997
  155.8294  140.3466  155.5541 H   0  0  0  0  0  0  0  0  0  0  0  0  # atno 8009 bound_to 7997
  155.8205  140.0897  157.1842 H   0  0  0  0  0  0  0  0  0  0  0  0  # atno 8010 bound_to 7997
  140.1276  143.4388  152.1649 H   0  0  0  0  0  0  0  0  0  0  0  0  # atno 10167 bound_to 10162
  155.9986  130.4790  150.4824 H   0  0  0  0  0  0  0  0  0  0  0  0  # atno 10718 bound_to 10713
  154.6519  135.5352  153.7912 H   0  0  0  0  0  0  0  0  0  0  0  0  # atno 10763 bound_to 10752
  153.0391  135.6484  154.1003 H   0  0  0  0  0  0  0  0  0  0  0  0  # atno 10764 bound_to 10752
  154.0920  135.2939  155.3249 H   0  0  0  0  0  0  0  0  0  0  0  0  # atno 10765 bound_to 10752
  141.1668  133.7152  156.8279 H   0  0  0  0  0  0  0  0  0  0  0  0  # atno 11005 bound_to 11000
  145.8260  139.2065  143.1910 LP  0  0  0  0  0  0  0  0  0  0  0  0  # atno 17320 bound_to 7965
  146.0472  140.8106  142.9799 LP  0  0  0  0  0  0  0  0  0  0  0  0  # atno 17321 bound_to 7965
  139.5536  144.7356  151.4361 LP  0  0  0  0  0  0  0  0  0  0  0  0  # atno 17342 bound_to 10162
  140.6835  143.8026  150.7154 LP  0  0  0  0  0  0  0  0  0  0  0  0  # atno 17343 bound_to 10162
  157.2827  131.0610  151.2186 LP  0  0  0  0  0  0  0  0  0  0  0  0  # atno 17370 bound_to 10713
  157.3227  130.6945  149.6278 LP  0  0  0  0  0  0  0  0  0  0  0  0  # atno 17371 bound_to 10713
  140.2072  134.8854  157.3235 LP  0  0  0  0  0  0  0  0  0  0  0  0  # atno 17394 bound_to 11000
  140.2125  134.4121  155.7606 LP  0  0  0  0  0  0  0  0  0  0  0  0  # atno 17395 bound_to 11000

$$$$
