AV-unprocessed.smi:2631|AV-procd|sdf|10248|dock7
  -GOLD-   2272014253D 1   1.00000     0.00000
 Structure written by MMmdl.
 35 36  0  0  0  0  0  0  0  0  1 V2000
  147.8339  142.0350  154.0013 C   0  0  0  0  0  0  0  0  0  0  0  0
  148.2419  140.7711  154.4928 O   0  0  0  0  0  0  0  0  0  0  0  0
  149.6421  140.5717  154.3885 C   0  0  0  0  0  0  0  0  0  0  0  0
  149.9542  139.0690  154.4842 C   0  0  0  0  0  0  0  0  0  0  0  0
  150.1821  138.6239  155.8446 N   0  0  0  0  0  0  0  0  0  0  0  0
  151.2764  139.0188  156.6186 C   0  0  0  0  0  0  0  0  0  0  0  0
  152.2026  139.8959  156.0803 N   0  0  0  0  0  0  0  0  0  0  0  0
  151.4508  138.5406  157.8780 C   0  0  0  0  0  0  0  0  0  0  0  0
  152.8105  138.9407  158.9499 S   0  0  0  0  0  0  0  0  0  0  0  0
  152.4873  140.6418  159.2826 C   0  0  0  0  0  0  0  0  0  0  0  0
  153.2842  141.3414  160.2109 C   0  0  0  0  0  0  0  0  0  0  0  0
  153.0185  142.6976  160.4825 C   0  0  0  0  0  0  0  0  0  0  0  0
  151.9582  143.3535  159.8256 C   0  0  0  0  0  0  0  0  0  0  0  0
  151.6319  145.0143  160.1601 Cl  0  0  0  0  0  0  0  0  0  0  0  0
  151.1635  142.6527  158.8963 C   0  0  0  0  0  0  0  0  0  0  0  0
  151.4279  141.2963  158.6239 C   0  0  0  0  0  0  0  0  0  0  0  0
  150.5138  137.5998  158.4958 C   0  0  0  0  0  0  0  0  0  0  0  0
  150.5857  137.1275  159.6301 O   0  0  0  0  0  0  0  0  0  0  0  0
  149.4545  137.2363  157.6649 N   0  0  0  0  0  0  0  0  0  0  0  0
  149.2464  137.6939  156.3649 C   0  0  0  0  0  0  0  0  0  0  0  0
  148.2784  137.2785  155.7271 O   0  0  0  0  0  0  0  0  0  0  0  0
  148.7822  136.5808  158.0359 H   0  0  0  0  0  0  0  0  0  0  0  0
  146.7532  142.1346  154.1019 H   0  0  0  0  0  0  0  0  0  0  0  0
  148.0868  142.1481  152.9465 H   0  0  0  0  0  0  0  0  0  0  0  0
  148.3000  142.8457  154.5626 H   0  0  0  0  0  0  0  0  0  0  0  0
  149.9936  140.9561  153.4301 H   0  0  0  0  0  0  0  0  0  0  0  0
  150.1659  141.1247  155.1698 H   0  0  0  0  0  0  0  0  0  0  0  0
  149.1460  138.4660  154.0719 H   0  0  0  0  0  0  0  0  0  0  0  0
  150.8359  138.8010  153.8994 H   0  0  0  0  0  0  0  0  0  0  0  0
  152.1079  140.2580  155.1423 H   0  0  0  0  0  0  0  0  0  0  0  0
  152.9620  140.2707  156.6309 H   0  0  0  0  0  0  0  0  0  0  0  0
  154.0959  140.8413  160.7186 H   0  0  0  0  0  0  0  0  0  0  0  0
  153.6282  143.2329  161.1956 H   0  0  0  0  0  0  0  0  0  0  0  0
  150.3498  143.1538  158.3928 H   0  0  0  0  0  0  0  0  0  0  0  0
  150.8151  140.7602  157.9142 H   0  0  0  0  0  0  0  0  0  0  0  0
  1  2  1  0  0  0  0
  1 23  1  0  0  0  0
  1 24  1  0  0  0  0
  1 25  1  0  0  0  0
  2  3  1  0  0  0  0
  3  4  1  0  0  0  0
  3 26  1  0  0  0  0
  3 27  1  0  0  0  0
  4  5  1  0  0  0  0
  4 28  1  0  0  0  0
  4 29  1  0  0  0  0
  5 20  1  0  0  0  0
  5  6  1  0  0  0  0
  6  7  1  0  0  0  0
  6  8  2  0  0  0  0
  7 30  1  0  0  0  0
  7 31  1  0  0  0  0
  8  9  1  0  0  0  0
  8 17  1  0  0  0  0
  9 10  1  0  0  0  0
 10 16  1  0  0  0  0
 10 11  2  0  0  0  0
 11 12  1  0  0  0  0
 11 32  1  0  0  0  0
 12 13  2  0  0  0  0
 12 33  1  0  0  0  0
 13 14  1  0  0  0  0
 13 15  1  0  0  0  0
 15 16  2  0  0  0  0
 15 34  1  0  0  0  0
 16 35  1  0  0  0  0
 17 18  2  0  0  0  0
 17 19  1  0  0  0  0
 19 22  1  0  0  0  0
 19 20  1  0  0  0  0
 20 21  2  0  0  0  0
M  END
> <s_m_source_file>
AV-unprocessed.smi

> <i_m_source_file_index>
2631

> <i_lp_mmshare_version>
43012

> <i_f3d_flags>
0

> <s_epik_input>
W0NIM11PW0NIMl1bQ0gyXW4xYyhbTkgyXSljKGMoPU8pW25IXWMxPU8pU2MyW2NIXVtjSF1jKENsKVtjSF1bY0hdMg==

> <s_epik_cmdline>
J2VwaWtfcHl0aG9uJywgJy1waCcsICc3LjAnLCAnLXRuJywgJzgnLCAnLW1hJywgJzIwMCcsICctbWV0YWxfYmluZGluZycsICctaW1hZScsICc8aW5maWxlLm1hZT4nLCAnLW9tYWUnLCAnPG91dGZpbGUubWFlPic=

> <r_lp_tautomer_probability>
1

> <r_epik_Ionization_Penalty>
9.0495e-05

> <r_epik_Ionization_Penalty_Charging>
7.40646e-05

> <r_epik_Ionization_Penalty_Neutral>
1.64304e-05

> <r_epik_State_Penalty>
-0

> <r_epik_Charging_Adjusted_Penalty>
7.40646e-05

> <i_epik_Tot_Q>
0

> <i_epik_Tot_abs_Q>
0

> <r_epik_Metal_State_Penalty>
0.0697747

> <b_epik_Metal_Only>
0

> <s_epik_Chemistry_Notes>
This compound has an imine and may undergo hydrolysis.

> <s_lp_Force_Field>
OPLS_2005

> <r_lp_Energy>
18.0154

> <b_lp_Chiralities_Consistent>
1

> <s_lp_Variant>
AV-unprocessed.smi:2631-1

> <Gold.Version>
5.8.1

> <Gold.Id.Protein>
6NUR|6NUR_protein|mol2

> <Gold.PLP.Fitness>
39.2877

> <Gold.PLP.PLP>
-37.5441

> <Gold.PLP.part.hbond>
-0.8137

> <Gold.PLP.part.metal>
0.0000

> <Gold.PLP.part.buried>
-5.6328

> <Gold.PLP.part.nonpolar>
-31.5904

> <Gold.PLP.part.repulsive>
0.3814

> <Gold.PLP.ligand.clash>
0.0000

> <Gold.PLP.ligand.torsion>
0.3887

> <Gold.PLP.Chemscore.Hbond>
0.8288

> <Gold.PLP.Chemscore.CHOScore>
0.0000

> <Gold.PLP.Chemscore.Metal>
0.0000

> <Gold.Chemscore.Hbonds>
donor molecule, donor type, donor heavy atom, donor atom, acceptor molecule, acceptor atom, score
      P1  H  6896  6907       L1    18  0.78

> <Gold.PLP.Chemscore.Internal.Correction>
0.0347

> <Gold.Rescore>
     Score         DG    S(hbond)    S(metal)    S(lipo)     H(rot)  DE(clash)    DE(int)     intcor
     14.44     -14.85       0.99        0.00      97.07       2.07       0.01       0.40       ----

> <Gold.Chemscore.Fitness>
14.4410

> <Gold.Chemscore.DG>
-14.8525

> <Gold.Chemscore.ZeroCoef>
-5.4800

> <Gold.Chemscore.Hbond>
0.9910

> <Gold.Chemscore.Metal>
0.0000

> <Gold.Chemscore.Lipo>
97.0658

> <Gold.Chemscore.Internal_Hbond>
0.0000

> <Gold.Chemscore.DEClash>
0.0137

> <Gold.Chemscore.DEInternal>
0.3978

> <Gold.Chemscore.Rot>
2.0680

> <Gold.Chemscore.Internal.Correction>
   9.000000E+99

> <Gold.Chemscore.Hbonds>
donor molecule, donor type, donor heavy atom, donor atom, acceptor molecule, acceptor atom, score
      P1  H  6896  6907       L1    18  0.75

> <Gold.Chemscore.Hbond.Weighted>
-3.3099

> <Gold.Chemscore.Metal.Weighted>
-0.0000

> <Gold.Chemscore.Lipo.Weighted>
-11.3567

> <Gold.Chemscore.Internal_Hbond.Weighted>
0.0000

> <Gold.Chemscore.DEClash.Weighted>
0.0137

> <Gold.Chemscore.DEInternal.Weighted>
0.3978

> <Gold.Chemscore.Rot.Weighted>
5.2941

> <Gold.Chemscore.Internal.Correction.Weighted>
   9.000000E+99

> <Gold.Protein.RotatedTorsions>
[ 6907 6896 6895 6894 ] final  -18.24 input  -60.11 | X-H torsion
[ 7974 7965 7964 7962 ] final -164.73 input  175.53 | X-H torsion
[ 8008 7997 7996 7995 ] final   68.49 input   59.86 | X-H torsion
[ 10167 10162 10161 10158 ] final  149.58 input  -65.29 | X-H torsion
[ 10718 10713 10712 10709 ] final  -86.87 input   66.30 | X-H torsion
[ 10763 10752 10751 10750 ] final   53.40 input  -60.55 | X-H torsion
[ 11005 11000 10999 10996 ] final  169.61 input  -57.11 | X-H torsion

> <Gold.Protein.ActiveResidues>
 VAL166  LYS551  ARG553  GLY616  TRP617  ASP618  TYR619  PRO620  LYS621  CYS622 
 ASP623  PHE694  ASN695  SER759  ASP760  ASP761  ALA762  ILE779  LEU786  VAL792 
 PHE793  MET794  SER795  GLU796  ALA797  LYS798  CYS799  TRP800  GLU811  SER814 

> <Gold.Protein.RotatedAtoms>
  151.2812  135.0714  159.9169 H   0  0  0  0  0  0  0  0  0  0  0  0  # atno 6907 bound_to 6896
  152.5333  134.0028  159.7913 H   0  0  0  0  0  0  0  0  0  0  0  0  # atno 6908 bound_to 6896
  151.0283  133.5763  159.2694 H   0  0  0  0  0  0  0  0  0  0  0  0  # atno 6909 bound_to 6896
  144.7289  140.2918  143.6219 H   0  0  0  0  0  0  0  0  0  0  0  0  # atno 7974 bound_to 7965
  155.7091  140.3494  155.4966 H   0  0  0  0  0  0  0  0  0  0  0  0  # atno 8008 bound_to 7997
  155.9371  140.1095  157.1107 H   0  0  0  0  0  0  0  0  0  0  0  0  # atno 8009 bound_to 7997
  154.4096  140.1220  156.4865 H   0  0  0  0  0  0  0  0  0  0  0  0  # atno 8010 bound_to 7997
  139.4860  144.5590  151.7265 H   0  0  0  0  0  0  0  0  0  0  0  0  # atno 10167 bound_to 10162
  155.9987  130.4780  150.4780 H   0  0  0  0  0  0  0  0  0  0  0  0  # atno 10718 bound_to 10713
  152.9795  135.5780  154.4735 H   0  0  0  0  0  0  0  0  0  0  0  0  # atno 10763 bound_to 10752
  154.4294  135.2773  155.1925 H   0  0  0  0  0  0  0  0  0  0  0  0  # atno 10764 bound_to 10752
  154.3639  135.6182  153.5759 H   0  0  0  0  0  0  0  0  0  0  0  0  # atno 10765 bound_to 10752
  140.2996  134.7606  157.3905 H   0  0  0  0  0  0  0  0  0  0  0  0  # atno 11005 bound_to 11000
  145.7847  139.1904  143.2137 LP  0  0  0  0  0  0  0  0  0  0  0  0  # atno 17320 bound_to 7965
  146.0805  140.7769  142.9644 LP  0  0  0  0  0  0  0  0  0  0  0  0  # atno 17321 bound_to 7965
  140.5156  144.0957  150.6007 LP  0  0  0  0  0  0  0  0  0  0  0  0  # atno 17342 bound_to 10162
  140.3898  143.2758  152.0073 LP  0  0  0  0  0  0  0  0  0  0  0  0  # atno 17343 bound_to 10162
  157.2789  131.0602  151.2211 LP  0  0  0  0  0  0  0  0  0  0  0  0  # atno 17370 bound_to 10713
  157.3265  130.6963  149.6299 LP  0  0  0  0  0  0  0  0  0  0  0  0  # atno 17371 bound_to 10713
  140.1122  134.5331  155.8256 LP  0  0  0  0  0  0  0  0  0  0  0  0  # atno 17394 bound_to 11000
  141.2131  133.6728  156.6709 LP  0  0  0  0  0  0  0  0  0  0  0  0  # atno 17395 bound_to 11000

$$$$
