AV-unprocessed.smi:1362|AV-procd|sdf|5562|dock4
  -GOLD-   22720 5153D 1   1.00000     0.00000
 Structure written by MMmdl.
 38 38  0  0  0  0  0  0  0  0  2 V2000
  153.9859  141.4452  161.7963 C   0  0  0  0  0  0  0  0  0  0  0  0
  153.2388  141.7447  160.5145 C   0  0  0  0  0  0  0  0  0  0  0  0
  152.6826  142.8866  160.3676 N   0  0  0  0  0  0  0  0  0  0  0  0
  151.9861  143.1687  159.1802 C   0  0  0  0  0  0  0  0  0  0  0  0
  151.3537  144.5467  159.0921 C   0  0  0  0  0  0  0  0  0  0  0  0
  151.8933  142.2459  158.1803 C   0  0  0  0  0  0  0  0  0  0  0  0
  151.1432  142.5021  156.8727 C   0  0  0  0  0  0  0  0  0  0  0  0
  149.9140  141.6279  156.6104 C   0  0  0  0  0  0  0  0  0  0  0  0
  150.0127  140.4021  156.5468 O   0  0  0  0  0  0  0  0  0  0  0  0
  148.7535  142.2833  156.4543 N   0  0  0  0  0  0  0  0  0  0  0  0
  147.4528  141.6655  156.1989 C   0  0  2  0  0  0  0  0  0  0  0  0
  147.3089  140.4226  157.0985 C   0  0  0  0  0  0  0  0  0  0  0  0
  147.2990  141.3505  154.6870 C   0  0  0  0  0  0  0  0  0  0  0  0
  148.5559  140.6785  154.0994 C   0  0  0  0  0  0  0  0  0  0  0  0
  146.9526  142.6010  153.8586 C   0  0  0  0  0  0  0  0  0  0  0  0
  152.5540  140.9448  158.3860 C   0  0  0  0  0  0  0  0  0  0  0  0
  152.5145  140.0827  157.5088 O   0  0  0  0  0  0  0  0  0  0  0  0
  153.2023  140.7445  159.5688 N   0  5  0  0  0  0  0  0  0  0  0  0
  154.1179  142.3481  162.3938 H   0  0  0  0  0  0  0  0  0  0  0  0
  154.9726  141.0361  161.5764 H   0  0  0  0  0  0  0  0  0  0  0  0
  153.4340  140.7173  162.3914 H   0  0  0  0  0  0  0  0  0  0  0  0
  150.2674  144.4646  159.0547 H   0  0  0  0  0  0  0  0  0  0  0  0
  151.6946  145.0702  158.1988 H   0  0  0  0  0  0  0  0  0  0  0  0
  151.6146  145.1579  159.9569 H   0  0  0  0  0  0  0  0  0  0  0  0
  150.8443  143.5483  156.8018 H   0  0  0  0  0  0  0  0  0  0  0  0
  151.8386  142.3578  156.0456 H   0  0  0  0  0  0  0  0  0  0  0  0
  148.7707  143.2904  156.5228 H   0  0  0  0  0  0  0  0  0  0  0  0
  146.6696  142.3753  156.4720 H   0  0  0  0  0  0  0  0  0  0  0  0
  146.3082  139.9956  157.0420 H   0  0  0  0  0  0  0  0  0  0  0  0
  147.4838  140.6716  158.1457 H   0  0  0  0  0  0  0  0  0  0  0  0
  148.0225  139.6464  156.8204 H   0  0  0  0  0  0  0  0  0  0  0  0
  146.4736  140.6466  154.5714 H   0  0  0  0  0  0  0  0  0  0  0  0
  149.4349  141.3123  154.2194 H   0  0  0  0  0  0  0  0  0  0  0  0
  148.4343  140.4807  153.0341 H   0  0  0  0  0  0  0  0  0  0  0  0
  148.7683  139.7217  154.5763 H   0  0  0  0  0  0  0  0  0  0  0  0
  147.7062  143.3796  153.9812 H   0  0  0  0  0  0  0  0  0  0  0  0
  145.9871  143.0198  154.1401 H   0  0  0  0  0  0  0  0  0  0  0  0
  146.8933  142.3630  152.7963 H   0  0  0  0  0  0  0  0  0  0  0  0
  1  2  1  0  0  0  0
  1 19  1  0  0  0  0
  1 20  1  0  0  0  0
  1 21  1  0  0  0  0
  2 18  1  0  0  0  0
  2  3  2  0  0  0  0
  3  4  1  0  0  0  0
  4  5  1  0  0  0  0
  4  6  2  0  0  0  0
  5 22  1  0  0  0  0
  5 23  1  0  0  0  0
  5 24  1  0  0  0  0
  6  7  1  0  0  0  0
  6 16  1  0  0  0  0
  7  8  1  0  0  0  0
  7 25  1  0  0  0  0
  7 26  1  0  0  0  0
  8  9  2  0  0  0  0
  8 10  1  0  0  0  0
 10 11  1  0  0  0  0
 10 27  1  0  0  0  0
 11 12  1  0  0  0  0
 11 13  1  0  0  0  0
 11 28  1  0  0  0  0
 12 29  1  0  0  0  0
 12 30  1  0  0  0  0
 12 31  1  0  0  0  0
 13 14  1  0  0  0  0
 13 15  1  0  0  0  0
 13 32  1  0  0  0  0
 14 33  1  0  0  0  0
 14 34  1  0  0  0  0
 14 35  1  0  0  0  0
 15 36  1  0  0  0  0
 15 37  1  0  0  0  0
 15 38  1  0  0  0  0
 16 17  2  0  0  0  0
 16 18  1  0  0  0  0
M  CHG  1  18  -1
M  END
> <s_m_source_file>
AV-unprocessed.smi

> <i_m_source_file_index>
1362

> <i_lp_mmshare_version>
43012

> <i_f3d_flags>
0

> <s_epik_input>
W0NIM11jMW5jKFtDSDNdKWMoYyg9TylbbkhdMSlbQ0gyXUMoPU8pW05IXVtDQEhdKFtDSDNdKVtDSF0oW0NIM10pW0NIM10=

> <s_epik_cmdline>
J2VwaWtfcHl0aG9uJywgJy1waCcsICc3LjAnLCAnLXRuJywgJzgnLCAnLW1hJywgJzIwMCcsICctbWV0YWxfYmluZGluZycsICctaW1hZScsICc8aW5maWxlLm1hZT4nLCAnLW9tYWUnLCAnPG91dGZpbGUubWFlPic=

> <r_lp_tautomer_probability>
0.839158

> <r_epik_Ionization_Penalty>
6.62204

> <r_epik_Ionization_Penalty_Charging>
7.30593e-08

> <r_epik_Ionization_Penalty_Neutral>
6.62204

> <r_epik_State_Penalty>
4.44062

> <r_epik_Charging_Adjusted_Penalty>
4.44062

> <i_epik_Tot_Q>
-1

> <i_epik_Tot_abs_Q>
1

> <r_epik_Metal_State_Penalty>
0.802984

> <b_epik_Metal_Only>
1

> <s_lp_Force_Field>
OPLS_2005

> <r_lp_Energy>
10.6651

> <b_lp_Chiralities_Consistent>
1

> <s_lp_Variant>
AV-unprocessed.smi:1362-5

> <Gold.Version>
5.8.1

> <Gold.Id.Protein>
6NUR|6NUR_protein|mol2

> <Gold.PLP.Fitness>
38.6920

> <Gold.PLP.PLP>
-34.1251

> <Gold.PLP.part.hbond>
-2.0000

> <Gold.PLP.part.metal>
0.0000

> <Gold.PLP.part.buried>
-5.1638

> <Gold.PLP.part.nonpolar>
-26.3109

> <Gold.PLP.part.repulsive>
0.0538

> <Gold.PLP.ligand.clash>
0.0000

> <Gold.PLP.ligand.torsion>
0.5857

> <Gold.PLP.Chemscore.Hbond>
1.9033

> <Gold.PLP.Chemscore.CHOScore>
0.0000

> <Gold.PLP.Chemscore.Metal>
0.0000

> <Gold.Chemscore.Hbonds>
donor molecule, donor type, donor heavy atom, donor atom, acceptor molecule, acceptor atom, score
      L1  H    10    27       P1  8028  0.91
      P1  H  7997  8009       L1    17  0.98

> <Gold.PLP.Chemscore.Internal.Correction>
0.0286

> <Gold.Rescore>
     Score         DG    S(hbond)    S(metal)    S(lipo)     H(rot)  DE(clash)    DE(int)     intcor
     11.23     -15.73       1.79        0.00      72.58       1.64       0.19       4.31       ----

> <Gold.Chemscore.Fitness>
11.2309

> <Gold.Chemscore.DG>
-15.7297

> <Gold.Chemscore.ZeroCoef>
-5.4800

> <Gold.Chemscore.Hbond>
1.7857

> <Gold.Chemscore.Metal>
0.0000

> <Gold.Chemscore.Lipo>
72.5848

> <Gold.Chemscore.Internal_Hbond>
0.0000

> <Gold.Chemscore.DEClash>
0.1888

> <Gold.Chemscore.DEInternal>
4.3101

> <Gold.Chemscore.Rot>
1.6433

> <Gold.Chemscore.Internal.Correction>
   9.000000E+99

> <Gold.Chemscore.Hbonds>
donor molecule, donor type, donor heavy atom, donor atom, acceptor molecule, acceptor atom, score
      L1  H    10    27       P1  8028  0.79
      P1  H  7997  8009       L1    17  0.35

> <Gold.Chemscore.Hbond.Weighted>
-5.9642

> <Gold.Chemscore.Metal.Weighted>
-0.0000

> <Gold.Chemscore.Lipo.Weighted>
-8.4924

> <Gold.Chemscore.Internal_Hbond.Weighted>
0.0000

> <Gold.Chemscore.DEClash.Weighted>
0.1888

> <Gold.Chemscore.DEInternal.Weighted>
4.3101

> <Gold.Chemscore.Rot.Weighted>
4.2069

> <Gold.Chemscore.Internal.Correction.Weighted>
   9.000000E+99

> <Gold.Protein.RotatedTorsions>
[ 6907 6896 6895 6894 ] final   55.84 input  -60.11 | X-H torsion
[ 7974 7965 7964 7962 ] final  -43.39 input  175.53 | X-H torsion
[ 8008 7997 7996 7995 ] final  172.73 input   59.86 | X-H torsion
[ 10167 10162 10161 10158 ] final  -65.14 input  -65.29 | X-H torsion
[ 10718 10713 10712 10709 ] final  167.59 input   66.30 | X-H torsion
[ 10763 10752 10751 10750 ] final    0.71 input  -60.55 | X-H torsion
[ 11005 11000 10999 10996 ] final  109.91 input  -57.11 | X-H torsion

> <Gold.Protein.ActiveResidues>
 VAL166  LYS551  ARG553  GLY616  TRP617  ASP618  TYR619  PRO620  LYS621  CYS622 
 ASP623  PHE694  ASN695  SER759  ASP760  ASP761  ALA762  ILE779  LEU786  VAL792 
 PHE793  MET794  SER795  GLU796  ALA797  LYS798  CYS799  TRP800  GLU811  SER814 

> <Gold.Protein.RotatedAtoms>
  152.3578  134.6915  160.0216 H   0  0  0  0  0  0  0  0  0  0  0  0  # atno 6907 bound_to 6896
  151.7248  133.3310  159.3333 H   0  0  0  0  0  0  0  0  0  0  0  0  # atno 6908 bound_to 6896
  150.7584  134.6350  159.6251 H   0  0  0  0  0  0  0  0  0  0  0  0  # atno 6909 bound_to 6896
  146.0024  140.7059  142.9264 H   0  0  0  0  0  0  0  0  0  0  0  0  # atno 7974 bound_to 7965
  156.1145  140.1478  156.9291 H   0  0  0  0  0  0  0  0  0  0  0  0  # atno 8008 bound_to 7997
  154.4791  140.0885  156.7376 H   0  0  0  0  0  0  0  0  0  0  0  0  # atno 8009 bound_to 7997
  155.4537  140.3435  155.4306 H   0  0  0  0  0  0  0  0  0  0  0  0  # atno 8010 bound_to 7997
  140.5751  143.2321  151.6459 H   0  0  0  0  0  0  0  0  0  0  0  0  # atno 10167 bound_to 10162
  157.0494  131.0309  151.2686 H   0  0  0  0  0  0  0  0  0  0  0  0  # atno 10718 bound_to 10713
  153.3172  135.6967  153.7062 H   0  0  0  0  0  0  0  0  0  0  0  0  # atno 10763 bound_to 10752
  153.5917  135.3478  155.2914 H   0  0  0  0  0  0  0  0  0  0  0  0  # atno 10764 bound_to 10752
  154.8589  135.4319  154.2326 H   0  0  0  0  0  0  0  0  0  0  0  0  # atno 10765 bound_to 10752
  139.8871  134.9470  156.6199 H   0  0  0  0  0  0  0  0  0  0  0  0  # atno 11005 bound_to 11000
  144.6924  140.3256  143.7225 LP  0  0  0  0  0  0  0  0  0  0  0  0  # atno 17320 bound_to 7965
  145.7468  139.1781  143.2345 LP  0  0  0  0  0  0  0  0  0  0  0  0  # atno 17321 bound_to 7965
  139.5138  144.3431  152.0722 LP  0  0  0  0  0  0  0  0  0  0  0  0  # atno 17342 bound_to 10162
  140.2573  144.4105  150.6199 LP  0  0  0  0  0  0  0  0  0  0  0  0  # atno 17343 bound_to 10162
  157.5042  130.7899  149.7637 LP  0  0  0  0  0  0  0  0  0  0  0  0  # atno 17370 bound_to 10713
  156.0012  130.3879  150.2597 LP  0  0  0  0  0  0  0  0  0  0  0  0  # atno 17371 bound_to 10713
  140.7747  133.8709  155.8520 LP  0  0  0  0  0  0  0  0  0  0  0  0  # atno 17394 bound_to 11000
  140.9811  134.1403  157.4493 LP  0  0  0  0  0  0  0  0  0  0  0  0  # atno 17395 bound_to 11000

$$$$
