AV-unprocessed.smi:213|AV-procd|sdf|1648|dock5
  -GOLD-   2262020 23D 1   1.00000     0.00000
 Structure written by MMmdl.
 58 61  0  0  0  0  0  0  0  0  1 V2000
  145.0150  136.8581  154.1247 C   0  0  0  0  0  0  0  0  0  0  0  0
  146.1589  136.8220  153.0909 C   0  0  1  0  0  0  0  0  0  0  0  0
  145.6655  136.4564  151.6697 C   0  0  0  0  0  0  0  0  0  0  0  0
  145.3837  135.0385  151.4393 N   0  0  0  0  0  0  0  0  0  0  0  0
  146.5609  134.3524  150.9181 C   0  0  0  0  0  0  0  0  0  0  0  0
  146.3018  132.8535  150.6940 C   0  0  0  0  0  0  0  0  0  0  0  0
  145.1972  132.6924  149.8108 O   0  0  0  0  0  0  0  0  0  0  0  0
  144.0103  133.3047  150.3037 C   0  0  0  0  0  0  0  0  0  0  0  0
  144.2554  134.8051  150.5432 C   0  0  0  0  0  0  0  0  0  0  0  0
  146.8655  138.1063  153.0861 N   0  0  0  0  0  0  0  0  0  0  0  0
  146.6274  139.0887  152.0305 C   0  0  0  0  0  0  0  0  0  0  0  0
  147.8960  138.3404  153.9432 C   0  0  0  0  0  0  0  0  0  0  0  0
  148.4484  137.2693  154.5731 N   0  0  0  0  0  0  0  0  0  0  0  0
  149.4699  137.4280  155.4188 C   0  0  0  0  0  0  0  0  0  0  0  0
  150.0854  138.5540  155.7799 N   0  0  0  0  0  0  0  0  0  0  0  0
  149.5313  139.6377  155.1665 C   0  0  0  0  0  0  0  0  0  0  0  0
  148.4445  139.6247  154.2439 C   0  0  0  0  0  0  0  0  0  0  0  0
  148.1560  140.9290  153.8540 N   0  0  0  0  0  0  0  0  0  0  0  0
  149.0243  141.6627  154.4922 C   0  0  0  0  0  0  0  0  0  0  0  0
  149.8890  140.9674  155.3034 N   0  0  0  0  0  0  0  0  0  0  0  0
  150.9444  141.5313  156.1260 C   0  0  0  0  0  0  0  0  0  0  0  0
  150.3957  142.4392  157.2435 C   0  0  1  0  0  0  0  0  0  0  0  0
  149.6615  141.6827  158.1876 O   0  0  0  0  0  0  0  0  0  0  0  0
  151.4997  143.2614  157.9395 C   0  0  1  0  0  0  0  0  0  0  0  0
  151.0347  144.4206  158.8246 C   0  0  0  0  0  0  0  0  0  0  0  0
  152.2423  144.6077  159.7160 C   0  0  0  0  0  0  0  0  0  0  0  0
  152.6925  143.1658  159.9416 C   0  0  0  0  0  0  0  0  0  0  0  0
  152.3395  142.4524  158.7590 O   0  0  0  0  0  0  0  0  0  0  0  0
  144.5185  135.8946  154.2213 H   0  0  0  0  0  0  0  0  0  0  0  0
  144.2492  137.5867  153.8588 H   0  0  0  0  0  0  0  0  0  0  0  0
  145.3944  137.1233  155.1120 H   0  0  0  0  0  0  0  0  0  0  0  0
  146.8515  136.0546  153.4350 H   0  0  0  0  0  0  0  0  0  0  0  0
  144.7962  137.0612  151.4073 H   0  0  0  0  0  0  0  0  0  0  0  0
  146.4421  136.7519  150.9625 H   0  0  0  0  0  0  0  0  0  0  0  0
  146.8686  134.8095  149.9762 H   0  0  0  0  0  0  0  0  0  0  0  0
  147.3954  134.4715  151.6102 H   0  0  0  0  0  0  0  0  0  0  0  0
  147.1802  132.3767  150.2589 H   0  0  0  0  0  0  0  0  0  0  0  0
  146.0981  132.3502  151.6407 H   0  0  0  0  0  0  0  0  0  0  0  0
  143.2077  133.1628  149.5798 H   0  0  0  0  0  0  0  0  0  0  0  0
  143.6988  132.8144  151.2275 H   0  0  0  0  0  0  0  0  0  0  0  0
  143.3469  135.2299  150.9673 H   0  0  0  0  0  0  0  0  0  0  0  0
  144.4282  135.3048  149.5890 H   0  0  0  0  0  0  0  0  0  0  0  0
  147.5649  139.5118  151.6677 H   0  0  0  0  0  0  0  0  0  0  0  0
  146.0035  139.9009  152.4045 H   0  0  0  0  0  0  0  0  0  0  0  0
  146.1217  138.6375  151.1769 H   0  0  0  0  0  0  0  0  0  0  0  0
  149.8490  136.5232  155.8700 H   0  0  0  0  0  0  0  0  0  0  0  0
  149.0546  142.7378  154.3908 H   0  0  0  0  0  0  0  0  0  0  0  0
  151.5349  140.7162  156.5461 H   0  0  0  0  0  0  0  0  0  0  0  0
  151.6133  142.0974  155.4769 H   0  0  0  0  0  0  0  0  0  0  0  0
  149.6908  143.1433  156.7997 H   0  0  0  0  0  0  0  0  0  0  0  0
  149.0458  142.2553  158.6185 H   0  0  0  0  0  0  0  0  0  0  0  0
  152.1513  143.6757  157.1681 H   0  0  0  0  0  0  0  0  0  0  0  0
  150.7793  145.3149  158.2554 H   0  0  0  0  0  0  0  0  0  0  0  0
  150.1729  144.1445  159.4330 H   0  0  0  0  0  0  0  0  0  0  0  0
  153.0160  145.1652  159.1859 H   0  0  0  0  0  0  0  0  0  0  0  0
  152.0154  145.1342  160.6434 H   0  0  0  0  0  0  0  0  0  0  0  0
  153.7601  143.0910  160.1496 H   0  0  0  0  0  0  0  0  0  0  0  0
  152.1530  142.7270  160.7818 H   0  0  0  0  0  0  0  0  0  0  0  0
  1  2  1  0  0  0  0
  1 29  1  0  0  0  0
  1 30  1  0  0  0  0
  1 31  1  0  0  0  0
  2  3  1  0  0  0  0
  2 10  1  0  0  0  0
  2 32  1  0  0  0  0
  3  4  1  0  0  0  0
  3 33  1  0  0  0  0
  3 34  1  0  0  0  0
  4  9  1  0  0  0  0
  4  5  1  0  0  0  0
  5  6  1  0  0  0  0
  5 35  1  0  0  0  0
  5 36  1  0  0  0  0
  6  7  1  0  0  0  0
  6 37  1  0  0  0  0
  6 38  1  0  0  0  0
  7  8  1  0  0  0  0
  8  9  1  0  0  0  0
  8 39  1  0  0  0  0
  8 40  1  0  0  0  0
  9 41  1  0  0  0  0
  9 42  1  0  0  0  0
 10 11  1  0  0  0  0
 10 12  1  0  0  0  0
 11 43  1  0  0  0  0
 11 44  1  0  0  0  0
 11 45  1  0  0  0  0
 12 17  1  0  0  0  0
 12 13  2  0  0  0  0
 13 14  1  0  0  0  0
 14 15  2  0  0  0  0
 14 46  1  0  0  0  0
 15 16  1  0  0  0  0
 16 20  1  0  0  0  0
 16 17  2  0  0  0  0
 17 18  1  0  0  0  0
 18 19  2  0  0  0  0
 19 20  1  0  0  0  0
 19 47  1  0  0  0  0
 20 21  1  0  0  0  0
 21 22  1  0  0  0  0
 21 48  1  0  0  0  0
 21 49  1  0  0  0  0
 22 23  1  0  0  0  0
 22 24  1  0  0  0  0
 22 50  1  0  0  0  0
 23 51  1  0  0  0  0
 24 28  1  0  0  0  0
 24 25  1  0  0  0  0
 24 52  1  0  0  0  0
 25 26  1  0  0  0  0
 25 53  1  0  0  0  0
 25 54  1  0  0  0  0
 26 27  1  0  0  0  0
 26 55  1  0  0  0  0
 26 56  1  0  0  0  0
 27 28  1  0  0  0  0
 27 57  1  0  0  0  0
 27 58  1  0  0  0  0
M  END
> <s_m_source_file>
AV-unprocessed.smi

> <i_m_source_file_index>
213

> <i_lp_mmshare_version>
43012

> <i_f3d_flags>
0

> <s_epik_input>
W0NIMl0xW0NIMl1PW0NIMl1bQ0gyXU4xW0NIMl1bQ0BASF0oW0NIM10pTihbQ0gzXSljKG5bY0hdbjIpYyhjMjMpbltjSF1uM1tDSDJdW0NASF0oW09IXSlbQ0BASF00W0NIMl1bQ0gyXVtDSDJdTzQ=

> <s_epik_cmdline>
J2VwaWtfcHl0aG9uJywgJy1waCcsICc3LjAnLCAnLXRuJywgJzgnLCAnLW1hJywgJzIwMCcsICctbWV0YWxfYmluZGluZycsICctaW1hZScsICc8aW5maWxlLm1hZT4nLCAnLW9tYWUnLCAnPG91dGZpbGUubWFlPic=

> <r_lp_tautomer_probability>
1

> <r_epik_Ionization_Penalty>
0.423322

> <r_epik_Ionization_Penalty_Charging>
0

> <r_epik_Ionization_Penalty_Neutral>
0.423322

> <r_epik_State_Penalty>
0.569486

> <r_epik_Charging_Adjusted_Penalty>
0.569486

> <i_epik_Tot_Q>
0

> <i_epik_Tot_abs_Q>
0

> <r_epik_Metal_State_Penalty>
0.568671

> <b_epik_Metal_Only>
0

> <s_lp_Force_Field>
OPLS_2005

> <r_lp_Energy>
55.4432

> <b_lp_Chiralities_Consistent>
1

> <s_lp_Variant>
AV-unprocessed.smi:213-16

> <Gold.Version>
5.8.1

> <Gold.Id.Protein>
6NUR|6NUR_protein|mol2

> <Gold.PLP.Fitness>
45.6049

> <Gold.PLP.PLP>
-45.2528

> <Gold.PLP.part.hbond>
0.0000

> <Gold.PLP.part.metal>
0.0000

> <Gold.PLP.part.buried>
-2.5840

> <Gold.PLP.part.nonpolar>
-43.5030

> <Gold.PLP.part.repulsive>
0.9549

> <Gold.PLP.ligand.clash>
0.0000

> <Gold.PLP.ligand.torsion>
1.6274

> <Gold.PLP.Chemscore.Hbond>
0.0000

> <Gold.PLP.Chemscore.CHOScore>
1.0000

> <Gold.PLP.Chemscore.Metal>
0.0000

> <Gold.Chemscore.Hbonds>
donor molecule, donor type, donor heavy atom, donor atom, acceptor molecule, acceptor atom, score
      L1  C    19    47       P1  8028  1.00

> <Gold.PLP.Chemscore.Internal.Correction>
0.6068

> <Gold.Rescore>
     Score         DG    S(hbond)    S(metal)    S(lipo)     H(rot)  DE(clash)    DE(int)     intcor
      8.12     -10.77       0.00        0.00     105.14       2.74       0.09       2.57       ----

> <Gold.Chemscore.Fitness>
8.1158

> <Gold.Chemscore.DG>
-10.7729

> <Gold.Chemscore.ZeroCoef>
-5.4800

> <Gold.Chemscore.Hbond>
0.0000

> <Gold.Chemscore.Metal>
0.0000

> <Gold.Chemscore.Lipo>
105.1413

> <Gold.Chemscore.Internal_Hbond>
0.0000

> <Gold.Chemscore.DEClash>
0.0880

> <Gold.Chemscore.DEInternal>
2.5691

> <Gold.Chemscore.Rot>
2.7378

> <Gold.Chemscore.Internal.Correction>
   9.000000E+99

> <Gold.Chemscore.Hbond.Weighted>
-0.0000

> <Gold.Chemscore.Metal.Weighted>
-0.0000

> <Gold.Chemscore.Lipo.Weighted>
-12.3015

> <Gold.Chemscore.Internal_Hbond.Weighted>
0.0000

> <Gold.Chemscore.DEClash.Weighted>
0.0880

> <Gold.Chemscore.DEInternal.Weighted>
2.5691

> <Gold.Chemscore.Rot.Weighted>
7.0087

> <Gold.Chemscore.Internal.Correction.Weighted>
   9.000000E+99

> <Gold.Protein.RotatedTorsions>
[ 6907 6896 6895 6894 ] final  -33.31 input  -60.11 | X-H torsion
[ 7974 7965 7964 7962 ] final  113.96 input  175.53 | X-H torsion
[ 8008 7997 7996 7995 ] final  156.65 input   59.86 | X-H torsion
[ 10167 10162 10161 10158 ] final  116.52 input  -65.29 | X-H torsion
[ 10718 10713 10712 10709 ] final  -83.35 input   66.30 | X-H torsion
[ 10763 10752 10751 10750 ] final  124.70 input  -60.55 | X-H torsion
[ 11005 11000 10999 10996 ] final  170.91 input  -57.11 | X-H torsion

> <Gold.Protein.ActiveResidues>
 VAL166  LYS551  ARG553  GLY616  TRP617  ASP618  TYR619  PRO620  LYS621  CYS622 
 ASP623  PHE694  ASN695  SER759  ASP760  ASP761  ALA762  ILE779  LEU786  VAL792 
 PHE793  MET794  SER795  GLU796  ALA797  LYS798  CYS799  TRP800  GLU811  SER814 

> <Gold.Protein.RotatedAtoms>
  151.0673  134.9776  159.8290 H   0  0  0  0  0  0  0  0  0  0  0  0  # atno 6907 bound_to 6896
  152.5404  134.2342  159.8847 H   0  0  0  0  0  0  0  0  0  0  0  0  # atno 6908 bound_to 6896
  151.2365  133.4379  159.2639 H   0  0  0  0  0  0  0  0  0  0  0  0  # atno 6909 bound_to 6896
  145.2104  139.2909  143.4271 H   0  0  0  0  0  0  0  0  0  0  0  0  # atno 7974 bound_to 7965
  156.2410  140.1906  156.6988 H   0  0  0  0  0  0  0  0  0  0  0  0  # atno 8008 bound_to 7997
  154.6197  140.0610  156.9626 H   0  0  0  0  0  0  0  0  0  0  0  0  # atno 8009 bound_to 7997
  155.1882  140.3282  155.4366 H   0  0  0  0  0  0  0  0  0  0  0  0  # atno 8010 bound_to 7997
  139.6242  144.7106  151.2570 H   0  0  0  0  0  0  0  0  0  0  0  0  # atno 10167 bound_to 10162
  156.0019  130.4663  150.4244 H   0  0  0  0  0  0  0  0  0  0  0  0  # atno 10718 bound_to 10713
  153.6656  135.3339  155.3139 H   0  0  0  0  0  0  0  0  0  0  0  0  # atno 10763 bound_to 10752
  154.8504  135.4374  154.1758 H   0  0  0  0  0  0  0  0  0  0  0  0  # atno 10764 bound_to 10752
  153.2736  135.7002  153.7531 H   0  0  0  0  0  0  0  0  0  0  0  0  # atno 10765 bound_to 10752
  140.3134  134.7498  157.4008 H   0  0  0  0  0  0  0  0  0  0  0  0  # atno 11005 bound_to 11000
  146.3398  140.2378  142.8595 LP  0  0  0  0  0  0  0  0  0  0  0  0  # atno 17320 bound_to 7965
  144.9861  140.8504  143.5368 LP  0  0  0  0  0  0  0  0  0  0  0  0  # atno 17321 bound_to 7965
  140.7400  143.6599  150.8173 LP  0  0  0  0  0  0  0  0  0  0  0  0  # atno 17342 bound_to 10162
  140.0215  143.5538  152.2798 LP  0  0  0  0  0  0  0  0  0  0  0  0  # atno 17343 bound_to 10162
  157.2298  131.0501  151.2499 LP  0  0  0  0  0  0  0  0  0  0  0  0  # atno 17370 bound_to 10713
  157.3722  130.7187  149.6572 LP  0  0  0  0  0  0  0  0  0  0  0  0  # atno 17371 bound_to 10713
  140.1005  134.5479  155.8357 LP  0  0  0  0  0  0  0  0  0  0  0  0  # atno 17394 bound_to 11000
  141.2103  133.6693  156.6500 LP  0  0  0  0  0  0  0  0  0  0  0  0  # atno 17395 bound_to 11000

$$$$
