AV-unprocessed.smi:1189|AV-procd|sdf|4979|dock10
  -GOLD-   22720 3573D 1   1.00000     0.00000
 Structure written by MMmdl.
 33 34  0  0  0  0  0  0  0  0  1 V2000
  154.4765  139.5514  159.4632 O   0  0  0  0  0  0  0  0  0  0  0  0
  153.3174  139.6074  159.0498 C   0  0  0  0  0  0  0  0  0  0  0  0
  152.7430  138.4967  158.1620 C   0  0  0  0  0  0  0  0  0  0  0  0
  152.9836  137.1688  158.7022 N   0  0  0  0  0  0  0  0  0  0  0  0
  154.0642  136.3399  158.4888 C   0  0  0  0  0  0  0  0  0  0  0  0
  153.8499  135.2011  159.2107 C   0  0  0  0  0  0  0  0  0  0  0  0
  152.5950  135.4250  159.8482 C   0  0  0  0  0  0  0  0  0  0  0  0
  151.8457  134.5107  160.7817 C   0  0  0  0  0  0  0  0  0  0  0  0
  151.6428  133.3260  160.2049 F   0  0  0  0  0  0  0  0  0  0  0  0
  152.5468  134.3281  161.9006 F   0  0  0  0  0  0  0  0  0  0  0  0
  150.6641  135.0450  161.0907 F   0  0  0  0  0  0  0  0  0  0  0  0
  152.0803  136.6066  159.5340 N   0  0  0  0  0  0  0  0  0  0  0  0
  152.4875  140.6257  159.3252 N   0  0  0  0  0  0  0  0  0  0  0  0
  152.8137  141.7881  160.1458 C   0  0  0  0  0  0  0  0  0  0  0  0
  151.7367  142.8856  160.0494 C   0  0  1  0  0  0  0  0  0  0  0  0
  152.1739  144.2199  160.6190 C   0  0  0  0  0  0  0  0  0  0  0  0
  151.1733  145.1848  159.9883 C   0  0  0  0  0  0  0  0  0  0  0  0
  150.7942  144.6032  158.7441 O   0  0  0  0  0  0  0  0  0  0  0  0
  151.3458  143.2958  158.6286 C   0  0  0  0  0  0  0  0  0  0  0  0
  151.6687  138.6373  158.0307 H   0  0  0  0  0  0  0  0  0  0  0  0
  153.1981  138.5588  157.1730 H   0  0  0  0  0  0  0  0  0  0  0  0
  154.8868  136.6279  157.8511 H   0  0  0  0  0  0  0  0  0  0  0  0
  154.4946  134.3375  159.2767 H   0  0  0  0  0  0  0  0  0  0  0  0
  151.5540  140.5892  158.9420 H   0  0  0  0  0  0  0  0  0  0  0  0
  152.8916  141.4487  161.1789 H   0  0  0  0  0  0  0  0  0  0  0  0
  153.7955  142.1863  159.8832 H   0  0  0  0  0  0  0  0  0  0  0  0
  150.8395  142.5621  160.5801 H   0  0  0  0  0  0  0  0  0  0  0  0
  152.1589  144.2471  161.7089 H   0  0  0  0  0  0  0  0  0  0  0  0
  153.1843  144.4621  160.2860 H   0  0  0  0  0  0  0  0  0  0  0  0
  150.2843  145.2747  160.6134 H   0  0  0  0  0  0  0  0  0  0  0  0
  151.5918  146.1819  159.8499 H   0  0  0  0  0  0  0  0  0  0  0  0
  152.2258  143.3501  157.9862 H   0  0  0  0  0  0  0  0  0  0  0  0
  150.6356  142.6055  158.1729 H   0  0  0  0  0  0  0  0  0  0  0  0
  1  2  2  0  0  0  0
  2  3  1  0  0  0  0
  2 13  1  0  0  0  0
  3  4  1  0  0  0  0
  3 20  1  0  0  0  0
  3 21  1  0  0  0  0
  4 12  1  0  0  0  0
  4  5  1  0  0  0  0
  5  6  2  0  0  0  0
  5 22  1  0  0  0  0
  6  7  1  0  0  0  0
  6 23  1  0  0  0  0
  7  8  1  0  0  0  0
  7 12  2  0  0  0  0
  8  9  1  0  0  0  0
  8 10  1  0  0  0  0
  8 11  1  0  0  0  0
 13 14  1  0  0  0  0
 13 24  1  0  0  0  0
 14 15  1  0  0  0  0
 14 25  1  0  0  0  0
 14 26  1  0  0  0  0
 15 19  1  0  0  0  0
 15 16  1  0  0  0  0
 15 27  1  0  0  0  0
 16 17  1  0  0  0  0
 16 28  1  0  0  0  0
 16 29  1  0  0  0  0
 17 18  1  0  0  0  0
 17 30  1  0  0  0  0
 17 31  1  0  0  0  0
 18 19  1  0  0  0  0
 19 32  1  0  0  0  0
 19 33  1  0  0  0  0
M  END
> <s_m_source_file>
AV-unprocessed.smi

> <i_m_source_file_index>
1189

> <i_lp_mmshare_version>
43012

> <i_f3d_flags>
0

> <s_epik_input>
W0NIMl0xT1tDSDJdW0NIMl1bQ0BIXTFbQ0gyXVtOSF1DKD1PKVtDSDJdbjJbY0hdW2NIXWMobjIpQyhGKShGKUY=

> <s_epik_cmdline>
J2VwaWtfcHl0aG9uJywgJy1waCcsICc3LjAnLCAnLXRuJywgJzgnLCAnLW1hJywgJzIwMCcsICctbWV0YWxfYmluZGluZycsICctaW1hZScsICc8aW5maWxlLm1hZT4nLCAnLW9tYWUnLCAnPG91dGZpbGUubWFlPic=

> <r_lp_tautomer_probability>
1

> <r_epik_Ionization_Penalty>
1.26564e-07

> <r_epik_Ionization_Penalty_Charging>
0

> <r_epik_Ionization_Penalty_Neutral>
1.26564e-07

> <r_epik_State_Penalty>
-0

> <r_epik_Charging_Adjusted_Penalty>
0

> <i_epik_Tot_Q>
0

> <i_epik_Tot_abs_Q>
0

> <r_epik_Metal_State_Penalty>
-0

> <b_epik_Metal_Only>
0

> <s_lp_Force_Field>
OPLS_2005

> <r_lp_Energy>
22.0534

> <b_lp_Chiralities_Consistent>
1

> <s_lp_Variant>
AV-unprocessed.smi:1189-2

> <Gold.Version>
5.8.1

> <Gold.Id.Protein>
6NUR|6NUR_protein|mol2

> <Gold.PLP.Fitness>
41.4248

> <Gold.PLP.PLP>
-39.7372

> <Gold.PLP.part.hbond>
-1.0000

> <Gold.PLP.part.metal>
0.0000

> <Gold.PLP.part.buried>
-5.5595

> <Gold.PLP.part.nonpolar>
-33.3051

> <Gold.PLP.part.repulsive>
0.2889

> <Gold.PLP.ligand.clash>
0.0000

> <Gold.PLP.ligand.torsion>
0.6611

> <Gold.PLP.Chemscore.Hbond>
1.0000

> <Gold.PLP.Chemscore.CHOScore>
0.0000

> <Gold.PLP.Chemscore.Metal>
0.0000

> <Gold.Chemscore.Hbonds>
donor molecule, donor type, donor heavy atom, donor atom, acceptor molecule, acceptor atom, score
      P1  H  7997  8009       L1     1  0.16

> <Gold.PLP.Chemscore.Internal.Correction>
0.0099

> <Gold.Rescore>
     Score         DG    S(hbond)    S(metal)    S(lipo)     H(rot)  DE(clash)    DE(int)     intcor
     13.58     -14.06       1.00        0.00      86.21       1.89       0.02       0.46       ----

> <Gold.Chemscore.Fitness>
13.5804

> <Gold.Chemscore.DG>
-14.0598

> <Gold.Chemscore.ZeroCoef>
-5.4800

> <Gold.Chemscore.Hbond>
0.9997

> <Gold.Chemscore.Metal>
0.0000

> <Gold.Chemscore.Lipo>
86.2078

> <Gold.Chemscore.Internal_Hbond>
0.0000

> <Gold.Chemscore.DEClash>
0.0223

> <Gold.Chemscore.DEInternal>
0.4572

> <Gold.Chemscore.Rot>
1.8928

> <Gold.Chemscore.Internal.Correction>
   9.000000E+99

> <Gold.Chemscore.Hbond.Weighted>
-3.3390

> <Gold.Chemscore.Metal.Weighted>
-0.0000

> <Gold.Chemscore.Lipo.Weighted>
-10.0863

> <Gold.Chemscore.Internal_Hbond.Weighted>
0.0000

> <Gold.Chemscore.DEClash.Weighted>
0.0223

> <Gold.Chemscore.DEInternal.Weighted>
0.4572

> <Gold.Chemscore.Rot.Weighted>
4.8455

> <Gold.Chemscore.Internal.Correction.Weighted>
   9.000000E+99

> <Gold.Protein.RotatedTorsions>
[ 6907 6896 6895 6894 ] final   67.72 input  -60.11 | X-H torsion
[ 7974 7965 7964 7962 ] final  -52.90 input  175.53 | X-H torsion
[ 8008 7997 7996 7995 ] final  116.02 input   59.86 | X-H torsion
[ 10167 10162 10161 10158 ] final  -59.25 input  -65.29 | X-H torsion
[ 10718 10713 10712 10709 ] final  -88.69 input   66.30 | X-H torsion
[ 10763 10752 10751 10750 ] final   73.10 input  -60.55 | X-H torsion
[ 11005 11000 10999 10996 ] final  103.42 input  -57.11 | X-H torsion

> <Gold.Protein.ActiveResidues>
 VAL166  LYS551  ARG553  GLY616  TRP617  ASP618  TYR619  PRO620  LYS621  CYS622 
 ASP623  PHE694  ASN695  SER759  ASP760  ASP761  ALA762  ILE779  LEU786  VAL792 
 PHE793  MET794  SER795  GLU796  ALA797  LYS798  CYS799  TRP800  GLU811  SER814 

> <Gold.Protein.RotatedAtoms>
  152.4571  134.5267  159.9798 H   0  0  0  0  0  0  0  0  0  0  0  0  # atno 6907 bound_to 6896
  151.5325  133.3441  159.2928 H   0  0  0  0  0  0  0  0  0  0  0  0  # atno 6908 bound_to 6896
  150.8519  134.7877  159.7078 H   0  0  0  0  0  0  0  0  0  0  0  0  # atno 6909 bound_to 6896
  145.9028  140.7980  142.9734 H   0  0  0  0  0  0  0  0  0  0  0  0  # atno 7974 bound_to 7965
  156.2415  140.2926  156.0459 H   0  0  0  0  0  0  0  0  0  0  0  0  # atno 8008 bound_to 7997
  155.1935  140.0407  157.2922 H   0  0  0  0  0  0  0  0  0  0  0  0  # atno 8009 bound_to 7997
  154.6178  140.2468  155.7594 H   0  0  0  0  0  0  0  0  0  0  0  0  # atno 8010 bound_to 7997
  140.6147  143.2398  151.5626 H   0  0  0  0  0  0  0  0  0  0  0  0  # atno 10167 bound_to 10162
  155.9983  130.4845  150.5057 H   0  0  0  0  0  0  0  0  0  0  0  0  # atno 10718 bound_to 10713
  153.0500  135.5075  154.7842 H   0  0  0  0  0  0  0  0  0  0  0  0  # atno 10763 bound_to 10752
  154.6712  135.2953  154.9741 H   0  0  0  0  0  0  0  0  0  0  0  0  # atno 10764 bound_to 10752
  154.0559  135.6697  153.4858 H   0  0  0  0  0  0  0  0  0  0  0  0  # atno 10765 bound_to 10752
  139.8784  134.9262  156.5207 H   0  0  0  0  0  0  0  0  0  0  0  0  # atno 11005 bound_to 11000
  144.6737  140.1704  143.7415 LP  0  0  0  0  0  0  0  0  0  0  0  0  # atno 17320 bound_to 7965
  145.8769  139.2302  143.1628 LP  0  0  0  0  0  0  0  0  0  0  0  0  # atno 17321 bound_to 7965
  139.5389  144.2703  152.1309 LP  0  0  0  0  0  0  0  0  0  0  0  0  # atno 17342 bound_to 10162
  140.1910  144.4752  150.6479 LP  0  0  0  0  0  0  0  0  0  0  0  0  # atno 17343 bound_to 10162
  157.3036  131.0650  151.2051 LP  0  0  0  0  0  0  0  0  0  0  0  0  # atno 17370 bound_to 10713
  157.3021  130.6848  149.6170 LP  0  0  0  0  0  0  0  0  0  0  0  0  # atno 17371 bound_to 10713
  140.8452  133.8174  155.9114 LP  0  0  0  0  0  0  0  0  0  0  0  0  # atno 17394 bound_to 11000
  140.9198  134.2156  157.4934 LP  0  0  0  0  0  0  0  0  0  0  0  0  # atno 17395 bound_to 11000

$$$$
