AV-unprocessed.smi:235|AV-procd|sdf|1802|dock9
  -GOLD-   2262020373D 1   1.00000     0.00000
 Structure written by MMmdl.
 54 58  0  0  0  0  0  0  0  0  1 V2000
  151.7991  140.9281  159.1641 O   0  0  0  0  0  0  0  0  0  0  0  0
  151.1214  141.6177  158.4023 C   0  0  0  0  0  0  0  0  0  0  0  0
  151.3404  142.9309  158.2225 N   0  0  0  0  0  0  0  0  0  0  0  0
  152.3519  143.7092  158.8572 C   0  0  0  0  0  0  0  0  0  0  0  0
  151.9274  145.0161  159.4915 C   0  0  0  0  0  0  0  0  0  0  0  0
  152.7261  145.0289  158.2176 C   0  0  0  0  0  0  0  0  0  0  0  0
  149.9873  140.9565  157.5915 C   0  0  1  0  0  0  0  0  0  0  0  0
  149.3457  141.9191  156.5679 C   0  0  0  0  0  0  0  0  0  0  0  0
  149.8634  141.4548  155.2088 C   0  0  0  0  0  0  0  0  0  0  0  0
  150.0057  139.9519  155.4123 C   0  0  0  0  0  0  0  0  0  0  0  0
  150.4481  139.8159  156.7896 N   0  0  0  0  0  0  0  0  0  0  0  0
  150.3523  138.5804  157.3262 C   0  0  0  0  0  0  0  0  0  0  0  0
  150.3458  138.4188  158.6748 N   0  0  0  0  0  0  0  0  0  0  0  0
  150.2614  137.1902  159.1957 C   0  0  0  0  0  0  0  0  0  0  0  0
  150.1775  136.0171  158.5623 N   0  0  0  0  0  0  0  0  0  0  0  0
  150.1803  136.1839  157.2082 C   0  0  0  0  0  0  0  0  0  0  0  0
  150.2586  137.4219  156.5136 C   0  0  0  0  0  0  0  0  0  0  0  0
  150.2335  137.2052  155.1417 N   0  0  0  0  0  0  0  0  0  0  0  0
  150.1528  135.9071  155.0303 C   0  0  0  0  0  0  0  0  0  0  0  0
  150.1174  135.2168  156.2216 N   0  0  0  0  0  0  0  0  0  0  0  0
  150.0351  133.7775  156.3950 C   0  0  0  0  0  0  0  0  0  0  0  0
  149.8609  133.0319  155.0543 C   0  0  2  0  0  0  0  0  0  0  0  0
  148.5955  133.3744  154.5213 O   0  0  0  0  0  0  0  0  0  0  0  0
  149.9101  131.4981  155.2049 C   0  0  2  0  0  0  0  0  0  0  0  0
  151.2997  130.9263  155.4945 C   0  0  0  0  0  0  0  0  0  0  0  0
  151.2109  129.4948  154.9924 C   0  0  0  0  0  0  0  0  0  0  0  0
  150.0007  129.5096  154.0560 C   0  0  0  0  0  0  0  0  0  0  0  0
  149.6207  130.8755  153.9618 O   0  0  0  0  0  0  0  0  0  0  0  0
  150.7401  143.4177  157.5718 H   0  0  0  0  0  0  0  0  0  0  0  0
  153.1545  143.1729  159.3616 H   0  0  0  0  0  0  0  0  0  0  0  0
  150.8776  145.2967  159.4266 H   0  0  0  0  0  0  0  0  0  0  0  0
  152.4346  145.3179  160.4056 H   0  0  0  0  0  0  0  0  0  0  0  0
  153.7674  145.3381  158.2801 H   0  0  0  0  0  0  0  0  0  0  0  0
  152.2099  145.3165  157.3033 H   0  0  0  0  0  0  0  0  0  0  0  0
  149.2252  140.6507  158.3103 H   0  0  0  0  0  0  0  0  0  0  0  0
  148.2612  141.8063  156.5991 H   0  0  0  0  0  0  0  0  0  0  0  0
  149.5625  142.9730  156.7481 H   0  0  0  0  0  0  0  0  0  0  0  0
  149.1980  141.7131  154.3848 H   0  0  0  0  0  0  0  0  0  0  0  0
  150.8398  141.8998  155.0119 H   0  0  0  0  0  0  0  0  0  0  0  0
  149.0465  139.4525  155.2640 H   0  0  0  0  0  0  0  0  0  0  0  0
  150.7281  139.5183  154.7199 H   0  0  0  0  0  0  0  0  0  0  0  0
  150.2642  137.1397  160.2746 H   0  0  0  0  0  0  0  0  0  0  0  0
  150.1226  135.4140  154.0695 H   0  0  0  0  0  0  0  0  0  0  0  0
  150.9446  133.4537  156.9013 H   0  0  0  0  0  0  0  0  0  0  0  0
  149.2069  133.5529  157.0689 H   0  0  0  0  0  0  0  0  0  0  0  0
  150.6350  133.3575  154.3580 H   0  0  0  0  0  0  0  0  0  0  0  0
  148.2374  132.6162  154.0859 H   0  0  0  0  0  0  0  0  0  0  0  0
  149.2047  131.1546  155.9644 H   0  0  0  0  0  0  0  0  0  0  0  0
  152.0541  131.4663  154.9202 H   0  0  0  0  0  0  0  0  0  0  0  0
  151.5718  130.9864  156.5487 H   0  0  0  0  0  0  0  0  0  0  0  0
  152.1252  129.2000  154.4766 H   0  0  0  0  0  0  0  0  0  0  0  0
  151.0474  128.7968  155.8144 H   0  0  0  0  0  0  0  0  0  0  0  0
  150.2275  129.1004  153.0713 H   0  0  0  0  0  0  0  0  0  0  0  0
  149.1778  128.9351  154.4829 H   0  0  0  0  0  0  0  0  0  0  0  0
  1  2  2  0  0  0  0
  2  3  1  0  0  0  0
  2  7  1  0  0  0  0
  3  4  1  0  0  0  0
  3 29  1  0  0  0  0
  4  6  1  0  0  0  0
  4  5  1  0  0  0  0
  4 30  1  0  0  0  0
  5  6  1  0  0  0  0
  5 31  1  0  0  0  0
  5 32  1  0  0  0  0
  6 33  1  0  0  0  0
  6 34  1  0  0  0  0
  7 11  1  0  0  0  0
  7  8  1  0  0  0  0
  7 35  1  0  0  0  0
  8  9  1  0  0  0  0
  8 36  1  0  0  0  0
  8 37  1  0  0  0  0
  9 10  1  0  0  0  0
  9 38  1  0  0  0  0
  9 39  1  0  0  0  0
 10 11  1  0  0  0  0
 10 40  1  0  0  0  0
 10 41  1  0  0  0  0
 11 12  1  0  0  0  0
 12 17  1  0  0  0  0
 12 13  2  0  0  0  0
 13 14  1  0  0  0  0
 14 15  2  0  0  0  0
 14 42  1  0  0  0  0
 15 16  1  0  0  0  0
 16 20  1  0  0  0  0
 16 17  2  0  0  0  0
 17 18  1  0  0  0  0
 18 19  2  0  0  0  0
 19 20  1  0  0  0  0
 19 43  1  0  0  0  0
 20 21  1  0  0  0  0
 21 22  1  0  0  0  0
 21 44  1  0  0  0  0
 21 45  1  0  0  0  0
 22 23  1  0  0  0  0
 22 24  1  0  0  0  0
 22 46  1  0  0  0  0
 23 47  1  0  0  0  0
 24 28  1  0  0  0  0
 24 25  1  0  0  0  0
 24 48  1  0  0  0  0
 25 26  1  0  0  0  0
 25 49  1  0  0  0  0
 25 50  1  0  0  0  0
 26 27  1  0  0  0  0
 26 51  1  0  0  0  0
 26 52  1  0  0  0  0
 27 28  1  0  0  0  0
 27 53  1  0  0  0  0
 27 54  1  0  0  0  0
M  END
> <s_m_source_file>
AV-unprocessed.smi

> <i_m_source_file_index>
235

> <i_lp_mmshare_version>
43012

> <i_f3d_flags>
0

> <s_epik_input>
W0NIMl0xW0NIMl1bQ0hdMVtOSF1DKD1PKVtDQEBIXTJbQ0gyXVtDSDJdW0NIMl1OMmMobltjSF1uMyljKGMzNCluW2NIXW40W0NIMl1bQ0BIXShbT0hdKVtDQEBIXTVbQ0gyXVtDSDJdW0NIMl1PNQ==

> <s_epik_cmdline>
J2VwaWtfcHl0aG9uJywgJy1waCcsICc3LjAnLCAnLXRuJywgJzgnLCAnLW1hJywgJzIwMCcsICctbWV0YWxfYmluZGluZycsICctaW1hZScsICc8aW5maWxlLm1hZT4nLCAnLW9tYWUnLCAnPG91dGZpbGUubWFlPic=

> <r_lp_tautomer_probability>
1

> <r_epik_Ionization_Penalty>
0.000526714

> <r_epik_Ionization_Penalty_Charging>
0

> <r_epik_Ionization_Penalty_Neutral>
0.000526714

> <r_epik_State_Penalty>
0.000272704

> <r_epik_Charging_Adjusted_Penalty>
0.000272704

> <i_epik_Tot_Q>
0

> <i_epik_Tot_abs_Q>
0

> <r_epik_Metal_State_Penalty>
-0

> <b_epik_Metal_Only>
0

> <s_lp_Force_Field>
OPLS_2005

> <r_lp_Energy>
60.5906

> <b_lp_Chiralities_Consistent>
1

> <s_lp_Variant>
AV-unprocessed.smi:235-2

> <Gold.Version>
5.8.1

> <Gold.Id.Protein>
6NUR|6NUR_protein|mol2

> <Gold.PLP.Fitness>
44.0954

> <Gold.PLP.PLP>
-40.9152

> <Gold.PLP.part.hbond>
-1.0000

> <Gold.PLP.part.metal>
0.0000

> <Gold.PLP.part.buried>
-5.3512

> <Gold.PLP.part.nonpolar>
-34.3868

> <Gold.PLP.part.repulsive>
0.2462

> <Gold.PLP.ligand.clash>
0.0000

> <Gold.PLP.ligand.torsion>
1.0167

> <Gold.PLP.Chemscore.Hbond>
1.0000

> <Gold.PLP.Chemscore.CHOScore>
0.6187

> <Gold.PLP.Chemscore.Metal>
0.0000

> <Gold.Chemscore.Hbonds>
donor molecule, donor type, donor heavy atom, donor atom, acceptor molecule, acceptor atom, score
      P1  H  6896  6909       L1    15  1.00
      L1  C    19    43       P1  7948  0.44

> <Gold.PLP.Chemscore.Internal.Correction>
0.3576

> <Gold.Rescore>
     Score         DG    S(hbond)    S(metal)    S(lipo)     H(rot)  DE(clash)    DE(int)     intcor
      7.83     -11.88       0.92        0.00      94.08       3.00       0.13       3.92       ----

> <Gold.Chemscore.Fitness>
7.8326

> <Gold.Chemscore.DG>
-11.8790

> <Gold.Chemscore.ZeroCoef>
-5.4800

> <Gold.Chemscore.Hbond>
0.9187

> <Gold.Chemscore.Metal>
0.0000

> <Gold.Chemscore.Lipo>
94.0835

> <Gold.Chemscore.Internal_Hbond>
0.0000

> <Gold.Chemscore.DEClash>
0.1252

> <Gold.Chemscore.DEInternal>
3.9212

> <Gold.Chemscore.Rot>
2.9989

> <Gold.Chemscore.Internal.Correction>
   9.000000E+99

> <Gold.Chemscore.Hbonds>
donor molecule, donor type, donor heavy atom, donor atom, acceptor molecule, acceptor atom, score
      P1  H  6896  6909       L1    15  0.43

> <Gold.Chemscore.Hbond.Weighted>
-3.0685

> <Gold.Chemscore.Metal.Weighted>
-0.0000

> <Gold.Chemscore.Lipo.Weighted>
-11.0078

> <Gold.Chemscore.Internal_Hbond.Weighted>
0.0000

> <Gold.Chemscore.DEClash.Weighted>
0.1252

> <Gold.Chemscore.DEInternal.Weighted>
3.9212

> <Gold.Chemscore.Rot.Weighted>
7.6772

> <Gold.Chemscore.Internal.Correction.Weighted>
   9.000000E+99

> <Gold.Protein.RotatedTorsions>
[ 6907 6896 6895 6894 ] final   72.66 input  -60.11 | X-H torsion
[ 7974 7965 7964 7962 ] final  -33.16 input  175.53 | X-H torsion
[ 8008 7997 7996 7995 ] final  120.09 input   59.86 | X-H torsion
[ 10167 10162 10161 10158 ] final -160.55 input  -65.29 | X-H torsion
[ 10718 10713 10712 10709 ] final   93.76 input   66.30 | X-H torsion
[ 10763 10752 10751 10750 ] final -162.02 input  -60.55 | X-H torsion
[ 11005 11000 10999 10996 ] final  -63.70 input  -57.11 | X-H torsion

> <Gold.Protein.ActiveResidues>
 VAL166  LYS551  ARG553  GLY616  TRP617  ASP618  TYR619  PRO620  LYS621  CYS622 
 ASP623  PHE694  ASN695  SER759  ASP760  ASP761  ALA762  ILE779  LEU786  VAL792 
 PHE793  MET794  SER795  GLU796  ALA797  LYS798  CYS799  TRP800  GLU811  SER814 

> <Gold.Protein.RotatedAtoms>
  152.4880  134.4538  159.9582 H   0  0  0  0  0  0  0  0  0  0  0  0  # atno 6907 bound_to 6896
  151.4530  133.3606  159.2806 H   0  0  0  0  0  0  0  0  0  0  0  0  # atno 6908 bound_to 6896
  150.9008  134.8445  159.7419 H   0  0  0  0  0  0  0  0  0  0  0  0  # atno 6909 bound_to 6896
  146.0933  140.5882  142.8854 H   0  0  0  0  0  0  0  0  0  0  0  0  # atno 7974 bound_to 7965
  156.2627  140.2838  156.1095 H   0  0  0  0  0  0  0  0  0  0  0  0  # atno 8008 bound_to 7997
  155.1272  140.0393  157.2783 H   0  0  0  0  0  0  0  0  0  0  0  0  # atno 8009 bound_to 7997
  154.6626  140.2570  155.7098 H   0  0  0  0  0  0  0  0  0  0  0  0  # atno 8010 bound_to 7997
  139.6531  144.0048  152.2175 H   0  0  0  0  0  0  0  0  0  0  0  0  # atno 10167 bound_to 10162
  157.6952  131.0489  150.4083 H   0  0  0  0  0  0  0  0  0  0  0  0  # atno 10718 bound_to 10713
  154.7252  135.3034  154.8983 H   0  0  0  0  0  0  0  0  0  0  0  0  # atno 10763 bound_to 10752
  153.9842  135.6726  153.4755 H   0  0  0  0  0  0  0  0  0  0  0  0  # atno 10764 bound_to 10752
  153.0868  135.4980  154.8532 H   0  0  0  0  0  0  0  0  0  0  0  0  # atno 10765 bound_to 10752
  141.1401  133.6655  156.5720 H   0  0  0  0  0  0  0  0  0  0  0  0  # atno 11005 bound_to 11000
  144.7376  140.4852  143.6892 LP  0  0  0  0  0  0  0  0  0  0  0  0  # atno 17320 bound_to 7965
  145.5998  139.1503  143.3136 LP  0  0  0  0  0  0  0  0  0  0  0  0  # atno 17321 bound_to 7965
  139.9767  144.6456  150.7938 LP  0  0  0  0  0  0  0  0  0  0  0  0  # atno 17342 bound_to 10162
  140.7547  143.3032  151.3029 LP  0  0  0  0  0  0  0  0  0  0  0  0  # atno 17343 bound_to 10162
  156.4469  130.4003  149.6661 LP  0  0  0  0  0  0  0  0  0  0  0  0  # atno 17370 bound_to 10713
  156.3824  130.7586  151.2580 LP  0  0  0  0  0  0  0  0  0  0  0  0  # atno 17371 bound_to 10713
  140.3906  134.7444  157.4719 LP  0  0  0  0  0  0  0  0  0  0  0  0  # atno 17394 bound_to 11000
  140.0569  134.6050  155.8794 LP  0  0  0  0  0  0  0  0  0  0  0  0  # atno 17395 bound_to 11000

$$$$
