AV-unprocessed.smi:2718|AV-procd|sdf|10491|dock4
  -GOLD-   2272014533D 1   1.00000     0.00000
 Structure written by MMmdl.
 47 48  0  0  0  0  0  0  0  0  1 V2000
  152.2502  143.7551  160.4563 C   0  0  0  0  0  0  0  0  0  0  0  0
  152.1392  143.3942  158.9884 C   0  0  0  0  0  0  0  0  0  0  0  0
  152.7713  144.3978  158.0396 C   0  0  0  0  0  0  0  0  0  0  0  0
  151.5246  142.2666  158.5821 C   0  0  0  0  0  0  0  0  0  0  0  0
  151.3473  141.8093  157.1723 C   0  0  1  0  0  0  0  0  0  0  0  0
  151.1185  140.3550  156.7778 C   0  0  1  0  0  0  0  0  0  0  0  0
  150.9900  139.2916  157.8223 C   0  0  0  0  0  0  0  0  0  0  0  0
  151.7361  139.2284  158.7996 O   0  0  0  0  0  0  0  0  0  0  0  0
  149.9467  138.4672  157.6451 N   0  0  0  0  0  0  0  0  0  0  0  0
  149.5850  137.3689  158.5346 C   0  0  0  0  0  0  0  0  0  0  0  0
  148.1410  137.4902  159.0647 C   0  0  1  0  0  0  0  0  0  0  0  0
  147.0781  137.2101  157.9875 C   0  0  0  0  0  0  0  0  0  0  0  0
  147.9360  136.6198  160.2732 C   0  0  0  0  0  0  0  0  0  0  0  0
  147.7027  137.1008  161.5020 N   0  0  0  0  0  0  0  0  0  0  0  0
  147.5561  135.9956  162.3157 N   0  0  0  0  0  0  0  0  0  0  0  0
  147.7095  134.9555  161.4979 C   0  0  0  0  0  0  0  0  0  0  0  0
  147.9449  135.2709  160.2156 N   0  0  0  0  0  0  0  0  0  0  0  0
  148.1462  134.3782  159.0915 C   0  0  0  0  0  0  0  0  0  0  0  0
  150.0001  141.3822  156.6147 C   0  0  0  0  0  0  0  0  0  0  0  0
  148.7523  141.4022  157.4957 C   0  0  0  0  0  0  0  0  0  0  0  0
  149.6212  141.8062  155.2064 C   0  0  0  0  0  0  0  0  0  0  0  0
  151.7672  144.7137  160.6470 H   0  0  0  0  0  0  0  0  0  0  0  0
  153.2976  143.8343  160.7476 H   0  0  0  0  0  0  0  0  0  0  0  0
  151.7780  143.0052  161.0915 H   0  0  0  0  0  0  0  0  0  0  0  0
  153.8296  144.5188  158.2735 H   0  0  0  0  0  0  0  0  0  0  0  0
  152.2866  145.3686  158.1436 H   0  0  0  0  0  0  0  0  0  0  0  0
  152.6944  144.0938  156.9960 H   0  0  0  0  0  0  0  0  0  0  0  0
  151.1042  141.6212  159.3389 H   0  0  0  0  0  0  0  0  0  0  0  0
  151.9866  142.3809  156.5019 H   0  0  0  0  0  0  0  0  0  0  0  0
  151.5818  140.0150  155.8536 H   0  0  0  0  0  0  0  0  0  0  0  0
  149.3683  138.6029  156.8283 H   0  0  0  0  0  0  0  0  0  0  0  0
  149.7090  136.4335  157.9882 H   0  0  0  0  0  0  0  0  0  0  0  0
  150.2899  137.3312  159.3672 H   0  0  0  0  0  0  0  0  0  0  0  0
  147.9977  138.5260  159.3706 H   0  0  0  0  0  0  0  0  0  0  0  0
  146.0731  137.3397  158.3901 H   0  0  0  0  0  0  0  0  0  0  0  0
  147.1555  136.1905  157.6084 H   0  0  0  0  0  0  0  0  0  0  0  0
  147.1776  137.8875  157.1394 H   0  0  0  0  0  0  0  0  0  0  0  0
  147.6449  133.9346  161.8448 H   0  0  0  0  0  0  0  0  0  0  0  0
  148.0701  133.3406  159.4173 H   0  0  0  0  0  0  0  0  0  0  0  0
  149.1351  134.5425  158.6628 H   0  0  0  0  0  0  0  0  0  0  0  0
  147.3876  134.5668  158.3312 H   0  0  0  0  0  0  0  0  0  0  0  0
  148.0063  140.7083  157.1074 H   0  0  0  0  0  0  0  0  0  0  0  0
  148.3176  142.4019  157.5111 H   0  0  0  0  0  0  0  0  0  0  0  0
  148.9714  141.1174  158.5245 H   0  0  0  0  0  0  0  0  0  0  0  0
  148.8776  141.1250  154.7918 H   0  0  0  0  0  0  0  0  0  0  0  0
  150.4931  141.7999  154.5516 H   0  0  0  0  0  0  0  0  0  0  0  0
  149.2069  142.8147  155.2114 H   0  0  0  0  0  0  0  0  0  0  0  0
  1  2  1  0  0  0  0
  1 22  1  0  0  0  0
  1 23  1  0  0  0  0
  1 24  1  0  0  0  0
  2  3  1  0  0  0  0
  2  4  2  0  0  0  0
  3 25  1  0  0  0  0
  3 26  1  0  0  0  0
  3 27  1  0  0  0  0
  4  5  1  0  0  0  0
  4 28  1  0  0  0  0
  5 19  1  0  0  0  0
  5  6  1  0  0  0  0
  5 29  1  0  0  0  0
  6  7  1  0  0  0  0
  6 19  1  0  0  0  0
  6 30  1  0  0  0  0
  7  8  2  0  0  0  0
  7  9  1  0  0  0  0
  9 10  1  0  0  0  0
  9 31  1  0  0  0  0
 10 11  1  0  0  0  0
 10 32  1  0  0  0  0
 10 33  1  0  0  0  0
 11 12  1  0  0  0  0
 11 13  1  0  0  0  0
 11 34  1  0  0  0  0
 12 35  1  0  0  0  0
 12 36  1  0  0  0  0
 12 37  1  0  0  0  0
 13 17  1  0  0  0  0
 13 14  2  0  0  0  0
 14 15  1  0  0  0  0
 15 16  2  0  0  0  0
 16 17  1  0  0  0  0
 16 38  1  0  0  0  0
 17 18  1  0  0  0  0
 18 39  1  0  0  0  0
 18 40  1  0  0  0  0
 18 41  1  0  0  0  0
 19 20  1  0  0  0  0
 19 21  1  0  0  0  0
 20 42  1  0  0  0  0
 20 43  1  0  0  0  0
 20 44  1  0  0  0  0
 21 45  1  0  0  0  0
 21 46  1  0  0  0  0
 21 47  1  0  0  0  0
M  END
> <s_m_source_file>
AV-unprocessed.smi

> <i_m_source_file_index>
2718

> <i_lp_mmshare_version>
43012

> <i_f3d_flags>
0

> <s_epik_input>
W0NIM11DKFtDSDNdKT1bQ0hdW0NAQEhdKEMxKFtDSDNdKVtDSDNdKVtDQEhdMUMoPU8pW05IXVtDSDJdW0NASF0oW0NIM10pYzJubltjSF1uMltDSDNd

> <s_epik_cmdline>
J2VwaWtfcHl0aG9uJywgJy1waCcsICc3LjAnLCAnLXRuJywgJzgnLCAnLW1hJywgJzIwMCcsICctbWV0YWxfYmluZGluZycsICctaW1hZScsICc8aW5maWxlLm1hZT4nLCAnLW9tYWUnLCAnPG91dGZpbGUubWFlPic=

> <r_lp_tautomer_probability>
1

> <r_epik_Ionization_Penalty>
0.000449586

> <r_epik_Ionization_Penalty_Charging>
0

> <r_epik_Ionization_Penalty_Neutral>
0.000449586

> <r_epik_State_Penalty>
0.000243372

> <r_epik_Charging_Adjusted_Penalty>
0.000243372

> <i_epik_Tot_Q>
0

> <i_epik_Tot_abs_Q>
0

> <r_epik_Metal_State_Penalty>
-0

> <b_epik_Metal_Only>
0

> <s_lp_Force_Field>
OPLS_2005

> <r_lp_Energy>
17.9129

> <b_lp_Chiralities_Consistent>
1

> <s_lp_Variant>
AV-unprocessed.smi:2718-6

> <Gold.Version>
5.8.1

> <Gold.Id.Protein>
6NUR|6NUR_protein|mol2

> <Gold.PLP.Fitness>
41.8180

> <Gold.PLP.PLP>
-37.0954

> <Gold.PLP.part.hbond>
-2.0000

> <Gold.PLP.part.metal>
0.0000

> <Gold.PLP.part.buried>
-4.6839

> <Gold.PLP.part.nonpolar>
-30.2468

> <Gold.PLP.part.repulsive>
0.0600

> <Gold.PLP.ligand.clash>
0.0000

> <Gold.PLP.ligand.torsion>
0.5647

> <Gold.PLP.Chemscore.Hbond>
1.8480

> <Gold.PLP.Chemscore.CHOScore>
0.0000

> <Gold.PLP.Chemscore.Metal>
0.0000

> <Gold.Chemscore.Hbonds>
donor molecule, donor type, donor heavy atom, donor atom, acceptor molecule, acceptor atom, score
      P1  H  6931  6943       L1    14  1.00
      P1  H  6934  6947       L1    14  0.64

> <Gold.PLP.Chemscore.Internal.Correction>
0.3081

> <Gold.Rescore>
     Score         DG    S(hbond)    S(metal)    S(lipo)     H(rot)  DE(clash)    DE(int)     intcor
     11.82     -13.55       1.14        0.00      79.02       1.95       0.04       1.69       ----

> <Gold.Chemscore.Fitness>
11.8162

> <Gold.Chemscore.DG>
-13.5463

> <Gold.Chemscore.ZeroCoef>
-5.4800

> <Gold.Chemscore.Hbond>
1.1443

> <Gold.Chemscore.Metal>
0.0000

> <Gold.Chemscore.Lipo>
79.0162

> <Gold.Chemscore.Internal_Hbond>
0.0000

> <Gold.Chemscore.DEClash>
0.0417

> <Gold.Chemscore.DEInternal>
1.6883

> <Gold.Chemscore.Rot>
1.9533

> <Gold.Chemscore.Internal.Correction>
   9.000000E+99

> <Gold.Chemscore.Hbonds>
donor molecule, donor type, donor heavy atom, donor atom, acceptor molecule, acceptor atom, score
      P1  H  6931  6943       L1    14  0.60
      P1  H  6934  6947       L1    14  0.12

> <Gold.Chemscore.Hbond.Weighted>
-3.8219

> <Gold.Chemscore.Metal.Weighted>
-0.0000

> <Gold.Chemscore.Lipo.Weighted>
-9.2449

> <Gold.Chemscore.Internal_Hbond.Weighted>
0.0000

> <Gold.Chemscore.DEClash.Weighted>
0.0417

> <Gold.Chemscore.DEInternal.Weighted>
1.6883

> <Gold.Chemscore.Rot.Weighted>
5.0005

> <Gold.Chemscore.Internal.Correction.Weighted>
   9.000000E+99

> <Gold.Protein.RotatedTorsions>
[ 6907 6896 6895 6894 ] final  173.18 input  -60.11 | X-H torsion
[ 7974 7965 7964 7962 ] final   89.73 input  175.53 | X-H torsion
[ 8008 7997 7996 7995 ] final  -93.85 input   59.86 | X-H torsion
[ 10167 10162 10161 10158 ] final  102.59 input  -65.29 | X-H torsion
[ 10718 10713 10712 10709 ] final -119.02 input   66.30 | X-H torsion
[ 10763 10752 10751 10750 ] final  -39.42 input  -60.55 | X-H torsion
[ 11005 11000 10999 10996 ] final -158.10 input  -57.11 | X-H torsion

> <Gold.Protein.ActiveResidues>
 VAL166  LYS551  ARG553  GLY616  TRP617  ASP618  TYR619  PRO620  LYS621  CYS622 
 ASP623  PHE694  ASN695  SER759  ASP760  ASP761  ALA762  ILE779  LEU786  VAL792 
 PHE793  MET794  SER795  GLU796  ALA797  LYS798  CYS799  TRP800  GLU811  SER814 

> <Gold.Protein.RotatedAtoms>
  151.7724  133.3342  159.3447 H   0  0  0  0  0  0  0  0  0  0  0  0  # atno 6907 bound_to 6896
  150.7456  134.6006  159.6044 H   0  0  0  0  0  0  0  0  0  0  0  0  # atno 6908 bound_to 6896
  152.3332  134.7234  160.0335 H   0  0  0  0  0  0  0  0  0  0  0  0  # atno 6909 bound_to 6896
  145.5284  139.2282  143.2632 H   0  0  0  0  0  0  0  0  0  0  0  0  # atno 7974 bound_to 7965
  154.7410  140.0495  157.0811 H   0  0  0  0  0  0  0  0  0  0  0  0  # atno 8008 bound_to 7997
  155.0179  140.3143  155.4785 H   0  0  0  0  0  0  0  0  0  0  0  0  # atno 8009 bound_to 7997
  156.2864  140.2172  156.5296 H   0  0  0  0  0  0  0  0  0  0  0  0  # atno 8010 bound_to 7997
  139.7337  144.7029  151.0683 H   0  0  0  0  0  0  0  0  0  0  0  0  # atno 10167 bound_to 10162
  156.1149  130.6278  150.9364 H   0  0  0  0  0  0  0  0  0  0  0  0  # atno 10718 bound_to 10713
  153.9291  135.6774  153.4746 H   0  0  0  0  0  0  0  0  0  0  0  0  # atno 10763 bound_to 10752
  153.0989  135.4838  154.8827 H   0  0  0  0  0  0  0  0  0  0  0  0  # atno 10764 bound_to 10752
  154.7438  135.3167  154.8639 H   0  0  0  0  0  0  0  0  0  0  0  0  # atno 10765 bound_to 10752
  140.6574  134.4386  157.5235 H   0  0  0  0  0  0  0  0  0  0  0  0  # atno 11005 bound_to 11000
  146.2060  140.6099  142.9081 LP  0  0  0  0  0  0  0  0  0  0  0  0  # atno 17320 bound_to 7965
  144.7639  140.5485  143.6717 LP  0  0  0  0  0  0  0  0  0  0  0  0  # atno 17321 bound_to 7965
  140.7775  143.5011  150.9770 LP  0  0  0  0  0  0  0  0  0  0  0  0  # atno 17342 bound_to 10162
  139.8700  143.7205  152.3167 LP  0  0  0  0  0  0  0  0  0  0  0  0  # atno 17343 bound_to 10162
  157.6332  131.0919  150.8400 LP  0  0  0  0  0  0  0  0  0  0  0  0  # atno 17370 bound_to 10713
  156.8505  130.5078  149.5312 LP  0  0  0  0  0  0  0  0  0  0  0  0  # atno 17371 bound_to 10713
  139.9025  134.8524  156.1839 LP  0  0  0  0  0  0  0  0  0  0  0  0  # atno 17394 bound_to 11000
  141.0491  133.6898  156.1738 LP  0  0  0  0  0  0  0  0  0  0  0  0  # atno 17395 bound_to 11000

$$$$
