AV-unprocessed.smi:1047|AV-procd|sdf|4583|dock2
  -GOLD-   22720 3 53D 1   1.00000     0.00000
 Structure written by MMmdl.
 58 60  0  0  0  0  0  0  0  0  4 V2000
  144.6730  132.9202  150.9351 C   0  0  0  0  0  0  0  0  0  0  0  0
  145.3053  134.2934  150.6664 C   0  0  0  0  0  0  0  0  0  0  0  0
  145.4897  135.0909  151.9051 N   0  3  2  0  0  0  0  0  0  0  0  0
  144.2177  135.4076  152.5999 C   0  0  0  0  0  0  0  0  0  0  0  0
  144.4914  136.2115  153.8807 C   0  0  0  0  0  0  0  0  0  0  0  0
  145.2148  137.3914  153.5547 O   0  0  0  0  0  0  0  0  0  0  0  0
  146.4861  137.1095  152.9812 C   0  0  2  0  0  0  0  0  0  0  0  0
  147.1986  138.4560  152.7693 C   0  0  0  0  0  0  0  0  0  0  0  0
  148.6679  138.3287  152.8630 N   0  3  0  0  0  0  0  0  0  0  0  0
  149.2185  138.7382  154.1710 C   0  0  0  0  0  0  0  0  0  0  0  0
  150.7542  138.6398  154.2012 C   0  0  2  0  0  0  0  0  0  0  0  0
  151.1073  137.3285  153.8112 O   0  0  0  0  0  0  0  0  0  0  0  0
  151.3483  138.9489  155.5918 C   0  0  0  0  0  0  0  0  0  0  0  0
  151.1471  140.3459  156.0061 N   0  0  0  0  0  0  0  0  0  0  0  0
  150.3738  141.3166  155.4464 C   0  0  0  0  0  0  0  0  0  0  0  0
  150.5121  142.4404  156.2026 N   0  3  0  0  0  0  0  0  0  0  0  0
  151.3857  142.1856  157.2616 C   0  0  0  0  0  0  0  0  0  0  0  0
  151.8336  143.0077  158.2888 C   0  0  0  0  0  0  0  0  0  0  0  0
  152.7336  142.4434  159.2207 C   0  0  0  0  0  0  0  0  0  0  0  0
  153.2432  143.3147  160.3562 C   0  0  0  0  0  0  0  0  0  0  0  0
  153.1564  141.0942  159.1019 C   0  0  0  0  0  0  0  0  0  0  0  0
  154.1278  140.4986  160.1070 C   0  0  0  0  0  0  0  0  0  0  0  0
  152.6885  140.2743  158.0503 C   0  0  0  0  0  0  0  0  0  0  0  0
  151.7993  140.8445  157.1416 C   0  0  0  0  0  0  0  0  0  0  0  0
  146.2709  136.3294  151.6658 C   0  0  0  0  0  0  0  0  0  0  0  0
  144.6406  132.3287  150.0198 H   0  0  0  0  0  0  0  0  0  0  0  0
  143.6487  133.0048  151.2977 H   0  0  0  0  0  0  0  0  0  0  0  0
  145.2475  132.3565  151.6709 H   0  0  0  0  0  0  0  0  0  0  0  0
  146.2787  134.1272  150.2028 H   0  0  0  0  0  0  0  0  0  0  0  0
  144.7105  134.8544  149.9439 H   0  0  0  0  0  0  0  0  0  0  0  0
  143.5675  135.9781  151.9346 H   0  0  0  0  0  0  0  0  0  0  0  0
  143.6855  134.4932  152.8601 H   0  0  0  0  0  0  0  0  0  0  0  0
  143.5512  136.4936  154.3550 H   0  0  0  0  0  0  0  0  0  0  0  0
  145.0475  135.6152  154.6061 H   0  0  0  0  0  0  0  0  0  0  0  0
  147.0637  136.5073  153.6855 H   0  0  0  0  0  0  0  0  0  0  0  0
  146.9235  138.8838  151.8042 H   0  0  0  0  0  0  0  0  0  0  0  0
  146.8697  139.1619  153.5334 H   0  0  0  0  0  0  0  0  0  0  0  0
  148.9208  137.3645  152.6996 H   0  0  0  0  0  0  0  0  0  0  0  0
  148.8981  139.7548  154.4045 H   0  0  0  0  0  0  0  0  0  0  0  0
  148.7931  138.0874  154.9367 H   0  0  0  0  0  0  0  0  0  0  0  0
  151.1772  139.3220  153.4624 H   0  0  0  0  0  0  0  0  0  0  0  0
  150.3157  136.8330  153.6642 H   0  0  0  0  0  0  0  0  0  0  0  0
  150.8739  138.3228  156.3483 H   0  0  0  0  0  0  0  0  0  0  0  0
  152.4120  138.7129  155.6290 H   0  0  0  0  0  0  0  0  0  0  0  0
  149.7584  141.2158  154.5639 H   0  0  0  0  0  0  0  0  0  0  0  0
  151.5084  144.0347  158.3722 H   0  0  0  0  0  0  0  0  0  0  0  0
  152.9603  142.8917  161.3204 H   0  0  0  0  0  0  0  0  0  0  0  0
  152.8317  144.3231  160.3016 H   0  0  0  0  0  0  0  0  0  0  0  0
  154.3298  143.3968  160.3185 H   0  0  0  0  0  0  0  0  0  0  0  0
  154.3392  139.4519  159.8863 H   0  0  0  0  0  0  0  0  0  0  0  0
  153.7157  140.5487  161.1151 H   0  0  0  0  0  0  0  0  0  0  0  0
  155.0742  141.0398  160.0918 H   0  0  0  0  0  0  0  0  0  0  0  0
  153.0167  139.2494  157.9609 H   0  0  0  0  0  0  0  0  0  0  0  0
  147.2354  136.0714  151.2265 H   0  0  0  0  0  0  0  0  0  0  0  0
  145.7452  136.9521  150.9398 H   0  0  0  0  0  0  0  0  0  0  0  0
  149.0894  138.9027  152.1469 H   0  0  0  0  0  0  0  0  0  0  0  0
  146.0367  134.5219  152.5357 H   0  0  0  0  0  0  0  0  0  0  0  0
  150.0416  143.3157  156.0095 H   0  0  0  0  0  0  0  0  0  0  0  0
  1  2  1  0  0  0  0
  1 26  1  0  0  0  0
  1 27  1  0  0  0  0
  1 28  1  0  0  0  0
  2  3  1  0  0  0  0
  2 29  1  0  0  0  0
  2 30  1  0  0  0  0
  3 25  1  0  0  0  0
  3  4  1  0  0  0  0
  3 57  1  0  0  0  0
  4  5  1  0  0  0  0
  4 31  1  0  0  0  0
  4 32  1  0  0  0  0
  5  6  1  0  0  0  0
  5 33  1  0  0  0  0
  5 34  1  0  0  0  0
  6  7  1  0  0  0  0
  7  8  1  0  0  0  0
  7 25  1  0  0  0  0
  7 35  1  0  0  0  0
  8  9  1  0  0  0  0
  8 36  1  0  0  0  0
  8 37  1  0  0  0  0
  9 10  1  0  0  0  0
  9 38  1  0  0  0  0
  9 56  1  0  0  0  0
 10 11  1  0  0  0  0
 10 39  1  0  0  0  0
 10 40  1  0  0  0  0
 11 12  1  0  0  0  0
 11 13  1  0  0  0  0
 11 41  1  0  0  0  0
 12 42  1  0  0  0  0
 13 14  1  0  0  0  0
 13 43  1  0  0  0  0
 13 44  1  0  0  0  0
 14 24  1  0  0  0  0
 14 15  1  0  0  0  0
 15 16  2  0  0  0  0
 15 45  1  0  0  0  0
 16 17  1  0  0  0  0
 16 58  1  0  0  0  0
 17 24  2  0  0  0  0
 17 18  1  0  0  0  0
 18 19  2  0  0  0  0
 18 46  1  0  0  0  0
 19 20  1  0  0  0  0
 19 21  1  0  0  0  0
 20 47  1  0  0  0  0
 20 48  1  0  0  0  0
 20 49  1  0  0  0  0
 21 22  1  0  0  0  0
 21 23  2  0  0  0  0
 22 50  1  0  0  0  0
 22 51  1  0  0  0  0
 22 52  1  0  0  0  0
 23 24  1  0  0  0  0
 23 53  1  0  0  0  0
 25 54  1  0  0  0  0
 25 55  1  0  0  0  0
M  CHG  1   3   1
M  CHG  1   9   1
M  CHG  1  16   1
M  END
> <s_m_source_file>
AV-unprocessed.smi

> <i_m_source_file_index>
1047

> <i_lp_mmshare_version>
43012

> <i_f3d_flags>
0

> <s_epik_input>
W0NIM11bQ0gyXU4xW0NIMl1bQ0gyXU9bQ0BIXShbQ0gyXTEpW0NIMl1bTkhdW0NIMl1bQ0BIXShbT0hdKVtDSDJdbihbY0hdbjIpYyhjMjMpW2NIXWMoW0NIM10pYyhbY0hdMylbQ0gzXQ==

> <s_epik_cmdline>
J2VwaWtfcHl0aG9uJywgJy1waCcsICc3LjAnLCAnLXRuJywgJzgnLCAnLW1hJywgJzIwMCcsICctbWV0YWxfYmluZGluZycsICctaW1hZScsICc8aW5maWxlLm1hZT4nLCAnLW9tYWUnLCAnPG91dGZpbGUubWFlPic=

> <r_epik_Ionization_Penalty>
1.6114

> <r_epik_Ionization_Penalty_Charging>
1.61139

> <r_epik_Ionization_Penalty_Neutral>
5.04732e-06

> <r_epik_State_Penalty>
1.63724

> <r_epik_Charging_Adjusted_Penalty>
3.24864

> <i_epik_Tot_Q>
3

> <i_epik_Tot_abs_Q>
3

> <r_epik_Metal_State_Penalty>
5.64594

> <b_epik_Metal_Only>
0

> <s_lp_Force_Field>
OPLS_2005

> <r_lp_Energy>
40.251

> <b_lp_Chiralities_Consistent>
1

> <s_lp_Variant>
AV-unprocessed.smi:1047-24

> <Gold.Version>
5.8.1

> <Gold.Id.Protein>
6NUR|6NUR_protein|mol2

> <Gold.PLP.Fitness>
66.1588

> <Gold.PLP.PLP>
-50.8430

> <Gold.PLP.part.hbond>
-4.9976

> <Gold.PLP.part.metal>
0.0000

> <Gold.PLP.part.buried>
-5.0047

> <Gold.PLP.part.nonpolar>
-42.3556

> <Gold.PLP.part.repulsive>
0.8862

> <Gold.PLP.ligand.clash>
0.0000

> <Gold.PLP.ligand.torsion>
0.7982

> <Gold.PLP.Chemscore.Hbond>
5.5503

> <Gold.PLP.Chemscore.CHOScore>
0.0000

> <Gold.PLP.Chemscore.Metal>
0.0000

> <Gold.Chemscore.Hbonds>
donor molecule, donor type, donor heavy atom, donor atom, acceptor molecule, acceptor atom, score
      L1  H     9    38       P1  7948  1.26
      L1  H     9    56       P1  7957  1.00
      L1  H    12    42       P1  7948  0.18
      L1  H    16    58       P1  8028  2.00

> <Gold.PLP.Chemscore.Internal.Correction>
0.2612

> <Gold.Rescore>
     Score         DG    S(hbond)    S(metal)    S(lipo)     H(rot)  DE(clash)    DE(int)     intcor
     21.60     -23.41       3.06        0.00     126.82       2.78       1.13       0.68       ----

> <Gold.Chemscore.Fitness>
21.5977

> <Gold.Chemscore.DG>
-23.4082

> <Gold.Chemscore.ZeroCoef>
-5.4800

> <Gold.Chemscore.Hbond>
3.0597

> <Gold.Chemscore.Metal>
0.0000

> <Gold.Chemscore.Lipo>
126.8185

> <Gold.Chemscore.Internal_Hbond>
0.0000

> <Gold.Chemscore.DEClash>
1.1307

> <Gold.Chemscore.DEInternal>
0.6798

> <Gold.Chemscore.Rot>
2.7848

> <Gold.Chemscore.Internal.Correction>
   9.000000E+99

> <Gold.Chemscore.Hbonds>
donor molecule, donor type, donor heavy atom, donor atom, acceptor molecule, acceptor atom, score
      L1  H     9    38       P1  7948  0.61
      L1  H     9    56       P1  7957  0.83
      L1  H    12    42       P1  7948  0.02
      L1  H    16    58       P1  8028  1.00
      P1  H 10752 10765       L1    12  0.01

> <Gold.Chemscore.Hbond.Weighted>
-10.2195

> <Gold.Chemscore.Metal.Weighted>
-0.0000

> <Gold.Chemscore.Lipo.Weighted>
-14.8378

> <Gold.Chemscore.Internal_Hbond.Weighted>
0.0000

> <Gold.Chemscore.DEClash.Weighted>
1.1307

> <Gold.Chemscore.DEInternal.Weighted>
0.6798

> <Gold.Chemscore.Rot.Weighted>
7.1291

> <Gold.Chemscore.Internal.Correction.Weighted>
   9.000000E+99

> <Gold.Protein.RotatedTorsions>
[ 6907 6896 6895 6894 ] final  -14.68 input  -60.11 | X-H torsion
[ 7974 7965 7964 7962 ] final -177.23 input  175.53 | X-H torsion
[ 8008 7997 7996 7995 ] final  -76.78 input   59.86 | X-H torsion
[ 10167 10162 10161 10158 ] final   91.55 input  -65.29 | X-H torsion
[ 10718 10713 10712 10709 ] final  -44.58 input   66.30 | X-H torsion
[ 10763 10752 10751 10750 ] final  145.64 input  -60.55 | X-H torsion
[ 11005 11000 10999 10996 ] final  -30.23 input  -57.11 | X-H torsion

> <Gold.Protein.ActiveResidues>
 VAL166  LYS551  ARG553  GLY616  TRP617  ASP618  TYR619  PRO620  LYS621  CYS622 
 ASP623  PHE694  ASN695  SER759  ASP760  ASP761  ALA762  ILE779  LEU786  VAL792 
 PHE793  MET794  SER795  GLU796  ALA797  LYS798  CYS799  TRP800  GLU811  SER814 

> <Gold.Protein.RotatedAtoms>
  151.3357  135.0852  159.9353 H   0  0  0  0  0  0  0  0  0  0  0  0  # atno 6907 bound_to 6896
  152.5224  133.9498  159.7676 H   0  0  0  0  0  0  0  0  0  0  0  0  # atno 6908 bound_to 6896
  150.9845  133.6159  159.2747 H   0  0  0  0  0  0  0  0  0  0  0  0  # atno 6909 bound_to 6896
  144.7127  140.1051  143.6414 H   0  0  0  0  0  0  0  0  0  0  0  0  # atno 7974 bound_to 7965
  154.5536  140.0721  156.8708 H   0  0  0  0  0  0  0  0  0  0  0  0  # atno 8008 bound_to 7997
  155.2945  140.3380  155.4232 H   0  0  0  0  0  0  0  0  0  0  0  0  # atno 8009 bound_to 7997
  156.1983  140.1712  156.7938 H   0  0  0  0  0  0  0  0  0  0  0  0  # atno 8010 bound_to 7997
  139.8364  144.6662  150.9337 H   0  0  0  0  0  0  0  0  0  0  0  0  # atno 10167 bound_to 10162
  156.2371  130.4177  149.8804 H   0  0  0  0  0  0  0  0  0  0  0  0  # atno 10718 bound_to 10713
  154.0087  135.2916  155.3395 H   0  0  0  0  0  0  0  0  0  0  0  0  # atno 10763 bound_to 10752
  154.7116  135.5147  153.8678 H   0  0  0  0  0  0  0  0  0  0  0  0  # atno 10764 bound_to 10752
  153.0733  135.6655  154.0321 H   0  0  0  0  0  0  0  0  0  0  0  0  # atno 10765 bound_to 10752
  140.9365  133.7305  156.1012 H   0  0  0  0  0  0  0  0  0  0  0  0  # atno 11005 bound_to 11000
  145.9504  139.2730  143.1215 LP  0  0  0  0  0  0  0  0  0  0  0  0  # atno 17320 bound_to 7965
  145.9329  140.9035  143.0347 LP  0  0  0  0  0  0  0  0  0  0  0  0  # atno 17321 bound_to 7965
  140.7802  143.3953  151.1240 LP  0  0  0  0  0  0  0  0  0  0  0  0  # atno 17342 bound_to 10162
  139.7603  143.8645  152.3098 LP  0  0  0  0  0  0  0  0  0  0  0  0  # atno 17343 bound_to 10162
  156.6398  130.8700  151.3512 LP  0  0  0  0  0  0  0  0  0  0  0  0  # atno 17370 bound_to 10713
  157.7159  130.9497  150.1255 LP  0  0  0  0  0  0  0  0  0  0  0  0  # atno 17371 bound_to 10713
  140.7792  134.3744  157.5491 LP  0  0  0  0  0  0  0  0  0  0  0  0  # atno 17394 bound_to 11000
  139.8809  134.9071  156.2938 LP  0  0  0  0  0  0  0  0  0  0  0  0  # atno 17395 bound_to 11000

$$$$
