AV-unprocessed.smi:1641|AV-procd|sdf|6561|dock4
  -GOLD-   22720 7243D 1   1.00000     0.00000
 Structure written by MMmdl.
 42 43  0  0  0  0  0  0  0  0  2 V2000
  150.6960  142.3582  156.6289 C   0  0  0  0  0  0  0  0  0  0  0  0
  150.3986  141.2236  155.7093 C   0  0  0  0  0  0  0  0  0  0  0  0
  151.3451  140.3992  155.2440 N   0  0  0  0  0  0  0  0  0  0  0  0
  150.8270  139.4268  154.4003 N   0  0  0  0  0  0  0  0  0  0  0  0
  149.5003  139.5473  154.2541 C   0  0  0  0  0  0  0  0  0  0  0  0
  148.7160  138.6890  153.4390 N   0  0  0  0  0  0  0  0  0  0  0  0
  147.3975  138.7599  153.1850 C   0  0  0  0  0  0  0  0  0  0  0  0
  146.6336  139.6258  153.6129 O   0  0  0  0  0  0  0  0  0  0  0  0
  146.9969  137.7526  152.3958 N   0  0  0  0  0  0  0  0  0  0  0  0
  145.6254  137.5477  151.9449 C   0  0  0  0  0  0  0  0  0  0  0  0
  145.5786  136.9692  150.5171 C   0  0  0  0  0  0  0  0  0  0  0  0
  145.4586  135.4905  150.5103 N   0  3  1  0  0  0  0  0  0  0  0  0
  146.3954  134.8437  151.4575 C   0  0  0  0  0  0  0  0  0  0  0  0
  146.3114  133.3118  151.3361 C   0  0  1  0  0  0  0  0  0  0  0  0
  147.2022  132.6053  152.3637 C   0  0  0  0  0  0  0  0  0  0  0  0
  144.9679  132.8909  151.5578 O   0  0  0  0  0  0  0  0  0  0  0  0
  144.0034  133.4706  150.6793 C   0  0  2  0  0  0  0  0  0  0  0  0
  144.1090  132.9148  149.2479 C   0  0  0  0  0  0  0  0  0  0  0  0
  144.0755  135.0085  150.7486 C   0  0  0  0  0  0  0  0  0  0  0  0
  148.7691  140.8685  155.1491 S   0  0  0  0  0  0  0  0  0  0  0  0
  151.7632  142.4079  156.8476 H   0  0  0  0  0  0  0  0  0  0  0  0
  150.1529  142.2307  157.5654 H   0  0  0  0  0  0  0  0  0  0  0  0
  150.3897  143.2984  156.1701 H   0  0  0  0  0  0  0  0  0  0  0  0
  149.2161  137.9234  153.0120 H   0  0  0  0  0  0  0  0  0  0  0  0
  147.6877  137.0859  152.0822 H   0  0  0  0  0  0  0  0  0  0  0  0
  145.1114  136.9018  152.6573 H   0  0  0  0  0  0  0  0  0  0  0  0
  145.1123  138.5094  151.9722 H   0  0  0  0  0  0  0  0  0  0  0  0
  144.7158  137.4005  150.0070 H   0  0  0  0  0  0  0  0  0  0  0  0
  146.4561  137.2647  149.9398 H   0  0  0  0  0  0  0  0  0  0  0  0
  147.4151  135.1700  151.2488 H   0  0  0  0  0  0  0  0  0  0  0  0
  146.1599  135.1590  152.4756 H   0  0  0  0  0  0  0  0  0  0  0  0
  146.6348  133.0050  150.3413 H   0  0  0  0  0  0  0  0  0  0  0  0
  148.2490  132.8807  152.2324 H   0  0  0  0  0  0  0  0  0  0  0  0
  147.1287  131.5221  152.2635 H   0  0  0  0  0  0  0  0  0  0  0  0
  146.9131  132.8653  153.3825 H   0  0  0  0  0  0  0  0  0  0  0  0
  143.0284  133.1677  151.0623 H   0  0  0  0  0  0  0  0  0  0  0  0
  143.2807  133.2696  148.6342 H   0  0  0  0  0  0  0  0  0  0  0  0
  144.0722  131.8252  149.2503 H   0  0  0  0  0  0  0  0  0  0  0  0
  145.0306  133.2176  148.7516 H   0  0  0  0  0  0  0  0  0  0  0  0
  143.7474  135.3447  151.7337 H   0  0  0  0  0  0  0  0  0  0  0  0
  143.3821  135.4376  150.0262 H   0  0  0  0  0  0  0  0  0  0  0  0
  145.7280  135.1814  149.5873 H   0  0  0  0  0  0  0  0  0  0  0  0
  1  2  1  0  0  0  0
  1 21  1  0  0  0  0
  1 22  1  0  0  0  0
  1 23  1  0  0  0  0
  2 20  1  0  0  0  0
  2  3  2  0  0  0  0
  3  4  1  0  0  0  0
  4  5  2  0  0  0  0
  5  6  1  0  0  0  0
  5 20  1  0  0  0  0
  6  7  1  0  0  0  0
  6 24  1  0  0  0  0
  7  8  2  0  0  0  0
  7  9  1  0  0  0  0
  9 10  1  0  0  0  0
  9 25  1  0  0  0  0
 10 11  1  0  0  0  0
 10 26  1  0  0  0  0
 10 27  1  0  0  0  0
 11 12  1  0  0  0  0
 11 28  1  0  0  0  0
 11 29  1  0  0  0  0
 12 19  1  0  0  0  0
 12 13  1  0  0  0  0
 12 42  1  0  0  0  0
 13 14  1  0  0  0  0
 13 30  1  0  0  0  0
 13 31  1  0  0  0  0
 14 15  1  0  0  0  0
 14 16  1  0  0  0  0
 14 32  1  0  0  0  0
 15 33  1  0  0  0  0
 15 34  1  0  0  0  0
 15 35  1  0  0  0  0
 16 17  1  0  0  0  0
 17 18  1  0  0  0  0
 17 19  1  0  0  0  0
 17 36  1  0  0  0  0
 18 37  1  0  0  0  0
 18 38  1  0  0  0  0
 18 39  1  0  0  0  0
 19 40  1  0  0  0  0
 19 41  1  0  0  0  0
M  CHG  1  12   1
M  END
> <s_m_source_file>
AV-unprocessed.smi

> <i_m_source_file_index>
1641

> <i_lp_mmshare_version>
43012

> <i_f3d_flags>
0

> <s_epik_input>
W0NIM11jMW5uYyhzMSlbTkhdQyg9TylbTkhdW0NIMl1bQ0gyXU4yW0NIMl1bQ0BASF0oW0NIM10pT1tDQEBIXShbQ0gzXSlbQ0gyXTI=

> <s_epik_cmdline>
J2VwaWtfcHl0aG9uJywgJy1waCcsICc3LjAnLCAnLXRuJywgJzgnLCAnLW1hJywgJzIwMCcsICctbWV0YWxfYmluZGluZycsICctaW1hZScsICc8aW5maWxlLm1hZT4nLCAnLW9tYWUnLCAnPG91dGZpbGUubWFlPic=

> <r_lp_tautomer_probability>
1

> <r_epik_Ionization_Penalty>
0.700114

> <r_epik_Ionization_Penalty_Charging>
0.695697

> <r_epik_Ionization_Penalty_Neutral>
0.00441638

> <r_epik_State_Penalty>
0.717972

> <r_epik_Charging_Adjusted_Penalty>
1.41367

> <i_epik_Tot_Q>
1

> <i_epik_Tot_abs_Q>
1

> <r_epik_Metal_State_Penalty>
1.06958

> <b_epik_Metal_Only>
0

> <s_lp_Force_Field>
OPLS_2005

> <r_lp_Energy>
15.7554

> <b_lp_Chiralities_Consistent>
1

> <s_lp_Variant>
AV-unprocessed.smi:1641-6

> <Gold.Version>
5.8.1

> <Gold.Id.Protein>
6NUR|6NUR_protein|mol2

> <Gold.PLP.Fitness>
40.0932

> <Gold.PLP.PLP>
-32.6115

> <Gold.PLP.part.hbond>
-5.9275

> <Gold.PLP.part.metal>
0.0000

> <Gold.PLP.part.buried>
4.4420

> <Gold.PLP.part.nonpolar>
-32.2278

> <Gold.PLP.part.repulsive>
0.6444

> <Gold.PLP.ligand.clash>
0.0000

> <Gold.PLP.ligand.torsion>
0.5535

> <Gold.PLP.Chemscore.Hbond>
2.8550

> <Gold.PLP.Chemscore.CHOScore>
0.0000

> <Gold.PLP.Chemscore.Metal>
0.0000

> <Gold.Chemscore.Hbonds>
donor molecule, donor type, donor heavy atom, donor atom, acceptor molecule, acceptor atom, score
      L1  H     6    24       P1  7948  0.88
      L1  H     9    25       P1  7948  0.99
      L1  H    12    42       P1  7921  1.00

> <Gold.PLP.Chemscore.Internal.Correction>
0.0237

> <Gold.Rescore>
     Score         DG    S(hbond)    S(metal)    S(lipo)     H(rot)  DE(clash)    DE(int)     intcor
     15.75     -20.38       2.84        0.00      82.21       1.64       2.81       1.82       ----

> <Gold.Chemscore.Fitness>
15.7529

> <Gold.Chemscore.DG>
-20.3817

> <Gold.Chemscore.ZeroCoef>
-5.4800

> <Gold.Chemscore.Hbond>
2.8356

> <Gold.Chemscore.Metal>
0.0000

> <Gold.Chemscore.Lipo>
82.2101

> <Gold.Chemscore.Internal_Hbond>
0.0000

> <Gold.Chemscore.DEClash>
2.8129

> <Gold.Chemscore.DEInternal>
1.8159

> <Gold.Chemscore.Rot>
1.6358

> <Gold.Chemscore.Internal.Correction>
   9.000000E+99

> <Gold.Chemscore.Hbonds>
donor molecule, donor type, donor heavy atom, donor atom, acceptor molecule, acceptor atom, score
      L1  H     6    24       P1  7948  0.80
      L1  H     9    25       P1  7948  0.92
      L1  H    12    42       P1  7921  0.92

> <Gold.Chemscore.Hbond.Weighted>
-9.4709

> <Gold.Chemscore.Metal.Weighted>
-0.0000

> <Gold.Chemscore.Lipo.Weighted>
-9.6186

> <Gold.Chemscore.Internal_Hbond.Weighted>
0.0000

> <Gold.Chemscore.DEClash.Weighted>
2.8129

> <Gold.Chemscore.DEInternal.Weighted>
1.8159

> <Gold.Chemscore.Rot.Weighted>
4.1878

> <Gold.Chemscore.Internal.Correction.Weighted>
   9.000000E+99

> <Gold.Protein.RotatedTorsions>
[ 6907 6896 6895 6894 ] final   73.88 input  -60.11 | X-H torsion
[ 7974 7965 7964 7962 ] final -135.11 input  175.53 | X-H torsion
[ 8008 7997 7996 7995 ] final   78.00 input   59.86 | X-H torsion
[ 10167 10162 10161 10158 ] final   43.03 input  -65.29 | X-H torsion
[ 10718 10713 10712 10709 ] final  -59.82 input   66.30 | X-H torsion
[ 10763 10752 10751 10750 ] final   79.35 input  -60.55 | X-H torsion
[ 11005 11000 10999 10996 ] final  -90.41 input  -57.11 | X-H torsion

> <Gold.Protein.ActiveResidues>
 VAL166  LYS551  ARG553  GLY616  TRP617  ASP618  TYR619  PRO620  LYS621  CYS622 
 ASP623  PHE694  ASN695  SER759  ASP760  ASP761  ALA762  ILE779  LEU786  VAL792 
 PHE793  MET794  SER795  GLU796  ALA797  LYS798  CYS799  TRP800  GLU811  SER814 

> <Gold.Protein.RotatedAtoms>
  152.4946  134.4356  159.9526 H   0  0  0  0  0  0  0  0  0  0  0  0  # atno 6907 bound_to 6896
  151.4337  133.3657  159.2780 H   0  0  0  0  0  0  0  0  0  0  0  0  # atno 6908 bound_to 6896
  150.9137  134.8577  159.7502 H   0  0  0  0  0  0  0  0  0  0  0  0  # atno 6909 bound_to 6896
  144.9043  140.6812  143.5065 H   0  0  0  0  0  0  0  0  0  0  0  0  # atno 7974 bound_to 7965
  155.8496  140.3458  155.5685 H   0  0  0  0  0  0  0  0  0  0  0  0  # atno 8008 bound_to 7997
  155.8052  140.0891  157.1954 H   0  0  0  0  0  0  0  0  0  0  0  0  # atno 8009 bound_to 7997
  154.4007  140.1458  156.3309 H   0  0  0  0  0  0  0  0  0  0  0  0  # atno 8010 bound_to 7997
  140.3485  144.2381  150.6148 H   0  0  0  0  0  0  0  0  0  0  0  0  # atno 10167 bound_to 10162
  156.1034  130.4183  150.0769 H   0  0  0  0  0  0  0  0  0  0  0  0  # atno 10718 bound_to 10713
  153.0946  135.4843  154.8754 H   0  0  0  0  0  0  0  0  0  0  0  0  # atno 10763 bound_to 10752
  154.7309  135.3060  154.8895 H   0  0  0  0  0  0  0  0  0  0  0  0  # atno 10764 bound_to 10752
  153.9531  135.6821  153.4797 H   0  0  0  0  0  0  0  0  0  0  0  0  # atno 10765 bound_to 10752
  141.1566  133.7690  156.9734 H   0  0  0  0  0  0  0  0  0  0  0  0  # atno 11005 bound_to 11000
  145.3562  139.1693  143.4408 LP  0  0  0  0  0  0  0  0  0  0  0  0  # atno 17320 bound_to 7965
  146.3125  140.3620  142.8666 LP  0  0  0  0  0  0  0  0  0  0  0  0  # atno 17321 bound_to 7965
  140.5242  143.2258  151.8341 LP  0  0  0  0  0  0  0  0  0  0  0  0  # atno 17342 bound_to 10162
  139.4830  144.4800  151.9318 LP  0  0  0  0  0  0  0  0  0  0  0  0  # atno 17343 bound_to 10162
  156.8750  130.9537  151.3605 LP  0  0  0  0  0  0  0  0  0  0  0  0  # atno 17370 bound_to 10713
  157.6207  130.8653  149.9104 LP  0  0  0  0  0  0  0  0  0  0  0  0  # atno 17371 bound_to 10713
  140.1114  134.9474  157.2071 LP  0  0  0  0  0  0  0  0  0  0  0  0  # atno 17394 bound_to 11000
  140.3189  134.2939  155.7250 LP  0  0  0  0  0  0  0  0  0  0  0  0  # atno 17395 bound_to 11000

$$$$
