AV-unprocessed.smi:339|AV-procd|sdf|2378|dock2
  -GOLD-   2262022303D 1   1.00000     0.00000
 Structure written by MMmdl.
 45 46  0  0  0  0  0  0  0  0  1 V2000
  153.1328  144.5627  156.4303 C   0  0  0  0  0  0  0  0  0  0  0  0
  152.9991  143.5836  157.5822 C   0  0  0  0  0  0  0  0  0  0  0  0
  153.8558  143.7026  158.6959 C   0  0  0  0  0  0  0  0  0  0  0  0
  153.7563  142.7958  159.7672 C   0  0  0  0  0  0  0  0  0  0  0  0
  152.8020  141.7626  159.7279 C   0  0  0  0  0  0  0  0  0  0  0  0
  151.9392  141.6342  158.6199 C   0  0  0  0  0  0  0  0  0  0  0  0
  150.9221  140.5085  158.5899 C   0  0  0  0  0  0  0  0  0  0  0  0
  152.0277  142.5546  157.5491 C   0  0  0  0  0  0  0  0  0  0  0  0
  151.1930  142.4300  156.4685 O   0  0  0  0  0  0  0  0  0  0  0  0
  151.4384  141.2697  155.6873 C   0  0  0  0  0  0  0  0  0  0  0  0
  150.2553  141.0576  154.7289 C   0  0  2  0  0  0  0  0  0  0  0  0
  150.6033  139.9940  153.8637 O   0  0  0  0  0  0  0  0  0  0  0  0
  149.9849  142.3072  153.8612 C   0  0  0  0  0  0  0  0  0  0  0  0
  148.7476  142.9937  154.2530 N   0  0  0  0  0  0  0  0  0  0  0  0
  148.1875  142.5155  155.4210 N   0  0  0  0  0  0  0  0  0  0  0  0
  147.1068  143.0295  155.9092 C   0  0  0  0  0  0  0  0  0  0  0  0
  146.5894  142.4277  157.1880 C   0  0  0  0  0  0  0  0  0  0  0  0
  146.4572  144.1385  155.2177 C   0  0  0  0  0  0  0  0  0  0  0  0
  145.1889  144.7065  155.8404 C   0  0  0  0  0  0  0  0  0  0  0  0
  147.0109  144.5920  154.0655 C   0  0  0  0  0  0  0  0  0  0  0  0
  146.4430  145.6666  153.3171 C   0  0  0  0  0  0  0  0  0  0  0  0
  145.9879  146.5511  152.7246 N   0  0  0  0  0  0  0  0  0  0  0  0
  148.2348  144.0132  153.5062 C   0  0  0  0  0  0  0  0  0  0  0  0
  148.7646  144.4030  152.4646 O   0  0  0  0  0  0  0  0  0  0  0  0
  154.1281  145.0074  156.4088 H   0  0  0  0  0  0  0  0  0  0  0  0
  152.4027  145.3656  156.5304 H   0  0  0  0  0  0  0  0  0  0  0  0
  152.9700  144.0657  155.4736 H   0  0  0  0  0  0  0  0  0  0  0  0
  154.5959  144.4888  158.7309 H   0  0  0  0  0  0  0  0  0  0  0  0
  154.4160  142.8897  160.6172 H   0  0  0  0  0  0  0  0  0  0  0  0
  152.7363  141.0671  160.5519 H   0  0  0  0  0  0  0  0  0  0  0  0
  150.8587  140.0683  157.5945 H   0  0  0  0  0  0  0  0  0  0  0  0
  149.9366  140.8833  158.8649 H   0  0  0  0  0  0  0  0  0  0  0  0
  151.1916  139.7157  159.2879 H   0  0  0  0  0  0  0  0  0  0  0  0
  152.3517  141.4415  155.1162 H   0  0  0  0  0  0  0  0  0  0  0  0
  151.6126  140.3854  156.3031 H   0  0  0  0  0  0  0  0  0  0  0  0
  149.3678  140.7927  155.3050 H   0  0  0  0  0  0  0  0  0  0  0  0
  150.1586  140.1192  153.0396 H   0  0  0  0  0  0  0  0  0  0  0  0
  150.8134  143.0115  153.9552 H   0  0  0  0  0  0  0  0  0  0  0  0
  149.9664  142.0409  152.8023 H   0  0  0  0  0  0  0  0  0  0  0  0
  145.5524  142.1105  157.0761 H   0  0  0  0  0  0  0  0  0  0  0  0
  146.6366  143.1517  158.0017 H   0  0  0  0  0  0  0  0  0  0  0  0
  147.1688  141.5538  157.4900 H   0  0  0  0  0  0  0  0  0  0  0  0
  144.8380  145.5977  155.3208 H   0  0  0  0  0  0  0  0  0  0  0  0
  145.3598  144.9852  156.8807 H   0  0  0  0  0  0  0  0  0  0  0  0
  144.3874  143.9681  155.8093 H   0  0  0  0  0  0  0  0  0  0  0  0
  1  2  1  0  0  0  0
  1 25  1  0  0  0  0
  1 26  1  0  0  0  0
  1 27  1  0  0  0  0
  2  8  1  0  0  0  0
  2  3  2  0  0  0  0
  3  4  1  0  0  0  0
  3 28  1  0  0  0  0
  4  5  2  0  0  0  0
  4 29  1  0  0  0  0
  5  6  1  0  0  0  0
  5 30  1  0  0  0  0
  6  7  1  0  0  0  0
  6  8  2  0  0  0  0
  7 31  1  0  0  0  0
  7 32  1  0  0  0  0
  7 33  1  0  0  0  0
  8  9  1  0  0  0  0
  9 10  1  0  0  0  0
 10 11  1  0  0  0  0
 10 34  1  0  0  0  0
 10 35  1  0  0  0  0
 11 12  1  0  0  0  0
 11 13  1  0  0  0  0
 11 36  1  0  0  0  0
 12 37  1  0  0  0  0
 13 14  1  0  0  0  0
 13 38  1  0  0  0  0
 13 39  1  0  0  0  0
 14 23  1  0  0  0  0
 14 15  1  0  0  0  0
 15 16  2  0  0  0  0
 16 17  1  0  0  0  0
 16 18  1  0  0  0  0
 17 40  1  0  0  0  0
 17 41  1  0  0  0  0
 17 42  1  0  0  0  0
 18 19  1  0  0  0  0
 18 20  2  0  0  0  0
 19 43  1  0  0  0  0
 19 44  1  0  0  0  0
 19 45  1  0  0  0  0
 20 21  1  0  0  0  0
 20 23  1  0  0  0  0
 21 22  3  0  0  0  0
 23 24  2  0  0  0  0
M  END
> <s_m_source_file>
AV-unprocessed.smi

> <i_m_source_file_index>
339

> <i_lp_mmshare_version>
43012

> <i_f3d_flags>
0

> <s_epik_input>
W0NIM11jMVtjSF1bY0hdW2NIXWMoW0NIM10pYzFPW0NIMl1bQ0BIXShbT0hdKVtDSDJdbjJuYyhbQ0gzXSljKFtDSDNdKWMoQyNOKWMyPU8=

> <s_epik_cmdline>
J2VwaWtfcHl0aG9uJywgJy1waCcsICc3LjAnLCAnLXRuJywgJzgnLCAnLW1hJywgJzIwMCcsICctbWV0YWxfYmluZGluZycsICctaW1hZScsICc8aW5maWxlLm1hZT4nLCAnLW9tYWUnLCAnPG91dGZpbGUubWFlPic=

> <r_lp_tautomer_probability>
1

> <r_epik_Ionization_Penalty>
1.17331e-07

> <r_epik_Ionization_Penalty_Charging>
1.57223e-10

> <r_epik_Ionization_Penalty_Neutral>
1.17174e-07

> <r_epik_State_Penalty>
-0

> <r_epik_Charging_Adjusted_Penalty>
1.57223e-10

> <i_epik_Tot_Q>
0

> <i_epik_Tot_abs_Q>
0

> <r_epik_Metal_State_Penalty>
-0

> <b_epik_Metal_Only>
0

> <s_lp_Force_Field>
OPLS_2005

> <r_lp_Energy>
35.9352

> <b_lp_Chiralities_Consistent>
1

> <s_lp_Variant>
AV-unprocessed.smi:339-1

> <Gold.Version>
5.8.1

> <Gold.Id.Protein>
6NUR|6NUR_protein|mol2

> <Gold.PLP.Fitness>
44.4217

> <Gold.PLP.PLP>
-39.6220

> <Gold.PLP.part.hbond>
-3.0000

> <Gold.PLP.part.metal>
0.0000

> <Gold.PLP.part.buried>
-0.2192

> <Gold.PLP.part.nonpolar>
-37.7192

> <Gold.PLP.part.repulsive>
1.1737

> <Gold.PLP.ligand.clash>
0.0000

> <Gold.PLP.ligand.torsion>
0.8746

> <Gold.PLP.Chemscore.Hbond>
2.1511

> <Gold.PLP.Chemscore.CHOScore>
0.0000

> <Gold.PLP.Chemscore.Metal>
0.0000

> <Gold.Chemscore.Hbonds>
donor molecule, donor type, donor heavy atom, donor atom, acceptor molecule, acceptor atom, score
      L1  H    12    37       P1  7957  1.00
      P1  H  7989  7998       L1    12  0.05

> <Gold.PLP.Chemscore.Internal.Correction>
0.0956

> <Gold.Rescore>
     Score         DG    S(hbond)    S(metal)    S(lipo)     H(rot)  DE(clash)    DE(int)     intcor
      9.76     -15.95       1.19        0.00     105.57       2.29       3.48       2.71       ----

> <Gold.Chemscore.Fitness>
9.7597

> <Gold.Chemscore.DG>
-15.9507

> <Gold.Chemscore.ZeroCoef>
-5.4800

> <Gold.Chemscore.Hbond>
1.1924

> <Gold.Chemscore.Metal>
0.0000

> <Gold.Chemscore.Lipo>
105.5705

> <Gold.Chemscore.Internal_Hbond>
0.0000

> <Gold.Chemscore.DEClash>
3.4812

> <Gold.Chemscore.DEInternal>
2.7099

> <Gold.Chemscore.Rot>
2.2905

> <Gold.Chemscore.Internal.Correction>
   9.000000E+99

> <Gold.Chemscore.Hbonds>
donor molecule, donor type, donor heavy atom, donor atom, acceptor molecule, acceptor atom, score
      L1  H    12    37       P1  7957  0.99

> <Gold.Chemscore.Hbond.Weighted>
-3.9826

> <Gold.Chemscore.Metal.Weighted>
-0.0000

> <Gold.Chemscore.Lipo.Weighted>
-12.3518

> <Gold.Chemscore.Internal_Hbond.Weighted>
0.0000

> <Gold.Chemscore.DEClash.Weighted>
3.4812

> <Gold.Chemscore.DEInternal.Weighted>
2.7099

> <Gold.Chemscore.Rot.Weighted>
5.8636

> <Gold.Chemscore.Internal.Correction.Weighted>
   9.000000E+99

> <Gold.Protein.RotatedTorsions>
[ 6907 6896 6895 6894 ] final  -55.17 input  -60.11 | X-H torsion
[ 7974 7965 7964 7962 ] final -173.85 input  175.53 | X-H torsion
[ 8008 7997 7996 7995 ] final   30.03 input   59.86 | X-H torsion
[ 10167 10162 10161 10158 ] final  166.28 input  -65.29 | X-H torsion
[ 10718 10713 10712 10709 ] final   56.40 input   66.30 | X-H torsion
[ 10763 10752 10751 10750 ] final   87.41 input  -60.55 | X-H torsion
[ 11005 11000 10999 10996 ] final   88.05 input  -57.11 | X-H torsion

> <Gold.Protein.ActiveResidues>
 VAL166  LYS551  ARG553  GLY616  TRP617  ASP618  TYR619  PRO620  LYS621  CYS622 
 ASP623  PHE694  ASN695  SER759  ASP760  ASP761  ALA762  ILE779  LEU786  VAL792 
 PHE793  MET794  SER795  GLU796  ALA797  LYS798  CYS799  TRP800  GLU811  SER814 

> <Gold.Protein.RotatedAtoms>
  150.8275  134.7512  159.6824 H   0  0  0  0  0  0  0  0  0  0  0  0  # atno 6907 bound_to 6896
  152.4384  134.5637  159.9911 H   0  0  0  0  0  0  0  0  0  0  0  0  # atno 6908 bound_to 6896
  151.5806  133.3340  159.3043 H   0  0  0  0  0  0  0  0  0  0  0  0  # atno 6909 bound_to 6896
  144.7135  140.1560  143.6380 H   0  0  0  0  0  0  0  0  0  0  0  0  # atno 7974 bound_to 7965
  155.0839  140.3213  155.4593 H   0  0  0  0  0  0  0  0  0  0  0  0  # atno 8008 bound_to 7997
  156.2760  140.2090  156.5912 H   0  0  0  0  0  0  0  0  0  0  0  0  # atno 8009 bound_to 7997
  154.6957  140.0512  157.0395 H   0  0  0  0  0  0  0  0  0  0  0  0  # atno 8010 bound_to 7997
  139.4922  144.4044  151.9373 H   0  0  0  0  0  0  0  0  0  0  0  0  # atno 10167 bound_to 10162
  157.5428  130.8709  149.8847 H   0  0  0  0  0  0  0  0  0  0  0  0  # atno 10718 bound_to 10713
  153.1666  135.4544  154.9845 H   0  0  0  0  0  0  0  0  0  0  0  0  # atno 10763 bound_to 10752
  154.7936  135.3229  154.7722 H   0  0  0  0  0  0  0  0  0  0  0  0  # atno 10764 bound_to 10752
  153.8204  135.6947  153.4882 H   0  0  0  0  0  0  0  0  0  0  0  0  # atno 10765 bound_to 10752
  139.8905  134.8463  156.2946 H   0  0  0  0  0  0  0  0  0  0  0  0  # atno 11005 bound_to 11000
  145.9073  139.2466  143.1458 LP  0  0  0  0  0  0  0  0  0  0  0  0  # atno 17320 bound_to 7965
  145.9751  140.8729  143.0143 LP  0  0  0  0  0  0  0  0  0  0  0  0  # atno 17321 bound_to 7965
  140.3483  144.3119  150.5954 LP  0  0  0  0  0  0  0  0  0  0  0  0  # atno 17342 bound_to 10162
  140.5507  143.2207  151.7932 LP  0  0  0  0  0  0  0  0  0  0  0  0  # atno 17343 bound_to 10162
  156.0510  130.3717  150.1200 LP  0  0  0  0  0  0  0  0  0  0  0  0  # atno 17370 bound_to 10713
  156.9379  130.9735  151.3521 LP  0  0  0  0  0  0  0  0  0  0  0  0  # atno 17371 bound_to 10713
  140.9953  133.7184  156.0877 LP  0  0  0  0  0  0  0  0  0  0  0  0  # atno 17394 bound_to 11000
  140.7570  134.3981  157.5532 LP  0  0  0  0  0  0  0  0  0  0  0  0  # atno 17395 bound_to 11000

$$$$
