AV-unprocessed.smi:1886|AV-procd|sdf|7654|dock9
  -GOLD-   22720 9383D 1   1.00000     0.00000
 Structure written by MMmdl.
 39 40  0  0  0  0  0  0  0  0  1 V2000
  146.1152  135.9220  155.2989 O   0  0  0  0  0  0  0  0  0  0  0  0
  146.8435  136.0178  154.3113 C   0  0  0  0  0  0  0  0  0  0  0  0
  147.9408  136.7848  154.2559 N   0  0  0  0  0  0  0  0  0  0  0  0
  148.4561  137.5903  155.3578 C   0  0  0  0  0  0  0  0  0  0  0  0
  148.6352  139.0525  154.9740 C   0  0  0  0  0  0  0  0  0  0  0  0
  147.5846  139.7385  154.3283 C   0  0  0  0  0  0  0  0  0  0  0  0
  147.7571  141.0918  153.9849 C   0  0  0  0  0  0  0  0  0  0  0  0
  148.9801  141.7106  154.3032 C   0  0  0  0  0  0  0  0  0  0  0  0
  149.9938  141.0692  154.9204 N   0  0  0  0  0  0  0  0  0  0  0  0
  149.8298  139.7658  155.2535 C   0  0  0  0  0  0  0  0  0  0  0  0
  150.9012  139.1247  155.8950 N   0  0  0  0  0  0  0  0  0  0  0  0
  152.0567  138.9167  155.0324 C   0  0  0  0  0  0  0  0  0  0  0  0
  153.1038  138.0603  155.7634 C   0  0  0  0  0  0  0  0  0  0  0  0
  153.4515  138.6801  156.9984 O   0  0  0  0  0  0  0  0  0  0  0  0
  152.3273  138.8164  157.8639 C   0  0  0  0  0  0  0  0  0  0  0  0
  151.2595  139.6935  157.1877 C   0  0  0  0  0  0  0  0  0  0  0  0
  146.6329  135.3690  153.1583 N   0  0  0  0  0  0  0  0  0  0  0  0
  145.5089  134.4775  152.8890 C   0  0  0  0  0  0  0  0  0  0  0  0
  145.3262  134.1987  151.3871 C   0  0  0  0  0  0  0  0  0  0  0  0
  145.1303  135.3533  150.7518 F   0  0  0  0  0  0  0  0  0  0  0  0
  146.4174  133.6172  150.8877 F   0  0  0  0  0  0  0  0  0  0  0  0
  144.2708  133.4146  151.1703 F   0  0  0  0  0  0  0  0  0  0  0  0
  148.4699  136.7999  153.3963 H   0  0  0  0  0  0  0  0  0  0  0  0
  147.7660  137.5059  156.1979 H   0  0  0  0  0  0  0  0  0  0  0  0
  149.4169  137.2107  155.7098 H   0  0  0  0  0  0  0  0  0  0  0  0
  146.6565  139.2366  154.0976 H   0  0  0  0  0  0  0  0  0  0  0  0
  146.9707  141.6427  153.4910 H   0  0  0  0  0  0  0  0  0  0  0  0
  149.1488  142.7484  154.0564 H   0  0  0  0  0  0  0  0  0  0  0  0
  151.7478  138.4242  154.1096 H   0  0  0  0  0  0  0  0  0  0  0  0
  152.4894  139.8795  154.7568 H   0  0  0  0  0  0  0  0  0  0  0  0
  152.7194  137.0566  155.9467 H   0  0  0  0  0  0  0  0  0  0  0  0
  153.9991  137.9534  155.1511 H   0  0  0  0  0  0  0  0  0  0  0  0
  151.9235  137.8328  158.1104 H   0  0  0  0  0  0  0  0  0  0  0  0
  152.6515  139.2725  158.7993 H   0  0  0  0  0  0  0  0  0  0  0  0
  151.6431  140.7060  157.0536 H   0  0  0  0  0  0  0  0  0  0  0  0
  150.3733  139.7629  157.8199 H   0  0  0  0  0  0  0  0  0  0  0  0
  147.2920  135.5075  152.4064 H   0  0  0  0  0  0  0  0  0  0  0  0
  145.6242  133.5416  153.4388 H   0  0  0  0  0  0  0  0  0  0  0  0
  144.6108  134.9544  153.2823 H   0  0  0  0  0  0  0  0  0  0  0  0
  1  2  2  0  0  0  0
  2  3  1  0  0  0  0
  2 17  1  0  0  0  0
  3  4  1  0  0  0  0
  3 23  1  0  0  0  0
  4  5  1  0  0  0  0
  4 24  1  0  0  0  0
  4 25  1  0  0  0  0
  5 10  1  0  0  0  0
  5  6  2  0  0  0  0
  6  7  1  0  0  0  0
  6 26  1  0  0  0  0
  7  8  2  0  0  0  0
  7 27  1  0  0  0  0
  8  9  1  0  0  0  0
  8 28  1  0  0  0  0
  9 10  2  0  0  0  0
 10 11  1  0  0  0  0
 11 16  1  0  0  0  0
 11 12  1  0  0  0  0
 12 13  1  0  0  0  0
 12 29  1  0  0  0  0
 12 30  1  0  0  0  0
 13 14  1  0  0  0  0
 13 31  1  0  0  0  0
 13 32  1  0  0  0  0
 14 15  1  0  0  0  0
 15 16  1  0  0  0  0
 15 33  1  0  0  0  0
 15 34  1  0  0  0  0
 16 35  1  0  0  0  0
 16 36  1  0  0  0  0
 17 18  1  0  0  0  0
 17 37  1  0  0  0  0
 18 19  1  0  0  0  0
 18 38  1  0  0  0  0
 18 39  1  0  0  0  0
 19 20  1  0  0  0  0
 19 21  1  0  0  0  0
 19 22  1  0  0  0  0
M  END
> <s_m_source_file>
AV-unprocessed.smi

> <i_m_source_file_index>
1886

> <i_lp_mmshare_version>
43012

> <i_f3d_flags>
0

> <s_epik_input>
RkMoRikoRilbQ0gyXVtOSF1DKD1PKVtOSF1bQ0gyXWMxW2NIXVtjSF1bY0hdbmMxTjJbQ0gyXVtDSDJdT1tDSDJdW0NIMl0y

> <s_epik_cmdline>
J2VwaWtfcHl0aG9uJywgJy1waCcsICc3LjAnLCAnLXRuJywgJzgnLCAnLW1hJywgJzIwMCcsICctbWV0YWxfYmluZGluZycsICctaW1hZScsICc8aW5maWxlLm1hZT4nLCAnLW9tYWUnLCAnPG91dGZpbGUubWFlPic=

> <r_lp_tautomer_probability>
1

> <r_epik_Ionization_Penalty>
0.00288023

> <r_epik_Ionization_Penalty_Charging>
0

> <r_epik_Ionization_Penalty_Neutral>
0.00288023

> <r_epik_State_Penalty>
0.00199456

> <r_epik_Charging_Adjusted_Penalty>
0.00199456

> <i_epik_Tot_Q>
0

> <i_epik_Tot_abs_Q>
0

> <r_epik_Metal_State_Penalty>
-0

> <b_epik_Metal_Only>
0

> <s_lp_Force_Field>
OPLS_2005

> <r_lp_Energy>
16.0982

> <b_lp_Chiralities_Consistent>
1

> <s_lp_Variant>
AV-unprocessed.smi:1886-1

> <Gold.Version>
5.8.1

> <Gold.Id.Protein>
6NUR|6NUR_protein|mol2

> <Gold.PLP.Fitness>
44.0465

> <Gold.PLP.PLP>
-31.5589

> <Gold.PLP.part.hbond>
-4.0000

> <Gold.PLP.part.metal>
0.0000

> <Gold.PLP.part.buried>
-2.6215

> <Gold.PLP.part.nonpolar>
-25.7578

> <Gold.PLP.part.repulsive>
0.1415

> <Gold.PLP.ligand.clash>
0.0000

> <Gold.PLP.ligand.torsion>
0.3244

> <Gold.PLP.Chemscore.Hbond>
3.4048

> <Gold.PLP.Chemscore.CHOScore>
0.9244

> <Gold.PLP.Chemscore.Metal>
0.0000

> <Gold.Chemscore.Hbonds>
donor molecule, donor type, donor heavy atom, donor atom, acceptor molecule, acceptor atom, score
      L1  H     3    23       P1  7948  1.00
      L1  H    17    37       P1  7948  0.98
      P1  H  7989  7998       L1     9  0.43
      P1  H  7997  8008       L1    14  0.96
      L1  C     8    28       P1  8028  0.93

> <Gold.PLP.Chemscore.Internal.Correction>
0.1487

> <Gold.Rescore>
     Score         DG    S(hbond)    S(metal)    S(lipo)     H(rot)  DE(clash)    DE(int)     intcor
     15.72     -16.16       2.87        0.00      55.08       2.09       0.13       0.32       ----

> <Gold.Chemscore.Fitness>
15.7160

> <Gold.Chemscore.DG>
-16.1640

> <Gold.Chemscore.ZeroCoef>
-5.4800

> <Gold.Chemscore.Hbond>
2.8714

> <Gold.Chemscore.Metal>
0.0000

> <Gold.Chemscore.Lipo>
55.0760

> <Gold.Chemscore.Internal_Hbond>
0.0000

> <Gold.Chemscore.DEClash>
0.1277

> <Gold.Chemscore.DEInternal>
0.3203

> <Gold.Chemscore.Rot>
2.0899

> <Gold.Chemscore.Internal.Correction>
   9.000000E+99

> <Gold.Chemscore.Hbonds>
donor molecule, donor type, donor heavy atom, donor atom, acceptor molecule, acceptor atom, score
      L1  H     3    23       P1  7948  0.98
      L1  H    17    37       P1  7948  0.93
      P1  H  7989  7998       L1     9  0.07
      P1  H  7997  8008       L1    14  0.81

> <Gold.Chemscore.Hbond.Weighted>
-9.5903

> <Gold.Chemscore.Metal.Weighted>
-0.0000

> <Gold.Chemscore.Lipo.Weighted>
-6.4439

> <Gold.Chemscore.Internal_Hbond.Weighted>
0.0000

> <Gold.Chemscore.DEClash.Weighted>
0.1277

> <Gold.Chemscore.DEInternal.Weighted>
0.3203

> <Gold.Chemscore.Rot.Weighted>
5.3502

> <Gold.Chemscore.Internal.Correction.Weighted>
   9.000000E+99

> <Gold.Protein.RotatedTorsions>
[ 6907 6896 6895 6894 ] final -108.30 input  -60.11 | X-H torsion
[ 7974 7965 7964 7962 ] final  160.10 input  175.53 | X-H torsion
[ 8008 7997 7996 7995 ] final  -78.79 input   59.86 | X-H torsion
[ 10167 10162 10161 10158 ] final -158.39 input  -65.29 | X-H torsion
[ 10718 10713 10712 10709 ] final  -34.15 input   66.30 | X-H torsion
[ 10763 10752 10751 10750 ] final  114.50 input  -60.55 | X-H torsion
[ 11005 11000 10999 10996 ] final   56.49 input  -57.11 | X-H torsion

> <Gold.Protein.ActiveResidues>
 VAL166  LYS551  ARG553  GLY616  TRP617  ASP618  TYR619  PRO620  LYS621  CYS622 
 ASP623  PHE694  ASN695  SER759  ASP760  ASP761  ALA762  ILE779  LEU786  VAL792 
 PHE793  MET794  SER795  GLU796  ALA797  LYS798  CYS799  TRP800  GLU811  SER814 

> <Gold.Protein.RotatedAtoms>
  150.7493  133.9698  159.3541 H   0  0  0  0  0  0  0  0  0  0  0  0  # atno 6907 bound_to 6896
  151.7631  135.0803  160.0358 H   0  0  0  0  0  0  0  0  0  0  0  0  # atno 6908 bound_to 6896
  152.3390  133.6007  159.5899 H   0  0  0  0  0  0  0  0  0  0  0  0  # atno 6909 bound_to 6896
  144.7755  139.7709  143.6280 H   0  0  0  0  0  0  0  0  0  0  0  0  # atno 7974 bound_to 7965
  154.5723  140.0688  156.8982 H   0  0  0  0  0  0  0  0  0  0  0  0  # atno 8008 bound_to 7997
  155.2612  140.3358  155.4255 H   0  0  0  0  0  0  0  0  0  0  0  0  # atno 8009 bound_to 7997
  156.2127  140.1766  156.7643 H   0  0  0  0  0  0  0  0  0  0  0  0  # atno 8010 bound_to 7997
  139.6696  143.9769  152.2275 H   0  0  0  0  0  0  0  0  0  0  0  0  # atno 10167 bound_to 10162
  156.3541  130.4313  149.7679 H   0  0  0  0  0  0  0  0  0  0  0  0  # atno 10718 bound_to 10713
  153.5083  135.3623  155.2574 H   0  0  0  0  0  0  0  0  0  0  0  0  # atno 10763 bound_to 10752
  154.8743  135.4016  154.3398 H   0  0  0  0  0  0  0  0  0  0  0  0  # atno 10764 bound_to 10752
  153.4047  135.7076  153.6468 H   0  0  0  0  0  0  0  0  0  0  0  0  # atno 10765 bound_to 10752
  140.0525  134.5716  155.9246 H   0  0  0  0  0  0  0  0  0  0  0  0  # atno 11005 bound_to 11000
  146.1931  139.5182  142.9792 LP  0  0  0  0  0  0  0  0  0  0  0  0  # atno 17320 bound_to 7965
  145.6199  141.0324  143.1920 LP  0  0  0  0  0  0  0  0  0  0  0  0  # atno 17321 bound_to 7965
  139.9529  144.6608  150.8154 LP  0  0  0  0  0  0  0  0  0  0  0  0  # atno 17342 bound_to 10162
  140.7613  143.3170  151.2709 LP  0  0  0  0  0  0  0  0  0  0  0  0  # atno 17343 bound_to 10162
  156.4869  130.8067  151.3078 LP  0  0  0  0  0  0  0  0  0  0  0  0  # atno 17370 bound_to 10713
  157.7465  130.9988  150.2865 LP  0  0  0  0  0  0  0  0  0  0  0  0  # atno 17371 bound_to 10713
  141.1937  133.6580  156.5560 LP  0  0  0  0  0  0  0  0  0  0  0  0  # atno 17394 bound_to 11000
  140.3895  134.7453  157.4712 LP  0  0  0  0  0  0  0  0  0  0  0  0  # atno 17395 bound_to 11000

$$$$
