AV-unprocessed.smi:1586|AV-procd|sdf|6384|dock1
  -GOLD-   22720 7 13D 1   1.00000     0.00000
 Structure written by MMmdl.
 46 47  0  0  0  0  0  0  0  0  3 V2000
  143.4784  132.8171  149.6876 C   0  0  0  0  0  0  0  0  0  0  0  0
  143.9056  133.7725  150.8110 C   0  0  0  0  0  0  0  0  0  0  0  0
  145.1758  134.4373  150.5112 N   0  0  0  0  0  0  0  0  0  0  0  0
  145.5472  135.5103  151.4416 C   0  0  0  0  0  0  0  0  0  0  0  0
  145.9393  134.9713  152.8341 C   0  0  0  0  0  0  0  0  0  0  0  0
  147.0520  134.0006  152.7074 N   0  3  0  0  0  0  0  0  0  0  0  0
  147.6491  133.5760  154.0072 C   0  0  1  0  0  0  0  0  0  0  0  0
  148.8125  132.5779  153.8499 C   0  0  0  0  0  0  0  0  0  0  0  0
  148.0469  134.7909  154.8749 C   0  0  0  0  0  0  0  0  0  0  0  0
  148.2530  134.4177  156.2733 N   0  0  0  0  0  0  0  0  0  0  0  0
  149.0872  135.0085  157.1415 C   0  0  0  0  0  0  0  0  0  0  0  0
  149.8182  135.9271  156.7658 O   0  0  0  0  0  0  0  0  0  0  0  0
  149.0014  134.5156  158.3968 N   0  5  0  0  0  0  0  0  0  0  0  0
  148.5973  135.3049  159.4040 C   0  0  0  0  0  0  0  0  0  0  0  0
  148.0396  134.8653  160.6359 C   0  0  0  0  0  0  0  0  0  0  0  0
  147.8111  136.0320  161.3084 C   0  0  0  0  0  0  0  0  0  0  0  0
  147.2382  136.3333  162.6509 C   0  0  0  0  0  0  0  0  0  0  0  0
  148.2020  137.0951  160.5554 O   0  0  0  0  0  0  0  0  0  0  0  0
  148.7103  136.6205  159.3402 N   0  0  0  0  0  0  0  0  0  0  0  0
  146.6808  132.9044  151.7775 C   0  0  0  0  0  0  0  0  0  0  0  0
  146.2907  133.4912  150.4049 C   0  0  0  0  0  0  0  0  0  0  0  0
  142.6072  132.2371  149.9929 H   0  0  0  0  0  0  0  0  0  0  0  0
  144.2735  132.1119  149.4431 H   0  0  0  0  0  0  0  0  0  0  0  0
  143.2055  133.3505  148.7773 H   0  0  0  0  0  0  0  0  0  0  0  0
  143.1127  134.4909  151.0162 H   0  0  0  0  0  0  0  0  0  0  0  0
  144.0319  133.1841  151.7207 H   0  0  0  0  0  0  0  0  0  0  0  0
  146.3936  136.0518  151.0163 H   0  0  0  0  0  0  0  0  0  0  0  0
  144.7422  136.2390  151.5291 H   0  0  0  0  0  0  0  0  0  0  0  0
  146.2568  135.8089  153.4561 H   0  0  0  0  0  0  0  0  0  0  0  0
  145.0879  134.5133  153.3377 H   0  0  0  0  0  0  0  0  0  0  0  0
  146.8634  133.0610  154.5624 H   0  0  0  0  0  0  0  0  0  0  0  0
  149.1299  132.2017  154.8227 H   0  0  0  0  0  0  0  0  0  0  0  0
  149.6844  133.0384  153.3846 H   0  0  0  0  0  0  0  0  0  0  0  0
  148.5234  131.7161  153.2482 H   0  0  0  0  0  0  0  0  0  0  0  0
  148.9827  135.2119  154.5064 H   0  0  0  0  0  0  0  0  0  0  0  0
  147.3088  135.5900  154.7918 H   0  0  0  0  0  0  0  0  0  0  0  0
  147.6879  133.6591  156.6273 H   0  0  0  0  0  0  0  0  0  0  0  0
  147.8371  133.8587  160.9697 H   0  0  0  0  0  0  0  0  0  0  0  0
  147.3686  135.4882  163.3270 H   0  0  0  0  0  0  0  0  0  0  0  0
  146.1717  136.5455  162.5756 H   0  0  0  0  0  0  0  0  0  0  0  0
  147.7257  137.2002  163.0973 H   0  0  0  0  0  0  0  0  0  0  0  0
  147.5237  132.2259  151.6497 H   0  0  0  0  0  0  0  0  0  0  0  0
  145.8627  132.3108  152.1856 H   0  0  0  0  0  0  0  0  0  0  0  0
  146.0323  132.6922  149.7091 H   0  0  0  0  0  0  0  0  0  0  0  0
  147.1485  134.0082  149.9721 H   0  0  0  0  0  0  0  0  0  0  0  0
  147.7908  134.5109  152.2429 H   0  0  0  0  0  0  0  0  0  0  0  0
  1  2  1  0  0  0  0
  1 22  1  0  0  0  0
  1 23  1  0  0  0  0
  1 24  1  0  0  0  0
  2  3  1  0  0  0  0
  2 25  1  0  0  0  0
  2 26  1  0  0  0  0
  3 21  1  0  0  0  0
  3  4  1  0  0  0  0
  4  5  1  0  0  0  0
  4 27  1  0  0  0  0
  4 28  1  0  0  0  0
  5  6  1  0  0  0  0
  5 29  1  0  0  0  0
  5 30  1  0  0  0  0
  6  7  1  0  0  0  0
  6 20  1  0  0  0  0
  6 46  1  0  0  0  0
  7  8  1  0  0  0  0
  7  9  1  0  0  0  0
  7 31  1  0  0  0  0
  8 32  1  0  0  0  0
  8 33  1  0  0  0  0
  8 34  1  0  0  0  0
  9 10  1  0  0  0  0
  9 35  1  0  0  0  0
  9 36  1  0  0  0  0
 10 11  1  0  0  0  0
 10 37  1  0  0  0  0
 11 12  2  0  0  0  0
 11 13  1  0  0  0  0
 13 14  1  0  0  0  0
 14 19  2  0  0  0  0
 14 15  1  0  0  0  0
 15 16  2  0  0  0  0
 15 38  1  0  0  0  0
 16 17  1  0  0  0  0
 16 18  1  0  0  0  0
 17 39  1  0  0  0  0
 17 40  1  0  0  0  0
 17 41  1  0  0  0  0
 18 19  1  0  0  0  0
 20 21  1  0  0  0  0
 20 42  1  0  0  0  0
 20 43  1  0  0  0  0
 21 44  1  0  0  0  0
 21 45  1  0  0  0  0
M  CHG  1   6   1
M  CHG  1  13  -1
M  END
> <s_m_source_file>
AV-unprocessed.smi

> <i_m_source_file_index>
1586

> <i_lp_mmshare_version>
43012

> <i_f3d_flags>
0

> <s_epik_input>
W0NIM11bQ0gyXU4xW0NIMl1bQ0gyXU4oW0NIMl1bQ0gyXTEpW0NASF0oW0NIM10pW0NIMl1bTkhdQyg9TylbTkhdYzJbY0hdYyhbQ0gzXSlvbjI=

> <s_epik_cmdline>
J2VwaWtfcHl0aG9uJywgJy1waCcsICc3LjAnLCAnLXRuJywgJzgnLCAnLW1hJywgJzIwMCcsICctbWV0YWxfYmluZGluZycsICctaW1hZScsICc8aW5maWxlLm1hZT4nLCAnLW9tYWUnLCAnPG91dGZpbGUubWFlPic=

> <r_epik_Ionization_Penalty>
6.35599

> <r_epik_Ionization_Penalty_Charging>
6.35441

> <r_epik_Ionization_Penalty_Neutral>
0.00158318

> <r_epik_State_Penalty>
7.1902

> <r_epik_Charging_Adjusted_Penalty>
13.5446

> <i_epik_Tot_Q>
0

> <i_epik_Tot_abs_Q>
2

> <r_epik_Metal_State_Penalty>
3.12491

> <b_epik_Metal_Only>
1

> <s_lp_Force_Field>
OPLS_2005

> <r_lp_Energy>
11.5798

> <b_lp_Chiralities_Consistent>
1

> <s_lp_Variant>
AV-unprocessed.smi:1586-12

> <Gold.Version>
5.8.1

> <Gold.Id.Protein>
6NUR|6NUR_protein|mol2

> <Gold.PLP.Fitness>
49.0640

> <Gold.PLP.PLP>
-33.6350

> <Gold.PLP.part.hbond>
-4.0000

> <Gold.PLP.part.metal>
0.0000

> <Gold.PLP.part.buried>
-4.6870

> <Gold.PLP.part.nonpolar>
-25.2101

> <Gold.PLP.part.repulsive>
0.1894

> <Gold.PLP.ligand.clash>
0.0000

> <Gold.PLP.ligand.torsion>
1.0429

> <Gold.PLP.Chemscore.Hbond>
5.7120

> <Gold.PLP.Chemscore.CHOScore>
0.0000

> <Gold.PLP.Chemscore.Metal>
0.0000

> <Gold.Chemscore.Hbonds>
donor molecule, donor type, donor heavy atom, donor atom, acceptor molecule, acceptor atom, score
      L1  H     6    46       P1  7948  1.85
      P1  H  6896  6908       L1    13  1.10
      P1  H  6931  6943       L1    18  0.82
      P1  H  6934  6947       L1    18  0.39

> <Gold.PLP.Chemscore.Internal.Correction>
0.3788

> <Gold.Rescore>
     Score         DG    S(hbond)    S(metal)    S(lipo)     H(rot)  DE(clash)    DE(int)     intcor
     17.17     -18.52       2.74        0.00      70.99       1.73       0.02       1.32       ----

> <Gold.Chemscore.Fitness>
17.1745

> <Gold.Chemscore.DG>
-18.5159

> <Gold.Chemscore.ZeroCoef>
-5.4800

> <Gold.Chemscore.Hbond>
2.7383

> <Gold.Chemscore.Metal>
0.0000

> <Gold.Chemscore.Lipo>
70.9914

> <Gold.Chemscore.Internal_Hbond>
0.0000

> <Gold.Chemscore.DEClash>
0.0174

> <Gold.Chemscore.DEInternal>
1.3240

> <Gold.Chemscore.Rot>
1.7250

> <Gold.Chemscore.Internal.Correction>
   9.000000E+99

> <Gold.Chemscore.Hbonds>
donor molecule, donor type, donor heavy atom, donor atom, acceptor molecule, acceptor atom, score
      L1  H     6    46       P1  7948  0.44
      P1  H  6896  6908       L1    13  0.03
      P1  H  6931  6943       L1    18  0.28
      P1  H  6934  6947       L1    18  0.37

> <Gold.Chemscore.Hbond.Weighted>
-9.1460

> <Gold.Chemscore.Metal.Weighted>
-0.0000

> <Gold.Chemscore.Lipo.Weighted>
-8.3060

> <Gold.Chemscore.Internal_Hbond.Weighted>
0.0000

> <Gold.Chemscore.DEClash.Weighted>
0.0174

> <Gold.Chemscore.DEInternal.Weighted>
1.3240

> <Gold.Chemscore.Rot.Weighted>
4.4161

> <Gold.Chemscore.Internal.Correction.Weighted>
   9.000000E+99

> <Gold.Protein.RotatedTorsions>
[ 6907 6896 6895 6894 ] final  137.53 input  -60.11 | X-H torsion
[ 7974 7965 7964 7962 ] final -149.44 input  175.53 | X-H torsion
[ 8008 7997 7996 7995 ] final -115.90 input   59.86 | X-H torsion
[ 10167 10162 10161 10158 ] final  147.74 input  -65.29 | X-H torsion
[ 10718 10713 10712 10709 ] final   26.54 input   66.30 | X-H torsion
[ 10763 10752 10751 10750 ] final  152.84 input  -60.55 | X-H torsion
[ 11005 11000 10999 10996 ] final -171.86 input  -57.11 | X-H torsion

> <Gold.Protein.ActiveResidues>
 VAL166  LYS551  ARG553  GLY616  TRP617  ASP618  TYR619  PRO620  LYS621  CYS622 
 ASP623  PHE694  ASN695  SER759  ASP760  ASP761  ALA762  ILE779  LEU786  VAL792 
 PHE793  MET794  SER795  GLU796  ALA797  LYS798  CYS799  TRP800  GLU811  SER814 

> <Gold.Protein.RotatedAtoms>
  152.2770  133.5435  159.5474 H   0  0  0  0  0  0  0  0  0  0  0  0  # atno 6907 bound_to 6896
  150.7181  134.0617  159.3842 H   0  0  0  0  0  0  0  0  0  0  0  0  # atno 6908 bound_to 6896
  151.8530  135.0551  160.0512 H   0  0  0  0  0  0  0  0  0  0  0  0  # atno 6909 bound_to 6896
  144.7967  140.5064  143.5735 H   0  0  0  0  0  0  0  0  0  0  0  0  # atno 7974 bound_to 7965
  155.0593  140.0393  157.2571 H   0  0  0  0  0  0  0  0  0  0  0  0  # atno 8008 bound_to 7997
  154.7072  140.2685  155.6639 H   0  0  0  0  0  0  0  0  0  0  0  0  # atno 8009 bound_to 7997
  156.2779  140.2729  156.1702 H   0  0  0  0  0  0  0  0  0  0  0  0  # atno 8010 bound_to 7997
  139.4885  144.5732  151.7014 H   0  0  0  0  0  0  0  0  0  0  0  0  # atno 10167 bound_to 10162
  157.2082  130.6921  149.6217 H   0  0  0  0  0  0  0  0  0  0  0  0  # atno 10718 bound_to 10713
  154.1265  135.2829  155.3196 H   0  0  0  0  0  0  0  0  0  0  0  0  # atno 10763 bound_to 10752
  154.6386  135.5410  153.7766 H   0  0  0  0  0  0  0  0  0  0  0  0  # atno 10764 bound_to 10752
  153.0295  135.6480  154.1417 H   0  0  0  0  0  0  0  0  0  0  0  0  # atno 10765 bound_to 10752
  140.5034  134.5871  157.4995 H   0  0  0  0  0  0  0  0  0  0  0  0  # atno 11005 bound_to 11000
  145.5655  139.1481  143.3318 LP  0  0  0  0  0  0  0  0  0  0  0  0  # atno 17320 bound_to 7965
  146.2238  140.5789  142.9005 LP  0  0  0  0  0  0  0  0  0  0  0  0  # atno 17321 bound_to 7965
  140.5324  144.0710  150.6058 LP  0  0  0  0  0  0  0  0  0  0  0  0  # atno 17342 bound_to 10162
  140.3704  143.2858  152.0284 LP  0  0  0  0  0  0  0  0  0  0  0  0  # atno 17343 bound_to 10162
  155.9693  130.4560  150.5908 LP  0  0  0  0  0  0  0  0  0  0  0  0  # atno 17370 bound_to 10713
  157.3699  131.0764  151.1566 LP  0  0  0  0  0  0  0  0  0  0  0  0  # atno 17371 bound_to 10713
  139.9700  134.7309  156.0061 LP  0  0  0  0  0  0  0  0  0  0  0  0  # atno 17394 bound_to 11000
  141.1423  133.6562  156.3766 LP  0  0  0  0  0  0  0  0  0  0  0  0  # atno 17395 bound_to 11000

$$$$
