AV-unprocessed.smi:773|AV-procd|sdf|3689|dock8
  -GOLD-   22720 1103D 1   1.00000     0.00000
 Structure written by MMmdl.
 39 40  0  0  0  0  0  0  0  0  1 V2000
  153.2745  138.5552  154.4371 C   0  0  0  0  0  0  0  0  0  0  0  0
  151.8406  138.1123  154.4823 C   0  0  0  0  0  0  0  0  0  0  0  0
  151.5628  136.8216  154.5542 N   0  0  0  0  0  0  0  0  0  0  0  0
  150.1681  136.7302  154.5713 O   0  0  0  0  0  0  0  0  0  0  0  0
  149.6545  137.9848  154.5132 C   0  0  0  0  0  0  0  0  0  0  0  0
  148.1673  138.0924  154.5009 C   0  0  0  0  0  0  0  0  0  0  0  0
  150.6609  138.9108  154.4599 C   0  0  0  0  0  0  0  0  0  0  0  0
  150.5608  140.4146  154.3804 C   0  0  0  0  0  0  0  0  0  0  0  0
  149.3930  140.9957  155.2074 C   0  0  2  0  0  0  0  0  0  0  0  0
  148.1887  141.3395  154.3202 C   0  0  0  0  0  0  0  0  0  0  0  0
  149.8046  142.1902  155.9457 N   0  0  0  0  0  0  0  0  0  0  0  0
  150.8152  142.2591  156.8255 C   0  0  0  0  0  0  0  0  0  0  0  0
  151.5267  141.3051  157.1414 O   0  0  0  0  0  0  0  0  0  0  0  0
  150.9690  143.4986  157.3082 N   0  0  0  0  0  0  0  0  0  0  0  0
  152.0035  143.8824  158.2598 C   0  0  0  0  0  0  0  0  0  0  0  0
  152.0398  143.0008  159.5166 C   0  0  0  0  0  0  0  0  0  0  0  0
  152.2672  144.2888  160.3185 C   0  0  0  0  0  0  0  0  0  0  0  0
  151.5793  145.0408  159.1715 C   0  0  0  0  0  0  0  0  0  0  0  0
  153.3784  139.5045  153.9120 H   0  0  0  0  0  0  0  0  0  0  0  0
  153.9005  137.8266  153.9209 H   0  0  0  0  0  0  0  0  0  0  0  0
  153.6737  138.6860  155.4429 H   0  0  0  0  0  0  0  0  0  0  0  0
  147.8443  139.1131  154.7049 H   0  0  0  0  0  0  0  0  0  0  0  0
  147.7245  137.4422  155.2554 H   0  0  0  0  0  0  0  0  0  0  0  0
  147.7709  137.8024  153.5278 H   0  0  0  0  0  0  0  0  0  0  0  0
  151.4932  140.8718  154.7132 H   0  0  0  0  0  0  0  0  0  0  0  0
  150.4469  140.7283  153.3423 H   0  0  0  0  0  0  0  0  0  0  0  0
  149.0650  140.2308  155.9131 H   0  0  0  0  0  0  0  0  0  0  0  0
  147.8333  140.4592  153.7838 H   0  0  0  0  0  0  0  0  0  0  0  0
  148.4426  142.0995  153.5805 H   0  0  0  0  0  0  0  0  0  0  0  0
  147.3573  141.7189  154.9153 H   0  0  0  0  0  0  0  0  0  0  0  0
  149.2862  143.0355  155.7572 H   0  0  0  0  0  0  0  0  0  0  0  0
  150.3405  144.2227  156.9925 H   0  0  0  0  0  0  0  0  0  0  0  0
  152.9929  144.0381  157.8231 H   0  0  0  0  0  0  0  0  0  0  0  0
  151.0843  142.5247  159.7460 H   0  0  0  0  0  0  0  0  0  0  0  0
  152.8653  142.2892  159.5508 H   0  0  0  0  0  0  0  0  0  0  0  0
  151.7435  144.3323  161.2738 H   0  0  0  0  0  0  0  0  0  0  0  0
  153.3234  144.5440  160.4219 H   0  0  0  0  0  0  0  0  0  0  0  0
  152.0272  146.0037  158.9242 H   0  0  0  0  0  0  0  0  0  0  0  0
  150.4988  145.1186  159.3082 H   0  0  0  0  0  0  0  0  0  0  0  0
  1  2  1  0  0  0  0
  1 19  1  0  0  0  0
  1 20  1  0  0  0  0
  1 21  1  0  0  0  0
  2  7  1  0  0  0  0
  2  3  2  0  0  0  0
  3  4  1  0  0  0  0
  4  5  1  0  0  0  0
  5  6  1  0  0  0  0
  5  7  2  0  0  0  0
  6 22  1  0  0  0  0
  6 23  1  0  0  0  0
  6 24  1  0  0  0  0
  7  8  1  0  0  0  0
  8  9  1  0  0  0  0
  8 25  1  0  0  0  0
  8 26  1  0  0  0  0
  9 10  1  0  0  0  0
  9 11  1  0  0  0  0
  9 27  1  0  0  0  0
 10 28  1  0  0  0  0
 10 29  1  0  0  0  0
 10 30  1  0  0  0  0
 11 12  1  0  0  0  0
 11 31  1  0  0  0  0
 12 13  2  0  0  0  0
 12 14  1  0  0  0  0
 14 15  1  0  0  0  0
 14 32  1  0  0  0  0
 15 18  1  0  0  0  0
 15 16  1  0  0  0  0
 15 33  1  0  0  0  0
 16 17  1  0  0  0  0
 16 34  1  0  0  0  0
 16 35  1  0  0  0  0
 17 18  1  0  0  0  0
 17 36  1  0  0  0  0
 17 37  1  0  0  0  0
 18 38  1  0  0  0  0
 18 39  1  0  0  0  0
M  END
> <s_m_source_file>
AV-unprocessed.smi

> <i_m_source_file_index>
773

> <i_lp_mmshare_version>
43012

> <i_f3d_flags>
0

> <s_epik_input>
W0NIM11jMW5vYyhbQ0gzXSljMVtDSDJdW0NASF0oW0NIM10pW05IXUMoPU8pW05IXVtDSF0yW0NIMl1bQ0gyXVtDSDJdMg==

> <s_epik_cmdline>
J2VwaWtfcHl0aG9uJywgJy1waCcsICc3LjAnLCAnLXRuJywgJzgnLCAnLW1hJywgJzIwMCcsICctbWV0YWxfYmluZGluZycsICctaW1hZScsICc8aW5maWxlLm1hZT4nLCAnLW9tYWUnLCAnPG91dGZpbGUubWFlPic=

> <r_lp_tautomer_probability>
1

> <r_epik_Ionization_Penalty>
6.63278e-05

> <r_epik_Ionization_Penalty_Charging>
0

> <r_epik_Ionization_Penalty_Neutral>
6.63278e-05

> <r_epik_State_Penalty>
-0

> <r_epik_Charging_Adjusted_Penalty>
0

> <i_epik_Tot_Q>
0

> <i_epik_Tot_abs_Q>
0

> <r_epik_Metal_State_Penalty>
-0

> <b_epik_Metal_Only>
0

> <s_lp_Force_Field>
OPLS_2005

> <r_lp_Energy>
7.52074

> <b_lp_Chiralities_Consistent>
1

> <s_lp_Variant>
AV-unprocessed.smi:773-1

> <Gold.Version>
5.8.1

> <Gold.Id.Protein>
6NUR|6NUR_protein|mol2

> <Gold.PLP.Fitness>
45.4657

> <Gold.PLP.PLP>
-38.6697

> <Gold.PLP.part.hbond>
-3.0000

> <Gold.PLP.part.metal>
0.0000

> <Gold.PLP.part.buried>
-1.9739

> <Gold.PLP.part.nonpolar>
-35.5864

> <Gold.PLP.part.repulsive>
0.4601

> <Gold.PLP.ligand.clash>
0.0000

> <Gold.PLP.ligand.torsion>
1.1430

> <Gold.PLP.Chemscore.Hbond>
2.9440

> <Gold.PLP.Chemscore.CHOScore>
0.0000

> <Gold.PLP.Chemscore.Metal>
0.0000

> <Gold.Chemscore.Hbonds>
donor molecule, donor type, donor heavy atom, donor atom, acceptor molecule, acceptor atom, score
      L1  H    11    31       P1  8028  1.00
      L1  H    14    32       P1  8028  0.94
      P1  H 10752 10763       L1     3  0.86

> <Gold.PLP.Chemscore.Internal.Correction>
0.2501

> <Gold.Rescore>
     Score         DG    S(hbond)    S(metal)    S(lipo)     H(rot)  DE(clash)    DE(int)     intcor
     19.30     -23.53       2.89        0.00     106.03       1.56       1.69       2.55       ----

> <Gold.Chemscore.Fitness>
19.2969

> <Gold.Chemscore.DG>
-23.5322

> <Gold.Chemscore.ZeroCoef>
-5.4800

> <Gold.Chemscore.Hbond>
2.8882

> <Gold.Chemscore.Metal>
0.0000

> <Gold.Chemscore.Lipo>
106.0308

> <Gold.Chemscore.Internal_Hbond>
0.0000

> <Gold.Chemscore.DEClash>
1.6887

> <Gold.Chemscore.DEInternal>
2.5466

> <Gold.Chemscore.Rot>
1.5625

> <Gold.Chemscore.Internal.Correction>
   9.000000E+99

> <Gold.Chemscore.Hbonds>
donor molecule, donor type, donor heavy atom, donor atom, acceptor molecule, acceptor atom, score
      L1  H    11    31       P1  8028  1.00
      L1  H    14    32       P1  8028  0.80
      P1  H 10752 10763       L1     3  0.84

> <Gold.Chemscore.Hbond.Weighted>
-9.6467

> <Gold.Chemscore.Metal.Weighted>
-0.0000

> <Gold.Chemscore.Lipo.Weighted>
-12.4056

> <Gold.Chemscore.Internal_Hbond.Weighted>
0.0000

> <Gold.Chemscore.DEClash.Weighted>
1.6887

> <Gold.Chemscore.DEInternal.Weighted>
2.5466

> <Gold.Chemscore.Rot.Weighted>
4.0000

> <Gold.Chemscore.Internal.Correction.Weighted>
   9.000000E+99

> <Gold.Protein.RotatedTorsions>
[ 6907 6896 6895 6894 ] final  120.05 input  -60.11 | X-H torsion
[ 7974 7965 7964 7962 ] final   99.88 input  175.53 | X-H torsion
[ 8008 7997 7996 7995 ] final  112.98 input   59.86 | X-H torsion
[ 10167 10162 10161 10158 ] final  -90.17 input  -65.29 | X-H torsion
[ 10718 10713 10712 10709 ] final -152.13 input   66.30 | X-H torsion
[ 10763 10752 10751 10750 ] final   72.21 input  -60.55 | X-H torsion
[ 11005 11000 10999 10996 ] final -110.19 input  -57.11 | X-H torsion

> <Gold.Protein.ActiveResidues>
 VAL166  LYS551  ARG553  GLY616  TRP617  ASP618  TYR619  PRO620  LYS621  CYS622 
 ASP623  PHE694  ASN695  SER759  ASP760  ASP761  ALA762  ILE779  LEU786  VAL792 
 PHE793  MET794  SER795  GLU796  ALA797  LYS798  CYS799  TRP800  GLU811  SER814 

> <Gold.Protein.RotatedAtoms>
  152.4426  133.7477  159.6676 H   0  0  0  0  0  0  0  0  0  0  0  0  # atno 6907 bound_to 6896
  150.8320  133.8065  159.3101 H   0  0  0  0  0  0  0  0  0  0  0  0  # atno 6908 bound_to 6896
  151.5716  135.1064  160.0048 H   0  0  0  0  0  0  0  0  0  0  0  0  # atno 6909 bound_to 6896
  145.3929  139.2360  143.3342 H   0  0  0  0  0  0  0  0  0  0  0  0  # atno 7974 bound_to 7965
  156.2228  140.2988  155.9994 H   0  0  0  0  0  0  0  0  0  0  0  0  # atno 8008 bound_to 7997
  155.2436  140.0423  157.2995 H   0  0  0  0  0  0  0  0  0  0  0  0  # atno 8009 bound_to 7997
  154.5867  140.2390  155.7985 H   0  0  0  0  0  0  0  0  0  0  0  0  # atno 8010 bound_to 7997
  140.3575  143.2859  151.9653 H   0  0  0  0  0  0  0  0  0  0  0  0  # atno 10167 bound_to 10162
  156.4683  130.8246  151.2476 H   0  0  0  0  0  0  0  0  0  0  0  0  # atno 10718 bound_to 10713
  153.0445  135.5108  154.7709 H   0  0  0  0  0  0  0  0  0  0  0  0  # atno 10763 bound_to 10752
  154.6620  135.2940  154.9856 H   0  0  0  0  0  0  0  0  0  0  0  0  # atno 10764 bound_to 10752
  154.0704  135.6678  153.4876 H   0  0  0  0  0  0  0  0  0  0  0  0  # atno 10765 bound_to 10752
  141.0805  133.9227  157.2298 H   0  0  0  0  0  0  0  0  0  0  0  0  # atno 11005 bound_to 11000
  146.2789  140.4615  142.8784 LP  0  0  0  0  0  0  0  0  0  0  0  0  # atno 17320 bound_to 7965
  144.8427  140.6882  143.6219 LP  0  0  0  0  0  0  0  0  0  0  0  0  # atno 17321 bound_to 7965
  139.4818  144.6022  151.7586 LP  0  0  0  0  0  0  0  0  0  0  0  0  # atno 17342 bound_to 10162
  140.5159  144.0954  150.6008 LP  0  0  0  0  0  0  0  0  0  0  0  0  # atno 17343 bound_to 10162
  157.7493  131.0084  150.3228 LP  0  0  0  0  0  0  0  0  0  0  0  0  # atno 17370 bound_to 10713
  156.3644  130.3852  149.7225 LP  0  0  0  0  0  0  0  0  0  0  0  0  # atno 17371 bound_to 10713
  139.9619  135.0152  156.9284 LP  0  0  0  0  0  0  0  0  0  0  0  0  # atno 17394 bound_to 11000
  140.5478  134.0657  155.7360 LP  0  0  0  0  0  0  0  0  0  0  0  0  # atno 17395 bound_to 11000

$$$$
