AV-unprocessed.smi:2883|AV-procd|sdf|11081|dock10
  -GOLD-   2272015553D 1   1.00000     0.00000
 Structure written by MMmdl.
 39 41  0  0  0  0  0  0  0  0  1 V2000
  151.9102  138.0361  156.7039 C   0  0  0  0  0  0  0  0  0  0  0  0
  151.8591  138.4456  155.2207 C   0  0  0  0  0  0  0  0  0  0  0  0
  153.2958  138.6807  154.6969 C   0  0  0  0  0  0  0  0  0  0  0  0
  151.2830  137.2801  154.3825 C   0  0  0  0  0  0  0  0  0  0  0  0
  151.0039  139.7151  155.0691 C   0  0  0  0  0  0  0  0  0  0  0  0
  150.0357  139.6972  154.1432 N   0  0  0  0  0  0  0  0  0  0  0  0
  149.2012  140.7570  154.0930 C   0  0  0  0  0  0  0  0  0  0  0  0
  149.3123  141.8322  154.9957 C   0  0  0  0  0  0  0  0  0  0  0  0
  150.3369  141.7394  155.9581 C   0  0  0  0  0  0  0  0  0  0  0  0
  150.4969  142.7685  156.8960 N   0  0  0  0  0  0  0  0  0  0  0  0
  151.6990  142.8489  157.7206 C   0  0  2  0  0  0  0  0  0  0  0  0
  151.4968  142.2937  159.1325 C   0  0  0  0  0  0  0  0  0  0  0  0
  151.9746  143.4646  160.0030 C   0  0  2  0  0  0  0  0  0  0  0  0
  150.9455  144.6017  160.0309 C   0  0  0  0  0  0  0  0  0  0  0  0
  151.0936  145.1879  158.6282 C   0  0  0  0  0  0  0  0  0  0  0  0
  152.1785  144.2842  158.0177 C   0  0  1  0  0  0  0  0  0  0  0  0
  152.9685  144.0365  159.1687 O   0  0  0  0  0  0  0  0  0  0  0  0
  151.1625  140.6684  155.9961 N   0  0  0  0  0  0  0  0  0  0  0  0
  152.5099  137.1370  156.8484 H   0  0  0  0  0  0  0  0  0  0  0  0
  150.9120  137.8319  157.0926 H   0  0  0  0  0  0  0  0  0  0  0  0
  152.3466  138.8250  157.3175 H   0  0  0  0  0  0  0  0  0  0  0  0
  153.8223  139.4425  155.2733 H   0  0  0  0  0  0  0  0  0  0  0  0
  153.2912  139.0009  153.6541 H   0  0  0  0  0  0  0  0  0  0  0  0
  153.8947  137.7714  154.7575 H   0  0  0  0  0  0  0  0  0  0  0  0
  151.9130  136.3927  154.4520 H   0  0  0  0  0  0  0  0  0  0  0  0
  151.2092  137.5473  153.3276 H   0  0  0  0  0  0  0  0  0  0  0  0
  150.2884  136.9860  154.7199 H   0  0  0  0  0  0  0  0  0  0  0  0
  148.4354  140.7442  153.3317 H   0  0  0  0  0  0  0  0  0  0  0  0
  148.6409  142.6772  154.9517 H   0  0  0  0  0  0  0  0  0  0  0  0
  149.8909  143.5746  156.8505 H   0  0  0  0  0  0  0  0  0  0  0  0
  152.5032  142.2891  157.2406 H   0  0  0  0  0  0  0  0  0  0  0  0
  150.4653  142.0158  159.3537 H   0  0  0  0  0  0  0  0  0  0  0  0
  152.1231  141.4142  159.2850 H   0  0  0  0  0  0  0  0  0  0  0  0
  152.3308  143.1669  160.9895 H   0  0  0  0  0  0  0  0  0  0  0  0
  149.9361  144.2444  160.2369 H   0  0  0  0  0  0  0  0  0  0  0  0
  151.2066  145.3444  160.7855 H   0  0  0  0  0  0  0  0  0  0  0  0
  150.1619  145.1814  158.0621 H   0  0  0  0  0  0  0  0  0  0  0  0
  151.4434  146.2194  158.6848 H   0  0  0  0  0  0  0  0  0  0  0  0
  152.7264  144.7481  157.1969 H   0  0  0  0  0  0  0  0  0  0  0  0
  1  2  1  0  0  0  0
  1 19  1  0  0  0  0
  1 20  1  0  0  0  0
  1 21  1  0  0  0  0
  2  3  1  0  0  0  0
  2  4  1  0  0  0  0
  2  5  1  0  0  0  0
  3 22  1  0  0  0  0
  3 23  1  0  0  0  0
  3 24  1  0  0  0  0
  4 25  1  0  0  0  0
  4 26  1  0  0  0  0
  4 27  1  0  0  0  0
  5 18  1  0  0  0  0
  5  6  2  0  0  0  0
  6  7  1  0  0  0  0
  7  8  2  0  0  0  0
  7 28  1  0  0  0  0
  8  9  1  0  0  0  0
  8 29  1  0  0  0  0
  9 10  1  0  0  0  0
  9 18  2  0  0  0  0
 10 11  1  0  0  0  0
 10 30  1  0  0  0  0
 11 16  1  0  0  0  0
 11 12  1  0  0  0  0
 11 31  1  0  0  0  0
 12 13  1  0  0  0  0
 12 32  1  0  0  0  0
 12 33  1  0  0  0  0
 13 17  1  0  0  0  0
 13 14  1  0  0  0  0
 13 34  1  0  0  0  0
 14 15  1  0  0  0  0
 14 35  1  0  0  0  0
 14 36  1  0  0  0  0
 15 16  1  0  0  0  0
 15 37  1  0  0  0  0
 15 38  1  0  0  0  0
 16 17  1  0  0  0  0
 16 39  1  0  0  0  0
M  END
> <s_m_source_file>
AV-unprocessed.smi

> <i_m_source_file_index>
2883

> <i_lp_mmshare_version>
43012

> <i_f3d_flags>
0

> <s_epik_input>
W0NIM11DKFtDSDNdKShbQ0gzXSljMW5bY0hdW2NIXWMobjEpW05IXVtDQEhdKFtDSDJdW0NAQEhdMjMpW0NAQEhdKE8zKVtDSDJdW0NIMl0y

> <s_epik_cmdline>
J2VwaWtfcHl0aG9uJywgJy1waCcsICc3LjAnLCAnLXRuJywgJzgnLCAnLW1hJywgJzIwMCcsICctbWV0YWxfYmluZGluZycsICctaW1hZScsICc8aW5maWxlLm1hZT4nLCAnLW9tYWUnLCAnPG91dGZpbGUubWFlPic=

> <r_lp_tautomer_probability>
1

> <r_epik_Ionization_Penalty>
0.453006

> <r_epik_Ionization_Penalty_Charging>
0

> <r_epik_Ionization_Penalty_Neutral>
0.453006

> <r_epik_State_Penalty>
0.455155

> <r_epik_Charging_Adjusted_Penalty>
0.455155

> <i_epik_Tot_Q>
0

> <i_epik_Tot_abs_Q>
0

> <r_epik_Metal_State_Penalty>
0.255592

> <b_epik_Metal_Only>
0

> <s_lp_Force_Field>
OPLS_2005

> <r_lp_Energy>
33.5757

> <b_lp_Chiralities_Consistent>
1

> <s_lp_Variant>
AV-unprocessed.smi:2883-7

> <Gold.Version>
5.8.1

> <Gold.Id.Protein>
6NUR|6NUR_protein|mol2

> <Gold.PLP.Fitness>
41.9553

> <Gold.PLP.PLP>
-39.4072

> <Gold.PLP.part.hbond>
-2.0000

> <Gold.PLP.part.metal>
0.0000

> <Gold.PLP.part.buried>
0.8200

> <Gold.PLP.part.nonpolar>
-37.0031

> <Gold.PLP.part.repulsive>
0.7508

> <Gold.PLP.ligand.clash>
0.0000

> <Gold.PLP.ligand.torsion>
0.8651

> <Gold.PLP.Chemscore.Hbond>
0.9120

> <Gold.PLP.Chemscore.CHOScore>
0.4660

> <Gold.PLP.Chemscore.Metal>
0.0000

> <Gold.Chemscore.Hbonds>
donor molecule, donor type, donor heavy atom, donor atom, acceptor molecule, acceptor atom, score
      L1  H    10    30       P1  8028  0.90
      L1  C     7    28       P1  7957  0.49

> <Gold.PLP.Chemscore.Internal.Correction>
0.1441

> <Gold.Rescore>
     Score         DG    S(hbond)    S(metal)    S(lipo)     H(rot)  DE(clash)    DE(int)     intcor
     17.54     -18.48       0.98        0.00     108.39       1.15       0.22       0.72       ----

> <Gold.Chemscore.Fitness>
17.5402

> <Gold.Chemscore.DG>
-18.4801

> <Gold.Chemscore.ZeroCoef>
-5.4800

> <Gold.Chemscore.Hbond>
0.9754

> <Gold.Chemscore.Metal>
0.0000

> <Gold.Chemscore.Lipo>
108.3891

> <Gold.Chemscore.Internal_Hbond>
0.0000

> <Gold.Chemscore.DEClash>
0.2231

> <Gold.Chemscore.DEInternal>
0.7169

> <Gold.Chemscore.Rot>
1.1482

> <Gold.Chemscore.Internal.Correction>
   9.000000E+99

> <Gold.Chemscore.Hbonds>
donor molecule, donor type, donor heavy atom, donor atom, acceptor molecule, acceptor atom, score
      L1  H    10    30       P1  8028  0.87

> <Gold.Chemscore.Hbond.Weighted>
-3.2578

> <Gold.Chemscore.Metal.Weighted>
-0.0000

> <Gold.Chemscore.Lipo.Weighted>
-12.6815

> <Gold.Chemscore.Internal_Hbond.Weighted>
0.0000

> <Gold.Chemscore.DEClash.Weighted>
0.2231

> <Gold.Chemscore.DEInternal.Weighted>
0.7169

> <Gold.Chemscore.Rot.Weighted>
2.9393

> <Gold.Chemscore.Internal.Correction.Weighted>
   9.000000E+99

> <Gold.Protein.RotatedTorsions>
[ 6907 6896 6895 6894 ] final   29.26 input  -60.11 | X-H torsion
[ 7974 7965 7964 7962 ] final  107.68 input  175.53 | X-H torsion
[ 8008 7997 7996 7995 ] final -157.98 input   59.86 | X-H torsion
[ 10167 10162 10161 10158 ] final   -8.75 input  -65.29 | X-H torsion
[ 10718 10713 10712 10709 ] final  -76.93 input   66.30 | X-H torsion
[ 10763 10752 10751 10750 ] final -156.27 input  -60.55 | X-H torsion
[ 11005 11000 10999 10996 ] final  -90.52 input  -57.11 | X-H torsion

> <Gold.Protein.ActiveResidues>
 VAL166  LYS551  ARG553  GLY616  TRP617  ASP618  TYR619  PRO620  LYS621  CYS622 
 ASP623  PHE694  ASN695  SER759  ASP760  ASP761  ALA762  ILE779  LEU786  VAL792 
 PHE793  MET794  SER795  GLU796  ALA797  LYS798  CYS799  TRP800  GLU811  SER814 

> <Gold.Protein.RotatedAtoms>
  152.0289  134.9779  160.0571 H   0  0  0  0  0  0  0  0  0  0  0  0  # atno 6907 bound_to 6896
  152.1263  133.4377  159.4708 H   0  0  0  0  0  0  0  0  0  0  0  0  # atno 6908 bound_to 6896
  150.6853  134.2393  159.4509 H   0  0  0  0  0  0  0  0  0  0  0  0  # atno 6909 bound_to 6896
  145.2905  139.2602  143.3867 H   0  0  0  0  0  0  0  0  0  0  0  0  # atno 7974 bound_to 7965
  155.7407  140.0814  157.2247 H   0  0  0  0  0  0  0  0  0  0  0  0  # atno 8008 bound_to 7997
  154.4022  140.1578  156.2668 H   0  0  0  0  0  0  0  0  0  0  0  0  # atno 8009 bound_to 7997
  155.9023  140.3409  155.6038 H   0  0  0  0  0  0  0  0  0  0  0  0  # atno 8010 bound_to 7997
  140.7068  143.5933  150.8871 H   0  0  0  0  0  0  0  0  0  0  0  0  # atno 10167 bound_to 10162
  156.0160  130.4478  150.3268 H   0  0  0  0  0  0  0  0  0  0  0  0  # atno 10718 bound_to 10713
  154.7725  135.3149  154.8159 H   0  0  0  0  0  0  0  0  0  0  0  0  # atno 10763 bound_to 10752
  153.8891  135.6827  153.4766 H   0  0  0  0  0  0  0  0  0  0  0  0  # atno 10764 bound_to 10752
  153.1342  135.4767  154.9332 H   0  0  0  0  0  0  0  0  0  0  0  0  # atno 10765 bound_to 10752
  141.1564  133.7697  156.9749 H   0  0  0  0  0  0  0  0  0  0  0  0  # atno 11005 bound_to 11000
  146.3186  140.3394  142.8647 LP  0  0  0  0  0  0  0  0  0  0  0  0  # atno 17320 bound_to 7965
  144.9177  140.7832  143.5768 LP  0  0  0  0  0  0  0  0  0  0  0  0  # atno 17321 bound_to 7965
  139.9659  143.6111  152.2988 LP  0  0  0  0  0  0  0  0  0  0  0  0  # atno 17342 bound_to 10162
  139.6681  144.7661  151.1835 LP  0  0  0  0  0  0  0  0  0  0  0  0  # atno 17343 bound_to 10162
  157.1367  131.0286  151.2946 LP  0  0  0  0  0  0  0  0  0  0  0  0  # atno 17370 bound_to 10713
  157.4506  130.7596  149.7148 LP  0  0  0  0  0  0  0  0  0  0  0  0  # atno 17371 bound_to 10713
  140.1104  134.9480  157.2057 LP  0  0  0  0  0  0  0  0  0  0  0  0  # atno 17394 bound_to 11000
  140.3201  134.2926  155.7248 LP  0  0  0  0  0  0  0  0  0  0  0  0  # atno 17395 bound_to 11000

$$$$
