AV-unprocessed.smi:2163|AV-procd|sdf|8807|dock10
  -GOLD-   2272011593D 1   1.00000     0.00000
 Structure written by MMmdl.
 44 46  0  0  0  0  0  0  0  0  2 V2000
  149.4652  140.7170  154.4276 C   0  0  0  0  0  0  0  0  0  0  0  0
  150.1999  141.0179  155.6905 C   0  0  0  0  0  0  0  0  0  0  0  0
  150.0076  142.1055  156.4893 N   0  3  0  0  0  0  0  0  0  0  0  0
  150.8749  142.0483  157.5814 C   0  0  0  0  0  0  0  0  0  0  0  0
  151.0489  142.9170  158.6545 C   0  0  0  0  0  0  0  0  0  0  0  0
  152.0283  142.5602  159.6048 C   0  0  0  0  0  0  0  0  0  0  0  0
  152.7899  141.3814  159.4678 C   0  0  0  0  0  0  0  0  0  0  0  0
  152.6048  140.5087  158.3752 C   0  0  0  0  0  0  0  0  0  0  0  0
  151.6337  140.8684  157.4413 C   0  0  0  0  0  0  0  0  0  0  0  0
  151.1817  140.2640  156.2634 N   0  0  0  0  0  0  0  0  0  0  0  0
  151.7806  138.9903  155.8344 C   0  0  0  0  0  0  0  0  0  0  0  0
  150.7778  138.0659  155.1136 C   0  0  1  0  0  0  0  0  0  0  0  0
  151.4972  137.1022  154.3691 O   0  0  0  0  0  0  0  0  0  0  0  0
  149.8585  137.3333  156.1037 C   0  0  0  0  0  0  0  0  0  0  0  0
  149.1582  136.3092  155.4096 O   0  0  0  0  0  0  0  0  0  0  0  0
  149.5068  134.9980  155.6537 C   0  0  0  0  0  0  0  0  0  0  0  0
  150.4505  134.5918  156.6311 C   0  0  0  0  0  0  0  0  0  0  0  0
  150.7551  133.2276  156.8050 C   0  0  0  0  0  0  0  0  0  0  0  0
  150.1219  132.2516  156.0110 C   0  0  0  0  0  0  0  0  0  0  0  0
  150.4560  130.7861  156.1958 C   0  0  0  0  0  0  0  0  0  0  0  0
  149.6754  129.9228  155.2969 C   0  0  0  0  0  0  0  0  0  0  0  0
  149.0609  129.2440  154.5895 N   0  0  0  0  0  0  0  0  0  0  0  0
  149.1764  132.6468  155.0450 C   0  0  0  0  0  0  0  0  0  0  0  0
  148.8736  134.0110  154.8705 C   0  0  0  0  0  0  0  0  0  0  0  0
  148.7090  141.4779  154.2331 H   0  0  0  0  0  0  0  0  0  0  0  0
  148.9709  139.7482  154.5009 H   0  0  0  0  0  0  0  0  0  0  0  0
  150.1580  140.6931  153.5862 H   0  0  0  0  0  0  0  0  0  0  0  0
  150.4669  143.8206  158.7620 H   0  0  0  0  0  0  0  0  0  0  0  0
  152.1983  143.2037  160.4559 H   0  0  0  0  0  0  0  0  0  0  0  0
  153.5309  141.1406  160.2163 H   0  0  0  0  0  0  0  0  0  0  0  0
  153.1914  139.6072  158.2794 H   0  0  0  0  0  0  0  0  0  0  0  0
  152.6208  139.2220  155.1788 H   0  0  0  0  0  0  0  0  0  0  0  0
  152.2037  138.4991  156.7117 H   0  0  0  0  0  0  0  0  0  0  0  0
  150.1737  138.6588  154.4261 H   0  0  0  0  0  0  0  0  0  0  0  0
  150.9966  136.8829  153.5983 H   0  0  0  0  0  0  0  0  0  0  0  0
  150.4361  136.9365  156.9409 H   0  0  0  0  0  0  0  0  0  0  0  0
  149.1259  138.0347  156.5062 H   0  0  0  0  0  0  0  0  0  0  0  0
  150.9557  135.3077  157.2612 H   0  0  0  0  0  0  0  0  0  0  0  0
  151.4779  132.9315  157.5512 H   0  0  0  0  0  0  0  0  0  0  0  0
  151.5157  130.6151  156.0047 H   0  0  0  0  0  0  0  0  0  0  0  0
  150.2557  130.4850  157.2242 H   0  0  0  0  0  0  0  0  0  0  0  0
  148.6823  131.9055  154.4343 H   0  0  0  0  0  0  0  0  0  0  0  0
  148.1499  134.3032  154.1238 H   0  0  0  0  0  0  0  0  0  0  0  0
  149.3297  142.8324  156.2997 H   0  0  0  0  0  0  0  0  0  0  0  0
  1  2  1  0  0  0  0
  1 25  1  0  0  0  0
  1 26  1  0  0  0  0
  1 27  1  0  0  0  0
  2 10  1  0  0  0  0
  2  3  2  0  0  0  0
  3  4  1  0  0  0  0
  3 44  1  0  0  0  0
  4  9  2  0  0  0  0
  4  5  1  0  0  0  0
  5  6  2  0  0  0  0
  5 28  1  0  0  0  0
  6  7  1  0  0  0  0
  6 29  1  0  0  0  0
  7  8  2  0  0  0  0
  7 30  1  0  0  0  0
  8  9  1  0  0  0  0
  8 31  1  0  0  0  0
  9 10  1  0  0  0  0
 10 11  1  0  0  0  0
 11 12  1  0  0  0  0
 11 32  1  0  0  0  0
 11 33  1  0  0  0  0
 12 13  1  0  0  0  0
 12 14  1  0  0  0  0
 12 34  1  0  0  0  0
 13 35  1  0  0  0  0
 14 15  1  0  0  0  0
 14 36  1  0  0  0  0
 14 37  1  0  0  0  0
 15 16  1  0  0  0  0
 16 24  1  0  0  0  0
 16 17  2  0  0  0  0
 17 18  1  0  0  0  0
 17 38  1  0  0  0  0
 18 19  2  0  0  0  0
 18 39  1  0  0  0  0
 19 20  1  0  0  0  0
 19 23  1  0  0  0  0
 20 21  1  0  0  0  0
 20 40  1  0  0  0  0
 20 41  1  0  0  0  0
 21 22  3  0  0  0  0
 23 24  2  0  0  0  0
 23 42  1  0  0  0  0
 24 43  1  0  0  0  0
M  CHG  1   3   1
M  END
> <s_m_source_file>
AV-unprocessed.smi

> <i_m_source_file_index>
2163

> <i_lp_mmshare_version>
43012

> <i_f3d_flags>
0

> <s_epik_input>
W2NIXTFbY0hdW2NIXVtjSF1jKGMxMiluKGMobjIpW0NIM10pW0NIMl1bQ0BIXShbT0hdKVtDSDJdT2MzW2NIXVtjSF1jKFtDSDJdQyNOKVtjSF1bY0hdMw==

> <s_epik_cmdline>
J2VwaWtfcHl0aG9uJywgJy1waCcsICc3LjAnLCAnLXRuJywgJzgnLCAnLW1hJywgJzIwMCcsICctbWV0YWxfYmluZGluZycsICctaW1hZScsICc8aW5maWxlLm1hZT4nLCAnLW9tYWUnLCAnPG91dGZpbGUubWFlPic=

> <r_lp_tautomer_probability>
1

> <r_epik_Ionization_Penalty>
1.03158

> <r_epik_Ionization_Penalty_Charging>
1.03158

> <r_epik_Ionization_Penalty_Neutral>
2.3994e-06

> <r_epik_State_Penalty>
1.08278

> <r_epik_Charging_Adjusted_Penalty>
2.11436

> <i_epik_Tot_Q>
1

> <i_epik_Tot_abs_Q>
1

> <r_epik_Metal_State_Penalty>
5.07177

> <b_epik_Metal_Only>
0

> <s_lp_Force_Field>
OPLS_2005

> <r_lp_Energy>
20.4003

> <b_lp_Chiralities_Consistent>
1

> <s_lp_Variant>
AV-unprocessed.smi:2163-4

> <Gold.Version>
5.8.1

> <Gold.Id.Protein>
6NUR|6NUR_protein|mol2

> <Gold.PLP.Fitness>
55.0811

> <Gold.PLP.PLP>
-45.3665

> <Gold.PLP.part.hbond>
-3.0000

> <Gold.PLP.part.metal>
0.0000

> <Gold.PLP.part.buried>
-2.0956

> <Gold.PLP.part.nonpolar>
-40.4357

> <Gold.PLP.part.repulsive>
0.3620

> <Gold.PLP.ligand.clash>
0.0000

> <Gold.PLP.ligand.torsion>
0.9720

> <Gold.PLP.Chemscore.Hbond>
3.8197

> <Gold.PLP.Chemscore.CHOScore>
0.0000

> <Gold.PLP.Chemscore.Metal>
0.0000

> <Gold.Chemscore.Hbonds>
donor molecule, donor type, donor heavy atom, donor atom, acceptor molecule, acceptor atom, score
      L1  H     3    44       P1  8028  1.95
      L1  H    13    35       P1  7949  0.29
      P1  H 10752 10764       L1    13  0.79

> <Gold.PLP.Chemscore.Internal.Correction>
0.1995

> <Gold.Rescore>
     Score         DG    S(hbond)    S(metal)    S(lipo)     H(rot)  DE(clash)    DE(int)     intcor
     15.33     -17.70       1.79        0.00     110.29       2.60       0.57       1.81       ----

> <Gold.Chemscore.Fitness>
15.3281

> <Gold.Chemscore.DG>
-17.7013

> <Gold.Chemscore.ZeroCoef>
-5.4800

> <Gold.Chemscore.Hbond>
1.7917

> <Gold.Chemscore.Metal>
0.0000

> <Gold.Chemscore.Lipo>
110.2863

> <Gold.Chemscore.Internal_Hbond>
0.0000

> <Gold.Chemscore.DEClash>
0.5670

> <Gold.Chemscore.DEInternal>
1.8062

> <Gold.Chemscore.Rot>
2.6041

> <Gold.Chemscore.Internal.Correction>
   9.000000E+99

> <Gold.Chemscore.Hbonds>
donor molecule, donor type, donor heavy atom, donor atom, acceptor molecule, acceptor atom, score
      L1  H     3    44       P1  8028  0.87
      L1  H    13    35       P1  7949  0.08
      P1  H 10752 10764       L1    13  0.13

> <Gold.Chemscore.Hbond.Weighted>
-5.9843

> <Gold.Chemscore.Metal.Weighted>
-0.0000

> <Gold.Chemscore.Lipo.Weighted>
-12.9035

> <Gold.Chemscore.Internal_Hbond.Weighted>
0.0000

> <Gold.Chemscore.DEClash.Weighted>
0.5670

> <Gold.Chemscore.DEInternal.Weighted>
1.8062

> <Gold.Chemscore.Rot.Weighted>
6.6665

> <Gold.Chemscore.Internal.Correction.Weighted>
   9.000000E+99

> <Gold.Protein.RotatedTorsions>
[ 6907 6896 6895 6894 ] final  173.89 input  -60.11 | X-H torsion
[ 7974 7965 7964 7962 ] final   22.26 input  175.53 | X-H torsion
[ 8008 7997 7996 7995 ] final  179.54 input   59.86 | X-H torsion
[ 10167 10162 10161 10158 ] final  134.11 input  -65.29 | X-H torsion
[ 10718 10713 10712 10709 ] final  138.30 input   66.30 | X-H torsion
[ 10763 10752 10751 10750 ] final  -88.20 input  -60.55 | X-H torsion
[ 11005 11000 10999 10996 ] final -179.20 input  -57.11 | X-H torsion

> <Gold.Protein.ActiveResidues>
 VAL166  LYS551  ARG553  GLY616  TRP617  ASP618  TYR619  PRO620  LYS621  CYS622 
 ASP623  PHE694  ASN695  SER759  ASP760  ASP761  ALA762  ILE779  LEU786  VAL792 
 PHE793  MET794  SER795  GLU796  ALA797  LYS798  CYS799  TRP800  GLU811  SER814 

> <Gold.Protein.RotatedAtoms>
  151.7611  133.3334  159.3417 H   0  0  0  0  0  0  0  0  0  0  0  0  # atno 6907 bound_to 6896
  150.7497  134.6105  159.6093 H   0  0  0  0  0  0  0  0  0  0  0  0  # atno 6908 bound_to 6896
  152.3405  134.7143  160.0316 H   0  0  0  0  0  0  0  0  0  0  0  0  # atno 6909 bound_to 6896
  146.2036  139.7910  142.8742 H   0  0  0  0  0  0  0  0  0  0  0  0  # atno 7974 bound_to 7965
  156.0423  140.1306  157.0142 H   0  0  0  0  0  0  0  0  0  0  0  0  # atno 8008 bound_to 7997
  154.4396  140.1028  156.6325 H   0  0  0  0  0  0  0  0  0  0  0  0  # atno 8009 bound_to 7997
  155.5649  140.3465  155.4502 H   0  0  0  0  0  0  0  0  0  0  0  0  # atno 8010 bound_to 7997
  139.5269  144.6583  151.5093 H   0  0  0  0  0  0  0  0  0  0  0  0  # atno 10167 bound_to 10162
  157.4268  131.1044  151.0294 H   0  0  0  0  0  0  0  0  0  0  0  0  # atno 10718 bound_to 10713
  154.6420  135.5385  153.7800 H   0  0  0  0  0  0  0  0  0  0  0  0  # atno 10763 bound_to 10752
  153.0339  135.6461  154.1145 H   0  0  0  0  0  0  0  0  0  0  0  0  # atno 10764 bound_to 10752
  154.1069  135.2929  155.3219 H   0  0  0  0  0  0  0  0  0  0  0  0  # atno 10765 bound_to 10752
  140.4213  134.6603  157.4665 H   0  0  0  0  0  0  0  0  0  0  0  0  # atno 11005 bound_to 11000
  145.3397  141.0285  143.3399 LP  0  0  0  0  0  0  0  0  0  0  0  0  # atno 17320 bound_to 7965
  144.8740  139.4997  143.6754 LP  0  0  0  0  0  0  0  0  0  0  0  0  # atno 17321 bound_to 7965
  140.6419  143.8872  150.6700 LP  0  0  0  0  0  0  0  0  0  0  0  0  # atno 17342 bound_to 10162
  140.2209  143.3810  152.1643 LP  0  0  0  0  0  0  0  0  0  0  0  0  # atno 17343 bound_to 10162
  157.1205  130.6060  149.5504 LP  0  0  0  0  0  0  0  0  0  0  0  0  # atno 17370 bound_to 10713
  155.9899  130.4948  150.7234 LP  0  0  0  0  0  0  0  0  0  0  0  0  # atno 17371 bound_to 10713
  140.0198  134.6564  155.9256 LP  0  0  0  0  0  0  0  0  0  0  0  0  # atno 17394 bound_to 11000
  141.1783  133.6543  156.4916 LP  0  0  0  0  0  0  0  0  0  0  0  0  # atno 17395 bound_to 11000

$$$$
