AV-unprocessed.smi:613|AV-procd|sdf|3066|dock4
  -GOLD-   2262023593D 1   1.00000     0.00000
 Structure written by MMmdl.
 39 40  0  0  0  0  0  0  0  0  2 V2000
  150.6149  137.4086  154.3936 C   0  0  0  0  0  0  0  0  0  0  0  0
  150.4817  138.8285  154.6972 N   0  0  0  0  0  0  0  0  0  0  0  0
  151.6544  139.5519  155.1908 C   0  0  0  0  0  0  0  0  0  0  0  0
  151.5556  139.8914  156.6894 C   0  0  2  0  0  0  0  0  0  0  0  0
  151.0976  141.3463  156.9157 C   0  0  0  0  0  0  0  0  0  0  0  0
  151.0778  141.6990  158.3384 N   0  0  0  0  0  0  0  0  0  0  0  0
  150.6279  143.0709  158.6094 C   0  0  0  0  0  0  0  0  0  0  0  0
  151.6309  144.1612  158.2104 C   0  0  0  0  0  0  0  0  0  0  0  0
  151.3054  144.9402  157.1759 N   0  0  0  0  0  0  0  0  0  0  0  0
  152.6830  144.3011  158.8311 O   0  0  0  0  0  0  0  0  0  0  0  0
  152.3880  141.4384  158.9270 C   0  0  0  0  0  0  0  0  0  0  0  0
  152.8479  139.9922  158.6818 C   0  0  0  0  0  0  0  0  0  0  0  0
  152.8401  139.7243  157.2842 O   0  0  0  0  0  0  0  0  0  0  0  0
  149.3683  139.5337  154.1831 C   0  0  0  0  0  0  0  0  0  0  0  0
  149.0354  140.8485  154.5921 C   0  0  0  0  0  0  0  0  0  0  0  0
  147.9083  141.4697  154.0283 C   0  0  0  0  0  0  0  0  0  0  0  0
  147.1711  140.7422  153.0793 C   0  0  0  0  0  0  0  0  0  0  0  0
  147.4983  139.4906  152.6923 N   0  0  0  0  0  0  0  0  0  0  0  0
  148.5829  138.9268  153.2510 N   0  3  0  0  0  0  0  0  0  0  0  0
  149.7996  136.8409  154.8430 H   0  0  0  0  0  0  0  0  0  0  0  0
  151.5510  137.0108  154.7867 H   0  0  0  0  0  0  0  0  0  0  0  0
  150.6087  137.2408  153.3161 H   0  0  0  0  0  0  0  0  0  0  0  0
  152.5792  139.0163  154.9757 H   0  0  0  0  0  0  0  0  0  0  0  0
  151.7232  140.4800  154.6219 H   0  0  0  0  0  0  0  0  0  0  0  0
  150.8438  139.2174  157.1703 H   0  0  0  0  0  0  0  0  0  0  0  0
  151.7582  142.0272  156.3757 H   0  0  0  0  0  0  0  0  0  0  0  0
  150.1068  141.4627  156.4763 H   0  0  0  0  0  0  0  0  0  0  0  0
  149.7078  143.2693  158.0579 H   0  0  0  0  0  0  0  0  0  0  0  0
  150.3775  143.1756  159.6670 H   0  0  0  0  0  0  0  0  0  0  0  0
  151.9311  145.6747  156.8791 H   0  0  0  0  0  0  0  0  0  0  0  0
  150.4289  144.7938  156.6961 H   0  0  0  0  0  0  0  0  0  0  0  0
  153.1269  142.1259  158.5113 H   0  0  0  0  0  0  0  0  0  0  0  0
  152.3593  141.6260  160.0011 H   0  0  0  0  0  0  0  0  0  0  0  0
  153.8567  139.8436  159.0676 H   0  0  0  0  0  0  0  0  0  0  0  0
  152.1986  139.2846  159.1996 H   0  0  0  0  0  0  0  0  0  0  0  0
  149.6197  141.3867  155.3233 H   0  0  0  0  0  0  0  0  0  0  0  0
  147.6182  142.4702  154.3139 H   0  0  0  0  0  0  0  0  0  0  0  0
  146.2957  141.1740  152.6166 H   0  0  0  0  0  0  0  0  0  0  0  0
  148.8303  137.9789  152.9661 H   0  0  0  0  0  0  0  0  0  0  0  0
  1  2  1  0  0  0  0
  1 20  1  0  0  0  0
  1 21  1  0  0  0  0
  1 22  1  0  0  0  0
  2  3  1  0  0  0  0
  2 14  1  0  0  0  0
  3  4  1  0  0  0  0
  3 23  1  0  0  0  0
  3 24  1  0  0  0  0
  4 13  1  0  0  0  0
  4  5  1  0  0  0  0
  4 25  1  0  0  0  0
  5  6  1  0  0  0  0
  5 26  1  0  0  0  0
  5 27  1  0  0  0  0
  6  7  1  0  0  0  0
  6 11  1  0  0  0  0
  7  8  1  0  0  0  0
  7 28  1  0  0  0  0
  7 29  1  0  0  0  0
  8  9  1  0  0  0  0
  8 10  2  0  0  0  0
  9 30  1  0  0  0  0
  9 31  1  0  0  0  0
 11 12  1  0  0  0  0
 11 32  1  0  0  0  0
 11 33  1  0  0  0  0
 12 13  1  0  0  0  0
 12 34  1  0  0  0  0
 12 35  1  0  0  0  0
 14 19  1  0  0  0  0
 14 15  2  0  0  0  0
 15 16  1  0  0  0  0
 15 36  1  0  0  0  0
 16 17  2  0  0  0  0
 16 37  1  0  0  0  0
 17 18  1  0  0  0  0
 17 38  1  0  0  0  0
 18 19  2  0  0  0  0
 19 39  1  0  0  0  0
M  CHG  1  19   1
M  END
> <s_m_source_file>
AV-unprocessed.smi

> <i_m_source_file_index>
613

> <i_lp_mmshare_version>
43012

> <i_f3d_flags>
0

> <s_epik_input>
bjFuW2NIXVtjSF1bY0hdYzFOKFtDSDNdKVtDSDJdW0NAQEhdMltDSDJdTihbQ0gyXVtDSDJdTzIpW0NIMl1DKD1PKVtOSDJd

> <s_epik_cmdline>
J2VwaWtfcHl0aG9uJywgJy1waCcsICc3LjAnLCAnLXRuJywgJzgnLCAnLW1hJywgJzIwMCcsICctbWV0YWxfYmluZGluZycsICctaW1hZScsICc8aW5maWxlLm1hZT4nLCAnLW9tYWUnLCAnPG91dGZpbGUubWFlPic=

> <r_lp_tautomer_probability>
0.966961

> <r_epik_Ionization_Penalty>
1.86301

> <r_epik_Ionization_Penalty_Charging>
1.86058

> <r_epik_Ionization_Penalty_Neutral>
0.00243207

> <r_epik_State_Penalty>
1.48112

> <r_epik_Charging_Adjusted_Penalty>
3.3417

> <i_epik_Tot_Q>
1

> <i_epik_Tot_abs_Q>
1

> <r_epik_Metal_State_Penalty>
1.50193

> <b_epik_Metal_Only>
0

> <s_lp_Force_Field>
OPLS_2005

> <r_lp_Energy>
27.1625

> <b_lp_Chiralities_Consistent>
1

> <s_lp_Variant>
AV-unprocessed.smi:613-3

> <Gold.Version>
5.8.1

> <Gold.Id.Protein>
6NUR|6NUR_protein|mol2

> <Gold.PLP.Fitness>
46.8628

> <Gold.PLP.PLP>
-34.2086

> <Gold.PLP.part.hbond>
-4.0000

> <Gold.PLP.part.metal>
0.0000

> <Gold.PLP.part.buried>
-3.4006

> <Gold.PLP.part.nonpolar>
-29.9882

> <Gold.PLP.part.repulsive>
1.6273

> <Gold.PLP.ligand.clash>
0.0000

> <Gold.PLP.ligand.torsion>
1.1215

> <Gold.PLP.Chemscore.Hbond>
3.9520

> <Gold.PLP.Chemscore.CHOScore>
0.9351

> <Gold.PLP.Chemscore.Metal>
0.0000

> <Gold.Chemscore.Hbonds>
donor molecule, donor type, donor heavy atom, donor atom, acceptor molecule, acceptor atom, score
      L1  H     9    31       P1  8028  1.00
      L1  H    19    39       P1  7948  1.92
      P1  H  7997  8008       L1    13  1.00
      L1  C    17    38       P1 10175  0.44

> <Gold.PLP.Chemscore.Internal.Correction>
0.2360

> <Gold.Rescore>
     Score         DG    S(hbond)    S(metal)    S(lipo)     H(rot)  DE(clash)    DE(int)     intcor
     11.78     -14.88       2.36        0.00      62.01       2.23       0.48       2.62       ----

> <Gold.Chemscore.Fitness>
11.7755

> <Gold.Chemscore.DG>
-14.8835

> <Gold.Chemscore.ZeroCoef>
-5.4800

> <Gold.Chemscore.Hbond>
2.3561

> <Gold.Chemscore.Metal>
0.0000

> <Gold.Chemscore.Lipo>
62.0111

> <Gold.Chemscore.Internal_Hbond>
0.0000

> <Gold.Chemscore.DEClash>
0.4832

> <Gold.Chemscore.DEInternal>
2.6248

> <Gold.Chemscore.Rot>
2.2348

> <Gold.Chemscore.Internal.Correction>
   9.000000E+99

> <Gold.Chemscore.Hbonds>
donor molecule, donor type, donor heavy atom, donor atom, acceptor molecule, acceptor atom, score
      L1  H     9    31       P1  8028  0.78
      L1  H    19    39       P1  7948  0.91
      P1  H  7997  8008       L1    13  0.40

> <Gold.Chemscore.Hbond.Weighted>
-7.8693

> <Gold.Chemscore.Metal.Weighted>
-0.0000

> <Gold.Chemscore.Lipo.Weighted>
-7.2553

> <Gold.Chemscore.Internal_Hbond.Weighted>
0.0000

> <Gold.Chemscore.DEClash.Weighted>
0.4832

> <Gold.Chemscore.DEInternal.Weighted>
2.6248

> <Gold.Chemscore.Rot.Weighted>
5.7211

> <Gold.Chemscore.Internal.Correction.Weighted>
   9.000000E+99

> <Gold.Protein.RotatedTorsions>
[ 6907 6896 6895 6894 ] final -152.77 input  -60.11 | X-H torsion
[ 7974 7965 7964 7962 ] final -163.98 input  175.53 | X-H torsion
[ 8008 7997 7996 7995 ] final  -72.09 input   59.86 | X-H torsion
[ 10167 10162 10161 10158 ] final -133.02 input  -65.29 | X-H torsion
[ 10718 10713 10712 10709 ] final   90.81 input   66.30 | X-H torsion
[ 10763 10752 10751 10750 ] final   74.94 input  -60.55 | X-H torsion
[ 11005 11000 10999 10996 ] final   76.03 input  -57.11 | X-H torsion

> <Gold.Protein.ActiveResidues>
 VAL166  LYS551  ARG553  GLY616  TRP617  ASP618  TYR619  PRO620  LYS621  CYS622 
 ASP623  PHE694  ASN695  SER759  ASP760  ASP761  ALA762  ILE779  LEU786  VAL792 
 PHE793  MET794  SER795  GLU796  ALA797  LYS798  CYS799  TRP800  GLU811  SER814 

> <Gold.Protein.RotatedAtoms>
  151.2327  133.4441  159.2604 H   0  0  0  0  0  0  0  0  0  0  0  0  # atno 6907 bound_to 6896
  151.0779  134.9840  159.8351 H   0  0  0  0  0  0  0  0  0  0  0  0  # atno 6908 bound_to 6896
  152.5420  134.2268  159.8862 H   0  0  0  0  0  0  0  0  0  0  0  0  # atno 6909 bound_to 6896
  144.7310  140.3028  143.6201 H   0  0  0  0  0  0  0  0  0  0  0  0  # atno 7974 bound_to 7965
  154.5139  140.0803  156.8043 H   0  0  0  0  0  0  0  0  0  0  0  0  # atno 8008 bound_to 7997
  155.3724  140.3423  155.4225 H   0  0  0  0  0  0  0  0  0  0  0  0  # atno 8009 bound_to 7997
  156.1605  140.1587  156.8607 H   0  0  0  0  0  0  0  0  0  0  0  0  # atno 8010 bound_to 7997
  139.9026  143.6590  152.2592 H   0  0  0  0  0  0  0  0  0  0  0  0  # atno 10167 bound_to 10162
  157.6959  131.0384  150.3634 H   0  0  0  0  0  0  0  0  0  0  0  0  # atno 10718 bound_to 10713
  153.0620  135.5007  154.8116 H   0  0  0  0  0  0  0  0  0  0  0  0  # atno 10763 bound_to 10752
  154.6898  135.2982  154.9498 H   0  0  0  0  0  0  0  0  0  0  0  0  # atno 10764 bound_to 10752
  154.0257  135.6736  153.4829 H   0  0  0  0  0  0  0  0  0  0  0  0  # atno 10765 bound_to 10752
  139.9317  134.7567  156.1344 H   0  0  0  0  0  0  0  0  0  0  0  0  # atno 11005 bound_to 11000
  145.7743  139.1868  143.2194 LP  0  0  0  0  0  0  0  0  0  0  0  0  # atno 17320 bound_to 7965
  146.0885  140.7683  142.9607 LP  0  0  0  0  0  0  0  0  0  0  0  0  # atno 17321 bound_to 7965
  139.7012  144.7634  151.1270 LP  0  0  0  0  0  0  0  0  0  0  0  0  # atno 17342 bound_to 10162
  140.7703  143.5455  150.9263 LP  0  0  0  0  0  0  0  0  0  0  0  0  # atno 17343 bound_to 10162
  156.4067  130.3926  149.6920 LP  0  0  0  0  0  0  0  0  0  0  0  0  # atno 17370 bound_to 10713
  156.4219  130.7773  151.2790 LP  0  0  0  0  0  0  0  0  0  0  0  0  # atno 17371 bound_to 10713
  141.0909  133.6715  156.2538 LP  0  0  0  0  0  0  0  0  0  0  0  0  # atno 17394 bound_to 11000
  140.6185  134.5386  157.5544 LP  0  0  0  0  0  0  0  0  0  0  0  0  # atno 17395 bound_to 11000

$$$$
