AV-unprocessed.smi:702|AV-procd|sdf|3424|dock7
  -GOLD-   22720 0403D 1   1.00000     0.00000
 Structure written by MMmdl.
 50 52  0  0  0  0  0  0  0  0  4 V2000
  146.2140  137.0786  155.4854 C   0  0  0  0  0  0  0  0  0  0  0  0
  146.4781  137.8978  154.2068 C   0  0  2  0  0  0  0  0  0  0  0  0
  146.6057  136.9673  153.0752 N   0  5  0  0  0  0  0  0  0  0  0  0
  145.7480  135.9500  152.7936 C   0  0  0  0  0  0  0  0  0  0  0  0
  144.5442  135.8827  153.0660 O   0  0  0  0  0  0  0  0  0  0  0  0
  146.3492  134.9527  152.1210 N   0  0  0  0  0  0  0  0  0  0  0  0
  145.7975  133.7251  151.6667 C   0  0  0  0  0  0  0  0  0  0  0  0
  146.6678  132.8015  151.0471 C   0  0  0  0  0  0  0  0  0  0  0  0
  146.1623  131.5639  150.6000 C   0  0  0  0  0  0  0  0  0  0  0  0
  144.8573  131.2660  150.7791 N   0  3  0  0  0  0  0  0  0  0  0  0
  143.9921  132.1088  151.3830 C   0  0  0  0  0  0  0  0  0  0  0  0
  144.4396  133.3609  151.8506 C   0  0  0  0  0  0  0  0  0  0  0  0
  147.7501  138.8491  154.3246 C   0  0  0  0  0  0  0  0  0  0  0  0
  149.0437  138.0337  154.3291 N   0  3  0  0  0  0  0  0  0  0  0  0
  150.3193  138.8134  154.2967 C   0  0  0  0  0  0  0  0  0  0  0  0
  151.5051  137.8916  153.9742 C   0  0  0  0  0  0  0  0  0  0  0  0
  151.6114  136.8949  154.9795 O   0  0  0  0  0  0  0  0  0  0  0  0
  150.4433  136.0908  155.0453 C   0  0  0  0  0  0  0  0  0  0  0  0
  149.2182  136.9633  155.3709 C   0  0  0  0  0  0  0  0  0  0  0  0
  147.7576  139.8790  153.1298 C   0  0  0  0  0  0  0  0  0  0  0  0
  147.8672  141.2952  153.7145 C   0  0  0  0  0  0  0  0  0  0  0  0
  148.2470  141.1377  155.1823 C   0  0  0  0  0  0  0  0  0  0  0  0
  147.6980  139.7683  155.5922 C   0  0  0  0  0  0  0  0  0  0  0  0
  146.0626  137.7232  156.3509 H   0  0  0  0  0  0  0  0  0  0  0  0
  147.0387  136.4037  155.7157 H   0  0  0  0  0  0  0  0  0  0  0  0
  145.3141  136.4715  155.3808 H   0  0  0  0  0  0  0  0  0  0  0  0
  145.6111  138.5405  154.0598 H   0  0  0  0  0  0  0  0  0  0  0  0
  147.3026  135.1339  151.8422 H   0  0  0  0  0  0  0  0  0  0  0  0
  147.7120  133.0410  150.9069 H   0  0  0  0  0  0  0  0  0  0  0  0
  146.7586  130.8086  150.1096 H   0  0  0  0  0  0  0  0  0  0  0  0
  142.9756  131.7565  151.4799 H   0  0  0  0  0  0  0  0  0  0  0  0
  143.7419  134.0153  152.3511 H   0  0  0  0  0  0  0  0  0  0  0  0
  150.3222  139.6213  153.5704 H   0  0  0  0  0  0  0  0  0  0  0  0
  150.4925  139.2726  155.2699 H   0  0  0  0  0  0  0  0  0  0  0  0
  151.3904  137.4329  152.9908 H   0  0  0  0  0  0  0  0  0  0  0  0
  152.4317  138.4656  153.9537 H   0  0  0  0  0  0  0  0  0  0  0  0
  150.3004  135.5580  154.1036 H   0  0  0  0  0  0  0  0  0  0  0  0
  150.5822  135.3356  155.8191 H   0  0  0  0  0  0  0  0  0  0  0  0
  149.3419  137.4094  156.3577 H   0  0  0  0  0  0  0  0  0  0  0  0
  148.3766  136.2788  155.4472 H   0  0  0  0  0  0  0  0  0  0  0  0
  148.5512  139.6802  152.4116 H   0  0  0  0  0  0  0  0  0  0  0  0
  146.8690  139.8772  152.4937 H   0  0  0  0  0  0  0  0  0  0  0  0
  148.5806  141.9141  153.1700 H   0  0  0  0  0  0  0  0  0  0  0  0
  146.8951  141.7858  153.6479 H   0  0  0  0  0  0  0  0  0  0  0  0
  149.3292  141.1735  155.2921 H   0  0  0  0  0  0  0  0  0  0  0  0
  147.8419  141.9419  155.7972 H   0  0  0  0  0  0  0  0  0  0  0  0
  146.6837  139.9462  155.9554 H   0  0  0  0  0  0  0  0  0  0  0  0
  148.2380  139.3667  156.4484 H   0  0  0  0  0  0  0  0  0  0  0  0
  149.0123  137.5393  153.4492 H   0  0  0  0  0  0  0  0  0  0  0  0
  144.5119  130.3645  150.4494 H   0  0  0  0  0  0  0  0  0  0  0  0
  1  2  1  0  0  0  0
  1 24  1  0  0  0  0
  1 25  1  0  0  0  0
  1 26  1  0  0  0  0
  2  3  1  0  0  0  0
  2 13  1  0  0  0  0
  2 27  1  0  0  0  0
  3  4  1  0  0  0  0
  4  5  2  0  0  0  0
  4  6  1  0  0  0  0
  6  7  1  0  0  0  0
  6 28  1  0  0  0  0
  7 12  1  0  0  0  0
  7  8  2  0  0  0  0
  8  9  1  0  0  0  0
  8 29  1  0  0  0  0
  9 10  2  0  0  0  0
  9 30  1  0  0  0  0
 10 11  1  0  0  0  0
 10 50  1  0  0  0  0
 11 12  2  0  0  0  0
 11 31  1  0  0  0  0
 12 32  1  0  0  0  0
 13 23  1  0  0  0  0
 13 14  1  0  0  0  0
 13 20  1  0  0  0  0
 14 19  1  0  0  0  0
 14 15  1  0  0  0  0
 14 49  1  0  0  0  0
 15 16  1  0  0  0  0
 15 33  1  0  0  0  0
 15 34  1  0  0  0  0
 16 17  1  0  0  0  0
 16 35  1  0  0  0  0
 16 36  1  0  0  0  0
 17 18  1  0  0  0  0
 18 19  1  0  0  0  0
 18 37  1  0  0  0  0
 18 38  1  0  0  0  0
 19 39  1  0  0  0  0
 19 40  1  0  0  0  0
 20 21  1  0  0  0  0
 20 41  1  0  0  0  0
 20 42  1  0  0  0  0
 21 22  1  0  0  0  0
 21 43  1  0  0  0  0
 21 44  1  0  0  0  0
 22 23  1  0  0  0  0
 22 45  1  0  0  0  0
 22 46  1  0  0  0  0
 23 47  1  0  0  0  0
 23 48  1  0  0  0  0
M  CHG  1   3  -1
M  CHG  1  10   1
M  CHG  1  14   1
M  END
> <s_m_source_file>
AV-unprocessed.smi

> <i_m_source_file_index>
702

> <i_lp_mmshare_version>
43012

> <i_f3d_flags>
0

> <s_epik_input>
W0NIMl0xW0NIMl1PW0NIMl1bQ0gyXU4xQzIoW0NIMl1bQ0gyXVtDSDJdW0NIMl0yKVtDQEhdKFtDSDNdKVtOSF1DKD1PKVtOSF1jM1tjSF1bY0hdbltjSF1bY0hdMw==

> <s_epik_cmdline>
J2VwaWtfcHl0aG9uJywgJy1waCcsICc3LjAnLCAnLXRuJywgJzgnLCAnLW1hJywgJzIwMCcsICctbWV0YWxfYmluZGluZycsICctaW1hZScsICc8aW5maWxlLm1hZT4nLCAnLW9tYWUnLCAnPG91dGZpbGUubWFlPic=

> <r_epik_Ionization_Penalty>
8.33674

> <r_epik_Ionization_Penalty_Charging>
8.33674

> <r_epik_Ionization_Penalty_Neutral>
3.60854e-06

> <r_epik_State_Penalty>
8.24268

> <r_epik_Charging_Adjusted_Penalty>
16.5794

> <i_epik_Tot_Q>
1

> <i_epik_Tot_abs_Q>
3

> <r_epik_Metal_State_Penalty>
4.24853

> <b_epik_Metal_Only>
1

> <s_lp_Force_Field>
OPLS_2005

> <r_lp_Energy>
64.6776

> <b_lp_Chiralities_Consistent>
1

> <s_lp_Variant>
AV-unprocessed.smi:702-9

> <Gold.Version>
5.8.1

> <Gold.Id.Protein>
6NUR|6NUR_protein|mol2

> <Gold.PLP.Fitness>
43.7468

> <Gold.PLP.PLP>
-32.4171

> <Gold.PLP.part.hbond>
-3.0000

> <Gold.PLP.part.metal>
0.0000

> <Gold.PLP.part.buried>
-2.8949

> <Gold.PLP.part.nonpolar>
-29.3883

> <Gold.PLP.part.repulsive>
2.6821

> <Gold.PLP.ligand.clash>
0.0000

> <Gold.PLP.ligand.torsion>
0.4300

> <Gold.PLP.Chemscore.Hbond>
3.9825

> <Gold.PLP.Chemscore.CHOScore>
0.0000

> <Gold.PLP.Chemscore.Metal>
0.0000

> <Gold.Chemscore.Hbonds>
donor molecule, donor type, donor heavy atom, donor atom, acceptor molecule, acceptor atom, score
      L1  H     6    28       P1  7948  1.00
      L1  H    14    49       P1  7948  1.95
      P1  H 10752 10763       L1    17  1.00

> <Gold.PLP.Chemscore.Internal.Correction>
0.2422

> <Gold.Rescore>
     Score         DG    S(hbond)    S(metal)    S(lipo)     H(rot)  DE(clash)    DE(int)     intcor
     17.54     -20.79       2.66        0.00      86.72       1.45       1.23       2.02       ----

> <Gold.Chemscore.Fitness>
17.5418

> <Gold.Chemscore.DG>
-20.7912

> <Gold.Chemscore.ZeroCoef>
-5.4800

> <Gold.Chemscore.Hbond>
2.6579

> <Gold.Chemscore.Metal>
0.0000

> <Gold.Chemscore.Lipo>
86.7246

> <Gold.Chemscore.Internal_Hbond>
0.0000

> <Gold.Chemscore.DEClash>
1.2301

> <Gold.Chemscore.DEInternal>
2.0193

> <Gold.Chemscore.Rot>
1.4504

> <Gold.Chemscore.Internal.Correction>
   9.000000E+99

> <Gold.Chemscore.Hbonds>
donor molecule, donor type, donor heavy atom, donor atom, acceptor molecule, acceptor atom, score
      L1  H     6    28       P1  7948  0.93
      L1  H    14    49       P1  7948  0.92
      P1  H 10752 10763       L1    17  0.28

> <Gold.Chemscore.Hbond.Weighted>
-8.8773

> <Gold.Chemscore.Metal.Weighted>
-0.0000

> <Gold.Chemscore.Lipo.Weighted>
-10.1468

> <Gold.Chemscore.Internal_Hbond.Weighted>
0.0000

> <Gold.Chemscore.DEClash.Weighted>
1.2301

> <Gold.Chemscore.DEInternal.Weighted>
2.0193

> <Gold.Chemscore.Rot.Weighted>
3.7129

> <Gold.Chemscore.Internal.Correction.Weighted>
   9.000000E+99

> <Gold.Protein.RotatedTorsions>
[ 6907 6896 6895 6894 ] final   88.67 input  -60.11 | X-H torsion
[ 7974 7965 7964 7962 ] final  -84.81 input  175.53 | X-H torsion
[ 8008 7997 7996 7995 ] final -178.83 input   59.86 | X-H torsion
[ 10167 10162 10161 10158 ] final  -67.78 input  -65.29 | X-H torsion
[ 10718 10713 10712 10709 ] final  168.95 input   66.30 | X-H torsion
[ 10763 10752 10751 10750 ] final   58.07 input  -60.55 | X-H torsion
[ 11005 11000 10999 10996 ] final    5.04 input  -57.11 | X-H torsion

> <Gold.Protein.ActiveResidues>
 VAL166  LYS551  ARG553  GLY616  TRP617  ASP618  TYR619  PRO620  LYS621  CYS622 
 ASP623  PHE694  ASN695  SER759  ASP760  ASP761  ALA762  ILE779  LEU786  VAL792 
 PHE793  MET794  SER795  GLU796  ALA797  LYS798  CYS799  TRP800  GLU811  SER814 

> <Gold.Protein.RotatedAtoms>
  152.5428  134.2086  159.8740 H   0  0  0  0  0  0  0  0  0  0  0  0  # atno 6907 bound_to 6896
  151.2070  133.4571  159.2605 H   0  0  0  0  0  0  0  0  0  0  0  0  # atno 6908 bound_to 6896
  151.0934  134.9942  159.8469 H   0  0  0  0  0  0  0  0  0  0  0  0  # atno 6909 bound_to 6896
  145.5016  140.9546  143.1756 H   0  0  0  0  0  0  0  0  0  0  0  0  # atno 7974 bound_to 7965
  156.0234  140.1266  157.0334 H   0  0  0  0  0  0  0  0  0  0  0  0  # atno 8008 bound_to 7997
  154.4320  140.1064  156.6066 H   0  0  0  0  0  0  0  0  0  0  0  0  # atno 8009 bound_to 7997
  155.5912  140.3469  155.4569 H   0  0  0  0  0  0  0  0  0  0  0  0  # atno 8010 bound_to 7997
  140.5557  143.2312  151.6825 H   0  0  0  0  0  0  0  0  0  0  0  0  # atno 10167 bound_to 10162
  157.0296  131.0256  151.2748 H   0  0  0  0  0  0  0  0  0  0  0  0  # atno 10718 bound_to 10713
  152.9863  135.5619  154.5493 H   0  0  0  0  0  0  0  0  0  0  0  0  # atno 10763 bound_to 10752
  154.4933  135.2794  155.1481 H   0  0  0  0  0  0  0  0  0  0  0  0  # atno 10764 bound_to 10752
  154.2942  135.6320  153.5450 H   0  0  0  0  0  0  0  0  0  0  0  0  # atno 10765 bound_to 10752
  140.5752  134.0065  155.8024 H   0  0  0  0  0  0  0  0  0  0  0  0  # atno 11005 bound_to 11000
  144.7776  139.6595  143.7168 LP  0  0  0  0  0  0  0  0  0  0  0  0  # atno 17320 bound_to 7965
  146.2222  139.5657  142.9611 LP  0  0  0  0  0  0  0  0  0  0  0  0  # atno 17321 bound_to 7965
  139.5047  144.3745  152.0438 LP  0  0  0  0  0  0  0  0  0  0  0  0  # atno 17342 bound_to 10162
  140.2866  144.3800  150.6102 LP  0  0  0  0  0  0  0  0  0  0  0  0  # atno 17343 bound_to 10162
  157.5187  130.7984  149.7785 LP  0  0  0  0  0  0  0  0  0  0  0  0  # atno 17370 bound_to 10713
  156.0074  130.3849  150.2383 LP  0  0  0  0  0  0  0  0  0  0  0  0  # atno 17371 bound_to 10713
  141.1031  133.9736  157.3044 LP  0  0  0  0  0  0  0  0  0  0  0  0  # atno 17394 bound_to 11000
  139.9343  135.0198  156.8504 LP  0  0  0  0  0  0  0  0  0  0  0  0  # atno 17395 bound_to 11000

$$$$
