AV-unprocessed.smi:1164|AV-procd|sdf|4926|dock2
  -GOLD-   22720 3503D 1   1.00000     0.00000
 Structure written by MMmdl.
 30 30  0  0  0  0  0  0  0  0  2 V2000
  152.8324  144.6409  157.9737 C   0  0  0  0  0  0  0  0  0  0  0  0
  151.5581  144.0457  158.5986 C   0  0  0  0  0  0  0  0  0  0  0  0
  151.9623  143.0613  159.7167 C   0  0  0  0  0  0  0  0  0  0  0  0
  150.6961  145.1921  159.1684 C   0  0  0  0  0  0  0  0  0  0  0  0
  150.8433  143.3466  157.5242 N   0  0  0  0  0  0  0  0  0  0  0  0
  150.9710  142.0682  157.1260 C   0  0  0  0  0  0  0  0  0  0  0  0
  151.7569  141.2691  157.6373 O   0  0  0  0  0  0  0  0  0  0  0  0
  150.0613  141.6518  155.9589 C   0  0  0  0  0  0  0  0  0  0  0  0
  150.2820  140.2788  155.4809 N   0  0  0  0  0  0  0  0  0  0  0  0
  151.6833  139.9637  155.2179 N   0  5  0  0  0  0  0  0  0  0  0  0
  152.0129  138.7157  154.7913 C   0  0  0  0  0  0  0  0  0  0  0  0
  153.1715  138.3719  154.5682 O   0  0  0  0  0  0  0  0  0  0  0  0
  150.9402  137.7557  154.5897 C   0  0  0  0  0  0  0  0  0  0  0  0
  149.6527  138.0813  154.8186 C   0  0  0  0  0  0  0  0  0  0  0  0
  149.2541  139.4041  155.2840 C   0  0  0  0  0  0  0  0  0  0  0  0
  148.0792  139.7107  155.4879 O   0  0  0  0  0  0  0  0  0  0  0  0
  153.4202  145.1861  158.7129 H   0  0  0  0  0  0  0  0  0  0  0  0
  152.5939  145.3366  157.1680 H   0  0  0  0  0  0  0  0  0  0  0  0
  153.4724  143.8622  157.5567 H   0  0  0  0  0  0  0  0  0  0  0  0
  152.5309  142.2202  159.3182 H   0  0  0  0  0  0  0  0  0  0  0  0
  151.0964  142.6555  160.2394 H   0  0  0  0  0  0  0  0  0  0  0  0
  152.5849  143.5521  160.4653 H   0  0  0  0  0  0  0  0  0  0  0  0
  151.2534  145.7748  159.9026 H   0  0  0  0  0  0  0  0  0  0  0  0
  149.8005  144.8225  159.6678 H   0  0  0  0  0  0  0  0  0  0  0  0
  150.3758  145.8765  158.3818 H   0  0  0  0  0  0  0  0  0  0  0  0
  150.1672  143.9030  157.0214 H   0  0  0  0  0  0  0  0  0  0  0  0
  149.0198  141.7685  156.2639 H   0  0  0  0  0  0  0  0  0  0  0  0
  150.2074  142.3638  155.1446 H   0  0  0  0  0  0  0  0  0  0  0  0
  151.1813  136.7605  154.2464 H   0  0  0  0  0  0  0  0  0  0  0  0
  148.8880  137.3370  154.6542 H   0  0  0  0  0  0  0  0  0  0  0  0
  1  2  1  0  0  0  0
  1 17  1  0  0  0  0
  1 18  1  0  0  0  0
  1 19  1  0  0  0  0
  2  3  1  0  0  0  0
  2  4  1  0  0  0  0
  2  5  1  0  0  0  0
  3 20  1  0  0  0  0
  3 21  1  0  0  0  0
  3 22  1  0  0  0  0
  4 23  1  0  0  0  0
  4 24  1  0  0  0  0
  4 25  1  0  0  0  0
  5  6  1  0  0  0  0
  5 26  1  0  0  0  0
  6  7  2  0  0  0  0
  6  8  1  0  0  0  0
  8 27  1  0  0  0  0
  8 28  1  0  0  0  0
  8  9  1  0  0  0  0
  9 10  1  0  0  0  0
  9 15  1  0  0  0  0
 10 11  1  0  0  0  0
 11 12  2  0  0  0  0
 11 13  1  0  0  0  0
 13 29  1  0  0  0  0
 13 14  2  0  0  0  0
 14 30  1  0  0  0  0
 14 15  1  0  0  0  0
 15 16  2  0  0  0  0
M  CHG  1  10  -1
M  END
> <s_m_source_file>
AV-unprocessed.smi

> <i_m_source_file_index>
1164

> <i_lp_mmshare_version>
43012

> <i_f3d_flags>
0

> <s_epik_input>
W0NIM11DKFtDSDNdKShbQ0gzXSlbTkhdQyg9TylbQ0gyXW4xW25IXWMoPU8pW2NIXVtjSF1jMT1P

> <s_epik_cmdline>
J2VwaWtfcHl0aG9uJywgJy1waCcsICc3LjAnLCAnLXRuJywgJzgnLCAnLW1hJywgJzIwMCcsICctbWV0YWxfYmluZGluZycsICctaW1hZScsICc8aW5maWxlLm1hZT4nLCAnLW9tYWUnLCAnPG91dGZpbGUubWFlPic=

> <r_lp_tautomer_probability>
1

> <r_epik_Ionization_Penalty>
0.098909

> <r_epik_Ionization_Penalty_Charging>
0.0989089

> <r_epik_Ionization_Penalty_Neutral>
2.46306e-08

> <r_epik_State_Penalty>
0.0348838

> <r_epik_Charging_Adjusted_Penalty>
0.133793

> <i_epik_Tot_Q>
-1

> <i_epik_Tot_abs_Q>
1

> <r_epik_Metal_State_Penalty>
0.0348839

> <b_epik_Metal_Only>
0

> <s_lp_Force_Field>
OPLS_2005

> <r_lp_Energy>
18.541

> <b_lp_Chiralities_Consistent>
1

> <s_lp_Variant>
AV-unprocessed.smi:1164-1

> <Gold.Version>
5.8.1

> <Gold.Id.Protein>
6NUR|6NUR_protein|mol2

> <Gold.PLP.Fitness>
39.0600

> <Gold.PLP.PLP>
-35.7288

> <Gold.PLP.part.hbond>
-2.0483

> <Gold.PLP.part.metal>
0.0000

> <Gold.PLP.part.buried>
-5.2276

> <Gold.PLP.part.nonpolar>
-28.8037

> <Gold.PLP.part.repulsive>
0.0849

> <Gold.PLP.ligand.clash>
0.0000

> <Gold.PLP.ligand.torsion>
0.6811

> <Gold.PLP.Chemscore.Hbond>
1.5616

> <Gold.PLP.Chemscore.CHOScore>
0.0000

> <Gold.PLP.Chemscore.Metal>
0.0000

> <Gold.Chemscore.Hbonds>
donor molecule, donor type, donor heavy atom, donor atom, acceptor molecule, acceptor atom, score
      L1  H     5    26       P1  8028  1.00
      P1  H  7989  7998       L1    10  0.61

> <Gold.PLP.Chemscore.Internal.Correction>
0.0085

> <Gold.Rescore>
     Score         DG    S(hbond)    S(metal)    S(lipo)     H(rot)  DE(clash)    DE(int)     intcor
     10.30     -13.36       1.50        0.00      61.69       1.70       0.03       3.03       ----

> <Gold.Chemscore.Fitness>
10.3016

> <Gold.Chemscore.DG>
-13.3629

> <Gold.Chemscore.ZeroCoef>
-5.4800

> <Gold.Chemscore.Hbond>
1.4983

> <Gold.Chemscore.Metal>
0.0000

> <Gold.Chemscore.Lipo>
61.6915

> <Gold.Chemscore.Internal_Hbond>
0.0000

> <Gold.Chemscore.DEClash>
0.0275

> <Gold.Chemscore.DEInternal>
3.0338

> <Gold.Chemscore.Rot>
1.6950

> <Gold.Chemscore.Internal.Correction>
   9.000000E+99

> <Gold.Chemscore.Hbonds>
donor molecule, donor type, donor heavy atom, donor atom, acceptor molecule, acceptor atom, score
      L1  H     5    26       P1  8028  0.91
      P1  H  7989  7998       L1    10  0.01

> <Gold.Chemscore.Hbond.Weighted>
-5.0043

> <Gold.Chemscore.Metal.Weighted>
-0.0000

> <Gold.Chemscore.Lipo.Weighted>
-7.2179

> <Gold.Chemscore.Internal_Hbond.Weighted>
0.0000

> <Gold.Chemscore.DEClash.Weighted>
0.0275

> <Gold.Chemscore.DEInternal.Weighted>
3.0338

> <Gold.Chemscore.Rot.Weighted>
4.3393

> <Gold.Chemscore.Internal.Correction.Weighted>
   9.000000E+99

> <Gold.Protein.RotatedTorsions>
[ 6907 6896 6895 6894 ] final  174.95 input  -60.11 | X-H torsion
[ 7974 7965 7964 7962 ] final  -95.90 input  175.53 | X-H torsion
[ 8008 7997 7996 7995 ] final  150.02 input   59.86 | X-H torsion
[ 10167 10162 10161 10158 ] final  -29.53 input  -65.29 | X-H torsion
[ 10718 10713 10712 10709 ] final  174.84 input   66.30 | X-H torsion
[ 10763 10752 10751 10750 ] final   17.43 input  -60.55 | X-H torsion
[ 11005 11000 10999 10996 ] final -124.19 input  -57.11 | X-H torsion

> <Gold.Protein.ActiveResidues>
 VAL166  LYS551  ARG553  GLY616  TRP617  ASP618  TYR619  PRO620  LYS621  CYS622 
 ASP623  PHE694  ASN695  SER759  ASP760  ASP761  ALA762  ILE779  LEU786  VAL792 
 PHE793  MET794  SER795  GLU796  ALA797  LYS798  CYS799  TRP800  GLU811  SER814 

> <Gold.Protein.RotatedAtoms>
  151.7441  133.3323  159.3373 H   0  0  0  0  0  0  0  0  0  0  0  0  # atno 6907 bound_to 6896
  150.7561  134.6251  159.6166 H   0  0  0  0  0  0  0  0  0  0  0  0  # atno 6908 bound_to 6896
  152.3511  134.7006  160.0287 H   0  0  0  0  0  0  0  0  0  0  0  0  # atno 6909 bound_to 6896
  145.3540  140.9481  143.2538 H   0  0  0  0  0  0  0  0  0  0  0  0  # atno 7974 bound_to 7965
  156.2732  140.2086  156.5951 H   0  0  0  0  0  0  0  0  0  0  0  0  # atno 8008 bound_to 7997
  154.6951  140.0526  157.0426 H   0  0  0  0  0  0  0  0  0  0  0  0  # atno 8009 bound_to 7997
  155.0812  140.3187  155.4604 H   0  0  0  0  0  0  0  0  0  0  0  0  # atno 8010 bound_to 7997
  140.7259  143.3921  151.1411 H   0  0  0  0  0  0  0  0  0  0  0  0  # atno 10167 bound_to 10162
  156.9437  131.0009  151.2963 H   0  0  0  0  0  0  0  0  0  0  0  0  # atno 10718 bound_to 10713
  153.1340  135.6746  153.9133 H   0  0  0  0  0  0  0  0  0  0  0  0  # atno 10763 bound_to 10752
  153.8611  135.3081  155.3439 H   0  0  0  0  0  0  0  0  0  0  0  0  # atno 10764 bound_to 10752
  154.7731  135.4928  153.9772 H   0  0  0  0  0  0  0  0  0  0  0  0  # atno 10765 bound_to 10752
  140.9861  134.0605  157.3710 H   0  0  0  0  0  0  0  0  0  0  0  0  # atno 11005 bound_to 11000
  144.8696  139.5057  143.6774 LP  0  0  0  0  0  0  0  0  0  0  0  0  # atno 17320 bound_to 7965
  146.2956  139.7268  142.9129 LP  0  0  0  0  0  0  0  0  0  0  0  0  # atno 17321 bound_to 7965
  139.7528  143.8752  152.3081 LP  0  0  0  0  0  0  0  0  0  0  0  0  # atno 17342 bound_to 10162
  139.8612  144.7116  150.9097 LP  0  0  0  0  0  0  0  0  0  0  0  0  # atno 17343 bound_to 10162
  157.5768  130.8348  149.8466 LP  0  0  0  0  0  0  0  0  0  0  0  0  # atno 17370 bound_to 10713
  156.0393  130.3743  150.1477 LP  0  0  0  0  0  0  0  0  0  0  0  0  # atno 17371 bound_to 10713
  139.8971  135.0149  156.7084 LP  0  0  0  0  0  0  0  0  0  0  0  0  # atno 17394 bound_to 11000
  140.7113  133.9221  155.8086 LP  0  0  0  0  0  0  0  0  0  0  0  0  # atno 17395 bound_to 11000

$$$$
