AV-unprocessed.smi:1723|AV-procd|sdf|6946|dock10
  -GOLD-   22720 8153D 1   1.00000     0.00000
 Structure written by MMmdl.
 38 38  0  0  0  0  0  0  0  0  1 V2000
  152.1733  145.8761  159.8856 C   0  0  0  0  0  0  0  0  0  0  0  0
  152.1897  144.4435  160.4297 C   0  0  0  0  0  0  0  0  0  0  0  0
  153.4937  143.7031  160.1001 C   0  0  0  0  0  0  0  0  0  0  0  0
  153.6672  142.4207  160.9216 C   0  0  0  0  0  0  0  0  0  0  0  0
  152.7191  141.4609  160.4691 O   0  0  0  0  0  0  0  0  0  0  0  0
  152.7133  141.2191  159.0643 C   0  0  1  0  0  0  0  0  0  0  0  0
  153.3634  139.8477  158.8293 C   0  0  0  0  0  0  0  0  0  0  0  0
  151.2742  141.2542  158.5250 C   0  0  0  0  0  0  0  0  0  0  0  0
  150.3517  141.5622  159.2796 O   0  0  0  0  0  0  0  0  0  0  0  0
  151.1345  140.9326  157.2238 N   0  0  0  0  0  0  0  0  0  0  0  0
  149.9759  140.9429  156.4303 C   0  0  0  0  0  0  0  0  0  0  0  0
  148.7845  141.4722  156.8122 C   0  0  0  0  0  0  0  0  0  0  0  0
  147.6235  141.4692  155.9382 C   0  0  0  0  0  0  0  0  0  0  0  0
  146.3132  142.1180  156.3567 C   0  0  0  0  0  0  0  0  0  0  0  0
  146.4249  142.7168  157.5431 F   0  0  0  0  0  0  0  0  0  0  0  0
  145.9559  143.0361  155.4602 F   0  0  0  0  0  0  0  0  0  0  0  0
  145.3369  141.2134  156.4352 F   0  0  0  0  0  0  0  0  0  0  0  0
  147.7963  140.9390  154.7130 C   0  0  0  0  0  0  0  0  0  0  0  0
  149.0181  140.3925  154.3129 N   0  0  0  0  0  0  0  0  0  0  0  0
  150.1266  140.3616  155.0863 C   0  0  0  0  0  0  0  0  0  0  0  0
  151.1703  139.8707  154.6576 O   0  0  0  0  0  0  0  0  0  0  0  0
  149.0647  140.0044  153.3818 H   0  0  0  0  0  0  0  0  0  0  0  0
  151.2363  146.3755  160.1334 H   0  0  0  0  0  0  0  0  0  0  0  0
  152.2790  145.8865  158.8004 H   0  0  0  0  0  0  0  0  0  0  0  0
  152.9867  146.4667  160.3079 H   0  0  0  0  0  0  0  0  0  0  0  0
  152.0471  144.4696  161.5106 H   0  0  0  0  0  0  0  0  0  0  0  0
  151.3422  143.8934  160.0196 H   0  0  0  0  0  0  0  0  0  0  0  0
  153.5161  143.4579  159.0376 H   0  0  0  0  0  0  0  0  0  0  0  0
  154.3428  144.3629  160.2829 H   0  0  0  0  0  0  0  0  0  0  0  0
  154.6868  142.0511  160.8073 H   0  0  0  0  0  0  0  0  0  0  0  0
  153.5079  142.6288  161.9808 H   0  0  0  0  0  0  0  0  0  0  0  0
  153.3192  141.9767  158.5631 H   0  0  0  0  0  0  0  0  0  0  0  0
  153.3781  139.5925  157.7691 H   0  0  0  0  0  0  0  0  0  0  0  0
  152.8327  139.0549  159.3583 H   0  0  0  0  0  0  0  0  0  0  0  0
  154.3947  139.8443  159.1826 H   0  0  0  0  0  0  0  0  0  0  0  0
  151.9664  140.6095  156.7510 H   0  0  0  0  0  0  0  0  0  0  0  0
  148.6690  141.9321  157.7802 H   0  0  0  0  0  0  0  0  0  0  0  0
  147.0292  140.8977  153.9539 H   0  0  0  0  0  0  0  0  0  0  0  0
  1  2  1  0  0  0  0
  1 23  1  0  0  0  0
  1 24  1  0  0  0  0
  1 25  1  0  0  0  0
  2  3  1  0  0  0  0
  2 26  1  0  0  0  0
  2 27  1  0  0  0  0
  3  4  1  0  0  0  0
  3 28  1  0  0  0  0
  3 29  1  0  0  0  0
  4  5  1  0  0  0  0
  4 30  1  0  0  0  0
  4 31  1  0  0  0  0
  5  6  1  0  0  0  0
  6  7  1  0  0  0  0
  6  8  1  0  0  0  0
  6 32  1  0  0  0  0
  7 33  1  0  0  0  0
  7 34  1  0  0  0  0
  7 35  1  0  0  0  0
  8  9  2  0  0  0  0
  8 10  1  0  0  0  0
 10 11  1  0  0  0  0
 10 36  1  0  0  0  0
 11 20  1  0  0  0  0
 11 12  2  0  0  0  0
 12 13  1  0  0  0  0
 12 37  1  0  0  0  0
 13 14  1  0  0  0  0
 13 18  2  0  0  0  0
 14 15  1  0  0  0  0
 14 16  1  0  0  0  0
 14 17  1  0  0  0  0
 18 19  1  0  0  0  0
 18 38  1  0  0  0  0
 19 22  1  0  0  0  0
 19 20  1  0  0  0  0
 20 21  2  0  0  0  0
M  END
> <s_m_source_file>
AV-unprocessed.smi

> <i_m_source_file_index>
1723

> <i_lp_mmshare_version>
43012

> <i_f3d_flags>
0

> <s_epik_input>
W0NIM11bQ0gyXVtDSDJdW0NIMl1PW0NASF0oW0NIM10pQyg9TylbTkhdYzFbY0hdYyhDKEYpKEYpRilbY0hdW25IXWMxPU8=

> <s_epik_cmdline>
J2VwaWtfcHl0aG9uJywgJy1waCcsICc3LjAnLCAnLXRuJywgJzgnLCAnLW1hJywgJzIwMCcsICctbWV0YWxfYmluZGluZycsICctaW1hZScsICc8aW5maWxlLm1hZT4nLCAnLW9tYWUnLCAnPG91dGZpbGUubWFlPic=

> <r_lp_tautomer_probability>
0.999

> <r_epik_Ionization_Penalty>
0.00763408

> <r_epik_Ionization_Penalty_Charging>
0.00763398

> <r_epik_Ionization_Penalty_Neutral>
9.29819e-08

> <r_epik_State_Penalty>
0.00571302

> <r_epik_Charging_Adjusted_Penalty>
0.013347

> <i_epik_Tot_Q>
0

> <i_epik_Tot_abs_Q>
0

> <r_epik_Metal_State_Penalty>
0.392814

> <b_epik_Metal_Only>
0

> <s_lp_Force_Field>
OPLS_2005

> <r_lp_Energy>
18.7704

> <b_lp_Chiralities_Consistent>
1

> <s_lp_Variant>
AV-unprocessed.smi:1723-2

> <Gold.Version>
5.8.1

> <Gold.Id.Protein>
6NUR|6NUR_protein|mol2

> <Gold.PLP.Fitness>
43.7955

> <Gold.PLP.PLP>
-39.7275

> <Gold.PLP.part.hbond>
-2.9117

> <Gold.PLP.part.metal>
0.0000

> <Gold.PLP.part.buried>
-2.6413

> <Gold.PLP.part.nonpolar>
-33.8833

> <Gold.PLP.part.repulsive>
0.4117

> <Gold.PLP.ligand.clash>
0.0000

> <Gold.PLP.ligand.torsion>
0.9127

> <Gold.PLP.Chemscore.Hbond>
1.9120

> <Gold.PLP.Chemscore.CHOScore>
0.0000

> <Gold.PLP.Chemscore.Metal>
0.0000

> <Gold.Chemscore.Hbonds>
donor molecule, donor type, donor heavy atom, donor atom, acceptor molecule, acceptor atom, score
      L1  H    19    22       P1  7957  0.36
      P1  H  7989  7998       L1    21  1.00

> <Gold.PLP.Chemscore.Internal.Correction>
0.1573

> <Gold.Rescore>
     Score         DG    S(hbond)    S(metal)    S(lipo)     H(rot)  DE(clash)    DE(int)     intcor
     12.70     -15.76       1.78        0.00      80.68       1.99       0.96       2.10       ----

> <Gold.Chemscore.Fitness>
12.7022

> <Gold.Chemscore.DG>
-15.7602

> <Gold.Chemscore.ZeroCoef>
-5.4800

> <Gold.Chemscore.Hbond>
1.7804

> <Gold.Chemscore.Metal>
0.0000

> <Gold.Chemscore.Lipo>
80.6834

> <Gold.Chemscore.Internal_Hbond>
0.0000

> <Gold.Chemscore.DEClash>
0.9556

> <Gold.Chemscore.DEInternal>
2.1024

> <Gold.Chemscore.Rot>
1.9946

> <Gold.Chemscore.Internal.Correction>
   9.000000E+99

> <Gold.Chemscore.Hbonds>
donor molecule, donor type, donor heavy atom, donor atom, acceptor molecule, acceptor atom, score
      L1  H    19    22       P1  7957  0.34
      P1  H  7989  7998       L1    21  0.49

> <Gold.Chemscore.Hbond.Weighted>
-5.9465

> <Gold.Chemscore.Metal.Weighted>
-0.0000

> <Gold.Chemscore.Lipo.Weighted>
-9.4400

> <Gold.Chemscore.Internal_Hbond.Weighted>
0.0000

> <Gold.Chemscore.DEClash.Weighted>
0.9556

> <Gold.Chemscore.DEInternal.Weighted>
2.1024

> <Gold.Chemscore.Rot.Weighted>
5.1062

> <Gold.Chemscore.Internal.Correction.Weighted>
   9.000000E+99

> <Gold.Protein.RotatedTorsions>
[ 6907 6896 6895 6894 ] final  -23.24 input  -60.11 | X-H torsion
[ 7974 7965 7964 7962 ] final  -74.10 input  175.53 | X-H torsion
[ 8008 7997 7996 7995 ] final  -82.42 input   59.86 | X-H torsion
[ 10167 10162 10161 10158 ] final   28.26 input  -65.29 | X-H torsion
[ 10718 10713 10712 10709 ] final   62.69 input   66.30 | X-H torsion
[ 10763 10752 10751 10750 ] final -163.61 input  -60.55 | X-H torsion
[ 11005 11000 10999 10996 ] final -152.51 input  -57.11 | X-H torsion

> <Gold.Protein.ActiveResidues>
 VAL166  LYS551  ARG553  GLY616  TRP617  ASP618  TYR619  PRO620  LYS621  CYS622 
 ASP623  PHE694  ASN695  SER759  ASP760  ASP761  ALA762  ILE779  LEU786  VAL792 
 PHE793  MET794  SER795  GLU796  ALA797  LYS798  CYS799  TRP800  GLU811  SER814 

> <Gold.Protein.RotatedAtoms>
  151.2068  135.0465  159.8894 H   0  0  0  0  0  0  0  0  0  0  0  0  # atno 6907 bound_to 6896
  152.5428  134.0789  159.8237 H   0  0  0  0  0  0  0  0  0  0  0  0  # atno 6908 bound_to 6896
  151.0936  133.5249  159.2645 H   0  0  0  0  0  0  0  0  0  0  0  0  # atno 6909 bound_to 6896
  145.6435  140.9304  143.1023 H   0  0  0  0  0  0  0  0  0  0  0  0  # atno 7974 bound_to 7965
  154.6084  140.0633  156.9462 H   0  0  0  0  0  0  0  0  0  0  0  0  # atno 8008 bound_to 7997
  155.2013  140.3315  155.4324 H   0  0  0  0  0  0  0  0  0  0  0  0  # atno 8009 bound_to 7997
  156.2362  140.1864  156.7096 H   0  0  0  0  0  0  0  0  0  0  0  0  # atno 8010 bound_to 7997
  140.4868  144.0530  150.6283 H   0  0  0  0  0  0  0  0  0  0  0  0  # atno 10167 bound_to 10162
  157.5918  130.9064  149.9619 H   0  0  0  0  0  0  0  0  0  0  0  0  # atno 10718 bound_to 10713
  154.7106  135.3005  154.9203 H   0  0  0  0  0  0  0  0  0  0  0  0  # atno 10763 bound_to 10752
  154.0105  135.6695  153.4769 H   0  0  0  0  0  0  0  0  0  0  0  0  # atno 10764 bound_to 10752
  153.0752  135.5039  154.8302 H   0  0  0  0  0  0  0  0  0  0  0  0  # atno 10765 bound_to 10752
  140.7181  134.3758  157.5187 H   0  0  0  0  0  0  0  0  0  0  0  0  # atno 11005 bound_to 11000
  144.7149  139.8235  143.7402 LP  0  0  0  0  0  0  0  0  0  0  0  0  # atno 17320 bound_to 7965
  146.1262  139.4288  143.0197 LP  0  0  0  0  0  0  0  0  0  0  0  0  # atno 17321 bound_to 7965
  140.3787  143.2814  152.0195 LP  0  0  0  0  0  0  0  0  0  0  0  0  # atno 17342 bound_to 10162
  139.4843  144.6172  151.7324 LP  0  0  0  0  0  0  0  0  0  0  0  0  # atno 17343 bound_to 10162
  156.0974  130.3658  150.0281 LP  0  0  0  0  0  0  0  0  0  0  0  0  # atno 17370 bound_to 10713
  156.8402  130.9423  151.3632 LP  0  0  0  0  0  0  0  0  0  0  0  0  # atno 17371 bound_to 10713
  139.8855  134.8936  156.2641 LP  0  0  0  0  0  0  0  0  0  0  0  0  # atno 17394 bound_to 11000
  141.0027  133.7142  156.0986 LP  0  0  0  0  0  0  0  0  0  0  0  0  # atno 17395 bound_to 11000

$$$$
