AV-unprocessed.smi:2154|AV-procd|sdf|8773|dock3
  -GOLD-   2272011553D 1   1.00000     0.00000
 Structure written by MMmdl.
 32 33  0  0  0  0  0  0  0  0  1 V2000
  152.9349  142.8534  160.9237 C   0  0  0  0  0  0  0  0  0  0  0  0
  151.9068  143.5392  160.0503 C   0  0  1  0  0  0  0  0  0  0  0  0
  151.8472  145.0475  159.9715 C   0  0  0  0  0  0  0  0  0  0  0  0
  152.3232  144.2487  158.7813 C   0  0  2  0  0  0  0  0  0  0  0  0
  151.4762  144.1687  157.5251 C   0  0  0  0  0  0  0  0  0  0  0  0
  151.5903  142.9182  156.7861 N   0  0  0  0  0  0  0  0  0  0  0  0
  150.6515  141.9609  156.7415 C   0  0  0  0  0  0  0  0  0  0  0  0
  149.5710  142.0497  157.3267 O   0  0  0  0  0  0  0  0  0  0  0  0
  150.9830  140.7302  155.8853 C   0  0  0  0  0  0  0  0  0  0  0  0
  149.9033  140.3659  154.9563 N   0  0  0  0  0  0  0  0  0  0  0  0
  148.8737  141.2586  154.6943 C   0  0  0  0  0  0  0  0  0  0  0  0
  147.8442  140.9852  153.8583 C   0  0  0  0  0  0  0  0  0  0  0  0
  147.7696  139.6984  153.1749 C   0  0  0  0  0  0  0  0  0  0  0  0
  146.8797  139.3583  152.3985 O   0  0  0  0  0  0  0  0  0  0  0  0
  148.8219  138.8264  153.4667 N   0  0  0  0  0  0  0  0  0  0  0  0
  149.8846  139.1012  154.3287 C   0  0  0  0  0  0  0  0  0  0  0  0
  150.7598  138.2576  154.5194 O   0  0  0  0  0  0  0  0  0  0  0  0
  148.8113  137.9215  153.0190 H   0  0  0  0  0  0  0  0  0  0  0  0
  153.8745  143.4069  160.9246 H   0  0  0  0  0  0  0  0  0  0  0  0
  153.1259  141.8457  160.5550 H   0  0  0  0  0  0  0  0  0  0  0  0
  152.5701  142.7859  161.9488 H   0  0  0  0  0  0  0  0  0  0  0  0
  150.9487  143.0238  160.0207 H   0  0  0  0  0  0  0  0  0  0  0  0
  150.8622  145.5066  159.9144 H   0  0  0  0  0  0  0  0  0  0  0  0
  152.5933  145.6151  160.5237 H   0  0  0  0  0  0  0  0  0  0  0  0
  153.3925  144.3050  158.5851 H   0  0  0  0  0  0  0  0  0  0  0  0
  150.4278  144.3095  157.7903 H   0  0  0  0  0  0  0  0  0  0  0  0
  151.7393  145.0030  156.8729 H   0  0  0  0  0  0  0  0  0  0  0  0
  152.4465  142.7676  156.2726 H   0  0  0  0  0  0  0  0  0  0  0  0
  151.9007  140.9392  155.3335 H   0  0  0  0  0  0  0  0  0  0  0  0
  151.2228  139.8839  156.5325 H   0  0  0  0  0  0  0  0  0  0  0  0
  148.8852  142.2230  155.1821 H   0  0  0  0  0  0  0  0  0  0  0  0
  147.0712  141.7221  153.6953 H   0  0  0  0  0  0  0  0  0  0  0  0
  1  2  1  0  0  0  0
  1 19  1  0  0  0  0
  1 20  1  0  0  0  0
  1 21  1  0  0  0  0
  2  4  1  0  0  0  0
  2  3  1  0  0  0  0
  2 22  1  0  0  0  0
  3  4  1  0  0  0  0
  3 23  1  0  0  0  0
  3 24  1  0  0  0  0
  4  5  1  0  0  0  0
  4 25  1  0  0  0  0
  5  6  1  0  0  0  0
  5 26  1  0  0  0  0
  5 27  1  0  0  0  0
  6  7  1  0  0  0  0
  6 28  1  0  0  0  0
  7  8  2  0  0  0  0
  7  9  1  0  0  0  0
  9 10  1  0  0  0  0
  9 29  1  0  0  0  0
  9 30  1  0  0  0  0
 10 16  1  0  0  0  0
 10 11  1  0  0  0  0
 11 12  2  0  0  0  0
 11 31  1  0  0  0  0
 12 13  1  0  0  0  0
 12 32  1  0  0  0  0
 13 14  2  0  0  0  0
 13 15  1  0  0  0  0
 15 18  1  0  0  0  0
 15 16  1  0  0  0  0
 16 17  2  0  0  0  0
M  END
> <s_m_source_file>
AV-unprocessed.smi

> <i_m_source_file_index>
2154

> <i_lp_mmshare_version>
43012

> <i_f3d_flags>
0

> <s_epik_input>
W0NIM11bQ0BASF0xW0NIMl1bQ0BIXTFbQ0gyXVtOSF1DKD1PKVtDSDJdbjJbY0hdW2NIXWMoPU8pW25IXWMyPU8=

> <s_epik_cmdline>
J2VwaWtfcHl0aG9uJywgJy1waCcsICc3LjAnLCAnLXRuJywgJzgnLCAnLW1hJywgJzIwMCcsICctbWV0YWxfYmluZGluZycsICctaW1hZScsICc8aW5maWxlLm1hZT4nLCAnLW9tYWUnLCAnPG91dGZpbGUubWFlPic=

> <r_lp_tautomer_probability>
0.999537

> <r_epik_Ionization_Penalty>
0.00305319

> <r_epik_Ionization_Penalty_Charging>
0.00305317

> <r_epik_Ionization_Penalty_Neutral>
2.06703e-08

> <r_epik_State_Penalty>
0.00214626

> <r_epik_Charging_Adjusted_Penalty>
0.00519944

> <i_epik_Tot_Q>
0

> <i_epik_Tot_abs_Q>
0

> <r_epik_Metal_State_Penalty>
0.361976

> <b_epik_Metal_Only>
0

> <s_lp_Force_Field>
OPLS_2005

> <r_lp_Energy>
14.6752

> <b_lp_Chiralities_Consistent>
1

> <s_lp_Variant>
AV-unprocessed.smi:2154-4

> <Gold.Version>
5.8.1

> <Gold.Id.Protein>
6NUR|6NUR_protein|mol2

> <Gold.PLP.Fitness>
43.0408

> <Gold.PLP.PLP>
-37.8759

> <Gold.PLP.part.hbond>
-1.9679

> <Gold.PLP.part.metal>
0.0000

> <Gold.PLP.part.buried>
0.6411

> <Gold.PLP.part.nonpolar>
-38.5110

> <Gold.PLP.part.repulsive>
1.2331

> <Gold.PLP.ligand.clash>
0.0000

> <Gold.PLP.ligand.torsion>
0.6533

> <Gold.PLP.Chemscore.Hbond>
0.9750

> <Gold.PLP.Chemscore.CHOScore>
1.0000

> <Gold.PLP.Chemscore.Metal>
0.0000

> <Gold.Chemscore.Hbonds>
donor molecule, donor type, donor heavy atom, donor atom, acceptor molecule, acceptor atom, score
      L1  H    15    18       P1  7948  1.00
      L1  C    11    31       P1  8028  0.99

> <Gold.PLP.Chemscore.Internal.Correction>
0.5464

> <Gold.Rescore>
     Score         DG    S(hbond)    S(metal)    S(lipo)     H(rot)  DE(clash)    DE(int)     intcor
      9.73     -13.40       0.98        0.00      83.57       2.01       1.61       2.06       ----

> <Gold.Chemscore.Fitness>
9.7301

> <Gold.Chemscore.DG>
-13.3960

> <Gold.Chemscore.ZeroCoef>
-5.4800

> <Gold.Chemscore.Hbond>
0.9804

> <Gold.Chemscore.Metal>
0.0000

> <Gold.Chemscore.Lipo>
83.5728

> <Gold.Chemscore.Internal_Hbond>
0.0000

> <Gold.Chemscore.DEClash>
1.6064

> <Gold.Chemscore.DEInternal>
2.0595

> <Gold.Chemscore.Rot>
2.0065

> <Gold.Chemscore.Internal.Correction>
   9.000000E+99

> <Gold.Chemscore.Hbonds>
donor molecule, donor type, donor heavy atom, donor atom, acceptor molecule, acceptor atom, score
      L1  H    15    18       P1  7948  0.93

> <Gold.Chemscore.Hbond.Weighted>
-3.2746

> <Gold.Chemscore.Metal.Weighted>
-0.0000

> <Gold.Chemscore.Lipo.Weighted>
-9.7780

> <Gold.Chemscore.Internal_Hbond.Weighted>
0.0000

> <Gold.Chemscore.DEClash.Weighted>
1.6064

> <Gold.Chemscore.DEInternal.Weighted>
2.0595

> <Gold.Chemscore.Rot.Weighted>
5.1366

> <Gold.Chemscore.Internal.Correction.Weighted>
   9.000000E+99

> <Gold.Protein.RotatedTorsions>
[ 6907 6896 6895 6894 ] final  -43.84 input  -60.11 | X-H torsion
[ 7974 7965 7964 7962 ] final   94.52 input  175.53 | X-H torsion
[ 8008 7997 7996 7995 ] final    7.45 input   59.86 | X-H torsion
[ 10167 10162 10161 10158 ] final   87.02 input  -65.29 | X-H torsion
[ 10718 10713 10712 10709 ] final  -74.49 input   66.30 | X-H torsion
[ 10763 10752 10751 10750 ] final  175.38 input  -60.55 | X-H torsion
[ 11005 11000 10999 10996 ] final -149.69 input  -57.11 | X-H torsion

> <Gold.Protein.ActiveResidues>
 VAL166  LYS551  ARG553  GLY616  TRP617  ASP618  TYR619  PRO620  LYS621  CYS622 
 ASP623  PHE694  ASN695  SER759  ASP760  ASP761  ALA762  ILE779  LEU786  VAL792 
 PHE793  MET794  SER795  GLU796  ALA797  LYS798  CYS799  TRP800  GLU811  SER814 

> <Gold.Protein.RotatedAtoms>
  150.9395  134.8805  159.7602 H   0  0  0  0  0  0  0  0  0  0  0  0  # atno 6907 bound_to 6896
  152.5074  134.3963  159.9411 H   0  0  0  0  0  0  0  0  0  0  0  0  # atno 6908 bound_to 6896
  151.3985  133.3725  159.2764 H   0  0  0  0  0  0  0  0  0  0  0  0  # atno 6909 bound_to 6896
  145.4644  139.2285  143.2969 H   0  0  0  0  0  0  0  0  0  0  0  0  # atno 7974 bound_to 7965
  154.7540  140.2772  155.6269 H   0  0  0  0  0  0  0  0  0  0  0  0  # atno 8008 bound_to 7997
  156.2901  140.2673  156.2227 H   0  0  0  0  0  0  0  0  0  0  0  0  # atno 8009 bound_to 7997
  155.0101  140.0372  157.2385 H   0  0  0  0  0  0  0  0  0  0  0  0  # atno 8010 bound_to 7997
  139.8816  144.6437  150.8837 H   0  0  0  0  0  0  0  0  0  0  0  0  # atno 10167 bound_to 10162
  156.0241  130.4418  150.2900 H   0  0  0  0  0  0  0  0  0  0  0  0  # atno 10718 bound_to 10713
  154.4668  135.2769  155.1672 H   0  0  0  0  0  0  0  0  0  0  0  0  # atno 10763 bound_to 10752
  154.3437  135.6164  153.5612 H   0  0  0  0  0  0  0  0  0  0  0  0  # atno 10764 bound_to 10752
  152.9860  135.5794  154.5042 H   0  0  0  0  0  0  0  0  0  0  0  0  # atno 10765 bound_to 10752
  140.7481  134.3438  157.5132 H   0  0  0  0  0  0  0  0  0  0  0  0  # atno 11005 bound_to 11000
  146.2433  140.5416  142.8925 LP  0  0  0  0  0  0  0  0  0  0  0  0  # atno 17320 bound_to 7965
  144.7983  140.6165  143.6495 LP  0  0  0  0  0  0  0  0  0  0  0  0  # atno 17321 bound_to 7965
  140.7743  143.3581  151.1881 LP  0  0  0  0  0  0  0  0  0  0  0  0  # atno 17342 bound_to 10162
  139.7191  143.9252  152.2978 LP  0  0  0  0  0  0  0  0  0  0  0  0  # atno 17343 bound_to 10162
  157.1004  131.0194  151.3088 LP  0  0  0  0  0  0  0  0  0  0  0  0  # atno 17370 bound_to 10713
  157.4784  130.7750  149.7390 LP  0  0  0  0  0  0  0  0  0  0  0  0  # atno 17371 bound_to 10713
  139.8793  134.9124  156.3060 LP  0  0  0  0  0  0  0  0  0  0  0  0  # atno 17394 bound_to 11000
  140.9776  133.7288  156.0624 LP  0  0  0  0  0  0  0  0  0  0  0  0  # atno 17395 bound_to 11000

$$$$
