AV-unprocessed.smi:2510|AV-procd|sdf|9885|dock1
  -GOLD-   2272013523D 1   1.00000     0.00000
 Structure written by MMmdl.
 48 49  0  0  0  0  0  0  0  0  1 V2000
  153.4562  138.6674  154.7735 C   0  0  0  0  0  0  0  0  0  0  0  0
  151.9876  138.6931  154.3174 C   0  0  0  0  0  0  0  0  0  0  0  0
  150.9672  139.1109  155.4040 C   0  0  0  0  0  0  0  0  0  0  0  0
  149.6065  139.4001  154.7154 C   0  0  0  0  0  0  0  0  0  0  0  0
  149.3937  140.8561  154.2721 C   0  0  0  0  0  0  0  0  0  0  0  0
  150.9737  138.1831  156.6575 C   0  0  2  0  0  0  0  0  0  0  0  0
  149.6930  138.1410  157.3618 N   0  0  0  0  0  0  0  0  0  0  0  0
  149.3321  137.2017  158.2483 C   0  0  0  0  0  0  0  0  0  0  0  0
  150.0938  136.3300  158.6660 O   0  0  0  0  0  0  0  0  0  0  0  0
  147.8719  137.2291  158.6995 C   0  0  0  0  0  0  0  0  0  0  0  0
  147.6034  136.0962  159.6385 C   0  0  0  0  0  0  0  0  0  0  0  0
  147.2370  136.0826  160.9555 C   0  0  0  0  0  0  0  0  0  0  0  0
  147.0810  134.6995  161.2635 C   0  0  0  0  0  0  0  0  0  0  0  0
  146.6605  134.0817  162.5641 C   0  0  0  0  0  0  0  0  0  0  0  0
  147.3445  133.9174  160.2274 N   0  0  0  0  0  0  0  0  0  0  0  0
  147.6649  134.7788  159.2444 N   0  0  0  0  0  0  0  0  0  0  0  0
  151.9694  139.1391  157.3368 C   0  0  2  0  0  0  0  0  0  0  0  0
  151.9427  139.3711  158.8464 C   0  0  0  0  0  0  0  0  0  0  0  0
  151.4911  140.2232  156.3535 C   0  0  2  0  0  0  0  0  0  0  0  0
  150.4322  141.0109  156.8883 O   0  0  0  0  0  0  0  0  0  0  0  0
  150.8885  142.1238  157.6375 C   0  0  0  0  0  0  0  0  0  0  0  0
  147.9063  134.4584  158.3172 H   0  0  0  0  0  0  0  0  0  0  0  0
  154.1165  138.4965  153.9231 H   0  0  0  0  0  0  0  0  0  0  0  0
  153.6456  137.8676  155.4888 H   0  0  0  0  0  0  0  0  0  0  0  0
  153.7523  139.6095  155.2350 H   0  0  0  0  0  0  0  0  0  0  0  0
  151.9277  139.3797  153.4730 H   0  0  0  0  0  0  0  0  0  0  0  0
  151.7264  137.7250  153.8913 H   0  0  0  0  0  0  0  0  0  0  0  0
  149.4483  138.7335  153.8683 H   0  0  0  0  0  0  0  0  0  0  0  0
  148.7845  139.1701  155.3913 H   0  0  0  0  0  0  0  0  0  0  0  0
  148.3702  141.0009  153.9262 H   0  0  0  0  0  0  0  0  0  0  0  0
  150.0521  141.1335  153.4496 H   0  0  0  0  0  0  0  0  0  0  0  0
  149.5635  141.5515  155.0944 H   0  0  0  0  0  0  0  0  0  0  0  0
  151.4093  137.1983  156.4818 H   0  0  0  0  0  0  0  0  0  0  0  0
  148.9979  138.8160  157.0769 H   0  0  0  0  0  0  0  0  0  0  0  0
  147.6518  138.1822  159.1823 H   0  0  0  0  0  0  0  0  0  0  0  0
  147.2217  137.1592  157.8270 H   0  0  0  0  0  0  0  0  0  0  0  0
  147.0806  136.9361  161.5985 H   0  0  0  0  0  0  0  0  0  0  0  0
  146.6701  134.8155  163.3699 H   0  0  0  0  0  0  0  0  0  0  0  0
  147.3275  133.2675  162.8492 H   0  0  0  0  0  0  0  0  0  0  0  0
  145.6501  133.6780  162.4951 H   0  0  0  0  0  0  0  0  0  0  0  0
  152.9762  138.8368  157.0440 H   0  0  0  0  0  0  0  0  0  0  0  0
  150.9790  139.7512  159.1862 H   0  0  0  0  0  0  0  0  0  0  0  0
  152.7027  140.0926  159.1458 H   0  0  0  0  0  0  0  0  0  0  0  0
  152.1390  138.4460  159.3880 H   0  0  0  0  0  0  0  0  0  0  0  0
  152.2930  140.8170  155.9104 H   0  0  0  0  0  0  0  0  0  0  0  0
  150.0349  142.6548  158.0582 H   0  0  0  0  0  0  0  0  0  0  0  0
  151.4385  142.8204  157.0036 H   0  0  0  0  0  0  0  0  0  0  0  0
  151.5346  141.8180  158.4604 H   0  0  0  0  0  0  0  0  0  0  0  0
  1  2  1  0  0  0  0
  1 23  1  0  0  0  0
  1 24  1  0  0  0  0
  1 25  1  0  0  0  0
  2  3  1  0  0  0  0
  2 26  1  0  0  0  0
  2 27  1  0  0  0  0
  3 19  1  0  0  0  0
  3  4  1  0  0  0  0
  3  6  1  0  0  0  0
  4  5  1  0  0  0  0
  4 28  1  0  0  0  0
  4 29  1  0  0  0  0
  5 30  1  0  0  0  0
  5 31  1  0  0  0  0
  5 32  1  0  0  0  0
  6  7  1  0  0  0  0
  6 17  1  0  0  0  0
  6 33  1  0  0  0  0
  7  8  1  0  0  0  0
  7 34  1  0  0  0  0
  8  9  2  0  0  0  0
  8 10  1  0  0  0  0
 10 35  1  0  0  0  0
 10 36  1  0  0  0  0
 10 11  1  0  0  0  0
 11 16  1  0  0  0  0
 11 12  2  0  0  0  0
 12 13  1  0  0  0  0
 12 37  1  0  0  0  0
 13 14  1  0  0  0  0
 13 15  2  0  0  0  0
 14 38  1  0  0  0  0
 14 39  1  0  0  0  0
 14 40  1  0  0  0  0
 15 16  1  0  0  0  0
 16 22  1  0  0  0  0
 17 18  1  0  0  0  0
 17 19  1  0  0  0  0
 17 41  1  0  0  0  0
 18 42  1  0  0  0  0
 18 43  1  0  0  0  0
 18 44  1  0  0  0  0
 19 20  1  0  0  0  0
 19 45  1  0  0  0  0
 20 21  1  0  0  0  0
 21 46  1  0  0  0  0
 21 47  1  0  0  0  0
 21 48  1  0  0  0  0
M  END
> <s_m_source_file>
AV-unprocessed.smi

> <i_m_source_file_index>
2510

> <i_lp_mmshare_version>
43012

> <i_f3d_flags>
0

> <s_epik_input>
W0NIM11PW0NAQEhdMVtDQEhdKFtDSDNdKVtDQEBIXShDMShbQ0gyXVtDSDNdKVtDSDJdW0NIM10pW05IXUMoPU8pW0NIMl1jMltjSF1jKFtDSDNdKVtuSF1uMg==

> <s_epik_cmdline>
J2VwaWtfcHl0aG9uJywgJy1waCcsICc3LjAnLCAnLXRuJywgJzgnLCAnLW1hJywgJzIwMCcsICctbWV0YWxfYmluZGluZycsICctaW1hZScsICc8aW5maWxlLm1hZT4nLCAnLW9tYWUnLCAnPG91dGZpbGUubWFlPic=

> <r_lp_tautomer_probability>
0.5

> <r_epik_Ionization_Penalty>
0.000134763

> <r_epik_Ionization_Penalty_Charging>
0

> <r_epik_Ionization_Penalty_Neutral>
0.000134763

> <r_epik_State_Penalty>
0.41068

> <r_epik_Charging_Adjusted_Penalty>
0.41068

> <i_epik_Tot_Q>
0

> <i_epik_Tot_abs_Q>
0

> <r_epik_Metal_State_Penalty>
0.410661

> <b_epik_Metal_Only>
0

> <s_lp_Force_Field>
OPLS_2005

> <r_lp_Energy>
25.7229

> <b_lp_Chiralities_Consistent>
1

> <s_lp_Variant>
AV-unprocessed.smi:2510-16

> <Gold.Version>
5.8.1

> <Gold.Id.Protein>
6NUR|6NUR_protein|mol2

> <Gold.PLP.Fitness>
35.5878

> <Gold.PLP.PLP>
-34.2595

> <Gold.PLP.part.hbond>
-1.0000

> <Gold.PLP.part.metal>
0.0000

> <Gold.PLP.part.buried>
-1.8858

> <Gold.PLP.part.nonpolar>
-31.8408

> <Gold.PLP.part.repulsive>
0.1602

> <Gold.PLP.ligand.clash>
0.0000

> <Gold.PLP.ligand.torsion>
1.2309

> <Gold.PLP.Chemscore.Hbond>
1.0000

> <Gold.PLP.Chemscore.CHOScore>
0.0000

> <Gold.PLP.Chemscore.Metal>
0.0000

> <Gold.Chemscore.Hbonds>
donor molecule, donor type, donor heavy atom, donor atom, acceptor molecule, acceptor atom, score
      P1  H  6896  6908       L1     9  1.00

> <Gold.PLP.Chemscore.Internal.Correction>
0.7902

> <Gold.Rescore>
     Score         DG    S(hbond)    S(metal)    S(lipo)     H(rot)  DE(clash)    DE(int)     intcor
     12.48     -15.19       0.99        0.00      94.27       1.81       0.09       2.63       ----

> <Gold.Chemscore.Fitness>
12.4770

> <Gold.Chemscore.DG>
-15.1919

> <Gold.Chemscore.ZeroCoef>
-5.4800

> <Gold.Chemscore.Hbond>
0.9928

> <Gold.Chemscore.Metal>
0.0000

> <Gold.Chemscore.Lipo>
94.2726

> <Gold.Chemscore.Internal_Hbond>
0.0000

> <Gold.Chemscore.DEClash>
0.0884

> <Gold.Chemscore.DEInternal>
2.6264

> <Gold.Chemscore.Rot>
1.8102

> <Gold.Chemscore.Internal.Correction>
   9.000000E+99

> <Gold.Chemscore.Hbonds>
donor molecule, donor type, donor heavy atom, donor atom, acceptor molecule, acceptor atom, score
      P1  H  6896  6908       L1     9  0.97

> <Gold.Chemscore.Hbond.Weighted>
-3.3161

> <Gold.Chemscore.Metal.Weighted>
-0.0000

> <Gold.Chemscore.Lipo.Weighted>
-11.0299

> <Gold.Chemscore.Internal_Hbond.Weighted>
0.0000

> <Gold.Chemscore.DEClash.Weighted>
0.0884

> <Gold.Chemscore.DEInternal.Weighted>
2.6264

> <Gold.Chemscore.Rot.Weighted>
4.6341

> <Gold.Chemscore.Internal.Correction.Weighted>
   9.000000E+99

> <Gold.Protein.RotatedTorsions>
[ 6907 6896 6895 6894 ] final -174.91 input  -60.11 | X-H torsion
[ 7974 7965 7964 7962 ] final  127.76 input  175.53 | X-H torsion
[ 8008 7997 7996 7995 ] final  130.41 input   59.86 | X-H torsion
[ 10167 10162 10161 10158 ] final -154.47 input  -65.29 | X-H torsion
[ 10718 10713 10712 10709 ] final  130.64 input   66.30 | X-H torsion
[ 10763 10752 10751 10750 ] final   48.25 input  -60.55 | X-H torsion
[ 11005 11000 10999 10996 ] final  152.10 input  -57.11 | X-H torsion

> <Gold.Protein.ActiveResidues>
 VAL166  LYS551  ARG553  GLY616  TRP617  ASP618  TYR619  PRO620  LYS621  CYS622 
 ASP623  PHE694  ASN695  SER759  ASP760  ASP761  ALA762  ILE779  LEU786  VAL792 
 PHE793  MET794  SER795  GLU796  ALA797  LYS798  CYS799  TRP800  GLU811  SER814 

> <Gold.Protein.RotatedAtoms>
  151.5801  133.3379  159.3006 H   0  0  0  0  0  0  0  0  0  0  0  0  # atno 6907 bound_to 6896
  150.8318  134.7578  159.6871 H   0  0  0  0  0  0  0  0  0  0  0  0  # atno 6908 bound_to 6896
  152.4401  134.5615  159.9947 H   0  0  0  0  0  0  0  0  0  0  0  0  # atno 6909 bound_to 6896
  145.0470  139.3914  143.5073 H   0  0  0  0  0  0  0  0  0  0  0  0  # atno 7974 bound_to 7965
  156.2954  140.2597  156.2757 H   0  0  0  0  0  0  0  0  0  0  0  0  # atno 8008 bound_to 7997
  154.9651  140.0392  157.2227 H   0  0  0  0  0  0  0  0  0  0  0  0  # atno 8009 bound_to 7997
  154.7910  140.2812  155.5996 H   0  0  0  0  0  0  0  0  0  0  0  0  # atno 8010 bound_to 7997
  139.7011  143.9262  152.2429 H   0  0  0  0  0  0  0  0  0  0  0  0  # atno 10167 bound_to 10162
  157.5043  131.1095  150.9383 H   0  0  0  0  0  0  0  0  0  0  0  0  # atno 10718 bound_to 10713
  152.9793  135.5950  154.3895 H   0  0  0  0  0  0  0  0  0  0  0  0  # atno 10763 bound_to 10752
  154.3551  135.2767  155.2352 H   0  0  0  0  0  0  0  0  0  0  0  0  # atno 10764 bound_to 10752
  154.4374  135.6021  153.6162 H   0  0  0  0  0  0  0  0  0  0  0  0  # atno 10765 bound_to 10752
  140.1277  134.8822  157.2161 H   0  0  0  0  0  0  0  0  0  0  0  0  # atno 11005 bound_to 11000
  146.3515  140.0101  142.8668 LP  0  0  0  0  0  0  0  0  0  0  0  0  # atno 17320 bound_to 7965
  145.1575  140.9655  143.4397 LP  0  0  0  0  0  0  0  0  0  0  0  0  # atno 17321 bound_to 7965
  139.9105  144.6859  150.8568 LP  0  0  0  0  0  0  0  0  0  0  0  0  # atno 17342 bound_to 10162
  140.7709  143.3447  151.2136 LP  0  0  0  0  0  0  0  0  0  0  0  0  # atno 17343 bound_to 10162
  157.0044  130.5612  149.5314 LP  0  0  0  0  0  0  0  0  0  0  0  0  # atno 17370 bound_to 10713
  156.0248  130.5343  150.8377 LP  0  0  0  0  0  0  0  0  0  0  0  0  # atno 17371 bound_to 10713
  140.2882  134.3271  155.7323 LP  0  0  0  0  0  0  0  0  0  0  0  0  # atno 17394 bound_to 11000
  141.2164  133.7519  156.9464 LP  0  0  0  0  0  0  0  0  0  0  0  0  # atno 17395 bound_to 11000

$$$$
