AV-unprocessed.smi:2061|AV-procd|sdf|8361|dock3
  -GOLD-   2272011 33D 1   1.00000     0.00000
 Structure written by MMmdl.
 45 46  0  0  0  0  0  0  0  0  1 V2000
  138.1808  136.9807  153.4420 C   0  0  0  0  0  0  0  0  0  0  0  0
  139.6237  137.1519  153.7729 C   0  0  0  0  0  0  0  0  0  0  0  0
  140.5123  138.1677  153.5581 C   0  0  0  0  0  0  0  0  0  0  0  0
  141.7115  137.6707  154.1340 C   0  0  0  0  0  0  0  0  0  0  0  0
  142.8995  138.4454  154.1243 N   0  0  0  0  0  0  0  0  0  0  0  0
  143.9717  138.3101  154.9231 C   0  0  0  0  0  0  0  0  0  0  0  0
  144.1013  137.4497  155.7942 O   0  0  0  0  0  0  0  0  0  0  0  0
  144.8960  139.2449  154.6567 N   0  0  0  0  0  0  0  0  0  0  0  0
  146.1763  139.3958  155.3452 C   0  0  0  0  0  0  0  0  0  0  0  0
  147.3951  139.0384  154.4476 C   0  0  1  0  0  0  0  0  0  0  0  0
  147.3416  139.8916  153.1540 C   0  0  0  0  0  0  0  0  0  0  0  0
  148.6933  139.1528  155.1537 N   0  0  0  0  0  0  0  0  0  0  0  0
  149.8235  138.6732  154.3506 C   0  0  0  0  0  0  0  0  0  0  0  0
  151.1770  138.8116  155.0735 C   0  0  1  0  0  0  0  0  0  0  0  0
  152.3528  138.3831  154.1890 C   0  0  0  0  0  0  0  0  0  0  0  0
  151.3724  140.1702  155.4438 O   0  0  0  0  0  0  0  0  0  0  0  0
  150.3427  140.6591  156.2932 C   0  0  1  0  0  0  0  0  0  0  0  0
  150.6684  142.1118  156.6552 C   0  0  0  0  0  0  0  0  0  0  0  0
  148.9886  140.5281  155.5708 C   0  0  0  0  0  0  0  0  0  0  0  0
  141.5685  136.4604  154.6520 N   0  0  0  0  0  0  0  0  0  0  0  0
  140.2296  136.1219  154.4236 O   0  0  0  0  0  0  0  0  0  0  0  0
  137.9283  137.5067  152.5214 H   0  0  0  0  0  0  0  0  0  0  0  0
  137.5535  137.3753  154.2414 H   0  0  0  0  0  0  0  0  0  0  0  0
  137.9334  135.9275  153.3064 H   0  0  0  0  0  0  0  0  0  0  0  0
  140.3297  139.1135  153.0696 H   0  0  0  0  0  0  0  0  0  0  0  0
  142.9296  139.1926  153.4467 H   0  0  0  0  0  0  0  0  0  0  0  0
  144.6983  139.9104  153.9243 H   0  0  0  0  0  0  0  0  0  0  0  0
  146.2963  140.3997  155.7560 H   0  0  0  0  0  0  0  0  0  0  0  0
  146.1045  138.7238  156.1980 H   0  0  0  0  0  0  0  0  0  0  0  0
  147.2702  137.9976  154.1446 H   0  0  0  0  0  0  0  0  0  0  0  0
  146.3782  139.8236  152.6511 H   0  0  0  0  0  0  0  0  0  0  0  0
  148.0660  139.5659  152.4094 H   0  0  0  0  0  0  0  0  0  0  0  0
  147.5260  140.9448  153.3683 H   0  0  0  0  0  0  0  0  0  0  0  0
  149.7028  137.6188  154.1105 H   0  0  0  0  0  0  0  0  0  0  0  0
  149.8575  139.2140  153.4035 H   0  0  0  0  0  0  0  0  0  0  0  0
  151.1749  138.1950  155.9742 H   0  0  0  0  0  0  0  0  0  0  0  0
  152.2572  137.3399  153.8867 H   0  0  0  0  0  0  0  0  0  0  0  0
  153.2987  138.4899  154.7206 H   0  0  0  0  0  0  0  0  0  0  0  0
  152.4082  138.9908  153.2854 H   0  0  0  0  0  0  0  0  0  0  0  0
  150.3260  140.0664  157.2095 H   0  0  0  0  0  0  0  0  0  0  0  0
  149.9119  142.5296  157.3198 H   0  0  0  0  0  0  0  0  0  0  0  0
  150.7168  142.7396  155.7650 H   0  0  0  0  0  0  0  0  0  0  0  0
  151.6306  142.1794  157.1631 H   0  0  0  0  0  0  0  0  0  0  0  0
  148.9726  141.1878  154.7016 H   0  0  0  0  0  0  0  0  0  0  0  0
  148.2271  140.8915  156.2582 H   0  0  0  0  0  0  0  0  0  0  0  0
  1  2  1  0  0  0  0
  1 22  1  0  0  0  0
  1 23  1  0  0  0  0
  1 24  1  0  0  0  0
  2 21  1  0  0  0  0
  2  3  2  0  0  0  0
  3  4  1  0  0  0  0
  3 25  1  0  0  0  0
  4  5  1  0  0  0  0
  4 20  2  0  0  0  0
  5  6  1  0  0  0  0
  5 26  1  0  0  0  0
  6  7  2  0  0  0  0
  6  8  1  0  0  0  0
  8  9  1  0  0  0  0
  8 27  1  0  0  0  0
  9 10  1  0  0  0  0
  9 28  1  0  0  0  0
  9 29  1  0  0  0  0
 10 11  1  0  0  0  0
 10 12  1  0  0  0  0
 10 30  1  0  0  0  0
 11 31  1  0  0  0  0
 11 32  1  0  0  0  0
 11 33  1  0  0  0  0
 12 19  1  0  0  0  0
 12 13  1  0  0  0  0
 13 14  1  0  0  0  0
 13 34  1  0  0  0  0
 13 35  1  0  0  0  0
 14 15  1  0  0  0  0
 14 16  1  0  0  0  0
 14 36  1  0  0  0  0
 15 37  1  0  0  0  0
 15 38  1  0  0  0  0
 15 39  1  0  0  0  0
 16 17  1  0  0  0  0
 17 18  1  0  0  0  0
 17 19  1  0  0  0  0
 17 40  1  0  0  0  0
 18 41  1  0  0  0  0
 18 42  1  0  0  0  0
 18 43  1  0  0  0  0
 19 44  1  0  0  0  0
 19 45  1  0  0  0  0
 20 21  1  0  0  0  0
M  END
> <s_m_source_file>
AV-unprocessed.smi

> <i_m_source_file_index>
2061

> <i_lp_mmshare_version>
43012

> <i_f3d_flags>
0

> <s_epik_input>
W0NIM11jMVtjSF1jKG5vMSlbTkhdQyg9TylbTkhdW0NIMl1bQ0BIXShbQ0gzXSlOMltDSDJdW0NAQEhdKFtDSDNdKU9bQ0BASF0oW0NIM10pW0NIMl0y

> <s_epik_cmdline>
J2VwaWtfcHl0aG9uJywgJy1waCcsICc3LjAnLCAnLXRuJywgJzgnLCAnLW1hJywgJzIwMCcsICctbWV0YWxfYmluZGluZycsICctaW1hZScsICc8aW5maWxlLm1hZT4nLCAnLW9tYWUnLCAnPG91dGZpbGUubWFlPic=

> <r_epik_Ionization_Penalty>
0.214073

> <r_epik_Ionization_Penalty_Charging>
0

> <r_epik_Ionization_Penalty_Neutral>
0.214073

> <r_epik_State_Penalty>
0.204211

> <r_epik_Charging_Adjusted_Penalty>
0.204211

> <i_epik_Tot_Q>
0

> <i_epik_Tot_abs_Q>
0

> <r_epik_Metal_State_Penalty>
0.217067

> <b_epik_Metal_Only>
0

> <s_lp_Force_Field>
OPLS_2005

> <r_lp_Energy>
26.0702

> <b_lp_Chiralities_Consistent>
1

> <s_lp_Variant>
AV-unprocessed.smi:2061-2

> <Gold.Version>
5.8.1

> <Gold.Id.Protein>
6NUR|6NUR_protein|mol2

> <Gold.PLP.Fitness>
42.0023

> <Gold.PLP.PLP>
-30.2976

> <Gold.PLP.part.hbond>
-4.2149

> <Gold.PLP.part.metal>
0.0000

> <Gold.PLP.part.buried>
-3.8593

> <Gold.PLP.part.nonpolar>
-22.5735

> <Gold.PLP.part.repulsive>
0.1756

> <Gold.PLP.ligand.clash>
0.0000

> <Gold.PLP.ligand.torsion>
0.1517

> <Gold.PLP.Chemscore.Hbond>
3.9913

> <Gold.PLP.Chemscore.CHOScore>
0.0000

> <Gold.PLP.Chemscore.Metal>
0.0000

> <Gold.Chemscore.Hbonds>
donor molecule, donor type, donor heavy atom, donor atom, acceptor molecule, acceptor atom, score
      L1  H     5    26       P1 10175  1.00
      L1  H     8    27       P1 10175  1.00
      P1  H  7989  7998       L1    16  0.70
      P1  H 11000 11005       L1    21  0.76

> <Gold.PLP.Chemscore.Internal.Correction>
0.0343

> <Gold.Rescore>
     Score         DG    S(hbond)    S(metal)    S(lipo)     H(rot)  DE(clash)    DE(int)     intcor
     19.45     -21.32       3.25        0.00      76.33       1.55       0.48       1.39       ----

> <Gold.Chemscore.Fitness>
19.4502

> <Gold.Chemscore.DG>
-21.3197

> <Gold.Chemscore.ZeroCoef>
-5.4800

> <Gold.Chemscore.Hbond>
3.2547

> <Gold.Chemscore.Metal>
0.0000

> <Gold.Chemscore.Lipo>
76.3259

> <Gold.Chemscore.Internal_Hbond>
0.0000

> <Gold.Chemscore.DEClash>
0.4828

> <Gold.Chemscore.DEInternal>
1.3867

> <Gold.Chemscore.Rot>
1.5474

> <Gold.Chemscore.Internal.Correction>
   9.000000E+99

> <Gold.Chemscore.Hbonds>
donor molecule, donor type, donor heavy atom, donor atom, acceptor molecule, acceptor atom, score
      L1  H     5    26       P1 10175  0.99
      L1  H     8    27       P1 10175  0.95
      P1  H  7989  7998       L1    16  0.09
      P1  H 11000 11005       L1    21  0.16

> <Gold.Chemscore.Hbond.Weighted>
-10.8708

> <Gold.Chemscore.Metal.Weighted>
-0.0000

> <Gold.Chemscore.Lipo.Weighted>
-8.9301

> <Gold.Chemscore.Internal_Hbond.Weighted>
0.0000

> <Gold.Chemscore.DEClash.Weighted>
0.4828

> <Gold.Chemscore.DEInternal.Weighted>
1.3867

> <Gold.Chemscore.Rot.Weighted>
3.9612

> <Gold.Chemscore.Internal.Correction.Weighted>
   9.000000E+99

> <Gold.Protein.RotatedTorsions>
[ 6907 6896 6895 6894 ] final  150.98 input  -60.11 | X-H torsion
[ 7974 7965 7964 7962 ] final  -98.01 input  175.53 | X-H torsion
[ 8008 7997 7996 7995 ] final -126.88 input   59.86 | X-H torsion
[ 10167 10162 10161 10158 ] final  168.41 input  -65.29 | X-H torsion
[ 10718 10713 10712 10709 ] final   59.67 input   66.30 | X-H torsion
[ 10763 10752 10751 10750 ] final   69.81 input  -60.55 | X-H torsion
[ 11005 11000 10999 10996 ] final   68.54 input  -57.11 | X-H torsion

> <Gold.Protein.ActiveResidues>
 VAL166  LYS551  ARG553  GLY616  TRP617  ASP618  TYR619  PRO620  LYS621  CYS622 
 ASP623  PHE694  ASN695  SER759  ASP760  ASP761  ALA762  ILE779  LEU786  VAL792 
 PHE793  MET794  SER795  GLU796  ALA797  LYS798  CYS799  TRP800  GLU811  SER814 

> <Gold.Protein.RotatedAtoms>
  152.1069  133.4279  159.4612 H   0  0  0  0  0  0  0  0  0  0  0  0  # atno 6907 bound_to 6896
  150.6866  134.2694  159.4591 H   0  0  0  0  0  0  0  0  0  0  0  0  # atno 6908 bound_to 6896
  152.0560  134.9624  160.0625 H   0  0  0  0  0  0  0  0  0  0  0  0  # atno 6909 bound_to 6896
  145.3262  140.9432  143.2687 H   0  0  0  0  0  0  0  0  0  0  0  0  # atno 7974 bound_to 7965
  155.2370  140.0427  157.2970 H   0  0  0  0  0  0  0  0  0  0  0  0  # atno 8008 bound_to 7997
  154.5852  140.2411  155.7967 H   0  0  0  0  0  0  0  0  0  0  0  0  # atno 8009 bound_to 7997
  156.2221  140.2966  155.9986 H   0  0  0  0  0  0  0  0  0  0  0  0  # atno 8010 bound_to 7997
  139.4967  144.3817  151.9615 H   0  0  0  0  0  0  0  0  0  0  0  0  # atno 10167 bound_to 10162
  157.5693  130.8895  149.9240 H   0  0  0  0  0  0  0  0  0  0  0  0  # atno 10718 bound_to 10713
  153.0307  135.5197  154.7345 H   0  0  0  0  0  0  0  0  0  0  0  0  # atno 10763 bound_to 10752
  154.6363  135.2906  155.0159 H   0  0  0  0  0  0  0  0  0  0  0  0  # atno 10764 bound_to 10752
  154.1093  135.6624  153.4935 H   0  0  0  0  0  0  0  0  0  0  0  0  # atno 10765 bound_to 10752
  139.9705  134.6908  156.0456 H   0  0  0  0  0  0  0  0  0  0  0  0  # atno 11005 bound_to 11000
  144.8900  139.4788  143.6682 LP  0  0  0  0  0  0  0  0  0  0  0  0  # atno 17320 bound_to 7965
  146.3063  139.7592  142.9053 LP  0  0  0  0  0  0  0  0  0  0  0  0  # atno 17321 bound_to 7965
  140.3254  144.3379  150.5999 LP  0  0  0  0  0  0  0  0  0  0  0  0  # atno 17342 bound_to 10162
  140.5689  143.2183  151.7634 LP  0  0  0  0  0  0  0  0  0  0  0  0  # atno 17343 bound_to 10162
  156.0740  130.3681  150.0717 LP  0  0  0  0  0  0  0  0  0  0  0  0  # atno 17370 bound_to 10713
  156.8872  130.9576  151.3593 LP  0  0  0  0  0  0  0  0  0  0  0  0  # atno 17371 bound_to 10713
  141.1385  133.6570  156.3661 LP  0  0  0  0  0  0  0  0  0  0  0  0  # atno 17394 bound_to 11000
  140.5303  134.6219  157.5348 LP  0  0  0  0  0  0  0  0  0  0  0  0  # atno 17395 bound_to 11000

$$$$
