AV-unprocessed.smi:922|AV-procd|sdf|4175|dock5
  -GOLD-   22720 2 83D 1   1.00000     0.00000
 Structure written by MMmdl.
 33 34  0  0  0  0  0  0  0  0  1 V2000
  152.8859  143.5927  163.0248 C   0  0  0  0  0  0  0  0  0  0  0  0
  152.3841  143.0815  161.6708 C   0  0  2  0  0  0  0  0  0  0  0  0
  153.1905  141.8633  161.1835 C   0  0  0  0  0  0  0  0  0  0  0  0
  152.7660  141.4751  159.8447 N   0  0  0  0  0  0  0  0  0  0  0  0
  152.3616  140.1933  159.4682 C   0  0  0  0  0  0  0  0  0  0  0  0
  151.2407  140.0296  158.5480 C   0  0  0  0  0  0  0  0  0  0  0  0
  150.8112  138.8805  158.1539 N   0  0  0  0  0  0  0  0  0  0  0  0
  151.4406  137.7554  158.6215 N   0  0  0  0  0  0  0  0  0  0  0  0
  152.4865  137.7147  159.4788 C   0  0  0  0  0  0  0  0  0  0  0  0
  152.9749  136.6453  159.8392 O   0  0  0  0  0  0  0  0  0  0  0  0
  152.9502  139.0412  159.9128 C   0  0  0  0  0  0  0  0  0  0  0  0
  154.2466  139.0574  161.0615 Cl  0  0  0  0  0  0  0  0  0  0  0  0
  152.9228  142.5837  158.9095 C   0  0  0  0  0  0  0  0  0  0  0  0
  152.1286  143.8242  159.3793 C   0  0  0  0  0  0  0  0  0  0  0  0
  152.5302  145.0462  158.5390 C   0  0  0  0  0  0  0  0  0  0  0  0
  150.6035  143.6116  159.2692 C   0  0  0  0  0  0  0  0  0  0  0  0
  152.5098  144.1428  160.7232 O   0  0  0  0  0  0  0  0  0  0  0  0
  151.0562  136.8899  158.2708 H   0  0  0  0  0  0  0  0  0  0  0  0
  152.7987  142.8222  163.7912 H   0  0  0  0  0  0  0  0  0  0  0  0
  152.3067  144.4556  163.3540 H   0  0  0  0  0  0  0  0  0  0  0  0
  153.9323  143.8945  162.9701 H   0  0  0  0  0  0  0  0  0  0  0  0
  151.3334  142.8169  161.7825 H   0  0  0  0  0  0  0  0  0  0  0  0
  154.2528  142.1085  161.1512 H   0  0  0  0  0  0  0  0  0  0  0  0
  153.0924  141.0296  161.8785 H   0  0  0  0  0  0  0  0  0  0  0  0
  150.7784  140.9532  158.1996 H   0  0  0  0  0  0  0  0  0  0  0  0
  153.9849  142.8203  158.8330 H   0  0  0  0  0  0  0  0  0  0  0  0
  152.5942  142.2958  157.9103 H   0  0  0  0  0  0  0  0  0  0  0  0
  152.2959  144.8976  157.4843 H   0  0  0  0  0  0  0  0  0  0  0  0
  153.5999  145.2442  158.6155 H   0  0  0  0  0  0  0  0  0  0  0  0
  152.0071  145.9434  158.8717 H   0  0  0  0  0  0  0  0  0  0  0  0
  150.3035  143.4800  158.2293 H   0  0  0  0  0  0  0  0  0  0  0  0
  150.0581  144.4693  159.6637 H   0  0  0  0  0  0  0  0  0  0  0  0
  150.2640  142.7283  159.8087 H   0  0  0  0  0  0  0  0  0  0  0  0
  1  2  1  0  0  0  0
  1 19  1  0  0  0  0
  1 20  1  0  0  0  0
  1 21  1  0  0  0  0
  2 17  1  0  0  0  0
  2  3  1  0  0  0  0
  2 22  1  0  0  0  0
  3  4  1  0  0  0  0
  3 23  1  0  0  0  0
  3 24  1  0  0  0  0
  4  5  1  0  0  0  0
  4 13  1  0  0  0  0
  5 11  2  0  0  0  0
  5  6  1  0  0  0  0
  6  7  2  0  0  0  0
  6 25  1  0  0  0  0
  7  8  1  0  0  0  0
  8 18  1  0  0  0  0
  8  9  1  0  0  0  0
  9 10  2  0  0  0  0
  9 11  1  0  0  0  0
 11 12  1  0  0  0  0
 13 14  1  0  0  0  0
 13 26  1  0  0  0  0
 13 27  1  0  0  0  0
 14 15  1  0  0  0  0
 14 16  1  0  0  0  0
 14 17  1  0  0  0  0
 15 28  1  0  0  0  0
 15 29  1  0  0  0  0
 15 30  1  0  0  0  0
 16 31  1  0  0  0  0
 16 32  1  0  0  0  0
 16 33  1  0  0  0  0
M  END
> <s_m_source_file>
AV-unprocessed.smi

> <i_m_source_file_index>
922

> <i_lp_mmshare_version>
43012

> <i_f3d_flags>
0

> <s_epik_input>
W0NIM11bQ0BASF0oTzEpW0NIMl1OKFtDSDJdQzEoW0NIM10pW0NIM10pYzJbY0hdbltuSF1jKD1PKWMyQ2w=

> <s_epik_cmdline>
J2VwaWtfcHl0aG9uJywgJy1waCcsICc3LjAnLCAnLXRuJywgJzgnLCAnLW1hJywgJzIwMCcsICctbWV0YWxfYmluZGluZycsICctaW1hZScsICc8aW5maWxlLm1hZT4nLCAnLW9tYWUnLCAnPG91dGZpbGUubWFlPic=

> <r_lp_tautomer_probability>
0.986175

> <r_epik_Ionization_Penalty>
0.00909695

> <r_epik_Ionization_Penalty_Charging>
0.00909694

> <r_epik_Ionization_Penalty_Neutral>
4.87729e-09

> <r_epik_State_Penalty>
1.54226

> <r_epik_Charging_Adjusted_Penalty>
1.55136

> <i_epik_Tot_Q>
0

> <i_epik_Tot_abs_Q>
0

> <r_epik_Metal_State_Penalty>
3.93934

> <b_epik_Metal_Only>
0

> <s_lp_Force_Field>
OPLS_2005

> <r_lp_Energy>
35.5656

> <b_lp_Chiralities_Consistent>
1

> <s_lp_Variant>
AV-unprocessed.smi:922-3

> <Gold.Version>
5.8.1

> <Gold.Id.Protein>
6NUR|6NUR_protein|mol2

> <Gold.PLP.Fitness>
39.3505

> <Gold.PLP.PLP>
-36.7679

> <Gold.PLP.part.hbond>
-1.0000

> <Gold.PLP.part.metal>
0.0000

> <Gold.PLP.part.buried>
-3.4007

> <Gold.PLP.part.nonpolar>
-32.1737

> <Gold.PLP.part.repulsive>
0.1795

> <Gold.PLP.ligand.clash>
0.0000

> <Gold.PLP.ligand.torsion>
0.6743

> <Gold.PLP.Chemscore.Hbond>
1.0000

> <Gold.PLP.Chemscore.CHOScore>
0.0000

> <Gold.PLP.Chemscore.Metal>
0.0000

> <Gold.Chemscore.Hbonds>
donor molecule, donor type, donor heavy atom, donor atom, acceptor molecule, acceptor atom, score
      P1  H  6896  6909       L1    10  1.00

> <Gold.PLP.Chemscore.Internal.Correction>
0.9312

> <Gold.Rescore>
     Score         DG    S(hbond)    S(metal)    S(lipo)     H(rot)  DE(clash)    DE(int)     intcor
     19.22     -21.40       1.00        0.00     107.51       0.00       0.46       1.72       ----

> <Gold.Chemscore.Fitness>
19.2184

> <Gold.Chemscore.DG>
-21.3953

> <Gold.Chemscore.ZeroCoef>
-5.4800

> <Gold.Chemscore.Hbond>
0.9989

> <Gold.Chemscore.Metal>
0.0000

> <Gold.Chemscore.Lipo>
107.5138

> <Gold.Chemscore.Internal_Hbond>
0.0000

> <Gold.Chemscore.DEClash>
0.4593

> <Gold.Chemscore.DEInternal>
1.7176

> <Gold.Chemscore.Rot>
0.0000

> <Gold.Chemscore.Internal.Correction>
   9.000000E+99

> <Gold.Chemscore.Hbonds>
donor molecule, donor type, donor heavy atom, donor atom, acceptor molecule, acceptor atom, score
      P1  H  6896  6909       L1    10  1.00

> <Gold.Chemscore.Hbond.Weighted>
-3.3362

> <Gold.Chemscore.Metal.Weighted>
-0.0000

> <Gold.Chemscore.Lipo.Weighted>
-12.5791

> <Gold.Chemscore.Internal_Hbond.Weighted>
0.0000

> <Gold.Chemscore.DEClash.Weighted>
0.4593

> <Gold.Chemscore.DEInternal.Weighted>
1.7176

> <Gold.Chemscore.Rot.Weighted>
0.0000

> <Gold.Chemscore.Internal.Correction.Weighted>
   9.000000E+99

> <Gold.Protein.RotatedTorsions>
[ 6907 6896 6895 6894 ] final  157.16 input  -60.11 | X-H torsion
[ 7974 7965 7964 7962 ] final -109.06 input  175.53 | X-H torsion
[ 8008 7997 7996 7995 ] final  110.62 input   59.86 | X-H torsion
[ 10167 10162 10161 10158 ] final  -73.13 input  -65.29 | X-H torsion
[ 10718 10713 10712 10709 ] final   35.38 input   66.30 | X-H torsion
[ 10763 10752 10751 10750 ] final  115.28 input  -60.55 | X-H torsion
[ 11005 11000 10999 10996 ] final   33.16 input  -57.11 | X-H torsion

> <Gold.Protein.ActiveResidues>
 VAL166  LYS551  ARG553  GLY616  TRP617  ASP618  TYR619  PRO620  LYS621  CYS622 
 ASP623  PHE694  ASN695  SER759  ASP760  ASP761  ALA762  ILE779  LEU786  VAL792 
 PHE793  MET794  SER795  GLU796  ALA797  LYS798  CYS799  TRP800  GLU811  SER814 

> <Gold.Protein.RotatedAtoms>
  152.0191  133.3891  159.4250 H   0  0  0  0  0  0  0  0  0  0  0  0  # atno 6907 bound_to 6896
  150.6892  134.3646  159.4974 H   0  0  0  0  0  0  0  0  0  0  0  0  # atno 6908 bound_to 6896
  152.1417  134.9057  160.0604 H   0  0  0  0  0  0  0  0  0  0  0  0  # atno 6909 bound_to 6896
  145.1852  140.8989  143.3456 H   0  0  0  0  0  0  0  0  0  0  0  0  # atno 7974 bound_to 7965
  156.2066  140.3035  155.9640 H   0  0  0  0  0  0  0  0  0  0  0  0  # atno 8008 bound_to 7997
  155.2826  140.0438  157.3034 H   0  0  0  0  0  0  0  0  0  0  0  0  # atno 8009 bound_to 7997
  154.5642  140.2329  155.8298 H   0  0  0  0  0  0  0  0  0  0  0  0  # atno 8010 bound_to 7997
  140.5136  143.2341  151.7551 H   0  0  0  0  0  0  0  0  0  0  0  0  # atno 10167 bound_to 10162
  157.3220  130.7453  149.6791 H   0  0  0  0  0  0  0  0  0  0  0  0  # atno 10718 bound_to 10713
  153.5198  135.3600  155.2626 H   0  0  0  0  0  0  0  0  0  0  0  0  # atno 10763 bound_to 10752
  154.8736  135.4042  154.3273 H   0  0  0  0  0  0  0  0  0  0  0  0  # atno 10764 bound_to 10752
  153.3941  135.7073  153.6540 H   0  0  0  0  0  0  0  0  0  0  0  0  # atno 10765 bound_to 10752
  140.2660  134.3137  155.7842 H   0  0  0  0  0  0  0  0  0  0  0  0  # atno 11005 bound_to 11000
  145.0096  139.3522  143.6126 LP  0  0  0  0  0  0  0  0  0  0  0  0  # atno 17320 bound_to 7965
  146.3446  139.9353  142.8748 LP  0  0  0  0  0  0  0  0  0  0  0  0  # atno 17321 bound_to 7965
  139.4903  144.4356  151.9823 LP  0  0  0  0  0  0  0  0  0  0  0  0  # atno 17342 bound_to 10162
  140.3449  144.3159  150.5960 LP  0  0  0  0  0  0  0  0  0  0  0  0  # atno 17343 bound_to 10162
  155.9687  130.4220  150.4497 LP  0  0  0  0  0  0  0  0  0  0  0  0  # atno 17370 bound_to 10713
  157.2514  131.0547  151.2377 LP  0  0  0  0  0  0  0  0  0  0  0  0  # atno 17371 bound_to 10713
  141.2184  133.7438  156.9261 LP  0  0  0  0  0  0  0  0  0  0  0  0  # atno 17394 bound_to 11000
  140.1418  134.9288  157.2477 LP  0  0  0  0  0  0  0  0  0  0  0  0  # atno 17395 bound_to 11000

$$$$
