AV-unprocessed.smi:3048|AV-procd|sdf|11626|dock6
  -GOLD-   2272017 13D 1   1.00000     0.00000
 Structure written by MMmdl.
 38 39  0  0  0  0  0  0  0  0  2 V2000
  144.4798  133.1828  150.4003 C   0  0  0  0  0  0  0  0  0  0  0  0
  145.0425  134.2193  151.3300 C   0  0  0  0  0  0  0  0  0  0  0  0
  145.9767  134.0304  152.3880 C   0  0  0  0  0  0  0  0  0  0  0  0
  146.2714  135.1548  153.0201 N   0  0  0  0  0  0  0  0  0  0  0  0
  145.5372  136.0980  152.3919 N   0  0  0  0  0  0  0  0  0  0  0  0
  145.6172  137.4828  152.8227 C   0  0  0  0  0  0  0  0  0  0  0  0
  146.4085  138.3557  151.8349 C   0  0  0  0  0  0  0  0  0  0  0  0
  147.7553  138.6747  152.3492 N   0  3  0  0  0  0  0  0  0  0  0  0
  147.7632  139.3047  153.6836 C   0  0  0  0  0  0  0  0  0  0  0  0
  149.1220  139.9584  153.9720 C   0  0  1  0  0  0  0  0  0  0  0  0
  149.0213  141.0431  155.0618 C   0  0  0  0  0  0  0  0  0  0  0  0
  150.4072  141.6162  155.3801 C   0  0  0  0  0  0  0  0  0  0  0  0
  151.3732  140.4756  155.7178 C   0  0  0  0  0  0  0  0  0  0  0  0
  151.3505  139.4089  154.6114 C   0  0  0  0  0  0  0  0  0  0  0  0
  150.0192  138.9416  154.4141 O   0  0  0  0  0  0  0  0  0  0  0  0
  144.7855  135.5607  151.3684 C   0  0  0  0  0  0  0  0  0  0  0  0
  144.7905  132.1757  150.6795 H   0  0  0  0  0  0  0  0  0  0  0  0
  144.8050  133.3455  149.3727 H   0  0  0  0  0  0  0  0  0  0  0  0
  143.3897  133.1931  150.3989 H   0  0  0  0  0  0  0  0  0  0  0  0
  146.4483  133.1141  152.7119 H   0  0  0  0  0  0  0  0  0  0  0  0
  144.6010  137.8666  152.9201 H   0  0  0  0  0  0  0  0  0  0  0  0
  146.0610  137.5229  153.8188 H   0  0  0  0  0  0  0  0  0  0  0  0
  146.4933  137.8475  150.8735 H   0  0  0  0  0  0  0  0  0  0  0  0
  145.8707  139.2877  151.6576 H   0  0  0  0  0  0  0  0  0  0  0  0
  148.2956  137.8222  152.3932 H   0  0  0  0  0  0  0  0  0  0  0  0
  146.9775  140.0608  153.7152 H   0  0  0  0  0  0  0  0  0  0  0  0
  147.5267  138.5607  154.4455 H   0  0  0  0  0  0  0  0  0  0  0  0
  149.5032  140.4052  153.0516 H   0  0  0  0  0  0  0  0  0  0  0  0
  148.3537  141.8432  154.7405 H   0  0  0  0  0  0  0  0  0  0  0  0
  148.5865  140.6170  155.9671 H   0  0  0  0  0  0  0  0  0  0  0  0
  150.7814  142.1726  154.5197 H   0  0  0  0  0  0  0  0  0  0  0  0
  150.3470  142.3226  156.2086 H   0  0  0  0  0  0  0  0  0  0  0  0
  152.3840  140.8629  155.8491 H   0  0  0  0  0  0  0  0  0  0  0  0
  151.0861  140.0210  156.6669 H   0  0  0  0  0  0  0  0  0  0  0  0
  151.7492  139.8076  153.6773 H   0  0  0  0  0  0  0  0  0  0  0  0
  151.9820  138.5656  154.8919 H   0  0  0  0  0  0  0  0  0  0  0  0
  144.1374  136.1709  150.7562 H   0  0  0  0  0  0  0  0  0  0  0  0
  148.2015  139.3021  151.6948 H   0  0  0  0  0  0  0  0  0  0  0  0
  1  2  1  0  0  0  0
  1 17  1  0  0  0  0
  1 18  1  0  0  0  0
  1 19  1  0  0  0  0
  2 16  2  0  0  0  0
  2  3  1  0  0  0  0
  3  4  2  0  0  0  0
  3 20  1  0  0  0  0
  4  5  1  0  0  0  0
  5  6  1  0  0  0  0
  5 16  1  0  0  0  0
  6  7  1  0  0  0  0
  6 21  1  0  0  0  0
  6 22  1  0  0  0  0
  7  8  1  0  0  0  0
  7 23  1  0  0  0  0
  7 24  1  0  0  0  0
  8  9  1  0  0  0  0
  8 25  1  0  0  0  0
  8 38  1  0  0  0  0
  9 10  1  0  0  0  0
  9 26  1  0  0  0  0
  9 27  1  0  0  0  0
 10 15  1  0  0  0  0
 10 11  1  0  0  0  0
 10 28  1  0  0  0  0
 11 12  1  0  0  0  0
 11 29  1  0  0  0  0
 11 30  1  0  0  0  0
 12 13  1  0  0  0  0
 12 31  1  0  0  0  0
 12 32  1  0  0  0  0
 13 14  1  0  0  0  0
 13 33  1  0  0  0  0
 13 34  1  0  0  0  0
 14 15  1  0  0  0  0
 14 35  1  0  0  0  0
 14 36  1  0  0  0  0
 16 37  1  0  0  0  0
M  CHG  1   8   1
M  END
> <s_m_source_file>
AV-unprocessed.smi

> <i_m_source_file_index>
3048

> <i_lp_mmshare_version>
43012

> <i_f3d_flags>
0

> <s_epik_input>
W0NIM11jMVtjSF1ubihbY0hdMSlbQ0gyXVtDSDJdW05IXVtDSDJdW0NAQEhdMltDSDJdW0NIMl1bQ0gyXVtDSDJdTzI=

> <s_epik_cmdline>
J2VwaWtfcHl0aG9uJywgJy1waCcsICc3LjAnLCAnLXRuJywgJzgnLCAnLW1hJywgJzIwMCcsICctbWV0YWxfYmluZGluZycsICctaW1hZScsICc8aW5maWxlLm1hZT4nLCAnLW9tYWUnLCAnPG91dGZpbGUubWFlPic=

> <r_lp_tautomer_probability>
1

> <r_epik_Ionization_Penalty>
0.0084937

> <r_epik_Ionization_Penalty_Charging>
0.00848754

> <r_epik_Ionization_Penalty_Neutral>
6.1613e-06

> <r_epik_State_Penalty>
0.00639836

> <r_epik_Charging_Adjusted_Penalty>
0.0148859

> <i_epik_Tot_Q>
1

> <i_epik_Tot_abs_Q>
1

> <r_epik_Metal_State_Penalty>
0.00642541

> <b_epik_Metal_Only>
0

> <s_lp_Force_Field>
OPLS_2005

> <r_lp_Energy>
10.7756

> <b_lp_Chiralities_Consistent>
1

> <s_lp_Variant>
AV-unprocessed.smi:3048-2

> <Gold.Version>
5.8.1

> <Gold.Id.Protein>
6NUR|6NUR_protein|mol2

> <Gold.PLP.Fitness>
43.6787

> <Gold.PLP.PLP>
-33.1229

> <Gold.PLP.part.hbond>
-1.9258

> <Gold.PLP.part.metal>
0.0000

> <Gold.PLP.part.buried>
0.2003

> <Gold.PLP.part.nonpolar>
-30.3938

> <Gold.PLP.part.repulsive>
0.7380

> <Gold.PLP.ligand.clash>
0.0000

> <Gold.PLP.ligand.torsion>
0.7556

> <Gold.PLP.Chemscore.Hbond>
3.0000

> <Gold.PLP.Chemscore.CHOScore>
1.0000

> <Gold.PLP.Chemscore.Metal>
0.0000

> <Gold.Chemscore.Hbonds>
donor molecule, donor type, donor heavy atom, donor atom, acceptor molecule, acceptor atom, score
      L1  H     8    25       P1  7948  2.00
      L1  H     8    38       P1  7957  0.99
      L1  C    16    37       P1 10171  0.84

> <Gold.PLP.Chemscore.Internal.Correction>
0.0670

> <Gold.Rescore>
     Score         DG    S(hbond)    S(metal)    S(lipo)     H(rot)  DE(clash)    DE(int)     intcor
     16.24     -17.10       1.93        0.00      79.57       1.61       0.22       0.65       ----

> <Gold.Chemscore.Fitness>
16.2405

> <Gold.Chemscore.DG>
-17.1022

> <Gold.Chemscore.ZeroCoef>
-5.4800

> <Gold.Chemscore.Hbond>
1.9300

> <Gold.Chemscore.Metal>
0.0000

> <Gold.Chemscore.Lipo>
79.5737

> <Gold.Chemscore.Internal_Hbond>
0.0000

> <Gold.Chemscore.DEClash>
0.2158

> <Gold.Chemscore.DEInternal>
0.6459

> <Gold.Chemscore.Rot>
1.6149

> <Gold.Chemscore.Internal.Correction>
   9.000000E+99

> <Gold.Chemscore.Hbonds>
donor molecule, donor type, donor heavy atom, donor atom, acceptor molecule, acceptor atom, score
      L1  H     8    25       P1  7948  0.99
      L1  H     8    38       P1  7957  0.93

> <Gold.Chemscore.Hbond.Weighted>
-6.4462

> <Gold.Chemscore.Metal.Weighted>
-0.0000

> <Gold.Chemscore.Lipo.Weighted>
-9.3101

> <Gold.Chemscore.Internal_Hbond.Weighted>
0.0000

> <Gold.Chemscore.DEClash.Weighted>
0.2158

> <Gold.Chemscore.DEInternal.Weighted>
0.6459

> <Gold.Chemscore.Rot.Weighted>
4.1341

> <Gold.Chemscore.Internal.Correction.Weighted>
   9.000000E+99

> <Gold.Protein.RotatedTorsions>
[ 6907 6896 6895 6894 ] final  -33.18 input  -60.11 | X-H torsion
[ 7974 7965 7964 7962 ] final  -39.60 input  175.53 | X-H torsion
[ 8008 7997 7996 7995 ] final   40.18 input   59.86 | X-H torsion
[ 10167 10162 10161 10158 ] final   58.78 input  -65.29 | X-H torsion
[ 10718 10713 10712 10709 ] final  101.69 input   66.30 | X-H torsion
[ 10763 10752 10751 10750 ] final   85.51 input  -60.55 | X-H torsion
[ 11005 11000 10999 10996 ] final  -93.88 input  -57.11 | X-H torsion

> <Gold.Protein.ActiveResidues>
 VAL166  LYS551  ARG553  GLY616  TRP617  ASP618  TYR619  PRO620  LYS621  CYS622 
 ASP623  PHE694  ASN695  SER759  ASP760  ASP761  ALA762  ILE779  LEU786  VAL792 
 PHE793  MET794  SER795  GLU796  ALA797  LYS798  CYS799  TRP800  GLU811  SER814 

> <Gold.Protein.RotatedAtoms>
  151.0690  134.9786  159.8298 H   0  0  0  0  0  0  0  0  0  0  0  0  # atno 6907 bound_to 6896
  152.5406  134.2323  159.8840 H   0  0  0  0  0  0  0  0  0  0  0  0  # atno 6908 bound_to 6896
  151.2347  133.4388  159.2638 H   0  0  0  0  0  0  0  0  0  0  0  0  # atno 6909 bound_to 6896
  146.0381  140.6644  142.9100 H   0  0  0  0  0  0  0  0  0  0  0  0  # atno 7974 bound_to 7965
  155.2489  140.3351  155.4284 H   0  0  0  0  0  0  0  0  0  0  0  0  # atno 8008 bound_to 7997
  156.2224  140.1814  156.7489 H   0  0  0  0  0  0  0  0  0  0  0  0  # atno 8009 bound_to 7997
  154.5846  140.0648  156.9137 H   0  0  0  0  0  0  0  0  0  0  0  0  # atno 8010 bound_to 7997
  140.1835  144.4157  150.6604 H   0  0  0  0  0  0  0  0  0  0  0  0  # atno 10167 bound_to 10162
  157.6822  131.0733  150.5290 H   0  0  0  0  0  0  0  0  0  0  0  0  # atno 10718 bound_to 10713
  153.1481  135.4615  154.9597 H   0  0  0  0  0  0  0  0  0  0  0  0  # atno 10763 bound_to 10752
  154.7803  135.3186  154.8007 H   0  0  0  0  0  0  0  0  0  0  0  0  # atno 10764 bound_to 10752
  153.8517  135.6921  153.4846 H   0  0  0  0  0  0  0  0  0  0  0  0  # atno 10765 bound_to 10752
  141.1485  133.7918  157.0221 H   0  0  0  0  0  0  0  0  0  0  0  0  # atno 11005 bound_to 11000
  144.7061  140.3858  143.7117 LP  0  0  0  0  0  0  0  0  0  0  0  0  # atno 17320 bound_to 7965
  145.6930  139.1643  143.2636 LP  0  0  0  0  0  0  0  0  0  0  0  0  # atno 17321 bound_to 7965
  140.6503  143.2223  151.6091 LP  0  0  0  0  0  0  0  0  0  0  0  0  # atno 17342 bound_to 10162
  139.5286  144.2984  152.1094 LP  0  0  0  0  0  0  0  0  0  0  0  0  # atno 17343 bound_to 10162
  156.5601  130.4253  149.6067 LP  0  0  0  0  0  0  0  0  0  0  0  0  # atno 17370 bound_to 10713
  156.2828  130.7081  151.1909 LP  0  0  0  0  0  0  0  0  0  0  0  0  # atno 17371 bound_to 10713
  140.0809  134.9649  157.1622 LP  0  0  0  0  0  0  0  0  0  0  0  0  # atno 17394 bound_to 11000
  140.3578  134.2527  155.7190 LP  0  0  0  0  0  0  0  0  0  0  0  0  # atno 17395 bound_to 11000

$$$$
