AV-unprocessed.smi:2775|AV-procd|sdf|10695|dock1
  -GOLD-   2272015133D 1   1.00000     0.00000
 Structure written by MMmdl.
 42 45  0  0  0  0  0  0  0  0  1 V2000
  145.3339  131.3131  150.9665 C   0  0  0  0  0  0  0  0  0  0  0  0
  145.1161  132.8120  151.0539 C   0  0  0  0  0  0  0  0  0  0  0  0
  144.0046  133.2778  150.4437 N   0  0  0  0  0  0  0  0  0  0  0  0
  143.7597  134.6029  150.4965 C   0  0  0  0  0  0  0  0  0  0  0  0
  144.6059  135.5219  151.1456 C   0  0  0  0  0  0  0  0  0  0  0  0
  145.7809  135.0398  151.7707 C   0  0  0  0  0  0  0  0  0  0  0  0
  146.7012  135.8741  152.4635 N   0  0  0  0  0  0  0  0  0  0  0  0
  146.4542  136.9194  153.2772 C   0  0  0  0  0  0  0  0  0  0  0  0
  145.3366  137.2978  153.6210 O   0  0  0  0  0  0  0  0  0  0  0  0
  147.5620  137.5562  153.6936 N   0  0  0  0  0  0  0  0  0  0  0  0
  147.6381  138.7248  154.5811 C   0  0  1  0  0  0  0  0  0  0  0  0
  148.9878  138.8904  155.2935 C   0  0  1  0  0  0  0  0  0  0  0  0
  150.0953  137.9833  155.6916 C   0  0  0  0  0  0  0  0  0  0  0  0
  151.2622  138.9418  155.3439 C   0  0  0  0  0  0  0  0  0  0  0  0
  150.6589  140.0641  154.6517 O   0  0  0  0  0  0  0  0  0  0  0  0
  149.5186  139.5176  154.0144 C   0  0  2  0  0  0  0  0  0  0  0  0
  148.0774  140.0336  153.8480 C   0  0  0  0  0  0  0  0  0  0  0  0
  147.5298  140.4228  152.4693 C   0  0  0  0  0  0  0  0  0  0  0  0
  147.6752  141.8914  152.8811 C   0  0  0  0  0  0  0  0  0  0  0  0
  147.6832  141.4342  154.3435 C   0  0  0  0  0  0  0  0  0  0  0  0
  146.0313  133.6478  151.7359 C   0  0  0  0  0  0  0  0  0  0  0  0
  147.4312  132.9800  152.5071 Cl  0  0  0  0  0  0  0  0  0  0  0  0
  146.2873  131.0966  150.4840 H   0  0  0  0  0  0  0  0  0  0  0  0
  144.5464  130.8264  150.3891 H   0  0  0  0  0  0  0  0  0  0  0  0
  145.3436  130.8724  151.9635 H   0  0  0  0  0  0  0  0  0  0  0  0
  142.8569  134.9419  150.0102 H   0  0  0  0  0  0  0  0  0  0  0  0
  144.3313  136.5649  151.1594 H   0  0  0  0  0  0  0  0  0  0  0  0
  147.6720  135.7249  152.2297 H   0  0  0  0  0  0  0  0  0  0  0  0
  148.4454  137.1905  153.3682 H   0  0  0  0  0  0  0  0  0  0  0  0
  146.7689  138.8614  155.2264 H   0  0  0  0  0  0  0  0  0  0  0  0
  148.8457  139.6372  156.0834 H   0  0  0  0  0  0  0  0  0  0  0  0
  150.0708  137.7201  156.7490 H   0  0  0  0  0  0  0  0  0  0  0  0
  150.1223  137.0726  155.0925 H   0  0  0  0  0  0  0  0  0  0  0  0
  151.7805  139.2952  156.2359 H   0  0  0  0  0  0  0  0  0  0  0  0
  151.9912  138.4466  154.7013 H   0  0  0  0  0  0  0  0  0  0  0  0
  149.8006  138.7931  153.2445 H   0  0  0  0  0  0  0  0  0  0  0  0
  148.1532  140.1212  151.6271 H   0  0  0  0  0  0  0  0  0  0  0  0
  146.4891  140.1256  152.3307 H   0  0  0  0  0  0  0  0  0  0  0  0
  148.6282  142.3226  152.5701 H   0  0  0  0  0  0  0  0  0  0  0  0
  146.8337  142.5274  152.6057 H   0  0  0  0  0  0  0  0  0  0  0  0
  146.6916  141.4569  154.7978 H   0  0  0  0  0  0  0  0  0  0  0  0
  148.4270  141.9284  154.9695 H   0  0  0  0  0  0  0  0  0  0  0  0
  1  2  1  0  0  0  0
  1 23  1  0  0  0  0
  1 24  1  0  0  0  0
  1 25  1  0  0  0  0
  2 21  1  0  0  0  0
  2  3  2  0  0  0  0
  3  4  1  0  0  0  0
  4  5  2  0  0  0  0
  4 26  1  0  0  0  0
  5  6  1  0  0  0  0
  5 27  1  0  0  0  0
  6  7  1  0  0  0  0
  6 21  2  0  0  0  0
  7  8  1  0  0  0  0
  7 28  1  0  0  0  0
  8  9  2  0  0  0  0
  8 10  1  0  0  0  0
 10 11  1  0  0  0  0
 10 29  1  0  0  0  0
 11 17  1  0  0  0  0
 11 12  1  0  0  0  0
 11 30  1  0  0  0  0
 12 16  1  0  0  0  0
 12 13  1  0  0  0  0
 12 31  1  0  0  0  0
 13 14  1  0  0  0  0
 13 32  1  0  0  0  0
 13 33  1  0  0  0  0
 14 15  1  0  0  0  0
 14 34  1  0  0  0  0
 14 35  1  0  0  0  0
 15 16  1  0  0  0  0
 16 17  1  0  0  0  0
 16 36  1  0  0  0  0
 17 20  1  0  0  0  0
 17 18  1  0  0  0  0
 18 19  1  0  0  0  0
 18 37  1  0  0  0  0
 18 38  1  0  0  0  0
 19 20  1  0  0  0  0
 19 39  1  0  0  0  0
 19 40  1  0  0  0  0
 20 41  1  0  0  0  0
 20 42  1  0  0  0  0
 21 22  1  0  0  0  0
M  END
> <s_m_source_file>
AV-unprocessed.smi

> <i_m_source_file_index>
2775

> <i_lp_mmshare_version>
43012

> <i_f3d_flags>
0

> <s_epik_input>
W0NIM11jMW5bY0hdW2NIXWMoYzFDbClbTkhdQyg9TylbTkhdW0NAQEhdMltDQEhdKFtDSDJdW0NIMl1PMylbQ0BASF0zQzI0W0NIMl1bQ0gyXVtDSDJdNA==

> <s_epik_cmdline>
J2VwaWtfcHl0aG9uJywgJy1waCcsICc3LjAnLCAnLXRuJywgJzgnLCAnLW1hJywgJzIwMCcsICctbWV0YWxfYmluZGluZycsICctaW1hZScsICc8aW5maWxlLm1hZT4nLCAnLW9tYWUnLCAnPG91dGZpbGUubWFlPic=

> <r_epik_Ionization_Penalty>
0.01026

> <r_epik_Ionization_Penalty_Charging>
0

> <r_epik_Ionization_Penalty_Neutral>
0.01026

> <r_epik_State_Penalty>
0.00780685

> <r_epik_Charging_Adjusted_Penalty>
0.00780685

> <i_epik_Tot_Q>
0

> <i_epik_Tot_abs_Q>
0

> <r_epik_Metal_State_Penalty>
0.00767411

> <b_epik_Metal_Only>
0

> <s_lp_Force_Field>
OPLS_2005

> <r_lp_Energy>
81.7367

> <b_lp_Chiralities_Consistent>
1

> <s_lp_Variant>
AV-unprocessed.smi:2775-8

> <Gold.Version>
5.8.1

> <Gold.Id.Protein>
6NUR|6NUR_protein|mol2

> <Gold.PLP.Fitness>
42.3595

> <Gold.PLP.PLP>
-31.8034

> <Gold.PLP.part.hbond>
-2.8410

> <Gold.PLP.part.metal>
0.0000

> <Gold.PLP.part.buried>
-2.7631

> <Gold.PLP.part.nonpolar>
-26.2364

> <Gold.PLP.part.repulsive>
0.3191

> <Gold.PLP.ligand.clash>
0.0000

> <Gold.PLP.ligand.torsion>
0.5295

> <Gold.PLP.Chemscore.Hbond>
2.7680

> <Gold.PLP.Chemscore.CHOScore>
0.9981

> <Gold.PLP.Chemscore.Metal>
0.0000

> <Gold.Chemscore.Hbonds>
donor molecule, donor type, donor heavy atom, donor atom, acceptor molecule, acceptor atom, score
      L1  H     7    28       P1  7948  0.68
      L1  H    10    29       P1  7948  0.69
      P1  H  7989  7998       L1    15  1.00
      L1  C     4    26       P1 10186  0.82

> <Gold.PLP.Chemscore.Internal.Correction>
0.3169

> <Gold.Rescore>
     Score         DG    S(hbond)    S(metal)    S(lipo)     H(rot)  DE(clash)    DE(int)     intcor
     18.22     -19.81       1.89        0.00      90.40       1.00       1.08       0.52       ----

> <Gold.Chemscore.Fitness>
18.2195

> <Gold.Chemscore.DG>
-19.8132

> <Gold.Chemscore.ZeroCoef>
-5.4800

> <Gold.Chemscore.Hbond>
1.8911

> <Gold.Chemscore.Metal>
0.0000

> <Gold.Chemscore.Lipo>
90.4014

> <Gold.Chemscore.Internal_Hbond>
0.0000

> <Gold.Chemscore.DEClash>
1.0775

> <Gold.Chemscore.DEInternal>
0.5162

> <Gold.Chemscore.Rot>
1.0000

> <Gold.Chemscore.Internal.Correction>
   9.000000E+99

> <Gold.Chemscore.Hbonds>
donor molecule, donor type, donor heavy atom, donor atom, acceptor molecule, acceptor atom, score
      L1  H     7    28       P1  7948  0.66
      L1  H    10    29       P1  7948  0.68
      P1  H  7989  7998       L1    15  0.66

> <Gold.Chemscore.Hbond.Weighted>
-6.3163

> <Gold.Chemscore.Metal.Weighted>
-0.0000

> <Gold.Chemscore.Lipo.Weighted>
-10.5770

> <Gold.Chemscore.Internal_Hbond.Weighted>
0.0000

> <Gold.Chemscore.DEClash.Weighted>
1.0775

> <Gold.Chemscore.DEInternal.Weighted>
0.5162

> <Gold.Chemscore.Rot.Weighted>
2.5600

> <Gold.Chemscore.Internal.Correction.Weighted>
   9.000000E+99

> <Gold.Protein.RotatedTorsions>
[ 6907 6896 6895 6894 ] final  150.84 input  -60.11 | X-H torsion
[ 7974 7965 7964 7962 ] final   74.71 input  175.53 | X-H torsion
[ 8008 7997 7996 7995 ] final    6.45 input   59.86 | X-H torsion
[ 10167 10162 10161 10158 ] final -116.42 input  -65.29 | X-H torsion
[ 10718 10713 10712 10709 ] final -107.63 input   66.30 | X-H torsion
[ 10763 10752 10751 10750 ] final -175.22 input  -60.55 | X-H torsion
[ 11005 11000 10999 10996 ] final   70.14 input  -57.11 | X-H torsion

> <Gold.Protein.ActiveResidues>
 VAL166  LYS551  ARG553  GLY616  TRP617  ASP618  TYR619  PRO620  LYS621  CYS622 
 ASP623  PHE694  ASN695  SER759  ASP760  ASP761  ALA762  ILE779  LEU786  VAL792 
 PHE793  MET794  SER795  GLU796  ALA797  LYS798  CYS799  TRP800  GLU811  SER814 

> <Gold.Protein.RotatedAtoms>
  152.1088  133.4289  159.4621 H   0  0  0  0  0  0  0  0  0  0  0  0  # atno 6907 bound_to 6896
  150.6866  134.2672  159.4582 H   0  0  0  0  0  0  0  0  0  0  0  0  # atno 6908 bound_to 6896
  152.0539  134.9636  160.0625 H   0  0  0  0  0  0  0  0  0  0  0  0  # atno 6909 bound_to 6896
  145.7248  139.2662  143.1575 H   0  0  0  0  0  0  0  0  0  0  0  0  # atno 7974 bound_to 7965
  154.7412  140.2749  155.6372 H   0  0  0  0  0  0  0  0  0  0  0  0  # atno 8008 bound_to 7997
  156.2874  140.2697  156.2065 H   0  0  0  0  0  0  0  0  0  0  0  0  # atno 8009 bound_to 7997
  155.0256  140.0371  157.2444 H   0  0  0  0  0  0  0  0  0  0  0  0  # atno 8010 bound_to 7997
  140.0794  143.4802  152.1934 H   0  0  0  0  0  0  0  0  0  0  0  0  # atno 10167 bound_to 10162
  156.0446  130.5672  150.7848 H   0  0  0  0  0  0  0  0  0  0  0  0  # atno 10718 bound_to 10713
  154.5870  135.2841  155.0675 H   0  0  0  0  0  0  0  0  0  0  0  0  # atno 10763 bound_to 10752
  154.1990  135.6428  153.5085 H   0  0  0  0  0  0  0  0  0  0  0  0  # atno 10764 bound_to 10752
  153.0108  135.5464  154.6543 H   0  0  0  0  0  0  0  0  0  0  0  0  # atno 10765 bound_to 10752
  139.9614  134.7054  156.0637 H   0  0  0  0  0  0  0  0  0  0  0  0  # atno 11005 bound_to 11000
  146.0592  140.7989  142.9743 LP  0  0  0  0  0  0  0  0  0  0  0  0  # atno 17320 bound_to 7965
  144.6907  140.3170  143.7238 LP  0  0  0  0  0  0  0  0  0  0  0  0  # atno 17321 bound_to 7965
  139.5788  144.7500  151.3694 LP  0  0  0  0  0  0  0  0  0  0  0  0  # atno 17342 bound_to 10162
  140.7085  143.7451  150.7525 LP  0  0  0  0  0  0  0  0  0  0  0  0  # atno 17343 bound_to 10162
  157.5305  131.0936  150.9961 LP  0  0  0  0  0  0  0  0  0  0  0  0  # atno 17370 bound_to 10713
  157.0268  130.5695  149.5338 LP  0  0  0  0  0  0  0  0  0  0  0  0  # atno 17371 bound_to 10713
  141.1292  133.6591  156.3417 LP  0  0  0  0  0  0  0  0  0  0  0  0  # atno 17394 bound_to 11000
  140.5491  134.6045  157.5402 LP  0  0  0  0  0  0  0  0  0  0  0  0  # atno 17395 bound_to 11000

$$$$
