AV-unprocessed.smi:1644|AV-procd|sdf|6596|dock9
  -GOLD-   22720 7293D 1   1.00000     0.00000
 Structure written by MMmdl.
 49 51  0  0  0  0  0  0  0  0  3 V2000
  149.2242  130.3829  154.2227 C   0  0  0  0  0  0  0  0  0  0  0  0
  148.6500  131.7933  154.3913 C   0  0  0  0  0  0  0  0  0  0  0  0
  149.4809  132.6531  155.3682 C   0  0  0  0  0  0  0  0  0  0  0  0
  149.2007  134.1757  155.3464 C   0  0  2  0  0  0  0  0  0  0  0  0
  149.9189  134.8403  154.2787 N   0  5  0  0  0  0  0  0  0  0  0  0
  150.6809  135.8189  154.8214 C   0  0  0  0  0  0  0  0  0  0  0  0
  151.4384  136.5802  154.2199 O   0  0  0  0  0  0  0  0  0  0  0  0
  150.5328  135.8644  156.1603 N   0  0  0  0  0  0  0  0  0  0  0  0
  151.2510  136.7766  157.0551 C   0  0  0  0  0  0  0  0  0  0  0  0
  150.9769  138.2512  156.6934 C   0  0  2  0  0  0  0  0  0  0  0  0
  151.8069  138.6277  155.6117 O   0  0  0  0  0  0  0  0  0  0  0  0
  151.2631  139.1987  157.8744 C   0  0  0  0  0  0  0  0  0  0  0  0
  151.0224  140.6058  157.5329 N   0  0  0  0  0  0  0  0  0  0  0  0
  150.4075  141.1590  156.4530 C   0  0  0  0  0  0  0  0  0  0  0  0
  150.4356  142.5115  156.6144 N   0  3  0  0  0  0  0  0  0  0  0  0
  151.0737  142.8245  157.8175 C   0  0  0  0  0  0  0  0  0  0  0  0
  151.3373  144.0491  158.4200 C   0  0  0  0  0  0  0  0  0  0  0  0
  152.0073  144.0248  159.6646 C   0  0  0  0  0  0  0  0  0  0  0  0
  152.3027  145.3453  160.3549 C   0  0  0  0  0  0  0  0  0  0  0  0
  152.3964  142.7972  160.2612 C   0  0  0  0  0  0  0  0  0  0  0  0
  153.1155  142.7810  161.5991 C   0  0  0  0  0  0  0  0  0  0  0  0
  152.1228  141.5630  159.6307 C   0  0  0  0  0  0  0  0  0  0  0  0
  151.4560  141.6056  158.4090 C   0  0  0  0  0  0  0  0  0  0  0  0
  149.6868  134.9172  156.5752 C   0  0  0  0  0  0  0  0  0  0  0  0
  149.3504  134.6570  157.7308 O   0  0  0  0  0  0  0  0  0  0  0  0
  148.6143  129.7950  153.5367 H   0  0  0  0  0  0  0  0  0  0  0  0
  149.2565  129.8545  155.1759 H   0  0  0  0  0  0  0  0  0  0  0  0
  150.2378  130.4167  153.8226 H   0  0  0  0  0  0  0  0  0  0  0  0
  148.6026  132.2706  153.4124 H   0  0  0  0  0  0  0  0  0  0  0  0
  147.6220  131.7159  154.7463 H   0  0  0  0  0  0  0  0  0  0  0  0
  149.3252  132.2855  156.3832 H   0  0  0  0  0  0  0  0  0  0  0  0
  150.5397  132.4929  155.1602 H   0  0  0  0  0  0  0  0  0  0  0  0
  148.1249  134.3344  155.2609 H   0  0  0  0  0  0  0  0  0  0  0  0
  150.9107  136.5746  158.0721 H   0  0  0  0  0  0  0  0  0  0  0  0
  152.3219  136.5647  157.0696 H   0  0  0  0  0  0  0  0  0  0  0  0
  149.9387  138.3740  156.3837 H   0  0  0  0  0  0  0  0  0  0  0  0
  152.2421  139.4361  155.8350 H   0  0  0  0  0  0  0  0  0  0  0  0
  150.6367  138.9523  158.7328 H   0  0  0  0  0  0  0  0  0  0  0  0
  152.2977  139.1035  158.2072 H   0  0  0  0  0  0  0  0  0  0  0  0
  149.9717  140.6227  155.6226 H   0  0  0  0  0  0  0  0  0  0  0  0
  151.0389  144.9799  157.9602 H   0  0  0  0  0  0  0  0  0  0  0  0
  151.8519  145.3685  161.3475 H   0  0  0  0  0  0  0  0  0  0  0  0
  151.9055  146.1892  159.7899 H   0  0  0  0  0  0  0  0  0  0  0  0
  153.3784  145.4890  160.4589 H   0  0  0  0  0  0  0  0  0  0  0  0
  153.3825  141.7660  161.8959 H   0  0  0  0  0  0  0  0  0  0  0  0
  152.4793  143.1997  162.3793 H   0  0  0  0  0  0  0  0  0  0  0  0
  154.0347  143.3649  161.5489 H   0  0  0  0  0  0  0  0  0  0  0  0
  152.4131  140.6271  160.0867 H   0  0  0  0  0  0  0  0  0  0  0  0
  150.0433  143.1694  155.9530 H   0  0  0  0  0  0  0  0  0  0  0  0
  1  2  1  0  0  0  0
  1 26  1  0  0  0  0
  1 27  1  0  0  0  0
  1 28  1  0  0  0  0
  2  3  1  0  0  0  0
  2 29  1  0  0  0  0
  2 30  1  0  0  0  0
  3  4  1  0  0  0  0
  3 31  1  0  0  0  0
  3 32  1  0  0  0  0
  4 24  1  0  0  0  0
  4  5  1  0  0  0  0
  4 33  1  0  0  0  0
  5  6  1  0  0  0  0
  6  7  2  0  0  0  0
  6  8  1  0  0  0  0
  8  9  1  0  0  0  0
  8 24  1  0  0  0  0
  9 10  1  0  0  0  0
  9 34  1  0  0  0  0
  9 35  1  0  0  0  0
 10 11  1  0  0  0  0
 10 12  1  0  0  0  0
 10 36  1  0  0  0  0
 11 37  1  0  0  0  0
 12 13  1  0  0  0  0
 12 38  1  0  0  0  0
 12 39  1  0  0  0  0
 13 23  1  0  0  0  0
 13 14  1  0  0  0  0
 14 15  2  0  0  0  0
 14 40  1  0  0  0  0
 15 16  1  0  0  0  0
 15 49  1  0  0  0  0
 16 23  2  0  0  0  0
 16 17  1  0  0  0  0
 17 18  2  0  0  0  0
 17 41  1  0  0  0  0
 18 19  1  0  0  0  0
 18 20  1  0  0  0  0
 19 42  1  0  0  0  0
 19 43  1  0  0  0  0
 19 44  1  0  0  0  0
 20 21  1  0  0  0  0
 20 22  2  0  0  0  0
 21 45  1  0  0  0  0
 21 46  1  0  0  0  0
 21 47  1  0  0  0  0
 22 23  1  0  0  0  0
 22 48  1  0  0  0  0
 24 25  2  0  0  0  0
M  CHG  1   5  -1
M  CHG  1  15   1
M  END
> <s_m_source_file>
AV-unprocessed.smi

> <i_m_source_file_index>
1644

> <i_lp_mmshare_version>
43012

> <i_f3d_flags>
0

> <s_epik_input>
W0NIM11bQ0gyXVtDSDJdW0NAQEhdMVtOSF1DKD1PKU4oQzE9TylbQ0gyXVtDQEhdKFtPSF0pW0NIMl1uKFtjSF1uMiljKGMyMylbY0hdYyhbQ0gzXSljKFtjSF0zKVtDSDNd

> <s_epik_cmdline>
J2VwaWtfcHl0aG9uJywgJy1waCcsICc3LjAnLCAnLXRuJywgJzgnLCAnLW1hJywgJzIwMCcsICctbWV0YWxfYmluZGluZycsICctaW1hZScsICc8aW5maWxlLm1hZT4nLCAnLW9tYWUnLCAnPG91dGZpbGUubWFlPic=

> <r_lp_tautomer_probability>
1

> <r_epik_Ionization_Penalty>
6.86868

> <r_epik_Ionization_Penalty_Charging>
6.86868

> <r_epik_Ionization_Penalty_Neutral>
5.84798e-07

> <r_epik_State_Penalty>
6.92818

> <r_epik_Charging_Adjusted_Penalty>
13.7969

> <i_epik_Tot_Q>
0

> <i_epik_Tot_abs_Q>
2

> <r_epik_Metal_State_Penalty>
2.98017

> <b_epik_Metal_Only>
1

> <s_lp_Force_Field>
OPLS_2005

> <r_lp_Energy>
22.7735

> <b_lp_Chiralities_Consistent>
1

> <s_lp_Variant>
AV-unprocessed.smi:1644-13

> <Gold.Version>
5.8.1

> <Gold.Id.Protein>
6NUR|6NUR_protein|mol2

> <Gold.PLP.Fitness>
54.7453

> <Gold.PLP.PLP>
-44.1147

> <Gold.PLP.part.hbond>
-3.0000

> <Gold.PLP.part.metal>
0.0000

> <Gold.PLP.part.buried>
-7.4429

> <Gold.PLP.part.nonpolar>
-35.8416

> <Gold.PLP.part.repulsive>
1.3176

> <Gold.PLP.ligand.clash>
0.0000

> <Gold.PLP.ligand.torsion>
0.5793

> <Gold.PLP.Chemscore.Hbond>
3.9020

> <Gold.PLP.Chemscore.CHOScore>
0.0000

> <Gold.PLP.Chemscore.Metal>
0.0000

> <Gold.Chemscore.Hbonds>
donor molecule, donor type, donor heavy atom, donor atom, acceptor molecule, acceptor atom, score
      L1  H    15    49       P1  8028  1.92
      P1  H  6896  6909       L1    25  0.62
      P1  H 10752 10765       L1     7  0.95

> <Gold.PLP.Chemscore.Internal.Correction>
0.0831

> <Gold.Rescore>
     Score         DG    S(hbond)    S(metal)    S(lipo)     H(rot)  DE(clash)    DE(int)     intcor
     18.47     -20.22       2.70        0.00     108.42       2.72       0.41       1.35       ----

> <Gold.Chemscore.Fitness>
18.4692

> <Gold.Chemscore.DG>
-20.2241

> <Gold.Chemscore.ZeroCoef>
-5.4800

> <Gold.Chemscore.Hbond>
2.7047

> <Gold.Chemscore.Metal>
0.0000

> <Gold.Chemscore.Lipo>
108.4204

> <Gold.Chemscore.Internal_Hbond>
0.0000

> <Gold.Chemscore.DEClash>
0.4094

> <Gold.Chemscore.DEInternal>
1.3454

> <Gold.Chemscore.Rot>
2.7245

> <Gold.Chemscore.Internal.Correction>
   9.000000E+99

> <Gold.Chemscore.Hbonds>
donor molecule, donor type, donor heavy atom, donor atom, acceptor molecule, acceptor atom, score
      L1  H    15    49       P1  8028  0.91
      P1  H  6896  6909       L1    25  0.60
      P1  H 10752 10765       L1     7  0.22

> <Gold.Chemscore.Hbond.Weighted>
-9.0337

> <Gold.Chemscore.Metal.Weighted>
-0.0000

> <Gold.Chemscore.Lipo.Weighted>
-12.6852

> <Gold.Chemscore.Internal_Hbond.Weighted>
0.0000

> <Gold.Chemscore.DEClash.Weighted>
0.4094

> <Gold.Chemscore.DEInternal.Weighted>
1.3454

> <Gold.Chemscore.Rot.Weighted>
6.9748

> <Gold.Chemscore.Internal.Correction.Weighted>
   9.000000E+99

> <Gold.Protein.RotatedTorsions>
[ 6907 6896 6895 6894 ] final   40.40 input  -60.11 | X-H torsion
[ 7974 7965 7964 7962 ] final   20.47 input  175.53 | X-H torsion
[ 8008 7997 7996 7995 ] final  -50.36 input   59.86 | X-H torsion
[ 10167 10162 10161 10158 ] final    2.35 input  -65.29 | X-H torsion
[ 10718 10713 10712 10709 ] final  -61.91 input   66.30 | X-H torsion
[ 10763 10752 10751 10750 ] final  165.53 input  -60.55 | X-H torsion
[ 11005 11000 10999 10996 ] final  -53.60 input  -57.11 | X-H torsion

> <Gold.Protein.ActiveResidues>
 VAL166  LYS551  ARG553  GLY616  TRP617  ASP618  TYR619  PRO620  LYS621  CYS622 
 ASP623  PHE694  ASN695  SER759  ASP760  ASP761  ALA762  ILE779  LEU786  VAL792 
 PHE793  MET794  SER795  GLU796  ALA797  LYS798  CYS799  TRP800  GLU811  SER814 

> <Gold.Protein.RotatedAtoms>
  152.1821  134.8745  160.0525 H   0  0  0  0  0  0  0  0  0  0  0  0  # atno 6907 bound_to 6896
  151.9666  133.3707  159.4063 H   0  0  0  0  0  0  0  0  0  0  0  0  # atno 6908 bound_to 6896
  150.6919  134.4108  159.5204 H   0  0  0  0  0  0  0  0  0  0  0  0  # atno 6909 bound_to 6896
  146.2110  139.8165  142.8689 H   0  0  0  0  0  0  0  0  0  0  0  0  # atno 7974 bound_to 7965
  154.4060  140.1274  156.4653 H   0  0  0  0  0  0  0  0  0  0  0  0  # atno 8008 bound_to 7997
  155.7233  140.3492  155.5006 H   0  0  0  0  0  0  0  0  0  0  0  0  # atno 8009 bound_to 7997
  155.9194  140.1050  157.1208 H   0  0  0  0  0  0  0  0  0  0  0  0  # atno 8010 bound_to 7997
  140.6639  143.7230  150.7790 H   0  0  0  0  0  0  0  0  0  0  0  0  # atno 10167 bound_to 10162
  156.0890  130.4203  150.1060 H   0  0  0  0  0  0  0  0  0  0  0  0  # atno 10718 bound_to 10713
  154.3253  135.2755  155.2499 H   0  0  0  0  0  0  0  0  0  0  0  0  # atno 10763 bound_to 10752
  154.4834  135.5852  153.6410 H   0  0  0  0  0  0  0  0  0  0  0  0  # atno 10764 bound_to 10752
  152.9872  135.6117  154.3441 H   0  0  0  0  0  0  0  0  0  0  0  0  # atno 10765 bound_to 10752
  141.0984  133.6621  156.4195 H   0  0  0  0  0  0  0  0  0  0  0  0  # atno 11005 bound_to 11000
  145.3141  141.0227  143.3538 LP  0  0  0  0  0  0  0  0  0  0  0  0  # atno 17320 bound_to 7965
  144.8914  139.4769  143.6676 LP  0  0  0  0  0  0  0  0  0  0  0  0  # atno 17321 bound_to 7965
  140.0904  143.4883  152.2482 LP  0  0  0  0  0  0  0  0  0  0  0  0  # atno 17342 bound_to 10162
  139.5882  144.7539  151.3467 LP  0  0  0  0  0  0  0  0  0  0  0  0  # atno 17343 bound_to 10162
  156.9074  130.9640  151.3568 LP  0  0  0  0  0  0  0  0  0  0  0  0  # atno 17370 bound_to 10713
  157.6034  130.8529  149.8837 LP  0  0  0  0  0  0  0  0  0  0  0  0  # atno 17371 bound_to 10713
  140.5084  134.6419  157.5275 LP  0  0  0  0  0  0  0  0  0  0  0  0  # atno 17394 bound_to 11000
  139.9827  134.7111  155.9830 LP  0  0  0  0  0  0  0  0  0  0  0  0  # atno 17395 bound_to 11000

$$$$
