AV-unprocessed.smi:2950|AV-procd|sdf|11289|dock4
  -GOLD-   2272016183D 1   1.00000     0.00000
 Structure written by MMmdl.
 30 31  0  0  0  0  0  0  0  0  2 V2000
  150.6185  136.6067  155.3703 C   0  0  0  0  0  0  0  0  0  0  0  0
  151.9138  137.1730  155.2812 O   0  0  0  0  0  0  0  0  0  0  0  0
  151.8908  138.5912  155.3090 C   0  0  0  0  0  0  0  0  0  0  0  0
  151.3042  139.0707  156.6446 C   0  0  0  0  0  0  0  0  0  0  0  0
  150.9495  140.4967  156.6151 N   0  0  0  0  0  0  0  0  0  0  0  0
  150.0595  141.1715  155.8314 C   0  0  0  0  0  0  0  0  0  0  0  0
  149.1944  140.6011  154.7569 C   0  0  0  0  0  0  0  0  0  0  0  0
  149.5894  141.0249  153.4712 O   0  0  0  0  0  0  0  0  0  0  0  0
  150.1050  142.4812  156.2059 N   0  3  0  0  0  0  0  0  0  0  0  0
  151.0270  142.6453  157.2404 C   0  0  0  0  0  0  0  0  0  0  0  0
  151.4162  143.7811  157.9437 C   0  0  0  0  0  0  0  0  0  0  0  0
  152.3868  143.5997  158.9511 C   0  0  0  0  0  0  0  0  0  0  0  0
  152.9314  142.3282  159.2259 C   0  0  0  0  0  0  0  0  0  0  0  0
  152.5309  141.1844  158.5041 C   0  0  0  0  0  0  0  0  0  0  0  0
  151.5716  141.3731  157.5100 C   0  0  0  0  0  0  0  0  0  0  0  0
  150.6912  135.5193  155.3535 H   0  0  0  0  0  0  0  0  0  0  0  0
  149.9952  136.9147  154.5298 H   0  0  0  0  0  0  0  0  0  0  0  0
  150.1242  136.8968  156.2983 H   0  0  0  0  0  0  0  0  0  0  0  0
  152.9015  138.9819  155.1831 H   0  0  0  0  0  0  0  0  0  0  0  0
  151.2894  138.9729  154.4826 H   0  0  0  0  0  0  0  0  0  0  0  0
  150.4209  138.4918  156.9158 H   0  0  0  0  0  0  0  0  0  0  0  0
  152.0271  138.9230  157.4472 H   0  0  0  0  0  0  0  0  0  0  0  0
  149.2227  139.5124  154.8007 H   0  0  0  0  0  0  0  0  0  0  0  0
  148.1602  140.9006  154.9281 H   0  0  0  0  0  0  0  0  0  0  0  0
  149.3978  140.3345  152.8549 H   0  0  0  0  0  0  0  0  0  0  0  0
  150.9998  144.7556  157.7346 H   0  0  0  0  0  0  0  0  0  0  0  0
  152.7195  144.4525  159.5250 H   0  0  0  0  0  0  0  0  0  0  0  0
  153.6716  142.2273  160.0064 H   0  0  0  0  0  0  0  0  0  0  0  0
  152.9530  140.2145  158.7217 H   0  0  0  0  0  0  0  0  0  0  0  0
  149.5437  143.2080  155.7810 H   0  0  0  0  0  0  0  0  0  0  0  0
  1  2  1  0  0  0  0
  1 16  1  0  0  0  0
  1 17  1  0  0  0  0
  1 18  1  0  0  0  0
  2  3  1  0  0  0  0
  3  4  1  0  0  0  0
  3 19  1  0  0  0  0
  3 20  1  0  0  0  0
  4  5  1  0  0  0  0
  4 21  1  0  0  0  0
  4 22  1  0  0  0  0
  5 15  1  0  0  0  0
  5  6  1  0  0  0  0
  6  7  1  0  0  0  0
  6  9  2  0  0  0  0
  7  8  1  0  0  0  0
  7 23  1  0  0  0  0
  7 24  1  0  0  0  0
  8 25  1  0  0  0  0
  9 10  1  0  0  0  0
  9 30  1  0  0  0  0
 10 15  2  0  0  0  0
 10 11  1  0  0  0  0
 11 12  2  0  0  0  0
 11 26  1  0  0  0  0
 12 13  1  0  0  0  0
 12 27  1  0  0  0  0
 13 14  2  0  0  0  0
 13 28  1  0  0  0  0
 14 15  1  0  0  0  0
 14 29  1  0  0  0  0
M  CHG  1   9   1
M  END
> <s_m_source_file>
AV-unprocessed.smi

> <i_m_source_file_index>
2950

> <i_lp_mmshare_version>
43012

> <i_f3d_flags>
0

> <s_epik_input>
W0NIM11PW0NIMl1bQ0gyXW4oYyhuMSlbQ0gyXVtPSF0pYyhjMTIpW2NIXVtjSF1bY0hdW2NIXTI=

> <s_epik_cmdline>
J2VwaWtfcHl0aG9uJywgJy1waCcsICc3LjAnLCAnLXRuJywgJzgnLCAnLW1hJywgJzIwMCcsICctbWV0YWxfYmluZGluZycsICctaW1hZScsICc8aW5maWxlLm1hZT4nLCAnLW9tYWUnLCAnPG91dGZpbGUubWFlPic=

> <r_epik_Ionization_Penalty>
1.35411

> <r_epik_Ionization_Penalty_Charging>
1.35325

> <r_epik_Ionization_Penalty_Neutral>
0.000855784

> <r_epik_State_Penalty>
1.4315

> <r_epik_Charging_Adjusted_Penalty>
2.78475

> <i_epik_Tot_Q>
1

> <i_epik_Tot_abs_Q>
1

> <r_epik_Metal_State_Penalty>
5.4689

> <b_epik_Metal_Only>
0

> <s_lp_Force_Field>
OPLS_2005

> <r_lp_Energy>
9.95832

> <b_lp_Chiralities_Consistent>
1

> <s_lp_Variant>
AV-unprocessed.smi:2950-2

> <Gold.Version>
5.8.1

> <Gold.Id.Protein>
6NUR|6NUR_protein|mol2

> <Gold.PLP.Fitness>
49.1287

> <Gold.PLP.PLP>
-34.5129

> <Gold.PLP.part.hbond>
-4.9396

> <Gold.PLP.part.metal>
0.0000

> <Gold.PLP.part.buried>
-4.5931

> <Gold.PLP.part.nonpolar>
-26.4234

> <Gold.PLP.part.repulsive>
0.1771

> <Gold.PLP.ligand.clash>
0.0000

> <Gold.PLP.ligand.torsion>
0.1289

> <Gold.PLP.Chemscore.Hbond>
4.9560

> <Gold.PLP.Chemscore.CHOScore>
0.0000

> <Gold.PLP.Chemscore.Metal>
0.0000

> <Gold.Chemscore.Hbonds>
donor molecule, donor type, donor heavy atom, donor atom, acceptor molecule, acceptor atom, score
      L1  H     8    25       P1  7957  0.74
      L1  H     9    30       P1  8028  2.00
      P1  H  7989  7998       L1     8  0.23
      P1  H  8011  8017       L1     8  1.00
      P1  H 10752 10764       L1     2  0.98

> <Gold.PLP.Chemscore.Internal.Correction>
0.0056

> <Gold.Rescore>
     Score         DG    S(hbond)    S(metal)    S(lipo)     H(rot)  DE(clash)    DE(int)     intcor
     20.10     -20.40       3.28        0.00      82.34       2.21       0.05       0.25       ----

> <Gold.Chemscore.Fitness>
20.0960

> <Gold.Chemscore.DG>
-20.3976

> <Gold.Chemscore.ZeroCoef>
-5.4800

> <Gold.Chemscore.Hbond>
3.2752

> <Gold.Chemscore.Metal>
0.0000

> <Gold.Chemscore.Lipo>
82.3402

> <Gold.Chemscore.Internal_Hbond>
0.0000

> <Gold.Chemscore.DEClash>
0.0548

> <Gold.Chemscore.DEInternal>
0.2468

> <Gold.Chemscore.Rot>
2.2092

> <Gold.Chemscore.Internal.Correction>
   9.000000E+99

> <Gold.Chemscore.Hbonds>
donor molecule, donor type, donor heavy atom, donor atom, acceptor molecule, acceptor atom, score
      L1  H     8    25       P1  7957  0.74
      L1  H     9    30       P1  8028  0.98
      P1  H  7989  7998       L1     8  0.03
      P1  H  8011  8017       L1     8  0.25
      P1  H 10752 10764       L1     2  0.27

> <Gold.Chemscore.Hbond.Weighted>
-10.9393

> <Gold.Chemscore.Metal.Weighted>
-0.0000

> <Gold.Chemscore.Lipo.Weighted>
-9.6338

> <Gold.Chemscore.Internal_Hbond.Weighted>
0.0000

> <Gold.Chemscore.DEClash.Weighted>
0.0548

> <Gold.Chemscore.DEInternal.Weighted>
0.2468

> <Gold.Chemscore.Rot.Weighted>
5.6555

> <Gold.Chemscore.Internal.Correction.Weighted>
   9.000000E+99

> <Gold.Protein.RotatedTorsions>
[ 6907 6896 6895 6894 ] final   69.92 input  -60.11 | X-H torsion
[ 7974 7965 7964 7962 ] final  -35.78 input  175.53 | X-H torsion
[ 8008 7997 7996 7995 ] final -149.89 input   59.86 | X-H torsion
[ 10167 10162 10161 10158 ] final   82.01 input  -65.29 | X-H torsion
[ 10718 10713 10712 10709 ] final   56.39 input   66.30 | X-H torsion
[ 10763 10752 10751 10750 ] final  -55.36 input  -60.55 | X-H torsion
[ 11005 11000 10999 10996 ] final  -25.36 input  -57.11 | X-H torsion

> <Gold.Protein.ActiveResidues>
 VAL166  LYS551  ARG553  GLY616  TRP617  ASP618  TYR619  PRO620  LYS621  CYS622 
 ASP623  PHE694  ASN695  SER759  ASP760  ASP761  ALA762  ILE779  LEU786  VAL792 
 PHE793  MET794  SER795  GLU796  ALA797  LYS798  CYS799  TRP800  GLU811  SER814 

> <Gold.Protein.RotatedAtoms>
  152.4717  134.4945  159.9705 H   0  0  0  0  0  0  0  0  0  0  0  0  # atno 6907 bound_to 6896
  151.4970  133.3506  159.2870 H   0  0  0  0  0  0  0  0  0  0  0  0  # atno 6908 bound_to 6896
  150.8730  134.8135  159.7231 H   0  0  0  0  0  0  0  0  0  0  0  0  # atno 6909 bound_to 6896
  146.0717  140.6200  142.8949 H   0  0  0  0  0  0  0  0  0  0  0  0  # atno 7974 bound_to 7965
  155.6149  140.0675  157.2695 H   0  0  0  0  0  0  0  0  0  0  0  0  # atno 8008 bound_to 7997
  154.4244  140.1795  156.1359 H   0  0  0  0  0  0  0  0  0  0  0  0  # atno 8009 bound_to 7997
  156.0056  140.3332  155.6892 H   0  0  0  0  0  0  0  0  0  0  0  0  # atno 8010 bound_to 7997
  139.9333  144.6138  150.8323 H   0  0  0  0  0  0  0  0  0  0  0  0  # atno 10167 bound_to 10162
  157.5426  130.8708  149.8845 H   0  0  0  0  0  0  0  0  0  0  0  0  # atno 10718 bound_to 10713
  154.1896  135.6429  153.5056 H   0  0  0  0  0  0  0  0  0  0  0  0  # atno 10763 bound_to 10752
  153.0038  135.5425  154.6429 H   0  0  0  0  0  0  0  0  0  0  0  0  # atno 10764 bound_to 10752
  154.5814  135.2925  155.0701 H   0  0  0  0  0  0  0  0  0  0  0  0  # atno 10765 bound_to 10752
  140.8930  133.7575  156.0445 H   0  0  0  0  0  0  0  0  0  0  0  0  # atno 11005 bound_to 11000
  144.7236  140.4453  143.6990 LP  0  0  0  0  0  0  0  0  0  0  0  0  # atno 17320 bound_to 7965
  145.6379  139.1545  143.2932 LP  0  0  0  0  0  0  0  0  0  0  0  0  # atno 17321 bound_to 7965
  140.7631  143.3215  151.2610 LP  0  0  0  0  0  0  0  0  0  0  0  0  # atno 17342 bound_to 10162
  139.6764  143.9930  152.2783 LP  0  0  0  0  0  0  0  0  0  0  0  0  # atno 17343 bound_to 10162
  156.0509  130.3718  150.1203 LP  0  0  0  0  0  0  0  0  0  0  0  0  # atno 17370 bound_to 10713
  156.9381  130.9735  151.3521 LP  0  0  0  0  0  0  0  0  0  0  0  0  # atno 17371 bound_to 10713
  140.8323  134.3163  157.5344 LP  0  0  0  0  0  0  0  0  0  0  0  0  # atno 17394 bound_to 11000
  139.8732  134.9370  156.3676 LP  0  0  0  0  0  0  0  0  0  0  0  0  # atno 17395 bound_to 11000

$$$$
