AV-unprocessed.smi:2032|AV-procd|sdf|8231|dock2
  -GOLD-   2272010503D 1   1.00000     0.00000
 Structure written by MMmdl.
 42 43  0  0  0  0  0  0  0  0  1 V2000
  150.0429  141.1171  157.0542 C   0  0  0  0  0  0  0  0  0  0  0  0
  150.3543  141.3142  155.5605 C   0  0  2  0  0  0  0  0  0  0  0  0
  149.0987  141.2843  154.6667 C   0  0  0  0  0  0  0  0  0  0  0  0
  148.5327  139.9417  154.4893 N   0  0  0  0  0  0  0  0  0  0  0  0
  147.3372  139.9365  153.6117 C   0  0  2  0  0  0  0  0  0  0  0  0
  146.5234  141.2531  153.7016 C   0  0  0  0  0  0  0  0  0  0  0  0
  146.3884  138.7326  153.8789 C   0  0  0  0  0  0  0  0  0  0  0  0
  146.7282  137.5462  153.0951 N   0  0  0  0  0  0  0  0  0  0  0  0
  145.9326  136.4831  152.9029 C   0  0  0  0  0  0  0  0  0  0  0  0
  144.7980  136.3875  153.3715 O   0  0  0  0  0  0  0  0  0  0  0  0
  146.5353  135.5583  152.1350 N   0  0  0  0  0  0  0  0  0  0  0  0
  146.0221  134.3073  151.7018 C   0  0  0  0  0  0  0  0  0  0  0  0
  146.7745  133.3013  151.2404 N   0  0  0  0  0  0  0  0  0  0  0  0
  146.0051  132.1903  150.8857 C   0  0  0  0  0  0  0  0  0  0  0  0
  144.6588  132.3686  151.0852 C   0  0  0  0  0  0  0  0  0  0  0  0
  144.3018  133.9482  151.7314 S   0  0  0  0  0  0  0  0  0  0  0  0
  149.6015  139.0633  154.0036 C   0  0  0  0  0  0  0  0  0  0  0  0
  150.8339  139.0516  154.9262 C   0  0  1  0  0  0  0  0  0  0  0  0
  151.9718  138.1970  154.3573 C   0  0  0  0  0  0  0  0  0  0  0  0
  151.3212  140.3790  155.0892 O   0  0  0  0  0  0  0  0  0  0  0  0
  149.4002  141.9165  157.4237 H   0  0  0  0  0  0  0  0  0  0  0  0
  150.9575  141.1278  157.6473 H   0  0  0  0  0  0  0  0  0  0  0  0
  149.5303  140.1747  157.2467 H   0  0  0  0  0  0  0  0  0  0  0  0
  150.8111  142.2992  155.4607 H   0  0  0  0  0  0  0  0  0  0  0  0
  148.3713  141.9575  155.1163 H   0  0  0  0  0  0  0  0  0  0  0  0
  149.3493  141.7021  153.6905 H   0  0  0  0  0  0  0  0  0  0  0  0
  147.6800  139.8476  152.5797 H   0  0  0  0  0  0  0  0  0  0  0  0
  145.6323  141.2353  153.0762 H   0  0  0  0  0  0  0  0  0  0  0  0
  147.0874  142.1166  153.3525 H   0  0  0  0  0  0  0  0  0  0  0  0
  146.2015  141.4490  154.7250 H   0  0  0  0  0  0  0  0  0  0  0  0
  146.4548  138.3999  154.9127 H   0  0  0  0  0  0  0  0  0  0  0  0
  145.3514  139.0338  153.7209 H   0  0  0  0  0  0  0  0  0  0  0  0
  147.6422  137.5363  152.6669 H   0  0  0  0  0  0  0  0  0  0  0  0
  147.4694  135.7751  151.8207 H   0  0  0  0  0  0  0  0  0  0  0  0
  146.4990  131.3117  150.4981 H   0  0  0  0  0  0  0  0  0  0  0  0
  143.8594  131.6686  150.8924 H   0  0  0  0  0  0  0  0  0  0  0  0
  149.2543  138.0346  153.9367 H   0  0  0  0  0  0  0  0  0  0  0  0
  149.8981  139.3650  152.9978 H   0  0  0  0  0  0  0  0  0  0  0  0
  150.5561  138.6441  155.8986 H   0  0  0  0  0  0  0  0  0  0  0  0
  151.6596  137.1599  154.2332 H   0  0  0  0  0  0  0  0  0  0  0  0
  152.8361  138.2066  155.0218 H   0  0  0  0  0  0  0  0  0  0  0  0
  152.2961  138.5682  153.3848 H   0  0  0  0  0  0  0  0  0  0  0  0
  1  2  1  0  0  0  0
  1 21  1  0  0  0  0
  1 22  1  0  0  0  0
  1 23  1  0  0  0  0
  2 20  1  0  0  0  0
  2  3  1  0  0  0  0
  2 24  1  0  0  0  0
  3  4  1  0  0  0  0
  3 25  1  0  0  0  0
  3 26  1  0  0  0  0
  4  5  1  0  0  0  0
  4 17  1  0  0  0  0
  5  6  1  0  0  0  0
  5  7  1  0  0  0  0
  5 27  1  0  0  0  0
  6 28  1  0  0  0  0
  6 29  1  0  0  0  0
  6 30  1  0  0  0  0
  7  8  1  0  0  0  0
  7 31  1  0  0  0  0
  7 32  1  0  0  0  0
  8  9  1  0  0  0  0
  8 33  1  0  0  0  0
  9 10  2  0  0  0  0
  9 11  1  0  0  0  0
 11 12  1  0  0  0  0
 11 34  1  0  0  0  0
 12 16  1  0  0  0  0
 12 13  2  0  0  0  0
 13 14  1  0  0  0  0
 14 15  2  0  0  0  0
 14 35  1  0  0  0  0
 15 16  1  0  0  0  0
 15 36  1  0  0  0  0
 17 18  1  0  0  0  0
 17 37  1  0  0  0  0
 17 38  1  0  0  0  0
 18 19  1  0  0  0  0
 18 20  1  0  0  0  0
 18 39  1  0  0  0  0
 19 40  1  0  0  0  0
 19 41  1  0  0  0  0
 19 42  1  0  0  0  0
M  END
> <s_m_source_file>
AV-unprocessed.smi

> <i_m_source_file_index>
2032

> <i_lp_mmshare_version>
43012

> <i_f3d_flags>
0

> <s_epik_input>
W0NIM11bQ0BASF0xW0NIMl1OKFtDSDJdW0NASF0oTzEpW0NIM10pW0NASF0oW0NIM10pW0NIMl1bTkhdQyg9TylbTkhdYzJuW2NIXVtjSF1zMg==

> <s_epik_cmdline>
J2VwaWtfcHl0aG9uJywgJy1waCcsICc3LjAnLCAnLXRuJywgJzgnLCAnLW1hJywgJzIwMCcsICctbWV0YWxfYmluZGluZycsICctaW1hZScsICc8aW5maWxlLm1hZT4nLCAnLW9tYWUnLCAnPG91dGZpbGUubWFlPic=

> <r_lp_tautomer_probability>
0.999

> <r_epik_Ionization_Penalty>
0.219202

> <r_epik_Ionization_Penalty_Charging>
0

> <r_epik_Ionization_Penalty_Neutral>
0.219202

> <r_epik_State_Penalty>
0.209349

> <r_epik_Charging_Adjusted_Penalty>
0.209349

> <i_epik_Tot_Q>
0

> <i_epik_Tot_abs_Q>
0

> <r_epik_Metal_State_Penalty>
0.247737

> <b_epik_Metal_Only>
0

> <s_lp_Force_Field>
OPLS_2005

> <r_lp_Energy>
29.8023

> <b_lp_Chiralities_Consistent>
1

> <s_lp_Variant>
AV-unprocessed.smi:2032-1

> <Gold.Version>
5.8.1

> <Gold.Id.Protein>
6NUR|6NUR_protein|mol2

> <Gold.PLP.Fitness>
43.0739

> <Gold.PLP.PLP>
-34.7024

> <Gold.PLP.part.hbond>
-2.8427

> <Gold.PLP.part.metal>
0.0000

> <Gold.PLP.part.buried>
-4.1953

> <Gold.PLP.part.nonpolar>
-28.6084

> <Gold.PLP.part.repulsive>
0.5499

> <Gold.PLP.ligand.clash>
0.0000

> <Gold.PLP.ligand.torsion>
1.1604

> <Gold.PLP.Chemscore.Hbond>
2.7585

> <Gold.PLP.Chemscore.CHOScore>
0.7856

> <Gold.PLP.Chemscore.Metal>
0.0000

> <Gold.Chemscore.Hbonds>
donor molecule, donor type, donor heavy atom, donor atom, acceptor molecule, acceptor atom, score
      L1  H     8    33       P1  7948  0.82
      L1  H    11    34       P1  7948  0.98
      P1  H  7989  7998       L1    20  1.00
      L1  C    14    35       P1 10747  0.99

> <Gold.PLP.Chemscore.Internal.Correction>
0.0600

> <Gold.Rescore>
     Score         DG    S(hbond)    S(metal)    S(lipo)     H(rot)  DE(clash)    DE(int)     intcor
     15.59     -17.71       1.99        0.00      82.20       1.57       0.01       2.10       ----

> <Gold.Chemscore.Fitness>
15.5888

> <Gold.Chemscore.DG>
-17.7065

> <Gold.Chemscore.ZeroCoef>
-5.4800

> <Gold.Chemscore.Hbond>
1.9883

> <Gold.Chemscore.Metal>
0.0000

> <Gold.Chemscore.Lipo>
82.2007

> <Gold.Chemscore.Internal_Hbond>
0.0000

> <Gold.Chemscore.DEClash>
0.0136

> <Gold.Chemscore.DEInternal>
2.1041

> <Gold.Chemscore.Rot>
1.5750

> <Gold.Chemscore.Internal.Correction>
   9.000000E+99

> <Gold.Chemscore.Hbonds>
donor molecule, donor type, donor heavy atom, donor atom, acceptor molecule, acceptor atom, score
      L1  H     8    33       P1  7948  0.78
      L1  H    11    34       P1  7948  0.91
      P1  H  7989  7998       L1    20  0.19

> <Gold.Chemscore.Hbond.Weighted>
-6.6409

> <Gold.Chemscore.Metal.Weighted>
-0.0000

> <Gold.Chemscore.Lipo.Weighted>
-9.6175

> <Gold.Chemscore.Internal_Hbond.Weighted>
0.0000

> <Gold.Chemscore.DEClash.Weighted>
0.0136

> <Gold.Chemscore.DEInternal.Weighted>
2.1041

> <Gold.Chemscore.Rot.Weighted>
4.0319

> <Gold.Chemscore.Internal.Correction.Weighted>
   9.000000E+99

> <Gold.Protein.RotatedTorsions>
[ 6907 6896 6895 6894 ] final  -18.48 input  -60.11 | X-H torsion
[ 7974 7965 7964 7962 ] final   -6.21 input  175.53 | X-H torsion
[ 8008 7997 7996 7995 ] final  -23.07 input   59.86 | X-H torsion
[ 10167 10162 10161 10158 ] final   69.13 input  -65.29 | X-H torsion
[ 10718 10713 10712 10709 ] final  -24.88 input   66.30 | X-H torsion
[ 10763 10752 10751 10750 ] final  155.52 input  -60.55 | X-H torsion
[ 11005 11000 10999 10996 ] final  -97.00 input  -57.11 | X-H torsion

> <Gold.Protein.ActiveResidues>
 VAL166  LYS551  ARG553  GLY616  TRP617  ASP618  TYR619  PRO620  LYS621  CYS622 
 ASP623  PHE694  ASN695  SER759  ASP760  ASP761  ALA762  ILE779  LEU786  VAL792 
 PHE793  MET794  SER795  GLU796  ALA797  LYS798  CYS799  TRP800  GLU811  SER814 

> <Gold.Protein.RotatedAtoms>
  151.2776  135.0704  159.9156 H   0  0  0  0  0  0  0  0  0  0  0  0  # atno 6907 bound_to 6896
  152.5340  134.0065  159.7929 H   0  0  0  0  0  0  0  0  0  0  0  0  # atno 6908 bound_to 6896
  151.0313  133.5737  159.2691 H   0  0  0  0  0  0  0  0  0  0  0  0  # atno 6909 bound_to 6896
  146.2336  140.2137  142.8336 H   0  0  0  0  0  0  0  0  0  0  0  0  # atno 7974 bound_to 7965
  154.4606  140.1990  156.0255 H   0  0  0  0  0  0  0  0  0  0  0  0  # atno 8008 bound_to 7997
  156.0833  140.3268  155.7693 H   0  0  0  0  0  0  0  0  0  0  0  0  # atno 8009 bound_to 7997
  155.5076  140.0559  157.2919 H   0  0  0  0  0  0  0  0  0  0  0  0  # atno 8010 bound_to 7997
  140.0711  144.5151  150.7226 H   0  0  0  0  0  0  0  0  0  0  0  0  # atno 10167 bound_to 10162
  156.4717  130.4526  149.6865 H   0  0  0  0  0  0  0  0  0  0  0  0  # atno 10718 bound_to 10713
  154.1697  135.2805  155.3085 H   0  0  0  0  0  0  0  0  0  0  0  0  # atno 10763 bound_to 10752
  154.6085  135.5506  153.7451 H   0  0  0  0  0  0  0  0  0  0  0  0  # atno 10764 bound_to 10752
  153.0168  135.6409  154.1837 H   0  0  0  0  0  0  0  0  0  0  0  0  # atno 10765 bound_to 10752
  141.1393  133.8138  157.0647 H   0  0  0  0  0  0  0  0  0  0  0  0  # atno 11005 bound_to 11000
  144.9686  140.8347  143.5469 LP  0  0  0  0  0  0  0  0  0  0  0  0  # atno 17320 bound_to 7965
  145.2116  139.2202  143.5140 LP  0  0  0  0  0  0  0  0  0  0  0  0  # atno 17321 bound_to 7965
  140.7125  143.2516  151.4537 LP  0  0  0  0  0  0  0  0  0  0  0  0  # atno 17342 bound_to 10162
  139.5835  144.1656  152.1999 LP  0  0  0  0  0  0  0  0  0  0  0  0  # atno 17343 bound_to 10162
  156.3611  130.7482  151.2454 LP  0  0  0  0  0  0  0  0  0  0  0  0  # atno 17370 bound_to 10713
  157.7491  131.0350  150.4342 LP  0  0  0  0  0  0  0  0  0  0  0  0  # atno 17371 bound_to 10713
  140.0549  134.9786  157.1202 LP  0  0  0  0  0  0  0  0  0  0  0  0  # atno 17394 bound_to 11000
  140.3934  134.2160  155.7165 LP  0  0  0  0  0  0  0  0  0  0  0  0  # atno 17395 bound_to 11000

$$$$
