AV-unprocessed.smi:193|AV-procd|sdf|1500|dock7
  -GOLD-   2262019323D 1   1.00000     0.00000
 Structure written by MMmdl.
 62 66  0  0  0  0  0  0  0  0  2 V2000
  154.1533  140.3984  160.2700 C   0  0  0  0  0  0  0  0  0  0  0  0
  152.8836  140.8648  159.5396 C   0  0  2  0  0  0  0  0  0  0  0  0
  152.7239  140.0677  158.2277 C   0  0  0  0  0  0  0  0  0  0  0  0
  151.3546  140.0223  157.7094 N   0  0  0  0  0  0  0  0  0  0  0  0
  151.0601  139.0880  156.7673 C   0  0  0  0  0  0  0  0  0  0  0  0
  151.8019  139.0404  155.6288 N   0  0  0  0  0  0  0  0  0  0  0  0
  151.5243  138.1447  154.6770 C   0  0  0  0  0  0  0  0  0  0  0  0
  150.5660  137.2172  154.6586 N   0  0  0  0  0  0  0  0  0  0  0  0
  149.8233  137.2500  155.8016 C   0  0  0  0  0  0  0  0  0  0  0  0
  150.0043  138.1392  156.8991 C   0  0  0  0  0  0  0  0  0  0  0  0
  149.0743  137.8550  157.8932 N   0  0  0  0  0  0  0  0  0  0  0  0
  148.3760  136.8664  157.4055 C   0  0  0  0  0  0  0  0  0  0  0  0
  148.7478  136.4503  156.1472 N   0  0  0  0  0  0  0  0  0  0  0  0
  148.1368  135.3844  155.3675 C   0  0  0  0  0  0  0  0  0  0  0  0
  149.1469  134.3403  154.8278 C   0  0  0  0  0  0  0  0  0  0  0  0
  149.8819  134.9486  153.7803 O   0  0  0  0  0  0  0  0  0  0  0  0
  150.1353  133.9273  155.9369 C   0  0  0  0  0  0  0  0  0  0  0  0
  151.0473  132.7667  155.5007 C   0  0  0  0  0  0  0  0  0  0  0  0
  150.2583  131.6627  155.0741 O   0  0  0  0  0  0  0  0  0  0  0  0
  149.4652  131.9637  153.9328 C   0  0  0  0  0  0  0  0  0  0  0  0
  148.4565  133.0773  154.2665 C   0  0  0  0  0  0  0  0  0  0  0  0
  150.4260  141.1418  157.8646 C   0  0  0  0  0  0  0  0  0  0  0  0
  151.0880  142.5126  157.6757 C   0  0  0  0  0  0  0  0  0  0  0  0
  151.6633  143.0095  158.9482 N   0  3  2  0  0  0  0  0  0  0  0  0
  151.7518  144.4887  158.9767 C   0  0  1  0  0  0  0  0  0  0  0  0
  150.6054  145.1593  159.7011 C   0  0  0  0  0  0  0  0  0  0  0  0
  151.9697  145.0972  160.3512 C   0  0  1  0  0  0  0  0  0  0  0  0
  152.1743  144.2761  161.6114 C   0  0  0  0  0  0  0  0  0  0  0  0
  152.9668  142.3864  159.2850 C   0  0  0  0  0  0  0  0  0  0  0  0
  155.0462  140.5813  159.6710 H   0  0  0  0  0  0  0  0  0  0  0  0
  154.1131  139.3309  160.4896 H   0  0  0  0  0  0  0  0  0  0  0  0
  154.2773  140.9186  161.2203 H   0  0  0  0  0  0  0  0  0  0  0  0
  152.0433  140.6508  160.2022 H   0  0  0  0  0  0  0  0  0  0  0  0
  153.3967  140.4586  157.4630 H   0  0  0  0  0  0  0  0  0  0  0  0
  153.0329  139.0367  158.4085 H   0  0  0  0  0  0  0  0  0  0  0  0
  152.1590  138.1775  153.8036 H   0  0  0  0  0  0  0  0  0  0  0  0
  147.5587  136.4159  157.9499 H   0  0  0  0  0  0  0  0  0  0  0  0
  147.3792  134.8980  155.9838 H   0  0  0  0  0  0  0  0  0  0  0  0
  147.6001  135.8456  154.5373 H   0  0  0  0  0  0  0  0  0  0  0  0
  149.2867  135.4554  153.2494 H   0  0  0  0  0  0  0  0  0  0  0  0
  150.7389  134.7804  156.2498 H   0  0  0  0  0  0  0  0  0  0  0  0
  149.5763  133.6110  156.8186 H   0  0  0  0  0  0  0  0  0  0  0  0
  151.7250  133.0751  154.7031 H   0  0  0  0  0  0  0  0  0  0  0  0
  151.6702  132.4487  156.3367 H   0  0  0  0  0  0  0  0  0  0  0  0
  150.1046  132.2493  153.0961 H   0  0  0  0  0  0  0  0  0  0  0  0
  148.9345  131.0615  153.6278 H   0  0  0  0  0  0  0  0  0  0  0  0
  147.7508  132.6958  155.0054 H   0  0  0  0  0  0  0  0  0  0  0  0
  147.8717  133.3150  153.3774 H   0  0  0  0  0  0  0  0  0  0  0  0
  149.6374  141.0694  157.1154 H   0  0  0  0  0  0  0  0  0  0  0  0
  149.9281  141.0766  158.8327 H   0  0  0  0  0  0  0  0  0  0  0  0
  151.8265  142.5085  156.8724 H   0  0  0  0  0  0  0  0  0  0  0  0
  150.3055  143.2031  157.3591 H   0  0  0  0  0  0  0  0  0  0  0  0
  152.1774  144.9554  158.0899 H   0  0  0  0  0  0  0  0  0  0  0  0
  150.2753  146.1279  159.3311 H   0  0  0  0  0  0  0  0  0  0  0  0
  149.8190  144.5303  160.1148 H   0  0  0  0  0  0  0  0  0  0  0  0
  152.5319  146.0292  160.3574 H   0  0  0  0  0  0  0  0  0  0  0  0
  151.5398  143.3895  161.6179 H   0  0  0  0  0  0  0  0  0  0  0  0
  151.9274  144.8761  162.4873 H   0  0  0  0  0  0  0  0  0  0  0  0
  153.2153  143.9631  161.6917 H   0  0  0  0  0  0  0  0  0  0  0  0
  153.3380  142.8700  160.1893 H   0  0  0  0  0  0  0  0  0  0  0  0
  153.6978  142.6075  158.5057 H   0  0  0  0  0  0  0  0  0  0  0  0
  151.0144  142.7563  159.6796 H   0  0  0  0  0  0  0  0  0  0  0  0
  1  2  1  0  0  0  0
  1 30  1  0  0  0  0
  1 31  1  0  0  0  0
  1 32  1  0  0  0  0
  2 29  1  0  0  0  0
  2  3  1  0  0  0  0
  2 33  1  0  0  0  0
  3  4  1  0  0  0  0
  3 34  1  0  0  0  0
  3 35  1  0  0  0  0
  4  5  1  0  0  0  0
  4 22  1  0  0  0  0
  5 10  1  0  0  0  0
  5  6  2  0  0  0  0
  6  7  1  0  0  0  0
  7  8  2  0  0  0  0
  7 36  1  0  0  0  0
  8  9  1  0  0  0  0
  9 13  1  0  0  0  0
  9 10  2  0  0  0  0
 10 11  1  0  0  0  0
 11 12  2  0  0  0  0
 12 13  1  0  0  0  0
 12 37  1  0  0  0  0
 13 14  1  0  0  0  0
 14 15  1  0  0  0  0
 14 38  1  0  0  0  0
 14 39  1  0  0  0  0
 15 21  1  0  0  0  0
 15 16  1  0  0  0  0
 15 17  1  0  0  0  0
 16 40  1  0  0  0  0
 17 18  1  0  0  0  0
 17 41  1  0  0  0  0
 17 42  1  0  0  0  0
 18 19  1  0  0  0  0
 18 43  1  0  0  0  0
 18 44  1  0  0  0  0
 19 20  1  0  0  0  0
 20 21  1  0  0  0  0
 20 45  1  0  0  0  0
 20 46  1  0  0  0  0
 21 47  1  0  0  0  0
 21 48  1  0  0  0  0
 22 23  1  0  0  0  0
 22 49  1  0  0  0  0
 22 50  1  0  0  0  0
 23 24  1  0  0  0  0
 23 51  1  0  0  0  0
 23 52  1  0  0  0  0
 24 25  1  0  0  0  0
 24 29  1  0  0  0  0
 24 62  1  0  0  0  0
 25 27  1  0  0  0  0
 25 26  1  0  0  0  0
 25 53  1  0  0  0  0
 26 27  1  0  0  0  0
 26 54  1  0  0  0  0
 26 55  1  0  0  0  0
 27 28  1  0  0  0  0
 27 56  1  0  0  0  0
 28 57  1  0  0  0  0
 28 58  1  0  0  0  0
 28 59  1  0  0  0  0
 29 60  1  0  0  0  0
 29 61  1  0  0  0  0
M  CHG  1  24   1
M  END
> <s_m_source_file>
AV-unprocessed.smi

> <i_m_source_file_index>
193

> <i_lp_mmshare_version>
43012

> <i_f3d_flags>
0

> <s_epik_input>
W0NIM11bQ0BASF0xW0NIMl1bQ0BIXTFOKFtDSDJdMilbQ0gyXVtDSDJdTihbQ0gyXVtDQEhdMltDSDNdKWMobltjSF1uMyljKGMzNCluW2NIXW40W0NIMl1DNShbT0hdKVtDSDJdW0NIMl1PW0NIMl1bQ0gyXTU=

> <s_epik_cmdline>
J2VwaWtfcHl0aG9uJywgJy1waCcsICc3LjAnLCAnLXRuJywgJzgnLCAnLW1hJywgJzIwMCcsICctbWV0YWxfYmluZGluZycsICctaW1hZScsICc8aW5maWxlLm1hZT4nLCAnLW9tYWUnLCAnPG91dGZpbGUubWFlPic=

> <r_lp_tautomer_probability>
1

> <r_epik_Ionization_Penalty>
0.0540825

> <r_epik_Ionization_Penalty_Charging>
0.0538476

> <r_epik_Ionization_Penalty_Neutral>
0.000234891

> <r_epik_State_Penalty>
0.0200719

> <r_epik_Charging_Adjusted_Penalty>
0.0739194

> <i_epik_Tot_Q>
1

> <i_epik_Tot_abs_Q>
1

> <r_epik_Metal_State_Penalty>
0.0199414

> <b_epik_Metal_Only>
0

> <s_lp_Force_Field>
OPLS_2005

> <r_lp_Energy>
56.6778

> <b_lp_Chiralities_Consistent>
1

> <s_lp_Variant>
AV-unprocessed.smi:193-5

> <Gold.Version>
5.8.1

> <Gold.Id.Protein>
6NUR|6NUR_protein|mol2

> <Gold.PLP.Fitness>
46.9006

> <Gold.PLP.PLP>
-46.6716

> <Gold.PLP.part.hbond>
-1.6427

> <Gold.PLP.part.metal>
0.0000

> <Gold.PLP.part.buried>
-4.7700

> <Gold.PLP.part.nonpolar>
-40.3687

> <Gold.PLP.part.repulsive>
0.2344

> <Gold.PLP.ligand.clash>
0.0000

> <Gold.PLP.ligand.torsion>
2.0456

> <Gold.PLP.Chemscore.Hbond>
1.0000

> <Gold.PLP.Chemscore.CHOScore>
0.0000

> <Gold.PLP.Chemscore.Metal>
0.0000

> <Gold.Chemscore.Hbonds>
donor molecule, donor type, donor heavy atom, donor atom, acceptor molecule, acceptor atom, score
      L1  H    16    40       P1  7948  0.91

> <Gold.PLP.Chemscore.Internal.Correction>
1.3202

> <Gold.Rescore>
     Score         DG    S(hbond)    S(metal)    S(lipo)     H(rot)  DE(clash)    DE(int)     intcor
     12.72     -15.67       0.51        0.00     114.72       1.93       0.03       2.92       ----

> <Gold.Chemscore.Fitness>
12.7191

> <Gold.Chemscore.DG>
-15.6671

> <Gold.Chemscore.ZeroCoef>
-5.4800

> <Gold.Chemscore.Hbond>
0.5099

> <Gold.Chemscore.Metal>
0.0000

> <Gold.Chemscore.Lipo>
114.7194

> <Gold.Chemscore.Internal_Hbond>
0.0000

> <Gold.Chemscore.DEClash>
0.0312

> <Gold.Chemscore.DEInternal>
2.9168

> <Gold.Chemscore.Rot>
1.9290

> <Gold.Chemscore.Internal.Correction>
   9.000000E+99

> <Gold.Chemscore.Hbonds>
donor molecule, donor type, donor heavy atom, donor atom, acceptor molecule, acceptor atom, score
      L1  H    16    40       P1  7948  0.19

> <Gold.Chemscore.Hbond.Weighted>
-1.7032

> <Gold.Chemscore.Metal.Weighted>
-0.0000

> <Gold.Chemscore.Lipo.Weighted>
-13.4222

> <Gold.Chemscore.Internal_Hbond.Weighted>
0.0000

> <Gold.Chemscore.DEClash.Weighted>
0.0312

> <Gold.Chemscore.DEInternal.Weighted>
2.9168

> <Gold.Chemscore.Rot.Weighted>
4.9383

> <Gold.Chemscore.Internal.Correction.Weighted>
   9.000000E+99

> <Gold.Protein.RotatedTorsions>
[ 6907 6896 6895 6894 ] final  166.97 input  -60.11 | X-H torsion
[ 7974 7965 7964 7962 ] final -120.28 input  175.53 | X-H torsion
[ 8008 7997 7996 7995 ] final  146.13 input   59.86 | X-H torsion
[ 10167 10162 10161 10158 ] final  -52.71 input  -65.29 | X-H torsion
[ 10718 10713 10712 10709 ] final  -74.29 input   66.30 | X-H torsion
[ 10763 10752 10751 10750 ] final  120.41 input  -60.55 | X-H torsion
[ 11005 11000 10999 10996 ] final -126.55 input  -57.11 | X-H torsion

> <Gold.Protein.ActiveResidues>
 VAL166  LYS551  ARG553  GLY616  TRP617  ASP618  TYR619  PRO620  LYS621  CYS622 
 ASP623  PHE694  ASN695  SER759  ASP760  ASP761  ALA762  ILE779  LEU786  VAL792 
 PHE793  MET794  SER795  GLU796  ALA797  LYS798  CYS799  TRP800  GLU811  SER814 

> <Gold.Protein.RotatedAtoms>
  151.8707  133.3475  159.3733 H   0  0  0  0  0  0  0  0  0  0  0  0  # atno 6907 bound_to 6896
  150.7153  134.5116  159.5619 H   0  0  0  0  0  0  0  0  0  0  0  0  # atno 6908 bound_to 6896
  152.2648  134.7996  160.0475 H   0  0  0  0  0  0  0  0  0  0  0  0  # atno 6909 bound_to 6896
  145.0531  140.8234  143.4197 H   0  0  0  0  0  0  0  0  0  0  0  0  # atno 7974 bound_to 7965
  156.2864  140.2191  156.5326 H   0  0  0  0  0  0  0  0  0  0  0  0  # atno 8008 bound_to 7997
  154.7436  140.0486  157.0854 H   0  0  0  0  0  0  0  0  0  0  0  0  # atno 8009 bound_to 7997
  155.0199  140.3123  155.4800 H   0  0  0  0  0  0  0  0  0  0  0  0  # atno 8010 bound_to 7997
  140.6523  143.2574  151.4688 H   0  0  0  0  0  0  0  0  0  0  0  0  # atno 10167 bound_to 10162
  156.0248  130.4413  150.2870 H   0  0  0  0  0  0  0  0  0  0  0  0  # atno 10718 bound_to 10713
  153.5981  135.3453  155.2935 H   0  0  0  0  0  0  0  0  0  0  0  0  # atno 10763 bound_to 10752
  154.8641  135.4221  154.2443 H   0  0  0  0  0  0  0  0  0  0  0  0  # atno 10764 bound_to 10752
  153.3265  135.7041  153.7056 H   0  0  0  0  0  0  0  0  0  0  0  0  # atno 10765 bound_to 10752
  140.9672  134.0856  157.3908 H   0  0  0  0  0  0  0  0  0  0  0  0  # atno 11005 bound_to 11000
  145.1502  139.2519  143.5445 LP  0  0  0  0  0  0  0  0  0  0  0  0  # atno 17320 bound_to 7965
  146.3519  140.1203  142.8600 LP  0  0  0  0  0  0  0  0  0  0  0  0  # atno 17321 bound_to 7965
  139.5740  144.1862  152.1877 LP  0  0  0  0  0  0  0  0  0  0  0  0  # atno 17342 bound_to 10162
  140.1167  144.5409  150.6889 LP  0  0  0  0  0  0  0  0  0  0  0  0  # atno 17343 bound_to 10162
  157.0973  131.0186  151.3099 LP  0  0  0  0  0  0  0  0  0  0  0  0  # atno 17370 bound_to 10713
  157.4807  130.7763  149.7411 LP  0  0  0  0  0  0  0  0  0  0  0  0  # atno 17371 bound_to 10713
  139.8899  135.0108  156.6704 LP  0  0  0  0  0  0  0  0  0  0  0  0  # atno 17394 bound_to 11000
  140.7382  133.9000  155.8259 LP  0  0  0  0  0  0  0  0  0  0  0  0  # atno 17395 bound_to 11000

$$$$
