AV-unprocessed.smi:1079|AV-procd|sdf|4705|dock1
  -GOLD-   22720 3233D 1   1.00000     0.00000
 Structure written by MMmdl.
 43 44  0  0  0  0  0  0  0  0  2 V2000
  145.2582  132.6613  151.0191 C   0  0  0  0  0  0  0  0  0  0  0  0
  146.5723  133.1674  151.1687 O   0  0  0  0  0  0  0  0  0  0  0  0
  146.9971  133.1857  152.5218 C   0  0  0  0  0  0  0  0  0  0  0  0
  148.5219  132.9957  152.5924 C   0  0  0  0  0  0  0  0  0  0  0  0
  149.0065  132.9449  153.9897 N   0  0  0  0  0  0  0  0  0  0  0  0
  149.0600  134.1415  154.7550 C   0  0  0  0  0  0  0  0  0  0  0  0
  148.6797  135.3384  154.1649 N   0  0  0  0  0  0  0  0  0  0  0  0
  149.5122  134.1100  156.0377 C   0  0  0  0  0  0  0  0  0  0  0  0
  149.5432  135.2637  156.8476 N   0  0  0  0  0  0  0  0  0  0  0  0
  148.2492  135.8260  157.2695 C   0  0  0  0  0  0  0  0  0  0  0  0
  147.9092  135.5469  158.7255 C   0  0  0  0  0  0  0  0  0  0  0  0
  148.0889  136.5499  159.7016 C   0  0  0  0  0  0  0  0  0  0  0  0
  147.7690  136.2940  161.0488 C   0  0  0  0  0  0  0  0  0  0  0  0
  147.2713  135.0321  161.4270 C   0  0  0  0  0  0  0  0  0  0  0  0
  147.0938  134.0267  160.4572 C   0  0  0  0  0  0  0  0  0  0  0  0
  147.4127  134.2831  159.1095 C   0  0  0  0  0  0  0  0  0  0  0  0
  150.7021  135.9133  157.1363 C   0  0  0  0  0  0  0  0  0  0  0  0
  150.6740  137.1489  158.0448 C   0  0  0  0  0  0  0  0  0  0  0  0
  151.7971  135.5307  156.7215 O   0  0  0  0  0  0  0  0  0  0  0  0
  149.9075  132.8193  156.6170 C   0  0  0  0  0  0  0  0  0  0  0  0
  150.2763  132.7520  157.7897 O   0  0  0  0  0  0  0  0  0  0  0  0
  149.8476  131.7220  155.8179 N   0  5  0  0  0  0  0  0  0  0  0  0
  149.4166  131.7541  154.5251 C   0  0  0  0  0  0  0  0  0  0  0  0
  149.3881  130.7384  153.8285 O   0  0  0  0  0  0  0  0  0  0  0  0
  144.9817  132.6676  149.9650 H   0  0  0  0  0  0  0  0  0  0  0  0
  144.5363  133.2734  151.5611 H   0  0  0  0  0  0  0  0  0  0  0  0
  145.1881  131.6338  151.3789 H   0  0  0  0  0  0  0  0  0  0  0  0
  146.7302  134.1435  152.9702 H   0  0  0  0  0  0  0  0  0  0  0  0
  146.4865  132.4094  153.0939 H   0  0  0  0  0  0  0  0  0  0  0  0
  148.8157  132.1174  152.0186 H   0  0  0  0  0  0  0  0  0  0  0  0
  149.0058  133.8156  152.0590 H   0  0  0  0  0  0  0  0  0  0  0  0
  148.3671  135.3733  153.2055 H   0  0  0  0  0  0  0  0  0  0  0  0
  148.4686  136.1496  154.7284 H   0  0  0  0  0  0  0  0  0  0  0  0
  148.2329  136.9008  157.0796 H   0  0  0  0  0  0  0  0  0  0  0  0
  147.4398  135.4144  156.6644 H   0  0  0  0  0  0  0  0  0  0  0  0
  148.4728  137.5190  159.4192 H   0  0  0  0  0  0  0  0  0  0  0  0
  147.9052  137.0663  161.7913 H   0  0  0  0  0  0  0  0  0  0  0  0
  147.0261  134.8357  162.4602 H   0  0  0  0  0  0  0  0  0  0  0  0
  146.7110  133.0590  160.7459 H   0  0  0  0  0  0  0  0  0  0  0  0
  147.2692  133.5085  158.3705 H   0  0  0  0  0  0  0  0  0  0  0  0
  150.1107  136.9556  158.9582 H   0  0  0  0  0  0  0  0  0  0  0  0
  150.2285  137.9995  157.5292 H   0  0  0  0  0  0  0  0  0  0  0  0
  151.6865  137.4311  158.3355 H   0  0  0  0  0  0  0  0  0  0  0  0
  1  2  1  0  0  0  0
  1 25  1  0  0  0  0
  1 26  1  0  0  0  0
  1 27  1  0  0  0  0
  2  3  1  0  0  0  0
  3  4  1  0  0  0  0
  3 28  1  0  0  0  0
  3 29  1  0  0  0  0
  4  5  1  0  0  0  0
  4 30  1  0  0  0  0
  4 31  1  0  0  0  0
  5 23  1  0  0  0  0
  5  6  1  0  0  0  0
  6  7  1  0  0  0  0
  6  8  2  0  0  0  0
  7 32  1  0  0  0  0
  7 33  1  0  0  0  0
  8  9  1  0  0  0  0
  8 20  1  0  0  0  0
  9 10  1  0  0  0  0
  9 17  1  0  0  0  0
 10 11  1  0  0  0  0
 10 34  1  0  0  0  0
 10 35  1  0  0  0  0
 11 16  1  0  0  0  0
 11 12  2  0  0  0  0
 12 13  1  0  0  0  0
 12 36  1  0  0  0  0
 13 14  2  0  0  0  0
 13 37  1  0  0  0  0
 14 15  1  0  0  0  0
 14 38  1  0  0  0  0
 15 16  2  0  0  0  0
 15 39  1  0  0  0  0
 16 40  1  0  0  0  0
 17 18  1  0  0  0  0
 17 19  2  0  0  0  0
 18 41  1  0  0  0  0
 18 42  1  0  0  0  0
 18 43  1  0  0  0  0
 20 21  2  0  0  0  0
 20 22  1  0  0  0  0
 22 23  1  0  0  0  0
 23 24  2  0  0  0  0
M  CHG  1  22  -1
M  END
> <s_m_source_file>
AV-unprocessed.smi

> <i_m_source_file_index>
1079

> <i_lp_mmshare_version>
43012

> <i_f3d_flags>
0

> <s_epik_input>
W0NIM11PW0NIMl1bQ0gyXW4xYyhbTkgyXSljKGMoPU8pW25IXWMxPU8pTihDKD1PKVtDSDNdKVtDSDJdYzJbY0hdW2NIXVtjSF1bY0hdW2NIXTI=

> <s_epik_cmdline>
J2VwaWtfcHl0aG9uJywgJy1waCcsICc3LjAnLCAnLXRuJywgJzgnLCAnLW1hJywgJzIwMCcsICctbWV0YWxfYmluZGluZycsICctaW1hZScsICc8aW5maWxlLm1hZT4nLCAnLW9tYWUnLCAnPG91dGZpbGUubWFlPic=

> <r_lp_tautomer_probability>
1

> <r_epik_Ionization_Penalty>
7.02899

> <r_epik_Ionization_Penalty_Charging>
0.353543

> <r_epik_Ionization_Penalty_Neutral>
6.67545

> <r_epik_State_Penalty>
6.67544

> <r_epik_Charging_Adjusted_Penalty>
7.02899

> <i_epik_Tot_Q>
-1

> <i_epik_Tot_abs_Q>
1

> <r_epik_Metal_State_Penalty>
2.59023

> <b_epik_Metal_Only>
1

> <s_epik_Chemistry_Notes>
This compound has an imine and may undergo hydrolysis.

> <s_lp_Force_Field>
OPLS_2005

> <r_lp_Energy>
37.6248

> <b_lp_Chiralities_Consistent>
1

> <s_lp_Variant>
AV-unprocessed.smi:1079-2

> <Gold.Version>
5.8.1

> <Gold.Id.Protein>
6NUR|6NUR_protein|mol2

> <Gold.PLP.Fitness>
39.3139

> <Gold.PLP.PLP>
-33.6936

> <Gold.PLP.part.hbond>
-2.9309

> <Gold.PLP.part.metal>
0.0000

> <Gold.PLP.part.buried>
-3.6682

> <Gold.PLP.part.nonpolar>
-26.5875

> <Gold.PLP.part.repulsive>
0.2868

> <Gold.PLP.ligand.clash>
0.0000

> <Gold.PLP.ligand.torsion>
2.2251

> <Gold.PLP.Chemscore.Hbond>
2.6400

> <Gold.PLP.Chemscore.CHOScore>
0.0000

> <Gold.PLP.Chemscore.Metal>
0.0000

> <Gold.Chemscore.Hbonds>
donor molecule, donor type, donor heavy atom, donor atom, acceptor molecule, acceptor atom, score
      L1  H     7    32       P1  7948  0.64
      P1  H  6896  6908       L1    21  0.93
      P1  H 10752 10765       L1    19  0.75

> <Gold.PLP.Chemscore.Internal.Correction>
2.1505

> <Gold.Rescore>
     Score         DG    S(hbond)    S(metal)    S(lipo)     H(rot)  DE(clash)    DE(int)     intcor
     13.53     -15.90       2.67        0.00      56.13       1.98       0.05       2.32       ----

> <Gold.Chemscore.Fitness>
13.5251

> <Gold.Chemscore.DG>
-15.8966

> <Gold.Chemscore.ZeroCoef>
-5.4800

> <Gold.Chemscore.Hbond>
2.6719

> <Gold.Chemscore.Metal>
0.0000

> <Gold.Chemscore.Lipo>
56.1316

> <Gold.Chemscore.Internal_Hbond>
0.0000

> <Gold.Chemscore.DEClash>
0.0504

> <Gold.Chemscore.DEInternal>
2.3211

> <Gold.Chemscore.Rot>
1.9824

> <Gold.Chemscore.Internal.Correction>
   9.000000E+99

> <Gold.Chemscore.Hbonds>
donor molecule, donor type, donor heavy atom, donor atom, acceptor molecule, acceptor atom, score
      L1  H     7    32       P1  7948  0.63
      P1  H  6896  6908       L1    21  0.91
      P1  H 10752 10765       L1    19  0.75

> <Gold.Chemscore.Hbond.Weighted>
-8.9241

> <Gold.Chemscore.Metal.Weighted>
-0.0000

> <Gold.Chemscore.Lipo.Weighted>
-6.5674

> <Gold.Chemscore.Internal_Hbond.Weighted>
0.0000

> <Gold.Chemscore.DEClash.Weighted>
0.0504

> <Gold.Chemscore.DEInternal.Weighted>
2.3211

> <Gold.Chemscore.Rot.Weighted>
5.0749

> <Gold.Chemscore.Internal.Correction.Weighted>
   9.000000E+99

> <Gold.Protein.RotatedTorsions>
[ 6907 6896 6895 6894 ] final   76.64 input  -60.11 | X-H torsion
[ 7974 7965 7964 7962 ] final -149.62 input  175.53 | X-H torsion
[ 8008 7997 7996 7995 ] final  -59.38 input   59.86 | X-H torsion
[ 10167 10162 10161 10158 ] final -156.59 input  -65.29 | X-H torsion
[ 10718 10713 10712 10709 ] final  -29.03 input   66.30 | X-H torsion
[ 10763 10752 10751 10750 ] final -143.67 input  -60.55 | X-H torsion
[ 11005 11000 10999 10996 ] final   -8.50 input  -57.11 | X-H torsion

> <Gold.Protein.ActiveResidues>
 VAL166  LYS551  ARG553  GLY616  TRP617  ASP618  TYR619  PRO620  LYS621  CYS622 
 ASP623  PHE694  ASN695  SER759  ASP760  ASP761  ALA762  ILE779  LEU786  VAL792 
 PHE793  MET794  SER795  GLU796  ALA797  LYS798  CYS799  TRP800  GLU811  SER814 

> <Gold.Protein.RotatedAtoms>
  152.5082  134.3938  159.9392 H   0  0  0  0  0  0  0  0  0  0  0  0  # atno 6907 bound_to 6896
  151.3899  133.3786  159.2727 H   0  0  0  0  0  0  0  0  0  0  0  0  # atno 6908 bound_to 6896
  150.9441  134.8868  159.7689 H   0  0  0  0  0  0  0  0  0  0  0  0  # atno 6909 bound_to 6896
  144.7956  140.5040  143.5742 H   0  0  0  0  0  0  0  0  0  0  0  0  # atno 7974 bound_to 7965
  154.4350  140.1063  156.6107 H   0  0  0  0  0  0  0  0  0  0  0  0  # atno 8008 bound_to 7997
  155.5813  140.3491  155.4522 H   0  0  0  0  0  0  0  0  0  0  0  0  # atno 8009 bound_to 7997
  156.0316  140.1262  157.0241 H   0  0  0  0  0  0  0  0  0  0  0  0  # atno 8010 bound_to 7997
  139.6838  143.9536  152.2350 H   0  0  0  0  0  0  0  0  0  0  0  0  # atno 10167 bound_to 10162
  156.4177  130.4420  149.7206 H   0  0  0  0  0  0  0  0  0  0  0  0  # atno 10718 bound_to 10713
  154.8460  135.3461  154.6225 H   0  0  0  0  0  0  0  0  0  0  0  0  # atno 10763 bound_to 10752
  153.6834  135.6979  153.5116 H   0  0  0  0  0  0  0  0  0  0  0  0  # atno 10764 bound_to 10752
  153.2651  135.4310  155.0888 H   0  0  0  0  0  0  0  0  0  0  0  0  # atno 10765 bound_to 10752
  140.7242  133.8803  155.8843 H   0  0  0  0  0  0  0  0  0  0  0  0  # atno 11005 bound_to 11000
  145.5682  139.1482  143.3303 LP  0  0  0  0  0  0  0  0  0  0  0  0  # atno 17320 bound_to 7965
  146.2223  140.5816  142.9012 LP  0  0  0  0  0  0  0  0  0  0  0  0  # atno 17321 bound_to 7965
  139.9333  144.6727  150.8340 LP  0  0  0  0  0  0  0  0  0  0  0  0  # atno 17342 bound_to 10162
  140.7661  143.3294  151.2444 LP  0  0  0  0  0  0  0  0  0  0  0  0  # atno 17343 bound_to 10162
  156.4160  130.7745  151.2760 LP  0  0  0  0  0  0  0  0  0  0  0  0  # atno 17370 bound_to 10713
  157.7508  131.0197  150.3679 LP  0  0  0  0  0  0  0  0  0  0  0  0  # atno 17371 bound_to 10713
  140.9977  134.1192  157.4347 LP  0  0  0  0  0  0  0  0  0  0  0  0  # atno 17394 bound_to 11000
  139.8841  135.0059  156.6346 LP  0  0  0  0  0  0  0  0  0  0  0  0  # atno 17395 bound_to 11000

$$$$
