AV-unprocessed.smi:2550|AV-procd|sdf|10012|dock4
  -GOLD-   2272014 53D 1   1.00000     0.00000
 Structure written by MMmdl.
 27 28  0  0  0  0  0  0  0  0  1 V2000
  147.8779  141.7363  154.6367 C   0  0  0  0  0  0  0  0  0  0  0  0
  149.0400  140.7308  154.6853 C   0  0  0  0  0  0  0  0  0  0  0  0
  148.5446  139.2758  154.7157 C   0  0  0  0  0  0  0  0  0  0  0  0
  149.7804  140.8932  153.4897 O   0  0  0  0  0  0  0  0  0  0  0  0
  149.9852  141.0234  155.8261 C   0  0  0  0  0  0  0  0  0  0  0  0
  149.9642  142.0247  156.7597 C   0  0  0  0  0  0  0  0  0  0  0  0
  151.0685  141.7628  157.5418 N   0  0  0  0  0  0  0  0  0  0  0  0
  151.5714  142.5419  158.6340 C   0  0  0  0  0  0  0  0  0  0  0  0
  152.2030  143.9174  158.4031 C   0  0  0  0  0  0  0  0  0  0  0  0
  153.1172  143.5906  159.4843 N   0  0  0  0  0  0  0  0  0  0  0  0
  152.8923  142.1662  159.3072 C   0  0  0  0  0  0  0  0  0  0  0  0
  151.7586  140.6921  157.0857 N   0  0  0  0  0  0  0  0  0  0  0  0
  151.1062  140.2254  156.0681 N   0  0  0  0  0  0  0  0  0  0  0  0
  147.2643  141.6738  155.5360 H   0  0  0  0  0  0  0  0  0  0  0  0
  147.2261  141.5506  153.7823 H   0  0  0  0  0  0  0  0  0  0  0  0
  148.2430  142.7611  154.5580 H   0  0  0  0  0  0  0  0  0  0  0  0
  147.9684  139.0740  155.6194 H   0  0  0  0  0  0  0  0  0  0  0  0
  149.3782  138.5727  154.6930 H   0  0  0  0  0  0  0  0  0  0  0  0
  147.9024  139.0561  153.8621 H   0  0  0  0  0  0  0  0  0  0  0  0
  149.5023  140.2333  152.8734 H   0  0  0  0  0  0  0  0  0  0  0  0
  149.2937  142.8547  156.9268 H   0  0  0  0  0  0  0  0  0  0  0  0
  150.7621  142.6002  159.3651 H   0  0  0  0  0  0  0  0  0  0  0  0
  152.7199  144.0245  157.4482 H   0  0  0  0  0  0  0  0  0  0  0  0
  151.5413  144.7567  158.6188 H   0  0  0  0  0  0  0  0  0  0  0  0
  154.0691  143.8582  159.2778 H   0  0  0  0  0  0  0  0  0  0  0  0
  152.7786  141.6147  160.2409 H   0  0  0  0  0  0  0  0  0  0  0  0
  153.6264  141.7137  158.6387 H   0  0  0  0  0  0  0  0  0  0  0  0
  1  2  1  0  0  0  0
  1 14  1  0  0  0  0
  1 15  1  0  0  0  0
  1 16  1  0  0  0  0
  2  3  1  0  0  0  0
  2  4  1  0  0  0  0
  2  5  1  0  0  0  0
  3 17  1  0  0  0  0
  3 18  1  0  0  0  0
  3 19  1  0  0  0  0
  4 20  1  0  0  0  0
  5 13  1  0  0  0  0
  5  6  2  0  0  0  0
  6  7  1  0  0  0  0
  6 21  1  0  0  0  0
  7  8  1  0  0  0  0
  7 12  1  0  0  0  0
  8 11  1  0  0  0  0
  8  9  1  0  0  0  0
  8 22  1  0  0  0  0
  9 10  1  0  0  0  0
  9 23  1  0  0  0  0
  9 24  1  0  0  0  0
 10 11  1  0  0  0  0
 10 25  1  0  0  0  0
 11 26  1  0  0  0  0
 11 27  1  0  0  0  0
 12 13  2  0  0  0  0
M  END
> <s_m_source_file>
AV-unprocessed.smi

> <i_m_source_file_index>
2550

> <i_lp_mmshare_version>
43012

> <i_f3d_flags>
0

> <s_epik_input>
W0NIM11DKFtDSDNdKShbT0hdKWMxW2NIXW4obm4xKVtDSF0yW0NIMl1bTkhdW0NIMl0y

> <s_epik_cmdline>
J2VwaWtfcHl0aG9uJywgJy1waCcsICc3LjAnLCAnLXRuJywgJzgnLCAnLW1hJywgJzIwMCcsICctbWV0YWxfYmluZGluZycsICctaW1hZScsICc8aW5maWxlLm1hZT4nLCAnLW9tYWUnLCAnPG91dGZpbGUubWFlPic=

> <r_lp_tautomer_probability>
1

> <r_epik_Ionization_Penalty>
0.705036

> <r_epik_Ionization_Penalty_Charging>
0

> <r_epik_Ionization_Penalty_Neutral>
0.705036

> <r_epik_State_Penalty>
0.727806

> <r_epik_Charging_Adjusted_Penalty>
0.727806

> <i_epik_Tot_Q>
0

> <i_epik_Tot_abs_Q>
0

> <r_epik_Metal_State_Penalty>
0.727613

> <b_epik_Metal_Only>
0

> <s_lp_Force_Field>
OPLS_2005

> <r_lp_Energy>
8.86137

> <b_lp_Chiralities_Consistent>
1

> <s_lp_Variant>
AV-unprocessed.smi:2550-2

> <Gold.Version>
5.8.1

> <Gold.Id.Protein>
6NUR|6NUR_protein|mol2

> <Gold.PLP.Fitness>
34.9538

> <Gold.PLP.PLP>
-26.1722

> <Gold.PLP.part.hbond>
-2.4105

> <Gold.PLP.part.metal>
0.0000

> <Gold.PLP.part.buried>
-2.5801

> <Gold.PLP.part.nonpolar>
-20.6896

> <Gold.PLP.part.repulsive>
0.0000

> <Gold.PLP.ligand.clash>
0.0000

> <Gold.PLP.ligand.torsion>
0.2279

> <Gold.PLP.Chemscore.Hbond>
2.0240

> <Gold.PLP.Chemscore.CHOScore>
0.9590

> <Gold.PLP.Chemscore.Metal>
0.0000

> <Gold.Chemscore.Hbonds>
donor molecule, donor type, donor heavy atom, donor atom, acceptor molecule, acceptor atom, score
      L1  H     4    20       P1  7957  0.69
      P1  H  7989  7998       L1     4  0.30
      P1  H  8011  8017       L1     4  0.95
      L1  C     6    21       P1  8028  1.00

> <Gold.PLP.Chemscore.Internal.Correction>
0.2883

> <Gold.Rescore>
     Score         DG    S(hbond)    S(metal)    S(lipo)     H(rot)  DE(clash)    DE(int)     intcor
     13.17     -13.71       1.47        0.00      66.19       1.73       0.29       0.25       ----

> <Gold.Chemscore.Fitness>
13.1721

> <Gold.Chemscore.DG>
-13.7121

> <Gold.Chemscore.ZeroCoef>
-5.4800

> <Gold.Chemscore.Hbond>
1.4716

> <Gold.Chemscore.Metal>
0.0000

> <Gold.Chemscore.Lipo>
66.1916

> <Gold.Chemscore.Internal_Hbond>
0.0000

> <Gold.Chemscore.DEClash>
0.2918

> <Gold.Chemscore.DEInternal>
0.2482

> <Gold.Chemscore.Rot>
1.7295

> <Gold.Chemscore.Internal.Correction>
   9.000000E+99

> <Gold.Chemscore.Hbonds>
donor molecule, donor type, donor heavy atom, donor atom, acceptor molecule, acceptor atom, score
      L1  H     4    20       P1  7957  0.70
      P1  H  7989  7998       L1     4  0.16
      P1  H  8011  8017       L1     4  0.21

> <Gold.Chemscore.Hbond.Weighted>
-4.9151

> <Gold.Chemscore.Metal.Weighted>
-0.0000

> <Gold.Chemscore.Lipo.Weighted>
-7.7444

> <Gold.Chemscore.Internal_Hbond.Weighted>
0.0000

> <Gold.Chemscore.DEClash.Weighted>
0.2918

> <Gold.Chemscore.DEInternal.Weighted>
0.2482

> <Gold.Chemscore.Rot.Weighted>
4.4275

> <Gold.Chemscore.Internal.Correction.Weighted>
   9.000000E+99

> <Gold.Protein.RotatedTorsions>
[ 6907 6896 6895 6894 ] final -134.22 input  -60.11 | X-H torsion
[ 7974 7965 7964 7962 ] final -145.10 input  175.53 | X-H torsion
[ 8008 7997 7996 7995 ] final  -11.10 input   59.86 | X-H torsion
[ 10167 10162 10161 10158 ] final  -55.61 input  -65.29 | X-H torsion
[ 10718 10713 10712 10709 ] final  -25.50 input   66.30 | X-H torsion
[ 10763 10752 10751 10750 ] final   84.57 input  -60.55 | X-H torsion
[ 11005 11000 10999 10996 ] final -124.18 input  -57.11 | X-H torsion

> <Gold.Protein.ActiveResidues>
 VAL166  LYS551  ARG553  GLY616  TRP617  ASP618  TYR619  PRO620  LYS621  CYS622 
 ASP623  PHE694  ASN695  SER759  ASP760  ASP761  ALA762  ILE779  LEU786  VAL792 
 PHE793  MET794  SER795  GLU796  ALA797  LYS798  CYS799  TRP800  GLU811  SER814 

> <Gold.Protein.RotatedAtoms>
  150.9833  133.6224  159.2719 H   0  0  0  0  0  0  0  0  0  0  0  0  # atno 6907 bound_to 6896
  151.3471  135.0875  159.9400 H   0  0  0  0  0  0  0  0  0  0  0  0  # atno 6908 bound_to 6896
  152.5222  133.9432  159.7691 H   0  0  0  0  0  0  0  0  0  0  0  0  # atno 6909 bound_to 6896
  144.8251  140.5626  143.5552 H   0  0  0  0  0  0  0  0  0  0  0  0  # atno 7974 bound_to 7965
  154.5495  140.2311  155.8508 H   0  0  0  0  0  0  0  0  0  0  0  0  # atno 8008 bound_to 7997
  156.1934  140.3071  155.9338 H   0  0  0  0  0  0  0  0  0  0  0  0  # atno 8009 bound_to 7997
  155.3098  140.0435  157.3025 H   0  0  0  0  0  0  0  0  0  0  0  0  # atno 8010 bound_to 7997
  140.6365  143.2485  151.5105 H   0  0  0  0  0  0  0  0  0  0  0  0  # atno 10167 bound_to 10162
  156.4635  130.4509  149.6913 H   0  0  0  0  0  0  0  0  0  0  0  0  # atno 10718 bound_to 10713
  153.1394  135.4649  154.9473 H   0  0  0  0  0  0  0  0  0  0  0  0  # atno 10763 bound_to 10752
  154.7734  135.3166  154.8144 H   0  0  0  0  0  0  0  0  0  0  0  0  # atno 10764 bound_to 10752
  153.8670  135.6907  153.4832 H   0  0  0  0  0  0  0  0  0  0  0  0  # atno 10765 bound_to 10752
  140.9861  134.0604  157.3709 H   0  0  0  0  0  0  0  0  0  0  0  0  # atno 11005 bound_to 11000
  145.5019  139.1483  143.3653 LP  0  0  0  0  0  0  0  0  0  0  0  0  # atno 17320 bound_to 7965
  146.2556  140.5158  142.8875 LP  0  0  0  0  0  0  0  0  0  0  0  0  # atno 17321 bound_to 7965
  139.5575  144.2239  152.1636 LP  0  0  0  0  0  0  0  0  0  0  0  0  # atno 17342 bound_to 10162
  140.1497  144.5126  150.6694 LP  0  0  0  0  0  0  0  0  0  0  0  0  # atno 17343 bound_to 10162
  156.3691  130.7521  151.2502 LP  0  0  0  0  0  0  0  0  0  0  0  0  # atno 17370 bound_to 10713
  157.7496  131.0328  150.4243 LP  0  0  0  0  0  0  0  0  0  0  0  0  # atno 17371 bound_to 10713
  139.8971  135.0149  156.7085 LP  0  0  0  0  0  0  0  0  0  0  0  0  # atno 17394 bound_to 11000
  140.7112  133.9222  155.8085 LP  0  0  0  0  0  0  0  0  0  0  0  0  # atno 17395 bound_to 11000

$$$$
