AV-unprocessed.smi:37|AV-procd|sdf|303|dock7
  -GOLD-   2262016113D 1   1.00000     0.00000
 Structure written by MMmdl.
 44 45  0  0  0  0  0  0  0  0  1 V2000
  153.1208  142.6086  159.8186 C   0  0  0  0  0  0  0  0  0  0  0  0
  151.6249  142.3307  159.6097 C   0  0  0  0  0  0  0  0  0  0  0  0
  151.3418  141.2692  158.5444 C   0  0  0  0  0  0  0  0  0  0  0  0
  150.6636  141.5023  157.5423 O   0  0  0  0  0  0  0  0  0  0  0  0
  151.9138  140.0935  158.8440 O   0  0  0  0  0  0  0  0  0  0  0  0
  151.7314  138.9848  157.9794 C   0  0  0  0  0  0  0  0  0  0  0  0
  150.2483  138.6017  157.9510 C   0  0  2  0  0  0  0  0  0  0  0  0
  150.0002  137.5171  158.8459 O   0  0  0  0  0  0  0  0  0  0  0  0
  149.1921  136.5562  158.2341 C   0  0  1  0  0  0  0  0  0  0  0  0
  148.1174  136.0977  159.1920 N   0  0  0  0  0  0  0  0  0  0  0  0
  147.8764  136.7436  160.3989 C   0  0  0  0  0  0  0  0  0  0  0  0
  146.9162  136.3444  161.2661 C   0  0  0  0  0  0  0  0  0  0  0  0
  146.7364  137.0202  162.4137 F   0  0  0  0  0  0  0  0  0  0  0  0
  146.0719  135.1916  160.9651 C   0  0  0  0  0  0  0  0  0  0  0  0
  145.1804  134.7524  161.6889 O   0  0  0  0  0  0  0  0  0  0  0  0
  146.3459  134.5799  159.7380 N   0  0  0  0  0  0  0  0  0  0  0  0
  147.3300  134.9828  158.8338 C   0  0  0  0  0  0  0  0  0  0  0  0
  147.4828  134.3761  157.7745 O   0  0  0  0  0  0  0  0  0  0  0  0
  148.6250  137.1933  156.9602 C   0  0  1  0  0  0  0  0  0  0  0  0
  146.9854  138.2843  157.3226 Br  0  0  0  0  0  0  0  0  0  0  0  0
  149.7853  138.0979  156.5821 C   0  0  1  0  0  0  0  0  0  0  0  0
  149.4009  139.1670  155.7276 O   0  0  0  0  0  0  0  0  0  0  0  0
  150.3326  139.8583  155.0472 C   0  0  0  0  0  0  0  0  0  0  0  0
  151.5361  139.6022  155.0081 O   0  0  0  0  0  0  0  0  0  0  0  0
  149.7458  141.0457  154.2881 C   0  0  0  0  0  0  0  0  0  0  0  0
  148.6280  140.6203  153.3265 C   0  0  0  0  0  0  0  0  0  0  0  0
  145.7825  133.7814  159.4844 H   0  0  0  0  0  0  0  0  0  0  0  0
  153.2654  143.3749  160.5799 H   0  0  0  0  0  0  0  0  0  0  0  0
  153.5919  142.9631  158.9011 H   0  0  0  0  0  0  0  0  0  0  0  0
  153.6497  141.7133  160.1476 H   0  0  0  0  0  0  0  0  0  0  0  0
  151.1777  142.0050  160.5493 H   0  0  0  0  0  0  0  0  0  0  0  0
  151.1181  143.2523  159.3224 H   0  0  0  0  0  0  0  0  0  0  0  0
  152.0574  139.2635  156.9763 H   0  0  0  0  0  0  0  0  0  0  0  0
  152.3410  138.1391  158.3008 H   0  0  0  0  0  0  0  0  0  0  0  0
  149.6281  139.4452  158.2594 H   0  0  0  0  0  0  0  0  0  0  0  0
  149.8170  135.6833  158.0333 H   0  0  0  0  0  0  0  0  0  0  0  0
  148.4606  137.6101  160.6718 H   0  0  0  0  0  0  0  0  0  0  0  0
  148.3859  136.4416  156.2075 H   0  0  0  0  0  0  0  0  0  0  0  0
  150.5845  137.5026  156.1363 H   0  0  0  0  0  0  0  0  0  0  0  0
  149.3648  141.7710  155.0073 H   0  0  0  0  0  0  0  0  0  0  0  0
  150.5437  141.5397  153.7331 H   0  0  0  0  0  0  0  0  0  0  0  0
  148.2498  141.4803  152.7737 H   0  0  0  0  0  0  0  0  0  0  0  0
  147.7870  140.1768  153.8608 H   0  0  0  0  0  0  0  0  0  0  0  0
  148.9868  139.8912  152.5992 H   0  0  0  0  0  0  0  0  0  0  0  0
  1  2  1  0  0  0  0
  1 28  1  0  0  0  0
  1 29  1  0  0  0  0
  1 30  1  0  0  0  0
  2  3  1  0  0  0  0
  2 31  1  0  0  0  0
  2 32  1  0  0  0  0
  3  4  2  0  0  0  0
  3  5  1  0  0  0  0
  5  6  1  0  0  0  0
  6  7  1  0  0  0  0
  6 33  1  0  0  0  0
  6 34  1  0  0  0  0
  7 21  1  0  0  0  0
  7  8  1  0  0  0  0
  7 35  1  0  0  0  0
  8  9  1  0  0  0  0
  9 10  1  0  0  0  0
  9 19  1  0  0  0  0
  9 36  1  0  0  0  0
 10 17  1  0  0  0  0
 10 11  1  0  0  0  0
 11 12  2  0  0  0  0
 11 37  1  0  0  0  0
 12 13  1  0  0  0  0
 12 14  1  0  0  0  0
 14 15  2  0  0  0  0
 14 16  1  0  0  0  0
 16 27  1  0  0  0  0
 16 17  1  0  0  0  0
 17 18  2  0  0  0  0
 19 20  1  0  0  0  0
 19 21  1  0  0  0  0
 19 38  1  0  0  0  0
 21 22  1  0  0  0  0
 21 39  1  0  0  0  0
 22 23  1  0  0  0  0
 23 24  2  0  0  0  0
 23 25  1  0  0  0  0
 25 26  1  0  0  0  0
 25 40  1  0  0  0  0
 25 41  1  0  0  0  0
 26 42  1  0  0  0  0
 26 43  1  0  0  0  0
 26 44  1  0  0  0  0
M  END
> <s_m_source_file>
AV-unprocessed.smi

> <i_m_source_file_index>
37

> <i_lp_mmshare_version>
43012

> <i_f3d_flags>
0

> <s_epik_input>
W0NIM11bQ0gyXUMoPU8pT1tDSDJdW0NAQEhdMU9bQ0BASF0objJbY0hdYyhGKWMoPU8pW25IXWMyPU8pW0NAQEhdKEJyKVtDQEhdMU9DKD1PKVtDSDJdW0NIM10=

> <s_epik_cmdline>
J2VwaWtfcHl0aG9uJywgJy1waCcsICc3LjAnLCAnLXRuJywgJzgnLCAnLW1hJywgJzIwMCcsICctbWV0YWxfYmluZGluZycsICctaW1hZScsICc8aW5maWxlLm1hZT4nLCAnLW9tYWUnLCAnPG91dGZpbGUubWFlPic=

> <r_lp_tautomer_probability>
0.999537

> <r_epik_Ionization_Penalty>
0.104106

> <r_epik_Ionization_Penalty_Charging>
0.104106

> <r_epik_Ionization_Penalty_Neutral>
3.94675e-16

> <r_epik_State_Penalty>
0.0940182

> <r_epik_Charging_Adjusted_Penalty>
0.198124

> <i_epik_Tot_Q>
0

> <i_epik_Tot_abs_Q>
0

> <r_epik_Metal_State_Penalty>
3.05314

> <b_epik_Metal_Only>
0

> <s_epik_Chemistry_Notes>
This compound has an ester and may undergo hydrolysis at high or low pH. This compound contains an acetal/aminal-like group ( X-CH(R)-Y where X, Y are N, S, or O) that may be acid/base labile, releasing an aldehyde.

> <s_lp_Force_Field>
OPLS_2005

> <r_lp_Energy>
25.209

> <b_lp_Chiralities_Consistent>
1

> <s_lp_Variant>
AV-unprocessed.smi:37-1

> <Gold.Version>
5.8.1

> <Gold.Id.Protein>
6NUR|6NUR_protein|mol2

> <Gold.PLP.Fitness>
40.1976

> <Gold.PLP.PLP>
-38.8622

> <Gold.PLP.part.hbond>
-1.0000

> <Gold.PLP.part.metal>
0.0000

> <Gold.PLP.part.buried>
-5.4146

> <Gold.PLP.part.nonpolar>
-32.3083

> <Gold.PLP.part.repulsive>
0.0792

> <Gold.PLP.ligand.clash>
0.0000

> <Gold.PLP.ligand.torsion>
0.9088

> <Gold.PLP.Chemscore.Hbond>
1.0000

> <Gold.PLP.Chemscore.CHOScore>
0.0000

> <Gold.PLP.Chemscore.Metal>
0.0000

> <Gold.Chemscore.Hbonds>
donor molecule, donor type, donor heavy atom, donor atom, acceptor molecule, acceptor atom, score
      P1  H  7989  7998       L1    24  0.35

> <Gold.PLP.Chemscore.Internal.Correction>
0.1529

> <Gold.Rescore>
     Score         DG    S(hbond)    S(metal)    S(lipo)     H(rot)  DE(clash)    DE(int)     intcor
      6.48      -7.61       0.98        0.00      62.98       3.33       0.02       1.11       ----

> <Gold.Chemscore.Fitness>
6.4757

> <Gold.Chemscore.DG>
-7.6085

> <Gold.Chemscore.ZeroCoef>
-5.4800

> <Gold.Chemscore.Hbond>
0.9836

> <Gold.Chemscore.Metal>
0.0000

> <Gold.Chemscore.Lipo>
62.9815

> <Gold.Chemscore.Internal_Hbond>
0.0000

> <Gold.Chemscore.DEClash>
0.0239

> <Gold.Chemscore.DEInternal>
1.1089

> <Gold.Chemscore.Rot>
3.3303

> <Gold.Chemscore.Internal.Correction>
   9.000000E+99

> <Gold.Chemscore.Hbonds>
donor molecule, donor type, donor heavy atom, donor atom, acceptor molecule, acceptor atom, score
      P1  H  7989  7998       L1    24  0.01

> <Gold.Chemscore.Hbond.Weighted>
-3.2852

> <Gold.Chemscore.Metal.Weighted>
-0.0000

> <Gold.Chemscore.Lipo.Weighted>
-7.3688

> <Gold.Chemscore.Internal_Hbond.Weighted>
0.0000

> <Gold.Chemscore.DEClash.Weighted>
0.0239

> <Gold.Chemscore.DEInternal.Weighted>
1.1089

> <Gold.Chemscore.Rot.Weighted>
8.5256

> <Gold.Chemscore.Internal.Correction.Weighted>
   9.000000E+99

> <Gold.Protein.RotatedTorsions>
[ 6907 6896 6895 6894 ] final -135.82 input  -60.11 | X-H torsion
[ 7974 7965 7964 7962 ] final -174.92 input  175.53 | X-H torsion
[ 8008 7997 7996 7995 ] final   55.27 input   59.86 | X-H torsion
[ 10167 10162 10161 10158 ] final   62.30 input  -65.29 | X-H torsion
[ 10718 10713 10712 10709 ] final -103.95 input   66.30 | X-H torsion
[ 10763 10752 10751 10750 ] final   -3.97 input  -60.55 | X-H torsion
[ 11005 11000 10999 10996 ] final  160.22 input  -57.11 | X-H torsion

> <Gold.Protein.ActiveResidues>
 VAL166  LYS551  ARG553  GLY616  TRP617  ASP618  TYR619  PRO620  LYS621  CYS622 
 ASP623  PHE694  ASN695  SER759  ASP760  ASP761  ALA762  ILE779  LEU786  VAL792 
 PHE793  MET794  SER795  GLU796  ALA797  LYS798  CYS799  TRP800  GLU811  SER814 

> <Gold.Protein.RotatedAtoms>
  151.0025  133.6042  159.2692 H   0  0  0  0  0  0  0  0  0  0  0  0  # atno 6907 bound_to 6896
  151.3224  135.0821  159.9320 H   0  0  0  0  0  0  0  0  0  0  0  0  # atno 6908 bound_to 6896
  152.5277  133.9670  159.7798 H   0  0  0  0  0  0  0  0  0  0  0  0  # atno 6909 bound_to 6896
  144.7130  140.1399  143.6392 H   0  0  0  0  0  0  0  0  0  0  0  0  # atno 7974 bound_to 7965
  155.4984  140.3473  155.4367 H   0  0  0  0  0  0  0  0  0  0  0  0  # atno 8008 bound_to 7997
  156.0930  140.1415  156.9595 H   0  0  0  0  0  0  0  0  0  0  0  0  # atno 8009 bound_to 7997
  154.4646  140.0922  156.6964 H   0  0  0  0  0  0  0  0  0  0  0  0  # atno 8010 bound_to 7997
  140.1454  144.4513  150.6788 H   0  0  0  0  0  0  0  0  0  0  0  0  # atno 10167 bound_to 10162
  156.0285  130.5492  150.7326 H   0  0  0  0  0  0  0  0  0  0  0  0  # atno 10718 bound_to 10713
  153.3785  135.6997  153.6583 H   0  0  0  0  0  0  0  0  0  0  0  0  # atno 10763 bound_to 10752
  153.5204  135.3613  155.2629 H   0  0  0  0  0  0  0  0  0  0  0  0  # atno 10764 bound_to 10752
  154.8690  135.4156  154.3078 H   0  0  0  0  0  0  0  0  0  0  0  0  # atno 10765 bound_to 10752
  140.2038  134.8318  157.3047 H   0  0  0  0  0  0  0  0  0  0  0  0  # atno 11005 bound_to 11000
  145.9211  139.2546  143.1381 LP  0  0  0  0  0  0  0  0  0  0  0  0  # atno 17320 bound_to 7965
  145.9619  140.8828  143.0206 LP  0  0  0  0  0  0  0  0  0  0  0  0  # atno 17321 bound_to 7965
  140.6735  143.2295  151.5566 LP  0  0  0  0  0  0  0  0  0  0  0  0  # atno 17342 bound_to 10162
  139.5451  144.2542  152.1427 LP  0  0  0  0  0  0  0  0  0  0  0  0  # atno 17343 bound_to 10162
  157.4915  131.0911  151.0421 LP  0  0  0  0  0  0  0  0  0  0  0  0  # atno 17370 bound_to 10713
  157.0827  130.5909  149.5423 LP  0  0  0  0  0  0  0  0  0  0  0  0  # atno 17371 bound_to 10713
  140.2025  134.4237  155.7655 LP  0  0  0  0  0  0  0  0  0  0  0  0  # atno 17394 bound_to 11000
  141.2227  133.7079  156.8206 LP  0  0  0  0  0  0  0  0  0  0  0  0  # atno 17395 bound_to 11000

$$$$
