AV-unprocessed.smi:3287|AV-procd|sdf|12594|dock8
  -GOLD-   2272018513D 1   1.00000     0.00000
 Structure written by MMmdl.
 43 44  0  0  0  0  0  0  0  0  2 V2000
  150.6235  141.8368  156.8156 C   0  0  0  0  0  0  0  0  0  0  0  0
  150.2142  141.1563  155.4972 C   0  0  2  0  0  0  0  0  0  0  0  0
  148.7001  141.3352  155.2664 C   0  0  0  0  0  0  0  0  0  0  0  0
  148.2367  140.6819  153.9579 C   0  0  0  0  0  0  0  0  0  0  0  0
  148.5884  139.1868  153.9322 C   0  0  1  0  0  0  0  0  0  0  0  0
  148.1274  138.5866  152.6606 N   0  3  0  0  0  0  0  0  0  0  0  0
  146.6832  138.7354  152.3777 C   0  0  0  0  0  0  0  0  0  0  0  0
  145.8271  137.9474  153.3843 C   0  0  1  0  0  0  0  0  0  0  0  0
  144.8044  138.7924  153.8748 O   0  0  0  0  0  0  0  0  0  0  0  0
  145.2624  136.6854  152.7506 C   0  0  0  0  0  0  0  0  0  0  0  0
  145.5045  136.3753  151.3945 C   0  0  0  0  0  0  0  0  0  0  0  0
  144.9616  135.1866  150.8672 C   0  0  0  0  0  0  0  0  0  0  0  0
  144.2216  134.3234  151.5953 N   0  0  0  0  0  0  0  0  0  0  0  0
  143.9954  134.6231  152.8920 C   0  0  0  0  0  0  0  0  0  0  0  0
  144.4917  135.7853  153.5158 C   0  0  0  0  0  0  0  0  0  0  0  0
  150.1058  139.0041  154.1357 C   0  0  0  0  0  0  0  0  0  0  0  0
  150.6030  139.6548  155.4443 C   0  0  1  0  0  0  0  0  0  0  0  0
  152.1168  139.4229  155.5990 C   0  0  0  0  0  0  0  0  0  0  0  0
  150.1966  141.3229  157.6774 H   0  0  0  0  0  0  0  0  0  0  0  0
  150.2800  142.8713  156.8447 H   0  0  0  0  0  0  0  0  0  0  0  0
  151.7056  141.8609  156.9403 H   0  0  0  0  0  0  0  0  0  0  0  0
  150.7346  141.6701  154.6874 H   0  0  0  0  0  0  0  0  0  0  0  0
  148.1459  140.9047  156.1018 H   0  0  0  0  0  0  0  0  0  0  0  0
  148.4492  142.3965  155.2471 H   0  0  0  0  0  0  0  0  0  0  0  0
  147.1602  140.8162  153.8455 H   0  0  0  0  0  0  0  0  0  0  0  0
  148.7026  141.1913  153.1127 H   0  0  0  0  0  0  0  0  0  0  0  0
  148.0560  138.7001  154.7511 H   0  0  0  0  0  0  0  0  0  0  0  0
  148.6278  139.0410  151.9103 H   0  0  0  0  0  0  0  0  0  0  0  0
  146.4032  139.7889  152.3926 H   0  0  0  0  0  0  0  0  0  0  0  0
  146.4872  138.3662  151.3699 H   0  0  0  0  0  0  0  0  0  0  0  0
  146.4461  137.6578  154.2349 H   0  0  0  0  0  0  0  0  0  0  0  0
  144.6894  139.5076  153.2668 H   0  0  0  0  0  0  0  0  0  0  0  0
  146.0930  137.0295  150.7682 H   0  0  0  0  0  0  0  0  0  0  0  0
  145.1277  134.9218  149.8336 H   0  0  0  0  0  0  0  0  0  0  0  0
  143.4016  133.9148  153.4506 H   0  0  0  0  0  0  0  0  0  0  0  0
  144.2824  135.9751  154.5581 H   0  0  0  0  0  0  0  0  0  0  0  0
  150.3574  137.9436  154.1513 H   0  0  0  0  0  0  0  0  0  0  0  0
  150.6428  139.4338  153.2884 H   0  0  0  0  0  0  0  0  0  0  0  0
  150.1081  139.1474  156.2740 H   0  0  0  0  0  0  0  0  0  0  0  0
  152.6804  139.9636  154.8381 H   0  0  0  0  0  0  0  0  0  0  0  0
  152.3632  138.3650  155.5030 H   0  0  0  0  0  0  0  0  0  0  0  0
  152.4790  139.7424  156.5757 H   0  0  0  0  0  0  0  0  0  0  0  0
  148.3651  137.6047  152.6524 H   0  0  0  0  0  0  0  0  0  0  0  0
  1  2  1  0  0  0  0
  1 19  1  0  0  0  0
  1 20  1  0  0  0  0
  1 21  1  0  0  0  0
  2 17  1  0  0  0  0
  2  3  1  0  0  0  0
  2 22  1  0  0  0  0
  3  4  1  0  0  0  0
  3 23  1  0  0  0  0
  3 24  1  0  0  0  0
  4  5  1  0  0  0  0
  4 25  1  0  0  0  0
  4 26  1  0  0  0  0
  5  6  1  0  0  0  0
  5 16  1  0  0  0  0
  5 27  1  0  0  0  0
  6  7  1  0  0  0  0
  6 28  1  0  0  0  0
  6 43  1  0  0  0  0
  7  8  1  0  0  0  0
  7 29  1  0  0  0  0
  7 30  1  0  0  0  0
  8  9  1  0  0  0  0
  8 10  1  0  0  0  0
  8 31  1  0  0  0  0
  9 32  1  0  0  0  0
 10 15  1  0  0  0  0
 10 11  2  0  0  0  0
 11 12  1  0  0  0  0
 11 33  1  0  0  0  0
 12 13  2  0  0  0  0
 12 34  1  0  0  0  0
 13 14  1  0  0  0  0
 14 15  2  0  0  0  0
 14 35  1  0  0  0  0
 15 36  1  0  0  0  0
 16 17  1  0  0  0  0
 16 37  1  0  0  0  0
 16 38  1  0  0  0  0
 17 18  1  0  0  0  0
 17 39  1  0  0  0  0
 18 40  1  0  0  0  0
 18 41  1  0  0  0  0
 18 42  1  0  0  0  0
M  CHG  1   6   1
M  END
> <s_m_source_file>
AV-unprocessed.smi

> <i_m_source_file_index>
3287

> <i_lp_mmshare_version>
43012

> <i_f3d_flags>
0

> <s_epik_input>
W0NIM11bQ0BASF0xW0NIMl1bQ0gyXVtDQEhdKFtDSDJdW0NASF0xW0NIM10pW05IXVtDSDJdW0NASF0oW09IXSljMltjSF1bY0hdbltjSF1bY0hdMg==

> <s_epik_cmdline>
J2VwaWtfcHl0aG9uJywgJy1waCcsICc3LjAnLCAnLXRuJywgJzgnLCAnLW1hJywgJzIwMCcsICctbWV0YWxfYmluZGluZycsICctaW1hZScsICc8aW5maWxlLm1hZT4nLCAnLW9tYWUnLCAnPG91dGZpbGUubWFlPic=

> <r_lp_tautomer_probability>
1

> <r_epik_Ionization_Penalty>
0.00537262

> <r_epik_Ionization_Penalty_Charging>
0.00321624

> <r_epik_Ionization_Penalty_Neutral>
0.00215638

> <r_epik_State_Penalty>
-0

> <r_epik_Charging_Adjusted_Penalty>
0.00321624

> <i_epik_Tot_Q>
1

> <i_epik_Tot_abs_Q>
1

> <r_epik_Metal_State_Penalty>
-0

> <b_epik_Metal_Only>
0

> <s_lp_Force_Field>
OPLS_2005

> <r_lp_Energy>
16.1009

> <b_lp_Chiralities_Consistent>
1

> <s_lp_Variant>
AV-unprocessed.smi:3287-5

> <Gold.Version>
5.8.1

> <Gold.Id.Protein>
6NUR|6NUR_protein|mol2

> <Gold.PLP.Fitness>
51.6202

> <Gold.PLP.PLP>
-35.2166

> <Gold.PLP.part.hbond>
-2.9709

> <Gold.PLP.part.metal>
0.0000

> <Gold.PLP.part.buried>
-2.6422

> <Gold.PLP.part.nonpolar>
-30.9273

> <Gold.PLP.part.repulsive>
0.2000

> <Gold.PLP.ligand.clash>
0.0000

> <Gold.PLP.ligand.torsion>
0.6834

> <Gold.PLP.Chemscore.Hbond>
4.0000

> <Gold.PLP.Chemscore.CHOScore>
1.9177

> <Gold.PLP.Chemscore.Metal>
0.0000

> <Gold.Chemscore.Hbonds>
donor molecule, donor type, donor heavy atom, donor atom, acceptor molecule, acceptor atom, score
      L1  H     6    28       P1  7957  1.00
      L1  H     6    43       P1  7948  1.98
      L1  H     9    32       P1 10175  0.94
      L1  C    12    34       P1  7921  1.00
      L1  C    14    35       P1 10957  0.74

> <Gold.PLP.Chemscore.Internal.Correction>
0.0172

> <Gold.Rescore>
     Score         DG    S(hbond)    S(metal)    S(lipo)     H(rot)  DE(clash)    DE(int)     intcor
     20.17     -20.93       2.94        0.00      89.89       1.90       0.09       0.67       ----

> <Gold.Chemscore.Fitness>
20.1669

> <Gold.Chemscore.DG>
-20.9321

> <Gold.Chemscore.ZeroCoef>
-5.4800

> <Gold.Chemscore.Hbond>
2.9363

> <Gold.Chemscore.Metal>
0.0000

> <Gold.Chemscore.Lipo>
89.8938

> <Gold.Chemscore.Internal_Hbond>
0.0000

> <Gold.Chemscore.DEClash>
0.0918

> <Gold.Chemscore.DEInternal>
0.6734

> <Gold.Chemscore.Rot>
1.9035

> <Gold.Chemscore.Internal.Correction>
   9.000000E+99

> <Gold.Chemscore.Hbonds>
donor molecule, donor type, donor heavy atom, donor atom, acceptor molecule, acceptor atom, score
      L1  H     6    28       P1  7957  0.90
      L1  H     6    43       P1  7948  0.94
      L1  H     9    32       P1 10175  0.90

> <Gold.Chemscore.Hbond.Weighted>
-9.8074

> <Gold.Chemscore.Metal.Weighted>
-0.0000

> <Gold.Chemscore.Lipo.Weighted>
-10.5176

> <Gold.Chemscore.Internal_Hbond.Weighted>
0.0000

> <Gold.Chemscore.DEClash.Weighted>
0.0918

> <Gold.Chemscore.DEInternal.Weighted>
0.6734

> <Gold.Chemscore.Rot.Weighted>
4.8729

> <Gold.Chemscore.Internal.Correction.Weighted>
   9.000000E+99

> <Gold.Protein.RotatedTorsions>
[ 6907 6896 6895 6894 ] final  135.67 input  -60.11 | X-H torsion
[ 7974 7965 7964 7962 ] final   68.76 input  175.53 | X-H torsion
[ 8008 7997 7996 7995 ] final -154.55 input   59.86 | X-H torsion
[ 10167 10162 10161 10158 ] final  -46.83 input  -65.29 | X-H torsion
[ 10718 10713 10712 10709 ] final   87.86 input   66.30 | X-H torsion
[ 10763 10752 10751 10750 ] final  -79.66 input  -60.55 | X-H torsion
[ 11005 11000 10999 10996 ] final   66.13 input  -57.11 | X-H torsion

> <Gold.Protein.ActiveResidues>
 VAL166  LYS551  ARG553  GLY616  TRP617  ASP618  TYR619  PRO620  LYS621  CYS622 
 ASP623  PHE694  ASN695  SER759  ASP760  ASP761  ALA762  ILE779  LEU786  VAL792 
 PHE793  MET794  SER795  GLU796  ALA797  LYS798  CYS799  TRP800  GLU811  SER814 

> <Gold.Protein.RotatedAtoms>
  152.2979  133.5626  159.5599 H   0  0  0  0  0  0  0  0  0  0  0  0  # atno 6907 bound_to 6896
  150.7264  134.0334  159.3750 H   0  0  0  0  0  0  0  0  0  0  0  0  # atno 6908 bound_to 6896
  151.8236  135.0644  160.0479 H   0  0  0  0  0  0  0  0  0  0  0  0  # atno 6909 bound_to 6896
  145.7987  139.2971  143.1167 H   0  0  0  0  0  0  0  0  0  0  0  0  # atno 7974 bound_to 7965
  155.6881  140.0752  157.2458 H   0  0  0  0  0  0  0  0  0  0  0  0  # atno 8008 bound_to 7997
  154.4093  140.1669  156.2109 H   0  0  0  0  0  0  0  0  0  0  0  0  # atno 8009 bound_to 7997
  155.9475  140.3380  155.6383 H   0  0  0  0  0  0  0  0  0  0  0  0  # atno 8010 bound_to 7997
  140.6801  143.2812  151.3839 H   0  0  0  0  0  0  0  0  0  0  0  0  # atno 10167 bound_to 10162
  157.6944  131.0272  150.3187 H   0  0  0  0  0  0  0  0  0  0  0  0  # atno 10718 bound_to 10713
  154.5414  135.5688  153.6843 H   0  0  0  0  0  0  0  0  0  0  0  0  # atno 10763 bound_to 10752
  152.9964  135.6228  154.2497 H   0  0  0  0  0  0  0  0  0  0  0  0  # atno 10764 bound_to 10752
  154.2428  135.2862  155.2827 H   0  0  0  0  0  0  0  0  0  0  0  0  # atno 10765 bound_to 10752
  139.9851  134.6681  156.0191 H   0  0  0  0  0  0  0  0  0  0  0  0  # atno 11005 bound_to 11000
  145.9900  140.8610  143.0071 LP  0  0  0  0  0  0  0  0  0  0  0  0  # atno 17320 bound_to 7965
  144.6771  140.2202  143.7367 LP  0  0  0  0  0  0  0  0  0  0  0  0  # atno 17321 bound_to 7965
  139.6118  144.1084  152.2306 LP  0  0  0  0  0  0  0  0  0  0  0  0  # atno 17342 bound_to 10162
  140.0500  144.5940  150.7343 LP  0  0  0  0  0  0  0  0  0  0  0  0  # atno 17343 bound_to 10162
  156.3677  130.3858  149.7200 LP  0  0  0  0  0  0  0  0  0  0  0  0  # atno 17370 bound_to 10713
  156.4625  130.7958  151.2978 LP  0  0  0  0  0  0  0  0  0  0  0  0  # atno 17371 bound_to 10713
  141.1517  133.6547  156.4035 LP  0  0  0  0  0  0  0  0  0  0  0  0  # atno 17394 bound_to 11000
  140.5018  134.6478  157.5251 LP  0  0  0  0  0  0  0  0  0  0  0  0  # atno 17395 bound_to 11000

$$$$
