AV-unprocessed.smi:2853|AV-procd|sdf|10974|dock9
  -GOLD-   2272015433D 1   1.00000     0.00000
 Structure written by MMmdl.
 43 44  0  0  0  0  0  0  0  0  1 V2000
  153.5418  142.7684  159.7806 C   0  0  0  0  0  0  0  0  0  0  0  0
  152.1299  142.9058  159.3249 C   0  0  0  0  0  0  0  0  0  0  0  0
  151.5077  142.0095  158.5609 N   0  0  0  0  0  0  0  0  0  0  0  0
  150.1873  142.3668  158.2724 C   0  0  0  0  0  0  0  0  0  0  0  0
  149.3613  141.4514  157.4113 C   0  0  0  0  0  0  0  0  0  0  0  0
  149.8958  141.3161  155.9702 C   0  0  0  0  0  0  0  0  0  0  0  0
  148.9613  140.4895  155.0697 C   0  0  0  0  0  0  0  0  0  0  0  0
  151.3135  140.7258  155.9670 C   0  0  0  0  0  0  0  0  0  0  0  0
  149.7942  143.5680  158.8220 C   0  0  0  0  0  0  0  0  0  0  0  0
  148.5588  144.1157  158.6730 N   0  0  0  0  0  0  0  0  0  0  0  0
  147.3929  143.7462  159.2302 C   0  0  0  0  0  0  0  0  0  0  0  0
  147.2400  142.8066  160.0101 O   0  0  0  0  0  0  0  0  0  0  0  0
  146.3993  144.5582  158.8317 N   0  0  0  0  0  0  0  0  0  0  0  0
  144.9811  144.5274  159.2146 C   0  0  2  0  0  0  0  0  0  0  0  0
  144.3019  145.7456  158.5621 C   0  0  0  0  0  0  0  0  0  0  0  0
  144.7703  144.5474  160.7388 C   0  0  0  0  0  0  0  0  0  0  0  0
  144.0776  143.2201  161.0417 C   0  0  0  0  0  0  0  0  0  0  0  0
  143.3905  142.9246  159.8383 O   0  0  0  0  0  0  0  0  0  0  0  0
  144.2813  143.2229  158.7752 C   0  0  0  0  0  0  0  0  0  0  0  0
  151.1133  144.2722  159.7443 S   0  0  0  0  0  0  0  0  0  0  0  0
  154.0178  141.9099  159.3056 H   0  0  0  0  0  0  0  0  0  0  0  0
  153.5719  142.6325  160.8617 H   0  0  0  0  0  0  0  0  0  0  0  0
  154.1047  143.6659  159.5239 H   0  0  0  0  0  0  0  0  0  0  0  0
  149.3299  140.4631  157.8722 H   0  0  0  0  0  0  0  0  0  0  0  0
  148.3239  141.7867  157.3844 H   0  0  0  0  0  0  0  0  0  0  0  0
  149.9660  142.3175  155.5432 H   0  0  0  0  0  0  0  0  0  0  0  0
  148.8161  139.4841  155.4661 H   0  0  0  0  0  0  0  0  0  0  0  0
  149.3701  140.3938  154.0636 H   0  0  0  0  0  0  0  0  0  0  0  0
  147.9803  140.9554  154.9748 H   0  0  0  0  0  0  0  0  0  0  0  0
  151.3240  139.7197  156.3869 H   0  0  0  0  0  0  0  0  0  0  0  0
  151.9974  141.3394  156.5543 H   0  0  0  0  0  0  0  0  0  0  0  0
  151.7139  140.6682  154.9545 H   0  0  0  0  0  0  0  0  0  0  0  0
  148.5234  144.9341  158.0835 H   0  0  0  0  0  0  0  0  0  0  0  0
  146.6529  145.2947  158.1900 H   0  0  0  0  0  0  0  0  0  0  0  0
  143.2347  145.7726  158.7857 H   0  0  0  0  0  0  0  0  0  0  0  0
  144.4073  145.7243  157.4768 H   0  0  0  0  0  0  0  0  0  0  0  0
  144.7376  146.6804  158.9170 H   0  0  0  0  0  0  0  0  0  0  0  0
  145.6880  144.6659  161.3160 H   0  0  0  0  0  0  0  0  0  0  0  0
  144.1122  145.3679  161.0275 H   0  0  0  0  0  0  0  0  0  0  0  0
  144.8064  142.4352  161.2494 H   0  0  0  0  0  0  0  0  0  0  0  0
  143.3950  143.2858  161.8891 H   0  0  0  0  0  0  0  0  0  0  0  0
  143.7438  143.3219  157.8317 H   0  0  0  0  0  0  0  0  0  0  0  0
  144.9740  142.3881  158.6648 H   0  0  0  0  0  0  0  0  0  0  0  0
  1  2  1  0  0  0  0
  1 21  1  0  0  0  0
  1 22  1  0  0  0  0
  1 23  1  0  0  0  0
  2 20  1  0  0  0  0
  2  3  2  0  0  0  0
  3  4  1  0  0  0  0
  4  5  1  0  0  0  0
  4  9  2  0  0  0  0
  5  6  1  0  0  0  0
  5 24  1  0  0  0  0
  5 25  1  0  0  0  0
  6  7  1  0  0  0  0
  6  8  1  0  0  0  0
  6 26  1  0  0  0  0
  7 27  1  0  0  0  0
  7 28  1  0  0  0  0
  7 29  1  0  0  0  0
  8 30  1  0  0  0  0
  8 31  1  0  0  0  0
  8 32  1  0  0  0  0
  9 10  1  0  0  0  0
  9 20  1  0  0  0  0
 10 11  1  0  0  0  0
 10 33  1  0  0  0  0
 11 12  2  0  0  0  0
 11 13  1  0  0  0  0
 13 14  1  0  0  0  0
 13 34  1  0  0  0  0
 14 19  1  0  0  0  0
 14 15  1  0  0  0  0
 14 16  1  0  0  0  0
 15 35  1  0  0  0  0
 15 36  1  0  0  0  0
 15 37  1  0  0  0  0
 16 17  1  0  0  0  0
 16 38  1  0  0  0  0
 16 39  1  0  0  0  0
 17 18  1  0  0  0  0
 17 40  1  0  0  0  0
 17 41  1  0  0  0  0
 18 19  1  0  0  0  0
 19 42  1  0  0  0  0
 19 43  1  0  0  0  0
M  END
> <s_m_source_file>
AV-unprocessed.smi

> <i_m_source_file_index>
2853

> <i_lp_mmshare_version>
43012

> <i_f3d_flags>
0

> <s_epik_input>
W0NIM11jMW5jKFtDSDJdW0NIXShbQ0gzXSlbQ0gzXSljKHMxKVtOSF1DKD1PKVtOSF1bQ0BAXTIoW0NIM10pW0NIMl1bQ0gyXU9bQ0gyXTI=

> <s_epik_cmdline>
J2VwaWtfcHl0aG9uJywgJy1waCcsICc3LjAnLCAnLXRuJywgJzgnLCAnLW1hJywgJzIwMCcsICctbWV0YWxfYmluZGluZycsICctaW1hZScsICc8aW5maWxlLm1hZT4nLCAnLW9tYWUnLCAnPG91dGZpbGUubWFlPic=

> <r_epik_Ionization_Penalty>
0.000723394

> <r_epik_Ionization_Penalty_Charging>
0

> <r_epik_Ionization_Penalty_Neutral>
0.000723394

> <r_epik_State_Penalty>
0.000446791

> <r_epik_Charging_Adjusted_Penalty>
0.000446791

> <i_epik_Tot_Q>
0

> <i_epik_Tot_abs_Q>
0

> <r_epik_Metal_State_Penalty>
-0

> <b_epik_Metal_Only>
0

> <s_lp_Force_Field>
OPLS_2005

> <r_lp_Energy>
15.0202

> <b_lp_Chiralities_Consistent>
1

> <s_lp_Variant>
AV-unprocessed.smi:2853-2

> <Gold.Version>
5.8.1

> <Gold.Id.Protein>
6NUR|6NUR_protein|mol2

> <Gold.PLP.Fitness>
38.4680

> <Gold.PLP.PLP>
-29.4286

> <Gold.PLP.part.hbond>
-4.4793

> <Gold.PLP.part.metal>
0.0000

> <Gold.PLP.part.buried>
-1.8080

> <Gold.PLP.part.nonpolar>
-23.5442

> <Gold.PLP.part.repulsive>
0.1493

> <Gold.PLP.ligand.clash>
0.0000

> <Gold.PLP.ligand.torsion>
0.7573

> <Gold.PLP.Chemscore.Hbond>
3.5120

> <Gold.PLP.Chemscore.CHOScore>
0.0000

> <Gold.PLP.Chemscore.Metal>
0.0000

> <Gold.Chemscore.Hbonds>
donor molecule, donor type, donor heavy atom, donor atom, acceptor molecule, acceptor atom, score
      L1  H    10    33       P1  8029  0.76
      L1  H    13    34       P1  8029  0.94
      P1  H  6933  6944       L1    12  0.82
      P1  H  6934  6946       L1    12  0.65

> <Gold.PLP.Chemscore.Internal.Correction>
0.0180

> <Gold.Rescore>
     Score         DG    S(hbond)    S(metal)    S(lipo)     H(rot)  DE(clash)    DE(int)     intcor
     21.42     -23.35       3.37        0.00      84.44       1.28       0.08       1.86       ----

> <Gold.Chemscore.Fitness>
21.4190

> <Gold.Chemscore.DG>
-23.3544

> <Gold.Chemscore.ZeroCoef>
-5.4800

> <Gold.Chemscore.Hbond>
3.3712

> <Gold.Chemscore.Metal>
0.0000

> <Gold.Chemscore.Lipo>
84.4372

> <Gold.Chemscore.Internal_Hbond>
0.0000

> <Gold.Chemscore.DEClash>
0.0784

> <Gold.Chemscore.DEInternal>
1.8571

> <Gold.Chemscore.Rot>
1.2753

> <Gold.Chemscore.Internal.Correction>
   9.000000E+99

> <Gold.Chemscore.Hbonds>
donor molecule, donor type, donor heavy atom, donor atom, acceptor molecule, acceptor atom, score
      L1  H    10    33       P1  8029  0.46
      L1  H    13    34       P1  8029  0.90
      P1  H  6933  6944       L1    12  0.80
      P1  H  6934  6946       L1    12  0.62

> <Gold.Chemscore.Hbond.Weighted>
-11.2599

> <Gold.Chemscore.Metal.Weighted>
-0.0000

> <Gold.Chemscore.Lipo.Weighted>
-9.8792

> <Gold.Chemscore.Internal_Hbond.Weighted>
0.0000

> <Gold.Chemscore.DEClash.Weighted>
0.0784

> <Gold.Chemscore.DEInternal.Weighted>
1.8571

> <Gold.Chemscore.Rot.Weighted>
3.2646

> <Gold.Chemscore.Internal.Correction.Weighted>
   9.000000E+99

> <Gold.Protein.RotatedTorsions>
[ 6907 6896 6895 6894 ] final  131.67 input  -60.11 | X-H torsion
[ 7974 7965 7964 7962 ] final -177.26 input  175.53 | X-H torsion
[ 8008 7997 7996 7995 ] final  -17.31 input   59.86 | X-H torsion
[ 10167 10162 10161 10158 ] final  -56.78 input  -65.29 | X-H torsion
[ 10718 10713 10712 10709 ] final   39.76 input   66.30 | X-H torsion
[ 10763 10752 10751 10750 ] final   29.89 input  -60.55 | X-H torsion
[ 11005 11000 10999 10996 ] final  -64.28 input  -57.11 | X-H torsion

> <Gold.Protein.ActiveResidues>
 VAL166  LYS551  ARG553  GLY616  TRP617  ASP618  TYR619  PRO620  LYS621  CYS622 
 ASP623  PHE694  ASN695  SER759  ASP760  ASP761  ALA762  ILE779  LEU786  VAL792 
 PHE793  MET794  SER795  GLU796  ALA797  LYS798  CYS799  TRP800  GLU811  SER814 

> <Gold.Protein.RotatedAtoms>
  152.3402  133.6058  159.5870 H   0  0  0  0  0  0  0  0  0  0  0  0  # atno 6907 bound_to 6896
  150.7474  133.9734  159.3562 H   0  0  0  0  0  0  0  0  0  0  0  0  # atno 6908 bound_to 6896
  151.7599  135.0813  160.0395 H   0  0  0  0  0  0  0  0  0  0  0  0  # atno 6909 bound_to 6896
  144.7127  140.1046  143.6414 H   0  0  0  0  0  0  0  0  0  0  0  0  # atno 7974 bound_to 7965
  154.4988  140.2146  155.9391 H   0  0  0  0  0  0  0  0  0  0  0  0  # atno 8008 bound_to 7997
  156.1406  140.3180  155.8457 H   0  0  0  0  0  0  0  0  0  0  0  0  # atno 8009 bound_to 7997
  155.4127  140.0491  157.3021 H   0  0  0  0  0  0  0  0  0  0  0  0  # atno 8010 bound_to 7997
  140.6297  143.2454  151.5273 H   0  0  0  0  0  0  0  0  0  0  0  0  # atno 10167 bound_to 10162
  157.3743  130.7718  149.7143 H   0  0  0  0  0  0  0  0  0  0  0  0  # atno 10718 bound_to 10713
  153.0404  135.6478  154.0960 H   0  0  0  0  0  0  0  0  0  0  0  0  # atno 10763 bound_to 10752
  154.0667  135.2883  155.3317 H   0  0  0  0  0  0  0  0  0  0  0  0  # atno 10764 bound_to 10752
  154.6621  135.5387  153.8096 H   0  0  0  0  0  0  0  0  0  0  0  0  # atno 10765 bound_to 10752
  141.1420  133.6663  156.5809 H   0  0  0  0  0  0  0  0  0  0  0  0  # atno 11005 bound_to 11000
  145.9508  139.2732  143.1213 LP  0  0  0  0  0  0  0  0  0  0  0  0  # atno 17320 bound_to 7965
  145.9325  140.9038  143.0349 LP  0  0  0  0  0  0  0  0  0  0  0  0  # atno 17321 bound_to 7965
  139.5513  144.2389  152.1534 LP  0  0  0  0  0  0  0  0  0  0  0  0  # atno 17342 bound_to 10162
  140.1630  144.5008  150.6622 LP  0  0  0  0  0  0  0  0  0  0  0  0  # atno 17343 bound_to 10162
  155.9762  130.4079  150.3796 LP  0  0  0  0  0  0  0  0  0  0  0  0  # atno 17370 bound_to 10713
  157.1891  131.0411  151.2709 LP  0  0  0  0  0  0  0  0  0  0  0  0  # atno 17371 bound_to 10713
  140.3839  134.7500  157.4678 LP  0  0  0  0  0  0  0  0  0  0  0  0  # atno 17394 bound_to 11000
  140.0617  134.5986  155.8741 LP  0  0  0  0  0  0  0  0  0  0  0  0  # atno 17395 bound_to 11000

$$$$
