AV-unprocessed.smi:1430|AV-procd|sdf|5824|dock8
  -GOLD-   22720 5483D 1   1.00000     0.00000
 Structure written by MMmdl.
 46 47  0  0  0  0  0  0  0  0  1 V2000
  153.1515  142.9106  162.7878 C   0  0  0  0  0  0  0  0  0  0  0  0
  152.5300  143.9725  162.0722 O   0  0  0  0  0  0  0  0  0  0  0  0
  151.9773  143.6955  160.8386 C   0  0  0  0  0  0  0  0  0  0  0  0
  152.3521  142.5056  160.1839 C   0  0  0  0  0  0  0  0  0  0  0  0
  151.7929  142.2144  158.9248 C   0  0  0  0  0  0  0  0  0  0  0  0
  150.8771  143.1309  158.3541 C   0  0  0  0  0  0  0  0  0  0  0  0
  150.2289  142.9515  157.1014 N   0  0  0  0  0  0  0  0  0  0  0  0
  149.9844  141.8123  156.4309 C   0  0  0  0  0  0  0  0  0  0  0  0
  150.3108  140.6834  156.7962 O   0  0  0  0  0  0  0  0  0  0  0  0
  149.3396  142.0585  155.2817 N   0  0  0  0  0  0  0  0  0  0  0  0
  148.9308  141.0457  154.3161 C   0  0  0  0  0  0  0  0  0  0  0  0
  147.4561  140.6478  154.5135 C   0  0  0  0  0  0  0  0  0  0  0  0
  146.5691  141.7416  154.9061 N   0  0  0  0  0  0  0  0  0  0  0  0
  145.2854  141.2675  155.4193 C   0  0  0  0  0  0  0  0  0  0  0  0
  144.3313  142.4182  155.7989 C   0  0  1  0  0  0  0  0  0  0  0  0
  144.7240  143.1294  157.1050 C   0  0  0  0  0  0  0  0  0  0  0  0
  144.2024  143.3376  154.7131 O   0  0  0  0  0  0  0  0  0  0  0  0
  145.4324  143.8297  154.1845 C   0  0  2  0  0  0  0  0  0  0  0  0
  145.1098  144.7339  152.9903 C   0  0  0  0  0  0  0  0  0  0  0  0
  146.3271  142.6426  153.7865 C   0  0  0  0  0  0  0  0  0  0  0  0
  150.5605  144.2874  159.0966 C   0  0  0  0  0  0  0  0  0  0  0  0
  151.0927  144.5725  160.3036 N   0  0  0  0  0  0  0  0  0  0  0  0
  153.5312  143.2893  163.7365 H   0  0  0  0  0  0  0  0  0  0  0  0
  153.9961  142.4972  162.2349 H   0  0  0  0  0  0  0  0  0  0  0  0
  152.4428  142.1115  163.0106 H   0  0  0  0  0  0  0  0  0  0  0  0
  153.0539  141.8244  160.6422 H   0  0  0  0  0  0  0  0  0  0  0  0
  152.0693  141.2936  158.4365 H   0  0  0  0  0  0  0  0  0  0  0  0
  149.9549  143.8039  156.6348 H   0  0  0  0  0  0  0  0  0  0  0  0
  149.1149  143.0167  155.0575 H   0  0  0  0  0  0  0  0  0  0  0  0
  149.0896  141.4652  153.3235 H   0  0  0  0  0  0  0  0  0  0  0  0
  149.5769  140.1696  154.3923 H   0  0  0  0  0  0  0  0  0  0  0  0
  147.0954  140.2297  153.5727 H   0  0  0  0  0  0  0  0  0  0  0  0
  147.3897  139.8401  155.2439 H   0  0  0  0  0  0  0  0  0  0  0  0
  144.8022  140.6460  154.6637 H   0  0  0  0  0  0  0  0  0  0  0  0
  145.4326  140.6322  156.2917 H   0  0  0  0  0  0  0  0  0  0  0  0
  143.3405  141.9914  155.9568 H   0  0  0  0  0  0  0  0  0  0  0  0
  144.7104  142.4338  157.9442 H   0  0  0  0  0  0  0  0  0  0  0  0
  144.0261  143.9351  157.3332 H   0  0  0  0  0  0  0  0  0  0  0  0
  145.7246  143.5580  157.0545 H   0  0  0  0  0  0  0  0  0  0  0  0
  145.9387  144.4298  154.9411 H   0  0  0  0  0  0  0  0  0  0  0  0
  146.0197  145.1460  152.5532 H   0  0  0  0  0  0  0  0  0  0  0  0
  144.4792  145.5698  153.2936 H   0  0  0  0  0  0  0  0  0  0  0  0
  144.5824  144.1844  152.2101 H   0  0  0  0  0  0  0  0  0  0  0  0
  147.2768  143.0222  153.4077 H   0  0  0  0  0  0  0  0  0  0  0  0
  145.8619  142.0942  152.9657 H   0  0  0  0  0  0  0  0  0  0  0  0
  149.8587  145.0117  158.7096 H   0  0  0  0  0  0  0  0  0  0  0  0
  1  2  1  0  0  0  0
  1 23  1  0  0  0  0
  1 24  1  0  0  0  0
  1 25  1  0  0  0  0
  2  3  1  0  0  0  0
  3 22  1  0  0  0  0
  3  4  2  0  0  0  0
  4  5  1  0  0  0  0
  4 26  1  0  0  0  0
  5  6  2  0  0  0  0
  5 27  1  0  0  0  0
  6  7  1  0  0  0  0
  6 21  1  0  0  0  0
  7  8  1  0  0  0  0
  7 28  1  0  0  0  0
  8  9  2  0  0  0  0
  8 10  1  0  0  0  0
 10 11  1  0  0  0  0
 10 29  1  0  0  0  0
 11 12  1  0  0  0  0
 11 30  1  0  0  0  0
 11 31  1  0  0  0  0
 12 13  1  0  0  0  0
 12 32  1  0  0  0  0
 12 33  1  0  0  0  0
 13 20  1  0  0  0  0
 13 14  1  0  0  0  0
 14 15  1  0  0  0  0
 14 34  1  0  0  0  0
 14 35  1  0  0  0  0
 15 16  1  0  0  0  0
 15 17  1  0  0  0  0
 15 36  1  0  0  0  0
 16 37  1  0  0  0  0
 16 38  1  0  0  0  0
 16 39  1  0  0  0  0
 17 18  1  0  0  0  0
 18 19  1  0  0  0  0
 18 20  1  0  0  0  0
 18 40  1  0  0  0  0
 19 41  1  0  0  0  0
 19 42  1  0  0  0  0
 19 43  1  0  0  0  0
 20 44  1  0  0  0  0
 20 45  1  0  0  0  0
 21 22  2  0  0  0  0
 21 46  1  0  0  0  0
M  END
> <s_m_source_file>
AV-unprocessed.smi

> <i_m_source_file_index>
1430

> <i_lp_mmshare_version>
43012

> <i_f3d_flags>
0

> <s_epik_input>
W0NIM11PYzFbY0hdW2NIXWMoW2NIXW4xKVtOSF1DKD1PKVtOSF1bQ0gyXVtDSDJdTjJbQ0gyXVtDQEBIXShbQ0gzXSlPW0NAQEhdKFtDSDNdKVtDSDJdMg==

> <s_epik_cmdline>
J2VwaWtfcHl0aG9uJywgJy1waCcsICc3LjAnLCAnLXRuJywgJzgnLCAnLW1hJywgJzIwMCcsICctbWV0YWxfYmluZGluZycsICctaW1hZScsICc8aW5maWxlLm1hZT4nLCAnLW9tYWUnLCAnPG91dGZpbGUubWFlPic=

> <r_lp_tautomer_probability>
1

> <r_epik_Ionization_Penalty>
0.266083

> <r_epik_Ionization_Penalty_Charging>
0

> <r_epik_Ionization_Penalty_Neutral>
0.266083

> <r_epik_State_Penalty>
0.257924

> <r_epik_Charging_Adjusted_Penalty>
0.257924

> <i_epik_Tot_Q>
0

> <i_epik_Tot_abs_Q>
0

> <r_epik_Metal_State_Penalty>
0.257922

> <b_epik_Metal_Only>
0

> <s_lp_Force_Field>
OPLS_2005

> <r_lp_Energy>
26.0225

> <b_lp_Chiralities_Consistent>
1

> <s_lp_Variant>
AV-unprocessed.smi:1430-3

> <Gold.Version>
5.8.1

> <Gold.Id.Protein>
6NUR|6NUR_protein|mol2

> <Gold.PLP.Fitness>
48.3322

> <Gold.PLP.PLP>
-41.2907

> <Gold.PLP.part.hbond>
-2.0000

> <Gold.PLP.part.metal>
0.0000

> <Gold.PLP.part.buried>
-8.2506

> <Gold.PLP.part.nonpolar>
-32.7795

> <Gold.PLP.part.repulsive>
1.0572

> <Gold.PLP.ligand.clash>
0.0000

> <Gold.PLP.ligand.torsion>
0.7361

> <Gold.PLP.Chemscore.Hbond>
1.9760

> <Gold.PLP.Chemscore.CHOScore>
0.8541

> <Gold.PLP.Chemscore.Metal>
0.0000

> <Gold.Chemscore.Hbonds>
donor molecule, donor type, donor heavy atom, donor atom, acceptor molecule, acceptor atom, score
      L1  H     7    28       P1  8028  1.00
      L1  H    10    29       P1  8028  0.98
      L1  C    21    46       P1  8029  0.84

> <Gold.PLP.Chemscore.Internal.Correction>
0.0234

> <Gold.Rescore>
     Score         DG    S(hbond)    S(metal)    S(lipo)     H(rot)  DE(clash)    DE(int)     intcor
     16.63     -18.25       1.91        0.00      91.92       1.71       0.16       1.46       ----

> <Gold.Chemscore.Fitness>
16.6291

> <Gold.Chemscore.DG>
-18.2484

> <Gold.Chemscore.ZeroCoef>
-5.4800

> <Gold.Chemscore.Hbond>
1.9143

> <Gold.Chemscore.Metal>
0.0000

> <Gold.Chemscore.Lipo>
91.9156

> <Gold.Chemscore.Internal_Hbond>
0.0000

> <Gold.Chemscore.DEClash>
0.1560

> <Gold.Chemscore.DEInternal>
1.4634

> <Gold.Chemscore.Rot>
1.7107

> <Gold.Chemscore.Internal.Correction>
   9.000000E+99

> <Gold.Chemscore.Hbonds>
donor molecule, donor type, donor heavy atom, donor atom, acceptor molecule, acceptor atom, score
      L1  H     7    28       P1  8028  0.97
      L1  H    10    29       P1  8028  0.93

> <Gold.Chemscore.Hbond.Weighted>
-6.3937

> <Gold.Chemscore.Metal.Weighted>
-0.0000

> <Gold.Chemscore.Lipo.Weighted>
-10.7541

> <Gold.Chemscore.Internal_Hbond.Weighted>
0.0000

> <Gold.Chemscore.DEClash.Weighted>
0.1560

> <Gold.Chemscore.DEInternal.Weighted>
1.4634

> <Gold.Chemscore.Rot.Weighted>
4.3794

> <Gold.Chemscore.Internal.Correction.Weighted>
   9.000000E+99

> <Gold.Protein.RotatedTorsions>
[ 6907 6896 6895 6894 ] final -137.57 input  -60.11 | X-H torsion
[ 7974 7965 7964 7962 ] final   44.93 input  175.53 | X-H torsion
[ 8008 7997 7996 7995 ] final  -87.02 input   59.86 | X-H torsion
[ 10167 10162 10161 10158 ] final  -53.48 input  -65.29 | X-H torsion
[ 10718 10713 10712 10709 ] final -121.33 input   66.30 | X-H torsion
[ 10763 10752 10751 10750 ] final   65.90 input  -60.55 | X-H torsion
[ 11005 11000 10999 10996 ] final   42.86 input  -57.11 | X-H torsion

> <Gold.Protein.ActiveResidues>
 VAL166  LYS551  ARG553  GLY616  TRP617  ASP618  TYR619  PRO620  LYS621  CYS622 
 ASP623  PHE694  ASN695  SER759  ASP760  ASP761  ALA762  ILE779  LEU786  VAL792 
 PHE793  MET794  SER795  GLU796  ALA797  LYS798  CYS799  TRP800  GLU811  SER814 

> <Gold.Protein.RotatedAtoms>
  151.0242  133.5849  159.2667 H   0  0  0  0  0  0  0  0  0  0  0  0  # atno 6907 bound_to 6896
  151.2955  135.0753  159.9229 H   0  0  0  0  0  0  0  0  0  0  0  0  # atno 6908 bound_to 6896
  152.5330  133.9932  159.7915 H   0  0  0  0  0  0  0  0  0  0  0  0  # atno 6909 bound_to 6896
  146.0525  139.5020  142.9709 H   0  0  0  0  0  0  0  0  0  0  0  0  # atno 7974 bound_to 7965
  154.6585  140.0571  157.0036 H   0  0  0  0  0  0  0  0  0  0  0  0  # atno 8008 bound_to 7997
  155.1264  140.3252  155.4466 H   0  0  0  0  0  0  0  0  0  0  0  0  # atno 8009 bound_to 7997
  156.2608  140.1988  156.6384 H   0  0  0  0  0  0  0  0  0  0  0  0  # atno 8010 bound_to 7997
  140.6482  143.2549  151.4798 H   0  0  0  0  0  0  0  0  0  0  0  0  # atno 10167 bound_to 10162
  156.1329  130.6409  150.9650 H   0  0  0  0  0  0  0  0  0  0  0  0  # atno 10718 bound_to 10713
  153.0116  135.5340  154.6739 H   0  0  0  0  0  0  0  0  0  0  0  0  # atno 10763 bound_to 10752
  154.5916  135.2859  155.0631 H   0  0  0  0  0  0  0  0  0  0  0  0  # atno 10764 bound_to 10752
  154.1722  135.6530  153.5065 H   0  0  0  0  0  0  0  0  0  0  0  0  # atno 10765 bound_to 10752
  140.1699  134.4235  155.8263 H   0  0  0  0  0  0  0  0  0  0  0  0  # atno 11005 bound_to 11000
  145.6700  141.0219  143.1663 LP  0  0  0  0  0  0  0  0  0  0  0  0  # atno 17320 bound_to 7965
  144.7130  139.8299  143.7408 LP  0  0  0  0  0  0  0  0  0  0  0  0  # atno 17321 bound_to 7965
  139.5695  144.1963  152.1815 LP  0  0  0  0  0  0  0  0  0  0  0  0  # atno 17342 bound_to 10162
  140.1255  144.5335  150.6835 LP  0  0  0  0  0  0  0  0  0  0  0  0  # atno 17343 bound_to 10162
  157.6505  131.0897  150.8061 LP  0  0  0  0  0  0  0  0  0  0  0  0  # atno 17370 bound_to 10713
  156.8144  130.4963  149.5351 LP  0  0  0  0  0  0  0  0  0  0  0  0  # atno 17371 bound_to 10713
  141.2216  133.6951  156.7745 LP  0  0  0  0  0  0  0  0  0  0  0  0  # atno 17394 bound_to 11000
  140.2389  134.8628  157.3553 LP  0  0  0  0  0  0  0  0  0  0  0  0  # atno 17395 bound_to 11000

$$$$
