AV-unprocessed.smi:3303|AV-procd|sdf|12677|dock10
  -GOLD-   2272019 13D 1   1.00000     0.00000
 Structure written by MMmdl.
 44 45  0  0  0  0  0  0  0  0  2 V2000
  146.9009  142.3946  154.4500 C   0  0  0  0  0  0  0  0  0  0  0  0
  147.7392  141.1227  154.2422 C   0  0  2  0  0  0  0  0  0  0  0  0
  147.1933  139.9281  155.0474 C   0  0  0  0  0  0  0  0  0  0  0  0
  147.9268  138.6988  154.7324 N   0  0  0  0  0  0  0  0  0  0  0  0
  147.2834  137.6120  155.4664 C   0  0  0  0  0  0  0  0  0  0  0  0
  149.3529  138.8305  155.0808 C   0  0  1  0  0  0  0  0  0  0  0  0
  150.1425  137.5416  154.7747 C   0  0  0  0  0  0  0  0  0  0  0  0
  149.9759  140.0094  154.2968 C   0  0  0  0  0  0  0  0  0  0  0  0
  149.2372  141.3347  154.5321 C   0  0  2  0  0  0  0  0  0  0  0  0
  149.4705  141.8174  155.9139 N   0  3  0  0  0  0  0  0  0  0  0  0
  150.8057  141.5094  156.4637 C   0  0  0  0  0  0  0  0  0  0  0  0
  150.7428  141.3166  157.9847 C   0  0  0  0  0  0  0  0  0  0  0  0
  151.0904  142.5860  158.7385 C   0  0  0  0  0  0  0  0  0  0  0  0
  152.1088  142.5893  159.7154 C   0  0  0  0  0  0  0  0  0  0  0  0
  152.3873  143.7944  160.3894 C   0  0  0  0  0  0  0  0  0  0  0  0
  151.6403  144.9426  160.0626 C   0  0  0  0  0  0  0  0  0  0  0  0
  150.6426  144.8342  159.0732 C   0  0  0  0  0  0  0  0  0  0  0  0
  150.3663  143.6831  158.4224 N   0  0  0  0  0  0  0  0  0  0  0  0
  146.8924  142.7082  155.4941 H   0  0  0  0  0  0  0  0  0  0  0  0
  145.8657  142.2321  154.1488 H   0  0  0  0  0  0  0  0  0  0  0  0
  147.2892  143.2219  153.8553 H   0  0  0  0  0  0  0  0  0  0  0  0
  147.6482  140.8654  153.1851 H   0  0  0  0  0  0  0  0  0  0  0  0
  147.2409  140.1326  156.1182 H   0  0  0  0  0  0  0  0  0  0  0  0
  146.1400  139.7880  154.7994 H   0  0  0  0  0  0  0  0  0  0  0  0
  147.6864  136.6418  155.1786 H   0  0  0  0  0  0  0  0  0  0  0  0
  146.2151  137.5798  155.2492 H   0  0  0  0  0  0  0  0  0  0  0  0
  147.4069  137.7323  156.5437 H   0  0  0  0  0  0  0  0  0  0  0  0
  149.4344  139.0356  156.1494 H   0  0  0  0  0  0  0  0  0  0  0  0
  151.2124  137.7005  154.9113 H   0  0  0  0  0  0  0  0  0  0  0  0
  149.9884  137.2138  153.7459 H   0  0  0  0  0  0  0  0  0  0  0  0
  149.8666  136.7214  155.4369 H   0  0  0  0  0  0  0  0  0  0  0  0
  151.0279  140.1244  154.5616 H   0  0  0  0  0  0  0  0  0  0  0  0
  149.9598  139.7788  153.2301 H   0  0  0  0  0  0  0  0  0  0  0  0
  149.6275  142.0704  153.8267 H   0  0  0  0  0  0  0  0  0  0  0  0
  149.3451  142.8194  155.9215 H   0  0  0  0  0  0  0  0  0  0  0  0
  151.1890  140.6073  155.9847 H   0  0  0  0  0  0  0  0  0  0  0  0
  151.4912  142.3229  156.2220 H   0  0  0  0  0  0  0  0  0  0  0  0
  149.7450  140.9873  158.2782 H   0  0  0  0  0  0  0  0  0  0  0  0
  151.4294  140.5259  158.2909 H   0  0  0  0  0  0  0  0  0  0  0  0
  152.6649  141.6923  159.9454 H   0  0  0  0  0  0  0  0  0  0  0  0
  153.1602  143.8376  161.1426 H   0  0  0  0  0  0  0  0  0  0  0  0
  151.8275  145.8841  160.5576 H   0  0  0  0  0  0  0  0  0  0  0  0
  150.0505  145.6943  158.7977 H   0  0  0  0  0  0  0  0  0  0  0  0
  148.7739  141.4034  156.5166 H   0  0  0  0  0  0  0  0  0  0  0  0
  1  2  1  0  0  0  0
  1 19  1  0  0  0  0
  1 20  1  0  0  0  0
  1 21  1  0  0  0  0
  2  9  1  0  0  0  0
  2  3  1  0  0  0  0
  2 22  1  0  0  0  0
  3  4  1  0  0  0  0
  3 23  1  0  0  0  0
  3 24  1  0  0  0  0
  4  5  1  0  0  0  0
  4  6  1  0  0  0  0
  5 25  1  0  0  0  0
  5 26  1  0  0  0  0
  5 27  1  0  0  0  0
  6  7  1  0  0  0  0
  6  8  1  0  0  0  0
  6 28  1  0  0  0  0
  7 29  1  0  0  0  0
  7 30  1  0  0  0  0
  7 31  1  0  0  0  0
  8  9  1  0  0  0  0
  8 32  1  0  0  0  0
  8 33  1  0  0  0  0
  9 10  1  0  0  0  0
  9 34  1  0  0  0  0
 10 11  1  0  0  0  0
 10 35  1  0  0  0  0
 10 44  1  0  0  0  0
 11 12  1  0  0  0  0
 11 36  1  0  0  0  0
 11 37  1  0  0  0  0
 12 13  1  0  0  0  0
 12 38  1  0  0  0  0
 12 39  1  0  0  0  0
 13 18  1  0  0  0  0
 13 14  2  0  0  0  0
 14 15  1  0  0  0  0
 14 40  1  0  0  0  0
 15 16  2  0  0  0  0
 15 41  1  0  0  0  0
 16 17  1  0  0  0  0
 16 42  1  0  0  0  0
 17 18  2  0  0  0  0
 17 43  1  0  0  0  0
M  CHG  1  10   1
M  END
> <s_m_source_file>
AV-unprocessed.smi

> <i_m_source_file_index>
3303

> <i_lp_mmshare_version>
43012

> <i_f3d_flags>
0

> <s_epik_input>
W0NIM11bQ0BASF0xW0NIMl1OKFtDSDNdKVtDQEBIXShbQ0gzXSlbQ0gyXVtDQEhdMVtOSF1bQ0gyXVtDSDJdYzJbY0hdW2NIXVtjSF1bY0hdbjI=

> <s_epik_cmdline>
J2VwaWtfcHl0aG9uJywgJy1waCcsICc3LjAnLCAnLXRuJywgJzgnLCAnLW1hJywgJzIwMCcsICctbWV0YWxfYmluZGluZycsICctaW1hZScsICc8aW5maWxlLm1hZT4nLCAnLW9tYWUnLCAnPG91dGZpbGUubWFlPic=

> <r_epik_Ionization_Penalty>
1.37325

> <r_epik_Ionization_Penalty_Charging>
0.000251572

> <r_epik_Ionization_Penalty_Neutral>
1.373

> <r_epik_State_Penalty>
1.46343

> <r_epik_Charging_Adjusted_Penalty>
1.46368

> <i_epik_Tot_Q>
1

> <i_epik_Tot_abs_Q>
1

> <r_epik_Metal_State_Penalty>
1.46331

> <b_epik_Metal_Only>
0

> <s_lp_Force_Field>
OPLS_2005

> <r_lp_Energy>
25.9316

> <b_lp_Chiralities_Consistent>
1

> <s_lp_Variant>
AV-unprocessed.smi:3303-21

> <Gold.Version>
5.8.1

> <Gold.Id.Protein>
6NUR|6NUR_protein|mol2

> <Gold.PLP.Fitness>
42.8858

> <Gold.PLP.PLP>
-35.3927

> <Gold.PLP.part.hbond>
-1.0000

> <Gold.PLP.part.metal>
0.0000

> <Gold.PLP.part.buried>
-2.2631

> <Gold.PLP.part.nonpolar>
-33.2963

> <Gold.PLP.part.repulsive>
0.3873

> <Gold.PLP.ligand.clash>
0.0000

> <Gold.PLP.ligand.torsion>
0.7553

> <Gold.PLP.Chemscore.Hbond>
2.0000

> <Gold.PLP.Chemscore.CHOScore>
1.0000

> <Gold.PLP.Chemscore.Metal>
0.0000

> <Gold.Chemscore.Hbonds>
donor molecule, donor type, donor heavy atom, donor atom, acceptor molecule, acceptor atom, score
      L1  H    10    35       P1  8028  2.00
      L1  C    17    43       P1  8029  0.74

> <Gold.PLP.Chemscore.Internal.Correction>
0.0037

> <Gold.Rescore>
     Score         DG    S(hbond)    S(metal)    S(lipo)     H(rot)  DE(clash)    DE(int)     intcor
     17.21     -18.16       0.99        0.00     109.35       1.33       0.25       0.70       ----

> <Gold.Chemscore.Fitness>
17.2086

> <Gold.Chemscore.DG>
-18.1644

> <Gold.Chemscore.ZeroCoef>
-5.4800

> <Gold.Chemscore.Hbond>
0.9863

> <Gold.Chemscore.Metal>
0.0000

> <Gold.Chemscore.Lipo>
109.3537

> <Gold.Chemscore.Internal_Hbond>
0.0000

> <Gold.Chemscore.DEClash>
0.2540

> <Gold.Chemscore.DEInternal>
0.7018

> <Gold.Chemscore.Rot>
1.3298

> <Gold.Chemscore.Internal.Correction>
   9.000000E+99

> <Gold.Chemscore.Hbonds>
donor molecule, donor type, donor heavy atom, donor atom, acceptor molecule, acceptor atom, score
      L1  H    10    35       P1  8028  0.98

> <Gold.Chemscore.Hbond.Weighted>
-3.2944

> <Gold.Chemscore.Metal.Weighted>
-0.0000

> <Gold.Chemscore.Lipo.Weighted>
-12.7944

> <Gold.Chemscore.Internal_Hbond.Weighted>
0.0000

> <Gold.Chemscore.DEClash.Weighted>
0.2540

> <Gold.Chemscore.DEInternal.Weighted>
0.7018

> <Gold.Chemscore.Rot.Weighted>
3.4043

> <Gold.Chemscore.Internal.Correction.Weighted>
   9.000000E+99

> <Gold.Protein.RotatedTorsions>
[ 6907 6896 6895 6894 ] final   89.85 input  -60.11 | X-H torsion
[ 7974 7965 7964 7962 ] final  -61.82 input  175.53 | X-H torsion
[ 8008 7997 7996 7995 ] final   42.03 input   59.86 | X-H torsion
[ 10167 10162 10161 10158 ] final  -57.16 input  -65.29 | X-H torsion
[ 10718 10713 10712 10709 ] final -118.44 input   66.30 | X-H torsion
[ 10763 10752 10751 10750 ] final  -33.76 input  -60.55 | X-H torsion
[ 11005 11000 10999 10996 ] final  -46.59 input  -57.11 | X-H torsion

> <Gold.Protein.ActiveResidues>
 VAL166  LYS551  ARG553  GLY616  TRP617  ASP618  TYR619  PRO620  LYS621  CYS622 
 ASP623  PHE694  ASN695  SER759  ASP760  ASP761  ALA762  ILE779  LEU786  VAL792 
 PHE793  MET794  SER795  GLU796  ALA797  LYS798  CYS799  TRP800  GLU811  SER814 

> <Gold.Protein.RotatedAtoms>
  152.5440  134.1903  159.8670 H   0  0  0  0  0  0  0  0  0  0  0  0  # atno 6907 bound_to 6896
  151.1899  133.4667  159.2602 H   0  0  0  0  0  0  0  0  0  0  0  0  # atno 6908 bound_to 6896
  151.1094  135.0030  159.8542 H   0  0  0  0  0  0  0  0  0  0  0  0  # atno 6909 bound_to 6896
  145.7988  140.8667  143.0242 H   0  0  0  0  0  0  0  0  0  0  0  0  # atno 7974 bound_to 7965
  155.2794  140.3371  155.4259 H   0  0  0  0  0  0  0  0  0  0  0  0  # atno 8008 bound_to 7997
  156.2097  140.1765  156.7764 H   0  0  0  0  0  0  0  0  0  0  0  0  # atno 8009 bound_to 7997
  154.5669  140.0677  156.8889 H   0  0  0  0  0  0  0  0  0  0  0  0  # atno 8010 bound_to 7997
  140.6275  143.2444  151.5327 H   0  0  0  0  0  0  0  0  0  0  0  0  # atno 10167 bound_to 10162
  156.1106  130.6246  150.9291 H   0  0  0  0  0  0  0  0  0  0  0  0  # atno 10718 bound_to 10713
  153.8356  135.6862  153.4809 H   0  0  0  0  0  0  0  0  0  0  0  0  # atno 10763 bound_to 10752
  153.1485  135.4628  154.9599 H   0  0  0  0  0  0  0  0  0  0  0  0  # atno 10764 bound_to 10752
  154.7868  135.3287  154.7815 H   0  0  0  0  0  0  0  0  0  0  0  0  # atno 10765 bound_to 10752
  141.0588  133.6716  156.3176 H   0  0  0  0  0  0  0  0  0  0  0  0  # atno 11005 bound_to 11000
  144.6771  140.0228  143.7483 LP  0  0  0  0  0  0  0  0  0  0  0  0  # atno 17320 bound_to 7965
  145.9900  139.3007  143.0990 LP  0  0  0  0  0  0  0  0  0  0  0  0  # atno 17321 bound_to 7965
  139.5493  144.2438  152.1501 LP  0  0  0  0  0  0  0  0  0  0  0  0  # atno 17342 bound_to 10162
  140.1673  144.4969  150.6599 LP  0  0  0  0  0  0  0  0  0  0  0  0  # atno 17343 bound_to 10162
  157.6287  131.0923  150.8483 LP  0  0  0  0  0  0  0  0  0  0  0  0  # atno 17370 bound_to 10713
  156.8595  130.5108  149.5305 LP  0  0  0  0  0  0  0  0  0  0  0  0  # atno 17371 bound_to 10713
  140.5910  134.5650  157.5499 LP  0  0  0  0  0  0  0  0  0  0  0  0  # atno 17394 bound_to 11000
  139.9414  134.7780  156.0669 LP  0  0  0  0  0  0  0  0  0  0  0  0  # atno 17395 bound_to 11000

$$$$
