AV-unprocessed.smi:2171|AV-procd|sdf|8830|dock2
  -GOLD-   2272012 23D 1   1.00000     0.00000
 Structure written by MMmdl.
 39 41  0  0  0  0  0  0  0  0  2 V2000
  146.8432  138.9121  155.6704 O   0  0  0  0  0  0  0  0  0  0  0  0
  147.5567  138.7995  154.6744 C   0  0  0  0  0  0  0  0  0  0  0  0
  148.3265  140.0128  154.1447 C   0  0  0  0  0  0  0  0  0  0  0  0
  149.3375  140.4677  155.0847 N   0  0  0  0  0  0  0  0  0  0  0  0
  149.1593  141.1373  156.2777 C   0  0  0  0  0  0  0  0  0  0  0  0
  150.3976  141.3593  156.8085 C   0  0  0  0  0  0  0  0  0  0  0  0
  151.2825  140.7788  155.8574 C   0  0  0  0  0  0  0  0  0  0  0  0
  150.6455  140.2455  154.8275 N   0  0  0  0  0  0  0  0  0  0  0  0
  147.6938  137.6498  153.9936 N   0  0  0  0  0  0  0  0  0  0  0  0
  147.0856  136.3721  154.3589 C   0  0  2  0  0  0  0  0  0  0  0  0
  148.1290  135.2871  154.6882 C   0  0  0  0  0  0  0  0  0  0  0  0
  147.5761  134.0096  154.0483 C   0  0  0  0  0  0  0  0  0  0  0  0
  146.8808  134.5124  152.8578 N   0  3  1  0  0  0  0  0  0  0  0  0
  146.0045  133.5887  152.1098 C   0  0  0  0  0  0  0  0  0  0  0  0
  145.5459  134.2927  150.8146 C   0  0  0  0  0  0  0  0  0  0  0  0
  144.9246  135.6811  151.0904 C   0  0  0  0  0  0  0  0  0  0  0  0
  145.8328  136.5505  151.9873 C   0  0  0  0  0  0  0  0  0  0  0  0
  146.1951  135.7546  153.2543 C   0  0  2  0  0  0  0  0  0  0  0  0
  148.8092  139.7536  153.2017 H   0  0  0  0  0  0  0  0  0  0  0  0
  147.6391  140.8349  153.9386 H   0  0  0  0  0  0  0  0  0  0  0  0
  148.1776  141.3983  156.6450 H   0  0  0  0  0  0  0  0  0  0  0  0
  150.6355  141.8586  157.7362 H   0  0  0  0  0  0  0  0  0  0  0  0
  152.3610  140.7293  155.8847 H   0  0  0  0  0  0  0  0  0  0  0  0
  148.2976  137.6536  153.1842 H   0  0  0  0  0  0  0  0  0  0  0  0
  146.4708  136.5195  155.2493 H   0  0  0  0  0  0  0  0  0  0  0  0
  149.0885  135.5324  154.2293 H   0  0  0  0  0  0  0  0  0  0  0  0
  148.2971  135.1766  155.7601 H   0  0  0  0  0  0  0  0  0  0  0  0
  148.3577  133.2930  153.7942 H   0  0  0  0  0  0  0  0  0  0  0  0
  146.8624  133.5235  154.7155 H   0  0  0  0  0  0  0  0  0  0  0  0
  146.5506  132.6760  151.8689 H   0  0  0  0  0  0  0  0  0  0  0  0
  145.1487  133.3024  152.7229 H   0  0  0  0  0  0  0  0  0  0  0  0
  146.4039  134.4134  150.1517 H   0  0  0  0  0  0  0  0  0  0  0  0
  144.8331  133.6639  150.2802 H   0  0  0  0  0  0  0  0  0  0  0  0
  144.7243  136.1953  150.1502 H   0  0  0  0  0  0  0  0  0  0  0  0
  143.9582  135.5491  151.5789 H   0  0  0  0  0  0  0  0  0  0  0  0
  146.7349  136.8343  151.4437 H   0  0  0  0  0  0  0  0  0  0  0  0
  145.3141  137.4732  152.2492 H   0  0  0  0  0  0  0  0  0  0  0  0
  145.2612  135.4692  153.7436 H   0  0  0  0  0  0  0  0  0  0  0  0
  147.6120  134.7909  152.2192 H   0  0  0  0  0  0  0  0  0  0  0  0
  1  2  2  0  0  0  0
  2  3  1  0  0  0  0
  2  9  1  0  0  0  0
  3  4  1  0  0  0  0
  3 19  1  0  0  0  0
  3 20  1  0  0  0  0
  4  8  1  0  0  0  0
  4  5  1  0  0  0  0
  5  6  2  0  0  0  0
  5 21  1  0  0  0  0
  6  7  1  0  0  0  0
  6 22  1  0  0  0  0
  7  8  2  0  0  0  0
  7 23  1  0  0  0  0
  9 10  1  0  0  0  0
  9 24  1  0  0  0  0
 10 18  1  0  0  0  0
 10 11  1  0  0  0  0
 10 25  1  0  0  0  0
 11 12  1  0  0  0  0
 11 26  1  0  0  0  0
 11 27  1  0  0  0  0
 12 13  1  0  0  0  0
 12 28  1  0  0  0  0
 12 29  1  0  0  0  0
 13 18  1  0  0  0  0
 13 14  1  0  0  0  0
 13 39  1  0  0  0  0
 14 15  1  0  0  0  0
 14 30  1  0  0  0  0
 14 31  1  0  0  0  0
 15 16  1  0  0  0  0
 15 32  1  0  0  0  0
 15 33  1  0  0  0  0
 16 17  1  0  0  0  0
 16 34  1  0  0  0  0
 16 35  1  0  0  0  0
 17 18  1  0  0  0  0
 17 36  1  0  0  0  0
 17 37  1  0  0  0  0
 18 38  1  0  0  0  0
M  CHG  1  13   1
M  END
> <s_m_source_file>
AV-unprocessed.smi

> <i_m_source_file_index>
2171

> <i_lp_mmshare_version>
43012

> <i_f3d_flags>
0

> <s_epik_input>
bjFbY0hdW2NIXVtjSF1uMVtDSDJdQyg9TylbTkhdW0NASF0oW0NIMl1bQ0gyXTIpW0NAQEhdKE4yMylbQ0gyXVtDSDJdW0NIMl1bQ0gyXTM=

> <s_epik_cmdline>
J2VwaWtfcHl0aG9uJywgJy1waCcsICc3LjAnLCAnLXRuJywgJzgnLCAnLW1hJywgJzIwMCcsICctbWV0YWxfYmluZGluZycsICctaW1hZScsICc8aW5maWxlLm1hZT4nLCAnLW9tYWUnLCAnPG91dGZpbGUubWFlPic=

> <r_lp_tautomer_probability>
1

> <r_epik_Ionization_Penalty>
0.00204179

> <r_epik_Ionization_Penalty_Charging>
0.00203239

> <r_epik_Ionization_Penalty_Neutral>
9.40205e-06

> <r_epik_State_Penalty>
0.00138983

> <r_epik_Charging_Adjusted_Penalty>
0.00342221

> <i_epik_Tot_Q>
1

> <i_epik_Tot_abs_Q>
1

> <r_epik_Metal_State_Penalty>
-0

> <b_epik_Metal_Only>
0

> <s_lp_Force_Field>
OPLS_2005

> <r_lp_Energy>
41.8247

> <b_lp_Chiralities_Consistent>
1

> <s_lp_Variant>
AV-unprocessed.smi:2171-5

> <Gold.Version>
5.8.1

> <Gold.Id.Protein>
6NUR|6NUR_protein|mol2

> <Gold.PLP.Fitness>
34.6313

> <Gold.PLP.PLP>
-24.2417

> <Gold.PLP.part.hbond>
-3.0000

> <Gold.PLP.part.metal>
0.0000

> <Gold.PLP.part.buried>
0.4633

> <Gold.PLP.part.nonpolar>
-20.3365

> <Gold.PLP.part.repulsive>
0.0771

> <Gold.PLP.ligand.clash>
0.0000

> <Gold.PLP.ligand.torsion>
0.1844

> <Gold.PLP.Chemscore.Hbond>
3.5853

> <Gold.PLP.Chemscore.CHOScore>
0.0000

> <Gold.PLP.Chemscore.Metal>
0.0000

> <Gold.Chemscore.Hbonds>
donor molecule, donor type, donor heavy atom, donor atom, acceptor molecule, acceptor atom, score
      L1  H     9    24       P1  7948  0.70
      L1  H    13    39       P1  7948  1.79
      P1  H  7989  7998       L1     8  1.00

> <Gold.PLP.Chemscore.Internal.Correction>
0.0025

> <Gold.Rescore>
     Score         DG    S(hbond)    S(metal)    S(lipo)     H(rot)  DE(clash)    DE(int)     intcor
     15.59     -15.67       2.24        0.00      54.80       1.44       0.06       0.03       ----

> <Gold.Chemscore.Fitness>
15.5850

> <Gold.Chemscore.DG>
-15.6726

> <Gold.Chemscore.ZeroCoef>
-5.4800

> <Gold.Chemscore.Hbond>
2.2365

> <Gold.Chemscore.Metal>
0.0000

> <Gold.Chemscore.Lipo>
54.8008

> <Gold.Chemscore.Internal_Hbond>
0.0000

> <Gold.Chemscore.DEClash>
0.0579

> <Gold.Chemscore.DEInternal>
0.0297

> <Gold.Chemscore.Rot>
1.4410

> <Gold.Chemscore.Internal.Correction>
   9.000000E+99

> <Gold.Chemscore.Hbonds>
donor molecule, donor type, donor heavy atom, donor atom, acceptor molecule, acceptor atom, score
      L1  H     9    24       P1  7948  0.66
      L1  H    13    39       P1  7948  0.71
      P1  H  7989  7998       L1     8  0.25

> <Gold.Chemscore.Hbond.Weighted>
-7.4699

> <Gold.Chemscore.Metal.Weighted>
-0.0000

> <Gold.Chemscore.Lipo.Weighted>
-6.4117

> <Gold.Chemscore.Internal_Hbond.Weighted>
0.0000

> <Gold.Chemscore.DEClash.Weighted>
0.0579

> <Gold.Chemscore.DEInternal.Weighted>
0.0297

> <Gold.Chemscore.Rot.Weighted>
3.6889

> <Gold.Chemscore.Internal.Correction.Weighted>
   9.000000E+99

> <Gold.Protein.RotatedTorsions>
[ 6907 6896 6895 6894 ] final -109.10 input  -60.11 | X-H torsion
[ 7974 7965 7964 7962 ] final  -51.84 input  175.53 | X-H torsion
[ 8008 7997 7996 7995 ] final   44.15 input   59.86 | X-H torsion
[ 10167 10162 10161 10158 ] final  -78.66 input  -65.29 | X-H torsion
[ 10718 10713 10712 10709 ] final   17.08 input   66.30 | X-H torsion
[ 10763 10752 10751 10750 ] final  -32.45 input  -60.55 | X-H torsion
[ 11005 11000 10999 10996 ] final  -84.91 input  -57.11 | X-H torsion

> <Gold.Protein.ActiveResidues>
 VAL166  LYS551  ARG553  GLY616  TRP617  ASP618  TYR619  PRO620  LYS621  CYS622 
 ASP623  PHE694  ASN695  SER759  ASP760  ASP761  ALA762  ILE779  LEU786  VAL792 
 PHE793  MET794  SER795  GLU796  ALA797  LYS798  CYS799  TRP800  GLU811  SER814 

> <Gold.Protein.RotatedAtoms>
  150.7541  133.9579  159.3505 H   0  0  0  0  0  0  0  0  0  0  0  0  # atno 6907 bound_to 6896
  151.7502  135.0832  160.0339 H   0  0  0  0  0  0  0  0  0  0  0  0  # atno 6908 bound_to 6896
  152.3471  133.6098  159.5954 H   0  0  0  0  0  0  0  0  0  0  0  0  # atno 6909 bound_to 6896
  145.9146  140.7886  142.9678 H   0  0  0  0  0  0  0  0  0  0  0  0  # atno 7974 bound_to 7965
  155.3146  140.3393  155.4243 H   0  0  0  0  0  0  0  0  0  0  0  0  # atno 8008 bound_to 7997
  156.1939  140.1707  156.8075 H   0  0  0  0  0  0  0  0  0  0  0  0  # atno 8009 bound_to 7997
  154.5475  140.0712  156.8596 H   0  0  0  0  0  0  0  0  0  0  0  0  # atno 8010 bound_to 7997
  140.4663  143.2439  151.8273 H   0  0  0  0  0  0  0  0  0  0  0  0  # atno 10167 bound_to 10162
  157.0771  130.6372  149.5818 H   0  0  0  0  0  0  0  0  0  0  0  0  # atno 10718 bound_to 10713
  153.8140  135.6880  153.4836 H   0  0  0  0  0  0  0  0  0  0  0  0  # atno 10763 bound_to 10752
  153.1610  135.4580  154.9770 H   0  0  0  0  0  0  0  0  0  0  0  0  # atno 10764 bound_to 10752
  154.7955  135.3317  154.7618 H   0  0  0  0  0  0  0  0  0  0  0  0  # atno 10765 bound_to 10752
  141.1646  133.7371  156.8937 H   0  0  0  0  0  0  0  0  0  0  0  0  # atno 11005 bound_to 11000
  144.6746  140.1879  143.7399 LP  0  0  0  0  0  0  0  0  0  0  0  0  # atno 17320 bound_to 7965
  145.8628  139.2231  143.1706 LP  0  0  0  0  0  0  0  0  0  0  0  0  # atno 17321 bound_to 7965
  139.4812  144.4947  151.9139 LP  0  0  0  0  0  0  0  0  0  0  0  0  # atno 17342 bound_to 10162
  140.4032  144.2465  150.5892 LP  0  0  0  0  0  0  0  0  0  0  0  0  # atno 17343 bound_to 10162
  155.9934  130.4995  150.7379 LP  0  0  0  0  0  0  0  0  0  0  0  0  # atno 17370 bound_to 10713
  157.4831  131.0904  151.0514 LP  0  0  0  0  0  0  0  0  0  0  0  0  # atno 17371 bound_to 10713
  140.1630  134.9152  157.2739 LP  0  0  0  0  0  0  0  0  0  0  0  0  # atno 17394 bound_to 11000
  140.2589  134.3595  155.7414 LP  0  0  0  0  0  0  0  0  0  0  0  0  # atno 17395 bound_to 11000

$$$$
