AV-unprocessed.smi:1267|AV-procd|sdf|5322|dock9
  -GOLD-   22720 4443D 1   1.00000     0.00000
 Structure written by MMmdl.
 37 38  0  0  0  0  0  0  0  0  1 V2000
  150.5700  138.6651  154.5577 C   0  0  0  0  0  0  0  0  0  0  0  0
  150.1576  137.0884  155.4110 S   0  0  0  0  0  0  0  0  0  0  0  0
  148.6958  137.0142  155.5556 O   0  0  0  0  0  0  0  0  0  0  0  0
  150.8792  135.9992  154.7351 O   0  0  0  0  0  0  0  0  0  0  0  0
  150.8412  137.2732  157.0009 N   0  0  0  0  0  0  0  0  0  0  0  0
  152.3073  137.2799  157.1774 C   0  0  0  0  0  0  0  0  0  0  0  0
  152.8525  138.7079  157.3559 C   0  0  0  0  0  0  0  0  0  0  0  0
  152.1334  139.4465  158.4939 C   0  0  0  0  0  0  0  0  0  0  0  0
  152.6368  140.8130  158.5887 N   0  0  0  0  0  0  0  0  0  0  0  0
  153.2738  141.3348  159.6486 C   0  0  0  0  0  0  0  0  0  0  0  0
  153.4959  140.7089  160.6850 O   0  0  0  0  0  0  0  0  0  0  0  0
  153.7323  142.7873  159.5185 C   0  0  0  0  0  0  0  0  0  0  0  0
  152.6004  143.6755  159.3265 N   0  0  0  0  0  0  0  0  0  0  0  0
  152.1761  144.7088  160.1357 C   0  0  0  0  0  0  0  0  0  0  0  0
  151.0771  145.2630  159.5446 C   0  0  0  0  0  0  0  0  0  0  0  0
  150.9045  144.4915  158.3615 C   0  0  0  0  0  0  0  0  0  0  0  0
  151.8172  143.5420  158.2332 N   0  0  0  0  0  0  0  0  0  0  0  0
  150.6180  139.4343  158.2291 C   0  0  0  0  0  0  0  0  0  0  0  0
  150.0925  138.0000  158.0457 C   0  0  0  0  0  0  0  0  0  0  0  0
  150.1745  138.6333  153.5429 H   0  0  0  0  0  0  0  0  0  0  0  0
  151.6501  138.7911  154.5114 H   0  0  0  0  0  0  0  0  0  0  0  0
  150.1181  139.5026  155.0859 H   0  0  0  0  0  0  0  0  0  0  0  0
  152.5500  136.6851  158.0586 H   0  0  0  0  0  0  0  0  0  0  0  0
  152.7937  136.7910  156.3337 H   0  0  0  0  0  0  0  0  0  0  0  0
  153.9231  138.6640  157.5596 H   0  0  0  0  0  0  0  0  0  0  0  0
  152.7442  139.2648  156.4258 H   0  0  0  0  0  0  0  0  0  0  0  0
  152.3398  138.9247  159.4305 H   0  0  0  0  0  0  0  0  0  0  0  0
  152.5069  141.4037  157.7800 H   0  0  0  0  0  0  0  0  0  0  0  0
  154.2884  143.0910  160.4070 H   0  0  0  0  0  0  0  0  0  0  0  0
  154.4072  142.8893  158.6675 H   0  0  0  0  0  0  0  0  0  0  0  0
  152.6871  144.9604  161.0534 H   0  0  0  0  0  0  0  0  0  0  0  0
  150.4871  146.0934  159.9023 H   0  0  0  0  0  0  0  0  0  0  0  0
  150.1478  144.5930  157.5974 H   0  0  0  0  0  0  0  0  0  0  0  0
  150.0877  139.9067  159.0566 H   0  0  0  0  0  0  0  0  0  0  0  0
  150.3913  140.0297  157.3453 H   0  0  0  0  0  0  0  0  0  0  0  0
  149.0283  138.0131  157.8124 H   0  0  0  0  0  0  0  0  0  0  0  0
  150.1941  137.4534  158.9840 H   0  0  0  0  0  0  0  0  0  0  0  0
  1  2  1  0  0  0  0
  1 20  1  0  0  0  0
  1 21  1  0  0  0  0
  1 22  1  0  0  0  0
  2  3  2  0  0  0  0
  2  4  2  0  0  0  0
  2  5  1  0  0  0  0
  5 19  1  0  0  0  0
  5  6  1  0  0  0  0
  6  7  1  0  0  0  0
  6 23  1  0  0  0  0
  6 24  1  0  0  0  0
  7  8  1  0  0  0  0
  7 25  1  0  0  0  0
  7 26  1  0  0  0  0
  8  9  1  0  0  0  0
  8 18  1  0  0  0  0
  8 27  1  0  0  0  0
  9 10  1  0  0  0  0
  9 28  1  0  0  0  0
 10 11  2  0  0  0  0
 10 12  1  0  0  0  0
 12 13  1  0  0  0  0
 12 29  1  0  0  0  0
 12 30  1  0  0  0  0
 13 17  1  0  0  0  0
 13 14  1  0  0  0  0
 14 15  2  0  0  0  0
 14 31  1  0  0  0  0
 15 16  1  0  0  0  0
 15 32  1  0  0  0  0
 16 17  2  0  0  0  0
 16 33  1  0  0  0  0
 18 19  1  0  0  0  0
 18 34  1  0  0  0  0
 18 35  1  0  0  0  0
 19 36  1  0  0  0  0
 19 37  1  0  0  0  0
M  END
> <s_m_source_file>
AV-unprocessed.smi

> <i_m_source_file_index>
1267

> <i_lp_mmshare_version>
43012

> <i_f3d_flags>
0

> <s_epik_input>
W0NIM11TKD1PKSg9TylOMVtDSDJdW0NIMl1bQ0hdKFtDSDJdW0NIMl0xKVtOSF1DKD1PKVtDSDJdbjJbY0hdW2NIXVtjSF1uMg==

> <s_epik_cmdline>
J2VwaWtfcHl0aG9uJywgJy1waCcsICc3LjAnLCAnLXRuJywgJzgnLCAnLW1hJywgJzIwMCcsICctbWV0YWxfYmluZGluZycsICctaW1hZScsICc8aW5maWxlLm1hZT4nLCAnLW9tYWUnLCAnPG91dGZpbGUubWFlPic=

> <r_lp_tautomer_probability>
1

> <r_epik_Ionization_Penalty>
1.58465e-05

> <r_epik_Ionization_Penalty_Charging>
0

> <r_epik_Ionization_Penalty_Neutral>
1.58465e-05

> <r_epik_State_Penalty>
-0

> <r_epik_Charging_Adjusted_Penalty>
0

> <i_epik_Tot_Q>
0

> <i_epik_Tot_abs_Q>
0

> <r_epik_Metal_State_Penalty>
-0

> <b_epik_Metal_Only>
0

> <s_lp_Force_Field>
OPLS_2005

> <r_lp_Energy>
-1.31745

> <b_lp_Chiralities_Consistent>
1

> <s_lp_Variant>
AV-unprocessed.smi:1267-1

> <Gold.Version>
5.8.1

> <Gold.Id.Protein>
6NUR|6NUR_protein|mol2

> <Gold.PLP.Fitness>
38.7061

> <Gold.PLP.PLP>
-32.6245

> <Gold.PLP.part.hbond>
-1.0000

> <Gold.PLP.part.metal>
0.0000

> <Gold.PLP.part.buried>
-5.8092

> <Gold.PLP.part.nonpolar>
-26.5633

> <Gold.PLP.part.repulsive>
0.4205

> <Gold.PLP.ligand.clash>
0.0000

> <Gold.PLP.ligand.torsion>
1.0396

> <Gold.PLP.Chemscore.Hbond>
1.0000

> <Gold.PLP.Chemscore.CHOScore>
1.0358

> <Gold.PLP.Chemscore.Metal>
0.0000

> <Gold.Chemscore.Hbonds>
donor molecule, donor type, donor heavy atom, donor atom, acceptor molecule, acceptor atom, score
      P1  H 10752 10763       L1     4  0.86
      L1  C    16    33       P1  8028  0.93
      L1  C    16    33       P1  8029  0.10

> <Gold.PLP.Chemscore.Internal.Correction>
2.0533

> <Gold.Rescore>
     Score         DG    S(hbond)    S(metal)    S(lipo)     H(rot)  DE(clash)    DE(int)     intcor
     11.34     -13.69       1.00        0.00      75.19       1.53       0.02       2.34       ----

> <Gold.Chemscore.Fitness>
11.3361

> <Gold.Chemscore.DG>
-13.6916

> <Gold.Chemscore.ZeroCoef>
-5.4800

> <Gold.Chemscore.Hbond>
0.9992

> <Gold.Chemscore.Metal>
0.0000

> <Gold.Chemscore.Lipo>
75.1911

> <Gold.Chemscore.Internal_Hbond>
0.0000

> <Gold.Chemscore.DEClash>
0.0191

> <Gold.Chemscore.DEInternal>
2.3365

> <Gold.Chemscore.Rot>
1.5324

> <Gold.Chemscore.Internal.Correction>
   9.000000E+99

> <Gold.Chemscore.Hbonds>
donor molecule, donor type, donor heavy atom, donor atom, acceptor molecule, acceptor atom, score
      P1  H 10752 10763       L1     4  0.84

> <Gold.Chemscore.Hbond.Weighted>
-3.3372

> <Gold.Chemscore.Metal.Weighted>
-0.0000

> <Gold.Chemscore.Lipo.Weighted>
-8.7974

> <Gold.Chemscore.Internal_Hbond.Weighted>
0.0000

> <Gold.Chemscore.DEClash.Weighted>
0.0191

> <Gold.Chemscore.DEInternal.Weighted>
2.3365

> <Gold.Chemscore.Rot.Weighted>
3.9229

> <Gold.Chemscore.Internal.Correction.Weighted>
   9.000000E+99

> <Gold.Protein.RotatedTorsions>
[ 6907 6896 6895 6894 ] final  -82.14 input  -60.11 | X-H torsion
[ 7974 7965 7964 7962 ] final -169.81 input  175.53 | X-H torsion
[ 8008 7997 7996 7995 ] final  178.99 input   59.86 | X-H torsion
[ 10167 10162 10161 10158 ] final  -74.46 input  -65.29 | X-H torsion
[ 10718 10713 10712 10709 ] final   18.12 input   66.30 | X-H torsion
[ 10763 10752 10751 10750 ] final   54.44 input  -60.55 | X-H torsion
[ 11005 11000 10999 10996 ] final  153.03 input  -57.11 | X-H torsion

> <Gold.Protein.ActiveResidues>
 VAL166  LYS551  ARG553  GLY616  TRP617  ASP618  TYR619  PRO620  LYS621  CYS622 
 ASP623  PHE694  ASN695  SER759  ASP760  ASP761  ALA762  ILE779  LEU786  VAL792 
 PHE793  MET794  SER795  GLU796  ALA797  LYS798  CYS799  TRP800  GLU811  SER814 

> <Gold.Protein.RotatedAtoms>
  150.6901  134.3710  159.4991 H   0  0  0  0  0  0  0  0  0  0  0  0  # atno 6907 bound_to 6896
  152.1526  134.8974  160.0556 H   0  0  0  0  0  0  0  0  0  0  0  0  # atno 6908 bound_to 6896
  152.0066  133.3810  159.4240 H   0  0  0  0  0  0  0  0  0  0  0  0  # atno 6909 bound_to 6896
  144.7179  140.2165  143.6321 H   0  0  0  0  0  0  0  0  0  0  0  0  # atno 7974 bound_to 7965
  156.0485  140.1320  157.0077 H   0  0  0  0  0  0  0  0  0  0  0  0  # atno 8008 bound_to 7997
  154.4423  140.1016  156.6411 H   0  0  0  0  0  0  0  0  0  0  0  0  # atno 8009 bound_to 7997
  155.5560  140.3464  155.4482 H   0  0  0  0  0  0  0  0  0  0  0  0  # atno 8010 bound_to 7997
  140.5025  143.2358  151.7729 H   0  0  0  0  0  0  0  0  0  0  0  0  # atno 10167 bound_to 10162
  157.0919  130.6431  149.5851 H   0  0  0  0  0  0  0  0  0  0  0  0  # atno 10718 bound_to 10713
  152.9805  135.5745  154.4904 H   0  0  0  0  0  0  0  0  0  0  0  0  # atno 10763 bound_to 10752
  154.4439  135.2776  155.1830 H   0  0  0  0  0  0  0  0  0  0  0  0  # atno 10764 bound_to 10752
  154.3487  135.6214  153.5685 H   0  0  0  0  0  0  0  0  0  0  0  0  # atno 10765 bound_to 10752
  140.1361  134.8770  157.2268 H   0  0  0  0  0  0  0  0  0  0  0  0  # atno 11005 bound_to 11000
  145.8541  139.2190  143.1754 LP  0  0  0  0  0  0  0  0  0  0  0  0  # atno 17320 bound_to 7965
  146.0233  140.8327  142.9912 LP  0  0  0  0  0  0  0  0  0  0  0  0  # atno 17321 bound_to 7965
  139.4875  144.4503  151.9662 LP  0  0  0  0  0  0  0  0  0  0  0  0  # atno 17342 bound_to 10162
  140.3592  144.2994  150.5936 LP  0  0  0  0  0  0  0  0  0  0  0  0  # atno 17343 bound_to 10162
  155.9896  130.4944  150.7220 LP  0  0  0  0  0  0  0  0  0  0  0  0  # atno 17370 bound_to 10713
  157.4714  131.0893  151.0638 LP  0  0  0  0  0  0  0  0  0  0  0  0  # atno 17371 bound_to 10713
  140.2781  134.3382  155.7352 LP  0  0  0  0  0  0  0  0  0  0  0  0  # atno 17394 bound_to 11000
  141.2178  133.7462  156.9323 LP  0  0  0  0  0  0  0  0  0  0  0  0  # atno 17395 bound_to 11000

$$$$
