AV-unprocessed.smi:243|AV-procd|sdf|1857|dock2
  -GOLD-   2262020483D 1   1.00000     0.00000
 Structure written by MMmdl.
 58 61  0  0  0  0  0  0  0  0  2 V2000
  147.1500  127.6310  152.1070 C   0  0  0  0  0  0  0  0  0  0  0  0
  146.4165  128.8962  152.5736 C   0  0  0  0  0  0  0  0  0  0  0  0
  147.1647  130.1423  152.2560 N   0  3  1  0  0  0  0  0  0  0  0  0
  146.3267  131.3662  152.3207 C   0  0  0  0  0  0  0  0  0  0  0  0
  146.0061  131.7590  153.7721 C   0  0  0  0  0  0  0  0  0  0  0  0
  147.2991  131.9369  154.5998 C   0  0  1  0  0  0  0  0  0  0  0  0
  147.0361  132.3775  155.9787 N   0  0  0  0  0  0  0  0  0  0  0  0
  146.3551  131.4508  156.8769 C   0  0  0  0  0  0  0  0  0  0  0  0
  147.8074  133.3012  156.6125 C   0  0  0  0  0  0  0  0  0  0  0  0
  147.6248  133.5578  157.9344 N   0  0  0  0  0  0  0  0  0  0  0  0
  148.3721  134.4731  158.5576 C   0  0  0  0  0  0  0  0  0  0  0  0
  149.3447  135.2358  158.0569 N   0  0  0  0  0  0  0  0  0  0  0  0
  149.5373  134.9842  156.7306 C   0  0  0  0  0  0  0  0  0  0  0  0
  148.8155  134.0473  155.9378 C   0  0  0  0  0  0  0  0  0  0  0  0
  149.2922  134.0687  154.6324 N   0  0  0  0  0  0  0  0  0  0  0  0
  150.2361  134.9693  154.6514 C   0  0  0  0  0  0  0  0  0  0  0  0
  150.4586  135.5615  155.8741 N   0  0  0  0  0  0  0  0  0  0  0  0
  151.4479  136.5845  156.1784 C   0  0  0  0  0  0  0  0  0  0  0  0
  151.4766  137.7413  155.1512 C   0  0  1  0  0  0  0  0  0  0  0  0
  152.0437  137.2673  153.9415 O   0  0  0  0  0  0  0  0  0  0  0  0
  150.0930  138.2987  154.8437 C   0  0  0  0  0  0  0  0  0  0  0  0
  150.3920  139.7407  154.4557 C   0  0  0  0  0  0  0  0  0  0  0  0
  151.4096  140.1126  155.3701 O   0  0  0  0  0  0  0  0  0  0  0  0
  152.2595  138.9923  155.6020 C   0  0  0  0  0  0  0  0  0  0  0  0
  148.2221  130.6914  154.4871 C   0  0  2  0  0  0  0  0  0  0  0  0
  149.5794  130.9157  155.1769 C   0  0  0  0  0  0  0  0  0  0  0  0
  148.4399  130.3203  153.0021 C   0  0  0  0  0  0  0  0  0  0  0  0
  146.5235  126.7508  152.2533 H   0  0  0  0  0  0  0  0  0  0  0  0
  148.0723  127.4638  152.6626 H   0  0  0  0  0  0  0  0  0  0  0  0
  147.3978  127.6860  151.0465 H   0  0  0  0  0  0  0  0  0  0  0  0
  145.4540  128.9263  152.0616 H   0  0  0  0  0  0  0  0  0  0  0  0
  146.1905  128.8329  153.6378 H   0  0  0  0  0  0  0  0  0  0  0  0
  146.8643  132.1807  151.8332 H   0  0  0  0  0  0  0  0  0  0  0  0
  145.4078  131.2261  151.7504 H   0  0  0  0  0  0  0  0  0  0  0  0
  145.4305  132.6849  153.7720 H   0  0  0  0  0  0  0  0  0  0  0  0
  145.3565  131.0034  154.2109 H   0  0  0  0  0  0  0  0  0  0  0  0
  147.8477  132.7594  154.1379 H   0  0  0  0  0  0  0  0  0  0  0  0
  146.9699  131.2194  157.7478 H   0  0  0  0  0  0  0  0  0  0  0  0
  146.1233  130.5111  156.3753 H   0  0  0  0  0  0  0  0  0  0  0  0
  145.4145  131.8796  157.2228 H   0  0  0  0  0  0  0  0  0  0  0  0
  148.1600  134.6152  159.6069 H   0  0  0  0  0  0  0  0  0  0  0  0
  150.8060  135.2230  153.7691 H   0  0  0  0  0  0  0  0  0  0  0  0
  151.2430  136.9718  157.1775 H   0  0  0  0  0  0  0  0  0  0  0  0
  152.4269  136.1066  156.2326 H   0  0  0  0  0  0  0  0  0  0  0  0
  151.3414  137.0551  153.3455 H   0  0  0  0  0  0  0  0  0  0  0  0
  149.5576  137.7471  154.0698 H   0  0  0  0  0  0  0  0  0  0  0  0
  149.4748  138.2947  155.7426 H   0  0  0  0  0  0  0  0  0  0  0  0
  150.7756  139.8016  153.4361 H   0  0  0  0  0  0  0  0  0  0  0  0
  149.5203  140.3904  154.5367 H   0  0  0  0  0  0  0  0  0  0  0  0
  152.4953  138.9703  156.6651 H   0  0  0  0  0  0  0  0  0  0  0  0
  153.2001  139.1106  155.0620 H   0  0  0  0  0  0  0  0  0  0  0  0
  147.7567  129.8352  154.9717 H   0  0  0  0  0  0  0  0  0  0  0  0
  150.1043  131.7719  154.7523 H   0  0  0  0  0  0  0  0  0  0  0  0
  150.2239  130.0431  155.0675 H   0  0  0  0  0  0  0  0  0  0  0  0
  149.4620  131.0957  156.2457 H   0  0  0  0  0  0  0  0  0  0  0  0
  149.0578  129.4269  152.9186 H   0  0  0  0  0  0  0  0  0  0  0  0
  149.0048  131.1146  152.5115 H   0  0  0  0  0  0  0  0  0  0  0  0
  147.4229  130.0478  151.2838 H   0  0  0  0  0  0  0  0  0  0  0  0
  1  2  1  0  0  0  0
  1 28  1  0  0  0  0
  1 29  1  0  0  0  0
  1 30  1  0  0  0  0
  2  3  1  0  0  0  0
  2 31  1  0  0  0  0
  2 32  1  0  0  0  0
  3 27  1  0  0  0  0
  3  4  1  0  0  0  0
  3 58  1  0  0  0  0
  4  5  1  0  0  0  0
  4 33  1  0  0  0  0
  4 34  1  0  0  0  0
  5  6  1  0  0  0  0
  5 35  1  0  0  0  0
  5 36  1  0  0  0  0
  6  7  1  0  0  0  0
  6 25  1  0  0  0  0
  6 37  1  0  0  0  0
  7  8  1  0  0  0  0
  7  9  1  0  0  0  0
  8 38  1  0  0  0  0
  8 39  1  0  0  0  0
  8 40  1  0  0  0  0
  9 14  1  0  0  0  0
  9 10  2  0  0  0  0
 10 11  1  0  0  0  0
 11 12  2  0  0  0  0
 11 41  1  0  0  0  0
 12 13  1  0  0  0  0
 13 17  1  0  0  0  0
 13 14  2  0  0  0  0
 14 15  1  0  0  0  0
 15 16  2  0  0  0  0
 16 17  1  0  0  0  0
 16 42  1  0  0  0  0
 17 18  1  0  0  0  0
 18 19  1  0  0  0  0
 18 43  1  0  0  0  0
 18 44  1  0  0  0  0
 19 24  1  0  0  0  0
 19 20  1  0  0  0  0
 19 21  1  0  0  0  0
 20 45  1  0  0  0  0
 21 22  1  0  0  0  0
 21 46  1  0  0  0  0
 21 47  1  0  0  0  0
 22 23  1  0  0  0  0
 22 48  1  0  0  0  0
 22 49  1  0  0  0  0
 23 24  1  0  0  0  0
 24 50  1  0  0  0  0
 24 51  1  0  0  0  0
 25 26  1  0  0  0  0
 25 27  1  0  0  0  0
 25 52  1  0  0  0  0
 26 53  1  0  0  0  0
 26 54  1  0  0  0  0
 26 55  1  0  0  0  0
 27 56  1  0  0  0  0
 27 57  1  0  0  0  0
M  CHG  1   3   1
M  END
> <s_m_source_file>
AV-unprocessed.smi

> <i_m_source_file_index>
243

> <i_lp_mmshare_version>
43012

> <i_f3d_flags>
0

> <s_epik_input>
W0NIM11bQ0gyXU4xW0NIMl1bQ0gyXVtDQEhdKFtDQEBIXShbQ0gzXSlbQ0gyXTEpTihbQ0gzXSljKG5bY0hdbjIpYyhjMjMpbltjSF1uM1tDSDJdW0NAQF00KFtPSF0pW0NIMl1bQ0gyXU9bQ0gyXTQ=

> <s_epik_cmdline>
J2VwaWtfcHl0aG9uJywgJy1waCcsICc3LjAnLCAnLXRuJywgJzgnLCAnLW1hJywgJzIwMCcsICctbWV0YWxfYmluZGluZycsICctaW1hZScsICc8aW5maWxlLm1hZT4nLCAnLW9tYWUnLCAnPG91dGZpbGUubWFlPic=

> <r_lp_tautomer_probability>
1

> <r_epik_Ionization_Penalty>
0.00253099

> <r_epik_Ionization_Penalty_Charging>
0.00137877

> <r_epik_Ionization_Penalty_Neutral>
0.00115221

> <r_epik_State_Penalty>
-0

> <r_epik_Charging_Adjusted_Penalty>
0.00137877

> <i_epik_Tot_Q>
1

> <i_epik_Tot_abs_Q>
1

> <r_epik_Metal_State_Penalty>
-0

> <b_epik_Metal_Only>
0

> <s_lp_Force_Field>
OPLS_2005

> <r_lp_Energy>
46.501

> <b_lp_Chiralities_Consistent>
1

> <s_lp_Variant>
AV-unprocessed.smi:243-10

> <Gold.Version>
5.8.1

> <Gold.Id.Protein>
6NUR|6NUR_protein|mol2

> <Gold.PLP.Fitness>
42.7237

> <Gold.PLP.PLP>
-33.3048

> <Gold.PLP.part.hbond>
-5.0000

> <Gold.PLP.part.metal>
0.0000

> <Gold.PLP.part.buried>
-2.6322

> <Gold.PLP.part.nonpolar>
-26.3714

> <Gold.PLP.part.repulsive>
0.1549

> <Gold.PLP.ligand.clash>
0.0000

> <Gold.PLP.ligand.torsion>
0.7837

> <Gold.PLP.Chemscore.Hbond>
2.7309

> <Gold.PLP.Chemscore.CHOScore>
0.6367

> <Gold.PLP.Chemscore.Metal>
0.0000

> <Gold.Chemscore.Hbonds>
donor molecule, donor type, donor heavy atom, donor atom, acceptor molecule, acceptor atom, score
      L1  H     3    58       P1 10747  0.61
      L1  H    20    45       P1  7949  0.50
      P1  H  6896  6909       L1    12  0.43
      P1  H 10752 10765       L1    20  1.00
      L1  C    16    42       P1  7949  0.55

> <Gold.PLP.Chemscore.Internal.Correction>
0.8833

> <Gold.Rescore>
     Score         DG    S(hbond)    S(metal)    S(lipo)     H(rot)  DE(clash)    DE(int)     intcor
     10.82     -16.04       1.95        0.00      83.50       2.24       2.11       3.11       ----

> <Gold.Chemscore.Fitness>
10.8230

> <Gold.Chemscore.DG>
-16.0376

> <Gold.Chemscore.ZeroCoef>
-5.4800

> <Gold.Chemscore.Hbond>
1.9513

> <Gold.Chemscore.Metal>
0.0000

> <Gold.Chemscore.Lipo>
83.4991

> <Gold.Chemscore.Internal_Hbond>
0.0000

> <Gold.Chemscore.DEClash>
2.1062

> <Gold.Chemscore.DEInternal>
3.1084

> <Gold.Chemscore.Rot>
2.2379

> <Gold.Chemscore.Internal.Correction>
   9.000000E+99

> <Gold.Chemscore.Hbonds>
donor molecule, donor type, donor heavy atom, donor atom, acceptor molecule, acceptor atom, score
      L1  H     3    58       P1 10747  0.58
      L1  H    20    45       P1  7949  0.38
      P1  H  6896  6909       L1    12  0.02
      P1  H 10752 10765       L1    20  0.43

> <Gold.Chemscore.Hbond.Weighted>
-6.5173

> <Gold.Chemscore.Metal.Weighted>
-0.0000

> <Gold.Chemscore.Lipo.Weighted>
-9.7694

> <Gold.Chemscore.Internal_Hbond.Weighted>
0.0000

> <Gold.Chemscore.DEClash.Weighted>
2.1062

> <Gold.Chemscore.DEInternal.Weighted>
3.1084

> <Gold.Chemscore.Rot.Weighted>
5.7291

> <Gold.Chemscore.Internal.Correction.Weighted>
   9.000000E+99

> <Gold.Protein.RotatedTorsions>
[ 6907 6896 6895 6894 ] final   43.47 input  -60.11 | X-H torsion
[ 7974 7965 7964 7962 ] final -117.22 input  175.53 | X-H torsion
[ 8008 7997 7996 7995 ] final  157.37 input   59.86 | X-H torsion
[ 10167 10162 10161 10158 ] final  110.79 input  -65.29 | X-H torsion
[ 10718 10713 10712 10709 ] final  179.64 input   66.30 | X-H torsion
[ 10763 10752 10751 10750 ] final  149.70 input  -60.55 | X-H torsion
[ 11005 11000 10999 10996 ] final   12.14 input  -57.11 | X-H torsion

> <Gold.Protein.ActiveResidues>
 VAL166  LYS551  ARG553  GLY616  TRP617  ASP618  TYR619  PRO620  LYS621  CYS622 
 ASP623  PHE694  ASN695  SER759  ASP760  ASP761  ALA762  ILE779  LEU786  VAL792 
 PHE793  MET794  SER795  GLU796  ALA797  LYS798  CYS799  TRP800  GLU811  SER814 

> <Gold.Protein.RotatedAtoms>
  152.2207  134.8415  160.0486 H   0  0  0  0  0  0  0  0  0  0  0  0  # atno 6907 bound_to 6896
  151.9200  133.3578  159.3902 H   0  0  0  0  0  0  0  0  0  0  0  0  # atno 6908 bound_to 6896
  150.6999  134.4570  159.5407 H   0  0  0  0  0  0  0  0  0  0  0  0  # atno 6909 bound_to 6896
  145.0878  140.8469  143.4001 H   0  0  0  0  0  0  0  0  0  0  0  0  # atno 7974 bound_to 7965
  156.2368  140.1887  156.7098 H   0  0  0  0  0  0  0  0  0  0  0  0  # atno 8008 bound_to 7997
  154.6121  140.0620  156.9534 H   0  0  0  0  0  0  0  0  0  0  0  0  # atno 8009 bound_to 7997
  155.1999  140.3291  155.4347 H   0  0  0  0  0  0  0  0  0  0  0  0  # atno 8010 bound_to 7997
  139.6661  144.7127  151.1774 H   0  0  0  0  0  0  0  0  0  0  0  0  # atno 10167 bound_to 10162
  156.8727  130.9789  151.3071 H   0  0  0  0  0  0  0  0  0  0  0  0  # atno 10718 bound_to 10713
  154.0754  135.2863  155.3300 H   0  0  0  0  0  0  0  0  0  0  0  0  # atno 10763 bound_to 10752
  154.6719  135.5296  153.8152 H   0  0  0  0  0  0  0  0  0  0  0  0  # atno 10764 bound_to 10752
  153.0469  135.6560  154.0933 H   0  0  0  0  0  0  0  0  0  0  0  0  # atno 10765 bound_to 10752
  140.4953  134.0799  155.7781 H   0  0  0  0  0  0  0  0  0  0  0  0  # atno 11005 bound_to 11000
  145.1102  139.2762  143.5641 LP  0  0  0  0  0  0  0  0  0  0  0  0  # atno 17320 bound_to 7965
  146.3531  140.0696  142.8624 LP  0  0  0  0  0  0  0  0  0  0  0  0  # atno 17321 bound_to 7965
  140.7600  143.5917  150.8789 LP  0  0  0  0  0  0  0  0  0  0  0  0  # atno 17342 bound_to 10162
  139.9579  143.6198  152.3011 LP  0  0  0  0  0  0  0  0  0  0  0  0  # atno 17343 bound_to 10162
  157.6186  130.8638  149.9070 LP  0  0  0  0  0  0  0  0  0  0  0  0  # atno 17370 bound_to 10713
  156.0718  130.3684  150.0760 LP  0  0  0  0  0  0  0  0  0  0  0  0  # atno 17371 bound_to 10713
  141.1463  133.9049  157.2207 LP  0  0  0  0  0  0  0  0  0  0  0  0  # atno 17394 bound_to 11000
  139.9745  135.0118  156.9596 LP  0  0  0  0  0  0  0  0  0  0  0  0  # atno 17395 bound_to 11000

$$$$
