AV-unprocessed.smi:1947|AV-procd|sdf|7865|dock9
  -GOLD-   2272010 13D 1   1.00000     0.00000
 Structure written by MMmdl.
 39 40  0  0  0  0  0  0  0  0  1 V2000
  147.6475  142.0946  154.2464 C   0  0  0  0  0  0  0  0  0  0  0  0
  148.4152  140.8496  154.7227 C   0  0  2  0  0  0  0  0  0  0  0  0
  149.8559  141.2192  155.1294 C   0  0  0  0  0  0  0  0  0  0  0  0
  150.6489  139.9899  155.5992 C   0  0  0  0  0  0  0  0  0  0  0  0
  150.6561  138.8936  154.5244 C   0  0  0  0  0  0  0  0  0  0  0  0
  149.2252  138.5091  154.1200 C   0  0  0  0  0  0  0  0  0  0  0  0
  148.4207  139.7382  153.6493 C   0  0  1  0  0  0  0  0  0  0  0  0
  147.0709  139.3604  153.4129 O   0  0  0  0  0  0  0  0  0  0  0  0
  146.8134  138.8754  152.1034 C   0  0  0  0  0  0  0  0  0  0  0  0
  145.7838  137.7391  152.1951 C   0  0  0  0  0  0  0  0  0  0  0  0
  144.4410  138.2499  152.4519 N   0  0  0  0  0  0  0  0  0  0  0  0
  143.3830  137.5040  152.7983 C   0  0  0  0  0  0  0  0  0  0  0  0
  143.4430  136.2897  152.9912 O   0  0  0  0  0  0  0  0  0  0  0  0
  142.2730  138.2530  152.8947 N   0  0  0  0  0  0  0  0  0  0  0  0
  140.9556  137.8244  153.1936 C   0  0  0  0  0  0  0  0  0  0  0  0
  140.8065  136.7646  153.9969 N   0  0  0  0  0  0  0  0  0  0  0  0
  139.4680  136.4565  154.2092 N   0  0  0  0  0  0  0  0  0  0  0  0
  138.6594  137.2970  153.5565 C   0  0  0  0  0  0  0  0  0  0  0  0
  139.4518  138.5490  152.6168 S   0  0  0  0  0  0  0  0  0  0  0  0
  148.1002  142.5214  153.3508 H   0  0  0  0  0  0  0  0  0  0  0  0
  147.6384  142.8677  155.0152 H   0  0  0  0  0  0  0  0  0  0  0  0
  146.6095  141.8570  154.0115 H   0  0  0  0  0  0  0  0  0  0  0  0
  147.9063  140.4643  155.6078 H   0  0  0  0  0  0  0  0  0  0  0  0
  150.3700  141.6804  154.2847 H   0  0  0  0  0  0  0  0  0  0  0  0
  149.8387  141.9664  155.9238 H   0  0  0  0  0  0  0  0  0  0  0  0
  151.6717  140.2777  155.8433 H   0  0  0  0  0  0  0  0  0  0  0  0
  150.2094  139.5993  156.5179 H   0  0  0  0  0  0  0  0  0  0  0  0
  151.2034  139.2428  153.6477 H   0  0  0  0  0  0  0  0  0  0  0  0
  151.1876  138.0154  154.8922 H   0  0  0  0  0  0  0  0  0  0  0  0
  149.2628  137.7543  153.3347 H   0  0  0  0  0  0  0  0  0  0  0  0
  148.7209  138.0459  154.9692 H   0  0  0  0  0  0  0  0  0  0  0  0
  148.8692  140.1437  152.7402 H   0  0  0  0  0  0  0  0  0  0  0  0
  146.4322  139.6749  151.4664 H   0  0  0  0  0  0  0  0  0  0  0  0
  147.7327  138.5078  151.6473 H   0  0  0  0  0  0  0  0  0  0  0  0
  145.7883  137.1478  151.2782 H   0  0  0  0  0  0  0  0  0  0  0  0
  146.0527  137.0610  153.0052 H   0  0  0  0  0  0  0  0  0  0  0  0
  144.3010  139.2403  152.3150 H   0  0  0  0  0  0  0  0  0  0  0  0
  142.3779  139.2406  152.7148 H   0  0  0  0  0  0  0  0  0  0  0  0
  137.5884  137.1785  153.6293 H   0  0  0  0  0  0  0  0  0  0  0  0
  1  2  1  0  0  0  0
  1 20  1  0  0  0  0
  1 21  1  0  0  0  0
  1 22  1  0  0  0  0
  2  7  1  0  0  0  0
  2  3  1  0  0  0  0
  2 23  1  0  0  0  0
  3  4  1  0  0  0  0
  3 24  1  0  0  0  0
  3 25  1  0  0  0  0
  4  5  1  0  0  0  0
  4 26  1  0  0  0  0
  4 27  1  0  0  0  0
  5  6  1  0  0  0  0
  5 28  1  0  0  0  0
  5 29  1  0  0  0  0
  6  7  1  0  0  0  0
  6 30  1  0  0  0  0
  6 31  1  0  0  0  0
  7  8  1  0  0  0  0
  7 32  1  0  0  0  0
  8  9  1  0  0  0  0
  9 10  1  0  0  0  0
  9 33  1  0  0  0  0
  9 34  1  0  0  0  0
 10 11  1  0  0  0  0
 10 35  1  0  0  0  0
 10 36  1  0  0  0  0
 11 12  1  0  0  0  0
 11 37  1  0  0  0  0
 12 13  2  0  0  0  0
 12 14  1  0  0  0  0
 14 15  1  0  0  0  0
 14 38  1  0  0  0  0
 15 19  1  0  0  0  0
 15 16  2  0  0  0  0
 16 17  1  0  0  0  0
 17 18  2  0  0  0  0
 18 19  1  0  0  0  0
 18 39  1  0  0  0  0
M  END
> <s_m_source_file>
AV-unprocessed.smi

> <i_m_source_file_index>
1947

> <i_lp_mmshare_version>
43012

> <i_f3d_flags>
0

> <s_epik_input>
W0NIM11bQ0BASF0xW0NIMl1bQ0gyXVtDSDJdW0NIMl1bQ0BIXTFPW0NIMl1bQ0gyXVtOSF1DKD1PKVtOSF1jMm5uW2NIXXMy

> <s_epik_cmdline>
J2VwaWtfcHl0aG9uJywgJy1waCcsICc3LjAnLCAnLXRuJywgJzgnLCAnLW1hJywgJzIwMCcsICctbWV0YWxfYmluZGluZycsICctaW1hZScsICc8aW5maWxlLm1hZT4nLCAnLW9tYWUnLCAnPG91dGZpbGUubWFlPic=

> <r_lp_tautomer_probability>
1

> <r_epik_Ionization_Penalty>
0.00220897

> <r_epik_Ionization_Penalty_Charging>
0

> <r_epik_Ionization_Penalty_Neutral>
0.00220897

> <r_epik_State_Penalty>
-0

> <r_epik_Charging_Adjusted_Penalty>
0

> <i_epik_Tot_Q>
0

> <i_epik_Tot_abs_Q>
0

> <r_epik_Metal_State_Penalty>
0.345002

> <b_epik_Metal_Only>
0

> <s_lp_Force_Field>
OPLS_2005

> <r_lp_Energy>
7.38762

> <b_lp_Chiralities_Consistent>
1

> <s_lp_Variant>
AV-unprocessed.smi:1947-1

> <Gold.Version>
5.8.1

> <Gold.Id.Protein>
6NUR|6NUR_protein|mol2

> <Gold.PLP.Fitness>
45.3231

> <Gold.PLP.PLP>
-38.4327

> <Gold.PLP.part.hbond>
-4.0076

> <Gold.PLP.part.metal>
0.0000

> <Gold.PLP.part.buried>
-0.4365

> <Gold.PLP.part.nonpolar>
-33.6362

> <Gold.PLP.part.repulsive>
0.4775

> <Gold.PLP.ligand.clash>
0.0000

> <Gold.PLP.ligand.torsion>
0.9045

> <Gold.PLP.Chemscore.Hbond>
2.8960

> <Gold.PLP.Chemscore.CHOScore>
0.0000

> <Gold.PLP.Chemscore.Metal>
0.0000

> <Gold.Chemscore.Hbonds>
donor molecule, donor type, donor heavy atom, donor atom, acceptor molecule, acceptor atom, score
      L1  H    11    37       P1 10175  0.59
      L1  H    14    38       P1 10175  0.83

> <Gold.PLP.Chemscore.Internal.Correction>
0.0114

> <Gold.Rescore>
     Score         DG    S(hbond)    S(metal)    S(lipo)     H(rot)  DE(clash)    DE(int)     intcor
     14.55     -18.27       2.53        0.00      79.55       1.94       1.67       2.06       ----

> <Gold.Chemscore.Fitness>
14.5483

> <Gold.Chemscore.DG>
-18.2742

> <Gold.Chemscore.ZeroCoef>
-5.4800

> <Gold.Chemscore.Hbond>
2.5298

> <Gold.Chemscore.Metal>
0.0000

> <Gold.Chemscore.Lipo>
79.5490

> <Gold.Chemscore.Internal_Hbond>
0.0000

> <Gold.Chemscore.DEClash>
1.6701

> <Gold.Chemscore.DEInternal>
2.0557

> <Gold.Chemscore.Rot>
1.9385

> <Gold.Chemscore.Internal.Correction>
   9.000000E+99

> <Gold.Chemscore.Hbonds>
donor molecule, donor type, donor heavy atom, donor atom, acceptor molecule, acceptor atom, score
      L1  H    11    37       P1 10175  0.57
      L1  H    14    38       P1 10175  0.80

> <Gold.Chemscore.Hbond.Weighted>
-8.4495

> <Gold.Chemscore.Metal.Weighted>
-0.0000

> <Gold.Chemscore.Lipo.Weighted>
-9.3072

> <Gold.Chemscore.Internal_Hbond.Weighted>
0.0000

> <Gold.Chemscore.DEClash.Weighted>
1.6701

> <Gold.Chemscore.DEInternal.Weighted>
2.0557

> <Gold.Chemscore.Rot.Weighted>
4.9625

> <Gold.Chemscore.Internal.Correction.Weighted>
   9.000000E+99

> <Gold.Protein.RotatedTorsions>
[ 6907 6896 6895 6894 ] final -170.22 input  -60.11 | X-H torsion
[ 7974 7965 7964 7962 ] final  167.30 input  175.53 | X-H torsion
[ 8008 7997 7996 7995 ] final    8.05 input   59.86 | X-H torsion
[ 10167 10162 10161 10158 ] final  154.04 input  -65.29 | X-H torsion
[ 10718 10713 10712 10709 ] final -136.16 input   66.30 | X-H torsion
[ 10763 10752 10751 10750 ] final  179.69 input  -60.55 | X-H torsion
[ 11005 11000 10999 10996 ] final   73.84 input  -57.11 | X-H torsion

> <Gold.Protein.ActiveResidues>
 VAL166  LYS551  ARG553  GLY616  TRP617  ASP618  TYR619  PRO620  LYS621  CYS622 
 ASP623  PHE694  ASN695  SER759  ASP760  ASP761  ALA762  ILE779  LEU786  VAL792 
 PHE793  MET794  SER795  GLU796  ALA797  LYS798  CYS799  TRP800  GLU811  SER814 

> <Gold.Protein.RotatedAtoms>
  151.5043  133.3498  159.2873 H   0  0  0  0  0  0  0  0  0  0  0  0  # atno 6907 bound_to 6896
  150.8753  134.8137  159.7196 H   0  0  0  0  0  0  0  0  0  0  0  0  # atno 6908 bound_to 6896
  152.4726  134.4933  159.9754 H   0  0  0  0  0  0  0  0  0  0  0  0  # atno 6909 bound_to 6896
  144.7429  139.8741  143.6391 H   0  0  0  0  0  0  0  0  0  0  0  0  # atno 7974 bound_to 7965
  154.7618  140.2786  155.6208 H   0  0  0  0  0  0  0  0  0  0  0  0  # atno 8008 bound_to 7997
  156.2917  140.2658  156.2325 H   0  0  0  0  0  0  0  0  0  0  0  0  # atno 8009 bound_to 7997
  155.0008  140.0373  157.2349 H   0  0  0  0  0  0  0  0  0  0  0  0  # atno 8010 bound_to 7997
  139.4824  144.5221  151.7859 H   0  0  0  0  0  0  0  0  0  0  0  0  # atno 10167 bound_to 10162
  156.2740  130.7282  151.1259 H   0  0  0  0  0  0  0  0  0  0  0  0  # atno 10718 bound_to 10713
  154.5239  135.2795  155.1239 H   0  0  0  0  0  0  0  0  0  0  0  0  # atno 10763 bound_to 10752
  154.2785  135.6290  153.5341 H   0  0  0  0  0  0  0  0  0  0  0  0  # atno 10764 bound_to 10752
  152.9942  135.5645  154.5735 H   0  0  0  0  0  0  0  0  0  0  0  0  # atno 10765 bound_to 10752
  139.9420  134.7381  156.1075 H   0  0  0  0  0  0  0  0  0  0  0  0  # atno 11005 bound_to 11000
  146.1259  139.4285  143.0199 LP  0  0  0  0  0  0  0  0  0  0  0  0  # atno 17320 bound_to 7965
  145.7236  141.0066  143.1389 LP  0  0  0  0  0  0  0  0  0  0  0  0  # atno 17321 bound_to 7965
  140.4736  144.1551  150.5921 LP  0  0  0  0  0  0  0  0  0  0  0  0  # atno 17342 bound_to 10162
  140.4355  143.2549  151.9541 LP  0  0  0  0  0  0  0  0  0  0  0  0  # atno 17343 bound_to 10162
  157.7293  131.0625  150.5779 LP  0  0  0  0  0  0  0  0  0  0  0  0  # atno 17370 bound_to 10713
  156.5878  130.4321  149.5949 LP  0  0  0  0  0  0  0  0  0  0  0  0  # atno 17371 bound_to 10713
  141.1058  133.6660  156.2861 LP  0  0  0  0  0  0  0  0  0  0  0  0  # atno 17394 bound_to 11000
  140.5927  134.5634  157.5503 LP  0  0  0  0  0  0  0  0  0  0  0  0  # atno 17395 bound_to 11000

$$$$
