AV-unprocessed.smi:2439|AV-procd|sdf|9607|dock5
  -GOLD-   2272013243D 1   1.00000     0.00000
 Structure written by MMmdl.
 41 43  0  0  0  0  0  0  0  0  2 V2000
  142.6714  139.5266  156.5879 N   0  0  0  0  0  0  0  0  0  0  0  0
  141.8925  139.0200  155.8984 C   0  0  0  0  0  0  0  0  0  0  0  0
  140.9093  138.3828  155.0309 C   0  0  0  0  0  0  0  0  0  0  0  0
  139.7346  139.0873  154.6932 C   0  0  0  0  0  0  0  0  0  0  0  0
  138.7821  138.4729  153.8595 C   0  0  0  0  0  0  0  0  0  0  0  0
  139.0454  137.1722  153.3929 C   0  0  0  0  0  0  0  0  0  0  0  0
  140.1650  136.4875  153.7070 N   0  0  0  0  0  0  0  0  0  0  0  0
  141.0858  137.0719  154.5122 C   0  0  0  0  0  0  0  0  0  0  0  0
  142.2413  136.3322  154.8205 N   0  0  0  0  0  0  0  0  0  0  0  0
  142.4145  134.9798  154.3094 C   0  0  0  0  0  0  0  0  0  0  0  0
  142.8340  134.9815  152.8335 C   0  0  2  0  0  0  0  0  0  0  0  0
  142.8963  133.5523  152.2636 C   0  0  0  0  0  0  0  0  0  0  0  0
  143.4004  133.5652  150.8678 N   0  3  2  0  0  0  0  0  0  0  0  0
  143.4410  132.2228  150.2308 C   0  0  0  0  0  0  0  0  0  0  0  0
  144.6113  131.3661  150.7513 C   0  0  0  0  0  0  0  0  0  0  0  0
  145.9475  132.1063  150.6010 C   0  0  0  0  0  0  0  0  0  0  0  0
  145.8758  133.4838  151.2752 C   0  0  0  0  0  0  0  0  0  0  0  0
  144.6852  134.3055  150.7334 C   0  0  2  0  0  0  0  0  0  0  0  0
  144.5704  135.6925  151.3951 C   0  0  0  0  0  0  0  0  0  0  0  0
  144.1320  135.5598  152.7414 O   0  0  0  0  0  0  0  0  0  0  0  0
  139.5600  140.0864  155.0663 H   0  0  0  0  0  0  0  0  0  0  0  0
  137.8725  138.9861  153.5844 H   0  0  0  0  0  0  0  0  0  0  0  0
  138.3395  136.6674  152.7503 H   0  0  0  0  0  0  0  0  0  0  0  0
  142.8283  136.6372  155.5838 H   0  0  0  0  0  0  0  0  0  0  0  0
  143.1556  134.4504  154.9099 H   0  0  0  0  0  0  0  0  0  0  0  0
  141.4695  134.4464  154.4188 H   0  0  0  0  0  0  0  0  0  0  0  0
  142.1208  135.5742  152.2568 H   0  0  0  0  0  0  0  0  0  0  0  0
  143.5343  132.9317  152.8931 H   0  0  0  0  0  0  0  0  0  0  0  0
  141.9027  133.1032  152.2833 H   0  0  0  0  0  0  0  0  0  0  0  0
  142.4920  131.7078  150.3850 H   0  0  0  0  0  0  0  0  0  0  0  0
  143.5442  132.3592  149.1535 H   0  0  0  0  0  0  0  0  0  0  0  0
  144.4506  131.1042  151.7975 H   0  0  0  0  0  0  0  0  0  0  0  0
  144.6490  130.4227  150.2063 H   0  0  0  0  0  0  0  0  0  0  0  0
  146.7552  131.5166  151.0349 H   0  0  0  0  0  0  0  0  0  0  0  0
  146.1834  132.2274  149.5429 H   0  0  0  0  0  0  0  0  0  0  0  0
  145.7935  133.3599  152.3556 H   0  0  0  0  0  0  0  0  0  0  0  0
  146.8080  134.0225  151.1028 H   0  0  0  0  0  0  0  0  0  0  0  0
  144.8550  134.4640  149.6675 H   0  0  0  0  0  0  0  0  0  0  0  0
  145.5336  136.2030  151.3819 H   0  0  0  0  0  0  0  0  0  0  0  0
  143.8745  136.3262  150.8428 H   0  0  0  0  0  0  0  0  0  0  0  0
  142.7185  134.0973  150.3462 H   0  0  0  0  0  0  0  0  0  0  0  0
  1  2  3  0  0  0  0
  2  3  1  0  0  0  0
  3  8  1  0  0  0  0
  3  4  2  0  0  0  0
  4  5  1  0  0  0  0
  4 21  1  0  0  0  0
  5  6  2  0  0  0  0
  5 22  1  0  0  0  0
  6  7  1  0  0  0  0
  6 23  1  0  0  0  0
  7  8  2  0  0  0  0
  8  9  1  0  0  0  0
  9 10  1  0  0  0  0
  9 24  1  0  0  0  0
 10 11  1  0  0  0  0
 10 25  1  0  0  0  0
 10 26  1  0  0  0  0
 11 20  1  0  0  0  0
 11 12  1  0  0  0  0
 11 27  1  0  0  0  0
 12 13  1  0  0  0  0
 12 28  1  0  0  0  0
 12 29  1  0  0  0  0
 13 18  1  0  0  0  0
 13 14  1  0  0  0  0
 13 41  1  0  0  0  0
 14 15  1  0  0  0  0
 14 30  1  0  0  0  0
 14 31  1  0  0  0  0
 15 16  1  0  0  0  0
 15 32  1  0  0  0  0
 15 33  1  0  0  0  0
 16 17  1  0  0  0  0
 16 34  1  0  0  0  0
 16 35  1  0  0  0  0
 17 18  1  0  0  0  0
 17 36  1  0  0  0  0
 17 37  1  0  0  0  0
 18 19  1  0  0  0  0
 18 38  1  0  0  0  0
 19 20  1  0  0  0  0
 19 39  1  0  0  0  0
 19 40  1  0  0  0  0
M  CHG  1  13   1
M  END
> <s_m_source_file>
AV-unprocessed.smi

> <i_m_source_file_index>
2439

> <i_lp_mmshare_version>
43012

> <i_f3d_flags>
0

> <s_epik_input>
TiNDYzFbY0hdW2NIXVtjSF1uYzFbTkhdW0NIMl1bQ0BIXShbQ0gyXTIpT1tDSDJdW0NAQEhdKE4yMylbQ0gyXVtDSDJdW0NIMl1bQ0gyXTM=

> <s_epik_cmdline>
J2VwaWtfcHl0aG9uJywgJy1waCcsICc3LjAnLCAnLXRuJywgJzgnLCAnLW1hJywgJzIwMCcsICctbWV0YWxfYmluZGluZycsICctaW1hZScsICc8aW5maWxlLm1hZT4nLCAnLW9tYWUnLCAnPG91dGZpbGUubWFlPic=

> <r_epik_Ionization_Penalty>
0.0803594

> <r_epik_Ionization_Penalty_Charging>
0.0803403

> <r_epik_Ionization_Penalty_Neutral>
1.90988e-05

> <r_epik_State_Penalty>
0.0711481

> <r_epik_Charging_Adjusted_Penalty>
0.151488

> <i_epik_Tot_Q>
1

> <i_epik_Tot_abs_Q>
1

> <r_epik_Metal_State_Penalty>
0.0711482

> <b_epik_Metal_Only>
0

> <s_lp_Force_Field>
OPLS_2005

> <r_lp_Energy>
31.0257

> <b_lp_Chiralities_Consistent>
1

> <s_lp_Variant>
AV-unprocessed.smi:2439-5

> <Gold.Version>
5.8.1

> <Gold.Id.Protein>
6NUR|6NUR_protein|mol2

> <Gold.PLP.Fitness>
40.9348

> <Gold.PLP.PLP>
-32.5993

> <Gold.PLP.part.hbond>
-1.0000

> <Gold.PLP.part.metal>
0.0000

> <Gold.PLP.part.buried>
-3.2726

> <Gold.PLP.part.nonpolar>
-29.3069

> <Gold.PLP.part.repulsive>
0.3587

> <Gold.PLP.ligand.clash>
0.0000

> <Gold.PLP.ligand.torsion>
0.1330

> <Gold.PLP.Chemscore.Hbond>
2.0000

> <Gold.PLP.Chemscore.CHOScore>
0.8670

> <Gold.PLP.Chemscore.Metal>
0.0000

> <Gold.Chemscore.Hbonds>
donor molecule, donor type, donor heavy atom, donor atom, acceptor molecule, acceptor atom, score
      L1  H    13    41       P1 10186  2.00
      L1  C     6    23       P1 10187  0.66

> <Gold.PLP.Chemscore.Internal.Correction>
0.0006

> <Gold.Rescore>
     Score         DG    S(hbond)    S(metal)    S(lipo)     H(rot)  DE(clash)    DE(int)     intcor
     15.88     -16.23       0.94        0.00      92.79       1.27       0.10       0.25       ----

> <Gold.Chemscore.Fitness>
15.8786

> <Gold.Chemscore.DG>
-16.2294

> <Gold.Chemscore.ZeroCoef>
-5.4800

> <Gold.Chemscore.Hbond>
0.9384

> <Gold.Chemscore.Metal>
0.0000

> <Gold.Chemscore.Lipo>
92.7864

> <Gold.Chemscore.Internal_Hbond>
0.0000

> <Gold.Chemscore.DEClash>
0.0989

> <Gold.Chemscore.DEInternal>
0.2519

> <Gold.Chemscore.Rot>
1.2659

> <Gold.Chemscore.Internal.Correction>
   9.000000E+99

> <Gold.Chemscore.Hbonds>
donor molecule, donor type, donor heavy atom, donor atom, acceptor molecule, acceptor atom, score
      L1  H    13    41       P1 10186  0.89

> <Gold.Chemscore.Hbond.Weighted>
-3.1342

> <Gold.Chemscore.Metal.Weighted>
-0.0000

> <Gold.Chemscore.Lipo.Weighted>
-10.8560

> <Gold.Chemscore.Internal_Hbond.Weighted>
0.0000

> <Gold.Chemscore.DEClash.Weighted>
0.0989

> <Gold.Chemscore.DEInternal.Weighted>
0.2519

> <Gold.Chemscore.Rot.Weighted>
3.2408

> <Gold.Chemscore.Internal.Correction.Weighted>
   9.000000E+99

> <Gold.Protein.RotatedTorsions>
[ 6907 6896 6895 6894 ] final  -91.24 input  -60.11 | X-H torsion
[ 7974 7965 7964 7962 ] final   -7.49 input  175.53 | X-H torsion
[ 8008 7997 7996 7995 ] final   -2.33 input   59.86 | X-H torsion
[ 10167 10162 10161 10158 ] final  -43.55 input  -65.29 | X-H torsion
[ 10718 10713 10712 10709 ] final -140.40 input   66.30 | X-H torsion
[ 10763 10752 10751 10750 ] final  150.94 input  -60.55 | X-H torsion
[ 11005 11000 10999 10996 ] final  141.14 input  -57.11 | X-H torsion

> <Gold.Protein.ActiveResidues>
 VAL166  LYS551  ARG553  GLY616  TRP617  ASP618  TYR619  PRO620  LYS621  CYS622 
 ASP623  PHE694  ASN695  SER759  ASP760  ASP761  ALA762  ILE779  LEU786  VAL792 
 PHE793  MET794  SER795  GLU796  ALA797  LYS798  CYS799  TRP800  GLU811  SER814 

> <Gold.Protein.RotatedAtoms>
  150.6890  134.2307  159.4433 H   0  0  0  0  0  0  0  0  0  0  0  0  # atno 6907 bound_to 6896
  152.0258  134.9794  160.0581 H   0  0  0  0  0  0  0  0  0  0  0  0  # atno 6908 bound_to 6896
  152.1353  133.4397  159.4777 H   0  0  0  0  0  0  0  0  0  0  0  0  # atno 6909 bound_to 6896
  146.2305  140.2328  142.8341 H   0  0  0  0  0  0  0  0  0  0  0  0  # atno 7974 bound_to 7965
  154.6369  140.2537  155.7367 H   0  0  0  0  0  0  0  0  0  0  0  0  # atno 8008 bound_to 7997
  156.2509  140.2895  156.0666 H   0  0  0  0  0  0  0  0  0  0  0  0  # atno 8009 bound_to 7997
  155.1656  140.0385  157.2842 H   0  0  0  0  0  0  0  0  0  0  0  0  # atno 8010 bound_to 7997
  140.6930  143.2977  151.3368 H   0  0  0  0  0  0  0  0  0  0  0  0  # atno 10167 bound_to 10162
  156.3218  130.7538  151.1638 H   0  0  0  0  0  0  0  0  0  0  0  0  # atno 10718 bound_to 10713
  154.0956  135.2849  155.3262 H   0  0  0  0  0  0  0  0  0  0  0  0  # atno 10763 bound_to 10752
  154.6590  135.5341  153.7998 H   0  0  0  0  0  0  0  0  0  0  0  0  # atno 10764 bound_to 10752
  153.0397  135.6529  154.1123 H   0  0  0  0  0  0  0  0  0  0  0  0  # atno 10765 bound_to 10752
  140.0379  134.9319  157.0787 H   0  0  0  0  0  0  0  0  0  0  0  0  # atno 11005 bound_to 11000
  144.9545  140.8212  143.5551 LP  0  0  0  0  0  0  0  0  0  0  0  0  # atno 17320 bound_to 7965
  145.2292  139.2123  143.5052 LP  0  0  0  0  0  0  0  0  0  0  0  0  # atno 17321 bound_to 7965
  139.6352  144.0644  152.2510 LP  0  0  0  0  0  0  0  0  0  0  0  0  # atno 17342 bound_to 10162
  140.0131  144.6209  150.7630 LP  0  0  0  0  0  0  0  0  0  0  0  0  # atno 17343 bound_to 10162
  157.7413  131.0505  150.5104 LP  0  0  0  0  0  0  0  0  0  0  0  0  # atno 17370 bound_to 10713
  156.5258  130.4173  149.6227 LP  0  0  0  0  0  0  0  0  0  0  0  0  # atno 17371 bound_to 10713
  140.4117  134.1974  155.7163 LP  0  0  0  0  0  0  0  0  0  0  0  0  # atno 17394 bound_to 11000
  141.1867  133.8296  157.1058 LP  0  0  0  0  0  0  0  0  0  0  0  0  # atno 17395 bound_to 11000

$$$$
