AV-unprocessed.smi:3067|AV-procd|sdf|11697|dock4
  -GOLD-   2272017 93D 1   1.00000     0.00000
 Structure written by MMmdl.
 34 35  0  0  0  0  0  0  0  0  1 V2000
  145.5026  129.1345  152.0874 C   0  0  0  0  0  0  0  0  0  0  0  0
  146.1340  130.3828  152.3256 O   0  0  0  0  0  0  0  0  0  0  0  0
  145.8810  131.3677  151.3296 C   0  0  1  0  0  0  0  0  0  0  0  0
  144.3570  131.5684  151.1821 C   0  0  0  0  0  0  0  0  0  0  0  0
  144.0245  132.7285  150.2328 C   0  0  0  0  0  0  0  0  0  0  0  0
  144.7050  134.0256  150.6902 C   0  0  0  0  0  0  0  0  0  0  0  0
  146.2223  133.8323  150.8207 C   0  0  0  0  0  0  0  0  0  0  0  0
  146.5688  132.6750  151.7826 C   0  0  2  0  0  0  0  0  0  0  0  0
  148.0131  132.4849  151.8563 N   0  0  0  0  0  0  0  0  0  0  0  0
  148.6871  132.2915  153.0719 C   0  0  0  0  0  0  0  0  0  0  0  0
  148.9134  131.0220  153.6537 C   0  0  0  0  0  0  0  0  0  0  0  0
  149.6064  130.9437  154.8769 C   0  0  0  0  0  0  0  0  0  0  0  0
  150.0531  132.1377  155.4804 C   0  0  0  0  0  0  0  0  0  0  0  0
  150.7719  132.0782  156.7416 C   0  0  0  0  0  0  0  0  0  0  0  0
  151.3447  132.0313  157.7461 N   0  0  0  0  0  0  0  0  0  0  0  0
  149.8421  133.3544  154.9337 N   0  0  0  0  0  0  0  0  0  0  0  0
  149.1766  133.4210  153.7612 C   0  0  0  0  0  0  0  0  0  0  0  0
  145.7738  128.4358  152.8784 H   0  0  0  0  0  0  0  0  0  0  0  0
  145.8246  128.7045  151.1383 H   0  0  0  0  0  0  0  0  0  0  0  0
  144.4165  129.2220  152.0817 H   0  0  0  0  0  0  0  0  0  0  0  0
  146.3068  131.0598  150.3722 H   0  0  0  0  0  0  0  0  0  0  0  0
  143.8832  130.6594  150.8127 H   0  0  0  0  0  0  0  0  0  0  0  0
  143.9201  131.7673  152.1615 H   0  0  0  0  0  0  0  0  0  0  0  0
  144.3494  132.4799  149.2216 H   0  0  0  0  0  0  0  0  0  0  0  0
  142.9446  132.8721  150.1852 H   0  0  0  0  0  0  0  0  0  0  0  0
  144.4914  134.8269  149.9825 H   0  0  0  0  0  0  0  0  0  0  0  0
  144.2915  134.3396  151.6494 H   0  0  0  0  0  0  0  0  0  0  0  0
  146.6457  133.6310  149.8355 H   0  0  0  0  0  0  0  0  0  0  0  0
  146.6749  134.7638  151.1608 H   0  0  0  0  0  0  0  0  0  0  0  0
  146.1915  132.9136  152.7774 H   0  0  0  0  0  0  0  0  0  0  0  0
  148.5230  132.3849  150.9901 H   0  0  0  0  0  0  0  0  0  0  0  0
  148.5692  130.1111  153.1880 H   0  0  0  0  0  0  0  0  0  0  0  0
  149.7892  129.9835  155.3377 H   0  0  0  0  0  0  0  0  0  0  0  0
  149.0316  134.4135  153.3594 H   0  0  0  0  0  0  0  0  0  0  0  0
  1  2  1  0  0  0  0
  1 18  1  0  0  0  0
  1 19  1  0  0  0  0
  1 20  1  0  0  0  0
  2  3  1  0  0  0  0
  3  8  1  0  0  0  0
  3  4  1  0  0  0  0
  3 21  1  0  0  0  0
  4  5  1  0  0  0  0
  4 22  1  0  0  0  0
  4 23  1  0  0  0  0
  5  6  1  0  0  0  0
  5 24  1  0  0  0  0
  5 25  1  0  0  0  0
  6  7  1  0  0  0  0
  6 26  1  0  0  0  0
  6 27  1  0  0  0  0
  7  8  1  0  0  0  0
  7 28  1  0  0  0  0
  7 29  1  0  0  0  0
  8  9  1  0  0  0  0
  8 30  1  0  0  0  0
  9 10  1  0  0  0  0
  9 31  1  0  0  0  0
 10 17  1  0  0  0  0
 10 11  2  0  0  0  0
 11 12  1  0  0  0  0
 11 32  1  0  0  0  0
 12 13  2  0  0  0  0
 12 33  1  0  0  0  0
 13 14  1  0  0  0  0
 13 16  1  0  0  0  0
 14 15  3  0  0  0  0
 16 17  2  0  0  0  0
 17 34  1  0  0  0  0
M  END
> <s_m_source_file>
AV-unprocessed.smi

> <i_m_source_file_index>
3067

> <i_lp_mmshare_version>
43012

> <i_f3d_flags>
0

> <s_epik_input>
W0NIM11PW0NAQEhdMVtDSDJdW0NIMl1bQ0gyXVtDSDJdW0NASF0xW05IXWMyW2NIXVtjSF1jKEMjTiluW2NIXTI=

> <s_epik_cmdline>
J2VwaWtfcHl0aG9uJywgJy1waCcsICc3LjAnLCAnLXRuJywgJzgnLCAnLW1hJywgJzIwMCcsICctbWV0YWxfYmluZGluZycsICctaW1hZScsICc8aW5maWxlLm1hZT4nLCAnLW9tYWUnLCAnPG91dGZpbGUubWFlPic=

> <r_lp_tautomer_probability>
1

> <r_epik_Ionization_Penalty>
2.01011e-07

> <r_epik_Ionization_Penalty_Charging>
0

> <r_epik_Ionization_Penalty_Neutral>
2.01011e-07

> <r_epik_State_Penalty>
-0

> <r_epik_Charging_Adjusted_Penalty>
0

> <i_epik_Tot_Q>
0

> <i_epik_Tot_abs_Q>
0

> <r_epik_Metal_State_Penalty>
-0

> <b_epik_Metal_Only>
0

> <s_lp_Force_Field>
OPLS_2005

> <r_lp_Energy>
16.9027

> <b_lp_Chiralities_Consistent>
1

> <s_lp_Variant>
AV-unprocessed.smi:3067-4

> <Gold.Version>
5.8.1

> <Gold.Id.Protein>
6NUR|6NUR_protein|mol2

> <Gold.PLP.Fitness>
41.3251

> <Gold.PLP.PLP>
-35.9263

> <Gold.PLP.part.hbond>
-2.0000

> <Gold.PLP.part.metal>
0.0000

> <Gold.PLP.part.buried>
-4.5940

> <Gold.PLP.part.nonpolar>
-29.4994

> <Gold.PLP.part.repulsive>
0.2704

> <Gold.PLP.ligand.clash>
0.0000

> <Gold.PLP.ligand.torsion>
0.9745

> <Gold.PLP.Chemscore.Hbond>
1.4480

> <Gold.PLP.Chemscore.CHOScore>
1.0000

> <Gold.PLP.Chemscore.Metal>
0.0000

> <Gold.Chemscore.Hbonds>
donor molecule, donor type, donor heavy atom, donor atom, acceptor molecule, acceptor atom, score
      L1  H     9    31       P1 10747  0.51
      P1  H  6896  6907       L1    15  1.00
      L1  C    17    34       P1  7948  0.64

> <Gold.PLP.Chemscore.Internal.Correction>
0.0039

> <Gold.Rescore>
     Score         DG    S(hbond)    S(metal)    S(lipo)     H(rot)  DE(clash)    DE(int)     intcor
     17.63     -18.61       1.81        0.00      86.71       1.20       0.00       0.98       ----

> <Gold.Chemscore.Fitness>
17.6337

> <Gold.Chemscore.DG>
-18.6121

> <Gold.Chemscore.ZeroCoef>
-5.4800

> <Gold.Chemscore.Hbond>
1.8150

> <Gold.Chemscore.Metal>
0.0000

> <Gold.Chemscore.Lipo>
86.7101

> <Gold.Chemscore.Internal_Hbond>
0.0000

> <Gold.Chemscore.DEClash>
0.0015

> <Gold.Chemscore.DEInternal>
0.9769

> <Gold.Chemscore.Rot>
1.2012

> <Gold.Chemscore.Internal.Correction>
   9.000000E+99

> <Gold.Chemscore.Hbonds>
donor molecule, donor type, donor heavy atom, donor atom, acceptor molecule, acceptor atom, score
      L1  H     9    31       P1 10747  0.52
      P1  H  6896  6907       L1    15  0.95

> <Gold.Chemscore.Hbond.Weighted>
-6.0620

> <Gold.Chemscore.Metal.Weighted>
-0.0000

> <Gold.Chemscore.Lipo.Weighted>
-10.1451

> <Gold.Chemscore.Internal_Hbond.Weighted>
0.0000

> <Gold.Chemscore.DEClash.Weighted>
0.0015

> <Gold.Chemscore.DEInternal.Weighted>
0.9769

> <Gold.Chemscore.Rot.Weighted>
3.0750

> <Gold.Chemscore.Internal.Correction.Weighted>
   9.000000E+99

> <Gold.Protein.RotatedTorsions>
[ 6907 6896 6895 6894 ] final  178.38 input  -60.11 | X-H torsion
[ 7974 7965 7964 7962 ] final  168.44 input  175.53 | X-H torsion
[ 8008 7997 7996 7995 ] final  124.48 input   59.86 | X-H torsion
[ 10167 10162 10161 10158 ] final  -99.80 input  -65.29 | X-H torsion
[ 10718 10713 10712 10709 ] final    5.34 input   66.30 | X-H torsion
[ 10763 10752 10751 10750 ] final -121.33 input  -60.55 | X-H torsion
[ 11005 11000 10999 10996 ] final   12.94 input  -57.11 | X-H torsion

> <Gold.Protein.ActiveResidues>
 VAL166  LYS551  ARG553  GLY616  TRP617  ASP618  TYR619  PRO620  LYS621  CYS622 
 ASP623  PHE694  ASN695  SER759  ASP760  ASP761  ALA762  ILE779  LEU786  VAL792 
 PHE793  MET794  SER795  GLU796  ALA797  LYS798  CYS799  TRP800  GLU811  SER814 

> <Gold.Protein.RotatedAtoms>
  151.6888  133.3311  159.3237 H   0  0  0  0  0  0  0  0  0  0  0  0  # atno 6907 bound_to 6896
  150.7788  134.6717  159.6404 H   0  0  0  0  0  0  0  0  0  0  0  0  # atno 6908 bound_to 6896
  152.3839  134.6550  160.0184 H   0  0  0  0  0  0  0  0  0  0  0  0  # atno 6909 bound_to 6896
  144.7388  139.8908  143.6403 H   0  0  0  0  0  0  0  0  0  0  0  0  # atno 7974 bound_to 7965
  156.2803  140.2739  156.1795 H   0  0  0  0  0  0  0  0  0  0  0  0  # atno 8008 bound_to 7997
  155.0571  140.0386  157.2582 H   0  0  0  0  0  0  0  0  0  0  0  0  # atno 8009 bound_to 7997
  154.7147  140.2676  155.6602 H   0  0  0  0  0  0  0  0  0  0  0  0  # atno 8010 bound_to 7997
  140.2586  143.3423  152.0647 H   0  0  0  0  0  0  0  0  0  0  0  0  # atno 10167 bound_to 10162
  156.9060  130.5739  149.5647 H   0  0  0  0  0  0  0  0  0  0  0  0  # atno 10718 bound_to 10713
  154.8665  135.4172  154.2602 H   0  0  0  0  0  0  0  0  0  0  0  0  # atno 10763 bound_to 10752
  153.3532  135.6999  153.6777 H   0  0  0  0  0  0  0  0  0  0  0  0  # atno 10764 bound_to 10752
  153.5709  135.3591  155.2810 H   0  0  0  0  0  0  0  0  0  0  0  0  # atno 10765 bound_to 10752
  140.4864  134.0884  155.7761 H   0  0  0  0  0  0  0  0  0  0  0  0  # atno 11005 bound_to 11000
  146.1143  139.4152  143.0268 LP  0  0  0  0  0  0  0  0  0  0  0  0  # atno 17320 bound_to 7965
  145.7397  141.0012  143.1307 LP  0  0  0  0  0  0  0  0  0  0  0  0  # atno 17321 bound_to 7965
  139.5024  144.6733  151.6189 LP  0  0  0  0  0  0  0  0  0  0  0  0  # atno 17342 bound_to 10162
  140.5984  143.9655  150.6369 LP  0  0  0  0  0  0  0  0  0  0  0  0  # atno 17343 bound_to 10162
  156.0559  130.5620  150.9090 LP  0  0  0  0  0  0  0  0  0  0  0  0  # atno 17370 bound_to 10713
  157.5997  131.0941  150.8981 LP  0  0  0  0  0  0  0  0  0  0  0  0  # atno 17371 bound_to 10713
  141.1506  133.8976  157.2107 LP  0  0  0  0  0  0  0  0  0  0  0  0  # atno 17394 bound_to 11000
  139.9796  135.0103  156.9716 LP  0  0  0  0  0  0  0  0  0  0  0  0  # atno 17395 bound_to 11000

$$$$
