AV-unprocessed.smi:83|AV-procd|sdf|807|dock1
  -GOLD-   2262017203D 1   1.00000     0.00000
 Structure written by MMmdl.
 56 59  0  0  0  0  0  0  0  0  1 V2000
  152.2145  144.7339  159.9398 C   0  0  0  0  0  0  0  0  0  0  0  0
  152.5451  143.2483  160.0941 C   0  0  0  0  0  0  0  0  0  0  0  0
  153.3379  142.9005  160.9691 O   0  0  0  0  0  0  0  0  0  0  0  0
  151.9544  142.3698  159.2591 N   0  0  0  0  0  0  0  0  0  0  0  0
  152.1659  140.9233  159.2511 C   0  0  0  0  0  0  0  0  0  0  0  0
  151.4340  140.4100  158.0094 C   0  0  0  0  0  0  0  0  0  0  0  0
  150.3405  141.4452  157.7683 C   0  0  2  0  0  0  0  0  0  0  0  0
  149.7977  141.4595  156.3252 C   0  0  0  0  0  0  0  0  0  0  0  0
  149.4278  140.1264  155.8459 N   0  0  0  0  0  0  0  0  0  0  0  0
  150.3519  139.4333  154.9576 C   0  0  0  0  0  0  0  0  0  0  0  0
  148.5086  139.4096  156.5490 C   0  0  0  0  0  0  0  0  0  0  0  0
  147.1963  139.7236  156.3826 N   0  0  0  0  0  0  0  0  0  0  0  0
  146.2462  139.0686  157.0545 C   0  0  0  0  0  0  0  0  0  0  0  0
  146.3820  138.0782  157.9362 N   0  0  0  0  0  0  0  0  0  0  0  0
  147.6941  137.7551  158.1140 C   0  0  0  0  0  0  0  0  0  0  0  0
  148.8122  138.3572  157.4663 C   0  0  0  0  0  0  0  0  0  0  0  0
  149.9845  137.7603  157.9212 N   0  0  0  0  0  0  0  0  0  0  0  0
  149.5836  136.8597  158.7757 C   0  0  0  0  0  0  0  0  0  0  0  0
  148.2222  136.7915  158.9534 N   0  0  0  0  0  0  0  0  0  0  0  0
  147.5021  135.8972  159.8417 C   0  0  0  0  0  0  0  0  0  0  0  0
  148.0174  135.9703  161.2915 C   0  0  1  0  0  0  0  0  0  0  0  0
  147.6326  137.1915  161.8954 O   0  0  0  0  0  0  0  0  0  0  0  0
  147.5600  134.7717  162.1468 C   0  0  1  0  0  0  0  0  0  0  0  0
  146.0871  134.7694  162.5900 C   0  0  0  0  0  0  0  0  0  0  0  0
  145.6156  133.3558  162.2833 C   0  0  0  0  0  0  0  0  0  0  0  0
  146.9129  132.5812  162.0791 C   0  0  0  0  0  0  0  0  0  0  0  0
  147.7634  133.5375  161.4700 O   0  0  0  0  0  0  0  0  0  0  0  0
  150.9982  142.7528  158.2248 C   0  0  0  0  0  0  0  0  0  0  0  0
  152.4255  145.0744  158.9257 H   0  0  0  0  0  0  0  0  0  0  0  0
  152.8129  145.3343  160.6260 H   0  0  0  0  0  0  0  0  0  0  0  0
  151.1630  144.9190  160.1606 H   0  0  0  0  0  0  0  0  0  0  0  0
  153.2240  140.6600  159.2199 H   0  0  0  0  0  0  0  0  0  0  0  0
  151.7316  140.4929  160.1547 H   0  0  0  0  0  0  0  0  0  0  0  0
  152.1222  140.3914  157.1629 H   0  0  0  0  0  0  0  0  0  0  0  0
  151.0397  139.4018  158.1406 H   0  0  0  0  0  0  0  0  0  0  0  0
  149.5233  141.2194  158.4555 H   0  0  0  0  0  0  0  0  0  0  0  0
  148.9681  142.1615  156.2403 H   0  0  0  0  0  0  0  0  0  0  0  0
  150.5704  141.8480  155.6611 H   0  0  0  0  0  0  0  0  0  0  0  0
  149.8319  138.6842  154.3596 H   0  0  0  0  0  0  0  0  0  0  0  0
  151.1430  138.9441  155.5263 H   0  0  0  0  0  0  0  0  0  0  0  0
  150.8194  140.1376  154.2693 H   0  0  0  0  0  0  0  0  0  0  0  0
  145.2324  139.3853  156.8589 H   0  0  0  0  0  0  0  0  0  0  0  0
  150.2737  136.2176  159.3038 H   0  0  0  0  0  0  0  0  0  0  0  0
  146.4401  136.1433  159.7982 H   0  0  0  0  0  0  0  0  0  0  0  0
  147.6032  134.8822  159.4560 H   0  0  0  0  0  0  0  0  0  0  0  0
  149.1078  135.9648  161.2711 H   0  0  0  0  0  0  0  0  0  0  0  0
  146.8046  137.0618  162.3318 H   0  0  0  0  0  0  0  0  0  0  0  0
  148.1807  134.7348  163.0440 H   0  0  0  0  0  0  0  0  0  0  0  0
  146.0139  134.9861  163.6565 H   0  0  0  0  0  0  0  0  0  0  0  0
  145.4750  135.5034  162.0655 H   0  0  0  0  0  0  0  0  0  0  0  0
  144.9907  132.9333  163.0707 H   0  0  0  0  0  0  0  0  0  0  0  0
  145.0390  133.3539  161.3574 H   0  0  0  0  0  0  0  0  0  0  0  0
  147.3371  132.2693  163.0350 H   0  0  0  0  0  0  0  0  0  0  0  0
  146.7841  131.6981  161.4530 H   0  0  0  0  0  0  0  0  0  0  0  0
  150.2547  143.4613  158.5944 H   0  0  0  0  0  0  0  0  0  0  0  0
  151.5422  143.2270  157.4066 H   0  0  0  0  0  0  0  0  0  0  0  0
  1  2  1  0  0  0  0
  1 29  1  0  0  0  0
  1 30  1  0  0  0  0
  1 31  1  0  0  0  0
  2  3  2  0  0  0  0
  2  4  1  0  0  0  0
  4 28  1  0  0  0  0
  4  5  1  0  0  0  0
  5  6  1  0  0  0  0
  5 32  1  0  0  0  0
  5 33  1  0  0  0  0
  6  7  1  0  0  0  0
  6 34  1  0  0  0  0
  6 35  1  0  0  0  0
  7  8  1  0  0  0  0
  7 28  1  0  0  0  0
  7 36  1  0  0  0  0
  8  9  1  0  0  0  0
  8 37  1  0  0  0  0
  8 38  1  0  0  0  0
  9 10  1  0  0  0  0
  9 11  1  0  0  0  0
 10 39  1  0  0  0  0
 10 40  1  0  0  0  0
 10 41  1  0  0  0  0
 11 16  1  0  0  0  0
 11 12  2  0  0  0  0
 12 13  1  0  0  0  0
 13 14  2  0  0  0  0
 13 42  1  0  0  0  0
 14 15  1  0  0  0  0
 15 19  1  0  0  0  0
 15 16  2  0  0  0  0
 16 17  1  0  0  0  0
 17 18  2  0  0  0  0
 18 19  1  0  0  0  0
 18 43  1  0  0  0  0
 19 20  1  0  0  0  0
 20 21  1  0  0  0  0
 20 44  1  0  0  0  0
 20 45  1  0  0  0  0
 21 22  1  0  0  0  0
 21 23  1  0  0  0  0
 21 46  1  0  0  0  0
 22 47  1  0  0  0  0
 23 27  1  0  0  0  0
 23 24  1  0  0  0  0
 23 48  1  0  0  0  0
 24 25  1  0  0  0  0
 24 49  1  0  0  0  0
 24 50  1  0  0  0  0
 25 26  1  0  0  0  0
 25 51  1  0  0  0  0
 25 52  1  0  0  0  0
 26 27  1  0  0  0  0
 26 53  1  0  0  0  0
 26 54  1  0  0  0  0
 28 55  1  0  0  0  0
 28 56  1  0  0  0  0
M  END
> <s_m_source_file>
AV-unprocessed.smi

> <i_m_source_file_index>
83

> <i_lp_mmshare_version>
43012

> <i_f3d_flags>
0

> <s_epik_input>
W0NIM11DKD1PKU4xW0NIMl1bQ0gyXVtDQEhdKFtDSDJdMSlbQ0gyXU4oW0NIM10pYyhuW2NIXW4yKWMoYzIzKW5bY0hdbjNbQ0gyXVtDQEhdKFtPSF0pW0NAQEhdNFtDSDJdW0NIMl1bQ0gyXU80

> <s_epik_cmdline>
J2VwaWtfcHl0aG9uJywgJy1waCcsICc3LjAnLCAnLXRuJywgJzgnLCAnLW1hJywgJzIwMCcsICctbWV0YWxfYmluZGluZycsICctaW1hZScsICc8aW5maWxlLm1hZT4nLCAnLW9tYWUnLCAnPG91dGZpbGUubWFlPic=

> <r_lp_tautomer_probability>
1

> <r_epik_Ionization_Penalty>
0.00109752

> <r_epik_Ionization_Penalty_Charging>
0

> <r_epik_Ionization_Penalty_Neutral>
0.00109752

> <r_epik_State_Penalty>
0.000634803

> <r_epik_Charging_Adjusted_Penalty>
0.000634803

> <i_epik_Tot_Q>
0

> <i_epik_Tot_abs_Q>
0

> <r_epik_Metal_State_Penalty>
-0

> <b_epik_Metal_Only>
0

> <s_lp_Force_Field>
OPLS_2005

> <r_lp_Energy>
54.4429

> <b_lp_Chiralities_Consistent>
1

> <s_lp_Variant>
AV-unprocessed.smi:83-8

> <Gold.Version>
5.8.1

> <Gold.Id.Protein>
6NUR|6NUR_protein|mol2

> <Gold.PLP.Fitness>
47.3875

> <Gold.PLP.PLP>
-45.3514

> <Gold.PLP.part.hbond>
-2.0000

> <Gold.PLP.part.metal>
0.0000

> <Gold.PLP.part.buried>
-7.0838

> <Gold.PLP.part.nonpolar>
-37.2373

> <Gold.PLP.part.repulsive>
0.0315

> <Gold.PLP.ligand.clash>
0.0000

> <Gold.PLP.ligand.torsion>
1.7286

> <Gold.PLP.Chemscore.Hbond>
1.6640

> <Gold.PLP.Chemscore.CHOScore>
0.0000

> <Gold.PLP.Chemscore.Metal>
0.0000

> <Gold.Chemscore.Hbonds>
donor molecule, donor type, donor heavy atom, donor atom, acceptor molecule, acceptor atom, score
      P1  H  6931  6943       L1    22  0.99
      P1  H  6934  6947       L1    22  0.49

> <Gold.PLP.Chemscore.Internal.Correction>
0.5013

> <Gold.Rescore>
     Score         DG    S(hbond)    S(metal)    S(lipo)     H(rot)  DE(clash)    DE(int)     intcor
     12.06     -13.86       1.15        0.00      95.93       2.62       0.15       1.64       ----

> <Gold.Chemscore.Fitness>
12.0586

> <Gold.Chemscore.DG>
-13.8551

> <Gold.Chemscore.ZeroCoef>
-5.4800

> <Gold.Chemscore.Hbond>
1.1516

> <Gold.Chemscore.Metal>
0.0000

> <Gold.Chemscore.Lipo>
95.9277

> <Gold.Chemscore.Internal_Hbond>
0.0000

> <Gold.Chemscore.DEClash>
0.1522

> <Gold.Chemscore.DEInternal>
1.6442

> <Gold.Chemscore.Rot>
2.6152

> <Gold.Chemscore.Internal.Correction>
   9.000000E+99

> <Gold.Chemscore.Hbonds>
donor molecule, donor type, donor heavy atom, donor atom, acceptor molecule, acceptor atom, score
      P1  H  6931  6943       L1    22  0.65
      P1  H  6934  6947       L1    22  0.10

> <Gold.Chemscore.Hbond.Weighted>
-3.8464

> <Gold.Chemscore.Metal.Weighted>
-0.0000

> <Gold.Chemscore.Lipo.Weighted>
-11.2235

> <Gold.Chemscore.Internal_Hbond.Weighted>
0.0000

> <Gold.Chemscore.DEClash.Weighted>
0.1522

> <Gold.Chemscore.DEInternal.Weighted>
1.6442

> <Gold.Chemscore.Rot.Weighted>
6.6949

> <Gold.Chemscore.Internal.Correction.Weighted>
   9.000000E+99

> <Gold.Protein.RotatedTorsions>
[ 6907 6896 6895 6894 ] final  -21.57 input  -60.11 | X-H torsion
[ 7974 7965 7964 7962 ] final -138.06 input  175.53 | X-H torsion
[ 8008 7997 7996 7995 ] final  112.75 input   59.86 | X-H torsion
[ 10167 10162 10161 10158 ] final -160.05 input  -65.29 | X-H torsion
[ 10718 10713 10712 10709 ] final  -15.92 input   66.30 | X-H torsion
[ 10763 10752 10751 10750 ] final  134.72 input  -60.55 | X-H torsion
[ 11005 11000 10999 10996 ] final -120.25 input  -57.11 | X-H torsion

> <Gold.Protein.ActiveResidues>
 VAL166  LYS551  ARG553  GLY616  TRP617  ASP618  TYR619  PRO620  LYS621  CYS622 
 ASP623  PHE694  ASN695  SER759  ASP760  ASP761  ALA762  ILE779  LEU786  VAL792 
 PHE793  MET794  SER795  GLU796  ALA797  LYS798  CYS799  TRP800  GLU811  SER814 

> <Gold.Protein.RotatedAtoms>
  151.2314  135.0556  159.8988 H   0  0  0  0  0  0  0  0  0  0  0  0  # atno 6907 bound_to 6896
  152.5404  134.0533  159.8130 H   0  0  0  0  0  0  0  0  0  0  0  0  # atno 6908 bound_to 6896
  151.0713  133.5415  159.2658 H   0  0  0  0  0  0  0  0  0  0  0  0  # atno 6909 bound_to 6896
  144.8790  140.6479  143.5218 H   0  0  0  0  0  0  0  0  0  0  0  0  # atno 7974 bound_to 7965
  156.2213  140.2993  155.9959 H   0  0  0  0  0  0  0  0  0  0  0  0  # atno 8008 bound_to 7997
  155.2474  140.0424  157.2999 H   0  0  0  0  0  0  0  0  0  0  0  0  # atno 8009 bound_to 7997
  154.5845  140.2384  155.8015 H   0  0  0  0  0  0  0  0  0  0  0  0  # atno 8010 bound_to 7997
  139.6568  143.9984  152.2199 H   0  0  0  0  0  0  0  0  0  0  0  0  # atno 10167 bound_to 10162
  156.5950  130.4809  149.6263 H   0  0  0  0  0  0  0  0  0  0  0  0  # atno 10718 bound_to 10713
  153.8282  135.3107  155.3416 H   0  0  0  0  0  0  0  0  0  0  0  0  # atno 10763 bound_to 10752
  154.7984  135.4741  154.0219 H   0  0  0  0  0  0  0  0  0  0  0  0  # atno 10764 bound_to 10752
  153.1650  135.6868  153.8778 H   0  0  0  0  0  0  0  0  0  0  0  0  # atno 10765 bound_to 10752
  141.0157  134.0199  157.3353 H   0  0  0  0  0  0  0  0  0  0  0  0  # atno 11005 bound_to 11000
  145.3989  139.1601  143.4188 LP  0  0  0  0  0  0  0  0  0  0  0  0  # atno 17320 bound_to 7965
  146.2982  140.4084  142.8714 LP  0  0  0  0  0  0  0  0  0  0  0  0  # atno 17321 bound_to 7965
  139.9712  144.6492  150.7987 LP  0  0  0  0  0  0  0  0  0  0  0  0  # atno 17342 bound_to 10162
  140.7563  143.3063  151.2955 LP  0  0  0  0  0  0  0  0  0  0  0  0  # atno 17343 bound_to 10162
  156.2517  130.6911  151.1651 LP  0  0  0  0  0  0  0  0  0  0  0  0  # atno 17370 bound_to 10713
  157.7294  131.0624  150.5775 LP  0  0  0  0  0  0  0  0  0  0  0  0  # atno 17371 bound_to 10713
  139.9115  135.0191  156.7712 LP  0  0  0  0  0  0  0  0  0  0  0  0  # atno 17394 bound_to 11000
  140.6659  133.9603  155.7830 LP  0  0  0  0  0  0  0  0  0  0  0  0  # atno 17395 bound_to 11000

$$$$
