AV-unprocessed.smi:1840|AV-procd|sdf|7491|dock7
  -GOLD-   22720 9193D 1   1.00000     0.00000
 Structure written by MMmdl.
 43 44  0  0  0  0  0  0  0  0  1 V2000
  151.5166  138.0813  155.7914 C   0  0  0  0  0  0  0  0  0  0  0  0
  150.1196  138.4566  155.2791 C   0  0  1  0  0  0  0  0  0  0  0  0
  150.1699  139.6969  154.3598 C   0  0  0  0  0  0  0  0  0  0  0  0
  148.8768  140.3440  154.2180 N   0  0  0  0  0  0  0  0  0  0  0  0
  148.5417  141.6560  154.4815 C   0  0  0  0  0  0  0  0  0  0  0  0
  147.2213  141.8086  154.1699 C   0  0  0  0  0  0  0  0  0  0  0  0
  146.8285  140.5156  153.7244 C   0  0  0  0  0  0  0  0  0  0  0  0
  147.8204  139.6402  153.7578 N   0  0  0  0  0  0  0  0  0  0  0  0
  149.5486  137.3138  154.5676 N   0  0  0  0  0  0  0  0  0  0  0  0
  149.0198  136.2248  155.1443 C   0  0  0  0  0  0  0  0  0  0  0  0
  149.0330  136.0048  156.3553 O   0  0  0  0  0  0  0  0  0  0  0  0
  148.4307  135.4271  154.2439 N   0  0  0  0  0  0  0  0  0  0  0  0
  147.6643  134.2201  154.5552 C   0  0  1  0  0  0  0  0  0  0  0  0
  146.2044  134.3456  154.0616 C   0  0  0  0  0  0  0  0  0  0  0  0
  146.1099  134.3361  152.5267 C   0  0  0  0  0  0  0  0  0  0  0  0
  146.7796  133.0847  151.9400 C   0  0  0  0  0  0  0  0  0  0  0  0
  148.2365  132.9530  152.4134 C   0  0  0  0  0  0  0  0  0  0  0  0
  148.3394  132.9625  153.9536 C   0  0  1  0  0  0  0  0  0  0  0  0
  149.7928  132.7817  154.4247 C   0  0  0  0  0  0  0  0  0  0  0  0
  151.9620  138.9038  156.3516 H   0  0  0  0  0  0  0  0  0  0  0  0
  152.1898  137.8357  154.9693 H   0  0  0  0  0  0  0  0  0  0  0  0
  151.4719  137.2178  156.4562 H   0  0  0  0  0  0  0  0  0  0  0  0
  149.5092  138.6936  156.1525 H   0  0  0  0  0  0  0  0  0  0  0  0
  150.8743  140.4302  154.7554 H   0  0  0  0  0  0  0  0  0  0  0  0
  150.5321  139.4230  153.3680 H   0  0  0  0  0  0  0  0  0  0  0  0
  149.2654  142.3664  154.8529 H   0  0  0  0  0  0  0  0  0  0  0  0
  146.6276  142.7074  154.2450 H   0  0  0  0  0  0  0  0  0  0  0  0
  145.8585  140.1896  153.3791 H   0  0  0  0  0  0  0  0  0  0  0  0
  149.4897  137.3912  153.5628 H   0  0  0  0  0  0  0  0  0  0  0  0
  148.4739  135.6956  153.2718 H   0  0  0  0  0  0  0  0  0  0  0  0
  147.6493  134.1064  155.6408 H   0  0  0  0  0  0  0  0  0  0  0  0
  145.6217  133.5133  154.4585 H   0  0  0  0  0  0  0  0  0  0  0  0
  145.7382  135.2493  154.4561 H   0  0  0  0  0  0  0  0  0  0  0  0
  145.0645  134.3763  152.2198 H   0  0  0  0  0  0  0  0  0  0  0  0
  146.5828  135.2316  152.1214 H   0  0  0  0  0  0  0  0  0  0  0  0
  146.2184  132.1980  152.2376 H   0  0  0  0  0  0  0  0  0  0  0  0
  146.7446  133.1208  150.8507 H   0  0  0  0  0  0  0  0  0  0  0  0
  148.6625  132.0301  152.0187 H   0  0  0  0  0  0  0  0  0  0  0  0
  148.8300  133.7666  151.9944 H   0  0  0  0  0  0  0  0  0  0  0  0
  147.7838  132.0970  154.3183 H   0  0  0  0  0  0  0  0  0  0  0  0
  150.4400  133.5794  154.0591 H   0  0  0  0  0  0  0  0  0  0  0  0
  150.2036  131.8369  154.0677 H   0  0  0  0  0  0  0  0  0  0  0  0
  149.8534  132.7753  155.5133 H   0  0  0  0  0  0  0  0  0  0  0  0
  1  2  1  0  0  0  0
  1 20  1  0  0  0  0
  1 21  1  0  0  0  0
  1 22  1  0  0  0  0
  2  3  1  0  0  0  0
  2  9  1  0  0  0  0
  2 23  1  0  0  0  0
  3  4  1  0  0  0  0
  3 24  1  0  0  0  0
  3 25  1  0  0  0  0
  4  8  1  0  0  0  0
  4  5  1  0  0  0  0
  5  6  2  0  0  0  0
  5 26  1  0  0  0  0
  6  7  1  0  0  0  0
  6 27  1  0  0  0  0
  7  8  2  0  0  0  0
  7 28  1  0  0  0  0
  9 10  1  0  0  0  0
  9 29  1  0  0  0  0
 10 11  2  0  0  0  0
 10 12  1  0  0  0  0
 12 13  1  0  0  0  0
 12 30  1  0  0  0  0
 13 18  1  0  0  0  0
 13 14  1  0  0  0  0
 13 31  1  0  0  0  0
 14 15  1  0  0  0  0
 14 32  1  0  0  0  0
 14 33  1  0  0  0  0
 15 16  1  0  0  0  0
 15 34  1  0  0  0  0
 15 35  1  0  0  0  0
 16 17  1  0  0  0  0
 16 36  1  0  0  0  0
 16 37  1  0  0  0  0
 17 18  1  0  0  0  0
 17 38  1  0  0  0  0
 17 39  1  0  0  0  0
 18 19  1  0  0  0  0
 18 40  1  0  0  0  0
 19 41  1  0  0  0  0
 19 42  1  0  0  0  0
 19 43  1  0  0  0  0
M  END
> <s_m_source_file>
AV-unprocessed.smi

> <i_m_source_file_index>
1840

> <i_lp_mmshare_version>
43012

> <i_f3d_flags>
0

> <s_epik_input>
bjFbY0hdW2NIXVtjSF1uMVtDSDJdW0NAQEhdKFtDSDNdKVtOSF1DKD1PKVtOSF1bQ0BASF0yW0NIMl1bQ0gyXVtDSDJdW0NIMl1bQ0BIXTJbQ0gzXQ==

> <s_epik_cmdline>
J2VwaWtfcHl0aG9uJywgJy1waCcsICc3LjAnLCAnLXRuJywgJzgnLCAnLW1hJywgJzIwMCcsICctbWV0YWxfYmluZGluZycsICctaW1hZScsICc8aW5maWxlLm1hZT4nLCAnLW9tYWUnLCAnPG91dGZpbGUubWFlPic=

> <r_lp_tautomer_probability>
1

> <r_epik_Ionization_Penalty>
7.38659e-05

> <r_epik_Ionization_Penalty_Charging>
0

> <r_epik_Ionization_Penalty_Neutral>
7.38659e-05

> <r_epik_State_Penalty>
-0

> <r_epik_Charging_Adjusted_Penalty>
0

> <i_epik_Tot_Q>
0

> <i_epik_Tot_abs_Q>
0

> <r_epik_Metal_State_Penalty>
-0

> <b_epik_Metal_Only>
0

> <s_lp_Force_Field>
OPLS_2005

> <r_lp_Energy>
6.83703

> <b_lp_Chiralities_Consistent>
1

> <s_lp_Variant>
AV-unprocessed.smi:1840-4

> <Gold.Version>
5.8.1

> <Gold.Id.Protein>
6NUR|6NUR_protein|mol2

> <Gold.PLP.Fitness>
39.5501

> <Gold.PLP.PLP>
-29.1915

> <Gold.PLP.part.hbond>
-2.0000

> <Gold.PLP.part.metal>
0.0000

> <Gold.PLP.part.buried>
0.4369

> <Gold.PLP.part.nonpolar>
-27.9758

> <Gold.PLP.part.repulsive>
0.2142

> <Gold.PLP.ligand.clash>
0.0000

> <Gold.PLP.ligand.torsion>
0.4324

> <Gold.PLP.Chemscore.Hbond>
1.7436

> <Gold.PLP.Chemscore.CHOScore>
1.9846

> <Gold.PLP.Chemscore.Metal>
0.0000

> <Gold.Chemscore.Hbonds>
donor molecule, donor type, donor heavy atom, donor atom, acceptor molecule, acceptor atom, score
      L1  H     9    29       P1  7948  0.68
      L1  H    12    30       P1  7948  1.00
      L1  C     5    26       P1  8028  0.96
      L1  C     7    28       P1 10175  1.00

> <Gold.PLP.Chemscore.Internal.Correction>
0.0388

> <Gold.Rescore>
     Score         DG    S(hbond)    S(metal)    S(lipo)     H(rot)  DE(clash)    DE(int)     intcor
     15.13     -15.63       1.82        0.00      68.91       1.56       0.02       0.47       ----

> <Gold.Chemscore.Fitness>
15.1296

> <Gold.Chemscore.DG>
-15.6258

> <Gold.Chemscore.ZeroCoef>
-5.4800

> <Gold.Chemscore.Hbond>
1.8177

> <Gold.Chemscore.Metal>
0.0000

> <Gold.Chemscore.Lipo>
68.9088

> <Gold.Chemscore.Internal_Hbond>
0.0000

> <Gold.Chemscore.DEClash>
0.0212

> <Gold.Chemscore.DEInternal>
0.4750

> <Gold.Chemscore.Rot>
1.5576

> <Gold.Chemscore.Internal.Correction>
   9.000000E+99

> <Gold.Chemscore.Hbonds>
donor molecule, donor type, donor heavy atom, donor atom, acceptor molecule, acceptor atom, score
      L1  H     9    29       P1  7948  0.62
      L1  H    12    30       P1  7948  0.96

> <Gold.Chemscore.Hbond.Weighted>
-6.0710

> <Gold.Chemscore.Metal.Weighted>
-0.0000

> <Gold.Chemscore.Lipo.Weighted>
-8.0623

> <Gold.Chemscore.Internal_Hbond.Weighted>
0.0000

> <Gold.Chemscore.DEClash.Weighted>
0.0212

> <Gold.Chemscore.DEInternal.Weighted>
0.4750

> <Gold.Chemscore.Rot.Weighted>
3.9875

> <Gold.Chemscore.Internal.Correction.Weighted>
   9.000000E+99

> <Gold.Protein.RotatedTorsions>
[ 6907 6896 6895 6894 ] final -169.63 input  -60.11 | X-H torsion
[ 7974 7965 7964 7962 ] final -125.51 input  175.53 | X-H torsion
[ 8008 7997 7996 7995 ] final -113.57 input   59.86 | X-H torsion
[ 10167 10162 10161 10158 ] final   54.86 input  -65.29 | X-H torsion
[ 10718 10713 10712 10709 ] final  178.61 input   66.30 | X-H torsion
[ 10763 10752 10751 10750 ] final  -67.25 input  -60.55 | X-H torsion
[ 11005 11000 10999 10996 ] final  -92.39 input  -57.11 | X-H torsion

> <Gold.Protein.ActiveResidues>
 VAL166  LYS551  ARG553  GLY616  TRP617  ASP618  TYR619  PRO620  LYS621  CYS622 
 ASP623  PHE694  ASN695  SER759  ASP760  ASP761  ALA762  ILE779  LEU786  VAL792 
 PHE793  MET794  SER795  GLU796  ALA797  LYS798  CYS799  TRP800  GLU811  SER814 

> <Gold.Protein.RotatedAtoms>
  151.4948  133.3517  159.2858 H   0  0  0  0  0  0  0  0  0  0  0  0  # atno 6907 bound_to 6896
  150.8811  134.8204  159.7236 H   0  0  0  0  0  0  0  0  0  0  0  0  # atno 6908 bound_to 6896
  152.4763  134.4845  159.9728 H   0  0  0  0  0  0  0  0  0  0  0  0  # atno 6909 bound_to 6896
  144.9968  140.7783  143.4520 H   0  0  0  0  0  0  0  0  0  0  0  0  # atno 7974 bound_to 7965
  155.0228  140.0393  157.2444 H   0  0  0  0  0  0  0  0  0  0  0  0  # atno 8008 bound_to 7997
  154.7363  140.2740  155.6388 H   0  0  0  0  0  0  0  0  0  0  0  0  # atno 8009 bound_to 7997
  156.2854  140.2674  156.2078 H   0  0  0  0  0  0  0  0  0  0  0  0  # atno 8010 bound_to 7997
  140.2256  144.3742  150.6434 H   0  0  0  0  0  0  0  0  0  0  0  0  # atno 10167 bound_to 10162
  156.8881  130.9838  151.3053 H   0  0  0  0  0  0  0  0  0  0  0  0  # atno 10718 bound_to 10713
  154.3718  135.6093  153.5744 H   0  0  0  0  0  0  0  0  0  0  0  0  # atno 10763 bound_to 10752
  152.9790  135.5840  154.4513 H   0  0  0  0  0  0  0  0  0  0  0  0  # atno 10764 bound_to 10752
  154.4268  135.2847  155.1916 H   0  0  0  0  0  0  0  0  0  0  0  0  # atno 10765 bound_to 10752
  141.1523  133.7818  157.0014 H   0  0  0  0  0  0  0  0  0  0  0  0  # atno 11005 bound_to 11000
  145.2209  139.2160  143.5094 LP  0  0  0  0  0  0  0  0  0  0  0  0  # atno 17320 bound_to 7965
  146.3443  140.2066  142.8589 LP  0  0  0  0  0  0  0  0  0  0  0  0  # atno 17321 bound_to 7965
  140.6223  143.2177  151.6669 LP  0  0  0  0  0  0  0  0  0  0  0  0  # atno 17342 bound_to 10162
  139.5128  144.3463  152.0693 LP  0  0  0  0  0  0  0  0  0  0  0  0  # atno 17343 bound_to 10162
  157.6100  130.8576  149.8937 LP  0  0  0  0  0  0  0  0  0  0  0  0  # atno 17370 bound_to 10713
  156.0643  130.3695  150.0913 LP  0  0  0  0  0  0  0  0  0  0  0  0  # atno 17371 bound_to 10713
  140.0938  134.9577  157.1817 LP  0  0  0  0  0  0  0  0  0  0  0  0  # atno 17394 bound_to 11000
  140.3410  134.2703  155.7212 LP  0  0  0  0  0  0  0  0  0  0  0  0  # atno 17395 bound_to 11000

$$$$
