AV-unprocessed.smi:1596|AV-procd|sdf|6418|dock3
  -GOLD-   22720 7 53D 1   1.00000     0.00000
 Structure written by MMmdl.
 48 49  0  0  0  0  0  0  0  0  1 V2000
  152.4739  143.0327  161.3253 C   0  0  0  0  0  0  0  0  0  0  0  0
  153.2430  142.8076  160.0145 C   0  0  0  0  0  0  0  0  0  0  0  0
  152.3778  142.8168  158.8320 N   0  0  0  0  0  0  0  0  0  0  0  0
  151.8259  144.0891  158.3660 C   0  0  0  0  0  0  0  0  0  0  0  0
  152.1992  145.2749  159.2667 C   0  0  0  0  0  0  0  0  0  0  0  0
  151.9646  141.5927  158.2485 C   0  0  0  0  0  0  0  0  0  0  0  0
  152.5822  140.3596  158.5772 C   0  0  0  0  0  0  0  0  0  0  0  0
  152.1260  139.1712  157.9750 C   0  0  0  0  0  0  0  0  0  0  0  0
  151.0602  139.2352  157.0480 C   0  0  0  0  0  0  0  0  0  0  0  0
  150.4889  138.1143  156.3846 N   0  0  0  0  0  0  0  0  0  0  0  0
  151.0541  136.9396  156.0566 C   0  0  0  0  0  0  0  0  0  0  0  0
  152.2348  136.6392  156.2294 O   0  0  0  0  0  0  0  0  0  0  0  0
  150.1582  136.1157  155.4942 N   0  0  0  0  0  0  0  0  0  0  0  0
  150.4314  134.7579  155.0317 C   0  0  2  0  0  0  0  0  0  0  0  0
  149.1862  134.1957  154.3192 C   0  0  0  0  0  0  0  0  0  0  0  0
  149.3995  132.7402  153.8734 C   0  0  0  0  0  0  0  0  0  0  0  0
  149.7972  131.8501  155.0630 C   0  0  1  0  0  0  0  0  0  0  0  0
  150.0473  130.5368  154.6084 O   0  0  0  0  0  0  0  0  0  0  0  0
  151.0499  132.3984  155.7672 C   0  0  0  0  0  0  0  0  0  0  0  0
  150.8424  133.8545  156.2139 C   0  0  0  0  0  0  0  0  0  0  0  0
  150.5056  140.5028  156.7867 C   0  0  0  0  0  0  0  0  0  0  0  0
  150.9405  141.6426  157.3618 N   0  0  0  0  0  0  0  0  0  0  0  0
  153.1551  143.0132  162.1757 H   0  0  0  0  0  0  0  0  0  0  0  0
  151.7239  142.2587  161.4886 H   0  0  0  0  0  0  0  0  0  0  0  0
  151.9662  143.9961  161.3353 H   0  0  0  0  0  0  0  0  0  0  0  0
  153.9948  143.5901  159.9083 H   0  0  0  0  0  0  0  0  0  0  0  0
  153.8034  141.8736  160.0626 H   0  0  0  0  0  0  0  0  0  0  0  0
  152.1971  144.2815  157.3590 H   0  0  0  0  0  0  0  0  0  0  0  0
  150.7441  144.0169  158.2557 H   0  0  0  0  0  0  0  0  0  0  0  0
  151.7221  146.1887  158.9119 H   0  0  0  0  0  0  0  0  0  0  0  0
  153.2742  145.4508  159.2698 H   0  0  0  0  0  0  0  0  0  0  0  0
  151.8810  145.1144  160.2969 H   0  0  0  0  0  0  0  0  0  0  0  0
  153.4012  140.2945  159.2763 H   0  0  0  0  0  0  0  0  0  0  0  0
  152.5999  138.2428  158.2497 H   0  0  0  0  0  0  0  0  0  0  0  0
  149.5218  138.2251  156.1171 H   0  0  0  0  0  0  0  0  0  0  0  0
  149.2115  136.4488  155.3858 H   0  0  0  0  0  0  0  0  0  0  0  0
  151.2492  134.7870  154.3089 H   0  0  0  0  0  0  0  0  0  0  0  0
  148.3238  134.2446  154.9856 H   0  0  0  0  0  0  0  0  0  0  0  0
  148.9423  134.8107  153.4522 H   0  0  0  0  0  0  0  0  0  0  0  0
  148.4895  132.3602  153.4077 H   0  0  0  0  0  0  0  0  0  0  0  0
  150.1767  132.7068  153.1083 H   0  0  0  0  0  0  0  0  0  0  0  0
  148.9714  131.8066  155.7745 H   0  0  0  0  0  0  0  0  0  0  0  0
  150.1741  129.9776  155.3595 H   0  0  0  0  0  0  0  0  0  0  0  0
  151.2963  131.7797  156.6309 H   0  0  0  0  0  0  0  0  0  0  0  0
  151.9068  132.3471  155.0940 H   0  0  0  0  0  0  0  0  0  0  0  0
  151.7592  134.2270  156.6725 H   0  0  0  0  0  0  0  0  0  0  0  0
  150.0751  133.8879  156.9886 H   0  0  0  0  0  0  0  0  0  0  0  0
  149.6841  140.6098  156.0935 H   0  0  0  0  0  0  0  0  0  0  0  0
  1  2  1  0  0  0  0
  1 23  1  0  0  0  0
  1 24  1  0  0  0  0
  1 25  1  0  0  0  0
  2  3  1  0  0  0  0
  2 26  1  0  0  0  0
  2 27  1  0  0  0  0
  3  4  1  0  0  0  0
  3  6  1  0  0  0  0
  4  5  1  0  0  0  0
  4 28  1  0  0  0  0
  4 29  1  0  0  0  0
  5 30  1  0  0  0  0
  5 31  1  0  0  0  0
  5 32  1  0  0  0  0
  6 22  1  0  0  0  0
  6  7  2  0  0  0  0
  7  8  1  0  0  0  0
  7 33  1  0  0  0  0
  8  9  2  0  0  0  0
  8 34  1  0  0  0  0
  9 10  1  0  0  0  0
  9 21  1  0  0  0  0
 10 11  1  0  0  0  0
 10 35  1  0  0  0  0
 11 12  2  0  0  0  0
 11 13  1  0  0  0  0
 13 14  1  0  0  0  0
 13 36  1  0  0  0  0
 14 20  1  0  0  0  0
 14 15  1  0  0  0  0
 14 37  1  0  0  0  0
 15 16  1  0  0  0  0
 15 38  1  0  0  0  0
 15 39  1  0  0  0  0
 16 17  1  0  0  0  0
 16 40  1  0  0  0  0
 16 41  1  0  0  0  0
 17 18  1  0  0  0  0
 17 19  1  0  0  0  0
 17 42  1  0  0  0  0
 18 43  1  0  0  0  0
 19 20  1  0  0  0  0
 19 44  1  0  0  0  0
 19 45  1  0  0  0  0
 20 46  1  0  0  0  0
 20 47  1  0  0  0  0
 21 22  2  0  0  0  0
 21 48  1  0  0  0  0
M  END
> <s_m_source_file>
AV-unprocessed.smi

> <i_m_source_file_index>
1596

> <i_lp_mmshare_version>
43012

> <i_f3d_flags>
0

> <s_epik_input>
W0NIM11bQ0gyXU4oW0NIMl1bQ0gzXSljMVtjSF1bY0hdYyhbY0hdbjEpW05IXUMoPU8pW05IXVtDQEBIXTJbQ0gyXVtDSDJdW0NAQEhdKFtPSF0pW0NIMl1bQ0gyXTI=

> <s_epik_cmdline>
J2VwaWtfcHl0aG9uJywgJy1waCcsICc3LjAnLCAnLXRuJywgJzgnLCAnLW1hJywgJzIwMCcsICctbWV0YWxfYmluZGluZycsICctaW1hZScsICc8aW5maWxlLm1hZT4nLCAnLW9tYWUnLCAnPG91dGZpbGUubWFlPic=

> <r_lp_tautomer_probability>
1

> <r_epik_Ionization_Penalty>
0.709395

> <r_epik_Ionization_Penalty_Charging>
0

> <r_epik_Ionization_Penalty_Neutral>
0.709395

> <r_epik_State_Penalty>
2.20721

> <r_epik_Charging_Adjusted_Penalty>
2.20721

> <i_epik_Tot_Q>
0

> <i_epik_Tot_abs_Q>
0

> <r_epik_Metal_State_Penalty>
1.55411

> <b_epik_Metal_Only>
0

> <s_lp_Force_Field>
OPLS_2005

> <r_lp_Energy>
16.3842

> <b_lp_Chiralities_Consistent>
1

> <s_lp_Variant>
AV-unprocessed.smi:1596-3

> <Gold.Version>
5.8.1

> <Gold.Id.Protein>
6NUR|6NUR_protein|mol2

> <Gold.PLP.Fitness>
45.4093

> <Gold.PLP.PLP>
-43.3164

> <Gold.PLP.part.hbond>
-1.0000

> <Gold.PLP.part.metal>
0.0000

> <Gold.PLP.part.buried>
-5.6751

> <Gold.PLP.part.nonpolar>
-36.7871

> <Gold.PLP.part.repulsive>
0.1029

> <Gold.PLP.ligand.clash>
0.0000

> <Gold.PLP.ligand.torsion>
0.5062

> <Gold.PLP.Chemscore.Hbond>
1.0000

> <Gold.PLP.Chemscore.CHOScore>
0.0000

> <Gold.PLP.Chemscore.Metal>
0.0000

> <Gold.Chemscore.Hbonds>
donor molecule, donor type, donor heavy atom, donor atom, acceptor molecule, acceptor atom, score
      P1  H 10752 10765       L1    12  1.00

> <Gold.PLP.Chemscore.Internal.Correction>
0.1052

> <Gold.Rescore>
     Score         DG    S(hbond)    S(metal)    S(lipo)     H(rot)  DE(clash)    DE(int)     intcor
     15.17     -16.57       0.93        0.00     107.58       1.80       0.13       1.27       ----

> <Gold.Chemscore.Fitness>
15.1672

> <Gold.Chemscore.DG>
-16.5684

> <Gold.Chemscore.ZeroCoef>
-5.4800

> <Gold.Chemscore.Hbond>
0.9339

> <Gold.Chemscore.Metal>
0.0000

> <Gold.Chemscore.Lipo>
107.5788

> <Gold.Chemscore.Internal_Hbond>
0.0000

> <Gold.Chemscore.DEClash>
0.1315

> <Gold.Chemscore.DEInternal>
1.2696

> <Gold.Chemscore.Rot>
1.8038

> <Gold.Chemscore.Internal.Correction>
   9.000000E+99

> <Gold.Chemscore.Hbonds>
donor molecule, donor type, donor heavy atom, donor atom, acceptor molecule, acceptor atom, score
      P1  H 10752 10765       L1    12  0.99

> <Gold.Chemscore.Hbond.Weighted>
-3.1193

> <Gold.Chemscore.Metal.Weighted>
-0.0000

> <Gold.Chemscore.Lipo.Weighted>
-12.5867

> <Gold.Chemscore.Internal_Hbond.Weighted>
0.0000

> <Gold.Chemscore.DEClash.Weighted>
0.1315

> <Gold.Chemscore.DEInternal.Weighted>
1.2696

> <Gold.Chemscore.Rot.Weighted>
4.6176

> <Gold.Chemscore.Internal.Correction.Weighted>
   9.000000E+99

> <Gold.Protein.RotatedTorsions>
[ 6907 6896 6895 6894 ] final  -20.49 input  -60.11 | X-H torsion
[ 7974 7965 7964 7962 ] final -138.53 input  175.53 | X-H torsion
[ 8008 7997 7996 7995 ] final -106.28 input   59.86 | X-H torsion
[ 10167 10162 10161 10158 ] final  172.97 input  -65.29 | X-H torsion
[ 10718 10713 10712 10709 ] final   -3.80 input   66.30 | X-H torsion
[ 10763 10752 10751 10750 ] final -146.68 input  -60.55 | X-H torsion
[ 11005 11000 10999 10996 ] final -127.87 input  -57.11 | X-H torsion

> <Gold.Protein.ActiveResidues>
 VAL166  LYS551  ARG553  GLY616  TRP617  ASP618  TYR619  PRO620  LYS621  CYS622 
 ASP623  PHE694  ASN695  SER759  ASP760  ASP761  ALA762  ILE779  LEU786  VAL792 
 PHE793  MET794  SER795  GLU796  ALA797  LYS798  CYS799  TRP800  GLU811  SER814 

> <Gold.Protein.RotatedAtoms>
  151.2474  135.0610  159.9048 H   0  0  0  0  0  0  0  0  0  0  0  0  # atno 6907 bound_to 6896
  152.5385  134.0369  159.8060 H   0  0  0  0  0  0  0  0  0  0  0  0  # atno 6908 bound_to 6896
  151.0572  133.5525  159.2668 H   0  0  0  0  0  0  0  0  0  0  0  0  # atno 6909 bound_to 6896
  144.8751  140.6425  143.5242 H   0  0  0  0  0  0  0  0  0  0  0  0  # atno 7974 bound_to 7965
  154.9123  140.0409  157.1953 H   0  0  0  0  0  0  0  0  0  0  0  0  # atno 8008 bound_to 7997
  154.8336  140.2903  155.5684 H   0  0  0  0  0  0  0  0  0  0  0  0  # atno 8009 bound_to 7997
  156.2988  140.2496  156.3266 H   0  0  0  0  0  0  0  0  0  0  0  0  # atno 8010 bound_to 7997
  139.5093  144.3313  152.0108 H   0  0  0  0  0  0  0  0  0  0  0  0  # atno 10167 bound_to 10162
  156.7707  130.5299  149.5768 H   0  0  0  0  0  0  0  0  0  0  0  0  # atno 10718 bound_to 10713
  154.8324  135.3380  154.6700 H   0  0  0  0  0  0  0  0  0  0  0  0  # atno 10763 bound_to 10752
  153.7318  135.6951  153.4992 H   0  0  0  0  0  0  0  0  0  0  0  0  # atno 10764 bound_to 10752
  153.2306  135.4417  155.0543 H   0  0  0  0  0  0  0  0  0  0  0  0  # atno 10765 bound_to 10752
  140.9563  134.0997  157.4013 H   0  0  0  0  0  0  0  0  0  0  0  0  # atno 11005 bound_to 11000
  145.4058  139.1589  143.4153 LP  0  0  0  0  0  0  0  0  0  0  0  0  # atno 17320 bound_to 7965
  146.2957  140.4158  142.8722 LP  0  0  0  0  0  0  0  0  0  0  0  0  # atno 17321 bound_to 7965
  140.2753  144.3920  150.6137 LP  0  0  0  0  0  0  0  0  0  0  0  0  # atno 17342 bound_to 10162
  140.6058  143.2167  151.6983 LP  0  0  0  0  0  0  0  0  0  0  0  0  # atno 17343 bound_to 10162
  156.1279  130.6157  151.0291 LP  0  0  0  0  0  0  0  0  0  0  0  0  # atno 17370 bound_to 10713
  157.6692  131.0865  150.7654 LP  0  0  0  0  0  0  0  0  0  0  0  0  # atno 17371 bound_to 10713
  139.8863  135.0080  156.6491 LP  0  0  0  0  0  0  0  0  0  0  0  0  # atno 17394 bound_to 11000
  140.7531  133.8880  155.8362 LP  0  0  0  0  0  0  0  0  0  0  0  0  # atno 17395 bound_to 11000

$$$$
