AV-unprocessed.smi:2815|AV-procd|sdf|10841|dock3
  -GOLD-   2272015283D 1   1.00000     0.00000
 Structure written by MMmdl.
 47 48  0  0  0  0  0  0  0  0  1 V2000
  151.4285  143.9860  158.5359 C   0  0  0  0  0  0  0  0  0  0  0  0
  151.6979  142.6040  158.6951 O   0  0  0  0  0  0  0  0  0  0  0  0
  150.6864  141.7866  158.1311 C   0  0  0  0  0  0  0  0  0  0  0  0
  150.4646  142.2031  156.6719 C   0  0  0  0  0  0  0  0  0  0  0  0
  150.2703  141.0491  155.8093 N   0  0  0  0  0  0  0  0  0  0  0  0
  151.2561  140.1219  155.7374 N   0  0  0  0  0  0  0  0  0  0  0  0
  150.8149  139.2038  154.8941 C   0  0  0  0  0  0  0  0  0  0  0  0
  151.6760  138.0184  154.5651 C   0  0  0  0  0  0  0  0  0  0  0  0
  149.5070  139.5220  154.4415 C   0  0  0  0  0  0  0  0  0  0  0  0
  148.7652  138.7379  153.5226 N   0  0  0  0  0  0  0  0  0  0  0  0
  147.4291  138.6897  153.4057 C   0  0  0  0  0  0  0  0  0  0  0  0
  146.6395  139.3567  154.0744 O   0  0  0  0  0  0  0  0  0  0  0  0
  147.0513  137.8007  152.4760 N   0  0  0  0  0  0  0  0  0  0  0  0
  145.6703  137.4985  152.1113 C   0  0  0  0  0  0  0  0  0  0  0  0
  144.7710  137.4569  153.3645 C   0  0  0  0  0  0  0  0  0  0  0  0
  143.3282  137.0625  153.0090 C   0  0  0  0  0  0  0  0  0  0  0  0
  143.2836  135.7255  152.2534 C   0  0  0  0  0  0  0  0  0  0  0  0
  144.1735  135.7670  151.0016 C   0  0  0  0  0  0  0  0  0  0  0  0
  145.6175  136.1561  151.3572 C   0  0  0  0  0  0  0  0  0  0  0  0
  149.1849  140.7284  155.0062 C   0  0  0  0  0  0  0  0  0  0  0  0
  147.9876  141.6186  154.8718 C   0  0  0  0  0  0  0  0  0  0  0  0
  152.2315  144.5699  158.9856 H   0  0  0  0  0  0  0  0  0  0  0  0
  150.4945  144.2652  159.0250 H   0  0  0  0  0  0  0  0  0  0  0  0
  151.3662  144.2564  157.4810 H   0  0  0  0  0  0  0  0  0  0  0  0
  150.9833  140.7376  158.1802 H   0  0  0  0  0  0  0  0  0  0  0  0
  149.7614  141.8945  158.6995 H   0  0  0  0  0  0  0  0  0  0  0  0
  149.6001  142.8613  156.5863 H   0  0  0  0  0  0  0  0  0  0  0  0
  151.3221  142.7758  156.3147 H   0  0  0  0  0  0  0  0  0  0  0  0
  151.3384  137.5220  153.6553 H   0  0  0  0  0  0  0  0  0  0  0  0
  151.6536  137.2851  155.3711 H   0  0  0  0  0  0  0  0  0  0  0  0
  152.7142  138.3140  154.4117 H   0  0  0  0  0  0  0  0  0  0  0  0
  149.2911  138.0547  152.9977 H   0  0  0  0  0  0  0  0  0  0  0  0
  147.7715  137.2952  151.9814 H   0  0  0  0  0  0  0  0  0  0  0  0
  145.3038  138.2774  151.4398 H   0  0  0  0  0  0  0  0  0  0  0  0
  145.1736  136.7428  154.0843 H   0  0  0  0  0  0  0  0  0  0  0  0
  144.7697  138.4276  153.8612 H   0  0  0  0  0  0  0  0  0  0  0  0
  142.7271  136.9966  153.9161 H   0  0  0  0  0  0  0  0  0  0  0  0
  142.8776  137.8435  152.3957 H   0  0  0  0  0  0  0  0  0  0  0  0
  143.6159  134.9221  152.9121 H   0  0  0  0  0  0  0  0  0  0  0  0
  142.2565  135.4912  151.9728 H   0  0  0  0  0  0  0  0  0  0  0  0
  144.1615  134.7966  150.5048 H   0  0  0  0  0  0  0  0  0  0  0  0
  143.7672  136.4848  150.2878 H   0  0  0  0  0  0  0  0  0  0  0  0
  146.2154  136.2145  150.4470 H   0  0  0  0  0  0  0  0  0  0  0  0
  146.0621  135.3699  151.9692 H   0  0  0  0  0  0  0  0  0  0  0  0
  147.4893  141.4622  153.9157 H   0  0  0  0  0  0  0  0  0  0  0  0
  148.2612  142.6717  154.9187 H   0  0  0  0  0  0  0  0  0  0  0  0
  147.2677  141.4203  155.6658 H   0  0  0  0  0  0  0  0  0  0  0  0
  1  2  1  0  0  0  0
  1 22  1  0  0  0  0
  1 23  1  0  0  0  0
  1 24  1  0  0  0  0
  2  3  1  0  0  0  0
  3  4  1  0  0  0  0
  3 25  1  0  0  0  0
  3 26  1  0  0  0  0
  4  5  1  0  0  0  0
  4 27  1  0  0  0  0
  4 28  1  0  0  0  0
  5 20  1  0  0  0  0
  5  6  1  0  0  0  0
  6  7  2  0  0  0  0
  7  8  1  0  0  0  0
  7  9  1  0  0  0  0
  8 29  1  0  0  0  0
  8 30  1  0  0  0  0
  8 31  1  0  0  0  0
  9 10  1  0  0  0  0
  9 20  2  0  0  0  0
 10 11  1  0  0  0  0
 10 32  1  0  0  0  0
 11 12  2  0  0  0  0
 11 13  1  0  0  0  0
 13 14  1  0  0  0  0
 13 33  1  0  0  0  0
 14 19  1  0  0  0  0
 14 15  1  0  0  0  0
 14 34  1  0  0  0  0
 15 16  1  0  0  0  0
 15 35  1  0  0  0  0
 15 36  1  0  0  0  0
 16 17  1  0  0  0  0
 16 37  1  0  0  0  0
 16 38  1  0  0  0  0
 17 18  1  0  0  0  0
 17 39  1  0  0  0  0
 17 40  1  0  0  0  0
 18 19  1  0  0  0  0
 18 41  1  0  0  0  0
 18 42  1  0  0  0  0
 19 43  1  0  0  0  0
 19 44  1  0  0  0  0
 20 21  1  0  0  0  0
 21 45  1  0  0  0  0
 21 46  1  0  0  0  0
 21 47  1  0  0  0  0
M  END
> <s_m_source_file>
AV-unprocessed.smi

> <i_m_source_file_index>
2815

> <i_lp_mmshare_version>
43012

> <i_f3d_flags>
0

> <s_epik_input>
W0NIM11PW0NIMl1bQ0gyXW4xbmMoW0NIM10pYyhjMVtDSDNdKVtOSF1DKD1PKVtOSF1bQ0hdMltDSDJdW0NIMl1bQ0gyXVtDSDJdW0NIMl0y

> <s_epik_cmdline>
J2VwaWtfcHl0aG9uJywgJy1waCcsICc3LjAnLCAnLXRuJywgJzgnLCAnLW1hJywgJzIwMCcsICctbWV0YWxfYmluZGluZycsICctaW1hZScsICc8aW5maWxlLm1hZT4nLCAnLW9tYWUnLCAnPG91dGZpbGUubWFlPic=

> <r_lp_tautomer_probability>
1

> <r_epik_Ionization_Penalty>
0.00692603

> <r_epik_Ionization_Penalty_Charging>
0

> <r_epik_Ionization_Penalty_Neutral>
0.00692603

> <r_epik_State_Penalty>
0.00511675

> <r_epik_Charging_Adjusted_Penalty>
0.00511675

> <i_epik_Tot_Q>
0

> <i_epik_Tot_abs_Q>
0

> <r_epik_Metal_State_Penalty>
-0

> <b_epik_Metal_Only>
0

> <s_lp_Force_Field>
OPLS_2005

> <r_lp_Energy>
15.031

> <b_lp_Chiralities_Consistent>
1

> <s_lp_Variant>
AV-unprocessed.smi:2815-1

> <Gold.Version>
5.8.1

> <Gold.Id.Protein>
6NUR|6NUR_protein|mol2

> <Gold.PLP.Fitness>
47.2501

> <Gold.PLP.PLP>
-42.8127

> <Gold.PLP.part.hbond>
-3.9197

> <Gold.PLP.part.metal>
0.0000

> <Gold.PLP.part.buried>
-2.9721

> <Gold.PLP.part.nonpolar>
-37.0063

> <Gold.PLP.part.repulsive>
0.2945

> <Gold.PLP.ligand.clash>
0.0000

> <Gold.PLP.ligand.torsion>
0.7119

> <Gold.PLP.Chemscore.Hbond>
1.8424

> <Gold.PLP.Chemscore.CHOScore>
0.0000

> <Gold.PLP.Chemscore.Metal>
0.0000

> <Gold.Chemscore.Hbonds>
donor molecule, donor type, donor heavy atom, donor atom, acceptor molecule, acceptor atom, score
      L1  H    10    32       P1  7948  0.60
      L1  H    13    33       P1  7948  1.00

> <Gold.PLP.Chemscore.Internal.Correction>
0.3341

> <Gold.Rescore>
     Score         DG    S(hbond)    S(metal)    S(lipo)     H(rot)  DE(clash)    DE(int)     intcor
     14.56     -18.49       1.91        0.00      89.58       1.50       0.07       3.86       ----

> <Gold.Chemscore.Fitness>
14.5638

> <Gold.Chemscore.DG>
-18.4892

> <Gold.Chemscore.ZeroCoef>
-5.4800

> <Gold.Chemscore.Hbond>
1.9067

> <Gold.Chemscore.Metal>
0.0000

> <Gold.Chemscore.Lipo>
89.5836

> <Gold.Chemscore.Internal_Hbond>
0.0000

> <Gold.Chemscore.DEClash>
0.0700

> <Gold.Chemscore.DEInternal>
3.8555

> <Gold.Chemscore.Rot>
1.5002

> <Gold.Chemscore.Internal.Correction>
   9.000000E+99

> <Gold.Chemscore.Hbonds>
donor molecule, donor type, donor heavy atom, donor atom, acceptor molecule, acceptor atom, score
      L1  H    10    32       P1  7948  0.57
      L1  H    13    33       P1  7948  0.95

> <Gold.Chemscore.Hbond.Weighted>
-6.3684

> <Gold.Chemscore.Metal.Weighted>
-0.0000

> <Gold.Chemscore.Lipo.Weighted>
-10.4813

> <Gold.Chemscore.Internal_Hbond.Weighted>
0.0000

> <Gold.Chemscore.DEClash.Weighted>
0.0700

> <Gold.Chemscore.DEInternal.Weighted>
3.8555

> <Gold.Chemscore.Rot.Weighted>
3.8404

> <Gold.Chemscore.Internal.Correction.Weighted>
   9.000000E+99

> <Gold.Protein.RotatedTorsions>
[ 6907 6896 6895 6894 ] final -154.84 input  -60.11 | X-H torsion
[ 7974 7965 7964 7962 ] final  -43.43 input  175.53 | X-H torsion
[ 8008 7997 7996 7995 ] final  118.43 input   59.86 | X-H torsion
[ 10167 10162 10161 10158 ] final  141.04 input  -65.29 | X-H torsion
[ 10718 10713 10712 10709 ] final -113.73 input   66.30 | X-H torsion
[ 10763 10752 10751 10750 ] final  -29.16 input  -60.55 | X-H torsion
[ 11005 11000 10999 10996 ] final   18.54 input  -57.11 | X-H torsion

> <Gold.Protein.ActiveResidues>
 VAL166  LYS551  ARG553  GLY616  TRP617  ASP618  TYR619  PRO620  LYS621  CYS622 
 ASP623  PHE694  ASN695  SER759  ASP760  ASP761  ALA762  ILE779  LEU786  VAL792 
 PHE793  MET794  SER795  GLU796  ALA797  LYS798  CYS799  TRP800  GLU811  SER814 

> <Gold.Protein.RotatedAtoms>
  151.2635  133.4290  159.2617 H   0  0  0  0  0  0  0  0  0  0  0  0  # atno 6907 bound_to 6896
  151.0509  134.9672  159.8221 H   0  0  0  0  0  0  0  0  0  0  0  0  # atno 6908 bound_to 6896
  152.5382  134.2589  159.8980 H   0  0  0  0  0  0  0  0  0  0  0  0  # atno 6909 bound_to 6896
  146.0020  140.7063  142.9266 H   0  0  0  0  0  0  0  0  0  0  0  0  # atno 7974 bound_to 7965
  156.2546  140.2875  156.0833 H   0  0  0  0  0  0  0  0  0  0  0  0  # atno 8008 bound_to 7997
  155.1542  140.0398  157.2845 H   0  0  0  0  0  0  0  0  0  0  0  0  # atno 8009 bound_to 7997
  154.6439  140.2528  155.7297 H   0  0  0  0  0  0  0  0  0  0  0  0  # atno 8010 bound_to 7997
  139.5031  144.6196  151.6081 H   0  0  0  0  0  0  0  0  0  0  0  0  # atno 10167 bound_to 10162
  156.0785  130.5989  150.8681 H   0  0  0  0  0  0  0  0  0  0  0  0  # atno 10718 bound_to 10713
  153.7602  135.6920  153.4927 H   0  0  0  0  0  0  0  0  0  0  0  0  # atno 10763 bound_to 10752
  153.1944  135.4459  155.0188 H   0  0  0  0  0  0  0  0  0  0  0  0  # atno 10764 bound_to 10752
  154.8156  135.3397  154.7117 H   0  0  0  0  0  0  0  0  0  0  0  0  # atno 10765 bound_to 10752
  140.4237  134.1492  155.7675 H   0  0  0  0  0  0  0  0  0  0  0  0  # atno 11005 bound_to 11000
  144.6922  140.3249  143.7226 LP  0  0  0  0  0  0  0  0  0  0  0  0  # atno 17320 bound_to 7965
  145.7473  139.1782  143.2342 LP  0  0  0  0  0  0  0  0  0  0  0  0  # atno 17321 bound_to 7965
  140.5895  143.9805  150.6316 LP  0  0  0  0  0  0  0  0  0  0  0  0  # atno 17342 bound_to 10162
  140.2981  143.3279  152.0998 LP  0  0  0  0  0  0  0  0  0  0  0  0  # atno 17343 bound_to 10162
  157.5892  131.0945  150.9147 LP  0  0  0  0  0  0  0  0  0  0  0  0  # atno 17370 bound_to 10713
  156.9327  130.5355  149.5279 LP  0  0  0  0  0  0  0  0  0  0  0  0  # atno 17371 bound_to 10713
  141.1774  133.8486  157.1376 LP  0  0  0  0  0  0  0  0  0  0  0  0  # atno 17394 bound_to 11000
  140.0182  134.9958  157.0537 LP  0  0  0  0  0  0  0  0  0  0  0  0  # atno 17395 bound_to 11000

$$$$
