AV-unprocessed.smi:1994|AV-procd|sdf|8074|dock8
  -GOLD-   2272010283D 1   1.00000     0.00000
 Structure written by MMmdl.
 40 42  0  0  0  0  0  0  0  0  2 V2000
  147.5950  139.7368  153.4843 C   0  0  0  0  0  0  0  0  0  0  0  0
  146.9045  140.5619  154.5180 C   0  0  0  0  0  0  0  0  0  0  0  0
  145.6319  141.0429  154.4421 N   0  3  0  0  0  0  0  0  0  0  0  0
  145.3341  141.7740  155.5931 C   0  0  0  0  0  0  0  0  0  0  0  0
  144.1761  142.4478  155.9689 C   0  0  0  0  0  0  0  0  0  0  0  0
  144.2001  143.0986  157.2197 C   0  0  0  0  0  0  0  0  0  0  0  0
  145.3433  143.0619  158.0442 C   0  0  0  0  0  0  0  0  0  0  0  0
  146.5113  142.3743  157.6531 C   0  0  0  0  0  0  0  0  0  0  0  0
  146.4813  141.7361  156.4129 C   0  0  0  0  0  0  0  0  0  0  0  0
  147.4241  140.9769  155.7084 N   0  0  0  0  0  0  0  0  0  0  0  0
  148.7569  140.7403  156.2865 C   0  0  0  0  0  0  0  0  0  0  0  0
  149.8963  141.2746  155.3964 C   0  0  2  0  0  0  0  0  0  0  0  0
  150.5240  140.2043  154.7195 O   0  0  0  0  0  0  0  0  0  0  0  0
  150.9598  142.0376  156.1992 C   0  0  0  0  0  0  0  0  0  0  0  0
  151.5705  141.1400  157.1166 O   0  0  0  0  0  0  0  0  0  0  0  0
  152.1248  141.6563  158.2686 C   0  0  0  0  0  0  0  0  0  0  0  0
  152.1155  143.0333  158.6080 C   0  0  0  0  0  0  0  0  0  0  0  0
  152.7045  143.4761  159.8084 C   0  0  0  0  0  0  0  0  0  0  0  0
  153.3084  142.5532  160.6820 C   0  0  0  0  0  0  0  0  0  0  0  0
  153.3235  141.1854  160.3533 C   0  0  0  0  0  0  0  0  0  0  0  0
  152.7348  140.7412  159.1533 C   0  0  0  0  0  0  0  0  0  0  0  0
  152.7563  139.4216  158.8481 F   0  0  0  0  0  0  0  0  0  0  0  0
  146.9271  139.5320  152.6472 H   0  0  0  0  0  0  0  0  0  0  0  0
  147.9156  138.7869  153.9119 H   0  0  0  0  0  0  0  0  0  0  0  0
  148.4721  140.2634  153.1076 H   0  0  0  0  0  0  0  0  0  0  0  0
  143.2987  142.4757  155.3393 H   0  0  0  0  0  0  0  0  0  0  0  0
  143.3239  143.6357  157.5538 H   0  0  0  0  0  0  0  0  0  0  0  0
  145.3241  143.5713  158.9970 H   0  0  0  0  0  0  0  0  0  0  0  0
  147.3786  142.3500  158.2963 H   0  0  0  0  0  0  0  0  0  0  0  0
  148.7774  141.2393  157.2560 H   0  0  0  0  0  0  0  0  0  0  0  0
  148.8808  139.6776  156.4940 H   0  0  0  0  0  0  0  0  0  0  0  0
  149.4849  141.9417  154.6378 H   0  0  0  0  0  0  0  0  0  0  0  0
  149.8704  139.7465  154.2136 H   0  0  0  0  0  0  0  0  0  0  0  0
  151.7019  142.4701  155.5255 H   0  0  0  0  0  0  0  0  0  0  0  0
  150.4864  142.8515  156.7514 H   0  0  0  0  0  0  0  0  0  0  0  0
  151.6615  143.7714  157.9645 H   0  0  0  0  0  0  0  0  0  0  0  0
  152.6923  144.5266  160.0594 H   0  0  0  0  0  0  0  0  0  0  0  0
  153.7589  142.8937  161.6025 H   0  0  0  0  0  0  0  0  0  0  0  0
  153.7869  140.4749  161.0219 H   0  0  0  0  0  0  0  0  0  0  0  0
  145.0134  140.8824  153.6573 H   0  0  0  0  0  0  0  0  0  0  0  0
  1  2  1  0  0  0  0
  1 23  1  0  0  0  0
  1 24  1  0  0  0  0
  1 25  1  0  0  0  0
  2 10  1  0  0  0  0
  2  3  2  0  0  0  0
  3  4  1  0  0  0  0
  3 40  1  0  0  0  0
  4  9  2  0  0  0  0
  4  5  1  0  0  0  0
  5  6  2  0  0  0  0
  5 26  1  0  0  0  0
  6  7  1  0  0  0  0
  6 27  1  0  0  0  0
  7  8  2  0  0  0  0
  7 28  1  0  0  0  0
  8  9  1  0  0  0  0
  8 29  1  0  0  0  0
  9 10  1  0  0  0  0
 10 11  1  0  0  0  0
 11 12  1  0  0  0  0
 11 30  1  0  0  0  0
 11 31  1  0  0  0  0
 12 13  1  0  0  0  0
 12 14  1  0  0  0  0
 12 32  1  0  0  0  0
 13 33  1  0  0  0  0
 14 15  1  0  0  0  0
 14 34  1  0  0  0  0
 14 35  1  0  0  0  0
 15 16  1  0  0  0  0
 16 21  1  0  0  0  0
 16 17  2  0  0  0  0
 17 18  1  0  0  0  0
 17 36  1  0  0  0  0
 18 19  2  0  0  0  0
 18 37  1  0  0  0  0
 19 20  1  0  0  0  0
 19 38  1  0  0  0  0
 20 21  2  0  0  0  0
 20 39  1  0  0  0  0
 21 22  1  0  0  0  0
M  CHG  1   3   1
M  END
> <s_m_source_file>
AV-unprocessed.smi

> <i_m_source_file_index>
1994

> <i_lp_mmshare_version>
43012

> <i_f3d_flags>
0

> <s_epik_input>
W2NIXTFbY0hdW2NIXVtjSF1jKGMxMiluKGMobjIpW0NIM10pW0NIMl1bQ0BIXShbT0hdKVtDSDJdT2MzW2NIXVtjSF1bY0hdW2NIXWMzRg==

> <s_epik_cmdline>
J2VwaWtfcHl0aG9uJywgJy1waCcsICc3LjAnLCAnLXRuJywgJzgnLCAnLW1hJywgJzIwMCcsICctbWV0YWxfYmluZGluZycsICctaW1hZScsICc8aW5maWxlLm1hZT4nLCAnLW9tYWUnLCAnPG91dGZpbGUubWFlPic=

> <r_lp_tautomer_probability>
1

> <r_epik_Ionization_Penalty>
1.03916

> <r_epik_Ionization_Penalty_Charging>
1.03916

> <r_epik_Ionization_Penalty_Neutral>
2.3993e-06

> <r_epik_State_Penalty>
1.09101

> <r_epik_Charging_Adjusted_Penalty>
2.13018

> <i_epik_Tot_Q>
1

> <i_epik_Tot_abs_Q>
1

> <r_epik_Metal_State_Penalty>
5.08156

> <b_epik_Metal_Only>
0

> <s_lp_Force_Field>
OPLS_2005

> <r_lp_Energy>
18.7982

> <b_lp_Chiralities_Consistent>
1

> <s_lp_Variant>
AV-unprocessed.smi:1994-3

> <Gold.Version>
5.8.1

> <Gold.Id.Protein>
6NUR|6NUR_protein|mol2

> <Gold.PLP.Fitness>
47.3508

> <Gold.PLP.PLP>
-39.8827

> <Gold.PLP.part.hbond>
-2.0000

> <Gold.PLP.part.metal>
0.0000

> <Gold.PLP.part.buried>
-6.4169

> <Gold.PLP.part.nonpolar>
-31.1969

> <Gold.PLP.part.repulsive>
0.0177

> <Gold.PLP.ligand.clash>
0.0000

> <Gold.PLP.ligand.torsion>
0.7795

> <Gold.PLP.Chemscore.Hbond>
3.0000

> <Gold.PLP.Chemscore.CHOScore>
0.0000

> <Gold.PLP.Chemscore.Metal>
0.0000

> <Gold.Chemscore.Hbonds>
donor molecule, donor type, donor heavy atom, donor atom, acceptor molecule, acceptor atom, score
      L1  H     3    40       P1 10175  2.00
      P1  H  7989  7998       L1    13  1.00

> <Gold.PLP.Chemscore.Internal.Correction>
0.0270

> <Gold.Rescore>
     Score         DG    S(hbond)    S(metal)    S(lipo)     H(rot)  DE(clash)    DE(int)     intcor
     16.01     -16.75       1.47        0.00     104.02       2.27       0.02       0.72       ----

> <Gold.Chemscore.Fitness>
16.0143

> <Gold.Chemscore.DG>
-16.7501

> <Gold.Chemscore.ZeroCoef>
-5.4800

> <Gold.Chemscore.Hbond>
1.4708

> <Gold.Chemscore.Metal>
0.0000

> <Gold.Chemscore.Lipo>
104.0214

> <Gold.Chemscore.Internal_Hbond>
0.0000

> <Gold.Chemscore.DEClash>
0.0164

> <Gold.Chemscore.DEInternal>
0.7195

> <Gold.Chemscore.Rot>
2.2706

> <Gold.Chemscore.Internal.Correction>
   9.000000E+99

> <Gold.Chemscore.Hbonds>
donor molecule, donor type, donor heavy atom, donor atom, acceptor molecule, acceptor atom, score
      L1  H     3    40       P1 10175  0.85
      P1  H  7989  7998       L1    13  0.31

> <Gold.Chemscore.Hbond.Weighted>
-4.9124

> <Gold.Chemscore.Metal.Weighted>
-0.0000

> <Gold.Chemscore.Lipo.Weighted>
-12.1705

> <Gold.Chemscore.Internal_Hbond.Weighted>
0.0000

> <Gold.Chemscore.DEClash.Weighted>
0.0164

> <Gold.Chemscore.DEInternal.Weighted>
0.7195

> <Gold.Chemscore.Rot.Weighted>
5.8128

> <Gold.Chemscore.Internal.Correction.Weighted>
   9.000000E+99

> <Gold.Protein.RotatedTorsions>
[ 6907 6896 6895 6894 ] final -105.89 input  -60.11 | X-H torsion
[ 7974 7965 7964 7962 ] final   58.40 input  175.53 | X-H torsion
[ 8008 7997 7996 7995 ] final  -38.01 input   59.86 | X-H torsion
[ 10167 10162 10161 10158 ] final  114.78 input  -65.29 | X-H torsion
[ 10718 10713 10712 10709 ] final  -41.84 input   66.30 | X-H torsion
[ 10763 10752 10751 10750 ] final   99.55 input  -60.55 | X-H torsion
[ 11005 11000 10999 10996 ] final  -23.14 input  -57.11 | X-H torsion

> <Gold.Protein.ActiveResidues>
 VAL166  LYS551  ARG553  GLY616  TRP617  ASP618  TYR619  PRO620  LYS621  CYS622 
 ASP623  PHE694  ASN695  SER759  ASP760  ASP761  ALA762  ILE779  LEU786  VAL792 
 PHE793  MET794  SER795  GLU796  ALA797  LYS798  CYS799  TRP800  GLU811  SER814 

> <Gold.Protein.RotatedAtoms>
  150.7360  134.0058  159.3653 H   0  0  0  0  0  0  0  0  0  0  0  0  # atno 6907 bound_to 6896
  151.8015  135.0705  160.0410 H   0  0  0  0  0  0  0  0  0  0  0  0  # atno 6908 bound_to 6896
  152.3137  133.5743  159.5734 H   0  0  0  0  0  0  0  0  0  0  0  0  # atno 6909 bound_to 6896
  145.9185  139.3710  143.0492 H   0  0  0  0  0  0  0  0  0  0  0  0  # atno 7974 bound_to 7965
  154.4044  140.1589  156.2630 H   0  0  0  0  0  0  0  0  0  0  0  0  # atno 8008 bound_to 7997
  155.9020  140.3432  155.6011 H   0  0  0  0  0  0  0  0  0  0  0  0  # atno 8009 bound_to 7997
  155.7437  140.0796  157.2224 H   0  0  0  0  0  0  0  0  0  0  0  0  # atno 8010 bound_to 7997
  139.6364  144.7120  151.2326 H   0  0  0  0  0  0  0  0  0  0  0  0  # atno 10167 bound_to 10162
  156.2660  130.4202  149.8490 H   0  0  0  0  0  0  0  0  0  0  0  0  # atno 10718 bound_to 10713
  153.3029  135.4109  155.1268 H   0  0  0  0  0  0  0  0  0  0  0  0  # atno 10763 bound_to 10752
  154.8554  135.3545  154.5828 H   0  0  0  0  0  0  0  0  0  0  0  0  # atno 10764 bound_to 10752
  153.6254  135.7063  153.5353 H   0  0  0  0  0  0  0  0  0  0  0  0  # atno 10765 bound_to 10752
  140.8723  133.7712  156.0201 H   0  0  0  0  0  0  0  0  0  0  0  0  # atno 11005 bound_to 11000
  145.8580  140.9491  143.0715 LP  0  0  0  0  0  0  0  0  0  0  0  0  # atno 17320 bound_to 7965
  144.6750  140.0493  143.7479 LP  0  0  0  0  0  0  0  0  0  0  0  0  # atno 17321 bound_to 7965
  140.7467  143.6389  150.8353 LP  0  0  0  0  0  0  0  0  0  0  0  0  # atno 17342 bound_to 10162
  140.0021  143.5733  152.2872 LP  0  0  0  0  0  0  0  0  0  0  0  0  # atno 17343 bound_to 10162
  156.5988  130.8538  151.3427 LP  0  0  0  0  0  0  0  0  0  0  0  0  # atno 17370 bound_to 10713
  157.7267  130.9633  150.1669 LP  0  0  0  0  0  0  0  0  0  0  0  0  # atno 17371 bound_to 10713
  140.8559  134.2899  157.5256 LP  0  0  0  0  0  0  0  0  0  0  0  0  # atno 17394 bound_to 11000
  139.8713  134.9492  156.4019 LP  0  0  0  0  0  0  0  0  0  0  0  0  # atno 17395 bound_to 11000

$$$$
