AV-unprocessed.smi:3345|AV-procd|sdf|12905|dock1
  -GOLD-   2272019313D 1   1.00000     0.00000
 Structure written by MMmdl.
 41 42  0  0  0  0  0  0  0  0  2 V2000
  150.7306  133.0268  154.5793 C   0  0  0  0  0  0  0  0  0  0  0  0
  149.3638  133.7222  154.5208 C   0  0  2  0  0  0  0  0  0  0  0  0
  148.4410  133.0611  153.4705 C   0  0  0  0  0  0  0  0  0  0  0  0
  147.3244  133.9414  153.0429 N   0  3  0  0  0  0  0  0  0  0  0  0
  146.4052  133.2945  152.0781 C   0  0  0  0  0  0  0  0  0  0  0  0
  145.3329  134.2965  151.6161 C   0  0  0  0  0  0  0  0  0  0  0  0
  144.6297  134.8002  152.7455 O   0  0  0  0  0  0  0  0  0  0  0  0
  145.4885  135.4889  153.6467 C   0  0  0  0  0  0  0  0  0  0  0  0
  146.5612  134.5219  154.1740 C   0  0  0  0  0  0  0  0  0  0  0  0
  149.5652  135.1434  154.2348 N   0  0  0  0  0  0  0  0  0  0  0  0
  150.0652  136.0582  155.0821 C   0  0  0  0  0  0  0  0  0  0  0  0
  150.3938  135.7945  156.2392 O   0  0  0  0  0  0  0  0  0  0  0  0
  150.2036  137.4877  154.5388 C   0  0  1  0  0  0  0  0  0  0  0  0
  149.1227  138.4325  155.1018 C   0  0  0  0  0  0  0  0  0  0  0  0
  151.5537  137.9844  154.7730 N   0  0  0  0  0  0  0  0  0  0  0  0
  152.1165  139.1391  154.4093 C   0  0  0  0  0  0  0  0  0  0  0  0
  153.3932  139.2469  154.7484 N   0  0  0  0  0  0  0  0  0  0  0  0
  153.5724  138.0343  155.3513 C   0  0  0  0  0  0  0  0  0  0  0  0
  152.5064  137.2347  155.3817 N   0  0  0  0  0  0  0  0  0  0  0  0
  150.6218  131.9674  154.8136 H   0  0  0  0  0  0  0  0  0  0  0  0
  151.3637  133.4691  155.3494 H   0  0  0  0  0  0  0  0  0  0  0  0
  151.2590  133.1042  153.6284 H   0  0  0  0  0  0  0  0  0  0  0  0
  148.9152  133.6163  155.5095 H   0  0  0  0  0  0  0  0  0  0  0  0
  149.0480  132.8057  152.6004 H   0  0  0  0  0  0  0  0  0  0  0  0
  148.0398  132.1185  153.8462 H   0  0  0  0  0  0  0  0  0  0  0  0
  146.9647  132.9356  151.2134 H   0  0  0  0  0  0  0  0  0  0  0  0
  145.9358  132.4260  152.5431 H   0  0  0  0  0  0  0  0  0  0  0  0
  145.7835  135.1188  151.0574 H   0  0  0  0  0  0  0  0  0  0  0  0
  144.6244  133.8073  150.9475 H   0  0  0  0  0  0  0  0  0  0  0  0
  145.9468  136.3462  153.1505 H   0  0  0  0  0  0  0  0  0  0  0  0
  144.8945  135.8784  154.4736 H   0  0  0  0  0  0  0  0  0  0  0  0
  146.0919  133.7230  154.7502 H   0  0  0  0  0  0  0  0  0  0  0  0
  147.2286  135.0540  154.8513 H   0  0  0  0  0  0  0  0  0  0  0  0
  149.3222  135.4531  153.3046 H   0  0  0  0  0  0  0  0  0  0  0  0
  150.0627  137.4482  153.4571 H   0  0  0  0  0  0  0  0  0  0  0  0
  148.1225  138.0669  154.8675 H   0  0  0  0  0  0  0  0  0  0  0  0
  149.2146  139.4290  154.6688 H   0  0  0  0  0  0  0  0  0  0  0  0
  149.1894  138.5369  156.1856 H   0  0  0  0  0  0  0  0  0  0  0  0
  151.5821  139.9159  153.8821 H   0  0  0  0  0  0  0  0  0  0  0  0
  154.5182  137.7290  155.7741 H   0  0  0  0  0  0  0  0  0  0  0  0
  147.7489  134.7146  152.5499 H   0  0  0  0  0  0  0  0  0  0  0  0
  1  2  1  0  0  0  0
  1 20  1  0  0  0  0
  1 21  1  0  0  0  0
  1 22  1  0  0  0  0
  2  3  1  0  0  0  0
  2 10  1  0  0  0  0
  2 23  1  0  0  0  0
  3  4  1  0  0  0  0
  3 24  1  0  0  0  0
  3 25  1  0  0  0  0
  4  9  1  0  0  0  0
  4  5  1  0  0  0  0
  4 41  1  0  0  0  0
  5  6  1  0  0  0  0
  5 26  1  0  0  0  0
  5 27  1  0  0  0  0
  6  7  1  0  0  0  0
  6 28  1  0  0  0  0
  6 29  1  0  0  0  0
  7  8  1  0  0  0  0
  8  9  1  0  0  0  0
  8 30  1  0  0  0  0
  8 31  1  0  0  0  0
  9 32  1  0  0  0  0
  9 33  1  0  0  0  0
 10 11  1  0  0  0  0
 10 34  1  0  0  0  0
 11 12  2  0  0  0  0
 11 13  1  0  0  0  0
 13 14  1  0  0  0  0
 13 15  1  0  0  0  0
 13 35  1  0  0  0  0
 14 36  1  0  0  0  0
 14 37  1  0  0  0  0
 14 38  1  0  0  0  0
 15 19  1  0  0  0  0
 15 16  1  0  0  0  0
 16 17  2  0  0  0  0
 16 39  1  0  0  0  0
 17 18  1  0  0  0  0
 18 19  2  0  0  0  0
 18 40  1  0  0  0  0
M  CHG  1   4   1
M  END
> <s_m_source_file>
AV-unprocessed.smi

> <i_m_source_file_index>
3345

> <i_lp_mmshare_version>
43012

> <i_f3d_flags>
0

> <s_epik_input>
W0NIMl0xW0NIMl1PW0NIMl1bQ0gyXU4xW0NIMl1bQ0BASF0oW0NIM10pW05IXUMoPU8pW0NASF0oW0NIM10pbjJbY0hdbltjSF1uMg==

> <s_epik_cmdline>
J2VwaWtfcHl0aG9uJywgJy1waCcsICc3LjAnLCAnLXRuJywgJzgnLCAnLW1hJywgJzIwMCcsICctbWV0YWxfYmluZGluZycsICctaW1hZScsICc8aW5maWxlLm1hZT4nLCAnLW9tYWUnLCAnPG91dGZpbGUubWFlPic=

> <r_lp_tautomer_probability>
1

> <r_epik_Ionization_Penalty>
0.71326

> <r_epik_Ionization_Penalty_Charging>
0.713252

> <r_epik_Ionization_Penalty_Neutral>
8.27671e-06

> <r_epik_State_Penalty>
0.737017

> <r_epik_Charging_Adjusted_Penalty>
1.45027

> <i_epik_Tot_Q>
1

> <i_epik_Tot_abs_Q>
1

> <r_epik_Metal_State_Penalty>
0.73702

> <b_epik_Metal_Only>
0

> <s_lp_Force_Field>
OPLS_2005

> <r_lp_Energy>
28.0971

> <b_lp_Chiralities_Consistent>
1

> <s_lp_Variant>
AV-unprocessed.smi:3345-7

> <Gold.Version>
5.8.1

> <Gold.Id.Protein>
6NUR|6NUR_protein|mol2

> <Gold.PLP.Fitness>
41.2487

> <Gold.PLP.PLP>
-28.6947

> <Gold.PLP.part.hbond>
-3.7554

> <Gold.PLP.part.metal>
0.0000

> <Gold.PLP.part.buried>
-2.7926

> <Gold.PLP.part.nonpolar>
-22.7864

> <Gold.PLP.part.repulsive>
0.1892

> <Gold.PLP.ligand.clash>
0.0000

> <Gold.PLP.ligand.torsion>
0.6541

> <Gold.PLP.Chemscore.Hbond>
4.5347

> <Gold.PLP.Chemscore.CHOScore>
0.0000

> <Gold.PLP.Chemscore.Metal>
0.0000

> <Gold.Chemscore.Hbonds>
donor molecule, donor type, donor heavy atom, donor atom, acceptor molecule, acceptor atom, score
      L1  H     4    41       P1  7948  2.00
      L1  H    10    34       P1  7948  0.90
      P1  H  7997  8009       L1    17  0.70
      P1  H 10752 10763       L1    19  0.64

> <Gold.PLP.Chemscore.Internal.Correction>
0.2581

> <Gold.Rescore>
     Score         DG    S(hbond)    S(metal)    S(lipo)     H(rot)  DE(clash)    DE(int)     intcor
      8.80     -10.86       2.21        0.00      40.03       2.61       0.01       2.05       ----

> <Gold.Chemscore.Fitness>
8.8024

> <Gold.Chemscore.DG>
-10.8642

> <Gold.Chemscore.ZeroCoef>
-5.4800

> <Gold.Chemscore.Hbond>
2.2130

> <Gold.Chemscore.Metal>
0.0000

> <Gold.Chemscore.Lipo>
40.0342

> <Gold.Chemscore.Internal_Hbond>
0.0000

> <Gold.Chemscore.DEClash>
0.0089

> <Gold.Chemscore.DEInternal>
2.0529

> <Gold.Chemscore.Rot>
2.6138

> <Gold.Chemscore.Internal.Correction>
   9.000000E+99

> <Gold.Chemscore.Hbonds>
donor molecule, donor type, donor heavy atom, donor atom, acceptor molecule, acceptor atom, score
      L1  H     4    41       P1  7948  0.81
      L1  H    10    34       P1  7948  0.18
      P1  H  7997  8009       L1    17  0.07
      P1  H 10752 10763       L1    19  0.39

> <Gold.Chemscore.Hbond.Weighted>
-7.3914

> <Gold.Chemscore.Metal.Weighted>
-0.0000

> <Gold.Chemscore.Lipo.Weighted>
-4.6840

> <Gold.Chemscore.Internal_Hbond.Weighted>
0.0000

> <Gold.Chemscore.DEClash.Weighted>
0.0089

> <Gold.Chemscore.DEInternal.Weighted>
2.0529

> <Gold.Chemscore.Rot.Weighted>
6.6912

> <Gold.Chemscore.Internal.Correction.Weighted>
   9.000000E+99

> <Gold.Protein.RotatedTorsions>
[ 6907 6896 6895 6894 ] final  -98.53 input  -60.11 | X-H torsion
[ 7974 7965 7964 7962 ] final -132.60 input  175.53 | X-H torsion
[ 8008 7997 7996 7995 ] final -144.68 input   59.86 | X-H torsion
[ 10167 10162 10161 10158 ] final  106.62 input  -65.29 | X-H torsion
[ 10718 10713 10712 10709 ] final  -53.29 input   66.30 | X-H torsion
[ 10763 10752 10751 10750 ] final   81.17 input  -60.55 | X-H torsion
[ 11005 11000 10999 10996 ] final  -94.11 input  -57.11 | X-H torsion

> <Gold.Protein.ActiveResidues>
 VAL166  LYS551  ARG553  GLY616  TRP617  ASP618  TYR619  PRO620  LYS621  CYS622 
 ASP623  PHE694  ASN695  SER759  ASP760  ASP761  ALA762  ILE779  LEU786  VAL792 
 PHE793  MET794  SER795  GLU796  ALA797  LYS798  CYS799  TRP800  GLU811  SER814 

> <Gold.Protein.RotatedAtoms>
  150.7050  134.1180  159.4024 H   0  0  0  0  0  0  0  0  0  0  0  0  # atno 6907 bound_to 6896
  151.9167  135.0313  160.0528 H   0  0  0  0  0  0  0  0  0  0  0  0  # atno 6908 bound_to 6896
  152.2291  133.5008  159.5242 H   0  0  0  0  0  0  0  0  0  0  0  0  # atno 6909 bound_to 6896
  144.9271  140.7084  143.4929 H   0  0  0  0  0  0  0  0  0  0  0  0  # atno 7974 bound_to 7965
  155.5308  140.0599  157.2889 H   0  0  0  0  0  0  0  0  0  0  0  0  # atno 8008 bound_to 7997
  154.4485  140.1936  156.0537 H   0  0  0  0  0  0  0  0  0  0  0  0  # atno 8009 bound_to 7997
  156.0653  140.3267  155.7515 H   0  0  0  0  0  0  0  0  0  0  0  0  # atno 8010 bound_to 7997
  139.6994  144.7096  151.1212 H   0  0  0  0  0  0  0  0  0  0  0  0  # atno 10167 bound_to 10162
  156.1548  130.4150  149.9887 H   0  0  0  0  0  0  0  0  0  0  0  0  # atno 10718 bound_to 10713
  153.1094  135.4775  154.9008 H   0  0  0  0  0  0  0  0  0  0  0  0  # atno 10763 bound_to 10752
  154.7465  135.3095  154.8638 H   0  0  0  0  0  0  0  0  0  0  0  0  # atno 10764 bound_to 10752
  153.9232  135.6853  153.4800 H   0  0  0  0  0  0  0  0  0  0  0  0  # atno 10765 bound_to 10752
  141.1479  133.7934  157.0253 H   0  0  0  0  0  0  0  0  0  0  0  0  # atno 11005 bound_to 11000
  145.3202  139.1791  143.4592 LP  0  0  0  0  0  0  0  0  0  0  0  0  # atno 17320 bound_to 7965
  146.3231  140.3218  142.8634 LP  0  0  0  0  0  0  0  0  0  0  0  0  # atno 17321 bound_to 7965
  140.7705  143.5446  150.9274 LP  0  0  0  0  0  0  0  0  0  0  0  0  # atno 17342 bound_to 10162
  139.9127  143.6701  152.3112 LP  0  0  0  0  0  0  0  0  0  0  0  0  # atno 17343 bound_to 10162
  156.7734  130.9194  151.3645 LP  0  0  0  0  0  0  0  0  0  0  0  0  # atno 17370 bound_to 10713
  157.6686  130.9030  149.9988 LP  0  0  0  0  0  0  0  0  0  0  0  0  # atno 17371 bound_to 10713
  140.0789  134.9659  157.1591 LP  0  0  0  0  0  0  0  0  0  0  0  0  # atno 17394 bound_to 11000
  140.3605  134.2500  155.7188 LP  0  0  0  0  0  0  0  0  0  0  0  0  # atno 17395 bound_to 11000

$$$$
