AV-unprocessed.smi:2160|AV-procd|sdf|8798|dock8
  -GOLD-   2272011583D 1   1.00000     0.00000
 Structure written by MMmdl.
 43 45  0  0  0  0  0  0  0  0  1 V2000
  142.7454  146.6457  155.5084 C   0  0  0  0  0  0  0  0  0  0  0  0
  143.3959  145.6633  156.3011 O   0  0  0  0  0  0  0  0  0  0  0  0
  144.2788  144.8083  155.6771 C   0  0  0  0  0  0  0  0  0  0  0  0
  144.4643  144.7401  154.2731 C   0  0  0  0  0  0  0  0  0  0  0  0
  145.3845  143.8296  153.7186 C   0  0  0  0  0  0  0  0  0  0  0  0
  146.1270  142.9710  154.5538 C   0  0  0  0  0  0  0  0  0  0  0  0
  147.1010  141.9748  153.9574 C   0  0  0  0  0  0  0  0  0  0  0  0
  147.9655  141.4471  154.9493 O   0  0  0  0  0  0  0  0  0  0  0  0
  149.2050  140.9963  154.4281 C   0  0  0  0  0  0  0  0  0  0  0  0
  150.2172  140.7980  155.5728 C   0  0  1  0  0  0  0  0  0  0  0  0
  151.3086  140.0338  155.1056 O   0  0  0  0  0  0  0  0  0  0  0  0
  150.7295  142.0944  156.2382 C   0  0  0  0  0  0  0  0  0  0  0  0
  151.3845  141.8594  157.5139 N   0  0  0  0  0  0  0  0  0  0  0  0
  151.7736  140.6732  158.0192 C   0  0  0  0  0  0  0  0  0  0  0  0
  152.3495  140.6801  159.2179 N   0  0  0  0  0  0  0  0  0  0  0  0
  152.3438  142.0304  159.5230 C   0  0  0  0  0  0  0  0  0  0  0  0
  152.8135  142.7139  160.6675 C   0  0  0  0  0  0  0  0  0  0  0  0
  152.7017  144.1169  160.7589 C   0  0  0  0  0  0  0  0  0  0  0  0
  152.1219  144.8573  159.7086 C   0  0  0  0  0  0  0  0  0  0  0  0
  151.6449  144.1985  158.5596 C   0  0  0  0  0  0  0  0  0  0  0  0
  151.7544  142.7976  158.4733 C   0  0  0  0  0  0  0  0  0  0  0  0
  145.9556  143.0423  155.9503 C   0  0  0  0  0  0  0  0  0  0  0  0
  145.0369  143.9542  156.5039 C   0  0  0  0  0  0  0  0  0  0  0  0
  142.0728  147.2282  156.1377 H   0  0  0  0  0  0  0  0  0  0  0  0
  142.1455  146.1888  154.7203 H   0  0  0  0  0  0  0  0  0  0  0  0
  143.4618  147.3370  155.0634 H   0  0  0  0  0  0  0  0  0  0  0  0
  143.9089  145.3731  153.5981 H   0  0  0  0  0  0  0  0  0  0  0  0
  145.5068  143.7853  152.6463 H   0  0  0  0  0  0  0  0  0  0  0  0
  146.5405  141.1681  153.4821 H   0  0  0  0  0  0  0  0  0  0  0  0
  147.6861  142.4668  153.1796 H   0  0  0  0  0  0  0  0  0  0  0  0
  149.0521  140.0391  153.9272 H   0  0  0  0  0  0  0  0  0  0  0  0
  149.5867  141.6893  153.6768 H   0  0  0  0  0  0  0  0  0  0  0  0
  149.7306  140.1904  156.3366 H   0  0  0  0  0  0  0  0  0  0  0  0
  151.4562  139.3244  155.7125 H   0  0  0  0  0  0  0  0  0  0  0  0
  151.4291  142.6095  155.5786 H   0  0  0  0  0  0  0  0  0  0  0  0
  149.8990  142.7818  156.4028 H   0  0  0  0  0  0  0  0  0  0  0  0
  151.6155  139.7508  157.4797 H   0  0  0  0  0  0  0  0  0  0  0  0
  153.2611  142.1573  161.4774 H   0  0  0  0  0  0  0  0  0  0  0  0
  153.0631  144.6278  161.6392 H   0  0  0  0  0  0  0  0  0  0  0  0
  152.0365  145.9313  159.7879 H   0  0  0  0  0  0  0  0  0  0  0  0
  151.1908  144.7642  157.7599 H   0  0  0  0  0  0  0  0  0  0  0  0
  146.5228  142.3918  156.5999 H   0  0  0  0  0  0  0  0  0  0  0  0
  144.9098  143.9959  157.5756 H   0  0  0  0  0  0  0  0  0  0  0  0
  1  2  1  0  0  0  0
  1 24  1  0  0  0  0
  1 25  1  0  0  0  0
  1 26  1  0  0  0  0
  2  3  1  0  0  0  0
  3 23  1  0  0  0  0
  3  4  2  0  0  0  0
  4  5  1  0  0  0  0
  4 27  1  0  0  0  0
  5  6  2  0  0  0  0
  5 28  1  0  0  0  0
  6  7  1  0  0  0  0
  6 22  1  0  0  0  0
  7  8  1  0  0  0  0
  7 29  1  0  0  0  0
  7 30  1  0  0  0  0
  8  9  1  0  0  0  0
  9 10  1  0  0  0  0
  9 31  1  0  0  0  0
  9 32  1  0  0  0  0
 10 11  1  0  0  0  0
 10 12  1  0  0  0  0
 10 33  1  0  0  0  0
 11 34  1  0  0  0  0
 12 13  1  0  0  0  0
 12 35  1  0  0  0  0
 12 36  1  0  0  0  0
 13 21  1  0  0  0  0
 13 14  1  0  0  0  0
 14 15  2  0  0  0  0
 14 37  1  0  0  0  0
 15 16  1  0  0  0  0
 16 21  2  0  0  0  0
 16 17  1  0  0  0  0
 17 18  2  0  0  0  0
 17 38  1  0  0  0  0
 18 19  1  0  0  0  0
 18 39  1  0  0  0  0
 19 20  2  0  0  0  0
 19 40  1  0  0  0  0
 20 21  1  0  0  0  0
 20 41  1  0  0  0  0
 22 23  2  0  0  0  0
 22 42  1  0  0  0  0
 23 43  1  0  0  0  0
M  END
> <s_m_source_file>
AV-unprocessed.smi

> <i_m_source_file_index>
2160

> <i_lp_mmshare_version>
43012

> <i_f3d_flags>
0

> <s_epik_input>
W0NIM11PYzFbY0hdW2NIXWMoW2NIXVtjSF0xKVtDSDJdT1tDSDJdW0NASF0oW09IXSlbQ0gyXW4oW2NIXW4yKWMoYzIzKVtjSF1bY0hdW2NIXVtjSF0z

> <s_epik_cmdline>
J2VwaWtfcHl0aG9uJywgJy1waCcsICc3LjAnLCAnLXRuJywgJzgnLCAnLW1hJywgJzIwMCcsICctbWV0YWxfYmluZGluZycsICctaW1hZScsICc8aW5maWxlLm1hZT4nLCAnLW9tYWUnLCAnPG91dGZpbGUubWFlPic=

> <r_lp_tautomer_probability>
1

> <r_epik_Ionization_Penalty>
0.0713119

> <r_epik_Ionization_Penalty_Charging>
0

> <r_epik_Ionization_Penalty_Neutral>
0.0713119

> <r_epik_State_Penalty>
0.06259

> <r_epik_Charging_Adjusted_Penalty>
0.06259

> <i_epik_Tot_Q>
0

> <i_epik_Tot_abs_Q>
0

> <r_epik_Metal_State_Penalty>
6.60119e-05

> <b_epik_Metal_Only>
0

> <s_lp_Force_Field>
OPLS_2005

> <r_lp_Energy>
17.5376

> <b_lp_Chiralities_Consistent>
1

> <s_lp_Variant>
AV-unprocessed.smi:2160-2

> <Gold.Version>
5.8.1

> <Gold.Id.Protein>
6NUR|6NUR_protein|mol2

> <Gold.PLP.Fitness>
55.5297

> <Gold.PLP.PLP>
-53.8787

> <Gold.PLP.part.hbond>
-1.0000

> <Gold.PLP.part.metal>
0.0000

> <Gold.PLP.part.buried>
-9.0055

> <Gold.PLP.part.nonpolar>
-44.5135

> <Gold.PLP.part.repulsive>
0.1331

> <Gold.PLP.ligand.clash>
0.0000

> <Gold.PLP.ligand.torsion>
0.7326

> <Gold.PLP.Chemscore.Hbond>
1.0000

> <Gold.PLP.Chemscore.CHOScore>
0.0000

> <Gold.PLP.Chemscore.Metal>
0.0000

> <Gold.Chemscore.Hbonds>
donor molecule, donor type, donor heavy atom, donor atom, acceptor molecule, acceptor atom, score
      P1  H  7989  7998       L1    11  1.00

> <Gold.PLP.Chemscore.Internal.Correction>
0.1162

> <Gold.Rescore>
     Score         DG    S(hbond)    S(metal)    S(lipo)     H(rot)  DE(clash)    DE(int)     intcor
     15.49     -16.01       0.94        0.00     120.68       2.63       0.03       0.48       ----

> <Gold.Chemscore.Fitness>
15.4909

> <Gold.Chemscore.DG>
-16.0067

> <Gold.Chemscore.ZeroCoef>
-5.4800

> <Gold.Chemscore.Hbond>
0.9408

> <Gold.Chemscore.Metal>
0.0000

> <Gold.Chemscore.Lipo>
120.6762

> <Gold.Chemscore.Internal_Hbond>
0.0000

> <Gold.Chemscore.DEClash>
0.0310

> <Gold.Chemscore.DEInternal>
0.4848

> <Gold.Chemscore.Rot>
2.6308

> <Gold.Chemscore.Internal.Correction>
   9.000000E+99

> <Gold.Chemscore.Hbonds>
donor molecule, donor type, donor heavy atom, donor atom, acceptor molecule, acceptor atom, score
      P1  H  7989  7998       L1    11  0.30

> <Gold.Chemscore.Hbond.Weighted>
-3.1423

> <Gold.Chemscore.Metal.Weighted>
-0.0000

> <Gold.Chemscore.Lipo.Weighted>
-14.1191

> <Gold.Chemscore.Internal_Hbond.Weighted>
0.0000

> <Gold.Chemscore.DEClash.Weighted>
0.0310

> <Gold.Chemscore.DEInternal.Weighted>
0.4848

> <Gold.Chemscore.Rot.Weighted>
6.7347

> <Gold.Chemscore.Internal.Correction.Weighted>
   9.000000E+99

> <Gold.Protein.RotatedTorsions>
[ 6907 6896 6895 6894 ] final -163.32 input  -60.11 | X-H torsion
[ 7974 7965 7964 7962 ] final  -82.74 input  175.53 | X-H torsion
[ 8008 7997 7996 7995 ] final   16.06 input   59.86 | X-H torsion
[ 10167 10162 10161 10158 ] final  151.31 input  -65.29 | X-H torsion
[ 10718 10713 10712 10709 ] final  -96.93 input   66.30 | X-H torsion
[ 10763 10752 10751 10750 ] final   38.33 input  -60.55 | X-H torsion
[ 11005 11000 10999 10996 ] final -106.94 input  -57.11 | X-H torsion

> <Gold.Protein.ActiveResidues>
 VAL166  LYS551  ARG553  GLY616  TRP617  ASP618  TYR619  PRO620  LYS621  CYS622 
 ASP623  PHE694  ASN695  SER759  ASP760  ASP761  ALA762  ILE779  LEU786  VAL792 
 PHE793  MET794  SER795  GLU796  ALA797  LYS798  CYS799  TRP800  GLU811  SER814 

> <Gold.Protein.RotatedAtoms>
  151.3941  133.3779  159.2724 H   0  0  0  0  0  0  0  0  0  0  0  0  # atno 6907 bound_to 6896
  150.9482  134.8886  159.7666 H   0  0  0  0  0  0  0  0  0  0  0  0  # atno 6908 bound_to 6896
  152.5101  134.3895  159.9431 H   0  0  0  0  0  0  0  0  0  0  0  0  # atno 6909 bound_to 6896
  145.5293  140.9523  143.1612 H   0  0  0  0  0  0  0  0  0  0  0  0  # atno 7974 bound_to 7965
  154.8715  140.2959  155.5478 H   0  0  0  0  0  0  0  0  0  0  0  0  # atno 8008 bound_to 7997
  156.3021  140.2459  156.3638 H   0  0  0  0  0  0  0  0  0  0  0  0  # atno 8009 bound_to 7997
  154.8812  140.0398  157.1772 H   0  0  0  0  0  0  0  0  0  0  0  0  # atno 8010 bound_to 7997
  139.4842  144.5451  151.7497 H   0  0  0  0  0  0  0  0  0  0  0  0  # atno 10167 bound_to 10162
  156.0072  130.5172  150.6299 H   0  0  0  0  0  0  0  0  0  0  0  0  # atno 10718 bound_to 10713
  153.0005  135.6252  154.2287 H   0  0  0  0  0  0  0  0  0  0  0  0  # atno 10763 bound_to 10752
  154.2029  135.2803  155.2986 H   0  0  0  0  0  0  0  0  0  0  0  0  # atno 10764 bound_to 10752
  154.5669  135.5688  153.7117 H   0  0  0  0  0  0  0  0  0  0  0  0  # atno 10765 bound_to 10752
  141.0979  133.8937  157.1916 H   0  0  0  0  0  0  0  0  0  0  0  0  # atno 11005 bound_to 11000
  144.7634  139.6902  143.7225 LP  0  0  0  0  0  0  0  0  0  0  0  0  # atno 17320 bound_to 7965
  146.2055  139.5376  142.9715 LP  0  0  0  0  0  0  0  0  0  0  0  0  # atno 17321 bound_to 7965
  140.4997  144.1188  150.5968 LP  0  0  0  0  0  0  0  0  0  0  0  0  # atno 17342 bound_to 10162
  140.4077  143.2672  151.9871 LP  0  0  0  0  0  0  0  0  0  0  0  0  # atno 17343 bound_to 10162
  157.4099  131.0822  151.1231 LP  0  0  0  0  0  0  0  0  0  0  0  0  # atno 17370 bound_to 10713
  157.1866  130.6333  149.5690 LP  0  0  0  0  0  0  0  0  0  0  0  0  # atno 17371 bound_to 10713
  139.9821  135.0094  156.9775 LP  0  0  0  0  0  0  0  0  0  0  0  0  # atno 17394 bound_to 11000
  140.5094  134.1017  155.7267 LP  0  0  0  0  0  0  0  0  0  0  0  0  # atno 17395 bound_to 11000

$$$$
