AV-unprocessed.smi:152|AV-procd|sdf|1249|dock7
  -GOLD-   2262018473D 1   1.00000     0.00000
 Structure written by MMmdl.
 58 61  0  0  0  0  0  0  0  0  2 V2000
  146.0584  128.5033  152.5392 C   0  0  0  0  0  0  0  0  0  0  0  0
  145.7407  129.5941  151.5075 C   0  0  0  0  0  0  0  0  0  0  0  0
  146.5388  130.8240  151.7333 N   0  3  1  0  0  0  0  0  0  0  0  0
  146.4734  131.8117  150.6264 C   0  0  0  0  0  0  0  0  0  0  0  0
  146.1144  133.1622  151.2520 C   0  0  0  0  0  0  0  0  0  0  0  0
  146.5174  133.0052  152.7107 C   0  0  0  0  0  0  0  0  0  0  0  0
  146.2156  131.5318  152.9945 C   0  0  2  0  0  0  0  0  0  0  0  0
  147.0174  130.9674  154.1886 C   0  0  0  0  0  0  0  0  0  0  0  0
  148.4651  130.9816  153.9824 N   0  0  0  0  0  0  0  0  0  0  0  0
  149.1024  129.7060  153.6864 C   0  0  0  0  0  0  0  0  0  0  0  0
  149.2291  131.7590  154.7871 C   0  0  0  0  0  0  0  0  0  0  0  0
  150.3787  131.2114  155.2551 N   0  0  0  0  0  0  0  0  0  0  0  0
  151.1879  131.9208  156.0469 C   0  0  0  0  0  0  0  0  0  0  0  0
  151.0373  133.1707  156.4881 N   0  0  0  0  0  0  0  0  0  0  0  0
  149.8742  133.7204  156.0360 C   0  0  0  0  0  0  0  0  0  0  0  0
  148.9188  133.0922  155.1871 C   0  0  0  0  0  0  0  0  0  0  0  0
  147.8643  133.9650  154.9419 N   0  0  0  0  0  0  0  0  0  0  0  0
  148.1800  135.0450  155.6023 C   0  0  0  0  0  0  0  0  0  0  0  0
  149.3679  134.9824  156.2942 N   0  0  0  0  0  0  0  0  0  0  0  0
  149.9554  136.0341  157.1098 C   0  0  0  0  0  0  0  0  0  0  0  0
  150.9366  136.9565  156.3435 C   0  0  0  0  0  0  0  0  0  0  0  0
  152.2378  136.4123  156.4766 O   0  0  0  0  0  0  0  0  0  0  0  0
  150.5758  136.9915  154.8447 C   0  0  0  0  0  0  0  0  0  0  0  0
  151.4123  138.0243  154.0690 C   0  0  0  0  0  0  0  0  0  0  0  0
  151.2718  139.3081  154.6650 O   0  0  0  0  0  0  0  0  0  0  0  0
  151.7654  139.3518  155.9982 C   0  0  0  0  0  0  0  0  0  0  0  0
  150.9556  138.3989  156.8956 C   0  0  0  0  0  0  0  0  0  0  0  0
  145.4304  127.6270  152.3773 H   0  0  0  0  0  0  0  0  0  0  0  0
  145.8774  128.8572  153.5545 H   0  0  0  0  0  0  0  0  0  0  0  0
  147.0968  128.1771  152.4778 H   0  0  0  0  0  0  0  0  0  0  0  0
  145.9040  129.2237  150.4944 H   0  0  0  0  0  0  0  0  0  0  0  0
  144.6804  129.8370  151.5820 H   0  0  0  0  0  0  0  0  0  0  0  0
  147.4542  131.8575  150.1521 H   0  0  0  0  0  0  0  0  0  0  0  0
  145.7492  131.5398  149.8571 H   0  0  0  0  0  0  0  0  0  0  0  0
  146.6108  134.0008  150.7627 H   0  0  0  0  0  0  0  0  0  0  0  0
  145.0378  133.3254  151.1855 H   0  0  0  0  0  0  0  0  0  0  0  0
  147.5841  133.2053  152.8208 H   0  0  0  0  0  0  0  0  0  0  0  0
  145.9776  133.6828  153.3734 H   0  0  0  0  0  0  0  0  0  0  0  0
  145.1418  131.4332  153.1612 H   0  0  0  0  0  0  0  0  0  0  0  0
  146.7811  131.5074  155.1049 H   0  0  0  0  0  0  0  0  0  0  0  0
  146.7063  129.9379  154.3688 H   0  0  0  0  0  0  0  0  0  0  0  0
  149.2889  129.1461  154.6041 H   0  0  0  0  0  0  0  0  0  0  0  0
  150.0542  129.8540  153.1748 H   0  0  0  0  0  0  0  0  0  0  0  0
  148.4703  129.0973  153.0397 H   0  0  0  0  0  0  0  0  0  0  0  0
  152.0838  131.4147  156.3754 H   0  0  0  0  0  0  0  0  0  0  0  0
  147.5471  135.9207  155.6100 H   0  0  0  0  0  0  0  0  0  0  0  0
  149.1471  136.6204  157.5491 H   0  0  0  0  0  0  0  0  0  0  0  0
  150.4708  135.5574  157.9447 H   0  0  0  0  0  0  0  0  0  0  0  0
  152.6296  136.7570  157.2644 H   0  0  0  0  0  0  0  0  0  0  0  0
  150.6932  136.0028  154.3989 H   0  0  0  0  0  0  0  0  0  0  0  0
  149.5224  137.2520  154.7342 H   0  0  0  0  0  0  0  0  0  0  0  0
  152.4644  137.7371  154.0371 H   0  0  0  0  0  0  0  0  0  0  0  0
  151.0705  138.0790  153.0353 H   0  0  0  0  0  0  0  0  0  0  0  0
  152.8266  139.0989  156.0128 H   0  0  0  0  0  0  0  0  0  0  0  0
  151.6814  140.3734  156.3694 H   0  0  0  0  0  0  0  0  0  0  0  0
  149.9326  138.7709  156.9631 H   0  0  0  0  0  0  0  0  0  0  0  0
  151.3588  138.4229  157.9088 H   0  0  0  0  0  0  0  0  0  0  0  0
  147.5066  130.5447  151.8080 H   0  0  0  0  0  0  0  0  0  0  0  0
  1  2  1  0  0  0  0
  1 28  1  0  0  0  0
  1 29  1  0  0  0  0
  1 30  1  0  0  0  0
  2  3  1  0  0  0  0
  2 31  1  0  0  0  0
  2 32  1  0  0  0  0
  3  7  1  0  0  0  0
  3  4  1  0  0  0  0
  3 58  1  0  0  0  0
  4  5  1  0  0  0  0
  4 33  1  0  0  0  0
  4 34  1  0  0  0  0
  5  6  1  0  0  0  0
  5 35  1  0  0  0  0
  5 36  1  0  0  0  0
  6  7  1  0  0  0  0
  6 37  1  0  0  0  0
  6 38  1  0  0  0  0
  7  8  1  0  0  0  0
  7 39  1  0  0  0  0
  8  9  1  0  0  0  0
  8 40  1  0  0  0  0
  8 41  1  0  0  0  0
  9 10  1  0  0  0  0
  9 11  1  0  0  0  0
 10 42  1  0  0  0  0
 10 43  1  0  0  0  0
 10 44  1  0  0  0  0
 11 16  1  0  0  0  0
 11 12  2  0  0  0  0
 12 13  1  0  0  0  0
 13 14  2  0  0  0  0
 13 45  1  0  0  0  0
 14 15  1  0  0  0  0
 15 19  1  0  0  0  0
 15 16  2  0  0  0  0
 16 17  1  0  0  0  0
 17 18  2  0  0  0  0
 18 19  1  0  0  0  0
 18 46  1  0  0  0  0
 19 20  1  0  0  0  0
 20 21  1  0  0  0  0
 20 47  1  0  0  0  0
 20 48  1  0  0  0  0
 21 27  1  0  0  0  0
 21 22  1  0  0  0  0
 21 23  1  0  0  0  0
 22 49  1  0  0  0  0
 23 24  1  0  0  0  0
 23 50  1  0  0  0  0
 23 51  1  0  0  0  0
 24 25  1  0  0  0  0
 24 52  1  0  0  0  0
 24 53  1  0  0  0  0
 25 26  1  0  0  0  0
 26 27  1  0  0  0  0
 26 54  1  0  0  0  0
 26 55  1  0  0  0  0
 27 56  1  0  0  0  0
 27 57  1  0  0  0  0
M  CHG  1   3   1
M  END
> <s_m_source_file>
AV-unprocessed.smi

> <i_m_source_file_index>
152

> <i_lp_mmshare_version>
43012

> <i_f3d_flags>
0

> <s_epik_input>
W0NIM11bQ0gyXU4xW0NIMl1bQ0gyXVtDSDJdW0NASF0xW0NIMl1OKFtDSDNdKWMobltjSF1uMiljKGMyMyluW2NIXW4zW0NIMl1DNChbT0hdKVtDSDJdW0NIMl1PW0NIMl1bQ0gyXTQ=

> <s_epik_cmdline>
J2VwaWtfcHl0aG9uJywgJy1waCcsICc3LjAnLCAnLXRuJywgJzgnLCAnLW1hJywgJzIwMCcsICctbWV0YWxfYmluZGluZycsICctaW1hZScsICc8aW5maWxlLm1hZT4nLCAnLW9tYWUnLCAnPG91dGZpbGUubWFlPic=

> <r_lp_tautomer_probability>
1

> <r_epik_Ionization_Penalty>
0.00152183

> <r_epik_Ionization_Penalty_Charging>
0.00112577

> <r_epik_Ionization_Penalty_Neutral>
0.000396066

> <r_epik_State_Penalty>
-0

> <r_epik_Charging_Adjusted_Penalty>
0.00112577

> <i_epik_Tot_Q>
1

> <i_epik_Tot_abs_Q>
1

> <r_epik_Metal_State_Penalty>
-0

> <b_epik_Metal_Only>
0

> <s_lp_Force_Field>
OPLS_2005

> <r_lp_Energy>
45.0855

> <b_lp_Chiralities_Consistent>
1

> <s_lp_Variant>
AV-unprocessed.smi:152-4

> <Gold.Version>
5.8.1

> <Gold.Id.Protein>
6NUR|6NUR_protein|mol2

> <Gold.PLP.Fitness>
41.9381

> <Gold.PLP.PLP>
-36.6878

> <Gold.PLP.part.hbond>
-3.0000

> <Gold.PLP.part.metal>
0.0000

> <Gold.PLP.part.buried>
-5.6931

> <Gold.PLP.part.nonpolar>
-27.7470

> <Gold.PLP.part.repulsive>
0.2568

> <Gold.PLP.ligand.clash>
0.0000

> <Gold.PLP.ligand.torsion>
1.9677

> <Gold.PLP.Chemscore.Hbond>
2.8160

> <Gold.PLP.Chemscore.CHOScore>
0.0000

> <Gold.PLP.Chemscore.Metal>
0.0000

> <Gold.Chemscore.Hbonds>
donor molecule, donor type, donor heavy atom, donor atom, acceptor molecule, acceptor atom, score
      L1  H     3    58       P1 10747  0.36
      P1  H  7989  7998       L1    25  1.00
      P1  H 10752 10765       L1    22  1.00

> <Gold.PLP.Chemscore.Internal.Correction>
0.7378

> <Gold.Rescore>
     Score         DG    S(hbond)    S(metal)    S(lipo)     H(rot)  DE(clash)    DE(int)     intcor
     14.96     -18.22       2.57        0.00      95.44       2.73       1.21       2.05       ----

> <Gold.Chemscore.Fitness>
14.9600

> <Gold.Chemscore.DG>
-18.2160

> <Gold.Chemscore.ZeroCoef>
-5.4800

> <Gold.Chemscore.Hbond>
2.5662

> <Gold.Chemscore.Metal>
0.0000

> <Gold.Chemscore.Lipo>
95.4356

> <Gold.Chemscore.Internal_Hbond>
0.0000

> <Gold.Chemscore.DEClash>
1.2102

> <Gold.Chemscore.DEInternal>
2.0459

> <Gold.Chemscore.Rot>
2.7348

> <Gold.Chemscore.Internal.Correction>
   9.000000E+99

> <Gold.Chemscore.Hbonds>
donor molecule, donor type, donor heavy atom, donor atom, acceptor molecule, acceptor atom, score
      L1  H     3    58       P1 10747  0.36
      P1  H  7989  7998       L1    25  0.87
      P1  H 10752 10765       L1    22  0.83

> <Gold.Chemscore.Hbond.Weighted>
-8.5711

> <Gold.Chemscore.Metal.Weighted>
-0.0000

> <Gold.Chemscore.Lipo.Weighted>
-11.1660

> <Gold.Chemscore.Internal_Hbond.Weighted>
0.0000

> <Gold.Chemscore.DEClash.Weighted>
1.2102

> <Gold.Chemscore.DEInternal.Weighted>
2.0459

> <Gold.Chemscore.Rot.Weighted>
7.0010

> <Gold.Chemscore.Internal.Correction.Weighted>
   9.000000E+99

> <Gold.Protein.RotatedTorsions>
[ 6907 6896 6895 6894 ] final   74.55 input  -60.11 | X-H torsion
[ 7974 7965 7964 7962 ] final  152.26 input  175.53 | X-H torsion
[ 8008 7997 7996 7995 ] final  124.29 input   59.86 | X-H torsion
[ 10167 10162 10161 10158 ] final -131.97 input  -65.29 | X-H torsion
[ 10718 10713 10712 10709 ] final   59.77 input   66.30 | X-H torsion
[ 10763 10752 10751 10750 ] final -124.34 input  -60.55 | X-H torsion
[ 11005 11000 10999 10996 ] final -164.13 input  -57.11 | X-H torsion

> <Gold.Protein.ActiveResidues>
 VAL166  LYS551  ARG553  GLY616  TRP617  ASP618  TYR619  PRO620  LYS621  CYS622 
 ASP623  PHE694  ASN695  SER759  ASP760  ASP761  ALA762  ILE779  LEU786  VAL792 
 PHE793  MET794  SER795  GLU796  ALA797  LYS798  CYS799  TRP800  GLU811  SER814 

> <Gold.Protein.RotatedAtoms>
  152.4981  134.4254  159.9494 H   0  0  0  0  0  0  0  0  0  0  0  0  # atno 6907 bound_to 6896
  151.4229  133.3686  159.2766 H   0  0  0  0  0  0  0  0  0  0  0  0  # atno 6908 bound_to 6896
  150.9209  134.8649  159.7548 H   0  0  0  0  0  0  0  0  0  0  0  0  # atno 6909 bound_to 6896
  144.8235  139.6645  143.6090 H   0  0  0  0  0  0  0  0  0  0  0  0  # atno 7974 bound_to 7965
  156.2796  140.2743  156.1764 H   0  0  0  0  0  0  0  0  0  0  0  0  # atno 8008 bound_to 7997
  155.0602  140.0386  157.2592 H   0  0  0  0  0  0  0  0  0  0  0  0  # atno 8009 bound_to 7997
  154.7124  140.2671  155.6623 H   0  0  0  0  0  0  0  0  0  0  0  0  # atno 8010 bound_to 7997
  139.9134  143.6468  152.2570 H   0  0  0  0  0  0  0  0  0  0  0  0  # atno 10167 bound_to 10162
  157.5701  130.8901  149.9253 H   0  0  0  0  0  0  0  0  0  0  0  0  # atno 10718 bound_to 10713
  154.8722  135.4067  154.3090 H   0  0  0  0  0  0  0  0  0  0  0  0  # atno 10763 bound_to 10752
  153.3937  135.7016  153.6482 H   0  0  0  0  0  0  0  0  0  0  0  0  # atno 10764 bound_to 10752
  153.5254  135.3678  155.2622 H   0  0  0  0  0  0  0  0  0  0  0  0  # atno 10765 bound_to 10752
  140.5903  134.5051  157.5192 H   0  0  0  0  0  0  0  0  0  0  0  0  # atno 11005 bound_to 11000
  146.2540  139.6262  142.9407 LP  0  0  0  0  0  0  0  0  0  0  0  0  # atno 17320 bound_to 7965
  145.5053  141.0437  143.2518 LP  0  0  0  0  0  0  0  0  0  0  0  0  # atno 17321 bound_to 7965
  139.6923  144.7645  151.1416 LP  0  0  0  0  0  0  0  0  0  0  0  0  # atno 17342 bound_to 10162
  140.7680  143.5571  150.9139 LP  0  0  0  0  0  0  0  0  0  0  0  0  # atno 17343 bound_to 10162
  156.0747  130.3680  150.0702 LP  0  0  0  0  0  0  0  0  0  0  0  0  # atno 17370 bound_to 10713
  156.8855  130.9571  151.3594 LP  0  0  0  0  0  0  0  0  0  0  0  0  # atno 17371 bound_to 10713
  139.9277  134.8024  156.1021 LP  0  0  0  0  0  0  0  0  0  0  0  0  # atno 17394 bound_to 11000
  141.0939  133.6703  156.2601 LP  0  0  0  0  0  0  0  0  0  0  0  0  # atno 17395 bound_to 11000

$$$$
