AV-unprocessed.smi:1985|AV-procd|sdf|8043|dock7
  -GOLD-   2272010243D 1   1.00000     0.00000
 Structure written by MMmdl.
 50 51  0  0  0  0  0  0  0  0  1 V2000
  148.7115  142.0379  158.3135 C   0  0  0  0  0  0  0  0  0  0  0  0
  149.4615  141.3200  157.1771 C   0  0  0  0  0  0  0  0  0  0  0  0
  150.8873  140.7913  157.5368 C   0  0  2  0  0  0  0  0  0  0  0  0
  151.4612  140.1650  156.2359 C   0  0  0  0  0  0  0  0  0  0  0  0
  150.7326  139.6581  158.5995 C   0  0  0  0  0  0  0  0  0  0  0  0
  149.7479  138.6583  158.2026 N   0  0  0  0  0  0  0  0  0  0  0  0
  149.6694  137.3965  158.6527 C   0  0  0  0  0  0  0  0  0  0  0  0
  150.4811  136.9158  159.4421 O   0  0  0  0  0  0  0  0  0  0  0  0
  148.4998  136.5297  158.1525 C   0  0  0  0  0  0  0  0  0  0  0  0
  147.8637  135.7033  159.1917 N   0  0  0  0  0  0  0  0  0  0  0  0
  147.6281  134.3627  158.9461 C   0  0  0  0  0  0  0  0  0  0  0  0
  147.0104  133.5416  159.8229 C   0  0  0  0  0  0  0  0  0  0  0  0
  146.5457  134.0394  161.1114 C   0  0  0  0  0  0  0  0  0  0  0  0
  145.9566  133.3383  161.9354 O   0  0  0  0  0  0  0  0  0  0  0  0
  146.8127  135.4079  161.3455 N   0  0  0  0  0  0  0  0  0  0  0  0
  146.3463  135.9559  162.6023 C   0  0  0  0  0  0  0  0  0  0  0  0
  147.4545  136.2646  160.4219 C   0  0  0  0  0  0  0  0  0  0  0  0
  147.6414  137.4616  160.6515 O   0  0  0  0  0  0  0  0  0  0  0  0
  151.7647  141.8960  158.0172 N   0  0  0  0  0  0  0  0  0  0  0  0
  151.9488  141.9604  159.4720 C   0  0  0  0  0  0  0  0  0  0  0  0
  152.9774  143.0308  159.8757 C   0  0  0  0  0  0  0  0  0  0  0  0
  152.5780  144.2974  159.3658 O   0  0  0  0  0  0  0  0  0  0  0  0
  152.4408  144.2939  157.9498 C   0  0  0  0  0  0  0  0  0  0  0  0
  151.4067  143.2347  157.5323 C   0  0  0  0  0  0  0  0  0  0  0  0
  147.7233  142.3517  157.9774 H   0  0  0  0  0  0  0  0  0  0  0  0
  149.2391  142.9320  158.6443 H   0  0  0  0  0  0  0  0  0  0  0  0
  148.5696  141.3914  159.1793 H   0  0  0  0  0  0  0  0  0  0  0  0
  148.8394  140.5064  156.8041 H   0  0  0  0  0  0  0  0  0  0  0  0
  149.5205  142.0179  156.3412 H   0  0  0  0  0  0  0  0  0  0  0  0
  150.7341  139.5295  155.7283 H   0  0  0  0  0  0  0  0  0  0  0  0
  152.3309  139.5385  156.4343 H   0  0  0  0  0  0  0  0  0  0  0  0
  151.7677  140.9305  155.5225 H   0  0  0  0  0  0  0  0  0  0  0  0
  151.6744  139.1332  158.7572 H   0  0  0  0  0  0  0  0  0  0  0  0
  150.4439  140.0788  159.5631 H   0  0  0  0  0  0  0  0  0  0  0  0
  149.0375  138.9643  157.5536 H   0  0  0  0  0  0  0  0  0  0  0  0
  147.7573  137.1909  157.7036 H   0  0  0  0  0  0  0  0  0  0  0  0
  148.8557  135.8978  157.3371 H   0  0  0  0  0  0  0  0  0  0  0  0
  147.9463  133.9491  158.0000 H   0  0  0  0  0  0  0  0  0  0  0  0
  146.8521  132.5048  159.5647 H   0  0  0  0  0  0  0  0  0  0  0  0
  146.8005  136.9269  162.7979 H   0  0  0  0  0  0  0  0  0  0  0  0
  146.6385  135.2699  163.3995 H   0  0  0  0  0  0  0  0  0  0  0  0
  145.2613  136.0427  162.5270 H   0  0  0  0  0  0  0  0  0  0  0  0
  151.0022  142.1829  159.9642 H   0  0  0  0  0  0  0  0  0  0  0  0
  152.2936  141.0052  159.8642 H   0  0  0  0  0  0  0  0  0  0  0  0
  153.0540  143.0923  160.9612 H   0  0  0  0  0  0  0  0  0  0  0  0
  153.9688  142.7746  159.4988 H   0  0  0  0  0  0  0  0  0  0  0  0
  152.1242  145.2837  157.6206 H   0  0  0  0  0  0  0  0  0  0  0  0
  153.4069  144.0949  157.4834 H   0  0  0  0  0  0  0  0  0  0  0  0
  151.3334  143.2514  156.4466 H   0  0  0  0  0  0  0  0  0  0  0  0
  150.4315  143.5290  157.9200 H   0  0  0  0  0  0  0  0  0  0  0  0
  1  2  1  0  0  0  0
  1 25  1  0  0  0  0
  1 26  1  0  0  0  0
  1 27  1  0  0  0  0
  2  3  1  0  0  0  0
  2 28  1  0  0  0  0
  2 29  1  0  0  0  0
  3  4  1  0  0  0  0
  3  5  1  0  0  0  0
  3 19  1  0  0  0  0
  4 30  1  0  0  0  0
  4 31  1  0  0  0  0
  4 32  1  0  0  0  0
  5  6  1  0  0  0  0
  5 33  1  0  0  0  0
  5 34  1  0  0  0  0
  6  7  1  0  0  0  0
  6 35  1  0  0  0  0
  7  8  2  0  0  0  0
  7  9  1  0  0  0  0
  9 10  1  0  0  0  0
  9 36  1  0  0  0  0
  9 37  1  0  0  0  0
 10 17  1  0  0  0  0
 10 11  1  0  0  0  0
 11 12  2  0  0  0  0
 11 38  1  0  0  0  0
 12 13  1  0  0  0  0
 12 39  1  0  0  0  0
 13 14  2  0  0  0  0
 13 15  1  0  0  0  0
 15 16  1  0  0  0  0
 15 17  1  0  0  0  0
 16 40  1  0  0  0  0
 16 41  1  0  0  0  0
 16 42  1  0  0  0  0
 17 18  2  0  0  0  0
 19 24  1  0  0  0  0
 19 20  1  0  0  0  0
 20 21  1  0  0  0  0
 20 43  1  0  0  0  0
 20 44  1  0  0  0  0
 21 22  1  0  0  0  0
 21 45  1  0  0  0  0
 21 46  1  0  0  0  0
 22 23  1  0  0  0  0
 23 24  1  0  0  0  0
 23 47  1  0  0  0  0
 23 48  1  0  0  0  0
 24 49  1  0  0  0  0
 24 50  1  0  0  0  0
M  END
> <s_m_source_file>
AV-unprocessed.smi

> <i_m_source_file_index>
1985

> <i_lp_mmshare_version>
43012

> <i_f3d_flags>
0

> <s_epik_input>
W0NIMl0xW0NIMl1PW0NIMl1bQ0gyXU4xW0NAQF0oW0NIM10pKFtDSDJdW0NIM10pW0NIMl1bTkhdQyg9TylbQ0gyXW4yW2NIXVtjSF1jKD1PKW4oW0NIM10pYzI9Tw==

> <s_epik_cmdline>
J2VwaWtfcHl0aG9uJywgJy1waCcsICc3LjAnLCAnLXRuJywgJzgnLCAnLW1hJywgJzIwMCcsICctbWV0YWxfYmluZGluZycsICctaW1hZScsICc8aW5maWxlLm1hZT4nLCAnLW9tYWUnLCAnPG91dGZpbGUubWFlPic=

> <r_lp_tautomer_probability>
1

> <r_epik_Ionization_Penalty>
0.318667

> <r_epik_Ionization_Penalty_Charging>
1.17294e-08

> <r_epik_Ionization_Penalty_Neutral>
0.318667

> <r_epik_State_Penalty>
0.313095

> <r_epik_Charging_Adjusted_Penalty>
0.313095

> <i_epik_Tot_Q>
0

> <i_epik_Tot_abs_Q>
0

> <r_epik_Metal_State_Penalty>
0.313065

> <b_epik_Metal_Only>
0

> <s_lp_Force_Field>
OPLS_2005

> <r_lp_Energy>
50.9959

> <b_lp_Chiralities_Consistent>
1

> <s_lp_Variant>
AV-unprocessed.smi:1985-2

> <Gold.Version>
5.8.1

> <Gold.Id.Protein>
6NUR|6NUR_protein|mol2

> <Gold.PLP.Fitness>
46.4908

> <Gold.PLP.PLP>
-43.0843

> <Gold.PLP.part.hbond>
-3.0000

> <Gold.PLP.part.metal>
0.0000

> <Gold.PLP.part.buried>
-7.0724

> <Gold.PLP.part.nonpolar>
-33.9575

> <Gold.PLP.part.repulsive>
0.1657

> <Gold.PLP.ligand.clash>
0.1417

> <Gold.PLP.ligand.torsion>
2.0862

> <Gold.PLP.Chemscore.Hbond>
2.5200

> <Gold.PLP.Chemscore.CHOScore>
0.0000

> <Gold.PLP.Chemscore.Metal>
0.0000

> <Gold.Chemscore.Hbonds>
donor molecule, donor type, donor heavy atom, donor atom, acceptor molecule, acceptor atom, score
      P1  H  6896  6907       L1     8  1.00
      P1  H  6931  6943       L1    18  0.66
      P1  H  6934  6947       L1    18  0.91

> <Gold.PLP.Chemscore.Internal.Correction>
0.1606

> <Gold.Rescore>
     Score         DG    S(hbond)    S(metal)    S(lipo)     H(rot)  DE(clash)    DE(int)     intcor
     15.84     -18.92       2.61        0.00      88.43       2.20       0.09       2.98       ----

> <Gold.Chemscore.Fitness>
15.8447

> <Gold.Chemscore.DG>
-18.9174

> <Gold.Chemscore.ZeroCoef>
-5.4800

> <Gold.Chemscore.Hbond>
2.6081

> <Gold.Chemscore.Metal>
0.0000

> <Gold.Chemscore.Lipo>
88.4275

> <Gold.Chemscore.Internal_Hbond>
0.0000

> <Gold.Chemscore.DEClash>
0.0900

> <Gold.Chemscore.DEInternal>
2.9828

> <Gold.Chemscore.Rot>
2.1952

> <Gold.Chemscore.Internal.Correction>
   9.000000E+99

> <Gold.Chemscore.Hbonds>
donor molecule, donor type, donor heavy atom, donor atom, acceptor molecule, acceptor atom, score
      P1  H  6896  6907       L1     8  0.96
      P1  H  6931  6943       L1    18  0.62
      P1  H  6934  6947       L1    18  0.89

> <Gold.Chemscore.Hbond.Weighted>
-8.7111

> <Gold.Chemscore.Metal.Weighted>
-0.0000

> <Gold.Chemscore.Lipo.Weighted>
-10.3460

> <Gold.Chemscore.Internal_Hbond.Weighted>
0.0000

> <Gold.Chemscore.DEClash.Weighted>
0.0900

> <Gold.Chemscore.DEInternal.Weighted>
2.9828

> <Gold.Chemscore.Rot.Weighted>
5.6197

> <Gold.Chemscore.Internal.Correction.Weighted>
   9.000000E+99

> <Gold.Protein.RotatedTorsions>
[ 6907 6896 6895 6894 ] final  -15.81 input  -60.11 | X-H torsion
[ 7974 7965 7964 7962 ] final    3.62 input  175.53 | X-H torsion
[ 8008 7997 7996 7995 ] final  -78.02 input   59.86 | X-H torsion
[ 10167 10162 10161 10158 ] final -143.67 input  -65.29 | X-H torsion
[ 10718 10713 10712 10709 ] final   63.80 input   66.30 | X-H torsion
[ 10763 10752 10751 10750 ] final  -66.90 input  -60.55 | X-H torsion
[ 11005 11000 10999 10996 ] final   -9.13 input  -57.11 | X-H torsion

> <Gold.Protein.ActiveResidues>
 VAL166  LYS551  ARG553  GLY616  TRP617  ASP618  TYR619  PRO620  LYS621  CYS622 
 ASP623  PHE694  ASN695  SER759  ASP760  ASP761  ALA762  ILE779  LEU786  VAL792 
 PHE793  MET794  SER795  GLU796  ALA797  LYS798  CYS799  TRP800  GLU811  SER814 

> <Gold.Protein.RotatedAtoms>
  151.3183  135.0812  159.9296 H   0  0  0  0  0  0  0  0  0  0  0  0  # atno 6907 bound_to 6896
  152.5262  133.9665  159.7752 H   0  0  0  0  0  0  0  0  0  0  0  0  # atno 6908 bound_to 6896
  150.9981  133.6030  159.2729 H   0  0  0  0  0  0  0  0  0  0  0  0  # atno 6909 bound_to 6896
  146.2445  140.0658  142.8365 H   0  0  0  0  0  0  0  0  0  0  0  0  # atno 7974 bound_to 7965
  154.5650  140.0701  156.8877 H   0  0  0  0  0  0  0  0  0  0  0  0  # atno 8008 bound_to 7997
  155.2740  140.3367  155.4245 H   0  0  0  0  0  0  0  0  0  0  0  0  # atno 8009 bound_to 7997
  156.2073  140.1745  156.7757 H   0  0  0  0  0  0  0  0  0  0  0  0  # atno 8010 bound_to 7997
  139.7971  143.7885  152.2655 H   0  0  0  0  0  0  0  0  0  0  0  0  # atno 10167 bound_to 10162
  157.5996  130.9125  149.9763 H   0  0  0  0  0  0  0  0  0  0  0  0  # atno 10718 bound_to 10713
  154.3666  135.6104  153.5718 H   0  0  0  0  0  0  0  0  0  0  0  0  # atno 10763 bound_to 10752
  152.9791  135.5828  154.4570 H   0  0  0  0  0  0  0  0  0  0  0  0  # atno 10764 bound_to 10752
  154.4317  135.2848  155.1885 H   0  0  0  0  0  0  0  0  0  0  0  0  # atno 10765 bound_to 10752
  140.7309  133.8750  155.8892 H   0  0  0  0  0  0  0  0  0  0  0  0  # atno 11005 bound_to 11000
  145.0860  140.9253  143.4797 LP  0  0  0  0  0  0  0  0  0  0  0  0  # atno 17320 bound_to 7965
  145.0820  139.2952  143.5778 LP  0  0  0  0  0  0  0  0  0  0  0  0  # atno 17321 bound_to 7965
  139.7994  144.7380  150.9846 LP  0  0  0  0  0  0  0  0  0  0  0  0  # atno 17342 bound_to 10162
  140.7820  143.4361  151.0622 LP  0  0  0  0  0  0  0  0  0  0  0  0  # atno 17343 bound_to 10162
  156.1066  130.3652  150.0122 LP  0  0  0  0  0  0  0  0  0  0  0  0  # atno 17370 bound_to 10713
  156.8228  130.9365  151.3640 LP  0  0  0  0  0  0  0  0  0  0  0  0  # atno 17371 bound_to 10713
  140.9922  134.1263  157.4397 LP  0  0  0  0  0  0  0  0  0  0  0  0  # atno 17394 bound_to 11000
  139.8826  135.0044  156.6245 LP  0  0  0  0  0  0  0  0  0  0  0  0  # atno 17395 bound_to 11000

$$$$
