AV-unprocessed.smi:3353|AV-procd|sdf|12954|dock3
  -GOLD-   2272019393D 1   1.00000     0.00000
 Structure written by MMmdl.
 43 44  0  0  0  0  0  0  0  0  2 V2000
  151.4966  140.8089  157.4726 C   0  0  0  0  0  0  0  0  0  0  0  0
  152.2967  139.6691  156.8308 C   0  0  0  0  0  0  0  0  0  0  0  0
  151.5199  138.9648  155.8293 N   0  0  0  0  0  0  0  0  0  0  0  0
  151.1961  137.6231  155.7889 C   0  0  0  0  0  0  0  0  0  0  0  0
  150.4529  137.4566  154.6545 C   0  0  0  0  0  0  0  0  0  0  0  0
  149.8641  136.2789  154.1286 N   0  0  0  0  0  0  0  0  0  0  0  0
  150.0778  135.0138  154.5248 C   0  0  0  0  0  0  0  0  0  0  0  0
  150.8353  134.6749  155.4339 O   0  0  0  0  0  0  0  0  0  0  0  0
  149.3550  134.1493  153.7997 N   0  0  0  0  0  0  0  0  0  0  0  0
  149.3559  132.6989  153.9697 C   0  0  0  0  0  0  0  0  0  0  0  0
  147.9291  132.1047  153.8831 C   0  0  1  0  0  0  0  0  0  0  0  0
  146.9333  132.9375  154.7222 C   0  0  0  0  0  0  0  0  0  0  0  0
  147.4775  132.0023  152.4640 N   0  3  0  0  0  0  0  0  0  0  0  0
  146.2780  131.1657  152.2422 C   0  0  0  0  0  0  0  0  0  0  0  0
  145.7249  131.5680  150.8731 C   0  0  0  0  0  0  0  0  0  0  0  0
  146.3107  132.9526  150.5858 C   0  0  0  0  0  0  0  0  0  0  0  0
  147.1792  133.2902  151.8000 C   0  0  0  0  0  0  0  0  0  0  0  0
  150.3658  138.7408  154.0569 C   0  0  0  0  0  0  0  0  0  0  0  0
  151.0137  139.6474  154.7726 N   0  0  0  0  0  0  0  0  0  0  0  0
  152.0905  141.3212  158.2296 H   0  0  0  0  0  0  0  0  0  0  0  0
  150.5945  140.4320  157.9552 H   0  0  0  0  0  0  0  0  0  0  0  0
  151.1964  141.5484  156.7296 H   0  0  0  0  0  0  0  0  0  0  0  0
  153.2036  140.0564  156.3643 H   0  0  0  0  0  0  0  0  0  0  0  0
  152.6119  138.9552  157.5927 H   0  0  0  0  0  0  0  0  0  0  0  0
  151.5179  136.9326  156.5544 H   0  0  0  0  0  0  0  0  0  0  0  0
  149.2118  136.4170  153.3706 H   0  0  0  0  0  0  0  0  0  0  0  0
  148.7582  134.5228  153.0761 H   0  0  0  0  0  0  0  0  0  0  0  0
  149.9940  132.2166  153.2268 H   0  0  0  0  0  0  0  0  0  0  0  0
  149.8053  132.5018  154.9426 H   0  0  0  0  0  0  0  0  0  0  0  0
  147.9550  131.0957  154.2987 H   0  0  0  0  0  0  0  0  0  0  0  0
  147.2543  133.0303  155.7596 H   0  0  0  0  0  0  0  0  0  0  0  0
  145.9441  132.4815  154.7538 H   0  0  0  0  0  0  0  0  0  0  0  0
  146.8250  133.9455  154.3206 H   0  0  0  0  0  0  0  0  0  0  0  0
  146.5074  130.1006  152.2840 H   0  0  0  0  0  0  0  0  0  0  0  0
  145.5356  131.3825  153.0123 H   0  0  0  0  0  0  0  0  0  0  0  0
  146.0537  130.8616  150.1099 H   0  0  0  0  0  0  0  0  0  0  0  0
  144.6344  131.5727  150.8681 H   0  0  0  0  0  0  0  0  0  0  0  0
  146.9203  132.9154  149.6819 H   0  0  0  0  0  0  0  0  0  0  0  0
  145.5350  133.7030  150.4280 H   0  0  0  0  0  0  0  0  0  0  0  0
  146.6173  133.9296  152.4830 H   0  0  0  0  0  0  0  0  0  0  0  0
  148.0868  133.8203  151.5101 H   0  0  0  0  0  0  0  0  0  0  0  0
  149.8652  139.0394  153.1477 H   0  0  0  0  0  0  0  0  0  0  0  0
  148.2260  131.5762  151.9359 H   0  0  0  0  0  0  0  0  0  0  0  0
  1  2  1  0  0  0  0
  1 20  1  0  0  0  0
  1 21  1  0  0  0  0
  1 22  1  0  0  0  0
  2  3  1  0  0  0  0
  2 23  1  0  0  0  0
  2 24  1  0  0  0  0
  3 19  1  0  0  0  0
  3  4  1  0  0  0  0
  4  5  2  0  0  0  0
  4 25  1  0  0  0  0
  5  6  1  0  0  0  0
  5 18  1  0  0  0  0
  6  7  1  0  0  0  0
  6 26  1  0  0  0  0
  7  8  2  0  0  0  0
  7  9  1  0  0  0  0
  9 10  1  0  0  0  0
  9 27  1  0  0  0  0
 10 11  1  0  0  0  0
 10 28  1  0  0  0  0
 10 29  1  0  0  0  0
 11 12  1  0  0  0  0
 11 13  1  0  0  0  0
 11 30  1  0  0  0  0
 12 31  1  0  0  0  0
 12 32  1  0  0  0  0
 12 33  1  0  0  0  0
 13 17  1  0  0  0  0
 13 14  1  0  0  0  0
 13 43  1  0  0  0  0
 14 15  1  0  0  0  0
 14 34  1  0  0  0  0
 14 35  1  0  0  0  0
 15 16  1  0  0  0  0
 15 36  1  0  0  0  0
 15 37  1  0  0  0  0
 16 17  1  0  0  0  0
 16 38  1  0  0  0  0
 16 39  1  0  0  0  0
 17 40  1  0  0  0  0
 17 41  1  0  0  0  0
 18 19  2  0  0  0  0
 18 42  1  0  0  0  0
M  CHG  1  13   1
M  END
> <s_m_source_file>
AV-unprocessed.smi

> <i_m_source_file_index>
3353

> <i_lp_mmshare_version>
43012

> <i_f3d_flags>
0

> <s_epik_input>
W0NIM11bQ0gyXW4xW2NIXWMoW2NIXW4xKVtOSF1DKD1PKVtOSF1bQ0gyXVtDQEhdKFtDSDNdKU4yW0NIMl1bQ0gyXVtDSDJdW0NIMl0y

> <s_epik_cmdline>
J2VwaWtfcHl0aG9uJywgJy1waCcsICc3LjAnLCAnLXRuJywgJzgnLCAnLW1hJywgJzIwMCcsICctbWV0YWxfYmluZGluZycsICctaW1hZScsICc8aW5maWxlLm1hZT4nLCAnLW9tYWUnLCAnPG91dGZpbGUubWFlPic=

> <r_lp_tautomer_probability>
1

> <r_epik_Ionization_Penalty>
0.000914091

> <r_epik_Ionization_Penalty_Charging>
0.000761583

> <r_epik_Ionization_Penalty_Neutral>
0.000152508

> <r_epik_State_Penalty>
0.000487427

> <r_epik_Charging_Adjusted_Penalty>
0.00124901

> <i_epik_Tot_Q>
1

> <i_epik_Tot_abs_Q>
1

> <r_epik_Metal_State_Penalty>
-0

> <b_epik_Metal_Only>
0

> <s_lp_Force_Field>
OPLS_2005

> <r_lp_Energy>
35.4291

> <b_lp_Chiralities_Consistent>
1

> <s_lp_Variant>
AV-unprocessed.smi:3353-2

> <Gold.Version>
5.8.1

> <Gold.Id.Protein>
6NUR|6NUR_protein|mol2

> <Gold.PLP.Fitness>
44.4651

> <Gold.PLP.PLP>
-31.6662

> <Gold.PLP.part.hbond>
-4.6999

> <Gold.PLP.part.metal>
0.0000

> <Gold.PLP.part.buried>
-1.5941

> <Gold.PLP.part.nonpolar>
-25.5111

> <Gold.PLP.part.repulsive>
0.1821

> <Gold.PLP.ligand.clash>
0.0000

> <Gold.PLP.ligand.torsion>
0.3927

> <Gold.PLP.Chemscore.Hbond>
3.5132

> <Gold.PLP.Chemscore.CHOScore>
1.0000

> <Gold.PLP.Chemscore.Metal>
0.0000

> <Gold.Chemscore.Hbonds>
donor molecule, donor type, donor heavy atom, donor atom, acceptor molecule, acceptor atom, score
      L1  H     6    26       P1  7948  0.86
      L1  H     9    27       P1  7948  0.46
      L1  H    13    43       P1 10747  1.00
      P1  H  7989  7998       L1    19  1.00
      L1  C    18    42       P1  7957  1.00

> <Gold.PLP.Chemscore.Internal.Correction>
0.0447

> <Gold.Rescore>
     Score         DG    S(hbond)    S(metal)    S(lipo)     H(rot)  DE(clash)    DE(int)     intcor
     15.57     -18.09       2.28        0.00      77.84       1.61       0.73       1.79       ----

> <Gold.Chemscore.Fitness>
15.5691

> <Gold.Chemscore.DG>
-18.0893

> <Gold.Chemscore.ZeroCoef>
-5.4800

> <Gold.Chemscore.Hbond>
2.2839

> <Gold.Chemscore.Metal>
0.0000

> <Gold.Chemscore.Lipo>
77.8385

> <Gold.Chemscore.Internal_Hbond>
0.0000

> <Gold.Chemscore.DEClash>
0.7345

> <Gold.Chemscore.DEInternal>
1.7857

> <Gold.Chemscore.Rot>
1.6117

> <Gold.Chemscore.Internal.Correction>
   9.000000E+99

> <Gold.Chemscore.Hbonds>
donor molecule, donor type, donor heavy atom, donor atom, acceptor molecule, acceptor atom, score
      L1  H     6    26       P1  7948  0.74
      L1  H     9    27       P1  7948  0.06
      L1  H    13    43       P1 10747  0.96
      P1  H  7989  7998       L1    19  0.45
      P1  H 10752 10764       L1     8  0.01

> <Gold.Chemscore.Hbond.Weighted>
-7.6282

> <Gold.Chemscore.Metal.Weighted>
-0.0000

> <Gold.Chemscore.Lipo.Weighted>
-9.1071

> <Gold.Chemscore.Internal_Hbond.Weighted>
0.0000

> <Gold.Chemscore.DEClash.Weighted>
0.7345

> <Gold.Chemscore.DEInternal.Weighted>
1.7857

> <Gold.Chemscore.Rot.Weighted>
4.1260

> <Gold.Chemscore.Internal.Correction.Weighted>
   9.000000E+99

> <Gold.Protein.RotatedTorsions>
[ 6907 6896 6895 6894 ] final   25.13 input  -60.11 | X-H torsion
[ 7974 7965 7964 7962 ] final   -0.62 input  175.53 | X-H torsion
[ 8008 7997 7996 7995 ] final -140.92 input   59.86 | X-H torsion
[ 10167 10162 10161 10158 ] final -169.89 input  -65.29 | X-H torsion
[ 10718 10713 10712 10709 ] final  -57.34 input   66.30 | X-H torsion
[ 10763 10752 10751 10750 ] final  -22.58 input  -60.55 | X-H torsion
[ 11005 11000 10999 10996 ] final   50.54 input  -57.11 | X-H torsion

> <Gold.Protein.ActiveResidues>
 VAL166  LYS551  ARG553  GLY616  TRP617  ASP618  TYR619  PRO620  LYS621  CYS622 
 ASP623  PHE694  ASN695  SER759  ASP760  ASP761  ALA762  ILE779  LEU786  VAL792 
 PHE793  MET794  SER795  GLU796  ALA797  LYS798  CYS799  TRP800  GLU811  SER814 

> <Gold.Protein.RotatedAtoms>
  151.9678  135.0091  160.0550 H   0  0  0  0  0  0  0  0  0  0  0  0  # atno 6907 bound_to 6896
  152.1810  133.4703  159.4966 H   0  0  0  0  0  0  0  0  0  0  0  0  # atno 6908 bound_to 6896
  150.6917  134.1751  159.4270 H   0  0  0  0  0  0  0  0  0  0  0  0  # atno 6909 bound_to 6896
  146.2425  140.1297  142.8338 H   0  0  0  0  0  0  0  0  0  0  0  0  # atno 7974 bound_to 7965
  155.4693  140.0551  157.2981 H   0  0  0  0  0  0  0  0  0  0  0  0  # atno 8008 bound_to 7997
  154.4705  140.2038  155.9961 H   0  0  0  0  0  0  0  0  0  0  0  0  # atno 8009 bound_to 7997
  156.1047  140.3213  155.7995 H   0  0  0  0  0  0  0  0  0  0  0  0  # atno 8010 bound_to 7997
  139.5895  144.1244  152.1617 H   0  0  0  0  0  0  0  0  0  0  0  0  # atno 10167 bound_to 10162
  156.1218  130.4165  150.0427 H   0  0  0  0  0  0  0  0  0  0  0  0  # atno 10718 bound_to 10713
  153.6543  135.6979  153.5198 H   0  0  0  0  0  0  0  0  0  0  0  0  # atno 10763 bound_to 10752
  153.2682  135.4223  155.0961 H   0  0  0  0  0  0  0  0  0  0  0  0  # atno 10764 bound_to 10752
  154.8468  135.3572  154.6087 H   0  0  0  0  0  0  0  0  0  0  0  0  # atno 10765 bound_to 10752
  140.1009  134.5083  155.8764 H   0  0  0  0  0  0  0  0  0  0  0  0  # atno 11005 bound_to 11000
  145.0336  140.8890  143.5094 LP  0  0  0  0  0  0  0  0  0  0  0  0  # atno 17320 bound_to 7965
  145.1366  139.2598  143.5512 LP  0  0  0  0  0  0  0  0  0  0  0  0  # atno 17321 bound_to 7965
  140.0815  144.5696  150.7119 LP  0  0  0  0  0  0  0  0  0  0  0  0  # atno 17342 bound_to 10162
  140.7161  143.2546  151.4430 LP  0  0  0  0  0  0  0  0  0  0  0  0  # atno 17343 bound_to 10162
  156.8363  130.9410  151.3634 LP  0  0  0  0  0  0  0  0  0  0  0  0  # atno 17370 bound_to 10713
  157.6401  130.8799  149.9433 LP  0  0  0  0  0  0  0  0  0  0  0  0  # atno 17371 bound_to 10713
  141.2105  133.6696  156.6515 LP  0  0  0  0  0  0  0  0  0  0  0  0  # atno 17394 bound_to 11000
  140.3222  134.7998  157.4261 LP  0  0  0  0  0  0  0  0  0  0  0  0  # atno 17395 bound_to 11000

$$$$
