AV-unprocessed.smi:2224|AV-procd|sdf|8996|dock2
  -GOLD-   2272012203D 1   1.00000     0.00000
 Structure written by MMmdl.
 44 46  0  0  0  0  0  0  0  0  1 V2000
  154.1375  141.5642  162.1783 C   0  0  0  0  0  0  0  0  0  0  0  0
  153.2769  142.1371  161.0719 C   0  0  0  0  0  0  0  0  0  0  0  0
  152.7750  143.4503  161.1519 C   0  0  0  0  0  0  0  0  0  0  0  0
  151.9796  143.9233  160.0897 C   0  0  0  0  0  0  0  0  0  0  0  0
  151.4072  145.3250  160.1098 C   0  0  0  0  0  0  0  0  0  0  0  0
  151.6771  143.1767  159.0060 N   0  0  0  0  0  0  0  0  0  0  0  0
  152.1547  141.9104  158.9188 C   0  0  0  0  0  0  0  0  0  0  0  0
  151.8994  141.0455  157.8221 N   0  0  0  0  0  0  0  0  0  0  0  0
  151.0751  141.2457  156.7790 C   0  0  0  0  0  0  0  0  0  0  0  0
  150.3681  142.2392  156.6075 O   0  0  0  0  0  0  0  0  0  0  0  0
  151.1047  140.2054  155.9356 N   0  0  0  0  0  0  0  0  0  0  0  0
  150.2937  140.0851  154.7227 C   0  0  1  0  0  0  0  0  0  0  0  0
  150.3221  138.6626  154.1197 C   0  0  1  0  0  0  0  0  0  0  0  0
  151.2895  137.5976  154.5756 C   0  0  0  0  0  0  0  0  0  0  0  0
  150.4577  136.7899  155.5762 C   0  0  0  0  0  0  0  0  0  0  0  0
  149.4056  137.6686  155.9698 O   0  0  0  0  0  0  0  0  0  0  0  0
  148.9974  138.4055  154.8190 C   0  0  1  0  0  0  0  0  0  0  0  0
  148.7778  139.9207  155.0149 C   0  0  0  0  0  0  0  0  0  0  0  0
  148.2335  140.3584  156.3817 C   0  0  0  0  0  0  0  0  0  0  0  0
  147.8663  140.5626  153.9648 C   0  0  0  0  0  0  0  0  0  0  0  0
  152.9618  141.3596  159.9395 C   0  0  0  0  0  0  0  0  0  0  0  0
  154.3702  142.3181  162.9313 H   0  0  0  0  0  0  0  0  0  0  0  0
  155.0767  141.1887  161.7716 H   0  0  0  0  0  0  0  0  0  0  0  0
  153.6205  140.7394  162.6690 H   0  0  0  0  0  0  0  0  0  0  0  0
  152.9930  144.0780  162.0037 H   0  0  0  0  0  0  0  0  0  0  0  0
  151.8145  145.9063  160.9374 H   0  0  0  0  0  0  0  0  0  0  0  0
  150.3232  145.2878  160.2196 H   0  0  0  0  0  0  0  0  0  0  0  0
  151.6416  145.8469  159.1815 H   0  0  0  0  0  0  0  0  0  0  0  0
  152.4005  140.1699  157.8348 H   0  0  0  0  0  0  0  0  0  0  0  0
  151.7073  139.4264  156.1566 H   0  0  0  0  0  0  0  0  0  0  0  0
  150.5064  140.8498  153.9733 H   0  0  0  0  0  0  0  0  0  0  0  0
  150.1904  138.6997  153.0372 H   0  0  0  0  0  0  0  0  0  0  0  0
  151.6293  136.9694  153.7518 H   0  0  0  0  0  0  0  0  0  0  0  0
  152.1764  138.0212  155.0463 H   0  0  0  0  0  0  0  0  0  0  0  0
  150.0241  135.9132  155.0930 H   0  0  0  0  0  0  0  0  0  0  0  0
  151.0413  136.4541  156.4337 H   0  0  0  0  0  0  0  0  0  0  0  0
  148.2612  137.8853  154.2042 H   0  0  0  0  0  0  0  0  0  0  0  0
  147.1806  140.0991  156.4955 H   0  0  0  0  0  0  0  0  0  0  0  0
  148.3232  141.4365  156.5184 H   0  0  0  0  0  0  0  0  0  0  0  0
  148.7633  139.8841  157.2079 H   0  0  0  0  0  0  0  0  0  0  0  0
  146.8319  140.2363  154.0771 H   0  0  0  0  0  0  0  0  0  0  0  0
  148.1755  140.3043  152.9515 H   0  0  0  0  0  0  0  0  0  0  0  0
  147.8792  141.6506  154.0363 H   0  0  0  0  0  0  0  0  0  0  0  0
  153.3358  140.3491  159.8585 H   0  0  0  0  0  0  0  0  0  0  0  0
  1  2  1  0  0  0  0
  1 22  1  0  0  0  0
  1 23  1  0  0  0  0
  1 24  1  0  0  0  0
  2 21  1  0  0  0  0
  2  3  2  0  0  0  0
  3  4  1  0  0  0  0
  3 25  1  0  0  0  0
  4  5  1  0  0  0  0
  4  6  2  0  0  0  0
  5 26  1  0  0  0  0
  5 27  1  0  0  0  0
  5 28  1  0  0  0  0
  6  7  1  0  0  0  0
  7  8  1  0  0  0  0
  7 21  2  0  0  0  0
  8  9  1  0  0  0  0
  8 29  1  0  0  0  0
  9 10  2  0  0  0  0
  9 11  1  0  0  0  0
 11 12  1  0  0  0  0
 11 30  1  0  0  0  0
 12 18  1  0  0  0  0
 12 13  1  0  0  0  0
 12 31  1  0  0  0  0
 13 17  1  0  0  0  0
 13 14  1  0  0  0  0
 13 32  1  0  0  0  0
 14 15  1  0  0  0  0
 14 33  1  0  0  0  0
 14 34  1  0  0  0  0
 15 16  1  0  0  0  0
 15 35  1  0  0  0  0
 15 36  1  0  0  0  0
 16 17  1  0  0  0  0
 17 18  1  0  0  0  0
 17 37  1  0  0  0  0
 18 19  1  0  0  0  0
 18 20  1  0  0  0  0
 19 38  1  0  0  0  0
 19 39  1  0  0  0  0
 19 40  1  0  0  0  0
 20 41  1  0  0  0  0
 20 42  1  0  0  0  0
 20 43  1  0  0  0  0
 21 44  1  0  0  0  0
M  END
> <s_m_source_file>
AV-unprocessed.smi

> <i_m_source_file_index>
2224

> <i_lp_mmshare_version>
43012

> <i_f3d_flags>
0

> <s_epik_input>
W0NIM11jMVtjSF1jKFtDSDNdKW5jKFtjSF0xKVtOSF1DKD1PKVtOSF1bQ0BIXTJDKFtDSDNdKShbQ0gzXSlbQ0BIXShbQ0BASF0yMylPW0NIMl1bQ0gyXTM=

> <s_epik_cmdline>
J2VwaWtfcHl0aG9uJywgJy1waCcsICc3LjAnLCAnLXRuJywgJzgnLCAnLW1hJywgJzIwMCcsICctbWV0YWxfYmluZGluZycsICctaW1hZScsICc8aW5maWxlLm1hZT4nLCAnLW9tYWUnLCAnPG91dGZpbGUubWFlPic=

> <r_lp_tautomer_probability>
1

> <r_epik_Ionization_Penalty>
0.000276544

> <r_epik_Ionization_Penalty_Charging>
0

> <r_epik_Ionization_Penalty_Neutral>
0.000276544

> <r_epik_State_Penalty>
-0

> <r_epik_Charging_Adjusted_Penalty>
0

> <i_epik_Tot_Q>
0

> <i_epik_Tot_abs_Q>
0

> <r_epik_Metal_State_Penalty>
-0

> <b_epik_Metal_Only>
0

> <s_lp_Force_Field>
OPLS_2005

> <r_lp_Energy>
39.8946

> <b_lp_Chiralities_Consistent>
1

> <s_lp_Variant>
AV-unprocessed.smi:2224-6

> <Gold.Version>
5.8.1

> <Gold.Id.Protein>
6NUR|6NUR_protein|mol2

> <Gold.PLP.Fitness>
40.5900

> <Gold.PLP.PLP>
-40.6155

> <Gold.PLP.part.hbond>
0.0000

> <Gold.PLP.part.metal>
0.0000

> <Gold.PLP.part.buried>
-3.3224

> <Gold.PLP.part.nonpolar>
-38.0509

> <Gold.PLP.part.repulsive>
0.9753

> <Gold.PLP.ligand.clash>
0.0000

> <Gold.PLP.ligand.torsion>
0.1066

> <Gold.PLP.Chemscore.Hbond>
0.0000

> <Gold.PLP.Chemscore.CHOScore>
0.0000

> <Gold.PLP.Chemscore.Metal>
0.0000

> <Gold.PLP.Chemscore.Internal.Correction>
0.1876

> <Gold.Rescore>
     Score         DG    S(hbond)    S(metal)    S(lipo)     H(rot)  DE(clash)    DE(int)     intcor
     11.58     -16.33       0.00        0.00     114.61       1.00       1.29       3.45       ----

> <Gold.Chemscore.Fitness>
11.5847

> <Gold.Chemscore.DG>
-16.3298

> <Gold.Chemscore.ZeroCoef>
-5.4800

> <Gold.Chemscore.Hbond>
0.0000

> <Gold.Chemscore.Metal>
0.0000

> <Gold.Chemscore.Lipo>
114.6137

> <Gold.Chemscore.Internal_Hbond>
0.0000

> <Gold.Chemscore.DEClash>
1.2924

> <Gold.Chemscore.DEInternal>
3.4526

> <Gold.Chemscore.Rot>
1.0000

> <Gold.Chemscore.Internal.Correction>
   9.000000E+99

> <Gold.Chemscore.Hbond.Weighted>
-0.0000

> <Gold.Chemscore.Metal.Weighted>
-0.0000

> <Gold.Chemscore.Lipo.Weighted>
-13.4098

> <Gold.Chemscore.Internal_Hbond.Weighted>
0.0000

> <Gold.Chemscore.DEClash.Weighted>
1.2924

> <Gold.Chemscore.DEInternal.Weighted>
3.4526

> <Gold.Chemscore.Rot.Weighted>
2.5600

> <Gold.Chemscore.Internal.Correction.Weighted>
   9.000000E+99

> <Gold.Protein.RotatedTorsions>
[ 6907 6896 6895 6894 ] final  126.29 input  -60.11 | X-H torsion
[ 7974 7965 7964 7962 ] final  -88.24 input  175.53 | X-H torsion
[ 8008 7997 7996 7995 ] final   72.15 input   59.86 | X-H torsion
[ 10167 10162 10161 10158 ] final  162.20 input  -65.29 | X-H torsion
[ 10718 10713 10712 10709 ] final   -3.67 input   66.30 | X-H torsion
[ 10763 10752 10751 10750 ] final  -42.48 input  -60.55 | X-H torsion
[ 11005 11000 10999 10996 ] final -137.50 input  -57.11 | X-H torsion

> <Gold.Protein.ActiveResidues>
 VAL166  LYS551  ARG553  GLY616  TRP617  ASP618  TYR619  PRO620  LYS621  CYS622 
 ASP623  PHE694  ASN695  SER759  ASP760  ASP761  ALA762  ILE779  LEU786  VAL792 
 PHE793  MET794  SER795  GLU796  ALA797  LYS798  CYS799  TRP800  GLU811  SER814 

> <Gold.Protein.RotatedAtoms>
  152.3916  133.6687  159.6242 H   0  0  0  0  0  0  0  0  0  0  0  0  # atno 6907 bound_to 6896
  150.7823  133.8944  159.3331 H   0  0  0  0  0  0  0  0  0  0  0  0  # atno 6908 bound_to 6896
  151.6729  135.0975  160.0253 H   0  0  0  0  0  0  0  0  0  0  0  0  # atno 6909 bound_to 6896
  145.4558  140.9561  143.1997 H   0  0  0  0  0  0  0  0  0  0  0  0  # atno 7974 bound_to 7965
  155.7645  140.3486  155.5215 H   0  0  0  0  0  0  0  0  0  0  0  0  # atno 8008 bound_to 7997
  155.8882  140.1013  157.1458 H   0  0  0  0  0  0  0  0  0  0  0  0  # atno 8009 bound_to 7997
  154.4031  140.1309  156.4269 H   0  0  0  0  0  0  0  0  0  0  0  0  # atno 8010 bound_to 7997
  139.4858  144.4461  151.8890 H   0  0  0  0  0  0  0  0  0  0  0  0  # atno 10167 bound_to 10162
  156.7727  130.5305  149.5764 H   0  0  0  0  0  0  0  0  0  0  0  0  # atno 10718 bound_to 10713
  153.9797  135.6718  153.4749 H   0  0  0  0  0  0  0  0  0  0  0  0  # atno 10763 bound_to 10752
  153.0754  135.4951  154.8389 H   0  0  0  0  0  0  0  0  0  0  0  0  # atno 10764 bound_to 10752
  154.7171  135.3109  154.9067 H   0  0  0  0  0  0  0  0  0  0  0  0  # atno 10765 bound_to 10752
  140.8705  134.2057  157.4654 H   0  0  0  0  0  0  0  0  0  0  0  0  # atno 11005 bound_to 11000
  144.8033  139.6099  143.7062 LP  0  0  0  0  0  0  0  0  0  0  0  0  # atno 17320 bound_to 7965
  146.2479  139.6137  142.9447 LP  0  0  0  0  0  0  0  0  0  0  0  0  # atno 17321 bound_to 7965
  140.3915  144.2609  150.5899 LP  0  0  0  0  0  0  0  0  0  0  0  0  # atno 17342 bound_to 10162
  140.5141  143.2282  151.8490 LP  0  0  0  0  0  0  0  0  0  0  0  0  # atno 17343 bound_to 10162
  156.1268  130.6149  151.0275 LP  0  0  0  0  0  0  0  0  0  0  0  0  # atno 17370 bound_to 10713
  157.6683  131.0867  150.7674 LP  0  0  0  0  0  0  0  0  0  0  0  0  # atno 17371 bound_to 10713
  139.8712  134.9772  156.4949 LP  0  0  0  0  0  0  0  0  0  0  0  0  # atno 17394 bound_to 11000
  140.8579  133.8082  155.9234 LP  0  0  0  0  0  0  0  0  0  0  0  0  # atno 17395 bound_to 11000

$$$$
