AV-unprocessed.smi:2510|AV-procd|sdf|9876|dock8
  -GOLD-   2272013513D 1   1.00000     0.00000
 Structure written by MMmdl.
 48 49  0  0  0  0  0  0  0  0  1 V2000
  147.3297  141.8450  153.7723 C   0  0  0  0  0  0  0  0  0  0  0  0
  148.7955  141.5250  154.1202 C   0  0  0  0  0  0  0  0  0  0  0  0
  149.0456  140.3623  155.1232 C   0  0  0  0  0  0  0  0  0  0  0  0
  148.2570  140.6322  156.4234 C   0  0  0  0  0  0  0  0  0  0  0  0
  148.1975  139.4451  157.3989 C   0  0  0  0  0  0  0  0  0  0  0  0
  148.9561  138.9050  154.5880 C   0  0  1  0  0  0  0  0  0  0  0  0
  148.0938  138.7079  153.4292 N   0  0  0  0  0  0  0  0  0  0  0  0
  146.8442  138.2236  153.4856 C   0  0  0  0  0  0  0  0  0  0  0  0
  146.2737  137.9390  154.5383 O   0  0  0  0  0  0  0  0  0  0  0  0
  146.1271  138.0337  152.1489 C   0  0  0  0  0  0  0  0  0  0  0  0
  145.6964  136.5993  151.9936 C   0  0  0  0  0  0  0  0  0  0  0  0
  145.1406  135.9664  150.8415 C   0  0  0  0  0  0  0  0  0  0  0  0
  144.9355  134.6728  151.2309 C   0  0  0  0  0  0  0  0  0  0  0  0
  144.3864  133.4957  150.4991 C   0  0  0  0  0  0  0  0  0  0  0  0
  145.3535  134.5950  152.5391 N   0  0  0  0  0  0  0  0  0  0  0  0
  145.8171  135.7643  153.0167 N   0  0  0  0  0  0  0  0  0  0  0  0
  150.4377  138.9696  154.2052 C   0  0  2  0  0  0  0  0  0  0  0  0
  151.2806  137.7008  154.2389 C   0  0  0  0  0  0  0  0  0  0  0  0
  150.5554  140.0349  155.3109 C   0  0  2  0  0  0  0  0  0  0  0  0
  150.8273  139.4660  156.5881 O   0  0  0  0  0  0  0  0  0  0  0  0
  151.0475  140.4379  157.5956 C   0  0  0  0  0  0  0  0  0  0  0  0
  145.3288  133.7622  153.1103 H   0  0  0  0  0  0  0  0  0  0  0  0
  147.2852  142.5928  152.9805 H   0  0  0  0  0  0  0  0  0  0  0  0
  146.7892  142.2567  154.6240 H   0  0  0  0  0  0  0  0  0  0  0  0
  146.7862  140.9705  153.4211 H   0  0  0  0  0  0  0  0  0  0  0  0
  149.3108  141.3250  153.1812 H   0  0  0  0  0  0  0  0  0  0  0  0
  149.2620  142.4374  154.4919 H   0  0  0  0  0  0  0  0  0  0  0  0
  148.6458  141.5100  156.9385 H   0  0  0  0  0  0  0  0  0  0  0  0
  147.2307  140.9078  156.1791 H   0  0  0  0  0  0  0  0  0  0  0  0
  147.5672  139.6846  158.2553 H   0  0  0  0  0  0  0  0  0  0  0  0
  149.1826  139.1864  157.7855 H   0  0  0  0  0  0  0  0  0  0  0  0
  147.7798  138.5581  156.9224 H   0  0  0  0  0  0  0  0  0  0  0  0
  148.7912  138.1767  155.3862 H   0  0  0  0  0  0  0  0  0  0  0  0
  148.4838  138.9232  152.5232 H   0  0  0  0  0  0  0  0  0  0  0  0
  145.2706  138.7077  152.1023 H   0  0  0  0  0  0  0  0  0  0  0  0
  146.7906  138.3221  151.3326 H   0  0  0  0  0  0  0  0  0  0  0  0
  144.9304  136.3980  149.8742 H   0  0  0  0  0  0  0  0  0  0  0  0
  144.0833  133.7711  149.4886 H   0  0  0  0  0  0  0  0  0  0  0  0
  143.5143  133.0912  151.0136 H   0  0  0  0  0  0  0  0  0  0  0  0
  145.1326  132.7045  150.4234 H   0  0  0  0  0  0  0  0  0  0  0  0
  150.5531  139.4586  153.2364 H   0  0  0  0  0  0  0  0  0  0  0  0
  151.1857  137.1789  155.1913 H   0  0  0  0  0  0  0  0  0  0  0  0
  152.3362  137.9235  154.0843 H   0  0  0  0  0  0  0  0  0  0  0  0
  150.9740  137.0079  153.4554 H   0  0  0  0  0  0  0  0  0  0  0  0
  151.2081  140.8735  155.0611 H   0  0  0  0  0  0  0  0  0  0  0  0
  151.2889  139.9416  158.5353 H   0  0  0  0  0  0  0  0  0  0  0  0
  150.1536  141.0420  157.7554 H   0  0  0  0  0  0  0  0  0  0  0  0
  151.8749  141.1005  157.3420 H   0  0  0  0  0  0  0  0  0  0  0  0
  1  2  1  0  0  0  0
  1 23  1  0  0  0  0
  1 24  1  0  0  0  0
  1 25  1  0  0  0  0
  2  3  1  0  0  0  0
  2 26  1  0  0  0  0
  2 27  1  0  0  0  0
  3 19  1  0  0  0  0
  3  4  1  0  0  0  0
  3  6  1  0  0  0  0
  4  5  1  0  0  0  0
  4 28  1  0  0  0  0
  4 29  1  0  0  0  0
  5 30  1  0  0  0  0
  5 31  1  0  0  0  0
  5 32  1  0  0  0  0
  6  7  1  0  0  0  0
  6 17  1  0  0  0  0
  6 33  1  0  0  0  0
  7  8  1  0  0  0  0
  7 34  1  0  0  0  0
  8  9  2  0  0  0  0
  8 10  1  0  0  0  0
 10 11  1  0  0  0  0
 10 35  1  0  0  0  0
 10 36  1  0  0  0  0
 11 16  2  0  0  0  0
 11 12  1  0  0  0  0
 12 13  2  0  0  0  0
 12 37  1  0  0  0  0
 13 14  1  0  0  0  0
 13 15  1  0  0  0  0
 14 38  1  0  0  0  0
 14 39  1  0  0  0  0
 14 40  1  0  0  0  0
 15 22  1  0  0  0  0
 15 16  1  0  0  0  0
 17 18  1  0  0  0  0
 17 19  1  0  0  0  0
 17 41  1  0  0  0  0
 18 42  1  0  0  0  0
 18 43  1  0  0  0  0
 18 44  1  0  0  0  0
 19 20  1  0  0  0  0
 19 45  1  0  0  0  0
 20 21  1  0  0  0  0
 21 46  1  0  0  0  0
 21 47  1  0  0  0  0
 21 48  1  0  0  0  0
M  END
> <s_m_source_file>
AV-unprocessed.smi

> <i_m_source_file_index>
2510

> <i_lp_mmshare_version>
43012

> <i_f3d_flags>
0

> <s_epik_input>
W0NIM11PW0NAQEhdMVtDQEhdKFtDSDNdKVtDQEBIXShDMShbQ0gyXVtDSDNdKVtDSDJdW0NIM10pW05IXUMoPU8pW0NIMl1jMltjSF1jKFtDSDNdKVtuSF1uMg==

> <s_epik_cmdline>
J2VwaWtfcHl0aG9uJywgJy1waCcsICc3LjAnLCAnLXRuJywgJzgnLCAnLW1hJywgJzIwMCcsICctbWV0YWxfYmluZGluZycsICctaW1hZScsICc8aW5maWxlLm1hZT4nLCAnLW9tYWUnLCAnPG91dGZpbGUubWFlPic=

> <r_lp_tautomer_probability>
0.5

> <r_epik_Ionization_Penalty>
9.73156e-05

> <r_epik_Ionization_Penalty_Charging>
0

> <r_epik_Ionization_Penalty_Neutral>
9.73156e-05

> <r_epik_State_Penalty>
0.41068

> <r_epik_Charging_Adjusted_Penalty>
0.41068

> <i_epik_Tot_Q>
0

> <i_epik_Tot_abs_Q>
0

> <r_epik_Metal_State_Penalty>
0.410699

> <b_epik_Metal_Only>
0

> <s_lp_Force_Field>
OPLS_2005

> <r_lp_Energy>
28.6218

> <b_lp_Chiralities_Consistent>
1

> <s_lp_Variant>
AV-unprocessed.smi:2510-7

> <Gold.Version>
5.8.1

> <Gold.Id.Protein>
6NUR|6NUR_protein|mol2

> <Gold.PLP.Fitness>
36.9591

> <Gold.PLP.PLP>
-34.8532

> <Gold.PLP.part.hbond>
-1.9990

> <Gold.PLP.part.metal>
0.0000

> <Gold.PLP.part.buried>
-1.0527

> <Gold.PLP.part.nonpolar>
-32.3795

> <Gold.PLP.part.repulsive>
0.2259

> <Gold.PLP.ligand.clash>
0.0000

> <Gold.PLP.ligand.torsion>
0.7955

> <Gold.PLP.Chemscore.Hbond>
1.0000

> <Gold.PLP.Chemscore.CHOScore>
0.0000

> <Gold.PLP.Chemscore.Metal>
0.0000

> <Gold.Chemscore.Hbonds>
donor molecule, donor type, donor heavy atom, donor atom, acceptor molecule, acceptor atom, score
      L1  H     7    34       P1  7957  0.89

> <Gold.PLP.Chemscore.Internal.Correction>
0.6969

> <Gold.Rescore>
     Score         DG    S(hbond)    S(metal)    S(lipo)     H(rot)  DE(clash)    DE(int)     intcor
     10.73     -14.92       0.98        0.00      92.31       1.81       0.39       3.79       ----

> <Gold.Chemscore.Fitness>
10.7286

> <Gold.Chemscore.DG>
-14.9172

> <Gold.Chemscore.ZeroCoef>
-5.4800

> <Gold.Chemscore.Hbond>
0.9794

> <Gold.Chemscore.Metal>
0.0000

> <Gold.Chemscore.Lipo>
92.3087

> <Gold.Chemscore.Internal_Hbond>
0.0000

> <Gold.Chemscore.DEClash>
0.3947

> <Gold.Chemscore.DEInternal>
3.7939

> <Gold.Chemscore.Rot>
1.8102

> <Gold.Chemscore.Internal.Correction>
   9.000000E+99

> <Gold.Chemscore.Hbonds>
donor molecule, donor type, donor heavy atom, donor atom, acceptor molecule, acceptor atom, score
      L1  H     7    34       P1  7957  0.84

> <Gold.Chemscore.Hbond.Weighted>
-3.2711

> <Gold.Chemscore.Metal.Weighted>
-0.0000

> <Gold.Chemscore.Lipo.Weighted>
-10.8001

> <Gold.Chemscore.Internal_Hbond.Weighted>
0.0000

> <Gold.Chemscore.DEClash.Weighted>
0.3947

> <Gold.Chemscore.DEInternal.Weighted>
3.7939

> <Gold.Chemscore.Rot.Weighted>
4.6341

> <Gold.Chemscore.Internal.Correction.Weighted>
   9.000000E+99

> <Gold.Protein.RotatedTorsions>
[ 6907 6896 6895 6894 ] final -160.08 input  -60.11 | X-H torsion
[ 7974 7965 7964 7962 ] final  130.25 input  175.53 | X-H torsion
[ 8008 7997 7996 7995 ] final  -65.92 input   59.86 | X-H torsion
[ 10167 10162 10161 10158 ] final -168.66 input  -65.29 | X-H torsion
[ 10718 10713 10712 10709 ] final  -34.40 input   66.30 | X-H torsion
[ 10763 10752 10751 10750 ] final  175.92 input  -60.55 | X-H torsion
[ 11005 11000 10999 10996 ] final  -79.33 input  -57.11 | X-H torsion

> <Gold.Protein.ActiveResidues>
 VAL166  LYS551  ARG553  GLY616  TRP617  ASP618  TYR619  PRO620  LYS621  CYS622 
 ASP623  PHE694  ASN695  SER759  ASP760  ASP761  ALA762  ILE779  LEU786  VAL792 
 PHE793  MET794  SER795  GLU796  ALA797  LYS798  CYS799  TRP800  GLU811  SER814 

> <Gold.Protein.RotatedAtoms>
  151.3435  133.3953  159.2673 H   0  0  0  0  0  0  0  0  0  0  0  0  # atno 6907 bound_to 6896
  150.9859  134.9205  159.7882 H   0  0  0  0  0  0  0  0  0  0  0  0  # atno 6908 bound_to 6896
  152.5232  134.3399  159.9265 H   0  0  0  0  0  0  0  0  0  0  0  0  # atno 6909 bound_to 6896
  145.0199  139.4141  143.5202 H   0  0  0  0  0  0  0  0  0  0  0  0  # atno 7974 bound_to 7965
  154.4702  140.0923  156.7124 H   0  0  0  0  0  0  0  0  0  0  0  0  # atno 8008 bound_to 7997
  155.4746  140.3465  155.4312 H   0  0  0  0  0  0  0  0  0  0  0  0  # atno 8009 bound_to 7997
  156.1025  140.1426  156.9436 H   0  0  0  0  0  0  0  0  0  0  0  0  # atno 8010 bound_to 7997
  139.5971  144.1089  152.1701 H   0  0  0  0  0  0  0  0  0  0  0  0  # atno 10167 bound_to 10162
  156.3511  130.4308  149.7704 H   0  0  0  0  0  0  0  0  0  0  0  0  # atno 10718 bound_to 10713
  154.4741  135.2772  155.1620 H   0  0  0  0  0  0  0  0  0  0  0  0  # atno 10763 bound_to 10752
  154.3357  135.6180  153.5576 H   0  0  0  0  0  0  0  0  0  0  0  0  # atno 10764 bound_to 10752
  152.9867  135.5776  154.5128 H   0  0  0  0  0  0  0  0  0  0  0  0  # atno 10765 bound_to 10752
  141.1667  133.7101  156.8106 H   0  0  0  0  0  0  0  0  0  0  0  0  # atno 11005 bound_to 11000
  146.3484  139.9691  142.8708 LP  0  0  0  0  0  0  0  0  0  0  0  0  # atno 17320 bound_to 7965
  145.1909  140.9811  143.4211 LP  0  0  0  0  0  0  0  0  0  0  0  0  # atno 17321 bound_to 7965
  140.0677  144.5805  150.7215 LP  0  0  0  0  0  0  0  0  0  0  0  0  # atno 17342 bound_to 10162
  140.7220  143.2598  151.4246 LP  0  0  0  0  0  0  0  0  0  0  0  0  # atno 17343 bound_to 10162
  156.4904  130.8082  151.3092 LP  0  0  0  0  0  0  0  0  0  0  0  0  # atno 17370 bound_to 10713
  157.7461  130.9977  150.2826 LP  0  0  0  0  0  0  0  0  0  0  0  0  # atno 17371 bound_to 10713
  140.2190  134.8771  157.3357 LP  0  0  0  0  0  0  0  0  0  0  0  0  # atno 17394 bound_to 11000
  140.2007  134.4258  155.7664 LP  0  0  0  0  0  0  0  0  0  0  0  0  # atno 17395 bound_to 11000

$$$$
