AV-unprocessed.smi:2835|AV-procd|sdf|10918|dock7
  -GOLD-   2272015363D 1   1.00000     0.00000
 Structure written by MMmdl.
 34 35  0  0  0  0  0  0  0  0  2 V2000
  154.0689  139.9210  158.8157 O   0  0  0  0  0  0  0  0  0  0  0  0
  153.0026  140.4139  159.1792 C   0  0  0  0  0  0  0  0  0  0  0  0
  153.0499  141.6682  160.0682 C   0  0  0  0  0  0  0  0  0  0  0  0
  152.3560  142.8209  159.5104 N   0  0  0  0  0  0  0  0  0  0  0  0
  152.2473  144.0924  160.0349 C   0  0  0  0  0  0  0  0  0  0  0  0
  151.4852  144.8249  159.1707 C   0  0  0  0  0  0  0  0  0  0  0  0
  151.1711  143.9036  158.1328 C   0  0  0  0  0  0  0  0  0  0  0  0
  151.6975  142.7069  158.3362 N   0  0  0  0  0  0  0  0  0  0  0  0
  151.7866  139.9289  158.8546 N   0  0  0  0  0  0  0  0  0  0  0  0
  151.3539  138.7830  158.0397 C   0  0  0  0  0  0  0  0  0  0  0  0
  151.7830  137.5343  158.8530 C   0  0  0  0  0  0  0  0  0  0  0  0
  150.8938  136.7267  159.2040 O   0  0  0  0  0  0  0  0  0  0  0  0
  152.9926  137.4227  159.1553 O   0  5  0  0  0  0  0  0  0  0  0  0
  149.8265  138.7486  157.7127 C   0  0  0  0  0  0  0  0  0  0  0  0
  149.4412  137.6283  156.7263 C   0  0  0  0  0  0  0  0  0  0  0  0
  150.2418  137.7393  155.4210 C   0  0  0  0  0  0  0  0  0  0  0  0
  151.7524  137.7568  155.6955 C   0  0  0  0  0  0  0  0  0  0  0  0
  152.1284  138.8701  156.6932 C   0  0  0  0  0  0  0  0  0  0  0  0
  152.6050  141.4336  161.0357 H   0  0  0  0  0  0  0  0  0  0  0  0
  154.0909  141.9358  160.2550 H   0  0  0  0  0  0  0  0  0  0  0  0
  152.7104  144.3637  160.9724 H   0  0  0  0  0  0  0  0  0  0  0  0
  151.1928  145.8600  159.2670 H   0  0  0  0  0  0  0  0  0  0  0  0
  150.5806  144.0680  157.2436 H   0  0  0  0  0  0  0  0  0  0  0  0
  151.0134  140.4692  159.2151 H   0  0  0  0  0  0  0  0  0  0  0  0
  149.2287  138.6533  158.6205 H   0  0  0  0  0  0  0  0  0  0  0  0
  149.5316  139.6941  157.2564 H   0  0  0  0  0  0  0  0  0  0  0  0
  149.6079  136.6503  157.1789 H   0  0  0  0  0  0  0  0  0  0  0  0
  148.3745  137.6829  156.5083 H   0  0  0  0  0  0  0  0  0  0  0  0
  149.9926  136.9094  154.7592 H   0  0  0  0  0  0  0  0  0  0  0  0
  149.9566  138.6514  154.8953 H   0  0  0  0  0  0  0  0  0  0  0  0
  152.0674  136.7859  156.0792 H   0  0  0  0  0  0  0  0  0  0  0  0
  152.2937  137.9033  154.7604 H   0  0  0  0  0  0  0  0  0  0  0  0
  151.9203  139.8348  156.2277 H   0  0  0  0  0  0  0  0  0  0  0  0
  153.2069  138.8602  156.8586 H   0  0  0  0  0  0  0  0  0  0  0  0
  1  2  2  0  0  0  0
  2  3  1  0  0  0  0
  2  9  1  0  0  0  0
  3  4  1  0  0  0  0
  3 19  1  0  0  0  0
  3 20  1  0  0  0  0
  4  8  1  0  0  0  0
  4  5  1  0  0  0  0
  5  6  2  0  0  0  0
  5 21  1  0  0  0  0
  6  7  1  0  0  0  0
  6 22  1  0  0  0  0
  7  8  2  0  0  0  0
  7 23  1  0  0  0  0
  9 10  1  0  0  0  0
  9 24  1  0  0  0  0
 10 18  1  0  0  0  0
 10 11  1  0  0  0  0
 10 14  1  0  0  0  0
 11 12  2  0  0  0  0
 11 13  1  0  0  0  0
 14 15  1  0  0  0  0
 14 25  1  0  0  0  0
 14 26  1  0  0  0  0
 15 16  1  0  0  0  0
 15 27  1  0  0  0  0
 15 28  1  0  0  0  0
 16 17  1  0  0  0  0
 16 29  1  0  0  0  0
 16 30  1  0  0  0  0
 17 18  1  0  0  0  0
 17 31  1  0  0  0  0
 17 32  1  0  0  0  0
 18 33  1  0  0  0  0
 18 34  1  0  0  0  0
M  CHG  1  13  -1
M  END
> <s_m_source_file>
AV-unprocessed.smi

> <i_m_source_file_index>
2835

> <i_lp_mmshare_version>
43012

> <i_f3d_flags>
0

> <s_epik_input>
bjFbY0hdW2NIXVtjSF1uMVtDSDJdQyg9TylbTkhdQzIoQyg9TylbT0hdKVtDSDJdW0NIMl1bQ0gyXVtDSDJdW0NIMl0y

> <s_epik_cmdline>
J2VwaWtfcHl0aG9uJywgJy1waCcsICc3LjAnLCAnLXRuJywgJzgnLCAnLW1hJywgJzIwMCcsICctbWV0YWxfYmluZGluZycsICctaW1hZScsICc8aW5maWxlLm1hZT4nLCAnLW9tYWUnLCAnPG91dGZpbGUubWFlPic=

> <r_lp_tautomer_probability>
1

> <r_epik_Ionization_Penalty>
0.000342313

> <r_epik_Ionization_Penalty_Charging>
0.000323848

> <r_epik_Ionization_Penalty_Neutral>
1.84652e-05

> <r_epik_State_Penalty>
0.000195685

> <r_epik_Charging_Adjusted_Penalty>
0.000519533

> <i_epik_Tot_Q>
-1

> <i_epik_Tot_abs_Q>
1

> <r_epik_Metal_State_Penalty>
-0

> <b_epik_Metal_Only>
0

> <s_lp_Force_Field>
OPLS_2005

> <r_lp_Energy>
5.56985

> <b_lp_Chiralities_Consistent>
1

> <s_lp_Variant>
AV-unprocessed.smi:2835-1

> <Gold.Version>
5.8.1

> <Gold.Id.Protein>
6NUR|6NUR_protein|mol2

> <Gold.PLP.Fitness>
43.8642

> <Gold.PLP.PLP>
-32.1670

> <Gold.PLP.part.hbond>
-2.0000

> <Gold.PLP.part.metal>
0.0000

> <Gold.PLP.part.buried>
-5.4891

> <Gold.PLP.part.nonpolar>
-25.9110

> <Gold.PLP.part.repulsive>
0.1714

> <Gold.PLP.ligand.clash>
0.0000

> <Gold.PLP.ligand.torsion>
0.1777

> <Gold.PLP.Chemscore.Hbond>
3.0000

> <Gold.PLP.Chemscore.CHOScore>
1.0000

> <Gold.PLP.Chemscore.Metal>
0.0000

> <Gold.Chemscore.Hbonds>
donor molecule, donor type, donor heavy atom, donor atom, acceptor molecule, acceptor atom, score
      P1  H  6896  6908       L1    12  2.00
      P1  H  7997  8008       L1     1  1.00
      L1  C     7    23       P1  8028  1.00

> <Gold.PLP.Chemscore.Internal.Correction>
0.0525

> <Gold.Rescore>
     Score         DG    S(hbond)    S(metal)    S(lipo)     H(rot)  DE(clash)    DE(int)     intcor
     13.42     -15.51       1.98        0.00      73.82       2.03       0.00       2.09       ----

> <Gold.Chemscore.Fitness>
13.4184

> <Gold.Chemscore.DG>
-15.5118

> <Gold.Chemscore.ZeroCoef>
-5.4800

> <Gold.Chemscore.Hbond>
1.9764

> <Gold.Chemscore.Metal>
0.0000

> <Gold.Chemscore.Lipo>
73.8224

> <Gold.Chemscore.Internal_Hbond>
0.0000

> <Gold.Chemscore.DEClash>
0.0009

> <Gold.Chemscore.DEInternal>
2.0925

> <Gold.Chemscore.Rot>
2.0338

> <Gold.Chemscore.Internal.Correction>
   9.000000E+99

> <Gold.Chemscore.Hbonds>
donor molecule, donor type, donor heavy atom, donor atom, acceptor molecule, acceptor atom, score
      P1  H  6896  6908       L1    12  0.98
      P1  H  7997  8008       L1     1  0.98

> <Gold.Chemscore.Hbond.Weighted>
-6.6012

> <Gold.Chemscore.Metal.Weighted>
-0.0000

> <Gold.Chemscore.Lipo.Weighted>
-8.6372

> <Gold.Chemscore.Internal_Hbond.Weighted>
0.0000

> <Gold.Chemscore.DEClash.Weighted>
0.0009

> <Gold.Chemscore.DEInternal.Weighted>
2.0925

> <Gold.Chemscore.Rot.Weighted>
5.2066

> <Gold.Chemscore.Internal.Correction.Weighted>
   9.000000E+99

> <Gold.Protein.RotatedTorsions>
[ 6907 6896 6895 6894 ] final -153.15 input  -60.11 | X-H torsion
[ 7974 7965 7964 7962 ] final  -16.73 input  175.53 | X-H torsion
[ 8008 7997 7996 7995 ] final -105.34 input   59.86 | X-H torsion
[ 10167 10162 10161 10158 ] final  159.55 input  -65.29 | X-H torsion
[ 10718 10713 10712 10709 ] final -175.30 input   66.30 | X-H torsion
[ 10763 10752 10751 10750 ] final   70.00 input  -60.55 | X-H torsion
[ 11005 11000 10999 10996 ] final  -90.70 input  -57.11 | X-H torsion

> <Gold.Protein.ActiveResidues>
 VAL166  LYS551  ARG553  GLY616  TRP617  ASP618  TYR619  PRO620  LYS621  CYS622 
 ASP623  PHE694  ASN695  SER759  ASP760  ASP761  ALA762  ILE779  LEU786  VAL792 
 PHE793  MET794  SER795  GLU796  ALA797  LYS798  CYS799  TRP800  GLU811  SER814 

> <Gold.Protein.RotatedAtoms>
  151.2383  133.4413  159.2606 H   0  0  0  0  0  0  0  0  0  0  0  0  # atno 6907 bound_to 6896
  151.0729  134.9810  159.8328 H   0  0  0  0  0  0  0  0  0  0  0  0  # atno 6908 bound_to 6896
  152.5414  134.2327  159.8884 H   0  0  0  0  0  0  0  0  0  0  0  0  # atno 6909 bound_to 6896
  146.1974  140.3678  142.8435 H   0  0  0  0  0  0  0  0  0  0  0  0  # atno 7974 bound_to 7965
  154.8984  140.0413  157.1879 H   0  0  0  0  0  0  0  0  0  0  0  0  # atno 8008 bound_to 7997
  154.8469  140.2923  155.5602 H   0  0  0  0  0  0  0  0  0  0  0  0  # atno 8009 bound_to 7997
  156.2994  140.2472  156.3421 H   0  0  0  0  0  0  0  0  0  0  0  0  # atno 8010 bound_to 7997
  139.4833  144.4719  151.8564 H   0  0  0  0  0  0  0  0  0  0  0  0  # atno 10167 bound_to 10162
  156.7979  130.9541  151.3119 H   0  0  0  0  0  0  0  0  0  0  0  0  # atno 10718 bound_to 10713
  153.0317  135.5190  154.7374 H   0  0  0  0  0  0  0  0  0  0  0  0  # atno 10763 bound_to 10752
  154.6384  135.2909  155.0135 H   0  0  0  0  0  0  0  0  0  0  0  0  # atno 10764 bound_to 10752
  154.1062  135.6629  153.4929 H   0  0  0  0  0  0  0  0  0  0  0  0  # atno 10765 bound_to 10752
  141.1560  133.7709  156.9775 H   0  0  0  0  0  0  0  0  0  0  0  0  # atno 11005 bound_to 11000
  144.8610  140.7139  143.6108 LP  0  0  0  0  0  0  0  0  0  0  0  0  # atno 17320 bound_to 7965
  145.3598  139.1685  143.4389 LP  0  0  0  0  0  0  0  0  0  0  0  0  # atno 17321 bound_to 7965
  140.4188  144.2270  150.5887 LP  0  0  0  0  0  0  0  0  0  0  0  0  # atno 17342 bound_to 10162
  140.4894  143.2352  151.8841 LP  0  0  0  0  0  0  0  0  0  0  0  0  # atno 17343 bound_to 10162
  157.6568  130.8932  149.9746 LP  0  0  0  0  0  0  0  0  0  0  0  0  # atno 17370 bound_to 10713
  156.1119  130.3649  150.0034 LP  0  0  0  0  0  0  0  0  0  0  0  0  # atno 17371 bound_to 10713
  140.1088  134.9490  157.2034 LP  0  0  0  0  0  0  0  0  0  0  0  0  # atno 17394 bound_to 11000
  140.3221  134.2905  155.7244 LP  0  0  0  0  0  0  0  0  0  0  0  0  # atno 17395 bound_to 11000

$$$$
