AV-unprocessed.smi:3149|AV-procd|sdf|12004|dock9
  -GOLD-   2272017413D 1   1.00000     0.00000
 Structure written by MMmdl.
 37 38  0  0  0  0  0  0  0  0  1 V2000
  149.1362  140.0770  157.4768 C   0  0  0  0  0  0  0  0  0  0  0  0
  148.9657  141.3807  156.6664 C   0  0  1  0  0  0  0  0  0  0  0  0
  149.7178  142.4514  157.3158 N   0  0  0  0  0  0  0  0  0  0  0  0
  151.1722  142.3030  157.1822 C   0  0  0  0  0  0  0  0  0  0  0  0
  151.8530  142.2617  158.5525 C   0  0  0  0  0  0  0  0  0  0  0  0
  152.0489  141.1828  159.1120 O   0  0  0  0  0  0  0  0  0  0  0  0
  152.3178  143.4658  159.0883 N   0  0  0  0  0  0  0  0  0  0  0  0
  151.7082  144.7356  158.7240 C   0  0  0  0  0  0  0  0  0  0  0  0
  152.1325  145.2131  160.1168 C   0  0  0  0  0  0  0  0  0  0  0  0
  152.2690  143.7402  160.5168 C   0  0  0  0  0  0  0  0  0  0  0  0
  149.4660  141.2595  155.2005 C   0  0  2  0  0  0  0  0  0  0  0  0
  148.3154  141.3142  154.1758 C   0  0  0  0  0  0  0  0  0  0  0  0
  150.2652  140.0584  154.9884 N   0  0  0  0  0  0  0  0  0  0  0  0
  151.4489  139.7029  155.6021 C   0  0  0  0  0  0  0  0  0  0  0  0
  151.8276  138.4944  155.0915 C   0  0  0  0  0  0  0  0  0  0  0  0
  150.8002  138.1850  154.1575 C   0  0  0  0  0  0  0  0  0  0  0  0
  149.8677  139.1214  154.0970 N   0  0  0  0  0  0  0  0  0  0  0  0
  148.5565  139.2592  157.0487 H   0  0  0  0  0  0  0  0  0  0  0  0
  148.7951  140.1861  158.5057 H   0  0  0  0  0  0  0  0  0  0  0  0
  150.1799  139.7622  157.5044 H   0  0  0  0  0  0  0  0  0  0  0  0
  147.9062  141.6419  156.6407 H   0  0  0  0  0  0  0  0  0  0  0  0
  149.3991  143.3482  156.9770 H   0  0  0  0  0  0  0  0  0  0  0  0
  151.4113  141.3976  156.6225 H   0  0  0  0  0  0  0  0  0  0  0  0
  151.5860  143.1407  156.6215 H   0  0  0  0  0  0  0  0  0  0  0  0
  152.2037  145.2442  157.8965 H   0  0  0  0  0  0  0  0  0  0  0  0
  150.6247  144.6812  158.5998 H   0  0  0  0  0  0  0  0  0  0  0  0
  153.0818  145.7518  160.1189 H   0  0  0  0  0  0  0  0  0  0  0  0
  151.3577  145.7549  160.6601 H   0  0  0  0  0  0  0  0  0  0  0  0
  151.3776  143.3473  161.0092 H   0  0  0  0  0  0  0  0  0  0  0  0
  153.1885  143.4966  161.0496 H   0  0  0  0  0  0  0  0  0  0  0  0
  150.1255  142.1054  154.9974 H   0  0  0  0  0  0  0  0  0  0  0  0
  147.7906  142.2687  154.2141 H   0  0  0  0  0  0  0  0  0  0  0  0
  147.5819  140.5273  154.3543 H   0  0  0  0  0  0  0  0  0  0  0  0
  148.6913  141.1939  153.1591 H   0  0  0  0  0  0  0  0  0  0  0  0
  151.9177  140.3320  156.3444 H   0  0  0  0  0  0  0  0  0  0  0  0
  152.7051  137.9190  155.3465 H   0  0  0  0  0  0  0  0  0  0  0  0
  150.7048  137.3138  153.5261 H   0  0  0  0  0  0  0  0  0  0  0  0
  1  2  1  0  0  0  0
  1 18  1  0  0  0  0
  1 19  1  0  0  0  0
  1 20  1  0  0  0  0
  2  3  1  0  0  0  0
  2 11  1  0  0  0  0
  2 21  1  0  0  0  0
  3  4  1  0  0  0  0
  3 22  1  0  0  0  0
  4  5  1  0  0  0  0
  4 23  1  0  0  0  0
  4 24  1  0  0  0  0
  5  6  2  0  0  0  0
  5  7  1  0  0  0  0
  7 10  1  0  0  0  0
  7  8  1  0  0  0  0
  8  9  1  0  0  0  0
  8 25  1  0  0  0  0
  8 26  1  0  0  0  0
  9 10  1  0  0  0  0
  9 27  1  0  0  0  0
  9 28  1  0  0  0  0
 10 29  1  0  0  0  0
 10 30  1  0  0  0  0
 11 12  1  0  0  0  0
 11 13  1  0  0  0  0
 11 31  1  0  0  0  0
 12 32  1  0  0  0  0
 12 33  1  0  0  0  0
 12 34  1  0  0  0  0
 13 17  1  0  0  0  0
 13 14  1  0  0  0  0
 14 15  2  0  0  0  0
 14 35  1  0  0  0  0
 15 16  1  0  0  0  0
 15 36  1  0  0  0  0
 16 17  2  0  0  0  0
 16 37  1  0  0  0  0
M  END
> <s_m_source_file>
AV-unprocessed.smi

> <i_m_source_file_index>
3149

> <i_lp_mmshare_version>
43012

> <i_f3d_flags>
0

> <s_epik_input>
bjFbY0hdW2NIXVtjSF1uMVtDQEBIXShbQ0gzXSlbQ0BIXShbQ0gzXSlbTkhdW0NIMl1DKD1PKU4yW0NIMl1bQ0gyXVtDSDJdMg==

> <s_epik_cmdline>
J2VwaWtfcHl0aG9uJywgJy1waCcsICc3LjAnLCAnLXRuJywgJzgnLCAnLW1hJywgJzIwMCcsICctbWV0YWxfYmluZGluZycsICctaW1hZScsICc8aW5maWxlLm1hZT4nLCAnLW9tYWUnLCAnPG91dGZpbGUubWFlPic=

> <r_lp_tautomer_probability>
1

> <r_epik_Ionization_Penalty>
0.918674

> <r_epik_Ionization_Penalty_Charging>
0

> <r_epik_Ionization_Penalty_Neutral>
0.918674

> <r_epik_State_Penalty>
0.958258

> <r_epik_Charging_Adjusted_Penalty>
0.958258

> <i_epik_Tot_Q>
0

> <i_epik_Tot_abs_Q>
0

> <r_epik_Metal_State_Penalty>
0.956881

> <b_epik_Metal_Only>
0

> <s_lp_Force_Field>
OPLS_2005

> <r_lp_Energy>
23.4298

> <b_lp_Chiralities_Consistent>
1

> <s_lp_Variant>
AV-unprocessed.smi:3149-6

> <Gold.Version>
5.8.1

> <Gold.Id.Protein>
6NUR|6NUR_protein|mol2

> <Gold.PLP.Fitness>
44.3001

> <Gold.PLP.PLP>
-42.4015

> <Gold.PLP.part.hbond>
-1.0000

> <Gold.PLP.part.metal>
0.0000

> <Gold.PLP.part.buried>
-5.1485

> <Gold.PLP.part.nonpolar>
-36.8727

> <Gold.PLP.part.repulsive>
0.2477

> <Gold.PLP.ligand.clash>
0.0000

> <Gold.PLP.ligand.torsion>
2.6338

> <Gold.PLP.Chemscore.Hbond>
1.0000

> <Gold.PLP.Chemscore.CHOScore>
1.0873

> <Gold.PLP.Chemscore.Metal>
0.0000

> <Gold.Chemscore.Hbonds>
donor molecule, donor type, donor heavy atom, donor atom, acceptor molecule, acceptor atom, score
      L1  H     3    22       P1  8028  1.00
      L1  C    16    37       P1  7948  0.40
      L1  C    16    37       P1  7949  0.74

> <Gold.PLP.Chemscore.Internal.Correction>
0.9041

> <Gold.Rescore>
     Score         DG    S(hbond)    S(metal)    S(lipo)     H(rot)  DE(clash)    DE(int)     intcor
     12.06     -15.00       1.00        0.00      92.04       1.79       0.02       2.92       ----

> <Gold.Chemscore.Fitness>
12.0567

> <Gold.Chemscore.DG>
-15.0021

> <Gold.Chemscore.ZeroCoef>
-5.4800

> <Gold.Chemscore.Hbond>
0.9967

> <Gold.Chemscore.Metal>
0.0000

> <Gold.Chemscore.Lipo>
92.0429

> <Gold.Chemscore.Internal_Hbond>
0.0000

> <Gold.Chemscore.DEClash>
0.0241

> <Gold.Chemscore.DEInternal>
2.9213

> <Gold.Chemscore.Rot>
1.7874

> <Gold.Chemscore.Internal.Correction>
   9.000000E+99

> <Gold.Chemscore.Hbonds>
donor molecule, donor type, donor heavy atom, donor atom, acceptor molecule, acceptor atom, score
      L1  H     3    22       P1  8028  0.92

> <Gold.Chemscore.Hbond.Weighted>
-3.3289

> <Gold.Chemscore.Metal.Weighted>
-0.0000

> <Gold.Chemscore.Lipo.Weighted>
-10.7690

> <Gold.Chemscore.Internal_Hbond.Weighted>
0.0000

> <Gold.Chemscore.DEClash.Weighted>
0.0241

> <Gold.Chemscore.DEInternal.Weighted>
2.9213

> <Gold.Chemscore.Rot.Weighted>
4.5758

> <Gold.Chemscore.Internal.Correction.Weighted>
   9.000000E+99

> <Gold.Protein.RotatedTorsions>
[ 6907 6896 6895 6894 ] final  155.21 input  -60.11 | X-H torsion
[ 7974 7965 7964 7962 ] final   77.21 input  175.53 | X-H torsion
[ 8008 7997 7996 7995 ] final   59.04 input   59.86 | X-H torsion
[ 10167 10162 10161 10158 ] final -116.64 input  -65.29 | X-H torsion
[ 10718 10713 10712 10709 ] final -103.31 input   66.30 | X-H torsion
[ 10763 10752 10751 10750 ] final   82.19 input  -60.55 | X-H torsion
[ 11005 11000 10999 10996 ] final -116.54 input  -57.11 | X-H torsion

> <Gold.Protein.ActiveResidues>
 VAL166  LYS551  ARG553  GLY616  TRP617  ASP618  TYR619  PRO620  LYS621  CYS622 
 ASP623  PHE694  ASN695  SER759  ASP760  ASP761  ALA762  ILE779  LEU786  VAL792 
 PHE793  MET794  SER795  GLU796  ALA797  LYS798  CYS799  TRP800  GLU811  SER814 

> <Gold.Protein.RotatedAtoms>
  152.0475  133.4004  159.4362 H   0  0  0  0  0  0  0  0  0  0  0  0  # atno 6907 bound_to 6896
  150.6872  134.3346  159.4851 H   0  0  0  0  0  0  0  0  0  0  0  0  # atno 6908 bound_to 6896
  152.1152  134.9245  160.0616 H   0  0  0  0  0  0  0  0  0  0  0  0  # atno 6909 bound_to 6896
  145.6930  139.2558  143.1749 H   0  0  0  0  0  0  0  0  0  0  0  0  # atno 7974 bound_to 7965
  155.5598  140.3488  155.4488 H   0  0  0  0  0  0  0  0  0  0  0  0  # atno 8008 bound_to 7997
  156.0523  140.1320  157.0062 H   0  0  0  0  0  0  0  0  0  0  0  0  # atno 8009 bound_to 7997
  154.4440  140.1002  156.6379 H   0  0  0  0  0  0  0  0  0  0  0  0  # atno 8010 bound_to 7997
  140.0770  143.4823  152.1947 H   0  0  0  0  0  0  0  0  0  0  0  0  # atno 10167 bound_to 10162
  156.0261  130.5461  150.7235 H   0  0  0  0  0  0  0  0  0  0  0  0  # atno 10718 bound_to 10713
  153.1181  135.4737  154.9149 H   0  0  0  0  0  0  0  0  0  0  0  0  # atno 10763 bound_to 10752
  154.7548  135.3115  154.8492 H   0  0  0  0  0  0  0  0  0  0  0  0  # atno 10764 bound_to 10752
  153.9063  135.6870  153.4806 H   0  0  0  0  0  0  0  0  0  0  0  0  # atno 10765 bound_to 10752
  141.0415  133.9829  157.2987 H   0  0  0  0  0  0  0  0  0  0  0  0  # atno 11005 bound_to 11000
  146.0865  140.7705  142.9616 LP  0  0  0  0  0  0  0  0  0  0  0  0  # atno 17320 bound_to 7965
  144.6991  140.3570  143.7171 LP  0  0  0  0  0  0  0  0  0  0  0  0  # atno 17321 bound_to 7965
  139.5802  144.7507  151.3660 LP  0  0  0  0  0  0  0  0  0  0  0  0  # atno 17342 bound_to 10162
  140.7097  143.7422  150.7545 LP  0  0  0  0  0  0  0  0  0  0  0  0  # atno 17343 bound_to 10162
  157.4845  131.0905  151.0498 LP  0  0  0  0  0  0  0  0  0  0  0  0  # atno 17370 bound_to 10713
  157.0923  130.5947  149.5442 LP  0  0  0  0  0  0  0  0  0  0  0  0  # atno 17371 bound_to 10713
  139.9279  135.0201  156.8299 LP  0  0  0  0  0  0  0  0  0  0  0  0  # atno 17394 bound_to 11000
  140.6226  133.9980  155.7625 LP  0  0  0  0  0  0  0  0  0  0  0  0  # atno 17395 bound_to 11000

$$$$
