AV-unprocessed.smi:2124|AV-procd|sdf|8671|dock6
  -GOLD-   2272011423D 1   1.00000     0.00000
 Structure written by MMmdl.
 46 48  0  0  0  0  0  0  0  0  2 V2000
  147.7259  135.8843  154.7844 C   0  0  0  0  0  0  0  0  0  0  0  0
  148.8675  136.3785  155.6468 C   0  0  0  0  0  0  0  0  0  0  0  0
  149.8656  136.9545  155.0926 N   0  0  0  0  0  0  0  0  0  0  0  0
  150.9247  137.4213  155.8899 C   0  0  0  0  0  0  0  0  0  0  0  0
  152.0661  138.0967  155.1495 C   0  0  0  0  0  0  0  0  0  0  0  0
  150.9068  137.2703  157.2453 C   0  0  0  0  0  0  0  0  0  0  0  0
  152.0277  137.7672  158.1584 C   0  0  0  0  0  0  0  0  0  0  0  0
  152.2744  139.2777  158.1743 C   0  0  0  0  0  0  0  0  0  0  0  0
  153.3533  139.7343  158.5523 O   0  0  0  0  0  0  0  0  0  0  0  0
  151.2522  140.0374  157.7453 N   0  0  0  0  0  0  0  0  0  0  0  0
  151.2170  141.4969  157.6169 C   0  0  1  0  0  0  0  0  0  0  0  0
  150.0212  141.9402  156.7508 C   0  0  0  0  0  0  0  0  0  0  0  0
  151.2686  142.2167  158.9922 C   0  0  2  0  0  0  0  0  0  0  0  0
  151.0680  143.7488  158.8960 C   0  0  0  0  0  0  0  0  0  0  0  0
  152.2895  144.3140  159.6421 C   0  0  1  0  0  0  0  0  0  0  0  0
  152.1626  144.0098  161.1460 C   0  0  0  0  0  0  0  0  0  0  0  0
  152.4293  142.4943  161.2076 C   0  0  0  0  0  0  0  0  0  0  0  0
  152.6324  142.1250  159.7259 C   0  0  2  0  0  0  0  0  0  0  0  0
  153.3843  143.3479  159.2106 C   0  0  0  0  0  0  0  0  0  0  0  0
  149.7435  136.5918  157.8434 C   0  0  0  0  0  0  0  0  0  0  0  0
  149.6872  136.4121  159.0595 O   0  0  0  0  0  0  0  0  0  0  0  0
  148.7531  136.1757  157.0037 N   0  5  0  0  0  0  0  0  0  0  0  0
  148.0131  135.8548  153.7324 H   0  0  0  0  0  0  0  0  0  0  0  0
  146.8650  136.5452  154.8874 H   0  0  0  0  0  0  0  0  0  0  0  0
  147.4275  134.8787  155.0831 H   0  0  0  0  0  0  0  0  0  0  0  0
  152.1216  139.1520  155.4165 H   0  0  0  0  0  0  0  0  0  0  0  0
  151.9296  138.0306  154.0696 H   0  0  0  0  0  0  0  0  0  0  0  0
  153.0180  137.6252  155.3943 H   0  0  0  0  0  0  0  0  0  0  0  0
  151.8013  137.4575  159.1788 H   0  0  0  0  0  0  0  0  0  0  0  0
  152.9655  137.2644  157.9193 H   0  0  0  0  0  0  0  0  0  0  0  0
  150.4128  139.5516  157.4647 H   0  0  0  0  0  0  0  0  0  0  0  0
  152.1236  141.7518  157.0678 H   0  0  0  0  0  0  0  0  0  0  0  0
  150.0696  143.0036  156.5181 H   0  0  0  0  0  0  0  0  0  0  0  0
  149.0694  141.7607  157.2510 H   0  0  0  0  0  0  0  0  0  0  0  0
  150.0042  141.4028  155.8022 H   0  0  0  0  0  0  0  0  0  0  0  0
  150.4893  141.7961  159.6289 H   0  0  0  0  0  0  0  0  0  0  0  0
  151.0793  144.0910  157.8606 H   0  0  0  0  0  0  0  0  0  0  0  0
  150.1248  144.0716  159.3384 H   0  0  0  0  0  0  0  0  0  0  0  0
  152.4880  145.3633  159.4224 H   0  0  0  0  0  0  0  0  0  0  0  0
  152.9130  144.5550  161.7197 H   0  0  0  0  0  0  0  0  0  0  0  0
  151.1805  144.2759  161.5385 H   0  0  0  0  0  0  0  0  0  0  0  0
  153.3328  142.2883  161.7830 H   0  0  0  0  0  0  0  0  0  0  0  0
  151.6095  141.9421  161.6684 H   0  0  0  0  0  0  0  0  0  0  0  0
  153.1580  141.1786  159.5983 H   0  0  0  0  0  0  0  0  0  0  0  0
  153.5526  143.3355  158.1328 H   0  0  0  0  0  0  0  0  0  0  0  0
  154.3355  143.5175  159.7187 H   0  0  0  0  0  0  0  0  0  0  0  0
  1  2  1  0  0  0  0
  1 23  1  0  0  0  0
  1 24  1  0  0  0  0
  1 25  1  0  0  0  0
  2 22  1  0  0  0  0
  2  3  2  0  0  0  0
  3  4  1  0  0  0  0
  4  5  1  0  0  0  0
  4  6  2  0  0  0  0
  5 26  1  0  0  0  0
  5 27  1  0  0  0  0
  5 28  1  0  0  0  0
  6  7  1  0  0  0  0
  6 20  1  0  0  0  0
  7  8  1  0  0  0  0
  7 29  1  0  0  0  0
  7 30  1  0  0  0  0
  8  9  2  0  0  0  0
  8 10  1  0  0  0  0
 10 11  1  0  0  0  0
 10 31  1  0  0  0  0
 11 12  1  0  0  0  0
 11 13  1  0  0  0  0
 11 32  1  0  0  0  0
 12 33  1  0  0  0  0
 12 34  1  0  0  0  0
 12 35  1  0  0  0  0
 13 18  1  0  0  0  0
 13 14  1  0  0  0  0
 13 36  1  0  0  0  0
 14 15  1  0  0  0  0
 14 37  1  0  0  0  0
 14 38  1  0  0  0  0
 15 19  1  0  0  0  0
 15 16  1  0  0  0  0
 15 39  1  0  0  0  0
 16 17  1  0  0  0  0
 16 40  1  0  0  0  0
 16 41  1  0  0  0  0
 17 18  1  0  0  0  0
 17 42  1  0  0  0  0
 17 43  1  0  0  0  0
 18 19  1  0  0  0  0
 18 44  1  0  0  0  0
 19 45  1  0  0  0  0
 19 46  1  0  0  0  0
 20 21  2  0  0  0  0
 20 22  1  0  0  0  0
M  CHG  1  22  -1
M  END
> <s_m_source_file>
AV-unprocessed.smi

> <i_m_source_file_index>
2124

> <i_lp_mmshare_version>
43012

> <i_f3d_flags>
0

> <s_epik_input>
W0NIM11jMW5jKFtDSDNdKWMoYyg9TylbbkhdMSlbQ0gyXUMoPU8pW05IXVtDQEhdKFtDSDNdKVtDQEhdKFtDSDJdW0NASF0yMylbQ0BIXShbQ0gyXTMpW0NIMl1bQ0gyXTI=

> <s_epik_cmdline>
J2VwaWtfcHl0aG9uJywgJy1waCcsICc3LjAnLCAnLXRuJywgJzgnLCAnLW1hJywgJzIwMCcsICctbWV0YWxfYmluZGluZycsICctaW1hZScsICc8aW5maWxlLm1hZT4nLCAnLW9tYWUnLCAnPG91dGZpbGUubWFlPic=

> <r_lp_tautomer_probability>
0.839158

> <r_epik_Ionization_Penalty>
6.63797

> <r_epik_Ionization_Penalty_Charging>
7.48558e-08

> <r_epik_Ionization_Penalty_Neutral>
6.63797

> <r_epik_State_Penalty>
4.49496

> <r_epik_Charging_Adjusted_Penalty>
4.49496

> <i_epik_Tot_Q>
-1

> <i_epik_Tot_abs_Q>
1

> <r_epik_Metal_State_Penalty>
0.841241

> <b_epik_Metal_Only>
1

> <s_lp_Force_Field>
OPLS_2005

> <r_lp_Energy>
55.5878

> <b_lp_Chiralities_Consistent>
1

> <s_lp_Variant>
AV-unprocessed.smi:2124-22

> <Gold.Version>
5.8.1

> <Gold.Id.Protein>
6NUR|6NUR_protein|mol2

> <Gold.PLP.Fitness>
42.9499

> <Gold.PLP.PLP>
-38.0189

> <Gold.PLP.part.hbond>
-2.0000

> <Gold.PLP.part.metal>
0.0000

> <Gold.PLP.part.buried>
-5.6572

> <Gold.PLP.part.nonpolar>
-30.4171

> <Gold.PLP.part.repulsive>
0.1953

> <Gold.PLP.ligand.clash>
0.0000

> <Gold.PLP.ligand.torsion>
0.5690

> <Gold.PLP.Chemscore.Hbond>
2.0000

> <Gold.PLP.Chemscore.CHOScore>
0.0000

> <Gold.PLP.Chemscore.Metal>
0.0000

> <Gold.Chemscore.Hbonds>
donor molecule, donor type, donor heavy atom, donor atom, acceptor molecule, acceptor atom, score
      P1  H  6896  6908       L1    21  1.00
      P1  H  7997  8010       L1     9  1.00

> <Gold.PLP.Chemscore.Internal.Correction>
0.0690

> <Gold.Rescore>
     Score         DG    S(hbond)    S(metal)    S(lipo)     H(rot)  DE(clash)    DE(int)     intcor
     19.22     -21.23       1.99        0.00     113.00       1.61       0.05       1.97       ----

> <Gold.Chemscore.Fitness>
19.2197

> <Gold.Chemscore.DG>
-21.2310

> <Gold.Chemscore.ZeroCoef>
-5.4800

> <Gold.Chemscore.Hbond>
1.9876

> <Gold.Chemscore.Metal>
0.0000

> <Gold.Chemscore.Lipo>
113.0032

> <Gold.Chemscore.Internal_Hbond>
0.0000

> <Gold.Chemscore.DEClash>
0.0460

> <Gold.Chemscore.DEInternal>
1.9653

> <Gold.Chemscore.Rot>
1.6051

> <Gold.Chemscore.Internal.Correction>
   9.000000E+99

> <Gold.Chemscore.Hbonds>
donor molecule, donor type, donor heavy atom, donor atom, acceptor molecule, acceptor atom, score
      P1  H  6896  6908       L1    21  0.80
      P1  H  7997  8010       L1     9  0.83

> <Gold.Chemscore.Hbond.Weighted>
-6.6387

> <Gold.Chemscore.Metal.Weighted>
-0.0000

> <Gold.Chemscore.Lipo.Weighted>
-13.2214

> <Gold.Chemscore.Internal_Hbond.Weighted>
0.0000

> <Gold.Chemscore.DEClash.Weighted>
0.0460

> <Gold.Chemscore.DEInternal.Weighted>
1.9653

> <Gold.Chemscore.Rot.Weighted>
4.1090

> <Gold.Chemscore.Internal.Correction.Weighted>
   9.000000E+99

> <Gold.Protein.RotatedTorsions>
[ 6907 6896 6895 6894 ] final -171.34 input  -60.11 | X-H torsion
[ 7974 7965 7964 7962 ] final    6.24 input  175.53 | X-H torsion
[ 8008 7997 7996 7995 ] final   32.20 input   59.86 | X-H torsion
[ 10167 10162 10161 10158 ] final   38.81 input  -65.29 | X-H torsion
[ 10718 10713 10712 10709 ] final  -58.80 input   66.30 | X-H torsion
[ 10763 10752 10751 10750 ] final  173.49 input  -60.55 | X-H torsion
[ 11005 11000 10999 10996 ] final -142.40 input  -57.11 | X-H torsion

> <Gold.Protein.ActiveResidues>
 VAL166  LYS551  ARG553  GLY616  TRP617  ASP618  TYR619  PRO620  LYS621  CYS622 
 ASP623  PHE694  ASN695  SER759  ASP760  ASP761  ALA762  ILE779  LEU786  VAL792 
 PHE793  MET794  SER795  GLU796  ALA797  LYS798  CYS799  TRP800  GLU811  SER814 

> <Gold.Protein.RotatedAtoms>
  151.5222  133.3464  159.2903 H   0  0  0  0  0  0  0  0  0  0  0  0  # atno 6907 bound_to 6896
  150.8645  134.8008  159.7119 H   0  0  0  0  0  0  0  0  0  0  0  0  # atno 6908 bound_to 6896
  152.4654  134.5097  159.9801 H   0  0  0  0  0  0  0  0  0  0  0  0  # atno 6909 bound_to 6896
  146.2436  140.0263  142.8393 H   0  0  0  0  0  0  0  0  0  0  0  0  # atno 7974 bound_to 7965
  155.1187  140.3246  155.4503 H   0  0  0  0  0  0  0  0  0  0  0  0  # atno 8008 bound_to 7997
  156.2669  140.2031  156.6258 H   0  0  0  0  0  0  0  0  0  0  0  0  # atno 8009 bound_to 7997
  154.6700  140.0537  157.0142 H   0  0  0  0  0  0  0  0  0  0  0  0  # atno 8010 bound_to 7997
  140.3900  144.1865  150.6131 H   0  0  0  0  0  0  0  0  0  0  0  0  # atno 10167 bound_to 10162
  156.1108  130.4175  150.0627 H   0  0  0  0  0  0  0  0  0  0  0  0  # atno 10718 bound_to 10713
  154.4407  135.2762  155.1849 H   0  0  0  0  0  0  0  0  0  0  0  0  # atno 10763 bound_to 10752
  154.3717  135.6107  153.5747 H   0  0  0  0  0  0  0  0  0  0  0  0  # atno 10764 bound_to 10752
  152.9841  135.5859  154.4734 H   0  0  0  0  0  0  0  0  0  0  0  0  # atno 10765 bound_to 10752
  140.8229  134.2610  157.4892 H   0  0  0  0  0  0  0  0  0  0  0  0  # atno 11005 bound_to 11000
  145.1196  140.9454  143.4608 LP  0  0  0  0  0  0  0  0  0  0  0  0  # atno 17320 bound_to 7965
  145.0495  139.3193  143.5936 LP  0  0  0  0  0  0  0  0  0  0  0  0  # atno 17321 bound_to 7965
  140.4849  143.2366  151.8902 LP  0  0  0  0  0  0  0  0  0  0  0  0  # atno 17342 bound_to 10162
  139.4789  144.5229  151.8776 LP  0  0  0  0  0  0  0  0  0  0  0  0  # atno 17343 bound_to 10162
  156.8590  130.9485  151.3619 LP  0  0  0  0  0  0  0  0  0  0  0  0  # atno 17370 bound_to 10713
  157.6289  130.8714  149.9239 LP  0  0  0  0  0  0  0  0  0  0  0  0  # atno 17371 bound_to 10713
  139.8708  134.9545  156.4177 LP  0  0  0  0  0  0  0  0  0  0  0  0  # atno 17394 bound_to 11000
  140.9080  133.7732  155.9758 LP  0  0  0  0  0  0  0  0  0  0  0  0  # atno 17395 bound_to 11000

$$$$
