AV-unprocessed.smi:2478|AV-procd|sdf|9765|dock3
  -GOLD-   2272013403D 1   1.00000     0.00000
 Structure written by MMmdl.
 42 43  0  0  0  0  0  0  0  0  1 V2000
  151.5969  141.7697  157.9802 C   0  0  0  0  0  0  0  0  0  0  0  0
  151.2743  141.1940  156.5924 C   0  0  2  0  0  0  0  0  0  0  0  0
  149.8978  141.6678  156.0840 C   0  0  0  0  0  0  0  0  0  0  0  0
  149.5937  141.1163  154.6819 C   0  0  0  0  0  0  0  0  0  0  0  0
  149.6872  139.5834  154.6533 C   0  0  0  0  0  0  0  0  0  0  0  0
  151.0561  139.0979  155.1601 C   0  0  0  0  0  0  0  0  0  0  0  0
  151.3798  139.6520  156.5598 C   0  0  2  0  0  0  0  0  0  0  0  0
  150.4447  139.0993  157.4769 O   0  0  0  0  0  0  0  0  0  0  0  0
  150.3399  137.6827  157.4344 C   0  0  0  0  0  0  0  0  0  0  0  0
  150.0681  137.1538  158.8433 C   0  0  0  0  0  0  0  0  0  0  0  0
  150.9995  137.0601  159.6424 O   0  0  0  0  0  0  0  0  0  0  0  0
  148.7889  136.8346  159.1145 N   0  0  0  0  0  0  0  0  0  0  0  0
  148.2334  136.3112  160.3117 C   0  0  0  0  0  0  0  0  0  0  0  0
  147.7582  137.0922  161.3136 N   0  0  0  0  0  0  0  0  0  0  0  0
  147.2459  136.5104  162.4169 C   0  0  0  0  0  0  0  0  0  0  0  0
  147.1731  135.1170  162.5873 C   0  0  0  0  0  0  0  0  0  0  0  0
  147.6613  134.2964  161.5558 C   0  0  0  0  0  0  0  0  0  0  0  0
  148.2093  134.8967  160.3978 C   0  0  0  0  0  0  0  0  0  0  0  0
  148.6902  134.1482  159.3461 O   0  0  0  0  0  0  0  0  0  0  0  0
  147.8504  133.2777  158.7264 C   0  0  0  0  0  0  0  0  0  0  0  0
  146.8053  133.9405  158.1734 F   0  0  0  0  0  0  0  0  0  0  0  0
  148.5071  132.6381  157.7287 F   0  0  0  0  0  0  0  0  0  0  0  0
  150.8689  141.4475  158.7254 H   0  0  0  0  0  0  0  0  0  0  0  0
  151.5911  142.8599  157.9624 H   0  0  0  0  0  0  0  0  0  0  0  0
  152.5835  141.4513  158.3180 H   0  0  0  0  0  0  0  0  0  0  0  0
  152.0273  141.5842  155.9061 H   0  0  0  0  0  0  0  0  0  0  0  0
  149.1172  141.3514  156.7771 H   0  0  0  0  0  0  0  0  0  0  0  0
  149.8637  142.7575  156.0609 H   0  0  0  0  0  0  0  0  0  0  0  0
  148.5997  141.4337  154.3657 H   0  0  0  0  0  0  0  0  0  0  0  0
  150.2969  141.5381  153.9627 H   0  0  0  0  0  0  0  0  0  0  0  0
  148.8940  139.1583  155.2696 H   0  0  0  0  0  0  0  0  0  0  0  0
  149.5166  139.2198  153.6397 H   0  0  0  0  0  0  0  0  0  0  0  0
  151.0817  138.0078  155.1754 H   0  0  0  0  0  0  0  0  0  0  0  0
  151.8306  139.4132  154.4598 H   0  0  0  0  0  0  0  0  0  0  0  0
  152.4002  139.3606  156.8176 H   0  0  0  0  0  0  0  0  0  0  0  0
  149.5318  137.3855  156.7642 H   0  0  0  0  0  0  0  0  0  0  0  0
  151.2664  137.2406  157.0654 H   0  0  0  0  0  0  0  0  0  0  0  0
  148.1356  136.9580  158.3542 H   0  0  0  0  0  0  0  0  0  0  0  0
  146.8814  137.1757  163.1855 H   0  0  0  0  0  0  0  0  0  0  0  0
  146.7510  134.6891  163.4845 H   0  0  0  0  0  0  0  0  0  0  0  0
  147.6089  133.2225  161.6569 H   0  0  0  0  0  0  0  0  0  0  0  0
  147.4727  132.5222  159.4161 H   0  0  0  0  0  0  0  0  0  0  0  0
  1  2  1  0  0  0  0
  1 23  1  0  0  0  0
  1 24  1  0  0  0  0
  1 25  1  0  0  0  0
  2  7  1  0  0  0  0
  2  3  1  0  0  0  0
  2 26  1  0  0  0  0
  3  4  1  0  0  0  0
  3 27  1  0  0  0  0
  3 28  1  0  0  0  0
  4  5  1  0  0  0  0
  4 29  1  0  0  0  0
  4 30  1  0  0  0  0
  5  6  1  0  0  0  0
  5 31  1  0  0  0  0
  5 32  1  0  0  0  0
  6  7  1  0  0  0  0
  6 33  1  0  0  0  0
  6 34  1  0  0  0  0
  7  8  1  0  0  0  0
  7 35  1  0  0  0  0
  8  9  1  0  0  0  0
  9 10  1  0  0  0  0
  9 36  1  0  0  0  0
  9 37  1  0  0  0  0
 10 11  2  0  0  0  0
 10 12  1  0  0  0  0
 12 13  1  0  0  0  0
 12 38  1  0  0  0  0
 13 18  1  0  0  0  0
 13 14  2  0  0  0  0
 14 15  1  0  0  0  0
 15 16  2  0  0  0  0
 15 39  1  0  0  0  0
 16 17  1  0  0  0  0
 16 40  1  0  0  0  0
 17 18  2  0  0  0  0
 17 41  1  0  0  0  0
 18 19  1  0  0  0  0
 19 20  1  0  0  0  0
 20 21  1  0  0  0  0
 20 22  1  0  0  0  0
 20 42  1  0  0  0  0
M  END
> <s_m_source_file>
AV-unprocessed.smi

> <i_m_source_file_index>
2478

> <i_lp_mmshare_version>
43012

> <i_f3d_flags>
0

> <s_epik_input>
W0NIM11bQ0BASF0xW0NIMl1bQ0gyXVtDSDJdW0NIMl1bQ0BIXTFPW0NIMl1DKD1PKVtOSF1jMm5bY0hdW2NIXVtjSF1jMk9bQ0hdKEYpRg==

> <s_epik_cmdline>
J2VwaWtfcHl0aG9uJywgJy1waCcsICc3LjAnLCAnLXRuJywgJzgnLCAnLW1hJywgJzIwMCcsICctbWV0YWxfYmluZGluZycsICctaW1hZScsICc8aW5maWxlLm1hZT4nLCAnLW9tYWUnLCAnPG91dGZpbGUubWFlPic=

> <r_lp_tautomer_probability>
1

> <r_epik_Ionization_Penalty>
6.06012e-05

> <r_epik_Ionization_Penalty_Charging>
0

> <r_epik_Ionization_Penalty_Neutral>
6.06012e-05

> <r_epik_State_Penalty>
-0

> <r_epik_Charging_Adjusted_Penalty>
0

> <i_epik_Tot_Q>
0

> <i_epik_Tot_abs_Q>
0

> <r_epik_Metal_State_Penalty>
-0

> <b_epik_Metal_Only>
0

> <s_lp_Force_Field>
OPLS_2005

> <r_lp_Energy>
14.1885

> <b_lp_Chiralities_Consistent>
1

> <s_lp_Variant>
AV-unprocessed.smi:2478-3

> <Gold.Version>
5.8.1

> <Gold.Id.Protein>
6NUR|6NUR_protein|mol2

> <Gold.PLP.Fitness>
45.4504

> <Gold.PLP.PLP>
-38.0714

> <Gold.PLP.part.hbond>
-4.0000

> <Gold.PLP.part.metal>
0.0000

> <Gold.PLP.part.buried>
-3.6411

> <Gold.PLP.part.nonpolar>
-30.4230

> <Gold.PLP.part.repulsive>
0.1802

> <Gold.PLP.ligand.clash>
0.0000

> <Gold.PLP.ligand.torsion>
1.2730

> <Gold.PLP.Chemscore.Hbond>
3.2850

> <Gold.PLP.Chemscore.CHOScore>
0.0000

> <Gold.PLP.Chemscore.Metal>
0.0000

> <Gold.Chemscore.Hbonds>
donor molecule, donor type, donor heavy atom, donor atom, acceptor molecule, acceptor atom, score
      P1  H  6896  6907       L1    11  0.99
      P1  H  6896  6909       L1    19  0.69
      P1  H  6931  6943       L1    14  1.00
      P1  H  6934  6947       L1    14  0.78

> <Gold.PLP.Chemscore.Internal.Correction>
0.0699

> <Gold.Rescore>
     Score         DG    S(hbond)    S(metal)    S(lipo)     H(rot)  DE(clash)    DE(int)     intcor
     18.17     -19.49       2.62        0.00      85.48       1.85       0.07       1.26       ----

> <Gold.Chemscore.Fitness>
18.1724

> <Gold.Chemscore.DG>
-19.4948

> <Gold.Chemscore.ZeroCoef>
-5.4800

> <Gold.Chemscore.Hbond>
2.6182

> <Gold.Chemscore.Metal>
0.0000

> <Gold.Chemscore.Lipo>
85.4796

> <Gold.Chemscore.Internal_Hbond>
0.0000

> <Gold.Chemscore.DEClash>
0.0673

> <Gold.Chemscore.DEInternal>
1.2552

> <Gold.Chemscore.Rot>
1.8481

> <Gold.Chemscore.Internal.Correction>
   9.000000E+99

> <Gold.Chemscore.Hbonds>
donor molecule, donor type, donor heavy atom, donor atom, acceptor molecule, acceptor atom, score
      P1  H  6896  6907       L1    11  0.81
      P1  H  6896  6909       L1    19  0.57
      P1  H  6931  6943       L1    14  0.42
      P1  H  6934  6947       L1    14  0.68

> <Gold.Chemscore.Hbond.Weighted>
-8.7448

> <Gold.Chemscore.Metal.Weighted>
-0.0000

> <Gold.Chemscore.Lipo.Weighted>
-10.0011

> <Gold.Chemscore.Internal_Hbond.Weighted>
0.0000

> <Gold.Chemscore.DEClash.Weighted>
0.0673

> <Gold.Chemscore.DEInternal.Weighted>
1.2552

> <Gold.Chemscore.Rot.Weighted>
4.7311

> <Gold.Chemscore.Internal.Correction.Weighted>
   9.000000E+99

> <Gold.Protein.RotatedTorsions>
[ 6907 6896 6895 6894 ] final    5.64 input  -60.11 | X-H torsion
[ 7974 7965 7964 7962 ] final   28.87 input  175.53 | X-H torsion
[ 8008 7997 7996 7995 ] final  -33.16 input   59.86 | X-H torsion
[ 10167 10162 10161 10158 ] final  128.07 input  -65.29 | X-H torsion
[ 10718 10713 10712 10709 ] final  128.66 input   66.30 | X-H torsion
[ 10763 10752 10751 10750 ] final  -77.00 input  -60.55 | X-H torsion
[ 11005 11000 10999 10996 ] final  -61.49 input  -57.11 | X-H torsion

> <Gold.Protein.ActiveResidues>
 VAL166  LYS551  ARG553  GLY616  TRP617  ASP618  TYR619  PRO620  LYS621  CYS622 
 ASP623  PHE694  ASN695  SER759  ASP760  ASP761  ALA762  ILE779  LEU786  VAL792 
 PHE793  MET794  SER795  GLU796  ALA797  LYS798  CYS799  TRP800  GLU811  SER814 

> <Gold.Protein.RotatedAtoms>
  151.6608  135.0989  160.0178 H   0  0  0  0  0  0  0  0  0  0  0  0  # atno 6907 bound_to 6896
  152.3947  133.6726  159.6275 H   0  0  0  0  0  0  0  0  0  0  0  0  # atno 6908 bound_to 6896
  150.7856  133.8810  159.3327 H   0  0  0  0  0  0  0  0  0  0  0  0  # atno 6909 bound_to 6896
  146.1704  139.6998  142.8971 H   0  0  0  0  0  0  0  0  0  0  0  0  # atno 7974 bound_to 7965
  154.4157  140.1718  156.1843 H   0  0  0  0  0  0  0  0  0  0  0  0  # atno 8008 bound_to 7997
  155.9656  140.3390  155.6505 H   0  0  0  0  0  0  0  0  0  0  0  0  # atno 8009 bound_to 7997
  155.6692  140.0710  157.2517 H   0  0  0  0  0  0  0  0  0  0  0  0  # atno 8010 bound_to 7997
  139.5546  144.6839  151.4222 H   0  0  0  0  0  0  0  0  0  0  0  0  # atno 10167 bound_to 10162
  157.5224  131.1098  150.9133 H   0  0  0  0  0  0  0  0  0  0  0  0  # atno 10718 bound_to 10713
  154.5073  135.5778  153.6577 H   0  0  0  0  0  0  0  0  0  0  0  0  # atno 10763 bound_to 10752
  152.9890  135.6150  154.2925 H   0  0  0  0  0  0  0  0  0  0  0  0  # atno 10764 bound_to 10752
  154.2837  135.2850  155.2665 H   0  0  0  0  0  0  0  0  0  0  0  0  # atno 10765 bound_to 10752
  141.1326  133.6630  156.5383 H   0  0  0  0  0  0  0  0  0  0  0  0  # atno 11005 bound_to 11000
  145.4355  141.0418  143.2887 LP  0  0  0  0  0  0  0  0  0  0  0  0  # atno 17320 bound_to 7965
  144.8155  139.5885  143.7010 LP  0  0  0  0  0  0  0  0  0  0  0  0  # atno 17321 bound_to 7965
  140.6816  143.8070  150.7128 LP  0  0  0  0  0  0  0  0  0  0  0  0  # atno 17342 bound_to 10162
  140.1525  143.4346  152.2122 LP  0  0  0  0  0  0  0  0  0  0  0  0  # atno 17343 bound_to 10162
  156.9739  130.5501  149.5292 LP  0  0  0  0  0  0  0  0  0  0  0  0  # atno 17370 bound_to 10713
  156.0363  130.5450  150.8661 LP  0  0  0  0  0  0  0  0  0  0  0  0  # atno 17371 bound_to 10713
  140.4160  134.7229  157.4863 LP  0  0  0  0  0  0  0  0  0  0  0  0  # atno 17394 bound_to 11000
  140.0393  134.6291  155.9001 LP  0  0  0  0  0  0  0  0  0  0  0  0  # atno 17395 bound_to 11000

$$$$
