AV-unprocessed.smi:1295|AV-procd|sdf|5401|dock2
  -GOLD-   22720 4563D 1   1.00000     0.00000
 Structure written by MMmdl.
 43 44  0  0  0  0  0  0  0  0  1 V2000
  149.2792  133.9625  155.1365 C   0  0  0  0  0  0  0  0  0  0  0  0
  149.5348  135.4524  155.2225 C   0  0  0  0  0  0  0  0  0  0  0  0
  148.6802  136.3045  155.6849 N   0  0  0  0  0  0  0  0  0  0  0  0
  149.0321  137.6609  155.7182 C   0  0  0  0  0  0  0  0  0  0  0  0
  147.9784  138.5983  156.2823 C   0  0  0  0  0  0  0  0  0  0  0  0
  150.2468  138.0967  155.2722 C   0  0  0  0  0  0  0  0  0  0  0  0
  150.6594  139.5675  155.3011 C   0  0  0  0  0  0  0  0  0  0  0  0
  151.6756  139.9471  156.3807 C   0  0  0  0  0  0  0  0  0  0  0  0
  152.6253  139.2030  156.6255 O   0  0  0  0  0  0  0  0  0  0  0  0
  151.4561  141.1066  157.0200 N   0  0  0  0  0  0  0  0  0  0  0  0
  152.2617  141.6525  158.1112 C   0  0  2  0  0  0  0  0  0  0  0  0
  152.2886  140.6273  159.2620 C   0  0  0  0  0  0  0  0  0  0  0  0
  153.0649  141.1556  160.4766 C   0  0  0  0  0  0  0  0  0  0  0  0
  152.4872  142.4943  160.9549 C   0  0  0  0  0  0  0  0  0  0  0  0
  152.4762  143.5267  159.8177 C   0  0  0  0  0  0  0  0  0  0  0  0
  151.7017  143.0189  158.5839 C   0  0  1  0  0  0  0  0  0  0  0  0
  151.7103  144.0816  157.4701 C   0  0  0  0  0  0  0  0  0  0  0  0
  151.2140  137.1151  154.7439 C   0  0  0  0  0  0  0  0  0  0  0  0
  152.3341  137.3968  154.3205 O   0  0  0  0  0  0  0  0  0  0  0  0
  150.7911  135.8311  154.7526 N   0  0  0  0  0  0  0  0  0  0  0  0
  151.4182  135.1208  154.4037 H   0  0  0  0  0  0  0  0  0  0  0  0
  149.0800  133.5587  156.1297 H   0  0  0  0  0  0  0  0  0  0  0  0
  150.1341  133.4304  154.7169 H   0  0  0  0  0  0  0  0  0  0  0  0
  148.4117  133.7663  154.5056 H   0  0  0  0  0  0  0  0  0  0  0  0
  147.6561  139.3127  155.5248 H   0  0  0  0  0  0  0  0  0  0  0  0
  148.3704  139.1504  157.1366 H   0  0  0  0  0  0  0  0  0  0  0  0
  147.0981  138.0487  156.6181 H   0  0  0  0  0  0  0  0  0  0  0  0
  151.0616  139.8738  154.3350 H   0  0  0  0  0  0  0  0  0  0  0  0
  149.7612  140.1724  155.4304 H   0  0  0  0  0  0  0  0  0  0  0  0
  150.6511  141.6486  156.7408 H   0  0  0  0  0  0  0  0  0  0  0  0
  153.2911  141.8016  157.7797 H   0  0  0  0  0  0  0  0  0  0  0  0
  151.2690  140.3845  159.5656 H   0  0  0  0  0  0  0  0  0  0  0  0
  152.7375  139.6940  158.9194 H   0  0  0  0  0  0  0  0  0  0  0  0
  153.0321  140.4255  161.2857 H   0  0  0  0  0  0  0  0  0  0  0  0
  154.1163  141.2807  160.2145 H   0  0  0  0  0  0  0  0  0  0  0  0
  151.4720  142.3451  161.3244 H   0  0  0  0  0  0  0  0  0  0  0  0
  153.0704  142.8727  161.7949 H   0  0  0  0  0  0  0  0  0  0  0  0
  152.0343  144.4564  160.1780 H   0  0  0  0  0  0  0  0  0  0  0  0
  153.5029  143.7641  159.5351 H   0  0  0  0  0  0  0  0  0  0  0  0
  150.6636  142.8724  158.8866 H   0  0  0  0  0  0  0  0  0  0  0  0
  152.7189  144.2460  157.0897 H   0  0  0  0  0  0  0  0  0  0  0  0
  151.3338  145.0369  157.8366 H   0  0  0  0  0  0  0  0  0  0  0  0
  151.0814  143.7901  156.6290 H   0  0  0  0  0  0  0  0  0  0  0  0
  1  2  1  0  0  0  0
  1 22  1  0  0  0  0
  1 23  1  0  0  0  0
  1 24  1  0  0  0  0
  2 20  1  0  0  0  0
  2  3  2  0  0  0  0
  3  4  1  0  0  0  0
  4  5  1  0  0  0  0
  4  6  2  0  0  0  0
  5 25  1  0  0  0  0
  5 26  1  0  0  0  0
  5 27  1  0  0  0  0
  6  7  1  0  0  0  0
  6 18  1  0  0  0  0
  7  8  1  0  0  0  0
  7 28  1  0  0  0  0
  7 29  1  0  0  0  0
  8  9  2  0  0  0  0
  8 10  1  0  0  0  0
 10 11  1  0  0  0  0
 10 30  1  0  0  0  0
 11 16  1  0  0  0  0
 11 12  1  0  0  0  0
 11 31  1  0  0  0  0
 12 13  1  0  0  0  0
 12 32  1  0  0  0  0
 12 33  1  0  0  0  0
 13 14  1  0  0  0  0
 13 34  1  0  0  0  0
 13 35  1  0  0  0  0
 14 15  1  0  0  0  0
 14 36  1  0  0  0  0
 14 37  1  0  0  0  0
 15 16  1  0  0  0  0
 15 38  1  0  0  0  0
 15 39  1  0  0  0  0
 16 17  1  0  0  0  0
 16 40  1  0  0  0  0
 17 41  1  0  0  0  0
 17 42  1  0  0  0  0
 17 43  1  0  0  0  0
 18 19  2  0  0  0  0
 18 20  1  0  0  0  0
 20 21  1  0  0  0  0
M  END
> <s_m_source_file>
AV-unprocessed.smi

> <i_m_source_file_index>
1295

> <i_lp_mmshare_version>
43012

> <i_f3d_flags>
0

> <s_epik_input>
W0NIM11jMW5jKFtDSDNdKWMoYyg9TylbbkhdMSlbQ0gyXUMoPU8pW05IXVtDQEBIXTJbQ0gyXVtDSDJdW0NIMl1bQ0gyXVtDQEhdMltDSDNd

> <s_epik_cmdline>
J2VwaWtfcHl0aG9uJywgJy1waCcsICc3LjAnLCAnLXRuJywgJzgnLCAnLW1hJywgJzIwMCcsICctbWV0YWxfYmluZGluZycsICctaW1hZScsICc8aW5maWxlLm1hZT4nLCAnLW9tYWUnLCAnPG91dGZpbGUubWFlPic=

> <r_lp_tautomer_probability>
0.839158

> <r_epik_Ionization_Penalty>
0.00037085

> <r_epik_Ionization_Penalty_Charging>
0.000336002

> <r_epik_Ionization_Penalty_Neutral>
3.48485e-05

> <r_epik_State_Penalty>
0.09125

> <r_epik_Charging_Adjusted_Penalty>
0.091586

> <i_epik_Tot_Q>
0

> <i_epik_Tot_abs_Q>
0

> <r_epik_Metal_State_Penalty>
0.251445

> <b_epik_Metal_Only>
0

> <s_lp_Force_Field>
OPLS_2005

> <r_lp_Energy>
11.9109

> <b_lp_Chiralities_Consistent>
1

> <s_lp_Variant>
AV-unprocessed.smi:1295-1

> <Gold.Version>
5.8.1

> <Gold.Id.Protein>
6NUR|6NUR_protein|mol2

> <Gold.PLP.Fitness>
40.7318

> <Gold.PLP.PLP>
-36.1789

> <Gold.PLP.part.hbond>
-3.6000

> <Gold.PLP.part.metal>
0.0000

> <Gold.PLP.part.buried>
-5.1600

> <Gold.PLP.part.nonpolar>
-29.9360

> <Gold.PLP.part.repulsive>
0.4283

> <Gold.PLP.ligand.clash>
0.0000

> <Gold.PLP.ligand.torsion>
0.4269

> <Gold.PLP.Chemscore.Hbond>
1.8000

> <Gold.PLP.Chemscore.CHOScore>
0.0000

> <Gold.PLP.Chemscore.Metal>
0.0000

> <Gold.Chemscore.Hbonds>
donor molecule, donor type, donor heavy atom, donor atom, acceptor molecule, acceptor atom, score
      P1  H  7997  8008       L1     9  1.00
      P1  H 10752 10765       L1    19  0.69

> <Gold.PLP.Chemscore.Internal.Correction>
0.0068

> <Gold.Rescore>
     Score         DG    S(hbond)    S(metal)    S(lipo)     H(rot)  DE(clash)    DE(int)     intcor
     17.63     -18.19       1.81        0.00      89.37       1.48       0.07       0.49       ----

> <Gold.Chemscore.Fitness>
17.6301

> <Gold.Chemscore.DG>
-18.1936

> <Gold.Chemscore.ZeroCoef>
-5.4800

> <Gold.Chemscore.Hbond>
1.8104

> <Gold.Chemscore.Metal>
0.0000

> <Gold.Chemscore.Lipo>
89.3679

> <Gold.Chemscore.Internal_Hbond>
0.0000

> <Gold.Chemscore.DEClash>
0.0739

> <Gold.Chemscore.DEInternal>
0.4895

> <Gold.Chemscore.Rot>
1.4801

> <Gold.Chemscore.Internal.Correction>
   9.000000E+99

> <Gold.Chemscore.Hbonds>
donor molecule, donor type, donor heavy atom, donor atom, acceptor molecule, acceptor atom, score
      P1  H  7997  8008       L1     9  0.87
      P1  H 10752 10765       L1    19  0.27

> <Gold.Chemscore.Hbond.Weighted>
-6.0467

> <Gold.Chemscore.Metal.Weighted>
-0.0000

> <Gold.Chemscore.Lipo.Weighted>
-10.4560

> <Gold.Chemscore.Internal_Hbond.Weighted>
0.0000

> <Gold.Chemscore.DEClash.Weighted>
0.0739

> <Gold.Chemscore.DEInternal.Weighted>
0.4895

> <Gold.Chemscore.Rot.Weighted>
3.7891

> <Gold.Chemscore.Internal.Correction.Weighted>
   9.000000E+99

> <Gold.Protein.RotatedTorsions>
[ 6907 6896 6895 6894 ] final -121.06 input  -60.11 | X-H torsion
[ 7974 7965 7964 7962 ] final  163.40 input  175.53 | X-H torsion
[ 8008 7997 7996 7995 ] final  -57.18 input   59.86 | X-H torsion
[ 10167 10162 10161 10158 ] final  -36.00 input  -65.29 | X-H torsion
[ 10718 10713 10712 10709 ] final  -90.76 input   66.30 | X-H torsion
[ 10763 10752 10751 10750 ] final  141.38 input  -60.55 | X-H torsion
[ 11005 11000 10999 10996 ] final   35.37 input  -57.11 | X-H torsion

> <Gold.Protein.ActiveResidues>
 VAL166  LYS551  ARG553  GLY616  TRP617  ASP618  TYR619  PRO620  LYS621  CYS622 
 ASP623  PHE694  ASN695  SER759  ASP760  ASP761  ALA762  ILE779  LEU786  VAL792 
 PHE793  MET794  SER795  GLU796  ALA797  LYS798  CYS799  TRP800  GLU811  SER814 

> <Gold.Protein.RotatedAtoms>
  150.8449  133.7878  159.3046 H   0  0  0  0  0  0  0  0  0  0  0  0  # atno 6907 bound_to 6896
  151.5568  135.1065  159.9972 H   0  0  0  0  0  0  0  0  0  0  0  0  # atno 6908 bound_to 6896
  152.4505  133.7577  159.6785 H   0  0  0  0  0  0  0  0  0  0  0  0  # atno 6909 bound_to 6896
  144.7591  139.8177  143.6339 H   0  0  0  0  0  0  0  0  0  0  0  0  # atno 7974 bound_to 7965
  154.4258  140.1113  156.5755 H   0  0  0  0  0  0  0  0  0  0  0  0  # atno 8008 bound_to 7997
  155.6167  140.3494  155.4620 H   0  0  0  0  0  0  0  0  0  0  0  0  # atno 8009 bound_to 7997
  156.0057  140.1208  157.0493 H   0  0  0  0  0  0  0  0  0  0  0  0  # atno 8010 bound_to 7997
  140.7152  143.3439  151.2299 H   0  0  0  0  0  0  0  0  0  0  0  0  # atno 10167 bound_to 10162
  155.9989  130.4922  150.5372 H   0  0  0  0  0  0  0  0  0  0  0  0  # atno 10718 bound_to 10713
  153.9383  135.2983  155.3443 H   0  0  0  0  0  0  0  0  0  0  0  0  # atno 10763 bound_to 10752
  154.7490  135.4989  153.9259 H   0  0  0  0  0  0  0  0  0  0  0  0  # atno 10764 bound_to 10752
  153.1056  135.6746  153.9699 H   0  0  0  0  0  0  0  0  0  0  0  0  # atno 10765 bound_to 10752
  140.2434  134.3388  155.7917 H   0  0  0  0  0  0  0  0  0  0  0  0  # atno 11005 bound_to 11000
  146.1635  139.4758  142.9973 LP  0  0  0  0  0  0  0  0  0  0  0  0  # atno 17320 bound_to 7965
  145.6678  141.0224  143.1674 LP  0  0  0  0  0  0  0  0  0  0  0  0  # atno 17321 bound_to 7965
  139.6953  143.9623  152.2879 LP  0  0  0  0  0  0  0  0  0  0  0  0  # atno 17342 bound_to 10162
  139.9298  144.6748  150.8374 LP  0  0  0  0  0  0  0  0  0  0  0  0  # atno 17343 bound_to 10162
  157.3313  131.0700  151.1858 LP  0  0  0  0  0  0  0  0  0  0  0  0  # atno 17370 bound_to 10713
  157.2738  130.6717  149.6032 LP  0  0  0  0  0  0  0  0  0  0  0  0  # atno 17371 bound_to 10713
  141.2208  133.7311  156.8921 LP  0  0  0  0  0  0  0  0  0  0  0  0  # atno 17394 bound_to 11000
  140.1631  134.9152  157.2739 LP  0  0  0  0  0  0  0  0  0  0  0  0  # atno 17395 bound_to 11000

$$$$
