AV-unprocessed.smi:1668|AV-procd|sdf|6681|dock7
  -GOLD-   22720 7403D 1   1.00000     0.00000
 Structure written by MMmdl.
 44 46  0  0  0  0  0  0  0  0  1 V2000
  154.8868  139.8691  161.6679 C   0  0  0  0  0  0  0  0  0  0  0  0
  154.3184  140.1401  160.3951 O   0  0  0  0  0  0  0  0  0  0  0  0
  153.5722  141.2898  160.2498 C   0  0  0  0  0  0  0  0  0  0  0  0
  153.3886  142.2543  161.2680 C   0  0  0  0  0  0  0  0  0  0  0  0
  152.6170  143.4058  161.0281 C   0  0  0  0  0  0  0  0  0  0  0  0
  152.0089  143.6237  159.7674 C   0  0  0  0  0  0  0  0  0  0  0  0
  151.2609  144.7458  159.4755 O   0  0  0  0  0  0  0  0  0  0  0  0
  151.3138  145.8449  160.3725 C   0  0  0  0  0  0  0  0  0  0  0  0
  152.1838  142.6558  158.7474 C   0  0  0  0  0  0  0  0  0  0  0  0
  151.5834  142.8665  157.3567 C   0  0  2  0  0  0  0  0  0  0  0  0
  151.4253  144.2335  157.0335 O   0  0  0  0  0  0  0  0  0  0  0  0
  150.2133  142.1714  157.1894 C   0  0  0  0  0  0  0  0  0  0  0  0
  150.2212  141.1775  156.1152 N   0  0  0  0  0  0  0  0  0  0  0  0
  151.1896  140.2593  155.8851 C   0  0  0  0  0  0  0  0  0  0  0  0
  152.2399  140.1447  156.5166 O   0  0  0  0  0  0  0  0  0  0  0  0
  150.7836  139.4672  154.8659 N   0  0  0  0  0  0  0  0  0  0  0  0
  151.4928  138.3177  154.3177 C   0  0  0  0  0  0  0  0  0  0  0  0
  149.5140  139.8785  154.4413 C   0  0  0  0  0  0  0  0  0  0  0  0
  148.6632  139.3661  153.4469 C   0  0  0  0  0  0  0  0  0  0  0  0
  147.4143  140.0069  153.2724 C   0  0  0  0  0  0  0  0  0  0  0  0
  147.0492  141.1185  154.0753 C   0  0  0  0  0  0  0  0  0  0  0  0
  147.9258  141.6141  155.0682 C   0  0  0  0  0  0  0  0  0  0  0  0
  149.1607  140.9593  155.2215 C   0  0  0  0  0  0  0  0  0  0  0  0
  152.9635  141.5050  158.9990 C   0  0  0  0  0  0  0  0  0  0  0  0
  155.4439  138.9335  161.6212 H   0  0  0  0  0  0  0  0  0  0  0  0
  154.1170  139.7566  162.4324 H   0  0  0  0  0  0  0  0  0  0  0  0
  155.5838  140.6526  161.9686 H   0  0  0  0  0  0  0  0  0  0  0  0
  153.8331  142.1367  162.2444 H   0  0  0  0  0  0  0  0  0  0  0  0
  152.5077  144.1134  161.8354 H   0  0  0  0  0  0  0  0  0  0  0  0
  150.7622  146.6816  159.9440 H   0  0  0  0  0  0  0  0  0  0  0  0
  152.3403  146.1777  160.5341 H   0  0  0  0  0  0  0  0  0  0  0  0
  150.8541  145.6019  161.3311 H   0  0  0  0  0  0  0  0  0  0  0  0
  152.2700  142.4724  156.6072 H   0  0  0  0  0  0  0  0  0  0  0  0
  150.5255  144.3793  156.7840 H   0  0  0  0  0  0  0  0  0  0  0  0
  149.9148  141.6968  158.1246 H   0  0  0  0  0  0  0  0  0  0  0  0
  149.4435  142.9148  156.9750 H   0  0  0  0  0  0  0  0  0  0  0  0
  151.4279  138.3106  153.2293 H   0  0  0  0  0  0  0  0  0  0  0  0
  151.0535  137.3935  154.6940 H   0  0  0  0  0  0  0  0  0  0  0  0
  152.5497  138.3267  154.5878 H   0  0  0  0  0  0  0  0  0  0  0  0
  148.9461  138.5168  152.8430 H   0  0  0  0  0  0  0  0  0  0  0  0
  146.7295  139.6442  152.5201 H   0  0  0  0  0  0  0  0  0  0  0  0
  146.0890  141.5908  153.9285 H   0  0  0  0  0  0  0  0  0  0  0  0
  147.6480  142.4550  155.6859 H   0  0  0  0  0  0  0  0  0  0  0  0
  153.1136  140.7763  158.2158 H   0  0  0  0  0  0  0  0  0  0  0  0
  1  2  1  0  0  0  0
  1 25  1  0  0  0  0
  1 26  1  0  0  0  0
  1 27  1  0  0  0  0
  2  3  1  0  0  0  0
  3 24  1  0  0  0  0
  3  4  2  0  0  0  0
  4  5  1  0  0  0  0
  4 28  1  0  0  0  0
  5  6  2  0  0  0  0
  5 29  1  0  0  0  0
  6  7  1  0  0  0  0
  6  9  1  0  0  0  0
  7  8  1  0  0  0  0
  8 30  1  0  0  0  0
  8 31  1  0  0  0  0
  8 32  1  0  0  0  0
  9 10  1  0  0  0  0
  9 24  2  0  0  0  0
 10 11  1  0  0  0  0
 10 12  1  0  0  0  0
 10 33  1  0  0  0  0
 11 34  1  0  0  0  0
 12 13  1  0  0  0  0
 12 35  1  0  0  0  0
 12 36  1  0  0  0  0
 13 23  1  0  0  0  0
 13 14  1  0  0  0  0
 14 15  2  0  0  0  0
 14 16  1  0  0  0  0
 16 17  1  0  0  0  0
 16 18  1  0  0  0  0
 17 37  1  0  0  0  0
 17 38  1  0  0  0  0
 17 39  1  0  0  0  0
 18 23  2  0  0  0  0
 18 19  1  0  0  0  0
 19 20  2  0  0  0  0
 19 40  1  0  0  0  0
 20 21  1  0  0  0  0
 20 41  1  0  0  0  0
 21 22  2  0  0  0  0
 21 42  1  0  0  0  0
 22 23  1  0  0  0  0
 22 43  1  0  0  0  0
 24 44  1  0  0  0  0
M  END
> <s_m_source_file>
AV-unprocessed.smi

> <i_m_source_file_index>
1668

> <i_lp_mmshare_version>
43012

> <i_f3d_flags>
0

> <s_epik_input>
W0NIM11PYzFbY0hdW2NIXWMoT1tDSDNdKWMoW2NIXTEpW0NASF0oW09IXSlbQ0gyXW4oYyg9TyluMltDSDNdKWMoYzIzKVtjSF1bY0hdW2NIXVtjSF0z

> <s_epik_cmdline>
J2VwaWtfcHl0aG9uJywgJy1waCcsICc3LjAnLCAnLXRuJywgJzgnLCAnLW1hJywgJzIwMCcsICctbWV0YWxfYmluZGluZycsICctaW1hZScsICc8aW5maWxlLm1hZT4nLCAnLW9tYWUnLCAnPG91dGZpbGUubWFlPic=

> <r_lp_tautomer_probability>
1

> <r_epik_Ionization_Penalty>
1.34538e-06

> <r_epik_Ionization_Penalty_Charging>
1.76928e-09

> <r_epik_Ionization_Penalty_Neutral>
1.34362e-06

> <r_epik_State_Penalty>
-0

> <r_epik_Charging_Adjusted_Penalty>
1.76928e-09

> <i_epik_Tot_Q>
0

> <i_epik_Tot_abs_Q>
0

> <r_epik_Metal_State_Penalty>
-0

> <b_epik_Metal_Only>
0

> <s_lp_Force_Field>
OPLS_2005

> <r_lp_Energy>
46.5536

> <b_lp_Chiralities_Consistent>
1

> <s_lp_Variant>
AV-unprocessed.smi:1668-1

> <Gold.Version>
5.8.1

> <Gold.Id.Protein>
6NUR|6NUR_protein|mol2

> <Gold.PLP.Fitness>
52.8135

> <Gold.PLP.PLP>
-51.1282

> <Gold.PLP.part.hbond>
-1.8978

> <Gold.PLP.part.metal>
0.0000

> <Gold.PLP.part.buried>
2.5155

> <Gold.PLP.part.nonpolar>
-50.5267

> <Gold.PLP.part.repulsive>
0.0995

> <Gold.PLP.ligand.clash>
0.0000

> <Gold.PLP.ligand.torsion>
1.8752

> <Gold.PLP.Chemscore.Hbond>
1.7875

> <Gold.PLP.Chemscore.CHOScore>
0.0000

> <Gold.PLP.Chemscore.Metal>
0.0000

> <Gold.Chemscore.Hbonds>
donor molecule, donor type, donor heavy atom, donor atom, acceptor molecule, acceptor atom, score
      L1  H    11    34       P1  8028  1.00
      P1  H  7997  8009       L1    15  0.84

> <Gold.PLP.Chemscore.Internal.Correction>
0.0732

> <Gold.Rescore>
     Score         DG    S(hbond)    S(metal)    S(lipo)     H(rot)  DE(clash)    DE(int)     intcor
     16.88     -23.52       1.85        0.00     150.54       2.24       2.63       4.01       ----

> <Gold.Chemscore.Fitness>
16.8802

> <Gold.Chemscore.DG>
-23.5180

> <Gold.Chemscore.ZeroCoef>
-5.4800

> <Gold.Chemscore.Hbond>
1.8477

> <Gold.Chemscore.Metal>
0.0000

> <Gold.Chemscore.Lipo>
150.5410

> <Gold.Chemscore.Internal_Hbond>
0.0000

> <Gold.Chemscore.DEClash>
2.6267

> <Gold.Chemscore.DEInternal>
4.0111

> <Gold.Chemscore.Rot>
2.2448

> <Gold.Chemscore.Internal.Correction>
   9.000000E+99

> <Gold.Chemscore.Hbonds>
donor molecule, donor type, donor heavy atom, donor atom, acceptor molecule, acceptor atom, score
      L1  H    11    34       P1  8028  0.94
      P1  H  7997  8009       L1    15  0.81

> <Gold.Chemscore.Hbond.Weighted>
-6.1714

> <Gold.Chemscore.Metal.Weighted>
-0.0000

> <Gold.Chemscore.Lipo.Weighted>
-17.6133

> <Gold.Chemscore.Internal_Hbond.Weighted>
0.0000

> <Gold.Chemscore.DEClash.Weighted>
2.6267

> <Gold.Chemscore.DEInternal.Weighted>
4.0111

> <Gold.Chemscore.Rot.Weighted>
5.7467

> <Gold.Chemscore.Internal.Correction.Weighted>
   9.000000E+99

> <Gold.Protein.RotatedTorsions>
[ 6907 6896 6895 6894 ] final -135.89 input  -60.11 | X-H torsion
[ 7974 7965 7964 7962 ] final  101.48 input  175.53 | X-H torsion
[ 8008 7997 7996 7995 ] final -169.46 input   59.86 | X-H torsion
[ 10167 10162 10161 10158 ] final -116.90 input  -65.29 | X-H torsion
[ 10718 10713 10712 10709 ] final  -57.24 input   66.30 | X-H torsion
[ 10763 10752 10751 10750 ] final  -76.15 input  -60.55 | X-H torsion
[ 11005 11000 10999 10996 ] final -112.81 input  -57.11 | X-H torsion

> <Gold.Protein.ActiveResidues>
 VAL166  LYS551  ARG553  GLY616  TRP617  ASP618  TYR619  PRO620  LYS621  CYS622 
 ASP623  PHE694  ASN695  SER759  ASP760  ASP761  ALA762  ILE779  LEU786  VAL792 
 PHE793  MET794  SER795  GLU796  ALA797  LYS798  CYS799  TRP800  GLU811  SER814 

> <Gold.Protein.RotatedAtoms>
  151.0034  133.6034  159.2691 H   0  0  0  0  0  0  0  0  0  0  0  0  # atno 6907 bound_to 6896
  151.3212  135.0818  159.9316 H   0  0  0  0  0  0  0  0  0  0  0  0  # atno 6908 bound_to 6896
  152.5280  133.9681  159.7803 H   0  0  0  0  0  0  0  0  0  0  0  0  # atno 6909 bound_to 6896
  145.3717  139.2397  143.3451 H   0  0  0  0  0  0  0  0  0  0  0  0  # atno 7974 bound_to 7965
  155.9052  140.1048  157.1320 H   0  0  0  0  0  0  0  0  0  0  0  0  # atno 8008 bound_to 7997
  154.4031  140.1285  156.4552 H   0  0  0  0  0  0  0  0  0  0  0  0  # atno 8009 bound_to 7997
  155.7375  140.3467  155.5091 H   0  0  0  0  0  0  0  0  0  0  0  0  # atno 8010 bound_to 7997
  140.0742  143.4849  152.1963 H   0  0  0  0  0  0  0  0  0  0  0  0  # atno 10167 bound_to 10162
  156.1226  130.4165  150.0414 H   0  0  0  0  0  0  0  0  0  0  0  0  # atno 10718 bound_to 10713
  154.4960  135.5807  153.6495 H   0  0  0  0  0  0  0  0  0  0  0  0  # atno 10763 bound_to 10752
  152.9870  135.6124  154.3064 H   0  0  0  0  0  0  0  0  0  0  0  0  # atno 10764 bound_to 10752
  154.2967  135.2847  155.2609 H   0  0  0  0  0  0  0  0  0  0  0  0  # atno 10765 bound_to 10752
  141.0653  133.9469  157.2590 H   0  0  0  0  0  0  0  0  0  0  0  0  # atno 11005 bound_to 11000
  146.2882  140.4370  142.8750 LP  0  0  0  0  0  0  0  0  0  0  0  0  # atno 17320 bound_to 7965
  144.8571  140.7086  143.6131 LP  0  0  0  0  0  0  0  0  0  0  0  0  # atno 17321 bound_to 7965
  139.5818  144.7514  151.3621 LP  0  0  0  0  0  0  0  0  0  0  0  0  # atno 17342 bound_to 10162
  140.7110  143.7389  150.7568 LP  0  0  0  0  0  0  0  0  0  0  0  0  # atno 17343 bound_to 10162
  156.8348  130.9405  151.3635 LP  0  0  0  0  0  0  0  0  0  0  0  0  # atno 17370 bound_to 10713
  157.6409  130.8804  149.9446 LP  0  0  0  0  0  0  0  0  0  0  0  0  # atno 17371 bound_to 10713
  139.9470  135.0182  156.8882 LP  0  0  0  0  0  0  0  0  0  0  0  0  # atno 17394 bound_to 11000
  140.5786  134.0374  155.7456 LP  0  0  0  0  0  0  0  0  0  0  0  0  # atno 17395 bound_to 11000

$$$$
