AV-unprocessed.smi:1535|AV-procd|sdf|6171|dock6
  -GOLD-   22720 6323D 1   1.00000     0.00000
 Structure written by MMmdl.
 46 47  0  0  0  0  0  0  0  0  1 V2000
  151.3802  143.8753  160.3605 C   0  0  0  0  0  0  0  0  0  0  0  0
  152.3415  142.7255  160.6059 C   0  0  0  0  0  0  0  0  0  0  0  0
  152.6960  141.8847  159.5269 C   0  0  0  0  0  0  0  0  0  0  0  0
  153.5859  140.8042  159.7127 C   0  0  0  0  0  0  0  0  0  0  0  0
  154.0639  139.8684  158.8115 N   0  0  0  0  0  0  0  0  0  0  0  0
  154.8528  139.1294  159.5862 C   0  0  0  0  0  0  0  0  0  0  0  0
  154.9420  139.4755  160.8849 N   0  0  0  0  0  0  0  0  0  0  0  0
  155.7362  138.8276  161.9140 C   0  0  0  0  0  0  0  0  0  0  0  0
  154.8785  138.2974  163.0790 C   0  0  1  0  0  0  0  0  0  0  0  0
  154.0587  137.2437  162.6100 O   0  0  0  0  0  0  0  0  0  0  0  0
  155.7581  137.7623  164.2282 C   0  0  0  0  0  0  0  0  0  0  0  0
  156.3864  138.7821  165.0767 N   0  0  0  0  0  0  0  0  0  0  0  0
  157.5495  138.2464  165.7790 C   0  0  0  0  0  0  0  0  0  0  0  0
  155.4430  139.3431  166.0469 C   0  0  0  0  0  0  0  0  0  0  0  0
  155.6517  140.8288  166.4029 C   0  0  2  0  0  0  0  0  0  0  0  0
  154.7860  141.2685  167.5925 C   0  0  0  0  0  0  0  0  0  0  0  0
  155.3809  141.6775  165.2317 C   0  0  0  0  0  0  0  0  0  0  0  0
  155.1678  142.3449  164.3110 N   0  0  0  0  0  0  0  0  0  0  0  0
  154.1172  140.5872  161.0177 C   0  0  0  0  0  0  0  0  0  0  0  0
  153.7728  141.4173  162.0990 C   0  0  0  0  0  0  0  0  0  0  0  0
  152.8798  142.4905  161.8967 C   0  0  0  0  0  0  0  0  0  0  0  0
  152.5106  143.3784  163.0718 C   0  0  0  0  0  0  0  0  0  0  0  0
  151.1020  143.9444  159.3085 H   0  0  0  0  0  0  0  0  0  0  0  0
  151.8350  144.8234  160.6479 H   0  0  0  0  0  0  0  0  0  0  0  0
  150.4670  143.7386  160.9403 H   0  0  0  0  0  0  0  0  0  0  0  0
  152.2856  142.0623  158.5439 H   0  0  0  0  0  0  0  0  0  0  0  0
  155.3969  138.2859  159.1866 H   0  0  0  0  0  0  0  0  0  0  0  0
  156.3066  138.0168  161.4579 H   0  0  0  0  0  0  0  0  0  0  0  0
  156.4639  139.5515  162.2829 H   0  0  0  0  0  0  0  0  0  0  0  0
  154.2337  139.1045  163.4223 H   0  0  0  0  0  0  0  0  0  0  0  0
  153.7215  136.7704  163.3548 H   0  0  0  0  0  0  0  0  0  0  0  0
  155.1347  137.1026  164.8293 H   0  0  0  0  0  0  0  0  0  0  0  0
  156.5386  137.1231  163.8127 H   0  0  0  0  0  0  0  0  0  0  0  0
  157.9983  139.0066  166.4196 H   0  0  0  0  0  0  0  0  0  0  0  0
  158.3260  137.9244  165.0872 H   0  0  0  0  0  0  0  0  0  0  0  0
  157.2757  137.3971  166.4065 H   0  0  0  0  0  0  0  0  0  0  0  0
  154.4244  139.1998  165.6829 H   0  0  0  0  0  0  0  0  0  0  0  0
  155.5050  138.7761  166.9771 H   0  0  0  0  0  0  0  0  0  0  0  0
  156.6964  141.0164  166.6447 H   0  0  0  0  0  0  0  0  0  0  0  0
  154.9430  142.3232  167.8195 H   0  0  0  0  0  0  0  0  0  0  0  0
  155.0274  140.7001  168.4909 H   0  0  0  0  0  0  0  0  0  0  0  0
  153.7254  141.1279  167.3820 H   0  0  0  0  0  0  0  0  0  0  0  0
  154.1910  141.2277  163.0764 H   0  0  0  0  0  0  0  0  0  0  0  0
  152.9604  143.0197  163.9980 H   0  0  0  0  0  0  0  0  0  0  0  0
  151.4296  143.3987  163.2122 H   0  0  0  0  0  0  0  0  0  0  0  0
  152.8579  144.3978  162.9027 H   0  0  0  0  0  0  0  0  0  0  0  0
  1  2  1  0  0  0  0
  1 23  1  0  0  0  0
  1 24  1  0  0  0  0
  1 25  1  0  0  0  0
  2 21  1  0  0  0  0
  2  3  2  0  0  0  0
  3  4  1  0  0  0  0
  3 26  1  0  0  0  0
  4 19  2  0  0  0  0
  4  5  1  0  0  0  0
  5  6  2  0  0  0  0
  6  7  1  0  0  0  0
  6 27  1  0  0  0  0
  7  8  1  0  0  0  0
  7 19  1  0  0  0  0
  8  9  1  0  0  0  0
  8 28  1  0  0  0  0
  8 29  1  0  0  0  0
  9 10  1  0  0  0  0
  9 11  1  0  0  0  0
  9 30  1  0  0  0  0
 10 31  1  0  0  0  0
 11 12  1  0  0  0  0
 11 32  1  0  0  0  0
 11 33  1  0  0  0  0
 12 13  1  0  0  0  0
 12 14  1  0  0  0  0
 13 34  1  0  0  0  0
 13 35  1  0  0  0  0
 13 36  1  0  0  0  0
 14 15  1  0  0  0  0
 14 37  1  0  0  0  0
 14 38  1  0  0  0  0
 15 16  1  0  0  0  0
 15 17  1  0  0  0  0
 15 39  1  0  0  0  0
 16 40  1  0  0  0  0
 16 41  1  0  0  0  0
 16 42  1  0  0  0  0
 17 18  3  0  0  0  0
 19 20  1  0  0  0  0
 20 21  2  0  0  0  0
 20 43  1  0  0  0  0
 21 22  1  0  0  0  0
 22 44  1  0  0  0  0
 22 45  1  0  0  0  0
 22 46  1  0  0  0  0
M  END
> <s_m_source_file>
AV-unprocessed.smi

> <i_m_source_file_index>
1535

> <i_lp_mmshare_version>
43012

> <i_f3d_flags>
0

> <s_epik_input>
W0NIM11jKFtjSF0xKWMoW0NIM10pW2NIXWMoYzEyKW4oW2NIXW4yKVtDSDJdW0NASF0oW09IXSlbQ0gyXU4oW0NIM10pW0NIMl1bQ0BIXShbQ0gzXSlDI04=

> <s_epik_cmdline>
J2VwaWtfcHl0aG9uJywgJy1waCcsICc3LjAnLCAnLXRuJywgJzgnLCAnLW1hJywgJzIwMCcsICctbWV0YWxfYmluZGluZycsICctaW1hZScsICc8aW5maWxlLm1hZT4nLCAnLW9tYWUnLCAnPG91dGZpbGUubWFlPic=

> <r_epik_Ionization_Penalty>
0.098511

> <r_epik_Ionization_Penalty_Charging>
0

> <r_epik_Ionization_Penalty_Neutral>
0.098511

> <r_epik_State_Penalty>
0.0881608

> <r_epik_Charging_Adjusted_Penalty>
0.0881608

> <i_epik_Tot_Q>
0

> <i_epik_Tot_abs_Q>
0

> <r_epik_Metal_State_Penalty>
0.0128087

> <b_epik_Metal_Only>
0

> <s_lp_Force_Field>
OPLS_2005

> <r_lp_Energy>
24.761

> <b_lp_Chiralities_Consistent>
1

> <s_lp_Variant>
AV-unprocessed.smi:1535-2

> <Gold.Version>
5.8.1

> <Gold.Id.Protein>
6NUR|6NUR_protein|mol2

> <Gold.PLP.Fitness>
47.4548

> <Gold.PLP.PLP>
-45.9417

> <Gold.PLP.part.hbond>
-2.0000

> <Gold.PLP.part.metal>
0.0000

> <Gold.PLP.part.buried>
-3.6908

> <Gold.PLP.part.nonpolar>
-39.1764

> <Gold.PLP.part.repulsive>
0.0259

> <Gold.PLP.ligand.clash>
0.0000

> <Gold.PLP.ligand.torsion>
0.7677

> <Gold.PLP.Chemscore.Hbond>
1.0000

> <Gold.PLP.Chemscore.CHOScore>
0.0000

> <Gold.PLP.Chemscore.Metal>
0.0000

> <Gold.Chemscore.Hbonds>
donor molecule, donor type, donor heavy atom, donor atom, acceptor molecule, acceptor atom, score
      P1  H  7997  8008       L1     5  1.00

> <Gold.PLP.Chemscore.Internal.Correction>
0.0484

> <Gold.Rescore>
     Score         DG    S(hbond)    S(metal)    S(lipo)     H(rot)  DE(clash)    DE(int)     intcor
     15.73     -16.47       0.98        0.00     120.89       2.51       0.18       0.56       ----

> <Gold.Chemscore.Fitness>
15.7268

> <Gold.Chemscore.DG>
-16.4701

> <Gold.Chemscore.ZeroCoef>
-5.4800

> <Gold.Chemscore.Hbond>
0.9804

> <Gold.Chemscore.Metal>
0.0000

> <Gold.Chemscore.Lipo>
120.8916

> <Gold.Chemscore.Internal_Hbond>
0.0000

> <Gold.Chemscore.DEClash>
0.1844

> <Gold.Chemscore.DEInternal>
0.5589

> <Gold.Chemscore.Rot>
2.5113

> <Gold.Chemscore.Internal.Correction>
   9.000000E+99

> <Gold.Chemscore.Hbonds>
donor molecule, donor type, donor heavy atom, donor atom, acceptor molecule, acceptor atom, score
      P1  H  7997  8008       L1     5  0.49

> <Gold.Chemscore.Hbond.Weighted>
-3.2747

> <Gold.Chemscore.Metal.Weighted>
-0.0000

> <Gold.Chemscore.Lipo.Weighted>
-14.1443

> <Gold.Chemscore.Internal_Hbond.Weighted>
0.0000

> <Gold.Chemscore.DEClash.Weighted>
0.1844

> <Gold.Chemscore.DEInternal.Weighted>
0.5589

> <Gold.Chemscore.Rot.Weighted>
6.4289

> <Gold.Chemscore.Internal.Correction.Weighted>
   9.000000E+99

> <Gold.Protein.RotatedTorsions>
[ 6907 6896 6895 6894 ] final  -85.81 input  -60.11 | X-H torsion
[ 7974 7965 7964 7962 ] final  -88.19 input  175.53 | X-H torsion
[ 8008 7997 7996 7995 ] final -110.89 input   59.86 | X-H torsion
[ 10167 10162 10161 10158 ] final -107.31 input  -65.29 | X-H torsion
[ 10718 10713 10712 10709 ] final  -50.57 input   66.30 | X-H torsion
[ 10763 10752 10751 10750 ] final   87.31 input  -60.55 | X-H torsion
[ 11005 11000 10999 10996 ] final  -10.20 input  -57.11 | X-H torsion

> <Gold.Protein.ActiveResidues>
 VAL166  LYS551  ARG553  GLY616  TRP617  ASP618  TYR619  PRO620  LYS621  CYS622 
 ASP623  PHE694  ASN695  SER759  ASP760  ASP761  ALA762  ILE779  LEU786  VAL792 
 PHE793  MET794  SER795  GLU796  ALA797  LYS798  CYS799  TRP800  GLU811  SER814 

> <Gold.Protein.RotatedAtoms>
  150.6869  134.3148  159.4761 H   0  0  0  0  0  0  0  0  0  0  0  0  # atno 6907 bound_to 6896
  152.1030  134.9326  160.0578 H   0  0  0  0  0  0  0  0  0  0  0  0  # atno 6908 bound_to 6896
  152.0598  133.4022  159.4450 H   0  0  0  0  0  0  0  0  0  0  0  0  # atno 6909 bound_to 6896
  145.4564  140.9561  143.1994 H   0  0  0  0  0  0  0  0  0  0  0  0  # atno 7974 bound_to 7965
  154.9814  140.0396  157.2279 H   0  0  0  0  0  0  0  0  0  0  0  0  # atno 8008 bound_to 7997
  154.7711  140.2802  155.6115 H   0  0  0  0  0  0  0  0  0  0  0  0  # atno 8009 bound_to 7997
  156.2921  140.2610  156.2513 H   0  0  0  0  0  0  0  0  0  0  0  0  # atno 8010 bound_to 7997
  140.1783  143.3987  152.1301 H   0  0  0  0  0  0  0  0  0  0  0  0  # atno 10167 bound_to 10162
  156.1789  130.4150  149.9536 H   0  0  0  0  0  0  0  0  0  0  0  0  # atno 10718 bound_to 10713
  153.1656  135.4548  154.9832 H   0  0  0  0  0  0  0  0  0  0  0  0  # atno 10763 bound_to 10752
  154.7929  135.3227  154.7737 H   0  0  0  0  0  0  0  0  0  0  0  0  # atno 10764 bound_to 10752
  153.8220  135.6946  153.4880 H   0  0  0  0  0  0  0  0  0  0  0  0  # atno 10765 bound_to 10752
  140.7423  133.8660  155.8977 H   0  0  0  0  0  0  0  0  0  0  0  0  # atno 11005 bound_to 11000
  144.8030  139.6105  143.7063 LP  0  0  0  0  0  0  0  0  0  0  0  0  # atno 17320 bound_to 7965
  146.2476  139.6130  142.9449 LP  0  0  0  0  0  0  0  0  0  0  0  0  # atno 17321 bound_to 7965
  139.5307  144.7155  151.5066 LP  0  0  0  0  0  0  0  0  0  0  0  0  # atno 17342 bound_to 10162
  140.6536  143.8645  150.6811 LP  0  0  0  0  0  0  0  0  0  0  0  0  # atno 17343 bound_to 10162
  156.7313  130.9044  151.3626 LP  0  0  0  0  0  0  0  0  0  0  0  0  # atno 17370 bound_to 10713
  157.6854  130.9181  150.0374 LP  0  0  0  0  0  0  0  0  0  0  0  0  # atno 17371 bound_to 10713
  140.9826  134.1385  157.4481 LP  0  0  0  0  0  0  0  0  0  0  0  0  # atno 17394 bound_to 11000
  139.8804  135.0015  156.6072 LP  0  0  0  0  0  0  0  0  0  0  0  0  # atno 17395 bound_to 11000

$$$$
