AV-unprocessed.smi:1593|AV-procd|sdf|6412|dock2
  -GOLD-   22720 7 43D 1   1.00000     0.00000
 Structure written by MMmdl.
 36 37  0  0  0  0  0  0  0  0  3 V2000
  151.5163  141.2963  156.4817 C   0  0  0  0  0  0  0  0  0  0  0  0
  151.3787  139.9976  155.7641 C   0  0  0  0  0  0  0  0  0  0  0  0
  151.8551  138.7416  156.0129 C   0  0  0  0  0  0  0  0  0  0  0  0
  151.3375  137.9779  154.9313 C   0  0  0  0  0  0  0  0  0  0  0  0
  151.5415  136.6680  154.7226 N   0  5  0  0  0  0  0  0  0  0  0  0
  150.7326  135.7525  155.3022 C   0  0  0  0  0  0  0  0  0  0  0  0
  150.8241  135.3173  156.4526 O   0  0  0  0  0  0  0  0  0  0  0  0
  149.7574  135.3081  154.4967 N   0  0  0  0  0  0  0  0  0  0  0  0
  148.7477  134.3178  154.8511 C   0  0  0  0  0  0  0  0  0  0  0  0
  148.3180  133.4915  153.6243 C   0  0  0  0  0  0  0  0  0  0  0  0
  147.2040  134.1265  152.8783 N   0  3  0  0  0  0  0  0  0  0  0  0
  146.5529  133.1904  151.9308 C   0  0  0  0  0  0  0  0  0  0  0  0
  145.4410  133.9056  151.1449 C   0  0  0  0  0  0  0  0  0  0  0  0
  144.4954  134.4589  152.0515 O   0  0  0  0  0  0  0  0  0  0  0  0
  145.0870  135.4242  152.9123 C   0  0  0  0  0  0  0  0  0  0  0  0
  146.1893  134.7615  153.7560 C   0  0  0  0  0  0  0  0  0  0  0  0
  150.6250  138.7095  154.0910 N   0  0  0  0  0  0  0  0  0  0  0  0
  150.6402  140.0047  154.6222 O   0  0  0  0  0  0  0  0  0  0  0  0
  152.3060  141.2451  157.2313 H   0  0  0  0  0  0  0  0  0  0  0  0
  150.5861  141.5576  156.9865 H   0  0  0  0  0  0  0  0  0  0  0  0
  151.7626  142.0990  155.7865 H   0  0  0  0  0  0  0  0  0  0  0  0
  152.4714  138.4187  156.8384 H   0  0  0  0  0  0  0  0  0  0  0  0
  149.7156  135.6939  153.5645 H   0  0  0  0  0  0  0  0  0  0  0  0
  149.1348  133.6834  155.6489 H   0  0  0  0  0  0  0  0  0  0  0  0
  147.8876  134.8457  155.2636 H   0  0  0  0  0  0  0  0  0  0  0  0
  149.1811  133.3941  152.9637 H   0  0  0  0  0  0  0  0  0  0  0  0
  148.0340  132.4774  153.9102 H   0  0  0  0  0  0  0  0  0  0  0  0
  147.2925  132.7915  151.2353 H   0  0  0  0  0  0  0  0  0  0  0  0
  146.1385  132.3431  152.4795 H   0  0  0  0  0  0  0  0  0  0  0  0
  145.8554  134.6898  150.5090 H   0  0  0  0  0  0  0  0  0  0  0  0
  144.9308  133.2002  150.4888 H   0  0  0  0  0  0  0  0  0  0  0  0
  145.4889  136.2536  152.3280 H   0  0  0  0  0  0  0  0  0  0  0  0
  144.3152  135.8376  153.5620 H   0  0  0  0  0  0  0  0  0  0  0  0
  145.7512  134.0095  154.4143 H   0  0  0  0  0  0  0  0  0  0  0  0
  146.6512  135.5131  154.3949 H   0  0  0  0  0  0  0  0  0  0  0  0
  147.6141  134.8594  152.3171 H   0  0  0  0  0  0  0  0  0  0  0  0
  1  2  1  0  0  0  0
  1 19  1  0  0  0  0
  1 20  1  0  0  0  0
  1 21  1  0  0  0  0
  2 18  1  0  0  0  0
  2  3  2  0  0  0  0
  3  4  1  0  0  0  0
  3 22  1  0  0  0  0
  4  5  1  0  0  0  0
  4 17  2  0  0  0  0
  5  6  1  0  0  0  0
  6  7  2  0  0  0  0
  6  8  1  0  0  0  0
  8  9  1  0  0  0  0
  8 23  1  0  0  0  0
  9 10  1  0  0  0  0
  9 24  1  0  0  0  0
  9 25  1  0  0  0  0
 10 11  1  0  0  0  0
 10 26  1  0  0  0  0
 10 27  1  0  0  0  0
 11 16  1  0  0  0  0
 11 12  1  0  0  0  0
 11 36  1  0  0  0  0
 12 13  1  0  0  0  0
 12 28  1  0  0  0  0
 12 29  1  0  0  0  0
 13 14  1  0  0  0  0
 13 30  1  0  0  0  0
 13 31  1  0  0  0  0
 14 15  1  0  0  0  0
 15 16  1  0  0  0  0
 15 32  1  0  0  0  0
 15 33  1  0  0  0  0
 16 34  1  0  0  0  0
 16 35  1  0  0  0  0
 17 18  1  0  0  0  0
M  CHG  1   5  -1
M  CHG  1  11   1
M  END
> <s_m_source_file>
AV-unprocessed.smi

> <i_m_source_file_index>
1593

> <i_lp_mmshare_version>
43012

> <i_f3d_flags>
0

> <s_epik_input>
W0NIM11jMVtjSF1jKG5vMSlbTkhdQyg9TylbTkhdW0NIMl1bQ0gyXU4yW0NIMl1bQ0gyXU9bQ0gyXVtDSDJdMg==

> <s_epik_cmdline>
J2VwaWtfcHl0aG9uJywgJy1waCcsICc3LjAnLCAnLXRuJywgJzgnLCAnLW1hJywgJzIwMCcsICctbWV0YWxfYmluZGluZycsICctaW1hZScsICc8aW5maWxlLm1hZT4nLCAnLW9tYWUnLCAnPG91dGZpbGUubWFlPic=

> <r_epik_Ionization_Penalty>
6.73013

> <r_epik_Ionization_Penalty_Charging>
6.73004

> <r_epik_Ionization_Penalty_Neutral>
9.27027e-05

> <r_epik_State_Penalty>
6.93052

> <r_epik_Charging_Adjusted_Penalty>
13.6606

> <i_epik_Tot_Q>
0

> <i_epik_Tot_abs_Q>
2

> <r_epik_Metal_State_Penalty>
2.86736

> <b_epik_Metal_Only>
1

> <s_lp_Force_Field>
OPLS_2005

> <r_lp_Energy>
3.0075

> <b_lp_Chiralities_Consistent>
1

> <s_lp_Variant>
AV-unprocessed.smi:1593-4

> <Gold.Version>
5.8.1

> <Gold.Id.Protein>
6NUR|6NUR_protein|mol2

> <Gold.PLP.Fitness>
40.7629

> <Gold.PLP.PLP>
-28.1770

> <Gold.PLP.part.hbond>
-4.0967

> <Gold.PLP.part.metal>
0.0000

> <Gold.PLP.part.buried>
-3.7085

> <Gold.PLP.part.nonpolar>
-20.6020

> <Gold.PLP.part.repulsive>
0.6928

> <Gold.PLP.ligand.clash>
0.0000

> <Gold.PLP.ligand.torsion>
1.9971

> <Gold.PLP.Chemscore.Hbond>
5.5000

> <Gold.PLP.Chemscore.CHOScore>
0.0000

> <Gold.PLP.Chemscore.Metal>
0.0000

> <Gold.Chemscore.Hbonds>
donor molecule, donor type, donor heavy atom, donor atom, acceptor molecule, acceptor atom, score
      L1  H     8    23       P1  7948  0.75
      L1  H    11    36       P1  7948  2.00
      P1  H  7989  7998       L1    18  1.00
      P1  H 10752 10763       L1     5  1.90

> <Gold.PLP.Chemscore.Internal.Correction>
0.0801

> <Gold.Rescore>
     Score         DG    S(hbond)    S(metal)    S(lipo)     H(rot)  DE(clash)    DE(int)     intcor
     13.50     -15.69       2.68        0.00      46.32       1.62       0.29       1.89       ----

> <Gold.Chemscore.Fitness>
13.5046

> <Gold.Chemscore.DG>
-15.6878

> <Gold.Chemscore.ZeroCoef>
-5.4800

> <Gold.Chemscore.Hbond>
2.6773

> <Gold.Chemscore.Metal>
0.0000

> <Gold.Chemscore.Lipo>
46.3246

> <Gold.Chemscore.Internal_Hbond>
0.0000

> <Gold.Chemscore.DEClash>
0.2946

> <Gold.Chemscore.DEInternal>
1.8886

> <Gold.Chemscore.Rot>
1.6228

> <Gold.Chemscore.Internal.Correction>
   9.000000E+99

> <Gold.Chemscore.Hbonds>
donor molecule, donor type, donor heavy atom, donor atom, acceptor molecule, acceptor atom, score
      L1  H     8    23       P1  7948  0.09
      L1  H    11    36       P1  7948  0.89
      P1  H  7989  7998       L1    18  0.18
      P1  H 10752 10763       L1     5  0.22

> <Gold.Chemscore.Hbond.Weighted>
-8.9420

> <Gold.Chemscore.Metal.Weighted>
-0.0000

> <Gold.Chemscore.Lipo.Weighted>
-5.4200

> <Gold.Chemscore.Internal_Hbond.Weighted>
0.0000

> <Gold.Chemscore.DEClash.Weighted>
0.2946

> <Gold.Chemscore.DEInternal.Weighted>
1.8886

> <Gold.Chemscore.Rot.Weighted>
4.1542

> <Gold.Chemscore.Internal.Correction.Weighted>
   9.000000E+99

> <Gold.Protein.RotatedTorsions>
[ 6907 6896 6895 6894 ] final  169.42 input  -60.11 | X-H torsion
[ 7974 7965 7964 7962 ] final  -51.35 input  175.53 | X-H torsion
[ 8008 7997 7996 7995 ] final -143.61 input   59.86 | X-H torsion
[ 10167 10162 10161 10158 ] final  100.63 input  -65.29 | X-H torsion
[ 10718 10713 10712 10709 ] final  102.51 input   66.30 | X-H torsion
[ 10763 10752 10751 10750 ] final   48.65 input  -60.55 | X-H torsion
[ 11005 11000 10999 10996 ] final  -53.20 input  -57.11 | X-H torsion

> <Gold.Protein.ActiveResidues>
 VAL166  LYS551  ARG553  GLY616  TRP617  ASP618  TYR619  PRO620  LYS621  CYS622 
 ASP623  PHE694  ASN695  SER759  ASP760  ASP761  ALA762  ILE779  LEU786  VAL792 
 PHE793  MET794  SER795  GLU796  ALA797  LYS798  CYS799  TRP800  GLU811  SER814 

> <Gold.Protein.RotatedAtoms>
  151.8322  133.3410  159.3616 H   0  0  0  0  0  0  0  0  0  0  0  0  # atno 6907 bound_to 6896
  150.7260  134.5472  159.5786 H   0  0  0  0  0  0  0  0  0  0  0  0  # atno 6908 bound_to 6896
  152.2927  134.7703  160.0425 H   0  0  0  0  0  0  0  0  0  0  0  0  # atno 6909 bound_to 6896
  145.9199  140.7843  142.9653 H   0  0  0  0  0  0  0  0  0  0  0  0  # atno 7974 bound_to 7965
  155.5134  140.0585  157.2919 H   0  0  0  0  0  0  0  0  0  0  0  0  # atno 8008 bound_to 7997
  154.4544  140.1965  156.0372 H   0  0  0  0  0  0  0  0  0  0  0  0  # atno 8009 bound_to 7997
  156.0769  140.3252  155.7649 H   0  0  0  0  0  0  0  0  0  0  0  0  # atno 8010 bound_to 7997
  139.7510  144.6984  151.0432 H   0  0  0  0  0  0  0  0  0  0  0  0  # atno 10167 bound_to 10162
  157.6800  131.0755  150.5415 H   0  0  0  0  0  0  0  0  0  0  0  0  # atno 10718 bound_to 10713
  152.9790  135.5937  154.3961 H   0  0  0  0  0  0  0  0  0  0  0  0  # atno 10763 bound_to 10752
  154.3611  135.2767  155.2321 H   0  0  0  0  0  0  0  0  0  0  0  0  # atno 10764 bound_to 10752
  154.4318  135.6034  153.6128 H   0  0  0  0  0  0  0  0  0  0  0  0  # atno 10765 bound_to 10752
  141.0964  133.6624  156.4137 H   0  0  0  0  0  0  0  0  0  0  0  0  # atno 11005 bound_to 11000
  144.6752  140.1959  143.7392 LP  0  0  0  0  0  0  0  0  0  0  0  0  # atno 17320 bound_to 7965
  145.8564  139.2200  143.1742 LP  0  0  0  0  0  0  0  0  0  0  0  0  # atno 17321 bound_to 7965
  140.7798  143.4809  151.0019 LP  0  0  0  0  0  0  0  0  0  0  0  0  # atno 17342 bound_to 10162
  139.8496  143.7455  152.3178 LP  0  0  0  0  0  0  0  0  0  0  0  0  # atno 17343 bound_to 10162
  156.5722  130.4283  149.6014 LP  0  0  0  0  0  0  0  0  0  0  0  0  # atno 17370 bound_to 10713
  156.2731  130.7028  151.1831 LP  0  0  0  0  0  0  0  0  0  0  0  0  # atno 17371 bound_to 10713
  140.5130  134.6377  157.5291 LP  0  0  0  0  0  0  0  0  0  0  0  0  # atno 17394 bound_to 11000
  139.9801  134.7150  155.9875 LP  0  0  0  0  0  0  0  0  0  0  0  0  # atno 17395 bound_to 11000

$$$$
