AV-unprocessed.smi:26|AV-procd|sdf|184|dock10
  -GOLD-   2262015443D 1   1.00000     0.00000
 Structure written by MMmdl.
 58 61  0  0  0  0  0  0  0  0  1 V2000
  148.0917  141.2056  155.6669 C   0  0  0  0  0  0  0  0  0  0  0  0
  148.6578  140.1037  156.5051 C   0  0  0  0  0  0  0  0  0  0  0  0
  148.0228  139.0173  157.0277 C   0  0  0  0  0  0  0  0  0  0  0  0
  148.9750  138.2343  157.7321 C   0  0  0  0  0  0  0  0  0  0  0  0
  148.7661  136.9740  158.4848 C   0  0  0  0  0  0  0  0  0  0  0  0
  149.6961  136.3013  158.9289 O   0  0  0  0  0  0  0  0  0  0  0  0
  147.3171  136.4972  158.6768 C   0  0  0  0  0  0  0  0  0  0  0  0
  147.2292  135.4816  159.7202 N   0  0  0  0  0  0  0  0  0  0  0  0
  147.0726  135.9089  161.0639 C   0  0  0  0  0  0  0  0  0  0  0  0
  147.0439  137.0995  161.3779 O   0  0  0  0  0  0  0  0  0  0  0  0
  146.9493  134.8279  162.0354 C   0  0  0  0  0  0  0  0  0  0  0  0
  146.8061  135.1196  163.3392 F   0  0  0  0  0  0  0  0  0  0  0  0
  146.9767  133.5349  161.6486 C   0  0  0  0  0  0  0  0  0  0  0  0
  147.1195  133.1448  160.3284 N   0  0  0  0  0  0  0  0  0  0  0  0
  147.1473  131.6827  159.9438 C   0  0  1  0  0  0  0  0  0  0  0  0
  148.5392  131.2954  159.4322 C   0  0  0  0  0  0  0  0  0  0  0  0
  149.1812  130.7192  160.6758 C   0  0  0  0  0  0  0  0  0  0  0  0
  147.9894  130.0586  161.3578 C   0  0  0  0  0  0  0  0  0  0  0  0
  146.8810  130.9086  161.0781 O   0  0  0  0  0  0  0  0  0  0  0  0
  147.2650  134.1224  159.3202 C   0  0  0  0  0  0  0  0  0  0  0  0
  147.4166  133.7951  158.1409 O   0  0  0  0  0  0  0  0  0  0  0  0
  150.1886  138.8736  157.6366 C   0  0  0  0  0  0  0  0  0  0  0  0
  151.5314  138.4710  158.1802 C   0  0  0  0  0  0  0  0  0  0  0  0
  149.9964  140.0428  156.8877 N   0  0  0  0  0  0  0  0  0  0  0  0
  151.0109  141.0379  156.5078 C   0  0  2  0  0  0  0  0  0  0  0  0
  152.1366  140.3892  155.6783 C   0  0  0  0  0  0  0  0  0  0  0  0
  151.4591  141.9043  157.6880 C   0  0  0  0  0  0  0  0  0  0  0  0
  151.2200  143.2961  157.6417 C   0  0  0  0  0  0  0  0  0  0  0  0
  151.6192  144.1286  158.7048 C   0  0  0  0  0  0  0  0  0  0  0  0
  152.2672  143.5772  159.8256 C   0  0  0  0  0  0  0  0  0  0  0  0
  152.5163  142.1933  159.8800 C   0  0  0  0  0  0  0  0  0  0  0  0
  152.1176  141.3603  158.8166 C   0  0  0  0  0  0  0  0  0  0  0  0
  147.0502  141.0047  155.4144 H   0  0  0  0  0  0  0  0  0  0  0  0
  148.6431  141.3108  154.7324 H   0  0  0  0  0  0  0  0  0  0  0  0
  148.1261  142.1572  156.1976 H   0  0  0  0  0  0  0  0  0  0  0  0
  146.9706  138.8045  156.9083 H   0  0  0  0  0  0  0  0  0  0  0  0
  146.6648  137.3235  158.9642 H   0  0  0  0  0  0  0  0  0  0  0  0
  146.8869  136.0995  157.7576 H   0  0  0  0  0  0  0  0  0  0  0  0
  146.8849  132.7803  162.4154 H   0  0  0  0  0  0  0  0  0  0  0  0
  146.3512  131.5388  159.2121 H   0  0  0  0  0  0  0  0  0  0  0  0
  148.4264  130.5249  158.6687 H   0  0  0  0  0  0  0  0  0  0  0  0
  149.0768  132.1424  159.0039 H   0  0  0  0  0  0  0  0  0  0  0  0
  149.9885  130.0199  160.4575 H   0  0  0  0  0  0  0  0  0  0  0  0
  149.5806  131.5188  161.3007 H   0  0  0  0  0  0  0  0  0  0  0  0
  147.7982  129.0778  160.9204 H   0  0  0  0  0  0  0  0  0  0  0  0
  148.1351  129.9305  162.4305 H   0  0  0  0  0  0  0  0  0  0  0  0
  151.7101  138.9347  159.1503 H   0  0  0  0  0  0  0  0  0  0  0  0
  152.3447  138.7491  157.5148 H   0  0  0  0  0  0  0  0  0  0  0  0
  151.6042  137.3918  158.3079 H   0  0  0  0  0  0  0  0  0  0  0  0
  150.5380  141.7587  155.8426 H   0  0  0  0  0  0  0  0  0  0  0  0
  152.8204  141.1425  155.2863 H   0  0  0  0  0  0  0  0  0  0  0  0
  151.7240  139.8538  154.8227 H   0  0  0  0  0  0  0  0  0  0  0  0
  152.7214  139.6728  156.2535 H   0  0  0  0  0  0  0  0  0  0  0  0
  150.7231  143.7294  156.7858 H   0  0  0  0  0  0  0  0  0  0  0  0
  151.4278  145.1904  158.6602 H   0  0  0  0  0  0  0  0  0  0  0  0
  152.5731  144.2148  160.6418 H   0  0  0  0  0  0  0  0  0  0  0  0
  153.0140  141.7690  160.7394 H   0  0  0  0  0  0  0  0  0  0  0  0
  152.3201  140.3028  158.8890 H   0  0  0  0  0  0  0  0  0  0  0  0
  1  2  1  0  0  0  0
  1 33  1  0  0  0  0
  1 34  1  0  0  0  0
  1 35  1  0  0  0  0
  2 24  1  0  0  0  0
  2  3  2  0  0  0  0
  3  4  1  0  0  0  0
  3 36  1  0  0  0  0
  4  5  1  0  0  0  0
  4 22  2  0  0  0  0
  5  6  2  0  0  0  0
  5  7  1  0  0  0  0
  7  8  1  0  0  0  0
  7 37  1  0  0  0  0
  7 38  1  0  0  0  0
  8 20  1  0  0  0  0
  8  9  1  0  0  0  0
  9 10  2  0  0  0  0
  9 11  1  0  0  0  0
 11 12  1  0  0  0  0
 11 13  2  0  0  0  0
 13 14  1  0  0  0  0
 13 39  1  0  0  0  0
 14 15  1  0  0  0  0
 14 20  1  0  0  0  0
 15 19  1  0  0  0  0
 15 16  1  0  0  0  0
 15 40  1  0  0  0  0
 16 17  1  0  0  0  0
 16 41  1  0  0  0  0
 16 42  1  0  0  0  0
 17 18  1  0  0  0  0
 17 43  1  0  0  0  0
 17 44  1  0  0  0  0
 18 19  1  0  0  0  0
 18 45  1  0  0  0  0
 18 46  1  0  0  0  0
 20 21  2  0  0  0  0
 22 23  1  0  0  0  0
 22 24  1  0  0  0  0
 23 47  1  0  0  0  0
 23 48  1  0  0  0  0
 23 49  1  0  0  0  0
 24 25  1  0  0  0  0
 25 26  1  0  0  0  0
 25 27  1  0  0  0  0
 25 50  1  0  0  0  0
 26 51  1  0  0  0  0
 26 52  1  0  0  0  0
 26 53  1  0  0  0  0
 27 32  1  0  0  0  0
 27 28  2  0  0  0  0
 28 29  1  0  0  0  0
 28 54  1  0  0  0  0
 29 30  2  0  0  0  0
 29 55  1  0  0  0  0
 30 31  1  0  0  0  0
 30 56  1  0  0  0  0
 31 32  2  0  0  0  0
 31 57  1  0  0  0  0
 32 58  1  0  0  0  0
M  END
> <s_m_source_file>
AV-unprocessed.smi

> <i_m_source_file_index>
26

> <i_lp_mmshare_version>
43012

> <i_f3d_flags>
0

> <s_epik_input>
W2NIXTFbY0hdW2NIXVtjSF1bY0hdYzFbQ0BASF0oW0NIM10pbjJjKFtDSDNdKWMoW2NIXWMyW0NIM10pQyg9TylbQ0gyXW4zYyg9TyljKEYpW2NIXW4oYzM9TylbQ0BASF00W0NIMl1bQ0gyXVtDSDJdTzQ=

> <s_epik_cmdline>
J2VwaWtfcHl0aG9uJywgJy1waCcsICc3LjAnLCAnLXRuJywgJzgnLCAnLW1hJywgJzIwMCcsICctbWV0YWxfYmluZGluZycsICctaW1hZScsICc8aW5maWxlLm1hZT4nLCAnLW9tYWUnLCAnPG91dGZpbGUubWFlPic=

> <r_lp_tautomer_probability>
1

> <r_epik_Ionization_Penalty>
5.02402e-09

> <r_epik_Ionization_Penalty_Charging>
5.01743e-09

> <r_epik_Ionization_Penalty_Neutral>
6.58831e-12

> <r_epik_State_Penalty>
-0

> <r_epik_Charging_Adjusted_Penalty>
5.01743e-09

> <i_epik_Tot_Q>
0

> <i_epik_Tot_abs_Q>
0

> <r_epik_Metal_State_Penalty>
-0

> <b_epik_Metal_Only>
0

> <s_epik_Chemistry_Notes>
This compound contains an acetal/aminal-like group ( X-CH(R)-Y where X, Y are N, S, or O) that may be acid/base labile, releasing an aldehyde.

> <s_lp_Force_Field>
OPLS_2005

> <r_lp_Energy>
51.2992

> <b_lp_Chiralities_Consistent>
1

> <s_lp_Variant>
AV-unprocessed.smi:26-2

> <Gold.Version>
5.8.1

> <Gold.Id.Protein>
6NUR|6NUR_protein|mol2

> <Gold.PLP.Fitness>
55.4377

> <Gold.PLP.PLP>
-48.6086

> <Gold.PLP.part.hbond>
-3.0000

> <Gold.PLP.part.metal>
0.0000

> <Gold.PLP.part.buried>
-2.2337

> <Gold.PLP.part.nonpolar>
-43.2775

> <Gold.PLP.part.repulsive>
0.0058

> <Gold.PLP.ligand.clash>
0.0000

> <Gold.PLP.ligand.torsion>
0.8648

> <Gold.PLP.Chemscore.Hbond>
2.7600

> <Gold.PLP.Chemscore.CHOScore>
0.0000

> <Gold.PLP.Chemscore.Metal>
0.0000

> <Gold.Chemscore.Hbonds>
donor molecule, donor type, donor heavy atom, donor atom, acceptor molecule, acceptor atom, score
      P1  H  6896  6909       L1     6  1.00
      P1  H  6931  6943       L1    10  0.17
      P1  H  6934  6947       L1    10  1.00

> <Gold.PLP.Chemscore.Internal.Correction>
0.2786

> <Gold.Rescore>
     Score         DG    S(hbond)    S(metal)    S(lipo)     H(rot)  DE(clash)    DE(int)     intcor
     19.74     -24.34       2.68        0.00     124.87       1.84       1.32       3.28       ----

> <Gold.Chemscore.Fitness>
19.7377

> <Gold.Chemscore.DG>
-24.3390

> <Gold.Chemscore.ZeroCoef>
-5.4800

> <Gold.Chemscore.Hbond>
2.6793

> <Gold.Chemscore.Metal>
0.0000

> <Gold.Chemscore.Lipo>
124.8740

> <Gold.Chemscore.Internal_Hbond>
0.0000

> <Gold.Chemscore.DEClash>
1.3236

> <Gold.Chemscore.DEInternal>
3.2777

> <Gold.Chemscore.Rot>
1.8359

> <Gold.Chemscore.Internal.Correction>
   9.000000E+99

> <Gold.Chemscore.Hbonds>
donor molecule, donor type, donor heavy atom, donor atom, acceptor molecule, acceptor atom, score
      P1  H  6896  6909       L1     6  0.97
      P1  H  6931  6943       L1    10  0.18
      P1  H  6934  6947       L1    10  0.96

> <Gold.Chemscore.Hbond.Weighted>
-8.9488

> <Gold.Chemscore.Metal.Weighted>
-0.0000

> <Gold.Chemscore.Lipo.Weighted>
-14.6103

> <Gold.Chemscore.Internal_Hbond.Weighted>
0.0000

> <Gold.Chemscore.DEClash.Weighted>
1.3236

> <Gold.Chemscore.DEInternal.Weighted>
3.2777

> <Gold.Chemscore.Rot.Weighted>
4.7000

> <Gold.Chemscore.Internal.Correction.Weighted>
   9.000000E+99

> <Gold.Protein.RotatedTorsions>
[ 6907 6896 6895 6894 ] final   68.80 input  -60.11 | X-H torsion
[ 7974 7965 7964 7962 ] final  175.70 input  175.53 | X-H torsion
[ 8008 7997 7996 7995 ] final   95.29 input   59.86 | X-H torsion
[ 10167 10162 10161 10158 ] final  -40.58 input  -65.29 | X-H torsion
[ 10718 10713 10712 10709 ] final   84.27 input   66.30 | X-H torsion
[ 10763 10752 10751 10750 ] final    7.38 input  -60.55 | X-H torsion
[ 11005 11000 10999 10996 ] final -111.76 input  -57.11 | X-H torsion

> <Gold.Protein.ActiveResidues>
 VAL166  LYS551  ARG553  GLY616  TRP617  ASP618  TYR619  PRO620  LYS621  CYS622 
 ASP623  PHE694  ASN695  SER759  ASP760  ASP761  ALA762  ILE779  LEU786  VAL792 
 PHE793  MET794  SER795  GLU796  ALA797  LYS798  CYS799  TRP800  GLU811  SER814 

> <Gold.Protein.RotatedAtoms>
  152.4645  134.5108  159.9753 H   0  0  0  0  0  0  0  0  0  0  0  0  # atno 6907 bound_to 6896
  151.5150  133.3471  159.2899 H   0  0  0  0  0  0  0  0  0  0  0  0  # atno 6908 bound_to 6896
  150.8622  134.8006  159.7154 H   0  0  0  0  0  0  0  0  0  0  0  0  # atno 6909 bound_to 6896
  144.7197  139.9986  143.6440 H   0  0  0  0  0  0  0  0  0  0  0  0  # atno 7974 bound_to 7965
  156.0673  140.3288  155.7533 H   0  0  0  0  0  0  0  0  0  0  0  0  # atno 8008 bound_to 7997
  155.5361  140.0597  157.2897 H   0  0  0  0  0  0  0  0  0  0  0  0  # atno 8009 bound_to 7997
  154.4511  140.1919  156.0533 H   0  0  0  0  0  0  0  0  0  0  0  0  # atno 8010 bound_to 7997
  140.7030  143.3145  151.2944 H   0  0  0  0  0  0  0  0  0  0  0  0  # atno 10167 bound_to 10162
  157.6895  131.0126  150.2648 H   0  0  0  0  0  0  0  0  0  0  0  0  # atno 10718 bound_to 10713
  153.2369  135.6899  153.7826 H   0  0  0  0  0  0  0  0  0  0  0  0  # atno 10763 bound_to 10752
  153.6970  135.3303  155.3216 H   0  0  0  0  0  0  0  0  0  0  0  0  # atno 10764 bound_to 10752
  154.8339  135.4559  154.1276 H   0  0  0  0  0  0  0  0  0  0  0  0  # atno 10765 bound_to 10752
  141.0715  133.9372  157.2475 H   0  0  0  0  0  0  0  0  0  0  0  0  # atno 11005 bound_to 11000
  146.0353  139.3372  143.0730 LP  0  0  0  0  0  0  0  0  0  0  0  0  # atno 17320 bound_to 7965
  145.8402  140.9585  143.0803 LP  0  0  0  0  0  0  0  0  0  0  0  0  # atno 17321 bound_to 7965
  139.6579  144.0243  152.2672 LP  0  0  0  0  0  0  0  0  0  0  0  0  # atno 17342 bound_to 10162
  139.9800  144.6435  150.7909 LP  0  0  0  0  0  0  0  0  0  0  0  0  # atno 17343 bound_to 10162
  156.3221  130.3787  149.7566 LP  0  0  0  0  0  0  0  0  0  0  0  0  # atno 17370 bound_to 10713
  156.5132  130.8181  151.3176 LP  0  0  0  0  0  0  0  0  0  0  0  0  # atno 17371 bound_to 10713
  139.9528  135.0172  156.9044 LP  0  0  0  0  0  0  0  0  0  0  0  0  # atno 17394 bound_to 11000
  140.5663  134.0486  155.7415 LP  0  0  0  0  0  0  0  0  0  0  0  0  # atno 17395 bound_to 11000

$$$$
