AV-unprocessed.smi:3351|AV-procd|sdf|12947|dock3
  -GOLD-   2272019383D 1   1.00000     0.00000
 Structure written by MMmdl.
 35 36  0  0  0  0  0  0  0  0  2 V2000
  148.9783  139.4980  156.7999 C   0  0  0  0  0  0  0  0  0  0  0  0
  149.4656  140.8028  156.1558 C   0  0  2  0  0  0  0  0  0  0  0  0
  149.6701  140.6329  154.6340 C   0  0  0  0  0  0  0  0  0  0  0  0
  148.4790  140.1233  153.9457 N   0  0  0  0  0  0  0  0  0  0  0  0
  148.3078  138.8822  153.3884 C   0  0  0  0  0  0  0  0  0  0  0  0
  147.0507  138.8689  152.8417 C   0  0  0  0  0  0  0  0  0  0  0  0
  146.5036  140.0974  153.0987 N   0  3  0  0  0  0  0  0  0  0  0  0
  147.3715  140.8568  153.7751 C   0  0  0  0  0  0  0  0  0  0  0  0
  150.7061  141.2194  156.8094 N   0  0  0  0  0  0  0  0  0  0  0  0
  150.9386  141.2034  158.1316 C   0  0  0  0  0  0  0  0  0  0  0  0
  150.1184  140.8016  158.9582 O   0  0  0  0  0  0  0  0  0  0  0  0
  152.3102  141.7161  158.5844 C   0  0  0  0  0  0  0  0  0  0  0  0
  152.2100  142.9322  159.3922 N   0  0  0  0  0  0  0  0  0  0  0  0
  152.6470  142.9016  160.7815 C   0  0  0  0  0  0  0  0  0  0  0  0
  152.0866  144.1436  161.4780 C   0  0  0  0  0  0  0  0  0  0  0  0
  151.7489  145.3795  160.2076 S   0  0  0  0  0  0  0  0  0  0  0  0
  151.7708  144.1531  158.8970 C   0  0  0  0  0  0  0  0  0  0  0  0
  151.4294  144.4167  157.7455 O   0  0  0  0  0  0  0  0  0  0  0  0
  148.0362  139.1709  156.3592 H   0  0  0  0  0  0  0  0  0  0  0  0
  148.8123  139.6263  157.8701 H   0  0  0  0  0  0  0  0  0  0  0  0
  149.7033  138.6939  156.6686 H   0  0  0  0  0  0  0  0  0  0  0  0
  148.6909  141.5526  156.3268 H   0  0  0  0  0  0  0  0  0  0  0  0
  149.9491  141.5812  154.1725 H   0  0  0  0  0  0  0  0  0  0  0  0
  150.4838  139.9339  154.4350 H   0  0  0  0  0  0  0  0  0  0  0  0
  149.0775  138.1240  153.4090 H   0  0  0  0  0  0  0  0  0  0  0  0
  146.5200  138.0979  152.3023 H   0  0  0  0  0  0  0  0  0  0  0  0
  147.2139  141.8679  154.1058 H   0  0  0  0  0  0  0  0  0  0  0  0
  151.4436  141.5568  156.2074 H   0  0  0  0  0  0  0  0  0  0  0  0
  152.8040  140.9288  159.1553 H   0  0  0  0  0  0  0  0  0  0  0  0
  152.9429  141.9111  157.7166 H   0  0  0  0  0  0  0  0  0  0  0  0
  152.3192  141.9889  161.2809 H   0  0  0  0  0  0  0  0  0  0  0  0
  153.7374  142.9165  160.7999 H   0  0  0  0  0  0  0  0  0  0  0  0
  151.1444  143.9011  161.9701 H   0  0  0  0  0  0  0  0  0  0  0  0
  152.7667  144.5331  162.2358 H   0  0  0  0  0  0  0  0  0  0  0  0
  145.5773  140.3924  152.8164 H   0  0  0  0  0  0  0  0  0  0  0  0
  1  2  1  0  0  0  0
  1 19  1  0  0  0  0
  1 20  1  0  0  0  0
  1 21  1  0  0  0  0
  2  3  1  0  0  0  0
  2  9  1  0  0  0  0
  2 22  1  0  0  0  0
  3  4  1  0  0  0  0
  3 23  1  0  0  0  0
  3 24  1  0  0  0  0
  4  8  1  0  0  0  0
  4  5  1  0  0  0  0
  5  6  2  0  0  0  0
  5 25  1  0  0  0  0
  6  7  1  0  0  0  0
  6 26  1  0  0  0  0
  7  8  2  0  0  0  0
  7 35  1  0  0  0  0
  8 27  1  0  0  0  0
  9 10  1  0  0  0  0
  9 28  1  0  0  0  0
 10 11  2  0  0  0  0
 10 12  1  0  0  0  0
 12 13  1  0  0  0  0
 12 29  1  0  0  0  0
 12 30  1  0  0  0  0
 13 17  1  0  0  0  0
 13 14  1  0  0  0  0
 14 15  1  0  0  0  0
 14 31  1  0  0  0  0
 14 32  1  0  0  0  0
 15 16  1  0  0  0  0
 15 33  1  0  0  0  0
 15 34  1  0  0  0  0
 16 17  1  0  0  0  0
 17 18  2  0  0  0  0
M  CHG  1   7   1
M  END
> <s_m_source_file>
AV-unprocessed.smi

> <i_m_source_file_index>
3351

> <i_lp_mmshare_version>
43012

> <i_f3d_flags>
0

> <s_epik_input>
W2NIXTFuW2NIXVtjSF1uMVtDSDJdW0NAQEhdKFtDSDNdKVtOSF1DKD1PKVtDSDJdTjJbQ0gyXVtDSDJdU0MyPU8=

> <s_epik_cmdline>
J2VwaWtfcHl0aG9uJywgJy1waCcsICc3LjAnLCAnLXRuJywgJzgnLCAnLW1hJywgJzIwMCcsICctbWV0YWxfYmluZGluZycsICctaW1hZScsICc8aW5maWxlLm1hZT4nLCAnLW9tYWUnLCAnPG91dGZpbGUubWFlPic=

> <r_lp_tautomer_probability>
1

> <r_epik_Ionization_Penalty>
0.257312

> <r_epik_Ionization_Penalty_Charging>
0

> <r_epik_Ionization_Penalty_Neutral>
0.257312

> <r_epik_State_Penalty>
0.248897

> <r_epik_Charging_Adjusted_Penalty>
0.248897

> <i_epik_Tot_Q>
1

> <i_epik_Tot_abs_Q>
1

> <r_epik_Metal_State_Penalty>
0.538022

> <b_epik_Metal_Only>
0

> <s_lp_Force_Field>
OPLS_2005

> <r_lp_Energy>
4.24041

> <b_lp_Chiralities_Consistent>
1

> <s_lp_Variant>
AV-unprocessed.smi:3351-1

> <Gold.Version>
5.8.1

> <Gold.Id.Protein>
6NUR|6NUR_protein|mol2

> <Gold.PLP.Fitness>
45.2826

> <Gold.PLP.PLP>
-37.2167

> <Gold.PLP.part.hbond>
-2.1112

> <Gold.PLP.part.metal>
0.0000

> <Gold.PLP.part.buried>
-0.7991

> <Gold.PLP.part.nonpolar>
-34.8019

> <Gold.PLP.part.repulsive>
0.1949

> <Gold.PLP.ligand.clash>
0.0000

> <Gold.PLP.ligand.torsion>
0.3572

> <Gold.PLP.Chemscore.Hbond>
2.0000

> <Gold.PLP.Chemscore.CHOScore>
0.9163

> <Gold.PLP.Chemscore.Metal>
0.0000

> <Gold.Chemscore.Hbonds>
donor molecule, donor type, donor heavy atom, donor atom, acceptor molecule, acceptor atom, score
      L1  H     7    35       P1 10175  2.00
      L1  C     5    25       P1  7948  0.80

> <Gold.PLP.Chemscore.Internal.Correction>
0.0315

> <Gold.Rescore>
     Score         DG    S(hbond)    S(metal)    S(lipo)     H(rot)  DE(clash)    DE(int)     intcor
      8.36     -11.53       0.98        0.00      76.67       2.41       1.78       1.38       ----

> <Gold.Chemscore.Fitness>
8.3632

> <Gold.Chemscore.DG>
-11.5288

> <Gold.Chemscore.ZeroCoef>
-5.4800

> <Gold.Chemscore.Hbond>
0.9757

> <Gold.Chemscore.Metal>
0.0000

> <Gold.Chemscore.Lipo>
76.6665

> <Gold.Chemscore.Internal_Hbond>
0.0000

> <Gold.Chemscore.DEClash>
1.7820

> <Gold.Chemscore.DEInternal>
1.3835

> <Gold.Chemscore.Rot>
2.4141

> <Gold.Chemscore.Internal.Correction>
   9.000000E+99

> <Gold.Chemscore.Hbonds>
donor molecule, donor type, donor heavy atom, donor atom, acceptor molecule, acceptor atom, score
      L1  H     7    35       P1 10175  0.85

> <Gold.Chemscore.Hbond.Weighted>
-3.2588

> <Gold.Chemscore.Metal.Weighted>
-0.0000

> <Gold.Chemscore.Lipo.Weighted>
-8.9700

> <Gold.Chemscore.Internal_Hbond.Weighted>
0.0000

> <Gold.Chemscore.DEClash.Weighted>
1.7820

> <Gold.Chemscore.DEInternal.Weighted>
1.3835

> <Gold.Chemscore.Rot.Weighted>
6.1800

> <Gold.Chemscore.Internal.Correction.Weighted>
   9.000000E+99

> <Gold.Protein.RotatedTorsions>
[ 6907 6896 6895 6894 ] final  -68.90 input  -60.11 | X-H torsion
[ 7974 7965 7964 7962 ] final -127.50 input  175.53 | X-H torsion
[ 8008 7997 7996 7995 ] final  135.44 input   59.86 | X-H torsion
[ 10167 10162 10161 10158 ] final -156.64 input  -65.29 | X-H torsion
[ 10718 10713 10712 10709 ] final  -51.19 input   66.30 | X-H torsion
[ 10763 10752 10751 10750 ] final   50.73 input  -60.55 | X-H torsion
[ 11005 11000 10999 10996 ] final  177.58 input  -57.11 | X-H torsion

> <Gold.Protein.ActiveResidues>
 VAL166  LYS551  ARG553  GLY616  TRP617  ASP618  TYR619  PRO620  LYS621  CYS622 
 ASP623  PHE694  ASN695  SER759  ASP760  ASP761  ALA762  ILE779  LEU786  VAL792 
 PHE793  MET794  SER795  GLU796  ALA797  LYS798  CYS799  TRP800  GLU811  SER814 

> <Gold.Protein.RotatedAtoms>
  150.7332  134.5674  159.5872 H   0  0  0  0  0  0  0  0  0  0  0  0  # atno 6907 bound_to 6896
  152.3121  134.7481  160.0343 H   0  0  0  0  0  0  0  0  0  0  0  0  # atno 6908 bound_to 6896
  151.8025  133.3336  159.3568 H   0  0  0  0  0  0  0  0  0  0  0  0  # atno 6909 bound_to 6896
  144.9765  140.7598  143.4638 H   0  0  0  0  0  0  0  0  0  0  0  0  # atno 7974 bound_to 7965
  156.3003  140.2470  156.3582 H   0  0  0  0  0  0  0  0  0  0  0  0  # atno 8008 bound_to 7997
  154.8901  140.0409  157.1853 H   0  0  0  0  0  0  0  0  0  0  0  0  # atno 8009 bound_to 7997
  154.8606  140.2920  155.5545 H   0  0  0  0  0  0  0  0  0  0  0  0  # atno 8010 bound_to 7997
  139.6834  143.9543  152.2348 H   0  0  0  0  0  0  0  0  0  0  0  0  # atno 10167 bound_to 10162
  156.1732  130.4149  149.9616 H   0  0  0  0  0  0  0  0  0  0  0  0  # atno 10718 bound_to 10713
  152.9784  135.5869  154.4300 H   0  0  0  0  0  0  0  0  0  0  0  0  # atno 10763 bound_to 10752
  154.3914  135.2768  155.2154 H   0  0  0  0  0  0  0  0  0  0  0  0  # atno 10764 bound_to 10752
  154.4025  135.6100  153.5959 H   0  0  0  0  0  0  0  0  0  0  0  0  # atno 10765 bound_to 10752
  140.3856  134.6907  157.4477 H   0  0  0  0  0  0  0  0  0  0  0  0  # atno 11005 bound_to 11000
  145.2483  139.2043  143.4956 LP  0  0  0  0  0  0  0  0  0  0  0  0  # atno 17320 bound_to 7965
  146.3396  140.2391  142.8595 LP  0  0  0  0  0  0  0  0  0  0  0  0  # atno 17321 bound_to 7965
  139.9339  144.6724  150.8335 LP  0  0  0  0  0  0  0  0  0  0  0  0  # atno 17342 bound_to 10162
  140.7659  143.3290  151.2452 LP  0  0  0  0  0  0  0  0  0  0  0  0  # atno 17343 bound_to 10162
  156.7410  130.9079  151.3632 LP  0  0  0  0  0  0  0  0  0  0  0  0  # atno 17370 bound_to 10713
  157.6817  130.9146  150.0284 LP  0  0  0  0  0  0  0  0  0  0  0  0  # atno 17371 bound_to 10713
  140.0445  134.6219  155.8938 LP  0  0  0  0  0  0  0  0  0  0  0  0  # atno 17394 bound_to 11000
  141.1908  133.6570  156.5430 LP  0  0  0  0  0  0  0  0  0  0  0  0  # atno 17395 bound_to 11000

$$$$
