AV-unprocessed.smi:1044|AV-procd|sdf|4543|dock2
  -GOLD-   22720 2573D 1   1.00000     0.00000
 Structure written by MMmdl.
 45 46  0  0  0  0  0  0  0  0  1 V2000
  146.3496  132.6908  150.1739 C   0  0  0  0  0  0  0  0  0  0  0  0
  146.2125  133.2205  151.6034 C   0  0  0  0  0  0  0  0  0  0  0  0
  147.5137  133.4870  152.1176 O   0  0  0  0  0  0  0  0  0  0  0  0
  148.1554  132.5028  152.8453 C   0  0  0  0  0  0  0  0  0  0  0  0
  147.7458  131.2183  152.6948 N   0  0  0  0  0  0  0  0  0  0  0  0
  148.3747  130.2559  153.3997 C   0  0  0  0  0  0  0  0  0  0  0  0
  149.4402  130.5183  154.2798 C   0  0  0  0  0  0  0  0  0  0  0  0
  149.8665  131.8501  154.4388 C   0  0  0  0  0  0  0  0  0  0  0  0
  149.2070  132.8738  153.7156 C   0  0  0  0  0  0  0  0  0  0  0  0
  149.5664  134.2488  153.7823 N   0  0  0  0  0  0  0  0  0  0  0  0
  150.4724  134.8468  154.5745 C   0  0  0  0  0  0  0  0  0  0  0  0
  151.1522  134.2851  155.4331 O   0  0  0  0  0  0  0  0  0  0  0  0
  150.5359  136.1626  154.3254 N   0  0  0  0  0  0  0  0  0  0  0  0
  151.4143  137.1068  155.0086 C   0  0  1  0  0  0  0  0  0  0  0  0
  151.3947  138.4572  154.2791 C   0  0  0  0  0  0  0  0  0  0  0  0
  152.2961  139.4543  155.0154 C   0  0  0  0  0  0  0  0  0  0  0  0
  151.8774  139.6024  156.4883 C   0  0  0  0  0  0  0  0  0  0  0  0
  151.8092  138.2945  157.1723 N   0  0  0  0  0  0  0  0  0  0  0  0
  153.1004  137.7925  158.2255 S   0  0  0  0  0  0  0  0  0  0  0  0
  152.9012  138.8512  159.7160 C   0  0  0  0  0  0  0  0  0  0  0  0
  152.8475  136.3969  158.6150 O   0  0  0  0  0  0  0  0  0  0  0  0
  154.3720  138.1490  157.5779 O   0  0  0  0  0  0  0  0  0  0  0  0
  150.9880  137.2787  156.4829 C   0  0  0  0  0  0  0  0  0  0  0  0
  145.3716  132.4738  149.7441 H   0  0  0  0  0  0  0  0  0  0  0  0
  146.9363  131.7720  150.1511 H   0  0  0  0  0  0  0  0  0  0  0  0
  146.8428  133.4209  149.5317 H   0  0  0  0  0  0  0  0  0  0  0  0
  145.6098  134.1302  151.5995 H   0  0  0  0  0  0  0  0  0  0  0  0
  145.7034  132.4790  152.2213 H   0  0  0  0  0  0  0  0  0  0  0  0
  148.0221  129.2457  153.2529 H   0  0  0  0  0  0  0  0  0  0  0  0
  149.9229  129.7159  154.8178 H   0  0  0  0  0  0  0  0  0  0  0  0
  150.6965  132.0539  155.0973 H   0  0  0  0  0  0  0  0  0  0  0  0
  149.0269  134.8606  153.1872 H   0  0  0  0  0  0  0  0  0  0  0  0
  149.9346  136.5396  153.6076 H   0  0  0  0  0  0  0  0  0  0  0  0
  152.4330  136.7208  154.9673 H   0  0  0  0  0  0  0  0  0  0  0  0
  151.7347  138.3387  153.2497 H   0  0  0  0  0  0  0  0  0  0  0  0
  150.3764  138.8461  154.2320 H   0  0  0  0  0  0  0  0  0  0  0  0
  153.3335  139.1284  154.9512 H   0  0  0  0  0  0  0  0  0  0  0  0
  152.2517  140.4253  154.5214 H   0  0  0  0  0  0  0  0  0  0  0  0
  152.5603  140.2715  157.0111 H   0  0  0  0  0  0  0  0  0  0  0  0
  150.8928  140.0682  156.5408 H   0  0  0  0  0  0  0  0  0  0  0  0
  153.6614  138.5804  160.4479 H   0  0  0  0  0  0  0  0  0  0  0  0
  151.9169  138.6963  160.1541 H   0  0  0  0  0  0  0  0  0  0  0  0
  153.0305  139.8983  159.4462 H   0  0  0  0  0  0  0  0  0  0  0  0
  149.9445  137.5924  156.5320 H   0  0  0  0  0  0  0  0  0  0  0  0
  151.0469  136.3283  157.0136 H   0  0  0  0  0  0  0  0  0  0  0  0
  1  2  1  0  0  0  0
  1 24  1  0  0  0  0
  1 25  1  0  0  0  0
  1 26  1  0  0  0  0
  2  3  1  0  0  0  0
  2 27  1  0  0  0  0
  2 28  1  0  0  0  0
  3  4  1  0  0  0  0
  4  9  1  0  0  0  0
  4  5  2  0  0  0  0
  5  6  1  0  0  0  0
  6  7  2  0  0  0  0
  6 29  1  0  0  0  0
  7  8  1  0  0  0  0
  7 30  1  0  0  0  0
  8  9  2  0  0  0  0
  8 31  1  0  0  0  0
  9 10  1  0  0  0  0
 10 11  1  0  0  0  0
 10 32  1  0  0  0  0
 11 12  2  0  0  0  0
 11 13  1  0  0  0  0
 13 14  1  0  0  0  0
 13 33  1  0  0  0  0
 14 23  1  0  0  0  0
 14 15  1  0  0  0  0
 14 34  1  0  0  0  0
 15 16  1  0  0  0  0
 15 35  1  0  0  0  0
 15 36  1  0  0  0  0
 16 17  1  0  0  0  0
 16 37  1  0  0  0  0
 16 38  1  0  0  0  0
 17 18  1  0  0  0  0
 17 39  1  0  0  0  0
 17 40  1  0  0  0  0
 18 19  1  0  0  0  0
 18 23  1  0  0  0  0
 19 20  1  0  0  0  0
 19 21  2  0  0  0  0
 19 22  2  0  0  0  0
 20 41  1  0  0  0  0
 20 42  1  0  0  0  0
 20 43  1  0  0  0  0
 23 44  1  0  0  0  0
 23 45  1  0  0  0  0
M  END
> <s_m_source_file>
AV-unprocessed.smi

> <i_m_source_file_index>
1044

> <i_lp_mmshare_version>
43012

> <i_f3d_flags>
0

> <s_epik_input>
W0NIM11bQ0gyXU9jMW5bY0hdW2NIXVtjSF1jMVtOSF1DKD1PKVtOSF1bQ0BASF0yW0NIMl1bQ0gyXVtDSDJdTihbQ0gyXTIpUyg9TykoPU8pW0NIM10=

> <s_epik_cmdline>
J2VwaWtfcHl0aG9uJywgJy1waCcsICc3LjAnLCAnLXRuJywgJzgnLCAnLW1hJywgJzIwMCcsICctbWV0YWxfYmluZGluZycsICctaW1hZScsICc8aW5maWxlLm1hZT4nLCAnLW9tYWUnLCAnPG91dGZpbGUubWFlPic=

> <r_lp_tautomer_probability>
1

> <r_epik_Ionization_Penalty>
0.000106941

> <r_epik_Ionization_Penalty_Charging>
0

> <r_epik_Ionization_Penalty_Neutral>
0.000106941

> <r_epik_State_Penalty>
-0

> <r_epik_Charging_Adjusted_Penalty>
0

> <i_epik_Tot_Q>
0

> <i_epik_Tot_abs_Q>
0

> <r_epik_Metal_State_Penalty>
-0

> <b_epik_Metal_Only>
0

> <s_lp_Force_Field>
OPLS_2005

> <r_lp_Energy>
2.58549

> <b_lp_Chiralities_Consistent>
1

> <s_lp_Variant>
AV-unprocessed.smi:1044-2

> <Gold.Version>
5.8.1

> <Gold.Id.Protein>
6NUR|6NUR_protein|mol2

> <Gold.PLP.Fitness>
44.5196

> <Gold.PLP.PLP>
-35.3643

> <Gold.PLP.part.hbond>
-5.2455

> <Gold.PLP.part.metal>
0.0000

> <Gold.PLP.part.buried>
-1.7057

> <Gold.PLP.part.nonpolar>
-28.6567

> <Gold.PLP.part.repulsive>
1.0174

> <Gold.PLP.ligand.clash>
0.0000

> <Gold.PLP.ligand.torsion>
1.6794

> <Gold.PLP.Chemscore.Hbond>
3.4720

> <Gold.PLP.Chemscore.CHOScore>
0.0000

> <Gold.PLP.Chemscore.Metal>
0.0000

> <Gold.Chemscore.Hbonds>
donor molecule, donor type, donor heavy atom, donor atom, acceptor molecule, acceptor atom, score
      L1  H    10    32       P1  7948  0.78
      L1  H    13    33       P1  7948  0.88
      P1  H  6896  6909       L1    21  0.51
      P1  H  7997  8008       L1    22  0.72

> <Gold.PLP.Chemscore.Internal.Correction>
2.0982

> <Gold.Rescore>
     Score         DG    S(hbond)    S(metal)    S(lipo)     H(rot)  DE(clash)    DE(int)     intcor
     15.51     -18.60       2.50        0.00      72.58       1.45       0.09       3.00       ----

> <Gold.Chemscore.Fitness>
15.5061

> <Gold.Chemscore.DG>
-18.5968

> <Gold.Chemscore.ZeroCoef>
-5.4800

> <Gold.Chemscore.Hbond>
2.4998

> <Gold.Chemscore.Metal>
0.0000

> <Gold.Chemscore.Lipo>
72.5814

> <Gold.Chemscore.Internal_Hbond>
0.0000

> <Gold.Chemscore.DEClash>
0.0876

> <Gold.Chemscore.DEInternal>
3.0030

> <Gold.Chemscore.Rot>
1.4549

> <Gold.Chemscore.Internal.Correction>
   9.000000E+99

> <Gold.Chemscore.Hbonds>
donor molecule, donor type, donor heavy atom, donor atom, acceptor molecule, acceptor atom, score
      L1  H    10    32       P1  7948  0.11
      L1  H    13    33       P1  7948  0.19
      P1  H  6896  6909       L1    21  0.51
      P1  H  7997  8008       L1    22  0.70

> <Gold.Chemscore.Hbond.Weighted>
-8.3492

> <Gold.Chemscore.Metal.Weighted>
-0.0000

> <Gold.Chemscore.Lipo.Weighted>
-8.4920

> <Gold.Chemscore.Internal_Hbond.Weighted>
0.0000

> <Gold.Chemscore.DEClash.Weighted>
0.0876

> <Gold.Chemscore.DEInternal.Weighted>
3.0030

> <Gold.Chemscore.Rot.Weighted>
3.7244

> <Gold.Chemscore.Internal.Correction.Weighted>
   9.000000E+99

> <Gold.Protein.RotatedTorsions>
[ 6907 6896 6895 6894 ] final  142.97 input  -60.11 | X-H torsion
[ 7974 7965 7964 7962 ] final  128.24 input  175.53 | X-H torsion
[ 8008 7997 7996 7995 ] final  -96.87 input   59.86 | X-H torsion
[ 10167 10162 10161 10158 ] final  -74.07 input  -65.29 | X-H torsion
[ 10718 10713 10712 10709 ] final -134.04 input   66.30 | X-H torsion
[ 10763 10752 10751 10750 ] final  160.35 input  -60.55 | X-H torsion
[ 11005 11000 10999 10996 ] final -179.08 input  -57.11 | X-H torsion

> <Gold.Protein.ActiveResidues>
 VAL166  LYS551  ARG553  GLY616  TRP617  ASP618  TYR619  PRO620  LYS621  CYS622 
 ASP623  PHE694  ASN695  SER759  ASP760  ASP761  ALA762  ILE779  LEU786  VAL792 
 PHE793  MET794  SER795  GLU796  ALA797  LYS798  CYS799  TRP800  GLU811  SER814 

> <Gold.Protein.RotatedAtoms>
  152.2121  133.4919  159.5115 H   0  0  0  0  0  0  0  0  0  0  0  0  # atno 6907 bound_to 6896
  150.6992  134.1454  159.4129 H   0  0  0  0  0  0  0  0  0  0  0  0  # atno 6908 bound_to 6896
  151.9373  135.0229  160.0584 H   0  0  0  0  0  0  0  0  0  0  0  0  # atno 6909 bound_to 6896
  145.0417  139.3957  143.5098 H   0  0  0  0  0  0  0  0  0  0  0  0  # atno 7974 bound_to 7965
  154.7802  140.0467  157.1121 H   0  0  0  0  0  0  0  0  0  0  0  0  # atno 8008 bound_to 7997
  154.9714  140.3090  155.4967 H   0  0  0  0  0  0  0  0  0  0  0  0  # atno 8009 bound_to 7997
  156.2935  140.2252  156.4807 H   0  0  0  0  0  0  0  0  0  0  0  0  # atno 8010 bound_to 7997
  140.5057  143.2353  151.7677 H   0  0  0  0  0  0  0  0  0  0  0  0  # atno 10167 bound_to 10162
  156.2512  130.7154  151.1054 H   0  0  0  0  0  0  0  0  0  0  0  0  # atno 10718 bound_to 10713
  154.2460  135.2773  155.2835 H   0  0  0  0  0  0  0  0  0  0  0  0  # atno 10763 bound_to 10752
  154.5505  135.5676  153.6921 H   0  0  0  0  0  0  0  0  0  0  0  0  # atno 10764 bound_to 10752
  152.9990  135.6273  154.2605 H   0  0  0  0  0  0  0  0  0  0  0  0  # atno 10765 bound_to 10752
  140.4226  134.6592  157.4672 H   0  0  0  0  0  0  0  0  0  0  0  0  # atno 11005 bound_to 11000
  146.3510  140.0021  142.8675 LP  0  0  0  0  0  0  0  0  0  0  0  0  # atno 17320 bound_to 7965
  145.1639  140.9687  143.4361 LP  0  0  0  0  0  0  0  0  0  0  0  0  # atno 17321 bound_to 7965
  139.4883  144.4460  151.9709 LP  0  0  0  0  0  0  0  0  0  0  0  0  # atno 17342 bound_to 10162
  140.3551  144.3042  150.5942 LP  0  0  0  0  0  0  0  0  0  0  0  0  # atno 17343 bound_to 10162
  157.7215  131.0678  150.6115 LP  0  0  0  0  0  0  0  0  0  0  0  0  # atno 17370 bound_to 10713
  156.6195  130.4402  149.5827 LP  0  0  0  0  0  0  0  0  0  0  0  0  # atno 17371 bound_to 10713
  140.0189  134.6576  155.9268 LP  0  0  0  0  0  0  0  0  0  0  0  0  # atno 17394 bound_to 11000
  141.1778  133.6542  156.4897 LP  0  0  0  0  0  0  0  0  0  0  0  0  # atno 17395 bound_to 11000

$$$$
