AV-unprocessed.smi:283|AV-procd|sdf|2128|dock1
  -GOLD-   2262021433D 1   1.00000     0.00000
 Structure written by MMmdl.
 48 51  0  0  0  0  0  0  0  0  1 V2000
  153.4612  140.1641  160.0782 C   0  0  0  0  0  0  0  0  0  0  0  0
  152.8339  141.0428  158.9877 C   0  0  1  0  0  0  0  0  0  0  0  0
  151.7107  140.3375  158.3745 N   0  0  0  0  0  0  0  0  0  0  0  0
  151.8772  139.1474  157.7556 C   0  0  0  0  0  0  0  0  0  0  0  0
  153.0816  138.9646  157.1657 N   0  0  0  0  0  0  0  0  0  0  0  0
  153.3536  137.8163  156.5429 C   0  0  0  0  0  0  0  0  0  0  0  0
  152.5752  136.7442  156.3981 N   0  0  0  0  0  0  0  0  0  0  0  0
  151.3538  136.9142  156.9829 C   0  0  0  0  0  0  0  0  0  0  0  0
  150.9242  138.0892  157.6678 C   0  0  0  0  0  0  0  0  0  0  0  0
  149.6154  137.9169  158.0986 N   0  0  0  0  0  0  0  0  0  0  0  0
  149.3043  136.7119  157.7131 C   0  0  0  0  0  0  0  0  0  0  0  0
  150.2951  136.0234  157.0499 N   0  0  0  0  0  0  0  0  0  0  0  0
  150.1929  134.6192  156.5139 C   0  0  1  0  0  0  0  0  0  0  0  0
  149.0047  134.0277  156.9482 O   0  0  0  0  0  0  0  0  0  0  0  0
  148.0558  133.9384  155.8816 C   0  0  2  0  0  0  0  0  0  0  0  0
  147.6441  132.4638  155.7084 C   0  0  0  0  0  0  0  0  0  0  0  0
  146.6869  132.2894  154.6834 O   0  0  0  0  0  0  0  0  0  0  0  0
  148.6893  134.5989  154.6448 C   0  0  1  0  0  0  0  0  0  0  0  0
  148.1833  135.9136  154.4941 O   0  0  0  0  0  0  0  0  0  0  0  0
  150.1767  134.5815  154.9754 C   0  0  1  0  0  0  0  0  0  0  0  0
  150.9112  135.6047  154.3241 O   0  0  0  0  0  0  0  0  0  0  0  0
  152.4974  142.4279  159.5487 C   0  0  0  0  0  0  0  0  0  0  0  0
  152.6881  142.7005  160.9238 C   0  0  0  0  0  0  0  0  0  0  0  0
  152.3777  143.9661  161.4555 C   0  0  0  0  0  0  0  0  0  0  0  0
  151.8805  144.9782  160.6153 C   0  0  0  0  0  0  0  0  0  0  0  0
  151.7011  144.7241  159.2433 C   0  0  0  0  0  0  0  0  0  0  0  0
  152.0105  143.4587  158.7055 C   0  0  0  0  0  0  0  0  0  0  0  0
  151.7831  143.2090  157.0095 Cl  0  0  0  0  0  0  0  0  0  0  0  0
  151.0567  134.1150  156.9486 H   0  0  0  0  0  0  0  0  0  0  0  0
  147.1590  134.4807  156.1842 H   0  0  0  0  0  0  0  0  0  0  0  0
  148.4758  134.0564  153.7231 H   0  0  0  0  0  0  0  0  0  0  0  0
  150.5933  133.6188  154.6773 H   0  0  0  0  0  0  0  0  0  0  0  0
  154.3575  140.6291  160.4898 H   0  0  0  0  0  0  0  0  0  0  0  0
  153.7503  139.1908  159.6807 H   0  0  0  0  0  0  0  0  0  0  0  0
  152.7659  139.9955  160.9014 H   0  0  0  0  0  0  0  0  0  0  0  0
  153.5813  141.1513  158.2036 H   0  0  0  0  0  0  0  0  0  0  0  0
  150.8912  140.9062  158.2185 H   0  0  0  0  0  0  0  0  0  0  0  0
  154.3363  137.7432  156.1013 H   0  0  0  0  0  0  0  0  0  0  0  0
  148.3339  136.2820  157.9141 H   0  0  0  0  0  0  0  0  0  0  0  0
  148.5169  131.8437  155.5026 H   0  0  0  0  0  0  0  0  0  0  0  0
  147.2054  132.0959  156.6363 H   0  0  0  0  0  0  0  0  0  0  0  0
  145.9221  132.8019  154.8976 H   0  0  0  0  0  0  0  0  0  0  0  0
  148.2800  136.1664  153.5885 H   0  0  0  0  0  0  0  0  0  0  0  0
  150.3882  135.9444  153.6145 H   0  0  0  0  0  0  0  0  0  0  0  0
  153.0709  141.9362  161.5840 H   0  0  0  0  0  0  0  0  0  0  0  0
  152.5223  144.1602  162.5081 H   0  0  0  0  0  0  0  0  0  0  0  0
  151.6414  145.9501  161.0213 H   0  0  0  0  0  0  0  0  0  0  0  0
  151.3256  145.5059  158.5996 H   0  0  0  0  0  0  0  0  0  0  0  0
  1  2  1  0  0  0  0
  1 33  1  0  0  0  0
  1 34  1  0  0  0  0
  1 35  1  0  0  0  0
  2  3  1  0  0  0  0
  2 22  1  0  0  0  0
  2 36  1  0  0  0  0
  3  4  1  0  0  0  0
  3 37  1  0  0  0  0
  4  9  1  0  0  0  0
  4  5  2  0  0  0  0
  5  6  1  0  0  0  0
  6  7  2  0  0  0  0
  6 38  1  0  0  0  0
  7  8  1  0  0  0  0
  8 12  1  0  0  0  0
  8  9  2  0  0  0  0
  9 10  1  0  0  0  0
 10 11  2  0  0  0  0
 11 12  1  0  0  0  0
 11 39  1  0  0  0  0
 12 13  1  0  0  0  0
 13 29  1  0  0  0  0
 13 20  1  0  0  0  0
 13 14  1  0  0  0  0
 14 15  1  0  0  0  0
 15 30  1  0  0  0  0
 15 16  1  0  0  0  0
 15 18  1  0  0  0  0
 16 17  1  0  0  0  0
 16 40  1  0  0  0  0
 16 41  1  0  0  0  0
 17 42  1  0  0  0  0
 18 31  1  0  0  0  0
 18 19  1  0  0  0  0
 18 20  1  0  0  0  0
 19 43  1  0  0  0  0
 20 32  1  0  0  0  0
 20 21  1  0  0  0  0
 21 44  1  0  0  0  0
 22 27  1  0  0  0  0
 22 23  2  0  0  0  0
 23 24  1  0  0  0  0
 23 45  1  0  0  0  0
 24 25  2  0  0  0  0
 24 46  1  0  0  0  0
 25 26  1  0  0  0  0
 25 47  1  0  0  0  0
 26 27  2  0  0  0  0
 26 48  1  0  0  0  0
 27 28  1  0  0  0  0
M  END
> <s_m_source_file>
AV-unprocessed.smi

> <i_m_source_file_index>
283

> <i_lp_mmshare_version>
43012

> <i_f3d_flags>
0

> <s_epik_input>
Q2xjMVtjSF1bY0hdW2NIXVtjSF1jMVtDQEhdKFtDSDNdKVtOSF1jKG5bY0hdbjIpYyhjMjMpbltjSF1uM1tDQEBIXTRPW0NASF0oW0NIMl1bT0hdKVtDQEBIXShbT0hdKVtDQEhdNFtPSF0=

> <s_epik_cmdline>
J2VwaWtfcHl0aG9uJywgJy1waCcsICc3LjAnLCAnLXRuJywgJzgnLCAnLW1hJywgJzIwMCcsICctbWV0YWxfYmluZGluZycsICctaW1hZScsICc8aW5maWxlLm1hZT4nLCAnLW9tYWUnLCAnPG91dGZpbGUubWFlPic=

> <r_lp_tautomer_probability>
1

> <r_epik_Ionization_Penalty>
0.000266407

> <r_epik_Ionization_Penalty_Charging>
0

> <r_epik_Ionization_Penalty_Neutral>
0.000266407

> <r_epik_State_Penalty>
-0

> <r_epik_Charging_Adjusted_Penalty>
0

> <i_epik_Tot_Q>
0

> <i_epik_Tot_abs_Q>
0

> <r_epik_Metal_State_Penalty>
-0

> <b_epik_Metal_Only>
0

> <s_epik_Chemistry_Notes>
This compound contains an acetal/aminal-like group ( X-CH(R)-Y where X, Y are N, S, or O) that may be acid/base labile, releasing an aldehyde.

> <s_lp_Force_Field>
OPLS_2005

> <r_lp_Energy>
53.7739

> <b_lp_Chiralities_Consistent>
1

> <s_lp_Variant>
AV-unprocessed.smi:283-4

> <Gold.Version>
5.8.1

> <Gold.Id.Protein>
6NUR|6NUR_protein|mol2

> <Gold.PLP.Fitness>
51.7972

> <Gold.PLP.PLP>
-42.1690

> <Gold.PLP.part.hbond>
-5.5661

> <Gold.PLP.part.metal>
0.0000

> <Gold.PLP.part.buried>
-5.1023

> <Gold.PLP.part.nonpolar>
-31.7165

> <Gold.PLP.part.repulsive>
0.1193

> <Gold.PLP.ligand.clash>
0.1118

> <Gold.PLP.ligand.torsion>
0.3710

> <Gold.PLP.Chemscore.Hbond>
3.3656

> <Gold.PLP.Chemscore.CHOScore>
0.0000

> <Gold.PLP.Chemscore.Metal>
0.0000

> <Gold.Chemscore.Hbonds>
donor molecule, donor type, donor heavy atom, donor atom, acceptor molecule, acceptor atom, score
      L1  H    19    43       P1  7948  1.00
      L1  H    21    44       P1  7948  0.10
      P1  H  7997  8008       L1     5  1.00
      P1  H 10752 10765       L1     7  1.00

> <Gold.PLP.Chemscore.Internal.Correction>
0.3851

> <Gold.Rescore>
     Score         DG    S(hbond)    S(metal)    S(lipo)     H(rot)  DE(clash)    DE(int)     intcor
     14.20     -16.11       2.32        0.00     114.15       4.10       0.45       1.45       ----

> <Gold.Chemscore.Fitness>
14.2038

> <Gold.Chemscore.DG>
-16.1053

> <Gold.Chemscore.ZeroCoef>
-5.4800

> <Gold.Chemscore.Hbond>
2.3225

> <Gold.Chemscore.Metal>
0.0000

> <Gold.Chemscore.Lipo>
114.1534

> <Gold.Chemscore.Internal_Hbond>
0.0000

> <Gold.Chemscore.DEClash>
0.4530

> <Gold.Chemscore.DEInternal>
1.4484

> <Gold.Chemscore.Rot>
4.0968

> <Gold.Chemscore.Internal.Correction>
   9.000000E+99

> <Gold.Chemscore.Hbonds>
donor molecule, donor type, donor heavy atom, donor atom, acceptor molecule, acceptor atom, score
      L1  H    19    43       P1  7948  0.99
      P1  H  7997  8008       L1     5  0.34
      P1  H 10752 10765       L1     7  0.82

> <Gold.Chemscore.Hbond.Weighted>
-7.7573

> <Gold.Chemscore.Metal.Weighted>
-0.0000

> <Gold.Chemscore.Lipo.Weighted>
-13.3559

> <Gold.Chemscore.Internal_Hbond.Weighted>
0.0000

> <Gold.Chemscore.DEClash.Weighted>
0.4530

> <Gold.Chemscore.DEInternal.Weighted>
1.4484

> <Gold.Chemscore.Rot.Weighted>
10.4879

> <Gold.Chemscore.Internal.Correction.Weighted>
   9.000000E+99

> <Gold.Protein.RotatedTorsions>
[ 6907 6896 6895 6894 ] final  162.51 input  -60.11 | X-H torsion
[ 7974 7965 7964 7962 ] final -125.90 input  175.53 | X-H torsion
[ 8008 7997 7996 7995 ] final  -50.87 input   59.86 | X-H torsion
[ 10167 10162 10161 10158 ] final  158.98 input  -65.29 | X-H torsion
[ 10718 10713 10712 10709 ] final  135.23 input   66.30 | X-H torsion
[ 10763 10752 10751 10750 ] final -140.86 input  -60.55 | X-H torsion
[ 11005 11000 10999 10996 ] final  -94.16 input  -57.11 | X-H torsion

> <Gold.Protein.ActiveResidues>
 VAL166  LYS551  ARG553  GLY616  TRP617  ASP618  TYR619  PRO620  LYS621  CYS622 
 ASP623  PHE694  ASN695  SER759  ASP760  ASP761  ALA762  ILE779  LEU786  VAL792 
 PHE793  MET794  SER795  GLU796  ALA797  LYS798  CYS799  TRP800  GLU811  SER814 

> <Gold.Protein.RotatedAtoms>
  151.9393  133.3633  159.3959 H   0  0  0  0  0  0  0  0  0  0  0  0  # atno 6907 bound_to 6896
  150.7001  134.4456  159.5321 H   0  0  0  0  0  0  0  0  0  0  0  0  # atno 6908 bound_to 6896
  152.2110  134.8501  160.0548 H   0  0  0  0  0  0  0  0  0  0  0  0  # atno 6909 bound_to 6896
  144.9928  140.7748  143.4544 H   0  0  0  0  0  0  0  0  0  0  0  0  # atno 7974 bound_to 7965
  154.4071  140.1262  156.4736 H   0  0  0  0  0  0  0  0  0  0  0  0  # atno 8008 bound_to 7997
  155.7155  140.3493  155.4973 H   0  0  0  0  0  0  0  0  0  0  0  0  # atno 8009 bound_to 7997
  155.9262  140.1061  157.1158 H   0  0  0  0  0  0  0  0  0  0  0  0  # atno 8010 bound_to 7997
  139.4829  144.4773  151.8493 H   0  0  0  0  0  0  0  0  0  0  0  0  # atno 10167 bound_to 10162
  157.4592  131.1072  150.9940 H   0  0  0  0  0  0  0  0  0  0  0  0  # atno 10718 bound_to 10713
  154.8565  135.3541  154.5775 H   0  0  0  0  0  0  0  0  0  0  0  0  # atno 10763 bound_to 10752
  153.6387  135.6999  153.5254 H   0  0  0  0  0  0  0  0  0  0  0  0  # atno 10764 bound_to 10752
  153.2989  135.4212  155.1194 H   0  0  0  0  0  0  0  0  0  0  0  0  # atno 10765 bound_to 10752
  141.1478  133.7937  157.0260 H   0  0  0  0  0  0  0  0  0  0  0  0  # atno 11005 bound_to 11000
  145.2262  139.2136  143.5067 LP  0  0  0  0  0  0  0  0  0  0  0  0  # atno 17320 bound_to 7965
  146.3435  140.2129  142.8590 LP  0  0  0  0  0  0  0  0  0  0  0  0  # atno 17321 bound_to 7965
  140.4246  144.2197  150.5887 LP  0  0  0  0  0  0  0  0  0  0  0  0  # atno 17342 bound_to 10162
  140.4839  143.2369  151.8915 LP  0  0  0  0  0  0  0  0  0  0  0  0  # atno 17343 bound_to 10162
  157.0744  130.5877  149.5408 LP  0  0  0  0  0  0  0  0  0  0  0  0  # atno 17370 bound_to 10713
  156.0021  130.5102  150.7700 LP  0  0  0  0  0  0  0  0  0  0  0  0  # atno 17371 bound_to 10713
  140.0785  134.9662  157.1585 LP  0  0  0  0  0  0  0  0  0  0  0  0  # atno 17394 bound_to 11000
  140.3610  134.2494  155.7187 LP  0  0  0  0  0  0  0  0  0  0  0  0  # atno 17395 bound_to 11000

$$$$
