AV-unprocessed.smi:166|AV-procd|sdf|1390|dock8
  -GOLD-   2262019123D 1   1.00000     0.00000
 Structure written by MMmdl.
 54 58  0  0  0  0  0  0  0  0  1 V2000
  147.9864  132.2472  152.6590 O   0  0  0  0  0  0  0  0  0  0  0  0
  146.5721  132.2947  152.6156 C   0  0  1  0  0  0  0  0  0  0  0  0
  146.0487  132.9128  153.9357 C   0  0  0  0  0  0  0  0  0  0  0  0
  146.5227  134.2669  154.1824 N   0  0  0  0  0  0  0  0  0  0  0  0
  147.3791  134.6712  155.1824 C   0  0  0  0  0  0  0  0  0  0  0  0
  147.6539  135.9468  155.1994 N   0  0  0  0  0  0  0  0  0  0  0  0
  146.9164  136.4663  154.1426 C   0  0  0  0  0  0  0  0  0  0  0  0
  146.7385  137.7691  153.5971 C   0  0  0  0  0  0  0  0  0  0  0  0
  147.3294  138.8877  154.0662 N   0  0  0  0  0  0  0  0  0  0  0  0
  146.8077  140.1071  153.4568 C   0  0  0  0  0  0  0  0  0  0  0  0
  147.3302  141.3489  154.1977 C   0  0  0  0  0  0  0  0  0  0  0  0
  148.8646  141.3304  154.2859 C   0  0  0  0  0  0  0  0  0  0  0  0
  149.3549  140.0185  154.9233 C   0  0  2  0  0  0  0  0  0  0  0  0
  150.7760  140.0289  154.8836 O   0  0  0  0  0  0  0  0  0  0  0  0
  151.3958  140.4086  156.1028 C   0  0  0  0  0  0  0  0  0  0  0  0
  150.8585  141.7601  156.5215 C   0  0  0  0  0  0  0  0  0  0  0  0
  151.1833  142.3191  157.8883 C   0  0  0  0  0  0  0  0  0  0  0  0
  149.7785  141.8718  157.5738 C   0  0  0  0  0  0  0  0  0  0  0  0
  148.7860  138.8109  154.1496 C   0  0  0  0  0  0  0  0  0  0  0  0
  145.9254  137.9041  152.5212 N   0  0  0  0  0  0  0  0  0  0  0  0
  145.3092  136.8328  152.0122 C   0  0  0  0  0  0  0  0  0  0  0  0
  145.3724  135.5620  152.4165 N   0  0  0  0  0  0  0  0  0  0  0  0
  146.1989  135.4229  153.4928 C   0  0  0  0  0  0  0  0  0  0  0  0
  146.1420  133.1012  151.3891 C   0  0  0  0  0  0  0  0  0  0  0  0
  145.0520  132.2412  150.7630 C   0  0  0  0  0  0  0  0  0  0  0  0
  145.5302  130.9284  150.9919 O   0  0  0  0  0  0  0  0  0  0  0  0
  146.0160  130.8844  152.3263 C   0  0  0  0  0  0  0  0  0  0  0  0
  148.3068  132.0260  151.7979 H   0  0  0  0  0  0  0  0  0  0  0  0
  144.9579  132.9261  153.9410 H   0  0  0  0  0  0  0  0  0  0  0  0
  146.3485  132.2916  154.7807 H   0  0  0  0  0  0  0  0  0  0  0  0
  147.7993  133.9860  155.9041 H   0  0  0  0  0  0  0  0  0  0  0  0
  147.1069  140.1454  152.4084 H   0  0  0  0  0  0  0  0  0  0  0  0
  145.7169  140.0962  153.4787 H   0  0  0  0  0  0  0  0  0  0  0  0
  146.9937  142.2544  153.6922 H   0  0  0  0  0  0  0  0  0  0  0  0
  146.9082  141.3789  155.2030 H   0  0  0  0  0  0  0  0  0  0  0  0
  149.2875  141.4341  153.2857 H   0  0  0  0  0  0  0  0  0  0  0  0
  149.2174  142.1846  154.8646 H   0  0  0  0  0  0  0  0  0  0  0  0
  149.0136  139.9894  155.9599 H   0  0  0  0  0  0  0  0  0  0  0  0
  151.1953  139.6730  156.8834 H   0  0  0  0  0  0  0  0  0  0  0  0
  152.4762  140.4873  155.9851 H   0  0  0  0  0  0  0  0  0  0  0  0
  150.8236  142.4880  155.7129 H   0  0  0  0  0  0  0  0  0  0  0  0
  151.7681  141.6988  158.5648 H   0  0  0  0  0  0  0  0  0  0  0  0
  151.3659  143.3893  157.9623 H   0  0  0  0  0  0  0  0  0  0  0  0
  149.0230  142.6427  157.4367 H   0  0  0  0  0  0  0  0  0  0  0  0
  149.4269  140.9533  158.0393 H   0  0  0  0  0  0  0  0  0  0  0  0
  149.0668  137.8761  154.6353 H   0  0  0  0  0  0  0  0  0  0  0  0
  149.2121  138.7929  153.1464 H   0  0  0  0  0  0  0  0  0  0  0  0
  144.6740  137.0206  151.1590 H   0  0  0  0  0  0  0  0  0  0  0  0
  145.7955  134.1074  151.6271 H   0  0  0  0  0  0  0  0  0  0  0  0
  146.9641  133.1984  150.6778 H   0  0  0  0  0  0  0  0  0  0  0  0
  144.0971  132.3826  151.2722 H   0  0  0  0  0  0  0  0  0  0  0  0
  144.9126  132.4422  149.7007 H   0  0  0  0  0  0  0  0  0  0  0  0
  146.7526  130.0899  152.4519 H   0  0  0  0  0  0  0  0  0  0  0  0
  145.1692  130.6521  152.9721 H   0  0  0  0  0  0  0  0  0  0  0  0
  1  2  1  0  0  0  0
  1 28  1  0  0  0  0
  2 27  1  0  0  0  0
  2  3  1  0  0  0  0
  2 24  1  0  0  0  0
  3  4  1  0  0  0  0
  3 29  1  0  0  0  0
  3 30  1  0  0  0  0
  4 23  1  0  0  0  0
  4  5  1  0  0  0  0
  5  6  2  0  0  0  0
  5 31  1  0  0  0  0
  6  7  1  0  0  0  0
  7 23  2  0  0  0  0
  7  8  1  0  0  0  0
  8  9  1  0  0  0  0
  8 20  2  0  0  0  0
  9 19  1  0  0  0  0
  9 10  1  0  0  0  0
 10 11  1  0  0  0  0
 10 32  1  0  0  0  0
 10 33  1  0  0  0  0
 11 12  1  0  0  0  0
 11 34  1  0  0  0  0
 11 35  1  0  0  0  0
 12 13  1  0  0  0  0
 12 36  1  0  0  0  0
 12 37  1  0  0  0  0
 13 14  1  0  0  0  0
 13 19  1  0  0  0  0
 13 38  1  0  0  0  0
 14 15  1  0  0  0  0
 15 16  1  0  0  0  0
 15 39  1  0  0  0  0
 15 40  1  0  0  0  0
 16 18  1  0  0  0  0
 16 17  1  0  0  0  0
 16 41  1  0  0  0  0
 17 18  1  0  0  0  0
 17 42  1  0  0  0  0
 17 43  1  0  0  0  0
 18 44  1  0  0  0  0
 18 45  1  0  0  0  0
 19 46  1  0  0  0  0
 19 47  1  0  0  0  0
 20 21  1  0  0  0  0
 21 22  2  0  0  0  0
 21 48  1  0  0  0  0
 22 23  1  0  0  0  0
 24 25  1  0  0  0  0
 24 49  1  0  0  0  0
 24 50  1  0  0  0  0
 25 26  1  0  0  0  0
 25 51  1  0  0  0  0
 25 52  1  0  0  0  0
 26 27  1  0  0  0  0
 27 53  1  0  0  0  0
 27 54  1  0  0  0  0
M  END
> <s_m_source_file>
AV-unprocessed.smi

> <i_m_source_file_index>
166

> <i_lp_mmshare_version>
43012

> <i_f3d_flags>
0

> <s_epik_input>
W0NIMl0xT1tDSDJdW0NIMl1bQ0BAXTEoW09IXSlbQ0gyXW4oW2NIXW4yKWMoYzIzKW5bY0hdbmMzTjRbQ0gyXVtDSDJdW0NIMl1bQ0BIXShbQ0gyXTQpT1tDSDJdW0NIXTVbQ0gyXVtDSDJdNQ==

> <s_epik_cmdline>
J2VwaWtfcHl0aG9uJywgJy1waCcsICc3LjAnLCAnLXRuJywgJzgnLCAnLW1hJywgJzIwMCcsICctbWV0YWxfYmluZGluZycsICctaW1hZScsICc8aW5maWxlLm1hZT4nLCAnLW9tYWUnLCAnPG91dGZpbGUubWFlPic=

> <r_lp_tautomer_probability>
1

> <r_epik_Ionization_Penalty>
0.00342552

> <r_epik_Ionization_Penalty_Charging>
0

> <r_epik_Ionization_Penalty_Neutral>
0.00342552

> <r_epik_State_Penalty>
0.0022204

> <r_epik_Charging_Adjusted_Penalty>
0.0022204

> <i_epik_Tot_Q>
0

> <i_epik_Tot_abs_Q>
0

> <r_epik_Metal_State_Penalty>
-0

> <b_epik_Metal_Only>
0

> <s_lp_Force_Field>
OPLS_2005

> <r_lp_Energy>
47.3104

> <b_lp_Chiralities_Consistent>
1

> <s_lp_Variant>
AV-unprocessed.smi:166-3

> <Gold.Version>
5.8.1

> <Gold.Id.Protein>
6NUR|6NUR_protein|mol2

> <Gold.PLP.Fitness>
44.4337

> <Gold.PLP.PLP>
-36.6926

> <Gold.PLP.part.hbond>
-2.0000

> <Gold.PLP.part.metal>
0.0000

> <Gold.PLP.part.buried>
-2.9393

> <Gold.PLP.part.nonpolar>
-32.6602

> <Gold.PLP.part.repulsive>
0.8063

> <Gold.PLP.ligand.clash>
0.0000

> <Gold.PLP.ligand.torsion>
1.0347

> <Gold.PLP.Chemscore.Hbond>
2.0000

> <Gold.PLP.Chemscore.CHOScore>
1.0000

> <Gold.PLP.Chemscore.Metal>
0.0000

> <Gold.Chemscore.Hbonds>
donor molecule, donor type, donor heavy atom, donor atom, acceptor molecule, acceptor atom, score
      L1  H     1    28       P1 10747  1.00
      P1  H  7989  7998       L1    14  1.00
      L1  C    21    48       P1 10171  1.00

> <Gold.PLP.Chemscore.Internal.Correction>
0.8105

> <Gold.Rescore>
     Score         DG    S(hbond)    S(metal)    S(lipo)     H(rot)  DE(clash)    DE(int)     intcor
     12.39     -15.32       1.86        0.00      89.64       2.68       0.42       2.51       ----

> <Gold.Chemscore.Fitness>
12.3889

> <Gold.Chemscore.DG>
-15.3205

> <Gold.Chemscore.ZeroCoef>
-5.4800

> <Gold.Chemscore.Hbond>
1.8616

> <Gold.Chemscore.Metal>
0.0000

> <Gold.Chemscore.Lipo>
89.6401

> <Gold.Chemscore.Internal_Hbond>
0.0000

> <Gold.Chemscore.DEClash>
0.4198

> <Gold.Chemscore.DEInternal>
2.5119

> <Gold.Chemscore.Rot>
2.6817

> <Gold.Chemscore.Internal.Correction>
   9.000000E+99

> <Gold.Chemscore.Hbonds>
donor molecule, donor type, donor heavy atom, donor atom, acceptor molecule, acceptor atom, score
      L1  H     1    28       P1 10747  0.93
      P1  H  7989  7998       L1    14  0.68

> <Gold.Chemscore.Hbond.Weighted>
-6.2177

> <Gold.Chemscore.Metal.Weighted>
-0.0000

> <Gold.Chemscore.Lipo.Weighted>
-10.4879

> <Gold.Chemscore.Internal_Hbond.Weighted>
0.0000

> <Gold.Chemscore.DEClash.Weighted>
0.4198

> <Gold.Chemscore.DEInternal.Weighted>
2.5119

> <Gold.Chemscore.Rot.Weighted>
6.8651

> <Gold.Chemscore.Internal.Correction.Weighted>
   9.000000E+99

> <Gold.Protein.RotatedTorsions>
[ 6907 6896 6895 6894 ] final  -46.41 input  -60.11 | X-H torsion
[ 7974 7965 7964 7962 ] final    1.39 input  175.53 | X-H torsion
[ 8008 7997 7996 7995 ] final   85.02 input   59.86 | X-H torsion
[ 10167 10162 10161 10158 ] final -167.62 input  -65.29 | X-H torsion
[ 10718 10713 10712 10709 ] final   58.47 input   66.30 | X-H torsion
[ 10763 10752 10751 10750 ] final  -47.86 input  -60.55 | X-H torsion
[ 11005 11000 10999 10996 ] final   89.25 input  -57.11 | X-H torsion

> <Gold.Protein.ActiveResidues>
 VAL166  LYS551  ARG553  GLY616  TRP617  ASP618  TYR619  PRO620  LYS621  CYS622 
 ASP623  PHE694  ASN695  SER759  ASP760  ASP761  ALA762  ILE779  LEU786  VAL792 
 PHE793  MET794  SER795  GLU796  ALA797  LYS798  CYS799  TRP800  GLU811  SER814 

> <Gold.Protein.RotatedAtoms>
  150.9116  134.8533  159.7428 H   0  0  0  0  0  0  0  0  0  0  0  0  # atno 6907 bound_to 6896
  152.4947  134.4351  159.9535 H   0  0  0  0  0  0  0  0  0  0  0  0  # atno 6908 bound_to 6896
  151.4392  133.3608  159.2814 H   0  0  0  0  0  0  0  0  0  0  0  0  # atno 6909 bound_to 6896
  146.2440  140.0993  142.8348 H   0  0  0  0  0  0  0  0  0  0  0  0  # atno 7974 bound_to 7965
  155.9446  140.3405  155.6356 H   0  0  0  0  0  0  0  0  0  0  0  0  # atno 8008 bound_to 7997
  155.6996  140.0758  157.2434 H   0  0  0  0  0  0  0  0  0  0  0  0  # atno 8009 bound_to 7997
  154.4109  140.1642  156.2164 H   0  0  0  0  0  0  0  0  0  0  0  0  # atno 8010 bound_to 7997
  139.6037  144.0956  152.1771 H   0  0  0  0  0  0  0  0  0  0  0  0  # atno 10167 bound_to 10162
  157.5598  130.8827  149.9093 H   0  0  0  0  0  0  0  0  0  0  0  0  # atno 10718 bound_to 10713
  154.0683  135.6608  153.4821 H   0  0  0  0  0  0  0  0  0  0  0  0  # atno 10763 bound_to 10752
  153.0400  135.5151  154.7591 H   0  0  0  0  0  0  0  0  0  0  0  0  # atno 10764 bound_to 10752
  154.6649  135.3020  154.9785 H   0  0  0  0  0  0  0  0  0  0  0  0  # atno 10765 bound_to 10752
  139.8879  134.8539  156.3115 H   0  0  0  0  0  0  0  0  0  0  0  0  # atno 11005 bound_to 11000
  145.0582  140.9068  143.4954 LP  0  0  0  0  0  0  0  0  0  0  0  0  # atno 17320 bound_to 7965
  145.1104  139.2761  143.5640 LP  0  0  0  0  0  0  0  0  0  0  0  0  # atno 17321 bound_to 7965
  140.0559  144.5896  150.7300 LP  0  0  0  0  0  0  0  0  0  0  0  0  # atno 17342 bound_to 10162
  140.7269  143.2646  151.4088 LP  0  0  0  0  0  0  0  0  0  0  0  0  # atno 17343 bound_to 10162
  156.0652  130.3693  150.0894 LP  0  0  0  0  0  0  0  0  0  0  0  0  # atno 17370 bound_to 10713
  156.9059  130.9635  151.3570 LP  0  0  0  0  0  0  0  0  0  0  0  0  # atno 17371 bound_to 10713
  140.9847  133.7245  156.0724 LP  0  0  0  0  0  0  0  0  0  0  0  0  # atno 17394 bound_to 11000
  140.7703  134.3839  157.5509 LP  0  0  0  0  0  0  0  0  0  0  0  0  # atno 17395 bound_to 11000

$$$$
