AV-unprocessed.smi:1418|AV-procd|sdf|5773|dock4
  -GOLD-   22720 5413D 1   1.00000     0.00000
 Structure written by MMmdl.
 39 41  0  0  0  0  0  0  0  0  1 V2000
  149.2781  141.7198  153.6476 O   0  0  0  0  0  0  0  0  0  0  0  0
  148.4292  140.8443  153.8140 C   0  0  0  0  0  0  0  0  0  0  0  0
  148.8605  139.4047  154.0966 C   0  0  0  0  0  0  0  0  0  0  0  0
  150.1345  139.3950  154.8934 C   0  0  0  0  0  0  0  0  0  0  0  0
  151.2028  138.5440  154.7376 C   0  0  0  0  0  0  0  0  0  0  0  0
  152.4770  138.8761  155.8774 S   0  0  0  0  0  0  0  0  0  0  0  0
  151.5019  140.1956  156.5312 C   0  0  0  0  0  0  0  0  0  0  0  0
  151.8683  141.0705  157.5974 N   0  0  0  0  0  0  0  0  0  0  0  0
  151.1549  142.3198  157.8463 C   0  0  0  0  0  0  0  0  0  0  0  0
  151.9704  143.0672  158.9069 C   0  0  0  0  0  0  0  0  0  0  0  0
  152.9257  142.0279  159.4889 C   0  0  0  0  0  0  0  0  0  0  0  0
  152.8474  140.8772  158.4988 C   0  0  0  0  0  0  0  0  0  0  0  0
  153.6116  139.9159  158.5706 O   0  0  0  0  0  0  0  0  0  0  0  0
  150.3232  140.3329  155.9140 N   0  0  0  0  0  0  0  0  0  0  0  0
  147.1072  141.0761  153.7853 N   0  0  0  0  0  0  0  0  0  0  0  0
  146.4823  142.3849  153.6389 C   0  0  0  0  0  0  0  0  0  0  0  0
  145.5421  142.6715  154.8071 C   0  0  0  0  0  0  0  0  0  0  0  0
  144.8029  144.0160  154.8755 C   0  0  0  0  0  0  0  0  0  0  0  0
  144.9352  143.9603  156.3998 C   0  0  0  0  0  0  0  0  0  0  0  0
  146.1133  143.0050  156.1947 C   0  0  0  0  0  0  0  0  0  0  0  0
  148.0698  138.8788  154.6333 H   0  0  0  0  0  0  0  0  0  0  0  0
  148.9873  138.8820  153.1476 H   0  0  0  0  0  0  0  0  0  0  0  0
  151.3130  137.7376  154.0277 H   0  0  0  0  0  0  0  0  0  0  0  0
  151.0547  142.9134  156.9365 H   0  0  0  0  0  0  0  0  0  0  0  0
  150.1539  142.0934  158.2162 H   0  0  0  0  0  0  0  0  0  0  0  0
  152.5392  143.8744  158.4434 H   0  0  0  0  0  0  0  0  0  0  0  0
  151.3317  143.5114  159.6710 H   0  0  0  0  0  0  0  0  0  0  0  0
  153.9433  142.4090  159.5792 H   0  0  0  0  0  0  0  0  0  0  0  0
  152.5914  141.6851  160.4684 H   0  0  0  0  0  0  0  0  0  0  0  0
  146.4873  140.2915  153.9250 H   0  0  0  0  0  0  0  0  0  0  0  0
  147.2376  143.1668  153.5441 H   0  0  0  0  0  0  0  0  0  0  0  0
  145.9257  142.3872  152.7015 H   0  0  0  0  0  0  0  0  0  0  0  0
  144.8089  141.8693  154.9165 H   0  0  0  0  0  0  0  0  0  0  0  0
  145.3715  144.8361  154.4338 H   0  0  0  0  0  0  0  0  0  0  0  0
  143.7778  143.9926  154.5047 H   0  0  0  0  0  0  0  0  0  0  0  0
  145.1922  144.9089  156.8717 H   0  0  0  0  0  0  0  0  0  0  0  0
  144.0820  143.4822  156.8832 H   0  0  0  0  0  0  0  0  0  0  0  0
  146.1488  142.1627  156.8864 H   0  0  0  0  0  0  0  0  0  0  0  0
  147.0717  143.5245  156.1457 H   0  0  0  0  0  0  0  0  0  0  0  0
  1  2  2  0  0  0  0
  2  3  1  0  0  0  0
  2 15  1  0  0  0  0
  3  4  1  0  0  0  0
  3 21  1  0  0  0  0
  3 22  1  0  0  0  0
  4 14  1  0  0  0  0
  4  5  2  0  0  0  0
  5  6  1  0  0  0  0
  5 23  1  0  0  0  0
  6  7  1  0  0  0  0
  7  8  1  0  0  0  0
  7 14  2  0  0  0  0
  8 12  1  0  0  0  0
  8  9  1  0  0  0  0
  9 10  1  0  0  0  0
  9 24  1  0  0  0  0
  9 25  1  0  0  0  0
 10 11  1  0  0  0  0
 10 26  1  0  0  0  0
 10 27  1  0  0  0  0
 11 12  1  0  0  0  0
 11 28  1  0  0  0  0
 11 29  1  0  0  0  0
 12 13  2  0  0  0  0
 15 16  1  0  0  0  0
 15 30  1  0  0  0  0
 16 17  1  0  0  0  0
 16 31  1  0  0  0  0
 16 32  1  0  0  0  0
 17 20  1  0  0  0  0
 17 18  1  0  0  0  0
 17 33  1  0  0  0  0
 18 19  1  0  0  0  0
 18 34  1  0  0  0  0
 18 35  1  0  0  0  0
 19 20  1  0  0  0  0
 19 36  1  0  0  0  0
 19 37  1  0  0  0  0
 20 38  1  0  0  0  0
 20 39  1  0  0  0  0
M  END
> <s_m_source_file>
AV-unprocessed.smi

> <i_m_source_file_index>
1418

> <i_lp_mmshare_version>
43012

> <i_f3d_flags>
0

> <s_epik_input>
W0NIMl0xW0NIMl1bQ0gyXVtDSF0xW0NIMl1bTkhdQyg9TylbQ0gyXWMyW2NIXXNjKG4yKU4zW0NIMl1bQ0gyXVtDSDJdQzM9Tw==

> <s_epik_cmdline>
J2VwaWtfcHl0aG9uJywgJy1waCcsICc3LjAnLCAnLXRuJywgJzgnLCAnLW1hJywgJzIwMCcsICctbWV0YWxfYmluZGluZycsICctaW1hZScsICc8aW5maWxlLm1hZT4nLCAnLW9tYWUnLCAnPG91dGZpbGUubWFlPic=

> <r_lp_tautomer_probability>
1

> <r_epik_Ionization_Penalty>
2.96456e-05

> <r_epik_Ionization_Penalty_Charging>
0

> <r_epik_Ionization_Penalty_Neutral>
2.96456e-05

> <r_epik_State_Penalty>
-0

> <r_epik_Charging_Adjusted_Penalty>
0

> <i_epik_Tot_Q>
0

> <i_epik_Tot_abs_Q>
0

> <r_epik_Metal_State_Penalty>
-0

> <b_epik_Metal_Only>
0

> <s_lp_Force_Field>
OPLS_2005

> <r_lp_Energy>
26.2197

> <b_lp_Chiralities_Consistent>
1

> <s_lp_Variant>
AV-unprocessed.smi:1418-1

> <Gold.Version>
5.8.1

> <Gold.Id.Protein>
6NUR|6NUR_protein|mol2

> <Gold.PLP.Fitness>
41.8941

> <Gold.PLP.PLP>
-38.6117

> <Gold.PLP.part.hbond>
-2.8357

> <Gold.PLP.part.metal>
0.0000

> <Gold.PLP.part.buried>
-1.6202

> <Gold.PLP.part.nonpolar>
-32.5657

> <Gold.PLP.part.repulsive>
0.2883

> <Gold.PLP.ligand.clash>
0.0000

> <Gold.PLP.ligand.torsion>
0.8089

> <Gold.PLP.Chemscore.Hbond>
1.6080

> <Gold.PLP.Chemscore.CHOScore>
0.0000

> <Gold.PLP.Chemscore.Metal>
0.0000

> <Gold.Chemscore.Hbonds>
donor molecule, donor type, donor heavy atom, donor atom, acceptor molecule, acceptor atom, score
      P1  H  7997  8010       L1    13  1.00
      P1  H  8011  8017       L1     1  0.67

> <Gold.PLP.Chemscore.Internal.Correction>
0.0762

> <Gold.Rescore>
     Score         DG    S(hbond)    S(metal)    S(lipo)     H(rot)  DE(clash)    DE(int)     intcor
     12.65     -15.48       1.58        0.00      75.56       1.60       0.26       2.57       ----

> <Gold.Chemscore.Fitness>
12.6462

> <Gold.Chemscore.DG>
-15.4788

> <Gold.Chemscore.ZeroCoef>
-5.4800

> <Gold.Chemscore.Hbond>
1.5759

> <Gold.Chemscore.Metal>
0.0000

> <Gold.Chemscore.Lipo>
75.5637

> <Gold.Chemscore.Internal_Hbond>
0.0000

> <Gold.Chemscore.DEClash>
0.2636

> <Gold.Chemscore.DEInternal>
2.5690

> <Gold.Chemscore.Rot>
1.6038

> <Gold.Chemscore.Internal.Correction>
   9.000000E+99

> <Gold.Chemscore.Hbonds>
donor molecule, donor type, donor heavy atom, donor atom, acceptor molecule, acceptor atom, score
      P1  H  7997  8010       L1    13  0.71
      P1  H  8011  8017       L1     1  0.66

> <Gold.Chemscore.Hbond.Weighted>
-5.2634

> <Gold.Chemscore.Metal.Weighted>
-0.0000

> <Gold.Chemscore.Lipo.Weighted>
-8.8410

> <Gold.Chemscore.Internal_Hbond.Weighted>
0.0000

> <Gold.Chemscore.DEClash.Weighted>
0.2636

> <Gold.Chemscore.DEInternal.Weighted>
2.5690

> <Gold.Chemscore.Rot.Weighted>
4.1056

> <Gold.Chemscore.Internal.Correction.Weighted>
   9.000000E+99

> <Gold.Protein.RotatedTorsions>
[ 6907 6896 6895 6894 ] final   32.74 input  -60.11 | X-H torsion
[ 7974 7965 7964 7962 ] final   14.55 input  175.53 | X-H torsion
[ 8008 7997 7996 7995 ] final   13.51 input   59.86 | X-H torsion
[ 10167 10162 10161 10158 ] final   93.10 input  -65.29 | X-H torsion
[ 10718 10713 10712 10709 ] final  -76.19 input   66.30 | X-H torsion
[ 10763 10752 10751 10750 ] final  -70.31 input  -60.55 | X-H torsion
[ 11005 11000 10999 10996 ] final   61.07 input  -57.11 | X-H torsion

> <Gold.Protein.ActiveResidues>
 VAL166  LYS551  ARG553  GLY616  TRP617  ASP618  TYR619  PRO620  LYS621  CYS622 
 ASP623  PHE694  ASN695  SER759  ASP760  ASP761  ALA762  ILE779  LEU786  VAL792 
 PHE793  MET794  SER795  GLU796  ALA797  LYS798  CYS799  TRP800  GLU811  SER814 

> <Gold.Protein.RotatedAtoms>
  152.0786  134.9486  160.0573 H   0  0  0  0  0  0  0  0  0  0  0  0  # atno 6907 bound_to 6896
  152.0783  133.4135  159.4498 H   0  0  0  0  0  0  0  0  0  0  0  0  # atno 6908 bound_to 6896
  150.6836  134.2931  159.4718 H   0  0  0  0  0  0  0  0  0  0  0  0  # atno 6909 bound_to 6896
  146.2302  139.9024  142.8537 H   0  0  0  0  0  0  0  0  0  0  0  0  # atno 7974 bound_to 7965
  154.8355  140.2906  155.5694 H   0  0  0  0  0  0  0  0  0  0  0  0  # atno 8008 bound_to 7997
  156.3008  140.2524  156.3219 H   0  0  0  0  0  0  0  0  0  0  0  0  # atno 8009 bound_to 7997
  154.9184  140.0386  157.1973 H   0  0  0  0  0  0  0  0  0  0  0  0  # atno 8010 bound_to 7997
  139.8212  144.6730  150.9516 H   0  0  0  0  0  0  0  0  0  0  0  0  # atno 10167 bound_to 10162
  156.0183  130.4459  150.3156 H   0  0  0  0  0  0  0  0  0  0  0  0  # atno 10718 bound_to 10713
  154.4158  135.5998  153.5980 H   0  0  0  0  0  0  0  0  0  0  0  0  # atno 10763 bound_to 10752
  152.9792  135.5940  154.4015 H   0  0  0  0  0  0  0  0  0  0  0  0  # atno 10764 bound_to 10752
  154.3833  135.2841  155.2176 H   0  0  0  0  0  0  0  0  0  0  0  0  # atno 10765 bound_to 10752
  140.0187  134.6186  155.9671 H   0  0  0  0  0  0  0  0  0  0  0  0  # atno 11005 bound_to 11000
  145.2310  140.9973  143.3991 LP  0  0  0  0  0  0  0  0  0  0  0  0  # atno 17320 bound_to 7965
  144.9531  139.4061  143.6393 LP  0  0  0  0  0  0  0  0  0  0  0  0  # atno 17321 bound_to 7965
  140.7813  143.4089  151.1025 LP  0  0  0  0  0  0  0  0  0  0  0  0  # atno 17342 bound_to 10162
  139.7750  143.8439  152.3127 LP  0  0  0  0  0  0  0  0  0  0  0  0  # atno 17343 bound_to 10162
  157.1257  131.0258  151.2990 LP  0  0  0  0  0  0  0  0  0  0  0  0  # atno 17370 bound_to 10713
  157.4591  130.7643  149.7220 LP  0  0  0  0  0  0  0  0  0  0  0  0  # atno 17371 bound_to 10713
  141.1760  133.6540  156.4829 LP  0  0  0  0  0  0  0  0  0  0  0  0  # atno 17394 bound_to 11000
  140.4425  134.7002  157.4999 LP  0  0  0  0  0  0  0  0  0  0  0  0  # atno 17395 bound_to 11000

$$$$
