AV-unprocessed.smi:840|AV-procd|sdf|3913|dock2
  -GOLD-   22720 1373D 1   1.00000     0.00000
 Structure written by MMmdl.
 36 37  0  0  0  0  0  0  0  0  2 V2000
  151.4263  139.0339  156.1486 C   0  0  0  0  0  0  0  0  0  0  0  0
  151.6692  138.7036  157.6306 C   0  0  2  0  0  0  0  0  0  0  0  0
  150.3681  138.5879  158.2888 N   0  0  0  0  0  0  0  0  0  0  0  0
  149.8336  137.4628  158.7881 C   0  0  0  0  0  0  0  0  0  0  0  0
  150.4555  136.4002  158.7118 O   0  0  0  0  0  0  0  0  0  0  0  0
  148.6121  137.6388  159.3414 N   0  5  0  0  0  0  0  0  0  0  0  0
  148.1574  136.7686  160.2576 C   0  0  0  0  0  0  0  0  0  0  0  0
  147.7492  137.1405  161.4764 N   0  0  0  0  0  0  0  0  0  0  0  0
  147.3078  136.0752  162.2632 C   0  0  0  0  0  0  0  0  0  0  0  0
  147.3736  134.8645  161.6260 C   0  0  0  0  0  0  0  0  0  0  0  0
  147.9967  135.0276  160.0091 S   0  0  0  0  0  0  0  0  0  0  0  0
  152.4904  139.8455  158.2501 C   0  0  0  0  0  0  0  0  0  0  0  0
  153.6061  139.6317  158.7274 O   0  0  0  0  0  0  0  0  0  0  0  0
  151.9119  141.0559  158.2464 N   0  0  0  0  0  0  0  0  0  0  0  0
  152.5137  142.2779  158.7719 C   0  0  0  0  0  0  0  0  0  0  0  0
  152.7221  142.1740  160.2954 C   0  0  0  0  0  0  0  0  0  0  0  0
  152.1387  143.4561  160.8931 C   0  0  0  0  0  0  0  0  0  0  0  0
  151.0342  143.8583  159.9213 C   0  0  0  0  0  0  0  0  0  0  0  0
  151.5983  143.4980  158.5469 C   0  0  0  0  0  0  0  0  0  0  0  0
  152.3671  139.1315  155.6050 H   0  0  0  0  0  0  0  0  0  0  0  0
  150.8710  139.9649  156.0249 H   0  0  0  0  0  0  0  0  0  0  0  0
  150.8528  138.2430  155.6642 H   0  0  0  0  0  0  0  0  0  0  0  0
  152.2111  137.7588  157.7084 H   0  0  0  0  0  0  0  0  0  0  0  0
  149.8292  139.4360  158.3824 H   0  0  0  0  0  0  0  0  0  0  0  0
  146.9615  136.2711  163.2669 H   0  0  0  0  0  0  0  0  0  0  0  0
  147.0951  133.8930  162.0053 H   0  0  0  0  0  0  0  0  0  0  0  0
  150.9953  141.1390  157.8317 H   0  0  0  0  0  0  0  0  0  0  0  0
  153.4756  142.4500  158.2850 H   0  0  0  0  0  0  0  0  0  0  0  0
  152.1825  141.3165  160.7012 H   0  0  0  0  0  0  0  0  0  0  0  0
  153.7725  142.0455  160.5586 H   0  0  0  0  0  0  0  0  0  0  0  0
  151.7730  143.3165  161.9109 H   0  0  0  0  0  0  0  0  0  0  0  0
  152.9053  144.2319  160.9173 H   0  0  0  0  0  0  0  0  0  0  0  0
  150.1385  143.2674  160.1172 H   0  0  0  0  0  0  0  0  0  0  0  0
  150.7643  144.9117  160.0019 H   0  0  0  0  0  0  0  0  0  0  0  0
  152.1971  144.3304  158.1754 H   0  0  0  0  0  0  0  0  0  0  0  0
  150.8083  143.3222  157.8151 H   0  0  0  0  0  0  0  0  0  0  0  0
  1  2  1  0  0  0  0
  1 20  1  0  0  0  0
  1 21  1  0  0  0  0
  1 22  1  0  0  0  0
  2  3  1  0  0  0  0
  2 12  1  0  0  0  0
  2 23  1  0  0  0  0
  3  4  1  0  0  0  0
  3 24  1  0  0  0  0
  4  5  2  0  0  0  0
  4  6  1  0  0  0  0
  6  7  1  0  0  0  0
  7 11  1  0  0  0  0
  7  8  2  0  0  0  0
  8  9  1  0  0  0  0
  9 10  2  0  0  0  0
  9 25  1  0  0  0  0
 10 11  1  0  0  0  0
 10 26  1  0  0  0  0
 12 13  2  0  0  0  0
 12 14  1  0  0  0  0
 14 15  1  0  0  0  0
 14 27  1  0  0  0  0
 15 19  1  0  0  0  0
 15 16  1  0  0  0  0
 15 28  1  0  0  0  0
 16 17  1  0  0  0  0
 16 29  1  0  0  0  0
 16 30  1  0  0  0  0
 17 18  1  0  0  0  0
 17 31  1  0  0  0  0
 17 32  1  0  0  0  0
 18 19  1  0  0  0  0
 18 33  1  0  0  0  0
 18 34  1  0  0  0  0
 19 35  1  0  0  0  0
 19 36  1  0  0  0  0
M  CHG  1   6  -1
M  END
> <s_m_source_file>
AV-unprocessed.smi

> <i_m_source_file_index>
840

> <i_lp_mmshare_version>
43012

> <i_f3d_flags>
0

> <s_epik_input>
W0NIMl0xW0NIMl1bQ0gyXVtDSDJdW0NIXTFbTkhdQyg9TylbQ0BIXShbQ0gzXSlbTkhdQyg9TylbTkhdYzJuW2NIXVtjSF1zMg==

> <s_epik_cmdline>
J2VwaWtfcHl0aG9uJywgJy1waCcsICc3LjAnLCAnLXRuJywgJzgnLCAnLW1hJywgJzIwMCcsICctbWV0YWxfYmluZGluZycsICctaW1hZScsICc8aW5maWxlLm1hZT4nLCAnLW9tYWUnLCAnPG91dGZpbGUubWFlPic=

> <r_lp_tautomer_probability>
1

> <r_epik_Ionization_Penalty>
6.35467

> <r_epik_Ionization_Penalty_Charging>
5.47395

> <r_epik_Ionization_Penalty_Neutral>
0.880717

> <r_epik_State_Penalty>
5.4739

> <r_epik_Charging_Adjusted_Penalty>
10.9479

> <i_epik_Tot_Q>
-1

> <i_epik_Tot_abs_Q>
1

> <r_epik_Metal_State_Penalty>
1.48639

> <b_epik_Metal_Only>
1

> <s_lp_Force_Field>
OPLS_2005

> <r_lp_Energy>
14.0087

> <b_lp_Chiralities_Consistent>
1

> <s_lp_Variant>
AV-unprocessed.smi:840-3

> <Gold.Version>
5.8.1

> <Gold.Id.Protein>
6NUR|6NUR_protein|mol2

> <Gold.PLP.Fitness>
45.5805

> <Gold.PLP.PLP>
-36.1741

> <Gold.PLP.part.hbond>
-5.6089

> <Gold.PLP.part.metal>
0.0000

> <Gold.PLP.part.buried>
-3.8836

> <Gold.PLP.part.nonpolar>
-27.3897

> <Gold.PLP.part.repulsive>
0.2151

> <Gold.PLP.ligand.clash>
0.0000

> <Gold.PLP.ligand.torsion>
0.7262

> <Gold.PLP.Chemscore.Hbond>
3.5888

> <Gold.PLP.Chemscore.CHOScore>
0.0000

> <Gold.PLP.Chemscore.Metal>
0.0000

> <Gold.Chemscore.Hbonds>
donor molecule, donor type, donor heavy atom, donor atom, acceptor molecule, acceptor atom, score
      P1  H  6896  6907       L1     5  1.00
      P1  H  6931  6943       L1     8  1.00
      P1  H  6934  6947       L1     8  0.61
      P1  H  7997  8010       L1    13  1.00

> <Gold.PLP.Chemscore.Internal.Correction>
0.0925

> <Gold.Rescore>
     Score         DG    S(hbond)    S(metal)    S(lipo)     H(rot)  DE(clash)    DE(int)     intcor
     19.97     -20.88       2.97        0.00      82.16       1.62       0.06       0.86       ----

> <Gold.Chemscore.Fitness>
19.9657

> <Gold.Chemscore.DG>
-20.8812

> <Gold.Chemscore.ZeroCoef>
-5.4800

> <Gold.Chemscore.Hbond>
2.9750

> <Gold.Chemscore.Metal>
0.0000

> <Gold.Chemscore.Lipo>
82.1627

> <Gold.Chemscore.Internal_Hbond>
0.0000

> <Gold.Chemscore.DEClash>
0.0594

> <Gold.Chemscore.DEInternal>
0.8561

> <Gold.Chemscore.Rot>
1.6204

> <Gold.Chemscore.Internal.Correction>
   9.000000E+99

> <Gold.Chemscore.Hbonds>
donor molecule, donor type, donor heavy atom, donor atom, acceptor molecule, acceptor atom, score
      P1  H  6896  6907       L1     5  0.95
      P1  H  6931  6943       L1     8  0.25
      P1  H  6934  6947       L1     8  0.08
      P1  H  7997  8010       L1    13  0.43

> <Gold.Chemscore.Hbond.Weighted>
-9.9364

> <Gold.Chemscore.Metal.Weighted>
-0.0000

> <Gold.Chemscore.Lipo.Weighted>
-9.6130

> <Gold.Chemscore.Internal_Hbond.Weighted>
0.0000

> <Gold.Chemscore.DEClash.Weighted>
0.0594

> <Gold.Chemscore.DEInternal.Weighted>
0.8561

> <Gold.Chemscore.Rot.Weighted>
4.1481

> <Gold.Chemscore.Internal.Correction.Weighted>
   9.000000E+99

> <Gold.Protein.RotatedTorsions>
[ 6907 6896 6895 6894 ] final  -45.19 input  -60.11 | X-H torsion
[ 7974 7965 7964 7962 ] final  -23.61 input  175.53 | X-H torsion
[ 8008 7997 7996 7995 ] final   14.47 input   59.86 | X-H torsion
[ 10167 10162 10161 10158 ] final  -35.29 input  -65.29 | X-H torsion
[ 10718 10713 10712 10709 ] final -165.05 input   66.30 | X-H torsion
[ 10763 10752 10751 10750 ] final   65.77 input  -60.55 | X-H torsion
[ 11005 11000 10999 10996 ] final   31.75 input  -57.11 | X-H torsion

> <Gold.Protein.ActiveResidues>
 VAL166  LYS551  ARG553  GLY616  TRP617  ASP618  TYR619  PRO620  LYS621  CYS622 
 ASP623  PHE694  ASN695  SER759  ASP760  ASP761  ALA762  ILE779  LEU786  VAL792 
 PHE793  MET794  SER795  GLU796  ALA797  LYS798  CYS799  TRP800  GLU811  SER814 

> <Gold.Protein.RotatedAtoms>
  150.9246  134.8663  159.7511 H   0  0  0  0  0  0  0  0  0  0  0  0  # atno 6907 bound_to 6896
  152.5009  134.4168  159.9477 H   0  0  0  0  0  0  0  0  0  0  0  0  # atno 6908 bound_to 6896
  151.4199  133.3662  159.2790 H   0  0  0  0  0  0  0  0  0  0  0  0  # atno 6909 bound_to 6896
  146.1606  140.4639  142.8573 H   0  0  0  0  0  0  0  0  0  0  0  0  # atno 7974 bound_to 7965
  154.8489  140.2926  155.5611 H   0  0  0  0  0  0  0  0  0  0  0  0  # atno 8008 bound_to 7997
  156.3015  140.2500  156.3376 H   0  0  0  0  0  0  0  0  0  0  0  0  # atno 8009 bound_to 7997
  154.9043  140.0390  157.1900 H   0  0  0  0  0  0  0  0  0  0  0  0  # atno 8010 bound_to 7997
  140.7168  143.3487  151.2201 H   0  0  0  0  0  0  0  0  0  0  0  0  # atno 10167 bound_to 10162
  156.6479  130.8995  151.3008 H   0  0  0  0  0  0  0  0  0  0  0  0  # atno 10718 bound_to 10713
  153.0110  135.5345  154.6719 H   0  0  0  0  0  0  0  0  0  0  0  0  # atno 10763 bound_to 10752
  154.5901  135.2858  155.0646 H   0  0  0  0  0  0  0  0  0  0  0  0  # atno 10764 bound_to 10752
  154.1743  135.6527  153.5070 H   0  0  0  0  0  0  0  0  0  0  0  0  # atno 10765 bound_to 10752
  140.2807  134.2976  155.7801 H   0  0  0  0  0  0  0  0  0  0  0  0  # atno 11005 bound_to 11000
  144.8021  140.6233  143.6471 LP  0  0  0  0  0  0  0  0  0  0  0  0  # atno 17320 bound_to 7965
  145.4599  139.1514  143.3872 LP  0  0  0  0  0  0  0  0  0  0  0  0  # atno 17321 bound_to 7965
  139.7013  143.9528  152.2907 LP  0  0  0  0  0  0  0  0  0  0  0  0  # atno 17342 bound_to 10162
  139.9222  144.6792  150.8449 LP  0  0  0  0  0  0  0  0  0  0  0  0  # atno 17343 bound_to 10162
  157.7150  130.9486  150.1224 LP  0  0  0  0  0  0  0  0  0  0  0  0  # atno 17370 bound_to 10713
  156.2108  130.3666  149.8673 LP  0  0  0  0  0  0  0  0  0  0  0  0  # atno 17371 bound_to 10713
  141.2163  133.7523  156.9476 LP  0  0  0  0  0  0  0  0  0  0  0  0  # atno 17394 bound_to 11000
  140.1286  134.9370  157.2305 LP  0  0  0  0  0  0  0  0  0  0  0  0  # atno 17395 bound_to 11000

$$$$
