AV-unprocessed.smi:2338|AV-procd|sdf|9334|dock4
  -GOLD-   2272012553D 1   1.00000     0.00000
 Structure written by MMmdl.
 31 32  0  0  0  0  0  0  0  0  1 V2000
  148.3056  140.7155  153.8016 N   0  0  0  0  0  0  0  0  0  0  0  0
  148.9411  140.5300  154.9615 C   0  0  0  0  0  0  0  0  0  0  0  0
  148.4411  140.8509  156.0386 O   0  0  0  0  0  0  0  0  0  0  0  0
  150.3324  139.8735  154.8992 C   0  0  2  0  0  0  0  0  0  0  0  0
  150.1950  138.4987  154.2042 C   0  0  0  0  0  0  0  0  0  0  0  0
  151.4600  137.8511  154.1261 O   0  0  0  0  0  0  0  0  0  0  0  0
  151.9980  137.5945  155.4169 C   0  0  0  0  0  0  0  0  0  0  0  0
  152.2273  138.9292  156.1406 C   0  0  0  0  0  0  0  0  0  0  0  0
  150.9862  139.6954  156.2042 N   0  0  0  0  0  0  0  0  0  0  0  0
  151.1391  140.8391  157.0131 C   0  0  0  0  0  0  0  0  0  0  0  0
  150.9527  142.0531  156.4396 N   0  0  0  0  0  0  0  0  0  0  0  0
  151.1069  143.1577  157.1995 C   0  0  0  0  0  0  0  0  0  0  0  0
  151.4575  143.1199  158.5648 C   0  0  0  0  0  0  0  0  0  0  0  0
  151.6250  144.4044  159.3598 C   0  0  0  0  0  0  0  0  0  0  0  0
  152.1748  144.1661  160.5510 F   0  0  0  0  0  0  0  0  0  0  0  0
  152.4119  145.2396  158.6834 F   0  0  0  0  0  0  0  0  0  0  0  0
  150.4422  144.9883  159.5536 F   0  0  0  0  0  0  0  0  0  0  0  0
  151.6631  141.8566  159.1572 C   0  0  0  0  0  0  0  0  0  0  0  0
  151.5024  140.6969  158.3742 C   0  0  0  0  0  0  0  0  0  0  0  0
  151.7376  139.1419  159.0930 Cl  0  0  0  0  0  0  0  0  0  0  0  0
  147.3927  141.1468  153.7946 H   0  0  0  0  0  0  0  0  0  0  0  0
  148.7403  140.4289  152.9366 H   0  0  0  0  0  0  0  0  0  0  0  0
  150.9810  140.4961  154.2794 H   0  0  0  0  0  0  0  0  0  0  0  0
  149.4874  137.8563  154.7325 H   0  0  0  0  0  0  0  0  0  0  0  0
  149.8119  138.6211  153.1902 H   0  0  0  0  0  0  0  0  0  0  0  0
  151.3260  136.9503  155.9864 H   0  0  0  0  0  0  0  0  0  0  0  0
  152.9404  137.0573  155.3093 H   0  0  0  0  0  0  0  0  0  0  0  0
  152.6091  138.7373  157.1444 H   0  0  0  0  0  0  0  0  0  0  0  0
  152.9878  139.5095  155.6155 H   0  0  0  0  0  0  0  0  0  0  0  0
  150.9481  144.1011  156.6983 H   0  0  0  0  0  0  0  0  0  0  0  0
  151.9406  141.7715  160.1975 H   0  0  0  0  0  0  0  0  0  0  0  0
  1  2  1  0  0  0  0
  1 21  1  0  0  0  0
  1 22  1  0  0  0  0
  2  3  2  0  0  0  0
  2  4  1  0  0  0  0
  4  9  1  0  0  0  0
  4  5  1  0  0  0  0
  4 23  1  0  0  0  0
  5  6  1  0  0  0  0
  5 24  1  0  0  0  0
  5 25  1  0  0  0  0
  6  7  1  0  0  0  0
  7  8  1  0  0  0  0
  7 26  1  0  0  0  0
  7 27  1  0  0  0  0
  8  9  1  0  0  0  0
  8 28  1  0  0  0  0
  8 29  1  0  0  0  0
  9 10  1  0  0  0  0
 10 19  1  0  0  0  0
 10 11  2  0  0  0  0
 11 12  1  0  0  0  0
 12 13  2  0  0  0  0
 12 30  1  0  0  0  0
 13 14  1  0  0  0  0
 13 18  1  0  0  0  0
 14 15  1  0  0  0  0
 14 16  1  0  0  0  0
 14 17  1  0  0  0  0
 18 19  2  0  0  0  0
 18 31  1  0  0  0  0
 19 20  1  0  0  0  0
M  END
> <s_m_source_file>
AV-unprocessed.smi

> <i_m_source_file_index>
2338

> <i_lp_mmshare_version>
43012

> <i_f3d_flags>
0

> <s_epik_input>
W05IMl1DKD1PKVtDQEBIXTFbQ0gyXU9bQ0gyXVtDSDJdTjFjMm5bY0hdYyhDKEYpKEYpRilbY0hdYzJDbA==

> <s_epik_cmdline>
J2VwaWtfcHl0aG9uJywgJy1waCcsICc3LjAnLCAnLXRuJywgJzgnLCAnLW1hJywgJzIwMCcsICctbWV0YWxfYmluZGluZycsICctaW1hZScsICc8aW5maWxlLm1hZT4nLCAnLW9tYWUnLCAnPG91dGZpbGUubWFlPic=

> <r_lp_tautomer_probability>
1

> <r_epik_Ionization_Penalty>
1.71167e-07

> <r_epik_Ionization_Penalty_Charging>
0

> <r_epik_Ionization_Penalty_Neutral>
1.71167e-07

> <r_epik_State_Penalty>
-0

> <r_epik_Charging_Adjusted_Penalty>
0

> <i_epik_Tot_Q>
0

> <i_epik_Tot_abs_Q>
0

> <r_epik_Metal_State_Penalty>
-0

> <b_epik_Metal_Only>
0

> <s_lp_Force_Field>
OPLS_2005

> <r_lp_Energy>
18.5611

> <b_lp_Chiralities_Consistent>
1

> <s_lp_Variant>
AV-unprocessed.smi:2338-1

> <Gold.Version>
5.8.1

> <Gold.Id.Protein>
6NUR|6NUR_protein|mol2

> <Gold.PLP.Fitness>
43.5098

> <Gold.PLP.PLP>
-38.4370

> <Gold.PLP.part.hbond>
-1.0000

> <Gold.PLP.part.metal>
0.0000

> <Gold.PLP.part.buried>
-4.5190

> <Gold.PLP.part.nonpolar>
-33.3013

> <Gold.PLP.part.repulsive>
0.5133

> <Gold.PLP.ligand.clash>
0.1599

> <Gold.PLP.ligand.torsion>
0.4542

> <Gold.PLP.Chemscore.Hbond>
1.0000

> <Gold.PLP.Chemscore.CHOScore>
0.8354

> <Gold.PLP.Chemscore.Metal>
0.0000

> <Gold.Chemscore.Hbonds>
donor molecule, donor type, donor heavy atom, donor atom, acceptor molecule, acceptor atom, score
      L1  H     1    22       P1  7957  1.00
      L1  C    12    30       P1  8028  0.90

> <Gold.PLP.Chemscore.Internal.Correction>
0.6351

> <Gold.Rescore>
     Score         DG    S(hbond)    S(metal)    S(lipo)     H(rot)  DE(clash)    DE(int)     intcor
     10.22     -13.93       1.00        0.00      76.72       1.51       0.23       3.48       ----

> <Gold.Chemscore.Fitness>
10.2172

> <Gold.Chemscore.DG>
-13.9285

> <Gold.Chemscore.ZeroCoef>
-5.4800

> <Gold.Chemscore.Hbond>
0.9997

> <Gold.Chemscore.Metal>
0.0000

> <Gold.Chemscore.Lipo>
76.7244

> <Gold.Chemscore.Internal_Hbond>
0.0000

> <Gold.Chemscore.DEClash>
0.2304

> <Gold.Chemscore.DEInternal>
3.4809

> <Gold.Chemscore.Rot>
1.5107

> <Gold.Chemscore.Internal.Correction>
   9.000000E+99

> <Gold.Chemscore.Hbonds>
donor molecule, donor type, donor heavy atom, donor atom, acceptor molecule, acceptor atom, score
      L1  H     1    22       P1  7957  0.95

> <Gold.Chemscore.Hbond.Weighted>
-3.3391

> <Gold.Chemscore.Metal.Weighted>
-0.0000

> <Gold.Chemscore.Lipo.Weighted>
-8.9768

> <Gold.Chemscore.Internal_Hbond.Weighted>
0.0000

> <Gold.Chemscore.DEClash.Weighted>
0.2304

> <Gold.Chemscore.DEInternal.Weighted>
3.4809

> <Gold.Chemscore.Rot.Weighted>
3.8674

> <Gold.Chemscore.Internal.Correction.Weighted>
   9.000000E+99

> <Gold.Protein.RotatedTorsions>
[ 6907 6896 6895 6894 ] final   11.48 input  -60.11 | X-H torsion
[ 7974 7965 7964 7962 ] final -149.23 input  175.53 | X-H torsion
[ 8008 7997 7996 7995 ] final  -80.71 input   59.86 | X-H torsion
[ 10167 10162 10161 10158 ] final   97.67 input  -65.29 | X-H torsion
[ 10718 10713 10712 10709 ] final  161.14 input   66.30 | X-H torsion
[ 10763 10752 10751 10750 ] final -121.90 input  -60.55 | X-H torsion
[ 11005 11000 10999 10996 ] final  -95.24 input  -57.11 | X-H torsion

> <Gold.Protein.ActiveResidues>
 VAL166  LYS551  ARG553  GLY616  TRP617  ASP618  TYR619  PRO620  LYS621  CYS622 
 ASP623  PHE694  ASN695  SER759  ASP760  ASP761  ALA762  ILE779  LEU786  VAL792 
 PHE793  MET794  SER795  GLU796  ALA797  LYS798  CYS799  TRP800  GLU811  SER814 

> <Gold.Protein.RotatedAtoms>
  151.7550  135.0824  160.0336 H   0  0  0  0  0  0  0  0  0  0  0  0  # atno 6907 bound_to 6896
  152.3391  133.6042  159.5872 H   0  0  0  0  0  0  0  0  0  0  0  0  # atno 6908 bound_to 6896
  150.7468  133.9666  159.3574 H   0  0  0  0  0  0  0  0  0  0  0  0  # atno 6909 bound_to 6896
  144.7980  140.5092  143.5727 H   0  0  0  0  0  0  0  0  0  0  0  0  # atno 7974 bound_to 7965
  154.5910  140.0659  156.9238 H   0  0  0  0  0  0  0  0  0  0  0  0  # atno 8008 bound_to 7997
  155.2295  140.3336  155.4287 H   0  0  0  0  0  0  0  0  0  0  0  0  # atno 8009 bound_to 7997
  156.2256  140.1817  156.7356 H   0  0  0  0  0  0  0  0  0  0  0  0  # atno 8010 bound_to 7997
  139.7779  144.6899  151.0064 H   0  0  0  0  0  0  0  0  0  0  0  0  # atno 10167 bound_to 10162
  157.1407  131.0540  151.2328 H   0  0  0  0  0  0  0  0  0  0  0  0  # atno 10718 bound_to 10713
  154.8678  135.4151  154.2696 H   0  0  0  0  0  0  0  0  0  0  0  0  # atno 10763 bound_to 10752
  153.3608  135.7003  153.6719 H   0  0  0  0  0  0  0  0  0  0  0  0  # atno 10764 bound_to 10752
  153.5621  135.3608  155.2775 H   0  0  0  0  0  0  0  0  0  0  0  0  # atno 10765 bound_to 10752
  141.1448  133.8012  157.0408 H   0  0  0  0  0  0  0  0  0  0  0  0  # atno 11005 bound_to 11000
  145.5624  139.1480  143.3334 LP  0  0  0  0  0  0  0  0  0  0  0  0  # atno 17320 bound_to 7965
  146.2254  140.5760  142.8999 LP  0  0  0  0  0  0  0  0  0  0  0  0  # atno 17321 bound_to 7965
  140.7817  143.4515  151.0406 LP  0  0  0  0  0  0  0  0  0  0  0  0  # atno 17342 bound_to 10162
  139.8197  143.7837  152.3176 LP  0  0  0  0  0  0  0  0  0  0  0  0  # atno 17343 bound_to 10162
  157.4310  130.7490  149.6990 LP  0  0  0  0  0  0  0  0  0  0  0  0  # atno 17370 bound_to 10713
  155.9789  130.4046  150.3619 LP  0  0  0  0  0  0  0  0  0  0  0  0  # atno 17371 bound_to 10713
  140.0694  134.9711  157.1441 LP  0  0  0  0  0  0  0  0  0  0  0  0  # atno 17394 bound_to 11000
  140.3732  134.2367  155.7176 LP  0  0  0  0  0  0  0  0  0  0  0  0  # atno 17395 bound_to 11000

$$$$
