AV-unprocessed.smi:1286|AV-procd|sdf|5375|dock9
  -GOLD-   22720 4523D 1   1.00000     0.00000
 Structure written by MMmdl.
 36 37  0  0  0  0  0  0  0  0  1 V2000
  151.0138  140.1524  155.3864 C   0  0  0  0  0  0  0  0  0  0  0  0
  149.6311  140.7960  155.5568 C   0  0  2  0  0  0  0  0  0  0  0  0
  149.0359  141.2227  154.1988 C   0  0  0  0  0  0  0  0  0  0  0  0
  147.6446  141.6292  154.2957 N   0  0  0  0  0  0  0  0  0  0  0  0
  147.1074  142.8882  154.1268 C   0  0  0  0  0  0  0  0  0  0  0  0
  145.7594  142.7836  154.3158 C   0  0  0  0  0  0  0  0  0  0  0  0
  145.5643  141.4027  154.5981 C   0  0  0  0  0  0  0  0  0  0  0  0
  146.6934  140.7132  154.5789 N   0  0  0  0  0  0  0  0  0  0  0  0
  149.7450  141.9516  156.4459 N   0  0  0  0  0  0  0  0  0  0  0  0
  150.2968  141.9513  157.6699 C   0  0  0  0  0  0  0  0  0  0  0  0
  150.8350  140.9651  158.1729 O   0  0  0  0  0  0  0  0  0  0  0  0
  150.2127  143.2689  158.4496 C   0  0  0  0  0  0  0  0  0  0  0  0
  151.5646  143.7428  159.0298 C   0  0  2  0  0  0  0  0  0  0  0  0
  152.3314  142.6596  159.7498 C   0  0  0  0  0  0  0  0  0  0  0  0
  152.6716  143.0045  160.9891 C   0  0  0  0  0  0  0  0  0  0  0  0
  152.2032  144.3865  161.3503 C   0  0  0  0  0  0  0  0  0  0  0  0
  151.4114  144.8485  160.1062 C   0  0  0  0  0  0  0  0  0  0  0  0
  150.9597  139.2734  154.7435 H   0  0  0  0  0  0  0  0  0  0  0  0
  151.4190  139.8322  156.3467 H   0  0  0  0  0  0  0  0  0  0  0  0
  151.7247  140.8482  154.9390 H   0  0  0  0  0  0  0  0  0  0  0  0
  148.9769  140.0413  155.9968 H   0  0  0  0  0  0  0  0  0  0  0  0
  149.6099  142.0473  153.7738 H   0  0  0  0  0  0  0  0  0  0  0  0
  149.0989  140.4000  153.4850 H   0  0  0  0  0  0  0  0  0  0  0  0
  147.7227  143.7445  153.8930 H   0  0  0  0  0  0  0  0  0  0  0  0
  145.0251  143.5737  154.2643 H   0  0  0  0  0  0  0  0  0  0  0  0
  144.6420  140.8836  154.8129 H   0  0  0  0  0  0  0  0  0  0  0  0
  149.3342  142.8138  156.1187 H   0  0  0  0  0  0  0  0  0  0  0  0
  149.8134  144.0326  157.7814 H   0  0  0  0  0  0  0  0  0  0  0  0
  149.4892  143.1587  159.2592 H   0  0  0  0  0  0  0  0  0  0  0  0
  152.2004  144.1128  158.2241 H   0  0  0  0  0  0  0  0  0  0  0  0
  152.5820  141.7208  159.2787 H   0  0  0  0  0  0  0  0  0  0  0  0
  153.2327  142.3877  161.6757 H   0  0  0  0  0  0  0  0  0  0  0  0
  151.5777  144.3584  162.2429 H   0  0  0  0  0  0  0  0  0  0  0  0
  153.0614  145.0306  161.5447 H   0  0  0  0  0  0  0  0  0  0  0  0
  151.7807  145.8064  159.7387 H   0  0  0  0  0  0  0  0  0  0  0  0
  150.3637  144.9947  160.3715 H   0  0  0  0  0  0  0  0  0  0  0  0
  1  2  1  0  0  0  0
  1 18  1  0  0  0  0
  1 19  1  0  0  0  0
  1 20  1  0  0  0  0
  2  3  1  0  0  0  0
  2  9  1  0  0  0  0
  2 21  1  0  0  0  0
  3  4  1  0  0  0  0
  3 22  1  0  0  0  0
  3 23  1  0  0  0  0
  4  8  1  0  0  0  0
  4  5  1  0  0  0  0
  5  6  2  0  0  0  0
  5 24  1  0  0  0  0
  6  7  1  0  0  0  0
  6 25  1  0  0  0  0
  7  8  2  0  0  0  0
  7 26  1  0  0  0  0
  9 10  1  0  0  0  0
  9 27  1  0  0  0  0
 10 11  2  0  0  0  0
 10 12  1  0  0  0  0
 12 13  1  0  0  0  0
 12 28  1  0  0  0  0
 12 29  1  0  0  0  0
 13 17  1  0  0  0  0
 13 14  1  0  0  0  0
 13 30  1  0  0  0  0
 14 15  2  0  0  0  0
 14 31  1  0  0  0  0
 15 16  1  0  0  0  0
 15 32  1  0  0  0  0
 16 17  1  0  0  0  0
 16 33  1  0  0  0  0
 16 34  1  0  0  0  0
 17 35  1  0  0  0  0
 17 36  1  0  0  0  0
M  END
> <s_m_source_file>
AV-unprocessed.smi

> <i_m_source_file_index>
1286

> <i_lp_mmshare_version>
43012

> <i_f3d_flags>
0

> <s_epik_input>
bjFbY0hdW2NIXVtjSF1uMVtDSDJdW0NAQEhdKFtDSDNdKVtOSF1DKD1PKVtDSDJdW0NAQEhdMltDSF09W0NIXVtDSDJdW0NIMl0y

> <s_epik_cmdline>
J2VwaWtfcHl0aG9uJywgJy1waCcsICc3LjAnLCAnLXRuJywgJzgnLCAnLW1hJywgJzIwMCcsICctbWV0YWxfYmluZGluZycsICctaW1hZScsICc8aW5maWxlLm1hZT4nLCAnLW9tYWUnLCAnPG91dGZpbGUubWFlPic=

> <r_lp_tautomer_probability>
1

> <r_epik_Ionization_Penalty>
0.000301761

> <r_epik_Ionization_Penalty_Charging>
0

> <r_epik_Ionization_Penalty_Neutral>
0.000301761

> <r_epik_State_Penalty>
-0

> <r_epik_Charging_Adjusted_Penalty>
0

> <i_epik_Tot_Q>
0

> <i_epik_Tot_abs_Q>
0

> <r_epik_Metal_State_Penalty>
-0

> <b_epik_Metal_Only>
0

> <s_lp_Force_Field>
OPLS_2005

> <r_lp_Energy>
16.2222

> <b_lp_Chiralities_Consistent>
1

> <s_lp_Variant>
AV-unprocessed.smi:1286-1

> <Gold.Version>
5.8.1

> <Gold.Id.Protein>
6NUR|6NUR_protein|mol2

> <Gold.PLP.Fitness>
42.5207

> <Gold.PLP.PLP>
-36.4893

> <Gold.PLP.part.hbond>
-1.0000

> <Gold.PLP.part.metal>
0.0000

> <Gold.PLP.part.buried>
1.8625

> <Gold.PLP.part.nonpolar>
-37.1958

> <Gold.PLP.part.repulsive>
0.1641

> <Gold.PLP.ligand.clash>
0.0000

> <Gold.PLP.ligand.torsion>
0.3165

> <Gold.PLP.Chemscore.Hbond>
1.0000

> <Gold.PLP.Chemscore.CHOScore>
1.2120

> <Gold.PLP.Chemscore.Metal>
0.0000

> <Gold.Chemscore.Hbonds>
donor molecule, donor type, donor heavy atom, donor atom, acceptor molecule, acceptor atom, score
      L1  H     9    27       P1  8028  1.00
      L1  C     5    24       P1  8028  0.76
      L1  C     7    26       P1 10175  0.45

> <Gold.PLP.Chemscore.Internal.Correction>
0.0282

> <Gold.Rescore>
     Score         DG    S(hbond)    S(metal)    S(lipo)     H(rot)  DE(clash)    DE(int)     intcor
     12.73     -16.48       0.97        0.00     102.06       1.64       0.68       3.07       ----

> <Gold.Chemscore.Fitness>
12.7269

> <Gold.Chemscore.DG>
-16.4770

> <Gold.Chemscore.ZeroCoef>
-5.4800

> <Gold.Chemscore.Hbond>
0.9740

> <Gold.Chemscore.Metal>
0.0000

> <Gold.Chemscore.Lipo>
102.0570

> <Gold.Chemscore.Internal_Hbond>
0.0000

> <Gold.Chemscore.DEClash>
0.6828

> <Gold.Chemscore.DEInternal>
3.0673

> <Gold.Chemscore.Rot>
1.6394

> <Gold.Chemscore.Internal.Correction>
   9.000000E+99

> <Gold.Chemscore.Hbonds>
donor molecule, donor type, donor heavy atom, donor atom, acceptor molecule, acceptor atom, score
      L1  H     9    27       P1  8028  0.95

> <Gold.Chemscore.Hbond.Weighted>
-3.2532

> <Gold.Chemscore.Metal.Weighted>
-0.0000

> <Gold.Chemscore.Lipo.Weighted>
-11.9407

> <Gold.Chemscore.Internal_Hbond.Weighted>
0.0000

> <Gold.Chemscore.DEClash.Weighted>
0.6828

> <Gold.Chemscore.DEInternal.Weighted>
3.0673

> <Gold.Chemscore.Rot.Weighted>
4.1969

> <Gold.Chemscore.Internal.Correction.Weighted>
   9.000000E+99

> <Gold.Protein.RotatedTorsions>
[ 6907 6896 6895 6894 ] final  -41.33 input  -60.11 | X-H torsion
[ 7974 7965 7964 7962 ] final  149.99 input  175.53 | X-H torsion
[ 8008 7997 7996 7995 ] final  121.76 input   59.86 | X-H torsion
[ 10167 10162 10161 10158 ] final  157.42 input  -65.29 | X-H torsion
[ 10718 10713 10712 10709 ] final -162.44 input   66.30 | X-H torsion
[ 10763 10752 10751 10750 ] final  -16.81 input  -60.55 | X-H torsion
[ 11005 11000 10999 10996 ] final  129.13 input  -57.11 | X-H torsion

> <Gold.Protein.ActiveResidues>
 VAL166  LYS551  ARG553  GLY616  TRP617  ASP618  TYR619  PRO620  LYS621  CYS622 
 ASP623  PHE694  ASN695  SER759  ASP760  ASP761  ALA762  ILE779  LEU786  VAL792 
 PHE793  MET794  SER795  GLU796  ALA797  LYS798  CYS799  TRP800  GLU811  SER814 

> <Gold.Protein.RotatedAtoms>
  150.9680  134.9057  159.7770 H   0  0  0  0  0  0  0  0  0  0  0  0  # atno 6907 bound_to 6896
  152.5180  134.3581  159.9285 H   0  0  0  0  0  0  0  0  0  0  0  0  # atno 6908 bound_to 6896
  151.3591  133.3855  159.2722 H   0  0  0  0  0  0  0  0  0  0  0  0  # atno 6909 bound_to 6896
  144.8397  139.6350  143.6022 H   0  0  0  0  0  0  0  0  0  0  0  0  # atno 7974 bound_to 7965
  156.2700  140.2801  156.1360 H   0  0  0  0  0  0  0  0  0  0  0  0  # atno 8008 bound_to 7997
  155.1004  140.0389  157.2713 H   0  0  0  0  0  0  0  0  0  0  0  0  # atno 8009 bound_to 7997
  154.6820  140.2610  155.6905 H   0  0  0  0  0  0  0  0  0  0  0  0  # atno 8010 bound_to 7997
  139.4823  144.4919  151.8295 H   0  0  0  0  0  0  0  0  0  0  0  0  # atno 10167 bound_to 10162
  156.6104  130.8848  151.2935 H   0  0  0  0  0  0  0  0  0  0  0  0  # atno 10718 bound_to 10713
  153.5642  135.7009  153.5534 H   0  0  0  0  0  0  0  0  0  0  0  0  # atno 10763 bound_to 10752
  153.3402  135.4023  155.1565 H   0  0  0  0  0  0  0  0  0  0  0  0  # atno 10764 bound_to 10752
  154.8643  135.3740  154.5161 H   0  0  0  0  0  0  0  0  0  0  0  0  # atno 10765 bound_to 10752
  139.9598  134.9605  156.9103 H   0  0  0  0  0  0  0  0  0  0  0  0  # atno 11005 bound_to 11000
  146.2691  139.6592  142.9308 LP  0  0  0  0  0  0  0  0  0  0  0  0  # atno 17320 bound_to 7965
  145.4719  141.0436  143.2694 LP  0  0  0  0  0  0  0  0  0  0  0  0  # atno 17321 bound_to 7965
  140.4404  144.1994  150.5891 LP  0  0  0  0  0  0  0  0  0  0  0  0  # atno 17342 bound_to 10162
  140.4689  143.2420  151.9117 LP  0  0  0  0  0  0  0  0  0  0  0  0  # atno 17343 bound_to 10162
  157.7255  130.9617  150.1619 LP  0  0  0  0  0  0  0  0  0  0  0  0  # atno 17370 bound_to 10713
  156.2394  130.3689  149.8354 LP  0  0  0  0  0  0  0  0  0  0  0  0  # atno 17371 bound_to 10713
  140.5525  134.0613  155.7373 LP  0  0  0  0  0  0  0  0  0  0  0  0  # atno 17394 bound_to 11000
  141.1274  133.9359  157.2606 LP  0  0  0  0  0  0  0  0  0  0  0  0  # atno 17395 bound_to 11000

$$$$
