AV-unprocessed.smi:2351|AV-procd|sdf|9375|dock10
  -GOLD-   2272013 03D 1   1.00000     0.00000
 Structure written by MMmdl.
 47 49  0  0  0  0  0  0  0  0  2 V2000
  150.8230  140.6448  156.4562 O   0  0  0  0  0  0  0  0  0  0  0  0
  150.2528  141.7355  156.4529 C   0  0  0  0  0  0  0  0  0  0  0  0
  150.4399  142.7185  157.3503 N   0  0  0  0  0  0  0  0  0  0  0  0
  151.3185  142.7527  158.4680 C   0  0  0  0  0  0  0  0  0  0  0  0
  151.9043  141.6062  159.0578 C   0  0  0  0  0  0  0  0  0  0  0  0
  152.7480  141.7782  160.1738 C   0  0  0  0  0  0  0  0  0  0  0  0
  153.0246  142.9814  160.7198 N   0  0  0  0  0  0  0  0  0  0  0  0
  152.4539  144.0705  160.1632 C   0  0  0  0  0  0  0  0  0  0  0  0
  151.5955  144.0092  159.0471 C   0  0  0  0  0  0  0  0  0  0  0  0
  151.0520  145.1422  158.5398 F   0  0  0  0  0  0  0  0  0  0  0  0
  149.3614  142.0964  155.5183 N   0  0  0  0  0  0  0  0  0  0  0  0
  148.9628  141.2759  154.3781 C   0  0  2  0  0  0  0  0  0  0  0  0
  147.6622  141.8215  153.7688 C   0  0  0  0  0  0  0  0  0  0  0  0
  147.1774  140.9338  152.6103 C   0  0  0  0  0  0  0  0  0  0  0  0
  146.9945  139.5259  153.0502 N   0  3  1  0  0  0  0  0  0  0  0  0
  146.3966  138.6674  151.9942 C   0  0  0  0  0  0  0  0  0  0  0  0
  145.8663  137.3354  152.5582 C   0  0  1  0  0  0  0  0  0  0  0  0
  144.5076  137.4619  153.2189 C   0  0  0  0  0  0  0  0  0  0  0  0
  144.0351  136.0124  153.2626 C   0  0  0  0  0  0  0  0  0  0  0  0
  144.6167  135.3828  152.1253 O   0  0  0  0  0  0  0  0  0  0  0  0
  145.5724  136.2487  151.5222 C   0  0  0  0  0  0  0  0  0  0  0  0
  148.2507  138.9651  153.6149 C   0  0  0  0  0  0  0  0  0  0  0  0
  148.7565  139.8092  154.7965 C   0  0  0  0  0  0  0  0  0  0  0  0
  149.9450  143.5802  157.1724 H   0  0  0  0  0  0  0  0  0  0  0  0
  151.7190  140.6086  158.6915 H   0  0  0  0  0  0  0  0  0  0  0  0
  153.2091  140.9228  160.6447 H   0  0  0  0  0  0  0  0  0  0  0  0
  152.6867  145.0199  160.6221 H   0  0  0  0  0  0  0  0  0  0  0  0
  148.9422  143.0120  155.5911 H   0  0  0  0  0  0  0  0  0  0  0  0
  149.7423  141.3224  153.6148 H   0  0  0  0  0  0  0  0  0  0  0  0
  146.8859  141.8746  154.5339 H   0  0  0  0  0  0  0  0  0  0  0  0
  147.8150  142.8407  153.4115 H   0  0  0  0  0  0  0  0  0  0  0  0
  146.2323  141.3281  152.2345 H   0  0  0  0  0  0  0  0  0  0  0  0
  147.8889  140.9693  151.7839 H   0  0  0  0  0  0  0  0  0  0  0  0
  145.5499  139.1880  151.5437 H   0  0  0  0  0  0  0  0  0  0  0  0
  147.1041  138.5014  151.1800 H   0  0  0  0  0  0  0  0  0  0  0  0
  146.5686  136.9445  153.2968 H   0  0  0  0  0  0  0  0  0  0  0  0
  144.5508  137.9219  154.2067 H   0  0  0  0  0  0  0  0  0  0  0  0
  143.8347  138.0538  152.5964 H   0  0  0  0  0  0  0  0  0  0  0  0
  144.4065  135.5172  154.1605 H   0  0  0  0  0  0  0  0  0  0  0  0
  142.9481  135.9284  153.2541 H   0  0  0  0  0  0  0  0  0  0  0  0
  145.1255  136.6785  150.6246 H   0  0  0  0  0  0  0  0  0  0  0  0
  146.4661  135.6986  151.2277 H   0  0  0  0  0  0  0  0  0  0  0  0
  148.0908  137.9417  153.9508 H   0  0  0  0  0  0  0  0  0  0  0  0
  149.0133  138.9228  152.8356 H   0  0  0  0  0  0  0  0  0  0  0  0
  149.6904  139.3888  155.1719 H   0  0  0  0  0  0  0  0  0  0  0  0
  148.0398  139.7527  155.6172 H   0  0  0  0  0  0  0  0  0  0  0  0
  146.3213  139.5572  153.8026 H   0  0  0  0  0  0  0  0  0  0  0  0
  1  2  2  0  0  0  0
  2  3  1  0  0  0  0
  2 11  1  0  0  0  0
  3  4  1  0  0  0  0
  3 24  1  0  0  0  0
  4  9  1  0  0  0  0
  4  5  2  0  0  0  0
  5  6  1  0  0  0  0
  5 25  1  0  0  0  0
  6  7  2  0  0  0  0
  6 26  1  0  0  0  0
  7  8  1  0  0  0  0
  8  9  2  0  0  0  0
  8 27  1  0  0  0  0
  9 10  1  0  0  0  0
 11 12  1  0  0  0  0
 11 28  1  0  0  0  0
 12 23  1  0  0  0  0
 12 13  1  0  0  0  0
 12 29  1  0  0  0  0
 13 14  1  0  0  0  0
 13 30  1  0  0  0  0
 13 31  1  0  0  0  0
 14 15  1  0  0  0  0
 14 32  1  0  0  0  0
 14 33  1  0  0  0  0
 15 16  1  0  0  0  0
 15 22  1  0  0  0  0
 15 47  1  0  0  0  0
 16 17  1  0  0  0  0
 16 34  1  0  0  0  0
 16 35  1  0  0  0  0
 17 21  1  0  0  0  0
 17 18  1  0  0  0  0
 17 36  1  0  0  0  0
 18 19  1  0  0  0  0
 18 37  1  0  0  0  0
 18 38  1  0  0  0  0
 19 20  1  0  0  0  0
 19 39  1  0  0  0  0
 19 40  1  0  0  0  0
 20 21  1  0  0  0  0
 21 41  1  0  0  0  0
 21 42  1  0  0  0  0
 22 23  1  0  0  0  0
 22 43  1  0  0  0  0
 22 44  1  0  0  0  0
 23 45  1  0  0  0  0
 23 46  1  0  0  0  0
M  CHG  1  15   1
M  END
> <s_m_source_file>
AV-unprocessed.smi

> <i_m_source_file_index>
2351

> <i_lp_mmshare_version>
43012

> <i_f3d_flags>
0

> <s_epik_input>
RmMxW2NIXW5bY0hdW2NIXWMxW05IXUMoPU8pW05IXVtDSF0yW0NIMl1bQ0gyXU4oW0NIMl1bQ0gyXTIpW0NIMl1bQ0BASF0zW0NIMl1bQ0gyXU9bQ0gyXTM=

> <s_epik_cmdline>
J2VwaWtfcHl0aG9uJywgJy1waCcsICc3LjAnLCAnLXRuJywgJzgnLCAnLW1hJywgJzIwMCcsICctbWV0YWxfYmluZGluZycsICctaW1hZScsICc8aW5maWxlLm1hZT4nLCAnLW9tYWUnLCAnPG91dGZpbGUubWFlPic=

> <r_epik_Ionization_Penalty>
0.0102464

> <r_epik_Ionization_Penalty_Charging>
0.00747775

> <r_epik_Ionization_Penalty_Neutral>
0.00276864

> <r_epik_State_Penalty>
0.00558817

> <r_epik_Charging_Adjusted_Penalty>
0.0130659

> <i_epik_Tot_Q>
1

> <i_epik_Tot_abs_Q>
1

> <r_epik_Metal_State_Penalty>
-0

> <b_epik_Metal_Only>
0

> <s_lp_Force_Field>
OPLS_2005

> <r_lp_Energy>
39.8259

> <b_lp_Chiralities_Consistent>
1

> <s_lp_Variant>
AV-unprocessed.smi:2351-2

> <Gold.Version>
5.8.1

> <Gold.Id.Protein>
6NUR|6NUR_protein|mol2

> <Gold.PLP.Fitness>
46.6285

> <Gold.PLP.PLP>
-42.8195

> <Gold.PLP.part.hbond>
-2.2243

> <Gold.PLP.part.metal>
0.0000

> <Gold.PLP.part.buried>
-4.0902

> <Gold.PLP.part.nonpolar>
-37.0163

> <Gold.PLP.part.repulsive>
0.3371

> <Gold.PLP.ligand.clash>
0.0000

> <Gold.PLP.ligand.torsion>
0.5136

> <Gold.PLP.Chemscore.Hbond>
1.6037

> <Gold.PLP.Chemscore.CHOScore>
0.0000

> <Gold.PLP.Chemscore.Metal>
0.0000

> <Gold.Chemscore.Hbonds>
donor molecule, donor type, donor heavy atom, donor atom, acceptor molecule, acceptor atom, score
      L1  H     3    24       P1  8028  0.61
      L1  H    11    28       P1  8028  1.00

> <Gold.PLP.Chemscore.Internal.Correction>
0.0249

> <Gold.Rescore>
     Score         DG    S(hbond)    S(metal)    S(lipo)     H(rot)  DE(clash)    DE(int)     intcor
     17.83     -21.00       1.86        0.00     111.12       1.45       0.13       3.04       ----

> <Gold.Chemscore.Fitness>
17.8272

> <Gold.Chemscore.DG>
-21.0012

> <Gold.Chemscore.ZeroCoef>
-5.4800

> <Gold.Chemscore.Hbond>
1.8645

> <Gold.Chemscore.Metal>
0.0000

> <Gold.Chemscore.Lipo>
111.1237

> <Gold.Chemscore.Internal_Hbond>
0.0000

> <Gold.Chemscore.DEClash>
0.1349

> <Gold.Chemscore.DEInternal>
3.0391

> <Gold.Chemscore.Rot>
1.4483

> <Gold.Chemscore.Internal.Correction>
   9.000000E+99

> <Gold.Chemscore.Hbonds>
donor molecule, donor type, donor heavy atom, donor atom, acceptor molecule, acceptor atom, score
      L1  H     3    24       P1  8028  0.59
      L1  H    11    28       P1  8028  0.99

> <Gold.Chemscore.Hbond.Weighted>
-6.2274

> <Gold.Chemscore.Metal.Weighted>
-0.0000

> <Gold.Chemscore.Lipo.Weighted>
-13.0015

> <Gold.Chemscore.Internal_Hbond.Weighted>
0.0000

> <Gold.Chemscore.DEClash.Weighted>
0.1349

> <Gold.Chemscore.DEInternal.Weighted>
3.0391

> <Gold.Chemscore.Rot.Weighted>
3.7077

> <Gold.Chemscore.Internal.Correction.Weighted>
   9.000000E+99

> <Gold.Protein.RotatedTorsions>
[ 6907 6896 6895 6894 ] final  -81.98 input  -60.11 | X-H torsion
[ 7974 7965 7964 7962 ] final -135.88 input  175.53 | X-H torsion
[ 8008 7997 7996 7995 ] final   41.88 input   59.86 | X-H torsion
[ 10167 10162 10161 10158 ] final -148.22 input  -65.29 | X-H torsion
[ 10718 10713 10712 10709 ] final  134.99 input   66.30 | X-H torsion
[ 10763 10752 10751 10750 ] final  -29.72 input  -60.55 | X-H torsion
[ 11005 11000 10999 10996 ] final -174.99 input  -57.11 | X-H torsion

> <Gold.Protein.ActiveResidues>
 VAL166  LYS551  ARG553  GLY616  TRP617  ASP618  TYR619  PRO620  LYS621  CYS622 
 ASP623  PHE694  ASN695  SER759  ASP760  ASP761  ALA762  ILE779  LEU786  VAL792 
 PHE793  MET794  SER795  GLU796  ALA797  LYS798  CYS799  TRP800  GLU811  SER814 

> <Gold.Protein.RotatedAtoms>
  150.6904  134.3734  159.5001 H   0  0  0  0  0  0  0  0  0  0  0  0  # atno 6907 bound_to 6896
  152.1547  134.8958  160.0555 H   0  0  0  0  0  0  0  0  0  0  0  0  # atno 6908 bound_to 6896
  152.0042  133.3802  159.4231 H   0  0  0  0  0  0  0  0  0  0  0  0  # atno 6909 bound_to 6896
  144.8975  140.6726  143.5106 H   0  0  0  0  0  0  0  0  0  0  0  0  # atno 7974 bound_to 7965
  155.2769  140.3370  155.4261 H   0  0  0  0  0  0  0  0  0  0  0  0  # atno 8008 bound_to 7997
  156.2107  140.1769  156.7742 H   0  0  0  0  0  0  0  0  0  0  0  0  # atno 8009 bound_to 7997
  154.5683  140.0674  156.8909 H   0  0  0  0  0  0  0  0  0  0  0  0  # atno 8010 bound_to 7997
  139.7551  143.8459  152.2595 H   0  0  0  0  0  0  0  0  0  0  0  0  # atno 10167 bound_to 10162
  157.4617  131.1074  150.9912 H   0  0  0  0  0  0  0  0  0  0  0  0  # atno 10718 bound_to 10713
  153.7693  135.6913  153.4909 H   0  0  0  0  0  0  0  0  0  0  0  0  # atno 10763 bound_to 10752
  153.1885  135.4480  155.0118 H   0  0  0  0  0  0  0  0  0  0  0  0  # atno 10764 bound_to 10752
  154.8124  135.3383  154.7203 H   0  0  0  0  0  0  0  0  0  0  0  0  # atno 10765 bound_to 10752
  140.4683  134.6189  157.4871 H   0  0  0  0  0  0  0  0  0  0  0  0  # atno 11005 bound_to 11000
  145.3674  139.1667  143.4350 LP  0  0  0  0  0  0  0  0  0  0  0  0  # atno 17320 bound_to 7965
  146.3089  140.3743  142.8677 LP  0  0  0  0  0  0  0  0  0  0  0  0  # atno 17321 bound_to 7965
  139.8449  144.7192  150.9285 LP  0  0  0  0  0  0  0  0  0  0  0  0  # atno 17342 bound_to 10162
  140.7802  143.3950  151.1245 LP  0  0  0  0  0  0  0  0  0  0  0  0  # atno 17343 bound_to 10162
  157.0707  130.5863  149.5402 LP  0  0  0  0  0  0  0  0  0  0  0  0  # atno 17370 bound_to 10713
  156.0031  130.5114  150.7736 LP  0  0  0  0  0  0  0  0  0  0  0  0  # atno 17371 bound_to 10713
  139.9901  134.6998  155.9704 LP  0  0  0  0  0  0  0  0  0  0  0  0  # atno 17394 bound_to 11000
  141.1589  133.6540  156.4252 LP  0  0  0  0  0  0  0  0  0  0  0  0  # atno 17395 bound_to 11000

$$$$
