AV-unprocessed.smi:3331|AV-procd|sdf|12828|dock5
  -GOLD-   2272019203D 1   1.00000     0.00000
 Structure written by MMmdl.
 46 47  0  0  0  0  0  0  0  0  1 V2000
  146.2315  141.6535  157.6995 C   0  0  0  0  0  0  0  0  0  0  0  0
  147.0763  141.1229  156.5328 C   0  0  1  0  0  0  0  0  0  0  0  0
  146.3325  141.2685  155.1850 C   0  0  0  0  0  0  0  0  0  0  0  0
  147.2039  140.8770  153.9699 C   0  0  2  0  0  0  0  0  0  0  0  0
  147.3289  139.3509  153.8130 C   0  0  0  0  0  0  0  0  0  0  0  0
  148.5733  141.5853  154.0587 C   0  0  0  0  0  0  0  0  0  0  0  0
  149.2156  141.2613  155.3408 N   0  0  0  0  0  0  0  0  0  0  0  0
  150.3171  140.4881  155.5216 C   0  0  0  0  0  0  0  0  0  0  0  0
  150.8883  139.9404  154.5762 O   0  0  0  0  0  0  0  0  0  0  0  0
  150.8958  140.2700  156.9402 C   0  0  1  0  0  0  0  0  0  0  0  0
  151.9422  139.1449  156.9102 C   0  0  0  0  0  0  0  0  0  0  0  0
  151.4961  141.4845  157.5236 N   0  0  0  0  0  0  0  0  0  0  0  0
  151.7907  141.3658  158.9477 C   0  0  0  0  0  0  0  0  0  0  0  0
  152.6558  142.5542  159.3900 C   0  0  0  0  0  0  0  0  0  0  0  0
  151.8876  143.7832  159.4414 N   0  0  0  0  0  0  0  0  0  0  0  0
  151.7716  144.6786  160.4839 C   0  0  0  0  0  0  0  0  0  0  0  0
  150.9454  145.6826  160.0665 C   0  0  0  0  0  0  0  0  0  0  0  0
  150.6027  145.3075  158.7374 C   0  0  0  0  0  0  0  0  0  0  0  0
  151.1672  144.1695  158.3665 N   0  0  0  0  0  0  0  0  0  0  0  0
  148.4523  141.8187  156.4658 C   0  0  0  0  0  0  0  0  0  0  0  0
  146.0313  142.7199  157.5920 H   0  0  0  0  0  0  0  0  0  0  0  0
  146.7409  141.5044  158.6519 H   0  0  0  0  0  0  0  0  0  0  0  0
  145.2726  141.1378  157.7552 H   0  0  0  0  0  0  0  0  0  0  0  0
  147.2471  140.0608  156.7137 H   0  0  0  0  0  0  0  0  0  0  0  0
  145.4114  140.6843  155.1945 H   0  0  0  0  0  0  0  0  0  0  0  0
  146.0258  142.3087  155.0661 H   0  0  0  0  0  0  0  0  0  0  0  0
  146.7010  141.2420  153.0735 H   0  0  0  0  0  0  0  0  0  0  0  0
  147.8125  138.8891  154.6736 H   0  0  0  0  0  0  0  0  0  0  0  0
  147.9134  139.0954  152.9291 H   0  0  0  0  0  0  0  0  0  0  0  0
  146.3481  138.8886  153.7004 H   0  0  0  0  0  0  0  0  0  0  0  0
  149.1822  141.3647  153.1844 H   0  0  0  0  0  0  0  0  0  0  0  0
  148.4227  142.6650  154.0129 H   0  0  0  0  0  0  0  0  0  0  0  0
  150.1019  139.9759  157.6236 H   0  0  0  0  0  0  0  0  0  0  0  0
  151.5184  138.2153  156.5288 H   0  0  0  0  0  0  0  0  0  0  0  0
  152.3254  138.9402  157.9104 H   0  0  0  0  0  0  0  0  0  0  0  0
  152.7917  139.4058  156.2772 H   0  0  0  0  0  0  0  0  0  0  0  0
  150.9223  142.2988  157.3561 H   0  0  0  0  0  0  0  0  0  0  0  0
  150.8721  141.3481  159.5348 H   0  0  0  0  0  0  0  0  0  0  0  0
  152.3172  140.4293  159.1371 H   0  0  0  0  0  0  0  0  0  0  0  0
  153.0879  142.3716  160.3754 H   0  0  0  0  0  0  0  0  0  0  0  0
  153.4888  142.6968  158.6997 H   0  0  0  0  0  0  0  0  0  0  0  0
  152.2813  144.5297  161.4243 H   0  0  0  0  0  0  0  0  0  0  0  0
  150.6335  146.5526  160.6251 H   0  0  0  0  0  0  0  0  0  0  0  0
  149.9642  145.8241  158.0361 H   0  0  0  0  0  0  0  0  0  0  0  0
  148.3275  142.8932  156.3226 H   0  0  0  0  0  0  0  0  0  0  0  0
  148.9673  141.7105  157.4213 H   0  0  0  0  0  0  0  0  0  0  0  0
  1  2  1  0  0  0  0
  1 21  1  0  0  0  0
  1 22  1  0  0  0  0
  1 23  1  0  0  0  0
  2 20  1  0  0  0  0
  2  3  1  0  0  0  0
  2 24  1  0  0  0  0
  3  4  1  0  0  0  0
  3 25  1  0  0  0  0
  3 26  1  0  0  0  0
  4  5  1  0  0  0  0
  4  6  1  0  0  0  0
  4 27  1  0  0  0  0
  5 28  1  0  0  0  0
  5 29  1  0  0  0  0
  5 30  1  0  0  0  0
  6  7  1  0  0  0  0
  6 31  1  0  0  0  0
  6 32  1  0  0  0  0
  7  8  1  0  0  0  0
  7 20  1  0  0  0  0
  8  9  2  0  0  0  0
  8 10  1  0  0  0  0
 10 11  1  0  0  0  0
 10 12  1  0  0  0  0
 10 33  1  0  0  0  0
 11 34  1  0  0  0  0
 11 35  1  0  0  0  0
 11 36  1  0  0  0  0
 12 13  1  0  0  0  0
 12 37  1  0  0  0  0
 13 14  1  0  0  0  0
 13 38  1  0  0  0  0
 13 39  1  0  0  0  0
 14 15  1  0  0  0  0
 14 40  1  0  0  0  0
 14 41  1  0  0  0  0
 15 19  1  0  0  0  0
 15 16  1  0  0  0  0
 16 17  2  0  0  0  0
 16 42  1  0  0  0  0
 17 18  1  0  0  0  0
 17 43  1  0  0  0  0
 18 19  2  0  0  0  0
 18 44  1  0  0  0  0
 20 45  1  0  0  0  0
 20 46  1  0  0  0  0
M  END
> <s_m_source_file>
AV-unprocessed.smi

> <i_m_source_file_index>
3331

> <i_lp_mmshare_version>
43012

> <i_f3d_flags>
0

> <s_epik_input>
W0NIM11bQ0BASF0xW0NIMl1bQ0BASF0oW0NIM10pW0NIMl1OKFtDSDJdMSlDKD1PKVtDQEhdKFtDSDNdKVtOSF1bQ0gyXVtDSDJdbjJbY0hdW2NIXVtjSF1uMg==

> <s_epik_cmdline>
J2VwaWtfcHl0aG9uJywgJy1waCcsICc3LjAnLCAnLXRuJywgJzgnLCAnLW1hJywgJzIwMCcsICctbWV0YWxfYmluZGluZycsICctaW1hZScsICc8aW5maWxlLm1hZT4nLCAnLW9tYWUnLCAnPG91dGZpbGUubWFlPic=

> <r_lp_tautomer_probability>
1

> <r_epik_Ionization_Penalty>
0.767994

> <r_epik_Ionization_Penalty_Charging>
0

> <r_epik_Ionization_Penalty_Neutral>
0.767994

> <r_epik_State_Penalty>
0.795453

> <r_epik_Charging_Adjusted_Penalty>
0.795453

> <i_epik_Tot_Q>
0

> <i_epik_Tot_abs_Q>
0

> <r_epik_Metal_State_Penalty>
0.794784

> <b_epik_Metal_Only>
0

> <s_lp_Force_Field>
OPLS_2005

> <r_lp_Energy>
29.1639

> <b_lp_Chiralities_Consistent>
1

> <s_lp_Variant>
AV-unprocessed.smi:3331-12

> <Gold.Version>
5.8.1

> <Gold.Id.Protein>
6NUR|6NUR_protein|mol2

> <Gold.PLP.Fitness>
44.7429

> <Gold.PLP.PLP>
-39.5503

> <Gold.PLP.part.hbond>
-1.0000

> <Gold.PLP.part.metal>
0.0000

> <Gold.PLP.part.buried>
-4.3168

> <Gold.PLP.part.nonpolar>
-34.9392

> <Gold.PLP.part.repulsive>
0.1999

> <Gold.PLP.ligand.clash>
0.0000

> <Gold.PLP.ligand.torsion>
0.3848

> <Gold.PLP.Chemscore.Hbond>
1.0000

> <Gold.PLP.Chemscore.CHOScore>
0.9676

> <Gold.PLP.Chemscore.Metal>
0.0000

> <Gold.Chemscore.Hbonds>
donor molecule, donor type, donor heavy atom, donor atom, acceptor molecule, acceptor atom, score
      P1  H  7989  7998       L1     9  1.00
      L1  C    18    44       P1  8029  1.00

> <Gold.PLP.Chemscore.Internal.Correction>
0.0595

> <Gold.Rescore>
     Score         DG    S(hbond)    S(metal)    S(lipo)     H(rot)  DE(clash)    DE(int)     intcor
     13.17     -14.90       0.97        0.00      89.19       1.66       0.06       1.66       ----

> <Gold.Chemscore.Fitness>
13.1748

> <Gold.Chemscore.DG>
-14.9019

> <Gold.Chemscore.ZeroCoef>
-5.4800

> <Gold.Chemscore.Hbond>
0.9726

> <Gold.Chemscore.Metal>
0.0000

> <Gold.Chemscore.Lipo>
89.1933

> <Gold.Chemscore.Internal_Hbond>
0.0000

> <Gold.Chemscore.DEClash>
0.0641

> <Gold.Chemscore.DEInternal>
1.6630

> <Gold.Chemscore.Rot>
1.6649

> <Gold.Chemscore.Internal.Correction>
   9.000000E+99

> <Gold.Chemscore.Hbonds>
donor molecule, donor type, donor heavy atom, donor atom, acceptor molecule, acceptor atom, score
      P1  H  7989  7998       L1     9  0.94

> <Gold.Chemscore.Hbond.Weighted>
-3.2484

> <Gold.Chemscore.Metal.Weighted>
-0.0000

> <Gold.Chemscore.Lipo.Weighted>
-10.4356

> <Gold.Chemscore.Internal_Hbond.Weighted>
0.0000

> <Gold.Chemscore.DEClash.Weighted>
0.0641

> <Gold.Chemscore.DEInternal.Weighted>
1.6630

> <Gold.Chemscore.Rot.Weighted>
4.2621

> <Gold.Chemscore.Internal.Correction.Weighted>
   9.000000E+99

> <Gold.Protein.RotatedTorsions>
[ 6907 6896 6895 6894 ] final -109.79 input  -60.11 | X-H torsion
[ 7974 7965 7964 7962 ] final  -27.31 input  175.53 | X-H torsion
[ 8008 7997 7996 7995 ] final  -93.63 input   59.86 | X-H torsion
[ 10167 10162 10161 10158 ] final -115.01 input  -65.29 | X-H torsion
[ 10718 10713 10712 10709 ] final   -9.32 input   66.30 | X-H torsion
[ 10763 10752 10751 10750 ] final -117.03 input  -60.55 | X-H torsion
[ 11005 11000 10999 10996 ] final    4.31 input  -57.11 | X-H torsion

> <Gold.Protein.ActiveResidues>
 VAL166  LYS551  ARG553  GLY616  TRP617  ASP618  TYR619  PRO620  LYS621  CYS622 
 ASP623  PHE694  ASN695  SER759  ASP760  ASP761  ALA762  ILE779  LEU786  VAL792 
 PHE793  MET794  SER795  GLU796  ALA797  LYS798  CYS799  TRP800  GLU811  SER814 

> <Gold.Protein.RotatedAtoms>
  150.7584  133.9477  159.3475 H   0  0  0  0  0  0  0  0  0  0  0  0  # atno 6907 bound_to 6896
  151.7392  135.0856  160.0322 H   0  0  0  0  0  0  0  0  0  0  0  0  # atno 6908 bound_to 6896
  152.3540  133.6176  159.6001 H   0  0  0  0  0  0  0  0  0  0  0  0  # atno 6909 bound_to 6896
  146.1366  140.5135  142.8670 H   0  0  0  0  0  0  0  0  0  0  0  0  # atno 7974 bound_to 7965
  154.7382  140.0497  157.0787 H   0  0  0  0  0  0  0  0  0  0  0  0  # atno 8008 bound_to 7997
  155.0213  140.3147  155.4773 H   0  0  0  0  0  0  0  0  0  0  0  0  # atno 8009 bound_to 7997
  156.2858  140.2166  156.5331 H   0  0  0  0  0  0  0  0  0  0  0  0  # atno 8010 bound_to 7997
  140.0947  143.4667  152.1848 H   0  0  0  0  0  0  0  0  0  0  0  0  # atno 10167 bound_to 10162
  156.6897  130.5061  149.5947 H   0  0  0  0  0  0  0  0  0  0  0  0  # atno 10718 bound_to 10713
  154.8541  135.4324  154.1915 H   0  0  0  0  0  0  0  0  0  0  0  0  # atno 10763 bound_to 10752
  153.2982  135.6967  153.7234 H   0  0  0  0  0  0  0  0  0  0  0  0  # atno 10764 bound_to 10752
  153.6374  135.3474  155.3035 H   0  0  0  0  0  0  0  0  0  0  0  0  # atno 10765 bound_to 10752
  140.5834  133.9992  155.8057 H   0  0  0  0  0  0  0  0  0  0  0  0  # atno 11005 bound_to 11000
  144.7747  140.5713  143.6646 LP  0  0  0  0  0  0  0  0  0  0  0  0  # atno 17320 bound_to 7965
  145.5141  139.1478  143.3588 LP  0  0  0  0  0  0  0  0  0  0  0  0  # atno 17321 bound_to 7965
  139.5705  144.7460  151.3905 LP  0  0  0  0  0  0  0  0  0  0  0  0  # atno 17342 bound_to 10162
  140.7010  143.7632  150.7402 LP  0  0  0  0  0  0  0  0  0  0  0  0  # atno 17343 bound_to 10162
  156.1807  130.6497  151.0947 LP  0  0  0  0  0  0  0  0  0  0  0  0  # atno 17370 bound_to 10713
  157.7013  131.0774  150.6810 LP  0  0  0  0  0  0  0  0  0  0  0  0  # atno 17371 bound_to 10713
  141.0982  133.9811  157.3125 LP  0  0  0  0  0  0  0  0  0  0  0  0  # atno 17394 bound_to 11000
  139.9307  135.0200  156.8389 LP  0  0  0  0  0  0  0  0  0  0  0  0  # atno 17395 bound_to 11000

$$$$
