AV-unprocessed.smi:3032|AV-procd|sdf|11566|dock6
  -GOLD-   2272016533D 1   1.00000     0.00000
 Structure written by MMmdl.
 37 38  0  0  0  0  0  0  0  0  1 V2000
  153.6247  142.0333  160.7780 C   0  0  0  0  0  0  0  0  0  0  0  0
  152.5629  142.7931  159.9702 C   0  0  1  0  0  0  0  0  0  0  0  0
  153.2062  143.8334  159.0333 C   0  0  0  0  0  0  0  0  0  0  0  0
  152.1472  144.5857  158.2121 C   0  0  0  0  0  0  0  0  0  0  0  0
  151.2640  143.6110  157.4179 C   0  0  0  0  0  0  0  0  0  0  0  0
  150.5981  142.5781  158.3504 C   0  0  1  0  0  0  0  0  0  0  0  0
  149.7365  141.5874  157.5576 C   0  0  0  0  0  0  0  0  0  0  0  0
  149.6404  140.4169  157.9269 O   0  0  0  0  0  0  0  0  0  0  0  0
  149.0942  142.0775  156.4850 N   0  0  0  0  0  0  0  0  0  0  0  0
  148.1437  141.3390  155.6564 C   0  0  0  0  0  0  0  0  0  0  0  0
  148.6845  141.0889  154.2352 C   0  0  0  0  0  0  0  0  0  0  0  0
  149.7753  140.0658  154.1688 C   0  0  0  0  0  0  0  0  0  0  0  0
  151.0255  140.2524  154.6085 N   0  0  0  0  0  0  0  0  0  0  0  0
  151.6811  139.0512  154.3881 N   0  0  0  0  0  0  0  0  0  0  0  0
  150.7629  138.2570  153.8356 C   0  0  0  0  0  0  0  0  0  0  0  0
  149.5674  138.8354  153.6741 N   0  0  0  0  0  0  0  0  0  0  0  0
  151.6692  141.8261  159.1693 C   0  0  0  0  0  0  0  0  0  0  0  0
  148.7215  138.4421  153.2885 H   0  0  0  0  0  0  0  0  0  0  0  0
  154.2869  141.4643  160.1249 H   0  0  0  0  0  0  0  0  0  0  0  0
  153.1616  141.3331  161.4738 H   0  0  0  0  0  0  0  0  0  0  0  0
  154.2407  142.7183  161.3613 H   0  0  0  0  0  0  0  0  0  0  0  0
  151.9293  143.3265  160.6803 H   0  0  0  0  0  0  0  0  0  0  0  0
  153.7917  144.5470  159.6135 H   0  0  0  0  0  0  0  0  0  0  0  0
  153.9048  143.3389  158.3570 H   0  0  0  0  0  0  0  0  0  0  0  0
  151.5248  145.1845  158.8782 H   0  0  0  0  0  0  0  0  0  0  0  0
  152.6336  145.2850  157.5316 H   0  0  0  0  0  0  0  0  0  0  0  0
  150.5033  144.1705  156.8717 H   0  0  0  0  0  0  0  0  0  0  0  0
  151.8743  143.1056  156.6674 H   0  0  0  0  0  0  0  0  0  0  0  0
  149.9522  143.1164  159.0465 H   0  0  0  0  0  0  0  0  0  0  0  0
  149.2399  143.0492  156.2526 H   0  0  0  0  0  0  0  0  0  0  0  0
  147.9382  140.3848  156.1413 H   0  0  0  0  0  0  0  0  0  0  0  0
  147.1881  141.8631  155.6032 H   0  0  0  0  0  0  0  0  0  0  0  0
  147.8689  140.7735  153.5831 H   0  0  0  0  0  0  0  0  0  0  0  0
  149.0621  142.0233  153.8188 H   0  0  0  0  0  0  0  0  0  0  0  0
  150.9663  137.2369  153.5451 H   0  0  0  0  0  0  0  0  0  0  0  0
  152.2919  141.2242  158.5052 H   0  0  0  0  0  0  0  0  0  0  0  0
  151.1860  141.1259  159.8525 H   0  0  0  0  0  0  0  0  0  0  0  0
  1  2  1  0  0  0  0
  1 19  1  0  0  0  0
  1 20  1  0  0  0  0
  1 21  1  0  0  0  0
  2 17  1  0  0  0  0
  2  3  1  0  0  0  0
  2 22  1  0  0  0  0
  3  4  1  0  0  0  0
  3 23  1  0  0  0  0
  3 24  1  0  0  0  0
  4  5  1  0  0  0  0
  4 25  1  0  0  0  0
  4 26  1  0  0  0  0
  5  6  1  0  0  0  0
  5 27  1  0  0  0  0
  5 28  1  0  0  0  0
  6  7  1  0  0  0  0
  6 17  1  0  0  0  0
  6 29  1  0  0  0  0
  7  8  2  0  0  0  0
  7  9  1  0  0  0  0
  9 10  1  0  0  0  0
  9 30  1  0  0  0  0
 10 11  1  0  0  0  0
 10 31  1  0  0  0  0
 10 32  1  0  0  0  0
 11 12  1  0  0  0  0
 11 33  1  0  0  0  0
 11 34  1  0  0  0  0
 12 16  1  0  0  0  0
 12 13  2  0  0  0  0
 13 14  1  0  0  0  0
 14 15  2  0  0  0  0
 15 16  1  0  0  0  0
 15 35  1  0  0  0  0
 16 18  1  0  0  0  0
 17 36  1  0  0  0  0
 17 37  1  0  0  0  0
M  END
> <s_m_source_file>
AV-unprocessed.smi

> <i_m_source_file_index>
3032

> <i_lp_mmshare_version>
43012

> <i_f3d_flags>
0

> <s_epik_input>
W0NIM11bQ0BASF0xW0NIMl1bQ0gyXVtDSDJdW0NASF0oW0NIMl0xKUMoPU8pW05IXVtDSDJdW0NIMl1jMm5uW2NIXVtuSF0y

> <s_epik_cmdline>
J2VwaWtfcHl0aG9uJywgJy1waCcsICc3LjAnLCAnLXRuJywgJzgnLCAnLW1hJywgJzIwMCcsICctbWV0YWxfYmluZGluZycsICctaW1hZScsICc8aW5maWxlLm1hZT4nLCAnLW9tYWUnLCAnPG91dGZpbGUubWFlPic=

> <r_lp_tautomer_probability>
0.0517155

> <r_epik_Ionization_Penalty>
0.00149837

> <r_epik_Ionization_Penalty_Charging>
0

> <r_epik_Ionization_Penalty_Neutral>
0.00149837

> <r_epik_State_Penalty>
2.1109

> <r_epik_Charging_Adjusted_Penalty>
2.1109

> <i_epik_Tot_Q>
0

> <i_epik_Tot_abs_Q>
0

> <r_epik_Metal_State_Penalty>
2.23635

> <b_epik_Metal_Only>
0

> <s_lp_Force_Field>
OPLS_2005

> <r_lp_Energy>
11.6052

> <b_lp_Chiralities_Consistent>
1

> <s_lp_Variant>
AV-unprocessed.smi:3032-10

> <Gold.Version>
5.8.1

> <Gold.Id.Protein>
6NUR|6NUR_protein|mol2

> <Gold.PLP.Fitness>
45.4787

> <Gold.PLP.PLP>
-38.3538

> <Gold.PLP.part.hbond>
-4.0693

> <Gold.PLP.part.metal>
0.0000

> <Gold.PLP.part.buried>
-2.3174

> <Gold.PLP.part.nonpolar>
-32.5931

> <Gold.PLP.part.repulsive>
0.2750

> <Gold.PLP.ligand.clash>
0.0000

> <Gold.PLP.ligand.torsion>
0.8876

> <Gold.PLP.Chemscore.Hbond>
1.9500

> <Gold.PLP.Chemscore.CHOScore>
1.0113

> <Gold.PLP.Chemscore.Metal>
0.0000

> <Gold.Chemscore.Hbonds>
donor molecule, donor type, donor heavy atom, donor atom, acceptor molecule, acceptor atom, score
      L1  H     9    30       P1  8028  1.00
      P1  H  7989  7998       L1    13  0.45
      L1  C    15    35       P1  7948  0.07
      L1  C    15    35       P1  7949  1.00

> <Gold.PLP.Chemscore.Internal.Correction>
0.0164

> <Gold.Rescore>
     Score         DG    S(hbond)    S(metal)    S(lipo)     H(rot)  DE(clash)    DE(int)     intcor
     13.09     -14.12       1.06        0.00      92.92       2.25       0.11       0.92       ----

> <Gold.Chemscore.Fitness>
13.0922

> <Gold.Chemscore.DG>
-14.1211

> <Gold.Chemscore.ZeroCoef>
-5.4800

> <Gold.Chemscore.Hbond>
1.0569

> <Gold.Chemscore.Metal>
0.0000

> <Gold.Chemscore.Lipo>
92.9193

> <Gold.Chemscore.Internal_Hbond>
0.0000

> <Gold.Chemscore.DEClash>
0.1127

> <Gold.Chemscore.DEInternal>
0.9163

> <Gold.Chemscore.Rot>
2.2501

> <Gold.Chemscore.Internal.Correction>
   9.000000E+99

> <Gold.Chemscore.Hbonds>
donor molecule, donor type, donor heavy atom, donor atom, acceptor molecule, acceptor atom, score
      L1  H     9    30       P1  8028  0.99
      P1  H  7989  7998       L1    13  0.01

> <Gold.Chemscore.Hbond.Weighted>
-3.5299

> <Gold.Chemscore.Metal.Weighted>
-0.0000

> <Gold.Chemscore.Lipo.Weighted>
-10.8716

> <Gold.Chemscore.Internal_Hbond.Weighted>
0.0000

> <Gold.Chemscore.DEClash.Weighted>
0.1127

> <Gold.Chemscore.DEInternal.Weighted>
0.9163

> <Gold.Chemscore.Rot.Weighted>
5.7603

> <Gold.Chemscore.Internal.Correction.Weighted>
   9.000000E+99

> <Gold.Protein.RotatedTorsions>
[ 6907 6896 6895 6894 ] final  -50.40 input  -60.11 | X-H torsion
[ 7974 7965 7964 7962 ] final  165.88 input  175.53 | X-H torsion
[ 8008 7997 7996 7995 ] final   51.88 input   59.86 | X-H torsion
[ 10167 10162 10161 10158 ] final -162.74 input  -65.29 | X-H torsion
[ 10718 10713 10712 10709 ] final  107.05 input   66.30 | X-H torsion
[ 10763 10752 10751 10750 ] final -114.72 input  -60.55 | X-H torsion
[ 11005 11000 10999 10996 ] final   57.74 input  -57.11 | X-H torsion

> <Gold.Protein.ActiveResidues>
 VAL166  LYS551  ARG553  GLY616  TRP617  ASP618  TYR619  PRO620  LYS621  CYS622 
 ASP623  PHE694  ASN695  SER759  ASP760  ASP761  ALA762  ILE779  LEU786  VAL792 
 PHE793  MET794  SER795  GLU796  ALA797  LYS798  CYS799  TRP800  GLU811  SER814 

> <Gold.Protein.RotatedAtoms>
  150.8711  134.8084  159.7154 H   0  0  0  0  0  0  0  0  0  0  0  0  # atno 6907 bound_to 6896
  152.4715  134.4946  159.9715 H   0  0  0  0  0  0  0  0  0  0  0  0  # atno 6908 bound_to 6896
  151.5034  133.3461  159.2908 H   0  0  0  0  0  0  0  0  0  0  0  0  # atno 6909 bound_to 6896
  144.7484  139.8535  143.6374 H   0  0  0  0  0  0  0  0  0  0  0  0  # atno 7974 bound_to 7965
  155.4425  140.3455  155.4291 H   0  0  0  0  0  0  0  0  0  0  0  0  # atno 8008 bound_to 7997
  156.1270  140.1503  156.9152 H   0  0  0  0  0  0  0  0  0  0  0  0  # atno 8009 bound_to 7997
  154.4865  140.0853  156.7478 H   0  0  0  0  0  0  0  0  0  0  0  0  # atno 8010 bound_to 7997
  139.6370  144.0331  152.2062 H   0  0  0  0  0  0  0  0  0  0  0  0  # atno 10167 bound_to 10162
  157.6644  131.0864  150.6099 H   0  0  0  0  0  0  0  0  0  0  0  0  # atno 10718 bound_to 10713
  154.8452  135.4407  154.1550 H   0  0  0  0  0  0  0  0  0  0  0  0  # atno 10763 bound_to 10752
  153.2701  135.6944  153.7495 H   0  0  0  0  0  0  0  0  0  0  0  0  # atno 10764 bound_to 10752
  153.6739  135.3414  155.3136 H   0  0  0  0  0  0  0  0  0  0  0  0  # atno 10765 bound_to 10752
  140.0429  134.5847  155.9358 H   0  0  0  0  0  0  0  0  0  0  0  0  # atno 11005 bound_to 11000
  146.1399  139.4453  143.0115 LP  0  0  0  0  0  0  0  0  0  0  0  0  # atno 17320 bound_to 7965
  145.7034  141.0129  143.1492 LP  0  0  0  0  0  0  0  0  0  0  0  0  # atno 17321 bound_to 7965
  140.0011  144.6293  150.7729 LP  0  0  0  0  0  0  0  0  0  0  0  0  # atno 17342 bound_to 10162
  140.7470  143.2900  151.3356 LP  0  0  0  0  0  0  0  0  0  0  0  0  # atno 17343 bound_to 10162
  156.6400  130.4456  149.5756 LP  0  0  0  0  0  0  0  0  0  0  0  0  # atno 17370 bound_to 10713
  156.2216  130.6741  151.1374 LP  0  0  0  0  0  0  0  0  0  0  0  0  # atno 17371 bound_to 10713
  141.1892  133.6565  156.5359 LP  0  0  0  0  0  0  0  0  0  0  0  0  # atno 17394 bound_to 11000
  140.4039  134.7332  157.4796 LP  0  0  0  0  0  0  0  0  0  0  0  0  # atno 17395 bound_to 11000

$$$$
