AV-unprocessed.smi:194|AV-procd|sdf|1520|dock8
  -GOLD-   2262019363D 1   1.00000     0.00000
 Structure written by MMmdl.
 53 55  0  0  0  0  0  0  0  0  1 V2000
  153.4267  140.9728  161.1764 C   0  0  0  0  0  0  0  0  0  0  0  0
  152.9757  140.6308  159.7471 C   0  0  2  0  0  0  0  0  0  0  0  0
  151.7614  141.4797  159.3192 C   0  0  0  0  0  0  0  0  0  0  0  0
  152.0754  143.2550  159.7647 S   0  0  1  0  0  0  0  0  0  0  0  0
  151.9794  143.9290  158.0407 C   0  0  0  0  0  0  0  0  0  0  0  0
  150.8317  143.7510  160.5048 O   0  0  0  0  0  0  0  0  0  0  0  0
  152.7322  139.1878  159.6090 N   0  0  0  0  0  0  0  0  0  0  0  0
  153.7744  138.2181  159.9325 C   0  0  0  0  0  0  0  0  0  0  0  0
  151.6536  138.7666  158.8962 C   0  0  0  0  0  0  0  0  0  0  0  0
  150.6927  138.0584  159.5454 N   0  0  0  0  0  0  0  0  0  0  0  0
  149.6194  137.6088  158.8910 C   0  0  0  0  0  0  0  0  0  0  0  0
  149.3096  137.7515  157.6022 N   0  0  0  0  0  0  0  0  0  0  0  0
  150.2672  138.4598  156.9384 C   0  0  0  0  0  0  0  0  0  0  0  0
  151.4578  139.0037  157.5026 C   0  0  0  0  0  0  0  0  0  0  0  0
  152.1690  139.6843  156.5201 N   0  0  0  0  0  0  0  0  0  0  0  0
  151.4468  139.5457  155.4431 C   0  0  0  0  0  0  0  0  0  0  0  0
  150.2963  138.8068  155.5981 N   0  0  0  0  0  0  0  0  0  0  0  0
  149.3132  138.5072  154.5669 C   0  0  0  0  0  0  0  0  0  0  0  0
  148.0398  139.4069  154.5588 C   0  0  0  0  0  0  0  0  0  0  0  0
  146.9620  138.8428  153.5845 C   0  0  0  0  0  0  0  0  0  0  0  0
  147.4539  138.5578  152.2903 O   0  0  0  0  0  0  0  0  0  0  0  0
  147.4797  139.5930  155.9924 C   0  0  0  0  0  0  0  0  0  0  0  0
  146.4357  140.7192  156.0787 C   0  0  0  0  0  0  0  0  0  0  0  0
  147.0113  141.9419  155.6380 O   0  0  0  0  0  0  0  0  0  0  0  0
  147.4166  141.9010  154.2763 C   0  0  0  0  0  0  0  0  0  0  0  0
  148.4856  140.8094  154.0707 C   0  0  0  0  0  0  0  0  0  0  0  0
  153.6946  142.0263  161.2606 H   0  0  0  0  0  0  0  0  0  0  0  0
  154.3026  140.3887  161.4609 H   0  0  0  0  0  0  0  0  0  0  0  0
  152.6409  140.7733  161.9057 H   0  0  0  0  0  0  0  0  0  0  0  0
  153.8038  140.9247  159.1019 H   0  0  0  0  0  0  0  0  0  0  0  0
  151.5555  141.3930  158.2528 H   0  0  0  0  0  0  0  0  0  0  0  0
  150.8666  141.1477  159.8464 H   0  0  0  0  0  0  0  0  0  0  0  0
  152.7269  143.4557  157.4041 H   0  0  0  0  0  0  0  0  0  0  0  0
  152.1603  145.0037  158.0478 H   0  0  0  0  0  0  0  0  0  0  0  0
  150.9922  143.7468  157.6156 H   0  0  0  0  0  0  0  0  0  0  0  0
  153.3423  137.2448  160.1680 H   0  0  0  0  0  0  0  0  0  0  0  0
  154.3563  138.5338  160.7970 H   0  0  0  0  0  0  0  0  0  0  0  0
  154.4608  138.0992  159.0938 H   0  0  0  0  0  0  0  0  0  0  0  0
  148.9086  137.0538  159.4856 H   0  0  0  0  0  0  0  0  0  0  0  0
  151.7408  139.9727  154.4954 H   0  0  0  0  0  0  0  0  0  0  0  0
  149.8227  138.5701  153.6043 H   0  0  0  0  0  0  0  0  0  0  0  0
  149.0246  137.4608  154.6773 H   0  0  0  0  0  0  0  0  0  0  0  0
  146.5330  137.9148  153.9575 H   0  0  0  0  0  0  0  0  0  0  0  0
  146.1317  139.5435  153.4936 H   0  0  0  0  0  0  0  0  0  0  0  0
  147.9020  137.7262  152.3152 H   0  0  0  0  0  0  0  0  0  0  0  0
  147.0510  138.6663  156.3736 H   0  0  0  0  0  0  0  0  0  0  0  0
  148.2983  139.8419  156.6686 H   0  0  0  0  0  0  0  0  0  0  0  0
  145.5450  140.4847  155.4946 H   0  0  0  0  0  0  0  0  0  0  0  0
  146.1099  140.8428  157.1114 H   0  0  0  0  0  0  0  0  0  0  0  0
  146.5504  141.7509  153.6319 H   0  0  0  0  0  0  0  0  0  0  0  0
  147.8296  142.8740  154.0102 H   0  0  0  0  0  0  0  0  0  0  0  0
  149.3787  141.1172  154.6168 H   0  0  0  0  0  0  0  0  0  0  0  0
  148.7761  140.7711  153.0200 H   0  0  0  0  0  0  0  0  0  0  0  0
  1  2  1  0  0  0  0
  1 27  1  0  0  0  0
  1 28  1  0  0  0  0
  1 29  1  0  0  0  0
  2  3  1  0  0  0  0
  2  7  1  0  0  0  0
  2 30  1  0  0  0  0
  3  4  1  0  0  0  0
  3 31  1  0  0  0  0
  3 32  1  0  0  0  0
  4  5  1  0  0  0  0
  4  6  2  0  0  0  0
  5 33  1  0  0  0  0
  5 34  1  0  0  0  0
  5 35  1  0  0  0  0
  7  8  1  0  0  0  0
  7  9  1  0  0  0  0
  8 36  1  0  0  0  0
  8 37  1  0  0  0  0
  8 38  1  0  0  0  0
  9 14  1  0  0  0  0
  9 10  2  0  0  0  0
 10 11  1  0  0  0  0
 11 12  2  0  0  0  0
 11 39  1  0  0  0  0
 12 13  1  0  0  0  0
 13 17  1  0  0  0  0
 13 14  2  0  0  0  0
 14 15  1  0  0  0  0
 15 16  2  0  0  0  0
 16 17  1  0  0  0  0
 16 40  1  0  0  0  0
 17 18  1  0  0  0  0
 18 19  1  0  0  0  0
 18 41  1  0  0  0  0
 18 42  1  0  0  0  0
 19 26  1  0  0  0  0
 19 20  1  0  0  0  0
 19 22  1  0  0  0  0
 20 21  1  0  0  0  0
 20 43  1  0  0  0  0
 20 44  1  0  0  0  0
 21 45  1  0  0  0  0
 22 23  1  0  0  0  0
 22 46  1  0  0  0  0
 22 47  1  0  0  0  0
 23 24  1  0  0  0  0
 23 48  1  0  0  0  0
 23 49  1  0  0  0  0
 24 25  1  0  0  0  0
 25 26  1  0  0  0  0
 25 50  1  0  0  0  0
 25 51  1  0  0  0  0
 26 52  1  0  0  0  0
 26 53  1  0  0  0  0
M  END
> <s_m_source_file>
AV-unprocessed.smi

> <i_m_source_file_index>
194

> <i_lp_mmshare_version>
43012

> <i_f3d_flags>
0

> <s_epik_input>
W0NIM11bU0BAXSg9TylbQ0gyXVtDQEBIXShbQ0gzXSlOKFtDSDNdKWMobltjSF1uMSljKGMxMiluW2NIXW4yW0NIMl1DMyhbQ0gyXVtPSF0pW0NIMl1bQ0gyXU9bQ0gyXVtDSDJdMw==

> <s_epik_cmdline>
J2VwaWtfcHl0aG9uJywgJy1waCcsICc3LjAnLCAnLXRuJywgJzgnLCAnLW1hJywgJzIwMCcsICctbWV0YWxfYmluZGluZycsICctaW1hZScsICc8aW5maWxlLm1hZT4nLCAnLW9tYWUnLCAnPG91dGZpbGUubWFlPic=

> <r_lp_tautomer_probability>
1

> <r_epik_Ionization_Penalty>
0.00101625

> <r_epik_Ionization_Penalty_Charging>
0

> <r_epik_Ionization_Penalty_Neutral>
0.00101625

> <r_epik_State_Penalty>
0.000568005

> <r_epik_Charging_Adjusted_Penalty>
0.000568005

> <i_epik_Tot_Q>
0

> <i_epik_Tot_abs_Q>
0

> <r_epik_Metal_State_Penalty>
-0

> <b_epik_Metal_Only>
0

> <s_lp_Force_Field>
OPLS_2005

> <r_lp_Energy>
28.4609

> <b_lp_Chiralities_Consistent>
1

> <s_lp_Variant>
AV-unprocessed.smi:194-1

> <Gold.Version>
5.8.1

> <Gold.Id.Protein>
6NUR|6NUR_protein|mol2

> <Gold.PLP.Fitness>
46.9543

> <Gold.PLP.PLP>
-44.5890

> <Gold.PLP.part.hbond>
-3.9577

> <Gold.PLP.part.metal>
0.0000

> <Gold.PLP.part.buried>
-4.1109

> <Gold.PLP.part.nonpolar>
-36.5353

> <Gold.PLP.part.repulsive>
0.2544

> <Gold.PLP.ligand.clash>
0.0730

> <Gold.PLP.ligand.torsion>
2.0674

> <Gold.PLP.Chemscore.Hbond>
2.0000

> <Gold.PLP.Chemscore.CHOScore>
0.0000

> <Gold.PLP.Chemscore.Metal>
0.0000

> <Gold.Chemscore.Hbonds>
donor molecule, donor type, donor heavy atom, donor atom, acceptor molecule, acceptor atom, score
      L1  H    21    45       P1  7948  1.00
      P1  H  7997  8008       L1    15  0.55

> <Gold.PLP.Chemscore.Internal.Correction>
0.5731

> <Gold.Rescore>
     Score         DG    S(hbond)    S(metal)    S(lipo)     H(rot)  DE(clash)    DE(int)     intcor
     12.23     -14.26       1.99        0.00      84.52       3.03       0.05       1.99       ----

> <Gold.Chemscore.Fitness>
12.2251

> <Gold.Chemscore.DG>
-14.2574

> <Gold.Chemscore.ZeroCoef>
-5.4800

> <Gold.Chemscore.Hbond>
1.9893

> <Gold.Chemscore.Metal>
0.0000

> <Gold.Chemscore.Lipo>
84.5176

> <Gold.Chemscore.Internal_Hbond>
0.0000

> <Gold.Chemscore.DEClash>
0.0466

> <Gold.Chemscore.DEInternal>
1.9856

> <Gold.Chemscore.Rot>
3.0295

> <Gold.Chemscore.Internal.Correction>
   9.000000E+99

> <Gold.Chemscore.Hbonds>
donor molecule, donor type, donor heavy atom, donor atom, acceptor molecule, acceptor atom, score
      L1  H    21    45       P1  7948  1.00
      P1  H  7997  8008       L1    15  0.54

> <Gold.Chemscore.Hbond.Weighted>
-6.6444

> <Gold.Chemscore.Metal.Weighted>
-0.0000

> <Gold.Chemscore.Lipo.Weighted>
-9.8886

> <Gold.Chemscore.Internal_Hbond.Weighted>
0.0000

> <Gold.Chemscore.DEClash.Weighted>
0.0466

> <Gold.Chemscore.DEInternal.Weighted>
1.9856

> <Gold.Chemscore.Rot.Weighted>
7.7555

> <Gold.Chemscore.Internal.Correction.Weighted>
   9.000000E+99

> <Gold.Protein.RotatedTorsions>
[ 6907 6896 6895 6894 ] final -136.05 input  -60.11 | X-H torsion
[ 7974 7965 7964 7962 ] final  -62.96 input  175.53 | X-H torsion
[ 8008 7997 7996 7995 ] final  -49.31 input   59.86 | X-H torsion
[ 10167 10162 10161 10158 ] final   47.61 input  -65.29 | X-H torsion
[ 10718 10713 10712 10709 ] final    7.82 input   66.30 | X-H torsion
[ 10763 10752 10751 10750 ] final  122.83 input  -60.55 | X-H torsion
[ 11005 11000 10999 10996 ] final   11.79 input  -57.11 | X-H torsion

> <Gold.Protein.ActiveResidues>
 VAL166  LYS551  ARG553  GLY616  TRP617  ASP618  TYR619  PRO620  LYS621  CYS622 
 ASP623  PHE694  ASN695  SER759  ASP760  ASP761  ALA762  ILE779  LEU786  VAL792 
 PHE793  MET794  SER795  GLU796  ALA797  LYS798  CYS799  TRP800  GLU811  SER814 

> <Gold.Protein.RotatedAtoms>
  151.0054  133.6016  159.2689 H   0  0  0  0  0  0  0  0  0  0  0  0  # atno 6907 bound_to 6896
  151.3187  135.0812  159.9308 H   0  0  0  0  0  0  0  0  0  0  0  0  # atno 6908 bound_to 6896
  152.5285  133.9705  159.7814 H   0  0  0  0  0  0  0  0  0  0  0  0  # atno 6909 bound_to 6896
  145.7849  140.8741  143.0311 H   0  0  0  0  0  0  0  0  0  0  0  0  # atno 7974 bound_to 7965
  154.4042  140.1300  156.4482 H   0  0  0  0  0  0  0  0  0  0  0  0  # atno 8008 bound_to 7997
  155.7392  140.3490  155.5076 H   0  0  0  0  0  0  0  0  0  0  0  0  # atno 8009 bound_to 7997
  155.9055  140.1027  157.1308 H   0  0  0  0  0  0  0  0  0  0  0  0  # atno 8010 bound_to 7997
  140.3018  144.2925  150.6217 H   0  0  0  0  0  0  0  0  0  0  0  0  # atno 10167 bound_to 10162
  156.9426  130.5867  149.5653 H   0  0  0  0  0  0  0  0  0  0  0  0  # atno 10718 bound_to 10713
  153.6360  135.3388  155.3056 H   0  0  0  0  0  0  0  0  0  0  0  0  # atno 10763 bound_to 10752
  154.8570  135.4307  154.2056 H   0  0  0  0  0  0  0  0  0  0  0  0  # atno 10764 bound_to 10752
  153.2963  135.7021  153.7319 H   0  0  0  0  0  0  0  0  0  0  0  0  # atno 10765 bound_to 10752
  140.4992  134.0762  155.7789 H   0  0  0  0  0  0  0  0  0  0  0  0  # atno 11005 bound_to 11000
  144.6790  140.0042  143.7484 LP  0  0  0  0  0  0  0  0  0  0  0  0  # atno 17320 bound_to 7965
  146.0036  139.3111  143.0913 LP  0  0  0  0  0  0  0  0  0  0  0  0  # atno 17321 bound_to 7965
  140.5644  143.2188  151.7708 LP  0  0  0  0  0  0  0  0  0  0  0  0  # atno 17342 bound_to 10162
  139.4913  144.4304  151.9879 LP  0  0  0  0  0  0  0  0  0  0  0  0  # atno 17343 bound_to 10162
  156.0398  130.5481  150.8742 LP  0  0  0  0  0  0  0  0  0  0  0  0  # atno 17370 bound_to 10713
  157.5775  131.0946  150.9323 LP  0  0  0  0  0  0  0  0  0  0  0  0  # atno 17371 bound_to 10713
  141.1444  133.9081  157.2250 LP  0  0  0  0  0  0  0  0  0  0  0  0  # atno 17394 bound_to 11000
  139.9723  135.0124  156.9543 LP  0  0  0  0  0  0  0  0  0  0  0  0  # atno 17395 bound_to 11000

$$$$
