AV-unprocessed.smi:3354|AV-procd|sdf|12960|dock4
  -GOLD-   2272019393D 1   1.00000     0.00000
 Structure written by MMmdl.
 38 40  0  0  0  0  0  0  0  0  1 V2000
  151.4982  138.3153  154.5135 C   0  0  0  0  0  0  0  0  0  0  0  0
  151.2685  138.9550  155.8691 C   0  0  1  0  0  0  0  0  0  0  0  0
  150.9384  140.4249  155.9834 C   0  0  0  0  0  0  0  0  0  0  0  0
  149.8921  139.3857  156.3381 C   0  0  1  0  0  0  0  0  0  0  0  0
  148.7537  139.1639  155.4929 N   0  0  0  0  0  0  0  0  0  0  0  0
  148.0971  137.8664  155.4017 C   0  0  0  0  0  0  0  0  0  0  0  0
  146.9796  138.0364  154.3572 C   0  0  2  0  0  0  0  0  0  0  0  0
  146.9908  136.9339  153.3993 N   0  0  0  0  0  0  0  0  0  0  0  0
  145.9366  136.1571  153.1141 C   0  0  0  0  0  0  0  0  0  0  0  0
  144.8327  136.2939  153.6407 O   0  0  0  0  0  0  0  0  0  0  0  0
  146.2463  135.2444  152.1772 N   0  0  0  0  0  0  0  0  0  0  0  0
  145.4120  134.2476  151.6025 C   0  0  0  0  0  0  0  0  0  0  0  0
  145.7914  133.4146  150.5220 C   0  0  0  0  0  0  0  0  0  0  0  0
  144.8651  132.4741  150.0315 C   0  0  0  0  0  0  0  0  0  0  0  0
  143.5931  132.4061  150.6319 C   0  0  0  0  0  0  0  0  0  0  0  0
  143.2132  133.2030  151.6530 N   0  0  0  0  0  0  0  0  0  0  0  0
  144.1065  134.1020  152.1179 C   0  0  0  0  0  0  0  0  0  0  0  0
  147.2386  139.3980  153.6936 C   0  0  0  0  0  0  0  0  0  0  0  0
  148.3529  140.0018  154.5300 C   0  0  0  0  0  0  0  0  0  0  0  0
  148.8118  141.1222  154.3106 O   0  0  0  0  0  0  0  0  0  0  0  0
  150.9014  138.7995  153.7408 H   0  0  0  0  0  0  0  0  0  0  0  0
  151.2296  137.2594  154.5499 H   0  0  0  0  0  0  0  0  0  0  0  0
  152.5493  138.3968  154.2363 H   0  0  0  0  0  0  0  0  0  0  0  0
  151.9146  138.5502  156.6455 H   0  0  0  0  0  0  0  0  0  0  0  0
  151.3946  140.9735  156.8050 H   0  0  0  0  0  0  0  0  0  0  0  0
  150.8427  140.9875  155.0575 H   0  0  0  0  0  0  0  0  0  0  0  0
  149.7019  139.2749  157.4047 H   0  0  0  0  0  0  0  0  0  0  0  0
  148.8309  137.1164  155.1013 H   0  0  0  0  0  0  0  0  0  0  0  0
  147.6782  137.5632  156.3614 H   0  0  0  0  0  0  0  0  0  0  0  0
  146.0172  138.0649  154.8724 H   0  0  0  0  0  0  0  0  0  0  0  0
  147.8601  136.7554  152.9180 H   0  0  0  0  0  0  0  0  0  0  0  0
  147.1740  135.3092  151.7848 H   0  0  0  0  0  0  0  0  0  0  0  0
  146.7604  133.4852  150.0531 H   0  0  0  0  0  0  0  0  0  0  0  0
  145.1226  131.8226  149.2095 H   0  0  0  0  0  0  0  0  0  0  0  0
  142.8591  131.6969  150.2784 H   0  0  0  0  0  0  0  0  0  0  0  0
  143.7677  134.7237  152.9341 H   0  0  0  0  0  0  0  0  0  0  0  0
  147.5764  139.3024  152.6607 H   0  0  0  0  0  0  0  0  0  0  0  0
  146.3518  140.0323  153.7096 H   0  0  0  0  0  0  0  0  0  0  0  0
  1  2  1  0  0  0  0
  1 21  1  0  0  0  0
  1 22  1  0  0  0  0
  1 23  1  0  0  0  0
  2  4  1  0  0  0  0
  2  3  1  0  0  0  0
  2 24  1  0  0  0  0
  3  4  1  0  0  0  0
  3 25  1  0  0  0  0
  3 26  1  0  0  0  0
  4  5  1  0  0  0  0
  4 27  1  0  0  0  0
  5 19  1  0  0  0  0
  5  6  1  0  0  0  0
  6  7  1  0  0  0  0
  6 28  1  0  0  0  0
  6 29  1  0  0  0  0
  7  8  1  0  0  0  0
  7 18  1  0  0  0  0
  7 30  1  0  0  0  0
  8  9  1  0  0  0  0
  8 31  1  0  0  0  0
  9 10  2  0  0  0  0
  9 11  1  0  0  0  0
 11 12  1  0  0  0  0
 11 32  1  0  0  0  0
 12 17  1  0  0  0  0
 12 13  2  0  0  0  0
 13 14  1  0  0  0  0
 13 33  1  0  0  0  0
 14 15  2  0  0  0  0
 14 34  1  0  0  0  0
 15 16  1  0  0  0  0
 15 35  1  0  0  0  0
 16 17  2  0  0  0  0
 17 36  1  0  0  0  0
 18 19  1  0  0  0  0
 18 37  1  0  0  0  0
 18 38  1  0  0  0  0
 19 20  2  0  0  0  0
M  END
> <s_m_source_file>
AV-unprocessed.smi

> <i_m_source_file_index>
3354

> <i_lp_mmshare_version>
43012

> <i_f3d_flags>
0

> <s_epik_input>
W0NIM11bQ0BASF0xW0NIMl1bQ0BIXTFOMltDSDJdW0NASF0oW0NIMl1DMj1PKVtOSF1DKD1PKVtOSF1jM1tjSF1bY0hdW2NIXW5bY0hdMw==

> <s_epik_cmdline>
J2VwaWtfcHl0aG9uJywgJy1waCcsICc3LjAnLCAnLXRuJywgJzgnLCAnLW1hJywgJzIwMCcsICctbWV0YWxfYmluZGluZycsICctaW1hZScsICc8aW5maWxlLm1hZT4nLCAnLW9tYWUnLCAnPG91dGZpbGUubWFlPic=

> <r_epik_Ionization_Penalty>
0.00456191

> <r_epik_Ionization_Penalty_Charging>
0

> <r_epik_Ionization_Penalty_Neutral>
0.00456191

> <r_epik_State_Penalty>
0.00327094

> <r_epik_Charging_Adjusted_Penalty>
0.00327094

> <i_epik_Tot_Q>
0

> <i_epik_Tot_abs_Q>
0

> <r_epik_Metal_State_Penalty>
-0

> <b_epik_Metal_Only>
0

> <s_lp_Force_Field>
OPLS_2005

> <r_lp_Energy>
41.3781

> <b_lp_Chiralities_Consistent>
1

> <s_lp_Variant>
AV-unprocessed.smi:3354-6

> <Gold.Version>
5.8.1

> <Gold.Id.Protein>
6NUR|6NUR_protein|mol2

> <Gold.PLP.Fitness>
41.6919

> <Gold.PLP.PLP>
-31.5409

> <Gold.PLP.part.hbond>
-3.0000

> <Gold.PLP.part.metal>
0.0000

> <Gold.PLP.part.buried>
-4.6361

> <Gold.PLP.part.nonpolar>
-24.2761

> <Gold.PLP.part.repulsive>
1.3150

> <Gold.PLP.ligand.clash>
0.0000

> <Gold.PLP.ligand.torsion>
0.6361

> <Gold.PLP.Chemscore.Hbond>
2.7371

> <Gold.PLP.Chemscore.CHOScore>
0.9781

> <Gold.PLP.Chemscore.Metal>
0.0000

> <Gold.Chemscore.Hbonds>
donor molecule, donor type, donor heavy atom, donor atom, acceptor molecule, acceptor atom, score
      L1  H     8    31       P1  7948  1.00
      L1  H    11    32       P1  7948  0.96
      L1  C    15    35       P1 10952  0.97

> <Gold.PLP.Chemscore.Internal.Correction>
0.2776

> <Gold.Rescore>
     Score         DG    S(hbond)    S(metal)    S(lipo)     H(rot)  DE(clash)    DE(int)     intcor
     16.20     -19.81       2.63        0.00      74.46       1.24       0.14       3.46       ----

> <Gold.Chemscore.Fitness>
16.2026

> <Gold.Chemscore.DG>
-19.8073

> <Gold.Chemscore.ZeroCoef>
-5.4800

> <Gold.Chemscore.Hbond>
2.6285

> <Gold.Chemscore.Metal>
0.0000

> <Gold.Chemscore.Lipo>
74.4642

> <Gold.Chemscore.Internal_Hbond>
0.0000

> <Gold.Chemscore.DEClash>
0.1447

> <Gold.Chemscore.DEInternal>
3.4600

> <Gold.Chemscore.Rot>
1.2361

> <Gold.Chemscore.Internal.Correction>
   9.000000E+99

> <Gold.Chemscore.Hbonds>
donor molecule, donor type, donor heavy atom, donor atom, acceptor molecule, acceptor atom, score
      L1  H     8    31       P1  7948  0.99
      L1  H    11    32       P1  7948  0.90

> <Gold.Chemscore.Hbond.Weighted>
-8.7793

> <Gold.Chemscore.Metal.Weighted>
-0.0000

> <Gold.Chemscore.Lipo.Weighted>
-8.7123

> <Gold.Chemscore.Internal_Hbond.Weighted>
0.0000

> <Gold.Chemscore.DEClash.Weighted>
0.1447

> <Gold.Chemscore.DEInternal.Weighted>
3.4600

> <Gold.Chemscore.Rot.Weighted>
3.1643

> <Gold.Chemscore.Internal.Correction.Weighted>
   9.000000E+99

> <Gold.Protein.RotatedTorsions>
[ 6907 6896 6895 6894 ] final  144.42 input  -60.11 | X-H torsion
[ 7974 7965 7964 7962 ] final  -32.55 input  175.53 | X-H torsion
[ 8008 7997 7996 7995 ] final   69.88 input   59.86 | X-H torsion
[ 10167 10162 10161 10158 ] final   52.97 input  -65.29 | X-H torsion
[ 10718 10713 10712 10709 ] final   15.39 input   66.30 | X-H torsion
[ 10763 10752 10751 10750 ] final  152.96 input  -60.55 | X-H torsion
[ 11005 11000 10999 10996 ] final  -20.83 input  -57.11 | X-H torsion

> <Gold.Protein.ActiveResidues>
 VAL166  LYS551  ARG553  GLY616  TRP617  ASP618  TYR619  PRO620  LYS621  CYS622 
 ASP623  PHE694  ASN695  SER759  ASP760  ASP761  ALA762  ILE779  LEU786  VAL792 
 PHE793  MET794  SER795  GLU796  ALA797  LYS798  CYS799  TRP800  GLU811  SER814 

> <Gold.Protein.RotatedAtoms>
  152.1939  133.4792  159.5022 H   0  0  0  0  0  0  0  0  0  0  0  0  # atno 6907 bound_to 6896
  150.6956  134.1677  159.4209 H   0  0  0  0  0  0  0  0  0  0  0  0  # atno 6908 bound_to 6896
  151.9593  135.0131  160.0597 H   0  0  0  0  0  0  0  0  0  0  0  0  # atno 6909 bound_to 6896
  146.0981  140.5806  142.8833 H   0  0  0  0  0  0  0  0  0  0  0  0  # atno 7974 bound_to 7965
  155.7304  140.3492  155.5057 H   0  0  0  0  0  0  0  0  0  0  0  0  # atno 8008 bound_to 7997
  155.9188  140.1063  157.1245 H   0  0  0  0  0  0  0  0  0  0  0  0  # atno 8009 bound_to 7997
  154.4066  140.1253  156.4639 H   0  0  0  0  0  0  0  0  0  0  0  0  # atno 8010 bound_to 7997
  140.2457  144.3535  150.6365 H   0  0  0  0  0  0  0  0  0  0  0  0  # atno 10167 bound_to 10162
  157.0529  130.6277  149.5771 H   0  0  0  0  0  0  0  0  0  0  0  0  # atno 10718 bound_to 10713
  154.1285  135.2828  155.3191 H   0  0  0  0  0  0  0  0  0  0  0  0  # atno 10763 bound_to 10752
  154.6373  135.5415  153.7752 H   0  0  0  0  0  0  0  0  0  0  0  0  # atno 10764 bound_to 10752
  153.0289  135.6477  154.1436 H   0  0  0  0  0  0  0  0  0  0  0  0  # atno 10765 bound_to 10752
  140.8502  133.7862  155.9958 H   0  0  0  0  0  0  0  0  0  0  0  0  # atno 11005 bound_to 11000
  144.7411  140.4945  143.6868 LP  0  0  0  0  0  0  0  0  0  0  0  0  # atno 17320 bound_to 7965
  145.5908  139.1495  143.3183 LP  0  0  0  0  0  0  0  0  0  0  0  0  # atno 17321 bound_to 7965
  140.6079  143.2168  151.6943 LP  0  0  0  0  0  0  0  0  0  0  0  0  # atno 17342 bound_to 10162
  139.5063  144.3688  152.0490 LP  0  0  0  0  0  0  0  0  0  0  0  0  # atno 17343 bound_to 10162
  156.0002  130.5079  150.7634 LP  0  0  0  0  0  0  0  0  0  0  0  0  # atno 17370 bound_to 10713
  157.5016  131.0919  151.0307 LP  0  0  0  0  0  0  0  0  0  0  0  0  # atno 17371 bound_to 10713
  140.8798  134.2625  157.5150 LP  0  0  0  0  0  0  0  0  0  0  0  0  # atno 17394 bound_to 11000
  139.8704  134.9609  156.4379 LP  0  0  0  0  0  0  0  0  0  0  0  0  # atno 17395 bound_to 11000

$$$$
