AV-unprocessed.smi:1828|AV-procd|sdf|7424|dock7
  -GOLD-   22720 9103D 1   1.00000     0.00000
 Structure written by MMmdl.
 39 41  0  0  0  0  0  0  0  0  1 V2000
  151.4842  136.4693  155.4673 O   0  0  0  0  0  0  0  0  0  0  0  0
  151.9170  137.7023  154.9340 C   0  0  0  0  0  0  0  0  0  0  0  0
  150.7877  138.6581  154.6990 C   0  0  0  0  0  0  0  0  0  0  0  0
  149.7806  138.3688  153.8739 N   0  0  0  0  0  0  0  0  0  0  0  0
  148.9832  139.4931  153.9616 C   0  0  0  0  0  0  0  0  0  0  0  0
  147.7610  139.8048  153.3241 C   0  0  0  0  0  0  0  0  0  0  0  0
  147.1182  141.0348  153.5752 C   0  0  0  0  0  0  0  0  0  0  0  0
  147.6870  141.9690  154.4652 C   0  0  0  0  0  0  0  0  0  0  0  0
  148.9050  141.6789  155.1097 C   0  0  0  0  0  0  0  0  0  0  0  0
  149.5423  140.4498  154.8552 C   0  0  0  0  0  0  0  0  0  0  0  0
  150.7202  139.8676  155.3113 N   0  0  0  0  0  0  0  0  0  0  0  0
  151.6575  140.4632  156.2545 C   0  0  0  0  0  0  0  0  0  0  0  0
  151.4063  140.0089  157.7061 C   0  0  2  0  0  0  0  0  0  0  0  0
  150.0171  139.8945  157.9470 O   0  0  0  0  0  0  0  0  0  0  0  0
  152.0867  140.9374  158.6996 C   0  0  0  0  0  0  0  0  0  0  0  0
  153.0287  140.4354  159.6233 C   0  0  0  0  0  0  0  0  0  0  0  0
  153.6513  141.3020  160.5410 C   0  0  0  0  0  0  0  0  0  0  0  0
  153.3318  142.6733  160.5455 C   0  0  0  0  0  0  0  0  0  0  0  0
  152.3824  143.1857  159.6348 C   0  0  0  0  0  0  0  0  0  0  0  0
  152.0329  144.6666  159.6276 C   0  0  0  0  0  0  0  0  0  0  0  0
  150.7102  144.8326  159.6554 F   0  0  0  0  0  0  0  0  0  0  0  0
  152.5543  145.2948  160.6821 F   0  0  0  0  0  0  0  0  0  0  0  0
  152.5120  145.2244  158.5166 F   0  0  0  0  0  0  0  0  0  0  0  0
  151.7675  142.3119  158.7118 C   0  0  0  0  0  0  0  0  0  0  0  0
  150.5520  136.3957  155.3322 H   0  0  0  0  0  0  0  0  0  0  0  0
  152.6502  138.1516  155.6034 H   0  0  0  0  0  0  0  0  0  0  0  0
  152.4302  137.5119  153.9909 H   0  0  0  0  0  0  0  0  0  0  0  0
  147.3171  139.0953  152.6415 H   0  0  0  0  0  0  0  0  0  0  0  0
  146.1837  141.2625  153.0835 H   0  0  0  0  0  0  0  0  0  0  0  0
  147.1876  142.9084  154.6528 H   0  0  0  0  0  0  0  0  0  0  0  0
  149.3435  142.3919  155.7919 H   0  0  0  0  0  0  0  0  0  0  0  0
  152.6647  140.1783  155.9480 H   0  0  0  0  0  0  0  0  0  0  0  0
  151.6169  141.5494  156.1788 H   0  0  0  0  0  0  0  0  0  0  0  0
  151.8232  139.0094  157.8360 H   0  0  0  0  0  0  0  0  0  0  0  0
  149.8552  140.0853  158.8584 H   0  0  0  0  0  0  0  0  0  0  0  0
  153.2767  139.3840  159.6308 H   0  0  0  0  0  0  0  0  0  0  0  0
  154.3751  140.9144  161.2427 H   0  0  0  0  0  0  0  0  0  0  0  0
  153.8210  143.3275  161.2521 H   0  0  0  0  0  0  0  0  0  0  0  0
  151.0457  142.7008  158.0084 H   0  0  0  0  0  0  0  0  0  0  0  0
  1  2  1  0  0  0  0
  1 25  1  0  0  0  0
  2  3  1  0  0  0  0
  2 26  1  0  0  0  0
  2 27  1  0  0  0  0
  3 11  1  0  0  0  0
  3  4  2  0  0  0  0
  4  5  1  0  0  0  0
  5 10  2  0  0  0  0
  5  6  1  0  0  0  0
  6  7  2  0  0  0  0
  6 28  1  0  0  0  0
  7  8  1  0  0  0  0
  7 29  1  0  0  0  0
  8  9  2  0  0  0  0
  8 30  1  0  0  0  0
  9 10  1  0  0  0  0
  9 31  1  0  0  0  0
 10 11  1  0  0  0  0
 11 12  1  0  0  0  0
 12 13  1  0  0  0  0
 12 32  1  0  0  0  0
 12 33  1  0  0  0  0
 13 14  1  0  0  0  0
 13 15  1  0  0  0  0
 13 34  1  0  0  0  0
 14 35  1  0  0  0  0
 15 24  1  0  0  0  0
 15 16  2  0  0  0  0
 16 17  1  0  0  0  0
 16 36  1  0  0  0  0
 17 18  2  0  0  0  0
 17 37  1  0  0  0  0
 18 19  1  0  0  0  0
 18 38  1  0  0  0  0
 19 20  1  0  0  0  0
 19 24  2  0  0  0  0
 20 21  1  0  0  0  0
 20 22  1  0  0  0  0
 20 23  1  0  0  0  0
 24 39  1  0  0  0  0
M  END
> <s_m_source_file>
AV-unprocessed.smi

> <i_m_source_file_index>
1828

> <i_lp_mmshare_version>
43012

> <i_f3d_flags>
0

> <s_epik_input>
W2NIXTFbY0hdW2NIXVtjSF1jKGMxMiluKGMobjIpW0NIMl1bT0hdKVtDSDJdW0NASF0oW09IXSljM1tjSF1bY0hdW2NIXWMoQyhGKShGKUYpW2NIXTM=

> <s_epik_cmdline>
J2VwaWtfcHl0aG9uJywgJy1waCcsICc3LjAnLCAnLXRuJywgJzgnLCAnLW1hJywgJzIwMCcsICctbWV0YWxfYmluZGluZycsICctaW1hZScsICc8aW5maWxlLm1hZT4nLCAnLW9tYWUnLCAnPG91dGZpbGUubWFlPic=

> <r_epik_Ionization_Penalty>
0.0634719

> <r_epik_Ionization_Penalty_Charging>
0

> <r_epik_Ionization_Penalty_Neutral>
0.0634719

> <r_epik_State_Penalty>
0.0551572

> <r_epik_Charging_Adjusted_Penalty>
0.0551572

> <i_epik_Tot_Q>
0

> <i_epik_Tot_abs_Q>
0

> <r_epik_Metal_State_Penalty>
5.78034e-05

> <b_epik_Metal_Only>
0

> <s_lp_Force_Field>
OPLS_2005

> <r_lp_Energy>
12.8621

> <b_lp_Chiralities_Consistent>
1

> <s_lp_Variant>
AV-unprocessed.smi:1828-1

> <Gold.Version>
5.8.1

> <Gold.Id.Protein>
6NUR|6NUR_protein|mol2

> <Gold.PLP.Fitness>
56.5602

> <Gold.PLP.PLP>
-54.8184

> <Gold.PLP.part.hbond>
-1.0000

> <Gold.PLP.part.metal>
0.0000

> <Gold.PLP.part.buried>
-1.1922

> <Gold.PLP.part.nonpolar>
-54.1307

> <Gold.PLP.part.repulsive>
1.4718

> <Gold.PLP.ligand.clash>
0.4428

> <Gold.PLP.ligand.torsion>
0.8346

> <Gold.PLP.Chemscore.Hbond>
1.0000

> <Gold.PLP.Chemscore.CHOScore>
0.0000

> <Gold.PLP.Chemscore.Metal>
0.0000

> <Gold.Chemscore.Hbonds>
donor molecule, donor type, donor heavy atom, donor atom, acceptor molecule, acceptor atom, score
      P1  H 10752 10765       L1     1  0.70

> <Gold.PLP.Chemscore.Internal.Correction>
0.8537

> <Gold.Rescore>
     Score         DG    S(hbond)    S(metal)    S(lipo)     H(rot)  DE(clash)    DE(int)     intcor
     12.25     -13.35       0.23        0.00     124.42       2.91       0.49       0.61       ----

> <Gold.Chemscore.Fitness>
12.2519

> <Gold.Chemscore.DG>
-13.3514

> <Gold.Chemscore.ZeroCoef>
-5.4800

> <Gold.Chemscore.Hbond>
0.2318

> <Gold.Chemscore.Metal>
0.0000

> <Gold.Chemscore.Lipo>
124.4219

> <Gold.Chemscore.Internal_Hbond>
0.0000

> <Gold.Chemscore.DEClash>
0.4942

> <Gold.Chemscore.DEInternal>
0.6053

> <Gold.Chemscore.Rot>
2.9141

> <Gold.Chemscore.Internal.Correction>
   9.000000E+99

> <Gold.Chemscore.Hbonds>
donor molecule, donor type, donor heavy atom, donor atom, acceptor molecule, acceptor atom, score
      P1  H 10752 10765       L1     1  0.07

> <Gold.Chemscore.Hbond.Weighted>
-0.7741

> <Gold.Chemscore.Metal.Weighted>
-0.0000

> <Gold.Chemscore.Lipo.Weighted>
-14.5574

> <Gold.Chemscore.Internal_Hbond.Weighted>
0.0000

> <Gold.Chemscore.DEClash.Weighted>
0.4942

> <Gold.Chemscore.DEInternal.Weighted>
0.6053

> <Gold.Chemscore.Rot.Weighted>
7.4600

> <Gold.Chemscore.Internal.Correction.Weighted>
   9.000000E+99

> <Gold.Protein.RotatedTorsions>
[ 6907 6896 6895 6894 ] final   65.57 input  -60.11 | X-H torsion
[ 7974 7965 7964 7962 ] final   -7.76 input  175.53 | X-H torsion
[ 8008 7997 7996 7995 ] final  106.94 input   59.86 | X-H torsion
[ 10167 10162 10161 10158 ] final -129.34 input  -65.29 | X-H torsion
[ 10718 10713 10712 10709 ] final    8.99 input   66.30 | X-H torsion
[ 10763 10752 10751 10750 ] final -162.22 input  -60.55 | X-H torsion
[ 11005 11000 10999 10996 ] final  132.26 input  -57.11 | X-H torsion

> <Gold.Protein.ActiveResidues>
 VAL166  LYS551  ARG553  GLY616  TRP617  ASP618  TYR619  PRO620  LYS621  CYS622 
 ASP623  PHE694  ASN695  SER759  ASP760  ASP761  ALA762  ILE779  LEU786  VAL792 
 PHE793  MET794  SER795  GLU796  ALA797  LYS798  CYS799  TRP800  GLU811  SER814 

> <Gold.Protein.RotatedAtoms>
  152.4417  134.5577  159.9884 H   0  0  0  0  0  0  0  0  0  0  0  0  # atno 6907 bound_to 6896
  151.5673  133.3389  159.2990 H   0  0  0  0  0  0  0  0  0  0  0  0  # atno 6908 bound_to 6896
  150.8325  134.7617  159.6929 H   0  0  0  0  0  0  0  0  0  0  0  0  # atno 6909 bound_to 6896
  146.2298  140.2368  142.8342 H   0  0  0  0  0  0  0  0  0  0  0  0  # atno 7974 bound_to 7965
  156.1784  140.3104  155.9102 H   0  0  0  0  0  0  0  0  0  0  0  0  # atno 8008 bound_to 7997
  155.3437  140.0467  157.3062 H   0  0  0  0  0  0  0  0  0  0  0  0  # atno 8009 bound_to 7997
  154.5315  140.2232  155.8806 H   0  0  0  0  0  0  0  0  0  0  0  0  # atno 8010 bound_to 7997
  139.9408  143.6166  152.2504 H   0  0  0  0  0  0  0  0  0  0  0  0  # atno 10167 bound_to 10162
  156.9597  130.5928  149.5661 H   0  0  0  0  0  0  0  0  0  0  0  0  # atno 10718 bound_to 10713
  154.7233  135.3030  154.9011 H   0  0  0  0  0  0  0  0  0  0  0  0  # atno 10763 bound_to 10752
  153.9876  135.6722  153.4757 H   0  0  0  0  0  0  0  0  0  0  0  0  # atno 10764 bound_to 10752
  153.0853  135.4987  154.8502 H   0  0  0  0  0  0  0  0  0  0  0  0  # atno 10765 bound_to 10752
  139.9780  134.9557  156.9557 H   0  0  0  0  0  0  0  0  0  0  0  0  # atno 11005 bound_to 11000
  144.9515  140.8183  143.5569 LP  0  0  0  0  0  0  0  0  0  0  0  0  # atno 17320 bound_to 7965
  145.2329  139.2107  143.5033 LP  0  0  0  0  0  0  0  0  0  0  0  0  # atno 17321 bound_to 7965
  139.6706  144.7661  151.1790 LP  0  0  0  0  0  0  0  0  0  0  0  0  # atno 17342 bound_to 10162
  140.7611  143.5870  150.8835 LP  0  0  0  0  0  0  0  0  0  0  0  0  # atno 17343 bound_to 10162
  156.0327  130.5417  150.8576 LP  0  0  0  0  0  0  0  0  0  0  0  0  # atno 17370 bound_to 10713
  157.5666  131.0946  150.9481 LP  0  0  0  0  0  0  0  0  0  0  0  0  # atno 17371 bound_to 10713
  140.5156  134.0959  155.7280 LP  0  0  0  0  0  0  0  0  0  0  0  0  # atno 17394 bound_to 11000
  141.1455  133.9063  157.2226 LP  0  0  0  0  0  0  0  0  0  0  0  0  # atno 17395 bound_to 11000

$$$$
