AV-unprocessed.smi:2252|AV-procd|sdf|9104|dock5
  -GOLD-   2272012303D 1   1.00000     0.00000
 Structure written by MMmdl.
 46 48  0  0  0  0  0  0  0  0  3 V2000
  147.0972  133.3130  151.5571 C   0  0  0  0  0  0  0  0  0  0  0  0
  145.7295  133.1869  151.0489 N   0  0  0  0  0  0  0  0  0  0  0  0
  145.0613  132.0167  150.7945 C   0  0  0  0  0  0  0  0  0  0  0  0
  143.8207  132.3656  150.3291 C   0  0  0  0  0  0  0  0  0  0  0  0
  143.7822  133.7334  150.3201 N   0  3  0  0  0  0  0  0  0  0  0  0
  144.9418  134.2368  150.7595 C   0  0  0  0  0  0  0  0  0  0  0  0
  145.2615  135.6986  150.8730 C   0  0  0  0  0  0  0  0  0  0  0  0
  145.3326  136.2034  152.3235 C   0  0  0  0  0  0  0  0  0  0  0  0
  146.4605  137.1086  152.5244 N   0  0  0  0  0  0  0  0  0  0  0  0
  146.4876  138.1222  153.4038 C   0  0  0  0  0  0  0  0  0  0  0  0
  145.5440  138.3985  154.1448 O   0  0  0  0  0  0  0  0  0  0  0  0
  147.7687  138.9710  153.4395 C   0  0  1  0  0  0  0  0  0  0  0  0
  147.5415  140.1587  154.4008 C   0  0  0  0  0  0  0  0  0  0  0  0
  147.0111  141.4816  153.8900 C   0  0  0  0  0  0  0  0  0  0  0  0
  148.4342  141.3810  154.3729 C   0  0  0  0  0  0  0  0  0  0  0  0
  148.9570  138.1667  153.8460 N   0  3  0  0  0  0  0  0  0  0  0  0
  150.1949  138.9385  154.0929 C   0  0  0  0  0  0  0  0  0  0  0  0
  151.0925  137.9902  154.8790 C   0  0  0  0  0  0  0  0  0  0  0  0
  150.1132  137.2232  155.7639 C   0  0  0  0  0  0  0  0  0  0  0  0
  148.7634  137.3008  155.0349 C   0  0  0  0  0  0  0  0  0  0  0  0
  147.5689  132.3300  151.5830 H   0  0  0  0  0  0  0  0  0  0  0  0
  147.0689  133.7277  152.5652 H   0  0  0  0  0  0  0  0  0  0  0  0
  147.6716  133.9681  150.9015 H   0  0  0  0  0  0  0  0  0  0  0  0
  145.5060  131.0456  150.9579 H   0  0  0  0  0  0  0  0  0  0  0  0
  142.9844  131.7592  150.0123 H   0  0  0  0  0  0  0  0  0  0  0  0
  146.2178  135.8500  150.3715 H   0  0  0  0  0  0  0  0  0  0  0  0
  144.5168  136.2564  150.3053 H   0  0  0  0  0  0  0  0  0  0  0  0
  144.3939  136.7029  152.5702 H   0  0  0  0  0  0  0  0  0  0  0  0
  145.4289  135.3603  153.0081 H   0  0  0  0  0  0  0  0  0  0  0  0
  147.2798  136.9502  151.9556 H   0  0  0  0  0  0  0  0  0  0  0  0
  147.9542  139.3577  152.4352 H   0  0  0  0  0  0  0  0  0  0  0  0
  147.1717  139.8612  155.3810 H   0  0  0  0  0  0  0  0  0  0  0  0
  146.8606  141.5926  152.8192 H   0  0  0  0  0  0  0  0  0  0  0  0
  146.3009  142.0152  154.5187 H   0  0  0  0  0  0  0  0  0  0  0  0
  148.6765  141.8466  155.3260 H   0  0  0  0  0  0  0  0  0  0  0  0
  149.2193  141.4247  153.6203 H   0  0  0  0  0  0  0  0  0  0  0  0
  150.6666  139.2727  153.1682 H   0  0  0  0  0  0  0  0  0  0  0  0
  149.9672  139.8189  154.6966 H   0  0  0  0  0  0  0  0  0  0  0  0
  151.5889  137.3010  154.1944 H   0  0  0  0  0  0  0  0  0  0  0  0
  151.8631  138.5103  155.4490 H   0  0  0  0  0  0  0  0  0  0  0  0
  150.4360  136.1951  155.9319 H   0  0  0  0  0  0  0  0  0  0  0  0
  150.0344  137.7069  156.7383 H   0  0  0  0  0  0  0  0  0  0  0  0
  148.0172  137.7231  155.7091 H   0  0  0  0  0  0  0  0  0  0  0  0
  148.4131  136.3158  154.7244 H   0  0  0  0  0  0  0  0  0  0  0  0
  149.1683  137.5440  153.0789 H   0  0  0  0  0  0  0  0  0  0  0  0
  142.9886  134.2884  150.0245 H   0  0  0  0  0  0  0  0  0  0  0  0
  1  2  1  0  0  0  0
  1 21  1  0  0  0  0
  1 22  1  0  0  0  0
  1 23  1  0  0  0  0
  2  6  1  0  0  0  0
  2  3  1  0  0  0  0
  3  4  2  0  0  0  0
  3 24  1  0  0  0  0
  4  5  1  0  0  0  0
  4 25  1  0  0  0  0
  5  6  2  0  0  0  0
  5 46  1  0  0  0  0
  6  7  1  0  0  0  0
  7  8  1  0  0  0  0
  7 26  1  0  0  0  0
  7 27  1  0  0  0  0
  8  9  1  0  0  0  0
  8 28  1  0  0  0  0
  8 29  1  0  0  0  0
  9 10  1  0  0  0  0
  9 30  1  0  0  0  0
 10 11  2  0  0  0  0
 10 12  1  0  0  0  0
 12 13  1  0  0  0  0
 12 16  1  0  0  0  0
 12 31  1  0  0  0  0
 13 15  1  0  0  0  0
 13 14  1  0  0  0  0
 13 32  1  0  0  0  0
 14 15  1  0  0  0  0
 14 33  1  0  0  0  0
 14 34  1  0  0  0  0
 15 35  1  0  0  0  0
 15 36  1  0  0  0  0
 16 20  1  0  0  0  0
 16 17  1  0  0  0  0
 16 45  1  0  0  0  0
 17 18  1  0  0  0  0
 17 37  1  0  0  0  0
 17 38  1  0  0  0  0
 18 19  1  0  0  0  0
 18 39  1  0  0  0  0
 18 40  1  0  0  0  0
 19 20  1  0  0  0  0
 19 41  1  0  0  0  0
 19 42  1  0  0  0  0
 20 43  1  0  0  0  0
 20 44  1  0  0  0  0
M  CHG  1   5   1
M  CHG  1  16   1
M  END
> <s_m_source_file>
AV-unprocessed.smi

> <i_m_source_file_index>
2252

> <i_lp_mmshare_version>
43012

> <i_f3d_flags>
0

> <s_epik_input>
W0NIM11uMVtjSF1bY0hdbmMxW0NIMl1bQ0gyXVtOSF1DKD1PKVtDQEhdKFtDSF0yW0NIMl1bQ0gyXTIpTjNbQ0gyXVtDSDJdW0NIMl1bQ0gyXTM=

> <s_epik_cmdline>
J2VwaWtfcHl0aG9uJywgJy1waCcsICc3LjAnLCAnLXRuJywgJzgnLCAnLW1hJywgJzIwMCcsICctbWV0YWxfYmluZGluZycsICctaW1hZScsICc8aW5maWxlLm1hZT4nLCAnLW9tYWUnLCAnPG91dGZpbGUubWFlPic=

> <r_lp_tautomer_probability>
1

> <r_epik_Ionization_Penalty>
0.116886

> <r_epik_Ionization_Penalty_Charging>
0.00955009

> <r_epik_Ionization_Penalty_Neutral>
0.107336

> <r_epik_State_Penalty>
0.0956868

> <r_epik_Charging_Adjusted_Penalty>
0.105237

> <i_epik_Tot_Q>
2

> <i_epik_Tot_abs_Q>
2

> <r_epik_Metal_State_Penalty>
0.438836

> <b_epik_Metal_Only>
0

> <s_lp_Force_Field>
OPLS_2005

> <r_lp_Energy>
43.7014

> <b_lp_Chiralities_Consistent>
1

> <s_lp_Variant>
AV-unprocessed.smi:2252-2

> <Gold.Version>
5.8.1

> <Gold.Id.Protein>
6NUR|6NUR_protein|mol2

> <Gold.PLP.Fitness>
51.9262

> <Gold.PLP.PLP>
-38.5210

> <Gold.PLP.part.hbond>
-3.0027

> <Gold.PLP.part.metal>
0.0000

> <Gold.PLP.part.buried>
-6.4600

> <Gold.PLP.part.nonpolar>
-30.0294

> <Gold.PLP.part.repulsive>
0.2019

> <Gold.PLP.ligand.clash>
0.0000

> <Gold.PLP.ligand.torsion>
1.3315

> <Gold.PLP.Chemscore.Hbond>
4.9760

> <Gold.PLP.Chemscore.CHOScore>
0.0000

> <Gold.PLP.Chemscore.Metal>
0.0000

> <Gold.Chemscore.Hbonds>
donor molecule, donor type, donor heavy atom, donor atom, acceptor molecule, acceptor atom, score
      L1  H     5    46       P1 10186  1.98
      L1  H     9    30       P1  7948  0.96
      L1  H    16    45       P1  7948  2.00

> <Gold.PLP.Chemscore.Internal.Correction>
1.1402

> <Gold.Rescore>
     Score         DG    S(hbond)    S(metal)    S(lipo)     H(rot)  DE(clash)    DE(int)     intcor
     18.38     -19.66       2.88        0.00      83.75       2.05       0.11       1.16       ----

> <Gold.Chemscore.Fitness>
18.3838

> <Gold.Chemscore.DG>
-19.6579

> <Gold.Chemscore.ZeroCoef>
-5.4800

> <Gold.Chemscore.Hbond>
2.8790

> <Gold.Chemscore.Metal>
0.0000

> <Gold.Chemscore.Lipo>
83.7497

> <Gold.Chemscore.Internal_Hbond>
0.0000

> <Gold.Chemscore.DEClash>
0.1091

> <Gold.Chemscore.DEInternal>
1.1649

> <Gold.Chemscore.Rot>
2.0456

> <Gold.Chemscore.Internal.Correction>
   9.000000E+99

> <Gold.Chemscore.Hbonds>
donor molecule, donor type, donor heavy atom, donor atom, acceptor molecule, acceptor atom, score
      L1  H     5    46       P1 10186  0.84
      L1  H     9    30       P1  7948  0.92
      L1  H    16    45       P1  7948  0.99

> <Gold.Chemscore.Hbond.Weighted>
-9.6160

> <Gold.Chemscore.Metal.Weighted>
-0.0000

> <Gold.Chemscore.Lipo.Weighted>
-9.7987

> <Gold.Chemscore.Internal_Hbond.Weighted>
0.0000

> <Gold.Chemscore.DEClash.Weighted>
0.1091

> <Gold.Chemscore.DEInternal.Weighted>
1.1649

> <Gold.Chemscore.Rot.Weighted>
5.2368

> <Gold.Chemscore.Internal.Correction.Weighted>
   9.000000E+99

> <Gold.Protein.RotatedTorsions>
[ 6907 6896 6895 6894 ] final -176.62 input  -60.11 | X-H torsion
[ 7974 7965 7964 7962 ] final   22.11 input  175.53 | X-H torsion
[ 8008 7997 7996 7995 ] final -158.07 input   59.86 | X-H torsion
[ 10167 10162 10161 10158 ] final  -88.71 input  -65.29 | X-H torsion
[ 10718 10713 10712 10709 ] final  -65.11 input   66.30 | X-H torsion
[ 10763 10752 10751 10750 ] final  -27.73 input  -60.55 | X-H torsion
[ 11005 11000 10999 10996 ] final -170.73 input  -57.11 | X-H torsion

> <Gold.Protein.ActiveResidues>
 VAL166  LYS551  ARG553  GLY616  TRP617  ASP618  TYR619  PRO620  LYS621  CYS622 
 ASP623  PHE694  ASN695  SER759  ASP760  ASP761  ALA762  ILE779  LEU786  VAL792 
 PHE793  MET794  SER795  GLU796  ALA797  LYS798  CYS799  TRP800  GLU811  SER814 

> <Gold.Protein.RotatedAtoms>
  151.6078  133.3350  159.3060 H   0  0  0  0  0  0  0  0  0  0  0  0  # atno 6907 bound_to 6896
  150.8173  134.7365  159.6752 H   0  0  0  0  0  0  0  0  0  0  0  0  # atno 6908 bound_to 6896
  152.4268  134.5858  160.0012 H   0  0  0  0  0  0  0  0  0  0  0  0  # atno 6909 bound_to 6896
  146.2043  139.7931  142.8738 H   0  0  0  0  0  0  0  0  0  0  0  0  # atno 7974 bound_to 7965
  155.7419  140.0815  157.2241 H   0  0  0  0  0  0  0  0  0  0  0  0  # atno 8008 bound_to 7997
  154.4021  140.1576  156.2681 H   0  0  0  0  0  0  0  0  0  0  0  0  # atno 8009 bound_to 7997
  155.9012  140.3409  155.6030 H   0  0  0  0  0  0  0  0  0  0  0  0  # atno 8010 bound_to 7997
  140.3720  143.2789  151.9488 H   0  0  0  0  0  0  0  0  0  0  0  0  # atno 10167 bound_to 10162
  156.0689  130.4242  150.1516 H   0  0  0  0  0  0  0  0  0  0  0  0  # atno 10718 bound_to 10713
  153.7368  135.6935  153.4976 H   0  0  0  0  0  0  0  0  0  0  0  0  # atno 10763 bound_to 10752
  153.2097  135.4407  155.0364 H   0  0  0  0  0  0  0  0  0  0  0  0  # atno 10764 bound_to 10752
  154.8234  135.3433  154.6895 H   0  0  0  0  0  0  0  0  0  0  0  0  # atno 10765 bound_to 10752
  140.5162  134.5753  157.5034 H   0  0  0  0  0  0  0  0  0  0  0  0  # atno 11005 bound_to 11000
  145.3376  141.0280  143.3411 LP  0  0  0  0  0  0  0  0  0  0  0  0  # atno 17320 bound_to 7965
  144.8755  139.4978  143.6748 LP  0  0  0  0  0  0  0  0  0  0  0  0  # atno 17321 bound_to 7965
  139.4803  144.5898  151.7792 LP  0  0  0  0  0  0  0  0  0  0  0  0  # atno 17342 bound_to 10162
  140.5023  144.1150  150.5974 LP  0  0  0  0  0  0  0  0  0  0  0  0  # atno 17343 bound_to 10162
  156.9571  130.9793  151.3486 LP  0  0  0  0  0  0  0  0  0  0  0  0  # atno 17370 bound_to 10713
  157.5748  130.8335  149.8441 LP  0  0  0  0  0  0  0  0  0  0  0  0  # atno 17371 bound_to 10713
  139.9631  134.7419  156.0195 LP  0  0  0  0  0  0  0  0  0  0  0  0  # atno 17394 bound_to 11000
  141.1359  133.6575  156.3592 LP  0  0  0  0  0  0  0  0  0  0  0  0  # atno 17395 bound_to 11000

$$$$
