AV-unprocessed.smi:3293|AV-procd|sdf|12631|dock10
  -GOLD-   2272018563D 1   1.00000     0.00000
 Structure written by MMmdl.
 44 45  0  0  0  0  0  0  0  0  2 V2000
  151.9100  139.5571  158.4622 C   0  0  0  0  0  0  0  0  0  0  0  0
  152.1108  141.0151  158.8407 C   0  0  0  0  0  0  0  0  0  0  0  0
  152.7200  141.3263  160.0008 C   0  0  0  0  0  0  0  0  0  0  0  0
  153.0377  142.7352  160.4449 C   0  0  0  0  0  0  0  0  0  0  0  0
  153.0665  143.6921  159.2511 C   0  0  0  0  0  0  0  0  0  0  0  0
  151.8064  143.5436  158.3829 C   0  0  1  0  0  0  0  0  0  0  0  0
  151.8404  144.5862  157.2489 C   0  0  0  0  0  0  0  0  0  0  0  0
  151.6175  142.0894  157.8497 C   0  0  2  0  0  0  0  0  0  0  0  0
  150.1433  141.8718  157.4161 C   0  0  0  0  0  0  0  0  0  0  0  0
  149.9222  142.1137  155.9753 N   0  3  0  0  0  0  0  0  0  0  0  0
  149.2806  140.9880  155.2691 C   0  0  0  0  0  0  0  0  0  0  0  0
  148.4528  141.4818  154.0755 C   0  0  0  0  0  0  0  0  0  0  0  0
  147.1975  142.1748  154.5265 C   0  0  0  0  0  0  0  0  0  0  0  0
  146.4575  141.9507  155.7226 C   0  0  0  0  0  0  0  0  0  0  0  0
  145.3974  142.7349  155.8264 N   0  0  0  0  0  0  0  0  0  0  0  0
  145.4217  143.4840  154.7051 N   0  0  0  0  0  0  0  0  0  0  0  0
  144.3870  144.4713  154.4836 C   0  0  0  0  0  0  0  0  0  0  0  0
  146.4943  143.1658  153.9002 C   0  0  0  0  0  0  0  0  0  0  0  0
  152.2801  139.3688  157.4541 H   0  0  0  0  0  0  0  0  0  0  0  0
  150.8567  139.2826  158.5116 H   0  0  0  0  0  0  0  0  0  0  0  0
  152.4490  138.8944  159.1401 H   0  0  0  0  0  0  0  0  0  0  0  0
  153.0279  140.5412  160.6762 H   0  0  0  0  0  0  0  0  0  0  0  0
  152.2926  143.0480  161.1771 H   0  0  0  0  0  0  0  0  0  0  0  0
  154.0054  142.7433  160.9471 H   0  0  0  0  0  0  0  0  0  0  0  0
  153.1639  144.7167  159.6118 H   0  0  0  0  0  0  0  0  0  0  0  0
  153.9525  143.4929  158.6463 H   0  0  0  0  0  0  0  0  0  0  0  0
  150.9552  143.7810  159.0236 H   0  0  0  0  0  0  0  0  0  0  0  0
  152.6721  144.4018  156.5681 H   0  0  0  0  0  0  0  0  0  0  0  0
  151.9627  145.5930  157.6496 H   0  0  0  0  0  0  0  0  0  0  0  0
  150.9253  144.5909  156.6587 H   0  0  0  0  0  0  0  0  0  0  0  0
  152.2530  141.9846  156.9689 H   0  0  0  0  0  0  0  0  0  0  0  0
  149.8329  140.8574  157.6709 H   0  0  0  0  0  0  0  0  0  0  0  0
  149.4725  142.5394  157.9546 H   0  0  0  0  0  0  0  0  0  0  0  0
  149.3438  142.9353  155.8721 H   0  0  0  0  0  0  0  0  0  0  0  0
  150.0513  140.2961  154.9263 H   0  0  0  0  0  0  0  0  0  0  0  0
  148.6433  140.4430  155.9669 H   0  0  0  0  0  0  0  0  0  0  0  0
  149.0600  142.1537  153.4678 H   0  0  0  0  0  0  0  0  0  0  0  0
  148.2102  140.6364  153.4304 H   0  0  0  0  0  0  0  0  0  0  0  0
  146.6599  141.2464  156.5160 H   0  0  0  0  0  0  0  0  0  0  0  0
  144.6666  145.1259  153.6576 H   0  0  0  0  0  0  0  0  0  0  0  0
  144.2496  145.0749  155.3812 H   0  0  0  0  0  0  0  0  0  0  0  0
  143.4491  143.9718  154.2401 H   0  0  0  0  0  0  0  0  0  0  0  0
  146.6686  143.6676  152.9597 H   0  0  0  0  0  0  0  0  0  0  0  0
  150.8172  142.2921  155.5422 H   0  0  0  0  0  0  0  0  0  0  0  0
  1  2  1  0  0  0  0
  1 19  1  0  0  0  0
  1 20  1  0  0  0  0
  1 21  1  0  0  0  0
  2  8  1  0  0  0  0
  2  3  2  0  0  0  0
  3  4  1  0  0  0  0
  3 22  1  0  0  0  0
  4  5  1  0  0  0  0
  4 23  1  0  0  0  0
  4 24  1  0  0  0  0
  5  6  1  0  0  0  0
  5 25  1  0  0  0  0
  5 26  1  0  0  0  0
  6  7  1  0  0  0  0
  6  8  1  0  0  0  0
  6 27  1  0  0  0  0
  7 28  1  0  0  0  0
  7 29  1  0  0  0  0
  7 30  1  0  0  0  0
  8  9  1  0  0  0  0
  8 31  1  0  0  0  0
  9 10  1  0  0  0  0
  9 32  1  0  0  0  0
  9 33  1  0  0  0  0
 10 11  1  0  0  0  0
 10 34  1  0  0  0  0
 10 44  1  0  0  0  0
 11 12  1  0  0  0  0
 11 35  1  0  0  0  0
 11 36  1  0  0  0  0
 12 13  1  0  0  0  0
 12 37  1  0  0  0  0
 12 38  1  0  0  0  0
 13 18  2  0  0  0  0
 13 14  1  0  0  0  0
 14 15  2  0  0  0  0
 14 39  1  0  0  0  0
 15 16  1  0  0  0  0
 16 17  1  0  0  0  0
 16 18  1  0  0  0  0
 17 40  1  0  0  0  0
 17 41  1  0  0  0  0
 17 42  1  0  0  0  0
 18 43  1  0  0  0  0
M  CHG  1  10   1
M  END
> <s_m_source_file>
AV-unprocessed.smi

> <i_m_source_file_index>
3293

> <i_lp_mmshare_version>
43012

> <i_f3d_flags>
0

> <s_epik_input>
W0NIM11DMT1bQ0hdW0NIMl1bQ0gyXVtDQEBIXShbQ0gzXSlbQ0BIXTFbQ0gyXVtOSF1bQ0gyXVtDSDJdYzJbY0hdbm4oW0NIM10pW2NIXTI=

> <s_epik_cmdline>
J2VwaWtfcHl0aG9uJywgJy1waCcsICc3LjAnLCAnLXRuJywgJzgnLCAnLW1hJywgJzIwMCcsICctbWV0YWxfYmluZGluZycsICctaW1hZScsICc8aW5maWxlLm1hZT4nLCAnLW9tYWUnLCAnPG91dGZpbGUubWFlPic=

> <r_lp_tautomer_probability>
1

> <r_epik_Ionization_Penalty>
0.000598621

> <r_epik_Ionization_Penalty_Charging>
0.000582095

> <r_epik_Ionization_Penalty_Neutral>
1.65262e-05

> <r_epik_State_Penalty>
-0

> <r_epik_Charging_Adjusted_Penalty>
0.000582095

> <i_epik_Tot_Q>
1

> <i_epik_Tot_abs_Q>
1

> <r_epik_Metal_State_Penalty>
-0

> <b_epik_Metal_Only>
0

> <s_lp_Force_Field>
OPLS_2005

> <r_lp_Energy>
11.8092

> <b_lp_Chiralities_Consistent>
1

> <s_lp_Variant>
AV-unprocessed.smi:3293-3

> <Gold.Version>
5.8.1

> <Gold.Id.Protein>
6NUR|6NUR_protein|mol2

> <Gold.PLP.Fitness>
46.9036

> <Gold.PLP.PLP>
-43.8043

> <Gold.PLP.part.hbond>
-1.0000

> <Gold.PLP.part.metal>
0.0000

> <Gold.PLP.part.buried>
-5.1406

> <Gold.PLP.part.nonpolar>
-37.3101

> <Gold.PLP.part.repulsive>
0.2634

> <Gold.PLP.ligand.clash>
0.0000

> <Gold.PLP.ligand.torsion>
1.4776

> <Gold.PLP.Chemscore.Hbond>
2.0000

> <Gold.PLP.Chemscore.CHOScore>
0.0000

> <Gold.PLP.Chemscore.Metal>
0.0000

> <Gold.Chemscore.Hbonds>
donor molecule, donor type, donor heavy atom, donor atom, acceptor molecule, acceptor atom, score
      L1  H    10    34       P1  8028  2.00

> <Gold.PLP.Chemscore.Internal.Correction>
0.0544

> <Gold.Rescore>
     Score         DG    S(hbond)    S(metal)    S(lipo)     H(rot)  DE(clash)    DE(int)     intcor
     17.09     -19.50       0.99        0.00     124.08       1.48       0.92       1.50       ----

> <Gold.Chemscore.Fitness>
17.0875

> <Gold.Chemscore.DG>
-19.5029

> <Gold.Chemscore.ZeroCoef>
-5.4800

> <Gold.Chemscore.Hbond>
0.9898

> <Gold.Chemscore.Metal>
0.0000

> <Gold.Chemscore.Lipo>
124.0846

> <Gold.Chemscore.Internal_Hbond>
0.0000

> <Gold.Chemscore.DEClash>
0.9190

> <Gold.Chemscore.DEInternal>
1.4964

> <Gold.Chemscore.Rot>
1.4847

> <Gold.Chemscore.Internal.Correction>
   9.000000E+99

> <Gold.Chemscore.Hbonds>
donor molecule, donor type, donor heavy atom, donor atom, acceptor molecule, acceptor atom, score
      L1  H    10    34       P1  8028  1.00

> <Gold.Chemscore.Hbond.Weighted>
-3.3058

> <Gold.Chemscore.Metal.Weighted>
-0.0000

> <Gold.Chemscore.Lipo.Weighted>
-14.5179

> <Gold.Chemscore.Internal_Hbond.Weighted>
0.0000

> <Gold.Chemscore.DEClash.Weighted>
0.9190

> <Gold.Chemscore.DEInternal.Weighted>
1.4964

> <Gold.Chemscore.Rot.Weighted>
3.8008

> <Gold.Chemscore.Internal.Correction.Weighted>
   9.000000E+99

> <Gold.Protein.RotatedTorsions>
[ 6907 6896 6895 6894 ] final   59.52 input  -60.11 | X-H torsion
[ 7974 7965 7964 7962 ] final  -27.46 input  175.53 | X-H torsion
[ 8008 7997 7996 7995 ] final  -53.91 input   59.86 | X-H torsion
[ 10167 10162 10161 10158 ] final  -51.21 input  -65.29 | X-H torsion
[ 10718 10713 10712 10709 ] final  -88.02 input   66.30 | X-H torsion
[ 10763 10752 10751 10750 ] final   65.62 input  -60.55 | X-H torsion
[ 11005 11000 10999 10996 ] final  -16.64 input  -57.11 | X-H torsion

> <Gold.Protein.ActiveResidues>
 VAL166  LYS551  ARG553  GLY616  TRP617  ASP618  TYR619  PRO620  LYS621  CYS622 
 ASP623  PHE694  ASN695  SER759  ASP760  ASP761  ALA762  ILE779  LEU786  VAL792 
 PHE793  MET794  SER795  GLU796  ALA797  LYS798  CYS799  TRP800  GLU811  SER814 

> <Gold.Protein.RotatedAtoms>
  152.3922  134.6423  160.0102 H   0  0  0  0  0  0  0  0  0  0  0  0  # atno 6907 bound_to 6896
  151.6653  133.3310  159.3192 H   0  0  0  0  0  0  0  0  0  0  0  0  # atno 6908 bound_to 6896
  150.7836  134.6845  159.6507 H   0  0  0  0  0  0  0  0  0  0  0  0  # atno 6909 bound_to 6896
  146.1356  140.5155  142.8674 H   0  0  0  0  0  0  0  0  0  0  0  0  # atno 7974 bound_to 7965
  154.4147  140.1189  156.5230 H   0  0  0  0  0  0  0  0  0  0  0  0  # atno 8008 bound_to 7997
  155.6683  140.3496  155.4789 H   0  0  0  0  0  0  0  0  0  0  0  0  # atno 8009 bound_to 7997
  155.9655  140.1131  157.0848 H   0  0  0  0  0  0  0  0  0  0  0  0  # atno 8010 bound_to 7997
  140.6599  143.2628  151.4471 H   0  0  0  0  0  0  0  0  0  0  0  0  # atno 10167 bound_to 10162
  155.9984  130.4821  150.4956 H   0  0  0  0  0  0  0  0  0  0  0  0  # atno 10718 bound_to 10713
  153.0104  135.5350  154.6696 H   0  0  0  0  0  0  0  0  0  0  0  0  # atno 10763 bound_to 10752
  154.5884  135.2856  155.0663 H   0  0  0  0  0  0  0  0  0  0  0  0  # atno 10764 bound_to 10752
  154.1765  135.6523  153.5075 H   0  0  0  0  0  0  0  0  0  0  0  0  # atno 10765 bound_to 10752
  140.8088  133.8157  155.9542 H   0  0  0  0  0  0  0  0  0  0  0  0  # atno 11005 bound_to 11000
  144.7736  140.5691  143.6653 LP  0  0  0  0  0  0  0  0  0  0  0  0  # atno 17320 bound_to 7965
  145.5164  139.1478  143.3576 LP  0  0  0  0  0  0  0  0  0  0  0  0  # atno 17321 bound_to 7965
  139.5831  144.1666  152.1994 LP  0  0  0  0  0  0  0  0  0  0  0  0  # atno 17342 bound_to 10162
  140.0997  144.5550  150.6997 LP  0  0  0  0  0  0  0  0  0  0  0  0  # atno 17343 bound_to 10162
  157.2946  131.0633  151.2110 LP  0  0  0  0  0  0  0  0  0  0  0  0  # atno 17370 bound_to 10713
  157.3111  130.6890  149.6216 LP  0  0  0  0  0  0  0  0  0  0  0  0  # atno 17371 bound_to 10713
  140.9219  134.2131  157.4921 LP  0  0  0  0  0  0  0  0  0  0  0  0  # atno 17394 bound_to 11000
  139.8715  134.9796  156.5042 LP  0  0  0  0  0  0  0  0  0  0  0  0  # atno 17395 bound_to 11000

$$$$
