AV-unprocessed.smi:1644|AV-procd|sdf|6593|dock8
  -GOLD-   22720 7293D 1   1.00000     0.00000
 Structure written by MMmdl.
 48 50  0  0  0  0  0  0  0  0  2 V2000
  148.8730  133.7722  161.1673 C   0  0  0  0  0  0  0  0  0  0  0  0
  148.9798  135.1846  160.5818 C   0  0  0  0  0  0  0  0  0  0  0  0
  149.4062  135.1800  159.1046 C   0  0  0  0  0  0  0  0  0  0  0  0
  150.2072  136.4352  158.6972 C   0  0  1  0  0  0  0  0  0  0  0  0
  151.3883  136.0873  157.9338 N   0  5  0  0  0  0  0  0  0  0  0  0
  151.3170  136.6897  156.7242 C   0  0  0  0  0  0  0  0  0  0  0  0
  152.1444  136.6150  155.8166 O   0  0  0  0  0  0  0  0  0  0  0  0
  150.1834  137.4062  156.6072 N   0  0  0  0  0  0  0  0  0  0  0  0
  149.7726  138.1454  155.4083 C   0  0  0  0  0  0  0  0  0  0  0  0
  150.0188  139.6602  155.5657 C   0  0  2  0  0  0  0  0  0  0  0  0
  149.6141  140.3097  154.3759 O   0  0  0  0  0  0  0  0  0  0  0  0
  151.5058  139.9787  155.8120 C   0  0  0  0  0  0  0  0  0  0  0  0
  151.8209  140.0793  157.2259 N   0  0  0  0  0  0  0  0  0  0  0  0
  152.5654  139.2218  157.9494 C   0  0  0  0  0  0  0  0  0  0  0  0
  152.7286  139.4956  159.2404 N   0  0  0  0  0  0  0  0  0  0  0  0
  152.0017  140.6667  159.3699 C   0  0  0  0  0  0  0  0  0  0  0  0
  151.7675  141.4786  160.5011 C   0  0  0  0  0  0  0  0  0  0  0  0
  150.9812  142.6487  160.4035 C   0  0  0  0  0  0  0  0  0  0  0  0
  150.7535  143.4906  161.6464 C   0  0  0  0  0  0  0  0  0  0  0  0
  150.4171  143.0235  159.1575 C   0  0  0  0  0  0  0  0  0  0  0  0
  149.5714  144.2778  159.0272 C   0  0  0  0  0  0  0  0  0  0  0  0
  150.6397  142.2225  158.0177 C   0  0  0  0  0  0  0  0  0  0  0  0
  151.4231  141.0602  158.1278 C   0  0  0  0  0  0  0  0  0  0  0  0
  149.4465  137.3064  157.7182 C   0  0  0  0  0  0  0  0  0  0  0  0
  148.3431  137.8077  157.9372 O   0  0  0  0  0  0  0  0  0  0  0  0
  148.5758  133.8078  162.2155 H   0  0  0  0  0  0  0  0  0  0  0  0
  149.8283  133.2498  161.1099 H   0  0  0  0  0  0  0  0  0  0  0  0
  148.1323  133.1787  160.6310 H   0  0  0  0  0  0  0  0  0  0  0  0
  148.0188  135.6896  160.6830 H   0  0  0  0  0  0  0  0  0  0  0  0
  149.6939  135.7612  161.1707 H   0  0  0  0  0  0  0  0  0  0  0  0
  149.9844  134.2789  158.8914 H   0  0  0  0  0  0  0  0  0  0  0  0
  148.5077  135.1121  158.4894 H   0  0  0  0  0  0  0  0  0  0  0  0
  150.4405  137.0336  159.5788 H   0  0  0  0  0  0  0  0  0  0  0  0
  150.3527  137.7667  154.5651 H   0  0  0  0  0  0  0  0  0  0  0  0
  148.7323  137.9400  155.1498 H   0  0  0  0  0  0  0  0  0  0  0  0
  149.4328  140.0529  156.3983 H   0  0  0  0  0  0  0  0  0  0  0  0
  148.6689  140.3128  154.3450 H   0  0  0  0  0  0  0  0  0  0  0  0
  152.1328  139.1958  155.3833 H   0  0  0  0  0  0  0  0  0  0  0  0
  151.7893  140.9093  155.3185 H   0  0  0  0  0  0  0  0  0  0  0  0
  153.0110  138.3452  157.5021 H   0  0  0  0  0  0  0  0  0  0  0  0
  152.1988  141.1928  161.4492 H   0  0  0  0  0  0  0  0  0  0  0  0
  151.2123  144.4725  161.5300 H   0  0  0  0  0  0  0  0  0  0  0  0
  151.1856  143.0199  162.5296 H   0  0  0  0  0  0  0  0  0  0  0  0
  149.6875  143.6247  161.8301 H   0  0  0  0  0  0  0  0  0  0  0  0
  149.2707  144.4488  157.9932 H   0  0  0  0  0  0  0  0  0  0  0  0
  150.1293  145.1529  159.3614 H   0  0  0  0  0  0  0  0  0  0  0  0
  148.6672  144.1915  159.6299 H   0  0  0  0  0  0  0  0  0  0  0  0
  150.2106  142.4911  157.0636 H   0  0  0  0  0  0  0  0  0  0  0  0
  1  2  1  0  0  0  0
  1 26  1  0  0  0  0
  1 27  1  0  0  0  0
  1 28  1  0  0  0  0
  2  3  1  0  0  0  0
  2 29  1  0  0  0  0
  2 30  1  0  0  0  0
  3  4  1  0  0  0  0
  3 31  1  0  0  0  0
  3 32  1  0  0  0  0
  4 24  1  0  0  0  0
  4  5  1  0  0  0  0
  4 33  1  0  0  0  0
  5  6  1  0  0  0  0
  6  7  2  0  0  0  0
  6  8  1  0  0  0  0
  8  9  1  0  0  0  0
  8 24  1  0  0  0  0
  9 10  1  0  0  0  0
  9 34  1  0  0  0  0
  9 35  1  0  0  0  0
 10 11  1  0  0  0  0
 10 12  1  0  0  0  0
 10 36  1  0  0  0  0
 11 37  1  0  0  0  0
 12 13  1  0  0  0  0
 12 38  1  0  0  0  0
 12 39  1  0  0  0  0
 13 23  1  0  0  0  0
 13 14  1  0  0  0  0
 14 15  2  0  0  0  0
 14 40  1  0  0  0  0
 15 16  1  0  0  0  0
 16 23  2  0  0  0  0
 16 17  1  0  0  0  0
 17 18  2  0  0  0  0
 17 41  1  0  0  0  0
 18 19  1  0  0  0  0
 18 20  1  0  0  0  0
 19 42  1  0  0  0  0
 19 43  1  0  0  0  0
 19 44  1  0  0  0  0
 20 21  1  0  0  0  0
 20 22  2  0  0  0  0
 21 45  1  0  0  0  0
 21 46  1  0  0  0  0
 21 47  1  0  0  0  0
 22 23  1  0  0  0  0
 22 48  1  0  0  0  0
 24 25  2  0  0  0  0
M  CHG  1   5  -1
M  END
> <s_m_source_file>
AV-unprocessed.smi

> <i_m_source_file_index>
1644

> <i_lp_mmshare_version>
43012

> <i_f3d_flags>
0

> <s_epik_input>
W0NIM11bQ0gyXVtDSDJdW0NAQEhdMVtOSF1DKD1PKU4oQzE9TylbQ0gyXVtDQEhdKFtPSF0pW0NIMl1uKFtjSF1uMiljKGMyMylbY0hdYyhbQ0gzXSljKFtjSF0zKVtDSDNd

> <s_epik_cmdline>
J2VwaWtfcHl0aG9uJywgJy1waCcsICc3LjAnLCAnLXRuJywgJzgnLCAnLW1hJywgJzIwMCcsICctbWV0YWxfYmluZGluZycsICctaW1hZScsICc8aW5maWxlLm1hZT4nLCAnLW9tYWUnLCAnPG91dGZpbGUubWFlPic=

> <r_lp_tautomer_probability>
1

> <r_epik_Ionization_Penalty>
5.95212

> <r_epik_Ionization_Penalty_Charging>
5.84419

> <r_epik_Ionization_Penalty_Neutral>
0.107924

> <r_epik_State_Penalty>
5.94088

> <r_epik_Charging_Adjusted_Penalty>
11.7851

> <i_epik_Tot_Q>
-1

> <i_epik_Tot_abs_Q>
1

> <r_epik_Metal_State_Penalty>
1.99095

> <b_epik_Metal_Only>
1

> <s_lp_Force_Field>
OPLS_2005

> <r_lp_Energy>
18.6255

> <b_lp_Chiralities_Consistent>
1

> <s_lp_Variant>
AV-unprocessed.smi:1644-10

> <Gold.Version>
5.8.1

> <Gold.Id.Protein>
6NUR|6NUR_protein|mol2

> <Gold.PLP.Fitness>
51.4740

> <Gold.PLP.PLP>
-45.1913

> <Gold.PLP.part.hbond>
-2.9988

> <Gold.PLP.part.metal>
0.0000

> <Gold.PLP.part.buried>
-5.0381

> <Gold.PLP.part.nonpolar>
-36.2322

> <Gold.PLP.part.repulsive>
0.0000

> <Gold.PLP.ligand.clash>
0.0000

> <Gold.PLP.ligand.torsion>
1.6717

> <Gold.PLP.Chemscore.Hbond>
3.1748

> <Gold.PLP.Chemscore.CHOScore>
0.0000

> <Gold.PLP.Chemscore.Metal>
0.0000

> <Gold.Chemscore.Hbonds>
donor molecule, donor type, donor heavy atom, donor atom, acceptor molecule, acceptor atom, score
      P1  H  7989  7998       L1    11  0.37
      P1  H 10752 10764       L1     7  1.00

> <Gold.PLP.Chemscore.Internal.Correction>
0.1017

> <Gold.Rescore>
     Score         DG    S(hbond)    S(metal)    S(lipo)     H(rot)  DE(clash)    DE(int)     intcor
     16.67     -18.48       1.83        0.00     116.87       2.65       0.07       1.74       ----

> <Gold.Chemscore.Fitness>
16.6690

> <Gold.Chemscore.DG>
-18.4789

> <Gold.Chemscore.ZeroCoef>
-5.4800

> <Gold.Chemscore.Hbond>
1.8281

> <Gold.Chemscore.Metal>
0.0000

> <Gold.Chemscore.Lipo>
116.8671

> <Gold.Chemscore.Internal_Hbond>
0.0000

> <Gold.Chemscore.DEClash>
0.0719

> <Gold.Chemscore.DEInternal>
1.7381

> <Gold.Chemscore.Rot>
2.6486

> <Gold.Chemscore.Internal.Correction>
   9.000000E+99

> <Gold.Chemscore.Hbonds>
donor molecule, donor type, donor heavy atom, donor atom, acceptor molecule, acceptor atom, score
      P1  H  7989  7998       L1    11  0.12
      P1  H 10752 10764       L1     7  0.98

> <Gold.Chemscore.Hbond.Weighted>
-6.1059

> <Gold.Chemscore.Metal.Weighted>
-0.0000

> <Gold.Chemscore.Lipo.Weighted>
-13.6735

> <Gold.Chemscore.Internal_Hbond.Weighted>
0.0000

> <Gold.Chemscore.DEClash.Weighted>
0.0719

> <Gold.Chemscore.DEInternal.Weighted>
1.7381

> <Gold.Chemscore.Rot.Weighted>
6.7804

> <Gold.Chemscore.Internal.Correction.Weighted>
   9.000000E+99

> <Gold.Protein.RotatedTorsions>
[ 6907 6896 6895 6894 ] final  -44.03 input  -60.11 | X-H torsion
[ 7974 7965 7964 7962 ] final -149.90 input  175.53 | X-H torsion
[ 8008 7997 7996 7995 ] final   62.49 input   59.86 | X-H torsion
[ 10167 10162 10161 10158 ] final  146.96 input  -65.29 | X-H torsion
[ 10718 10713 10712 10709 ] final   80.64 input   66.30 | X-H torsion
[ 10763 10752 10751 10750 ] final  -31.66 input  -60.55 | X-H torsion
[ 11005 11000 10999 10996 ] final  102.01 input  -57.11 | X-H torsion

> <Gold.Protein.ActiveResidues>
 VAL166  LYS551  ARG553  GLY616  TRP617  ASP618  TYR619  PRO620  LYS621  CYS622 
 ASP623  PHE694  ASN695  SER759  ASP760  ASP761  ALA762  ILE779  LEU786  VAL792 
 PHE793  MET794  SER795  GLU796  ALA797  LYS798  CYS799  TRP800  GLU811  SER814 

> <Gold.Protein.RotatedAtoms>
  150.9374  134.8785  159.7589 H   0  0  0  0  0  0  0  0  0  0  0  0  # atno 6907 bound_to 6896
  152.5065  134.3991  159.9420 H   0  0  0  0  0  0  0  0  0  0  0  0  # atno 6908 bound_to 6896
  151.4014  133.3716  159.2767 H   0  0  0  0  0  0  0  0  0  0  0  0  # atno 6909 bound_to 6896
  144.7940  140.5004  143.5753 H   0  0  0  0  0  0  0  0  0  0  0  0  # atno 7974 bound_to 7965
  155.6152  140.3495  155.4635 H   0  0  0  0  0  0  0  0  0  0  0  0  # atno 8008 bound_to 7997
  156.0123  140.1236  157.0466 H   0  0  0  0  0  0  0  0  0  0  0  0  # atno 8009 bound_to 7997
  154.4285  140.1079  156.5832 H   0  0  0  0  0  0  0  0  0  0  0  0  # atno 8010 bound_to 7997
  139.4898  144.5791  151.6908 H   0  0  0  0  0  0  0  0  0  0  0  0  # atno 10167 bound_to 10162
  157.6812  130.9968  150.2109 H   0  0  0  0  0  0  0  0  0  0  0  0  # atno 10718 bound_to 10713
  153.8010  135.6890  153.4855 H   0  0  0  0  0  0  0  0  0  0  0  0  # atno 10763 bound_to 10752
  153.1688  135.4550  154.9873 H   0  0  0  0  0  0  0  0  0  0  0  0  # atno 10764 bound_to 10752
  154.8006  135.3336  154.7499 H   0  0  0  0  0  0  0  0  0  0  0  0  # atno 10765 bound_to 10752
  139.8775  134.9206  156.4993 H   0  0  0  0  0  0  0  0  0  0  0  0  # atno 11005 bound_to 11000
  145.5721  139.1484  143.3282 LP  0  0  0  0  0  0  0  0  0  0  0  0  # atno 17320 bound_to 7965
  146.2202  140.5854  142.9021 LP  0  0  0  0  0  0  0  0  0  0  0  0  # atno 17321 bound_to 7965
  140.5393  144.0605  150.6082 LP  0  0  0  0  0  0  0  0  0  0  0  0  # atno 17342 bound_to 10162
  140.3622  143.2902  152.0371 LP  0  0  0  0  0  0  0  0  0  0  0  0  # atno 17343 bound_to 10162
  156.2780  130.3730  149.7963 LP  0  0  0  0  0  0  0  0  0  0  0  0  # atno 17370 bound_to 10713
  156.5660  130.8404  151.3343 LP  0  0  0  0  0  0  0  0  0  0  0  0  # atno 17371 bound_to 10713
  140.8601  133.8066  155.9256 LP  0  0  0  0  0  0  0  0  0  0  0  0  # atno 17394 bound_to 11000
  140.9058  134.2322  157.5015 LP  0  0  0  0  0  0  0  0  0  0  0  0  # atno 17395 bound_to 11000

$$$$
