AV-unprocessed.smi:3101|AV-procd|sdf|11810|dock3
  -GOLD-   2272017183D 1   1.00000     0.00000
 Structure written by MMmdl.
 28 29  0  0  0  0  0  0  0  0  1 V2000
  151.5807  144.2368  158.5405 C   0  0  0  0  0  0  0  0  0  0  0  0
  152.2256  143.2236  159.5038 C   0  0  2  0  0  0  0  0  0  0  0  0
  153.7160  143.0316  159.3108 C   0  0  0  0  0  0  0  0  0  0  0  0
  153.9527  141.7524  160.1050 C   0  0  0  0  0  0  0  0  0  0  0  0
  152.7755  140.9683  159.9286 O   0  0  0  0  0  0  0  0  0  0  0  0
  151.6877  141.7759  159.4747 C   0  0  2  0  0  0  0  0  0  0  0  0
  151.2670  141.2508  158.0915 C   0  0  0  0  0  0  0  0  0  0  0  0
  150.4741  141.8951  157.4038 O   0  0  0  0  0  0  0  0  0  0  0  0
  151.8323  140.0896  157.7134 N   0  0  0  0  0  0  0  0  0  0  0  0
  151.6291  139.3666  156.5087 C   0  0  0  0  0  0  0  0  0  0  0  0
  152.1443  138.0491  156.4888 C   0  0  0  0  0  0  0  0  0  0  0  0
  152.0281  137.2362  155.4153 N   0  0  0  0  0  0  0  0  0  0  0  0
  151.3872  137.7433  154.3408 C   0  0  0  0  0  0  0  0  0  0  0  0
  150.8670  139.0529  154.3424 C   0  0  0  0  0  0  0  0  0  0  0  0
  150.9864  139.8597  155.4190 N   0  0  0  0  0  0  0  0  0  0  0  0
  151.7651  143.9851  157.4958 H   0  0  0  0  0  0  0  0  0  0  0  0
  151.9824  145.2363  158.7079 H   0  0  0  0  0  0  0  0  0  0  0  0
  150.5018  144.2855  158.6897 H   0  0  0  0  0  0  0  0  0  0  0  0
  152.0707  143.6005  160.5164 H   0  0  0  0  0  0  0  0  0  0  0  0
  153.9568  142.8764  158.2584 H   0  0  0  0  0  0  0  0  0  0  0  0
  154.3074  143.8717  159.6760 H   0  0  0  0  0  0  0  0  0  0  0  0
  154.8432  141.2146  159.7788 H   0  0  0  0  0  0  0  0  0  0  0  0
  154.0636  141.9803  161.1658 H   0  0  0  0  0  0  0  0  0  0  0  0
  150.8543  141.6754  160.1721 H   0  0  0  0  0  0  0  0  0  0  0  0
  152.4793  139.6742  158.3675 H   0  0  0  0  0  0  0  0  0  0  0  0
  152.6579  137.6382  157.3461 H   0  0  0  0  0  0  0  0  0  0  0  0
  151.2883  137.1025  153.4772 H   0  0  0  0  0  0  0  0  0  0  0  0
  150.3550  139.4531  153.4799 H   0  0  0  0  0  0  0  0  0  0  0  0
  1  2  1  0  0  0  0
  1 16  1  0  0  0  0
  1 17  1  0  0  0  0
  1 18  1  0  0  0  0
  2  6  1  0  0  0  0
  2  3  1  0  0  0  0
  2 19  1  0  0  0  0
  3  4  1  0  0  0  0
  3 20  1  0  0  0  0
  3 21  1  0  0  0  0
  4  5  1  0  0  0  0
  4 22  1  0  0  0  0
  4 23  1  0  0  0  0
  5  6  1  0  0  0  0
  6  7  1  0  0  0  0
  6 24  1  0  0  0  0
  7  8  2  0  0  0  0
  7  9  1  0  0  0  0
  9 10  1  0  0  0  0
  9 25  1  0  0  0  0
 10 15  1  0  0  0  0
 10 11  2  0  0  0  0
 11 12  1  0  0  0  0
 11 26  1  0  0  0  0
 12 13  2  0  0  0  0
 13 14  1  0  0  0  0
 13 27  1  0  0  0  0
 14 15  2  0  0  0  0
 14 28  1  0  0  0  0
M  END
> <s_m_source_file>
AV-unprocessed.smi

> <i_m_source_file_index>
3101

> <i_lp_mmshare_version>
43012

> <i_f3d_flags>
0

> <s_epik_input>
W0NIM11bQ0BASF0xW0NIMl1bQ0gyXU9bQ0BIXTFDKD1PKVtOSF1jMltjSF1uW2NIXVtjSF1uMg==

> <s_epik_cmdline>
J2VwaWtfcHl0aG9uJywgJy1waCcsICc3LjAnLCAnLXRuJywgJzgnLCAnLW1hJywgJzIwMCcsICctbWV0YWxfYmluZGluZycsICctaW1hZScsICc8aW5maWxlLm1hZT4nLCAnLW9tYWUnLCAnPG91dGZpbGUubWFlPic=

> <r_lp_tautomer_probability>
1

> <r_epik_Ionization_Penalty>
2.83174e-06

> <r_epik_Ionization_Penalty_Charging>
0

> <r_epik_Ionization_Penalty_Neutral>
2.83174e-06

> <r_epik_State_Penalty>
-0

> <r_epik_Charging_Adjusted_Penalty>
0

> <i_epik_Tot_Q>
0

> <i_epik_Tot_abs_Q>
0

> <r_epik_Metal_State_Penalty>
-0

> <b_epik_Metal_Only>
0

> <s_lp_Force_Field>
OPLS_2005

> <r_lp_Energy>
27.4183

> <b_lp_Chiralities_Consistent>
1

> <s_lp_Variant>
AV-unprocessed.smi:3101-3

> <Gold.Version>
5.8.1

> <Gold.Id.Protein>
6NUR|6NUR_protein|mol2

> <Gold.PLP.Fitness>
36.6340

> <Gold.PLP.PLP>
-28.1260

> <Gold.PLP.part.hbond>
-1.1081

> <Gold.PLP.part.metal>
0.0000

> <Gold.PLP.part.buried>
-4.8585

> <Gold.PLP.part.nonpolar>
-22.8762

> <Gold.PLP.part.repulsive>
0.2207

> <Gold.PLP.ligand.clash>
0.0000

> <Gold.PLP.ligand.torsion>
0.1674

> <Gold.PLP.Chemscore.Hbond>
0.9440

> <Gold.PLP.Chemscore.CHOScore>
2.0000

> <Gold.PLP.Chemscore.Metal>
0.0000

> <Gold.Chemscore.Hbonds>
donor molecule, donor type, donor heavy atom, donor atom, acceptor molecule, acceptor atom, score
      P1  H 10752 10765       L1    12  0.91
      L1  C    13    27       P1  7949  1.00
      L1  C    14    28       P1  7957  1.00

> <Gold.PLP.Chemscore.Internal.Correction>
0.0109

> <Gold.Rescore>
     Score         DG    S(hbond)    S(metal)    S(lipo)     H(rot)  DE(clash)    DE(int)     intcor
     11.62     -14.55       0.83        0.00      75.57       1.00       0.06       2.87       ----

> <Gold.Chemscore.Fitness>
11.6249

> <Gold.Chemscore.DG>
-14.5472

> <Gold.Chemscore.ZeroCoef>
-5.4800

> <Gold.Chemscore.Hbond>
0.8340

> <Gold.Chemscore.Metal>
0.0000

> <Gold.Chemscore.Lipo>
75.5706

> <Gold.Chemscore.Internal_Hbond>
0.0000

> <Gold.Chemscore.DEClash>
0.0563

> <Gold.Chemscore.DEInternal>
2.8660

> <Gold.Chemscore.Rot>
1.0000

> <Gold.Chemscore.Internal.Correction>
   9.000000E+99

> <Gold.Chemscore.Hbonds>
donor molecule, donor type, donor heavy atom, donor atom, acceptor molecule, acceptor atom, score
      P1  H 10752 10765       L1    12  0.37

> <Gold.Chemscore.Hbond.Weighted>
-2.7854

> <Gold.Chemscore.Metal.Weighted>
-0.0000

> <Gold.Chemscore.Lipo.Weighted>
-8.8418

> <Gold.Chemscore.Internal_Hbond.Weighted>
0.0000

> <Gold.Chemscore.DEClash.Weighted>
0.0563

> <Gold.Chemscore.DEInternal.Weighted>
2.8660

> <Gold.Chemscore.Rot.Weighted>
2.5600

> <Gold.Chemscore.Internal.Correction.Weighted>
   9.000000E+99

> <Gold.Protein.RotatedTorsions>
[ 6907 6896 6895 6894 ] final   90.65 input  -60.11 | X-H torsion
[ 7974 7965 7964 7962 ] final   63.29 input  175.53 | X-H torsion
[ 8008 7997 7996 7995 ] final  -93.05 input   59.86 | X-H torsion
[ 10167 10162 10161 10158 ] final -114.42 input  -65.29 | X-H torsion
[ 10718 10713 10712 10709 ] final    5.62 input   66.30 | X-H torsion
[ 10763 10752 10751 10750 ] final -174.17 input  -60.55 | X-H torsion
[ 11005 11000 10999 10996 ] final  178.38 input  -57.11 | X-H torsion

> <Gold.Protein.ActiveResidues>
 VAL166  LYS551  ARG553  GLY616  TRP617  ASP618  TYR619  PRO620  LYS621  CYS622 
 ASP623  PHE694  ASN695  SER759  ASP760  ASP761  ALA762  ILE779  LEU786  VAL792 
 PHE793  MET794  SER795  GLU796  ALA797  LYS798  CYS799  TRP800  GLU811  SER814 

> <Gold.Protein.RotatedAtoms>
  152.5446  134.1779  159.8623 H   0  0  0  0  0  0  0  0  0  0  0  0  # atno 6907 bound_to 6896
  151.1783  133.4734  159.2601 H   0  0  0  0  0  0  0  0  0  0  0  0  # atno 6908 bound_to 6896
  151.1204  135.0087  159.8591 H   0  0  0  0  0  0  0  0  0  0  0  0  # atno 6909 bound_to 6896
  145.8635  139.3330  143.0805 H   0  0  0  0  0  0  0  0  0  0  0  0  # atno 7974 bound_to 7965
  154.7308  140.0503  157.0725 H   0  0  0  0  0  0  0  0  0  0  0  0  # atno 8008 bound_to 7997
  155.0304  140.3157  155.4741 H   0  0  0  0  0  0  0  0  0  0  0  0  # atno 8009 bound_to 7997
  156.2841  140.2151  156.5425 H   0  0  0  0  0  0  0  0  0  0  0  0  # atno 8010 bound_to 7997
  140.1012  143.4611  152.1811 H   0  0  0  0  0  0  0  0  0  0  0  0  # atno 10167 bound_to 10162
  156.9101  130.5753  149.5647 H   0  0  0  0  0  0  0  0  0  0  0  0  # atno 10718 bound_to 10713
  154.5994  135.2853  155.0552 H   0  0  0  0  0  0  0  0  0  0  0  0  # atno 10763 bound_to 10752
  154.1822  135.6455  153.5041 H   0  0  0  0  0  0  0  0  0  0  0  0  # atno 10764 bound_to 10752
  153.0151  135.5426  154.6707 H   0  0  0  0  0  0  0  0  0  0  0  0  # atno 10765 bound_to 10752
  140.3944  134.6833  157.4526 H   0  0  0  0  0  0  0  0  0  0  0  0  # atno 11005 bound_to 11000
  145.9220  140.9108  143.0400 LP  0  0  0  0  0  0  0  0  0  0  0  0  # atno 17320 bound_to 7965
  144.6726  140.1302  143.7444 LP  0  0  0  0  0  0  0  0  0  0  0  0  # atno 17321 bound_to 7965
  139.5670  144.7441  151.3994 LP  0  0  0  0  0  0  0  0  0  0  0  0  # atno 17342 bound_to 10162
  140.6977  143.7709  150.7352 LP  0  0  0  0  0  0  0  0  0  0  0  0  # atno 17343 bound_to 10162
  156.0540  130.5605  150.9052 LP  0  0  0  0  0  0  0  0  0  0  0  0  # atno 17370 bound_to 10713
  157.5973  131.0942  150.9019 LP  0  0  0  0  0  0  0  0  0  0  0  0  # atno 17371 bound_to 10713
  140.0382  134.6306  155.9015 LP  0  0  0  0  0  0  0  0  0  0  0  0  # atno 17394 bound_to 11000
  141.1879  133.6561  156.5302 LP  0  0  0  0  0  0  0  0  0  0  0  0  # atno 17395 bound_to 11000

$$$$
