AV-unprocessed.smi:415|AV-procd|sdf|2523|dock4
  -GOLD-   2262022473D 1   1.00000     0.00000
 Structure written by MMmdl.
 53 54  0  0  0  0  0  0  0  0  1 V2000
  148.5132  133.1939  158.4781 C   0  0  0  0  0  0  0  0  0  0  0  0
  149.3872  134.3069  158.4205 O   0  0  0  0  0  0  0  0  0  0  0  0
  148.7039  135.5411  158.5636 C   0  0  0  0  0  0  0  0  0  0  0  0
  149.7173  136.6561  158.8704 C   0  0  0  0  0  0  0  0  0  0  0  0
  150.1071  137.4133  157.6954 N   0  0  0  0  0  0  0  0  0  0  0  0
  150.8992  136.8951  156.6740 C   0  0  0  0  0  0  0  0  0  0  0  0
  151.3742  135.5993  156.7644 N   0  0  0  0  0  0  0  0  0  0  0  0
  151.2287  137.6372  155.5935 C   0  0  0  0  0  0  0  0  0  0  0  0
  150.7828  139.0152  155.4402 C   0  0  0  0  0  0  0  0  0  0  0  0
  151.0550  139.6994  154.4533 O   0  0  0  0  0  0  0  0  0  0  0  0
  150.0041  139.5296  156.5020 N   0  0  0  0  0  0  0  0  0  0  0  0
  149.5024  140.9188  156.4166 C   0  0  0  0  0  0  0  0  0  0  0  0
  150.0167  141.8087  157.5573 C   0  0  0  0  0  0  0  0  0  0  0  0
  149.3191  142.0274  158.5486 O   0  0  0  0  0  0  0  0  0  0  0  0
  151.2446  142.3240  157.3935 N   0  0  0  0  0  0  0  0  0  0  0  0
  151.9378  143.1833  158.3518 C   0  0  1  0  0  0  0  0  0  0  0  0
  151.1672  144.5109  158.4955 C   0  0  0  0  0  0  0  0  0  0  0  0
  151.8323  145.4335  159.5205 C   0  0  0  0  0  0  0  0  0  0  0  0
  151.9542  144.7323  160.8772 C   0  0  0  0  0  0  0  0  0  0  0  0
  152.7408  143.4104  160.7719 C   0  0  1  0  0  0  0  0  0  0  0  0
  152.8619  142.7728  162.1683 C   0  0  0  0  0  0  0  0  0  0  0  0
  152.1022  142.4615  159.7173 C   0  0  2  0  0  0  0  0  0  0  0  0
  152.9021  141.1498  159.5585 C   0  0  0  0  0  0  0  0  0  0  0  0
  149.6570  138.7568  157.6335 C   0  0  0  0  0  0  0  0  0  0  0  0
  148.9756  139.2489  158.5378 O   0  0  0  0  0  0  0  0  0  0  0  0
  149.0834  132.2735  158.3538 H   0  0  0  0  0  0  0  0  0  0  0  0
  147.7652  133.2370  157.6855 H   0  0  0  0  0  0  0  0  0  0  0  0
  148.0017  133.1453  159.4402 H   0  0  0  0  0  0  0  0  0  0  0  0
  148.1785  135.7738  157.6364 H   0  0  0  0  0  0  0  0  0  0  0  0
  147.9523  135.4729  159.3515 H   0  0  0  0  0  0  0  0  0  0  0  0
  149.3243  137.3607  159.6023 H   0  0  0  0  0  0  0  0  0  0  0  0
  150.6288  136.2611  159.3225 H   0  0  0  0  0  0  0  0  0  0  0  0
  151.1615  135.0111  157.5575 H   0  0  0  0  0  0  0  0  0  0  0  0
  151.8094  135.1418  155.9760 H   0  0  0  0  0  0  0  0  0  0  0  0
  151.8415  137.2049  154.8152 H   0  0  0  0  0  0  0  0  0  0  0  0
  149.7757  141.3616  155.4569 H   0  0  0  0  0  0  0  0  0  0  0  0
  148.4124  140.9580  156.4234 H   0  0  0  0  0  0  0  0  0  0  0  0
  151.7430  142.0956  156.5457 H   0  0  0  0  0  0  0  0  0  0  0  0
  152.9361  143.4036  157.9681 H   0  0  0  0  0  0  0  0  0  0  0  0
  151.1104  145.0218  157.5335 H   0  0  0  0  0  0  0  0  0  0  0  0
  150.1385  144.3119  158.7995 H   0  0  0  0  0  0  0  0  0  0  0  0
  152.8205  145.7292  159.1659 H   0  0  0  0  0  0  0  0  0  0  0  0
  151.2522  146.3506  159.6264 H   0  0  0  0  0  0  0  0  0  0  0  0
  152.4437  145.4030  161.5843 H   0  0  0  0  0  0  0  0  0  0  0  0
  150.9577  144.5386  161.2771 H   0  0  0  0  0  0  0  0  0  0  0  0
  153.7500  143.6552  160.4369 H   0  0  0  0  0  0  0  0  0  0  0  0
  151.8956  142.4178  162.5278 H   0  0  0  0  0  0  0  0  0  0  0  0
  153.2401  143.4927  162.8947 H   0  0  0  0  0  0  0  0  0  0  0  0
  153.5543  141.9318  162.1741 H   0  0  0  0  0  0  0  0  0  0  0  0
  151.1055  142.1946  160.0731 H   0  0  0  0  0  0  0  0  0  0  0  0
  153.9268  141.3489  159.2437 H   0  0  0  0  0  0  0  0  0  0  0  0
  152.4539  140.4865  158.8191 H   0  0  0  0  0  0  0  0  0  0  0  0
  152.9411  140.5827  160.4875 H   0  0  0  0  0  0  0  0  0  0  0  0
  1  2  1  0  0  0  0
  1 26  1  0  0  0  0
  1 27  1  0  0  0  0
  1 28  1  0  0  0  0
  2  3  1  0  0  0  0
  3  4  1  0  0  0  0
  3 29  1  0  0  0  0
  3 30  1  0  0  0  0
  4  5  1  0  0  0  0
  4 31  1  0  0  0  0
  4 32  1  0  0  0  0
  5 24  1  0  0  0  0
  5  6  1  0  0  0  0
  6  7  1  0  0  0  0
  6  8  2  0  0  0  0
  7 33  1  0  0  0  0
  7 34  1  0  0  0  0
  8  9  1  0  0  0  0
  8 35  1  0  0  0  0
  9 10  2  0  0  0  0
  9 11  1  0  0  0  0
 11 12  1  0  0  0  0
 11 24  1  0  0  0  0
 12 13  1  0  0  0  0
 12 36  1  0  0  0  0
 12 37  1  0  0  0  0
 13 14  2  0  0  0  0
 13 15  1  0  0  0  0
 15 16  1  0  0  0  0
 15 38  1  0  0  0  0
 16 22  1  0  0  0  0
 16 17  1  0  0  0  0
 16 39  1  0  0  0  0
 17 18  1  0  0  0  0
 17 40  1  0  0  0  0
 17 41  1  0  0  0  0
 18 19  1  0  0  0  0
 18 42  1  0  0  0  0
 18 43  1  0  0  0  0
 19 20  1  0  0  0  0
 19 44  1  0  0  0  0
 19 45  1  0  0  0  0
 20 21  1  0  0  0  0
 20 22  1  0  0  0  0
 20 46  1  0  0  0  0
 21 47  1  0  0  0  0
 21 48  1  0  0  0  0
 21 49  1  0  0  0  0
 22 23  1  0  0  0  0
 22 50  1  0  0  0  0
 23 51  1  0  0  0  0
 23 52  1  0  0  0  0
 23 53  1  0  0  0  0
 24 25  2  0  0  0  0
M  END
> <s_m_source_file>
AV-unprocessed.smi

> <i_m_source_file_index>
415

> <i_lp_mmshare_version>
43012

> <i_f3d_flags>
0

> <s_epik_input>
W0NIM11PW0NIMl1bQ0gyXW4xYyhbTkgyXSlbY0hdYyg9TyluKGMxPU8pW0NIMl1DKD1PKVtOSF1bQ0BASF0yW0NIMl1bQ0gyXVtDSDJdW0NAQEhdKFtDSDNdKVtDQEhdMltDSDNd

> <s_epik_cmdline>
J2VwaWtfcHl0aG9uJywgJy1waCcsICc3LjAnLCAnLXRuJywgJzgnLCAnLW1hJywgJzIwMCcsICctbWV0YWxfYmluZGluZycsICctaW1hZScsICc8aW5maWxlLm1hZT4nLCAnLW9tYWUnLCAnPG91dGZpbGUubWFlPic=

> <r_lp_tautomer_probability>
1

> <r_epik_Ionization_Penalty>
8.6647e-06

> <r_epik_Ionization_Penalty_Charging>
1.81162e-08

> <r_epik_Ionization_Penalty_Neutral>
8.64658e-06

> <r_epik_State_Penalty>
-0

> <r_epik_Charging_Adjusted_Penalty>
1.81162e-08

> <i_epik_Tot_Q>
0

> <i_epik_Tot_abs_Q>
0

> <r_epik_Metal_State_Penalty>
-0

> <b_epik_Metal_Only>
0

> <s_lp_Force_Field>
OPLS_2005

> <r_lp_Energy>
22.0049

> <b_lp_Chiralities_Consistent>
1

> <s_lp_Variant>
AV-unprocessed.smi:415-6

> <Gold.Version>
5.8.1

> <Gold.Id.Protein>
6NUR|6NUR_protein|mol2

> <Gold.PLP.Fitness>
48.5489

> <Gold.PLP.PLP>
-43.9022

> <Gold.PLP.part.hbond>
-3.1606

> <Gold.PLP.part.metal>
0.0000

> <Gold.PLP.part.buried>
-6.8687

> <Gold.PLP.part.nonpolar>
-35.4538

> <Gold.PLP.part.repulsive>
0.4072

> <Gold.PLP.ligand.clash>
0.0000

> <Gold.PLP.ligand.torsion>
0.7271

> <Gold.PLP.Chemscore.Hbond>
2.0000

> <Gold.PLP.Chemscore.CHOScore>
0.0000

> <Gold.PLP.Chemscore.Metal>
0.0000

> <Gold.Chemscore.Hbonds>
donor molecule, donor type, donor heavy atom, donor atom, acceptor molecule, acceptor atom, score
      P1  H  6896  6908       L1     2  1.00
      P1  H  7989  7998       L1    10  1.00

> <Gold.PLP.Chemscore.Internal.Correction>
0.1009

> <Gold.Rescore>
     Score         DG    S(hbond)    S(metal)    S(lipo)     H(rot)  DE(clash)    DE(int)     intcor
     15.18     -19.53       1.98        0.00     113.01       2.26       0.19       4.15       ----

> <Gold.Chemscore.Fitness>
15.1837

> <Gold.Chemscore.DG>
-19.5293

> <Gold.Chemscore.ZeroCoef>
-5.4800

> <Gold.Chemscore.Hbond>
1.9832

> <Gold.Chemscore.Metal>
0.0000

> <Gold.Chemscore.Lipo>
113.0133

> <Gold.Chemscore.Internal_Hbond>
0.0000

> <Gold.Chemscore.DEClash>
0.1928

> <Gold.Chemscore.DEInternal>
4.1528

> <Gold.Chemscore.Rot>
2.2645

> <Gold.Chemscore.Internal.Correction>
   9.000000E+99

> <Gold.Chemscore.Hbonds>
donor molecule, donor type, donor heavy atom, donor atom, acceptor molecule, acceptor atom, score
      P1  H  6896  6908       L1     2  0.68
      P1  H  7989  7998       L1    10  0.99

> <Gold.Chemscore.Hbond.Weighted>
-6.6239

> <Gold.Chemscore.Metal.Weighted>
-0.0000

> <Gold.Chemscore.Lipo.Weighted>
-13.2226

> <Gold.Chemscore.Internal_Hbond.Weighted>
0.0000

> <Gold.Chemscore.DEClash.Weighted>
0.1928

> <Gold.Chemscore.DEInternal.Weighted>
4.1528

> <Gold.Chemscore.Rot.Weighted>
5.7972

> <Gold.Chemscore.Internal.Correction.Weighted>
   9.000000E+99

> <Gold.Protein.RotatedTorsions>
[ 6907 6896 6895 6894 ] final  150.03 input  -60.11 | X-H torsion
[ 7974 7965 7964 7962 ] final   75.66 input  175.53 | X-H torsion
[ 8008 7997 7996 7995 ] final -139.88 input   59.86 | X-H torsion
[ 10167 10162 10161 10158 ] final  -45.74 input  -65.29 | X-H torsion
[ 10718 10713 10712 10709 ] final   12.99 input   66.30 | X-H torsion
[ 10763 10752 10751 10750 ] final -167.44 input  -60.55 | X-H torsion
[ 11005 11000 10999 10996 ] final   64.44 input  -57.11 | X-H torsion

> <Gold.Protein.ActiveResidues>
 VAL166  LYS551  ARG553  GLY616  TRP617  ASP618  TYR619  PRO620  LYS621  CYS622 
 ASP623  PHE694  ASN695  SER759  ASP760  ASP761  ALA762  ILE779  LEU786  VAL792 
 PHE793  MET794  SER795  GLU796  ALA797  LYS798  CYS799  TRP800  GLU811  SER814 

> <Gold.Protein.RotatedAtoms>
  152.1200  133.4348  159.4670 H   0  0  0  0  0  0  0  0  0  0  0  0  # atno 6907 bound_to 6896
  150.6871  134.2546  159.4534 H   0  0  0  0  0  0  0  0  0  0  0  0  # atno 6908 bound_to 6896
  152.0422  134.9704  160.0624 H   0  0  0  0  0  0  0  0  0  0  0  0  # atno 6909 bound_to 6896
  145.7128  139.2620  143.1641 H   0  0  0  0  0  0  0  0  0  0  0  0  # atno 7974 bound_to 7965
  155.4522  140.0539  157.3000 H   0  0  0  0  0  0  0  0  0  0  0  0  # atno 8008 bound_to 7997
  154.4772  140.2066  155.9805 H   0  0  0  0  0  0  0  0  0  0  0  0  # atno 8009 bound_to 7997
  156.1151  140.3198  155.8132 H   0  0  0  0  0  0  0  0  0  0  0  0  # atno 8010 bound_to 7997
  140.6846  143.2865  151.3682 H   0  0  0  0  0  0  0  0  0  0  0  0  # atno 10167 bound_to 10162
  157.0181  130.6144  149.5717 H   0  0  0  0  0  0  0  0  0  0  0  0  # atno 10718 bound_to 10713
  154.6731  135.2942  154.9715 H   0  0  0  0  0  0  0  0  0  0  0  0  # atno 10763 bound_to 10752
  154.0735  135.6614  153.4831 H   0  0  0  0  0  0  0  0  0  0  0  0  # atno 10764 bound_to 10752
  153.0499  135.5180  154.7737 H   0  0  0  0  0  0  0  0  0  0  0  0  # atno 10765 bound_to 10752
  139.9958  134.6519  156.0012 H   0  0  0  0  0  0  0  0  0  0  0  0  # atno 11005 bound_to 11000
  146.0697  140.7882  142.9694 LP  0  0  0  0  0  0  0  0  0  0  0  0  # atno 17320 bound_to 7965
  144.6937  140.3323  143.7214 LP  0  0  0  0  0  0  0  0  0  0  0  0  # atno 17321 bound_to 7965
  139.6194  144.0937  152.2377 LP  0  0  0  0  0  0  0  0  0  0  0  0  # atno 17342 bound_to 10162
  140.0377  144.6032  150.7436 LP  0  0  0  0  0  0  0  0  0  0  0  0  # atno 17343 bound_to 10162
  156.0112  130.5203  150.7993 LP  0  0  0  0  0  0  0  0  0  0  0  0  # atno 17370 bound_to 10713
  157.5270  131.0934  151.0005 LP  0  0  0  0  0  0  0  0  0  0  0  0  # atno 17371 bound_to 10713
  141.1603  133.6539  156.4298 LP  0  0  0  0  0  0  0  0  0  0  0  0  # atno 17394 bound_to 11000
  140.4820  134.6656  157.5175 LP  0  0  0  0  0  0  0  0  0  0  0  0  # atno 17395 bound_to 11000

$$$$
