AV-unprocessed.smi:2792|AV-procd|sdf|10772|dock1
  -GOLD-   2272015203D 1   1.00000     0.00000
 Structure written by MMmdl.
 44 46  0  0  0  0  0  0  0  0  1 V2000
  150.8595  132.8458  154.2271 C   0  0  0  0  0  0  0  0  0  0  0  0
  151.1470  132.7864  155.7371 C   0  0  0  0  0  0  0  0  0  0  0  0
  151.0619  134.1344  156.4945 C   0  0  1  0  0  0  0  0  0  0  0  0
  149.6919  134.8215  156.3102 C   0  0  0  0  0  0  0  0  0  0  0  0
  151.2199  133.8681  157.8753 O   0  0  0  0  0  0  0  0  0  0  0  0
  152.2364  135.0443  156.0473 C   0  0  0  0  0  0  0  0  0  0  0  0
  152.0915  136.4443  156.4187 N   0  0  0  0  0  0  0  0  0  0  0  0
  152.3313  136.9952  157.6584 C   0  0  0  0  0  0  0  0  0  0  0  0
  152.1284  138.2816  157.7469 N   0  0  0  0  0  0  0  0  0  0  0  0
  151.7049  138.6420  156.4742 C   0  0  0  0  0  0  0  0  0  0  0  0
  151.3199  139.8698  155.8767 C   0  0  0  0  0  0  0  0  0  0  0  0
  151.3165  141.0213  156.5840 N   0  0  0  0  0  0  0  0  0  0  0  0
  151.3617  140.9922  158.0425 C   0  0  0  0  0  0  0  0  0  0  0  0
  151.3844  142.3579  158.7108 C   0  0  0  0  0  0  0  0  0  0  0  0
  152.4101  142.6922  159.6214 C   0  0  0  0  0  0  0  0  0  0  0  0
  152.4282  143.9605  160.2336 C   0  0  0  0  0  0  0  0  0  0  0  0
  151.4199  144.8989  159.9403 C   0  0  0  0  0  0  0  0  0  0  0  0
  150.3920  144.5675  159.0364 C   0  0  0  0  0  0  0  0  0  0  0  0
  150.3732  143.2989  158.4244 C   0  0  0  0  0  0  0  0  0  0  0  0
  150.9453  139.8473  154.5703 N   0  0  0  0  0  0  0  0  0  0  0  0
  150.9568  138.6971  153.8896 C   0  0  0  0  0  0  0  0  0  0  0  0
  151.2978  137.4785  154.3154 N   0  0  0  0  0  0  0  0  0  0  0  0
  151.6700  137.4988  155.6275 C   0  0  0  0  0  0  0  0  0  0  0  0
  150.8749  131.8440  153.7974 H   0  0  0  0  0  0  0  0  0  0  0  0
  151.6062  133.4341  153.6949 H   0  0  0  0  0  0  0  0  0  0  0  0
  149.8789  133.2744  154.0199 H   0  0  0  0  0  0  0  0  0  0  0  0
  150.4498  132.0792  156.1890 H   0  0  0  0  0  0  0  0  0  0  0  0
  152.1385  132.3555  155.8816 H   0  0  0  0  0  0  0  0  0  0  0  0
  149.5111  135.0600  155.2618 H   0  0  0  0  0  0  0  0  0  0  0  0
  149.6218  135.7499  156.8772 H   0  0  0  0  0  0  0  0  0  0  0  0
  148.8710  134.1924  156.6531 H   0  0  0  0  0  0  0  0  0  0  0  0
  150.4499  133.4155  158.1847 H   0  0  0  0  0  0  0  0  0  0  0  0
  153.1794  134.6791  156.4571 H   0  0  0  0  0  0  0  0  0  0  0  0
  152.3437  134.9992  154.9626 H   0  0  0  0  0  0  0  0  0  0  0  0
  152.6724  136.4085  158.4991 H   0  0  0  0  0  0  0  0  0  0  0  0
  151.0905  141.9148  156.1712 H   0  0  0  0  0  0  0  0  0  0  0  0
  150.5212  140.4067  158.4175 H   0  0  0  0  0  0  0  0  0  0  0  0
  152.2626  140.4555  158.3405 H   0  0  0  0  0  0  0  0  0  0  0  0
  153.1872  141.9779  159.8508 H   0  0  0  0  0  0  0  0  0  0  0  0
  153.2159  144.2135  160.9280 H   0  0  0  0  0  0  0  0  0  0  0  0
  151.4340  145.8720  160.4088 H   0  0  0  0  0  0  0  0  0  0  0  0
  149.6182  145.2866  158.8114 H   0  0  0  0  0  0  0  0  0  0  0  0
  149.5832  143.0532  157.7298 H   0  0  0  0  0  0  0  0  0  0  0  0
  150.6492  138.7628  152.8565 H   0  0  0  0  0  0  0  0  0  0  0  0
  1  2  1  0  0  0  0
  1 24  1  0  0  0  0
  1 25  1  0  0  0  0
  1 26  1  0  0  0  0
  2  3  1  0  0  0  0
  2 27  1  0  0  0  0
  2 28  1  0  0  0  0
  3  4  1  0  0  0  0
  3  5  1  0  0  0  0
  3  6  1  0  0  0  0
  4 29  1  0  0  0  0
  4 30  1  0  0  0  0
  4 31  1  0  0  0  0
  5 32  1  0  0  0  0
  6  7  1  0  0  0  0
  6 33  1  0  0  0  0
  6 34  1  0  0  0  0
  7 23  1  0  0  0  0
  7  8  1  0  0  0  0
  8  9  2  0  0  0  0
  8 35  1  0  0  0  0
  9 10  1  0  0  0  0
 10 23  2  0  0  0  0
 10 11  1  0  0  0  0
 11 12  1  0  0  0  0
 11 20  2  0  0  0  0
 12 13  1  0  0  0  0
 12 36  1  0  0  0  0
 13 14  1  0  0  0  0
 13 37  1  0  0  0  0
 13 38  1  0  0  0  0
 14 19  1  0  0  0  0
 14 15  2  0  0  0  0
 15 16  1  0  0  0  0
 15 39  1  0  0  0  0
 16 17  2  0  0  0  0
 16 40  1  0  0  0  0
 17 18  1  0  0  0  0
 17 41  1  0  0  0  0
 18 19  2  0  0  0  0
 18 42  1  0  0  0  0
 19 43  1  0  0  0  0
 20 21  1  0  0  0  0
 21 22  2  0  0  0  0
 21 44  1  0  0  0  0
 22 23  1  0  0  0  0
M  END
> <s_m_source_file>
AV-unprocessed.smi

> <i_m_source_file_index>
2792

> <i_lp_mmshare_version>
43012

> <i_f3d_flags>
0

> <s_epik_input>
W0NIM11bQ0gyXVtDQEBdKFtDSDNdKShbT0hdKVtDSDJdbihbY0hdbjEpYyhjMTIpbltjSF1uYzJbTkhdW0NIMl1jM1tjSF1bY0hdW2NIXVtjSF1bY0hdMw==

> <s_epik_cmdline>
J2VwaWtfcHl0aG9uJywgJy1waCcsICc3LjAnLCAnLXRuJywgJzgnLCAnLW1hJywgJzIwMCcsICctbWV0YWxfYmluZGluZycsICctaW1hZScsICc8aW5maWxlLm1hZT4nLCAnLW9tYWUnLCAnPG91dGZpbGUubWFlPic=

> <r_lp_tautomer_probability>
1

> <r_epik_Ionization_Penalty>
0.00163025

> <r_epik_Ionization_Penalty_Charging>
0

> <r_epik_Ionization_Penalty_Neutral>
0.00163025

> <r_epik_State_Penalty>
-0

> <r_epik_Charging_Adjusted_Penalty>
0

> <i_epik_Tot_Q>
0

> <i_epik_Tot_abs_Q>
0

> <r_epik_Metal_State_Penalty>
-0

> <b_epik_Metal_Only>
0

> <s_lp_Force_Field>
OPLS_2005

> <r_lp_Energy>
13.0485

> <b_lp_Chiralities_Consistent>
1

> <s_lp_Variant>
AV-unprocessed.smi:2792-1

> <Gold.Version>
5.8.1

> <Gold.Id.Protein>
6NUR|6NUR_protein|mol2

> <Gold.PLP.Fitness>
45.9720

> <Gold.PLP.PLP>
-37.9086

> <Gold.PLP.part.hbond>
-2.0000

> <Gold.PLP.part.metal>
0.0000

> <Gold.PLP.part.buried>
-6.9311

> <Gold.PLP.part.nonpolar>
-29.7966

> <Gold.PLP.part.repulsive>
0.4162

> <Gold.PLP.ligand.clash>
0.0000

> <Gold.PLP.ligand.torsion>
0.6069

> <Gold.PLP.Chemscore.Hbond>
2.0000

> <Gold.PLP.Chemscore.CHOScore>
1.0000

> <Gold.PLP.Chemscore.Metal>
0.0000

> <Gold.Chemscore.Hbonds>
donor molecule, donor type, donor heavy atom, donor atom, acceptor molecule, acceptor atom, score
      P1  H  7989  7998       L1    20  1.00
      L1  C    21    44       P1  7957  0.93

> <Gold.PLP.Chemscore.Internal.Correction>
0.2772

> <Gold.Rescore>
     Score         DG    S(hbond)    S(metal)    S(lipo)     H(rot)  DE(clash)    DE(int)     intcor
     14.65     -17.11       1.92        0.00      99.81       2.52       0.21       2.25       ----

> <Gold.Chemscore.Fitness>
14.6517

> <Gold.Chemscore.DG>
-17.1137

> <Gold.Chemscore.ZeroCoef>
-5.4800

> <Gold.Chemscore.Hbond>
1.9220

> <Gold.Chemscore.Metal>
0.0000

> <Gold.Chemscore.Lipo>
99.8129

> <Gold.Chemscore.Internal_Hbond>
0.0000

> <Gold.Chemscore.DEClash>
0.2150

> <Gold.Chemscore.DEInternal>
2.2470

> <Gold.Chemscore.Rot>
2.5250

> <Gold.Chemscore.Internal.Correction>
   9.000000E+99

> <Gold.Chemscore.Hbonds>
donor molecule, donor type, donor heavy atom, donor atom, acceptor molecule, acceptor atom, score
      P1  H  7989  7998       L1    20  0.29

> <Gold.Chemscore.Hbond.Weighted>
-6.4195

> <Gold.Chemscore.Metal.Weighted>
-0.0000

> <Gold.Chemscore.Lipo.Weighted>
-11.6781

> <Gold.Chemscore.Internal_Hbond.Weighted>
0.0000

> <Gold.Chemscore.DEClash.Weighted>
0.2150

> <Gold.Chemscore.DEInternal.Weighted>
2.2470

> <Gold.Chemscore.Rot.Weighted>
6.4639

> <Gold.Chemscore.Internal.Correction.Weighted>
   9.000000E+99

> <Gold.Protein.RotatedTorsions>
[ 6907 6896 6895 6894 ] final  120.63 input  -60.11 | X-H torsion
[ 7974 7965 7964 7962 ] final  -78.15 input  175.53 | X-H torsion
[ 8008 7997 7996 7995 ] final   69.75 input   59.86 | X-H torsion
[ 10167 10162 10161 10158 ] final   90.95 input  -65.29 | X-H torsion
[ 10718 10713 10712 10709 ] final   29.59 input   66.30 | X-H torsion
[ 10763 10752 10751 10750 ] final  129.99 input  -60.55 | X-H torsion
[ 11005 11000 10999 10996 ] final -151.03 input  -57.11 | X-H torsion

> <Gold.Protein.ActiveResidues>
 VAL166  LYS551  ARG553  GLY616  TRP617  ASP618  TYR619  PRO620  LYS621  CYS622 
 ASP623  PHE694  ASN695  SER759  ASP760  ASP761  ALA762  ILE779  LEU786  VAL792 
 PHE793  MET794  SER795  GLU796  ALA797  LYS798  CYS799  TRP800  GLU811  SER814 

> <Gold.Protein.RotatedAtoms>
  152.4383  133.7401  159.6635 H   0  0  0  0  0  0  0  0  0  0  0  0  # atno 6907 bound_to 6896
  150.8270  133.8145  159.3120 H   0  0  0  0  0  0  0  0  0  0  0  0  # atno 6908 bound_to 6896
  151.5810  135.1061  160.0069 H   0  0  0  0  0  0  0  0  0  0  0  0  # atno 6909 bound_to 6896
  145.5903  140.9430  143.1296 H   0  0  0  0  0  0  0  0  0  0  0  0  # atno 7974 bound_to 7965
  155.7284  140.3492  155.5048 H   0  0  0  0  0  0  0  0  0  0  0  0  # atno 8008 bound_to 7997
  155.9205  140.1066  157.1232 H   0  0  0  0  0  0  0  0  0  0  0  0  # atno 8009 bound_to 7997
  154.4069  140.1250  156.4660 H   0  0  0  0  0  0  0  0  0  0  0  0  # atno 8010 bound_to 7997
  139.8422  144.6635  150.9269 H   0  0  0  0  0  0  0  0  0  0  0  0  # atno 10167 bound_to 10162
  157.2486  130.7104  149.6394 H   0  0  0  0  0  0  0  0  0  0  0  0  # atno 10718 bound_to 10713
  153.7508  135.3210  155.3321 H   0  0  0  0  0  0  0  0  0  0  0  0  # atno 10763 bound_to 10752
  154.8264  135.4567  154.0934 H   0  0  0  0  0  0  0  0  0  0  0  0  # atno 10764 bound_to 10752
  153.2136  135.6939  153.8167 H   0  0  0  0  0  0  0  0  0  0  0  0  # atno 10765 bound_to 10752
  140.7339  134.3590  157.5161 H   0  0  0  0  0  0  0  0  0  0  0  0  # atno 11005 bound_to 11000
  144.7354  139.7601  143.7331 LP  0  0  0  0  0  0  0  0  0  0  0  0  # atno 17320 bound_to 7965
  146.1652  139.4780  142.9963 LP  0  0  0  0  0  0  0  0  0  0  0  0  # atno 17321 bound_to 7965
  140.7797  143.3902  151.1323 LP  0  0  0  0  0  0  0  0  0  0  0  0  # atno 17342 bound_to 10162
  139.7547  143.8725  152.3086 LP  0  0  0  0  0  0  0  0  0  0  0  0  # atno 17343 bound_to 10162
  155.9667  130.4435  150.5423 LP  0  0  0  0  0  0  0  0  0  0  0  0  # atno 17370 bound_to 10713
  157.3302  131.0698  151.1866 LP  0  0  0  0  0  0  0  0  0  0  0  0  # atno 17371 bound_to 10713
  139.8820  134.9036  156.2859 LP  0  0  0  0  0  0  0  0  0  0  0  0  # atno 17394 bound_to 11000
  140.9897  133.7216  156.0795 LP  0  0  0  0  0  0  0  0  0  0  0  0  # atno 17395 bound_to 11000

$$$$
