AV-unprocessed.smi:102|AV-procd|sdf|947|dock1
  -GOLD-   2262017473D 1   1.00000     0.00000
 Structure written by MMmdl.
 44 45  0  0  0  0  0  0  0  0  1 V2000
  147.3631  134.5877  161.2506 C   0  0  0  0  0  0  0  0  0  0  0  0
  147.5569  136.0104  160.7436 C   0  0  0  0  0  0  0  0  0  0  0  0
  147.7441  136.9493  161.5173 O   0  0  0  0  0  0  0  0  0  0  0  0
  147.4957  136.0905  159.4074 O   0  0  0  0  0  0  0  0  0  0  0  0
  147.9709  137.2552  158.7499 C   0  0  0  0  0  0  0  0  0  0  0  0
  149.4307  137.0689  158.3125 C   0  0  2  0  0  0  0  0  0  0  0  0
  150.0851  138.3289  158.1830 O   0  0  0  0  0  0  0  0  0  0  0  0
  150.6069  138.4904  156.8968 C   0  0  2  0  0  0  0  0  0  0  0  0
  149.6391  139.3619  156.1071 N   0  0  0  0  0  0  0  0  0  0  0  0
  148.5558  140.0374  156.6659 C   0  0  0  0  0  0  0  0  0  0  0  0
  147.7379  140.8448  155.9499 C   0  0  0  0  0  0  0  0  0  0  0  0
  146.7159  141.4651  156.5635 F   0  0  0  0  0  0  0  0  0  0  0  0
  147.9603  141.0596  154.5246 C   0  0  0  0  0  0  0  0  0  0  0  0
  147.2746  141.7730  153.7951 O   0  0  0  0  0  0  0  0  0  0  0  0
  149.0626  140.3771  154.0065 N   0  0  0  0  0  0  0  0  0  0  0  0
  149.9147  139.5441  154.7321 C   0  0  0  0  0  0  0  0  0  0  0  0
  150.8644  139.0024  154.1675 O   0  0  0  0  0  0  0  0  0  0  0  0
  150.7914  137.0686  156.3406 C   0  0  1  0  0  0  0  0  0  0  0  0
  152.0383  136.5475  156.7935 O   0  0  0  0  0  0  0  0  0  0  0  0
  153.1848  137.1971  156.5274 C   0  0  0  0  0  0  0  0  0  0  0  0
  154.4058  136.4670  157.0704 C   0  0  0  0  0  0  0  0  0  0  0  0
  153.2893  138.2660  155.9260 O   0  0  0  0  0  0  0  0  0  0  0  0
  149.6226  136.3261  156.9857 C   0  0  1  0  0  0  0  0  0  0  0  0
  149.8858  134.9407  157.1767 O   0  0  0  0  0  0  0  0  0  0  0  0
  150.1798  134.1595  156.1225 C   0  0  0  0  0  0  0  0  0  0  0  0
  149.9511  132.6816  156.4103 C   0  0  0  0  0  0  0  0  0  0  0  0
  150.5987  134.5446  155.0307 O   0  0  0  0  0  0  0  0  0  0  0  0
  149.2622  140.5002  153.0246 H   0  0  0  0  0  0  0  0  0  0  0  0
  147.9933  133.8946  160.6931 H   0  0  0  0  0  0  0  0  0  0  0  0
  146.3230  134.2840  161.1322 H   0  0  0  0  0  0  0  0  0  0  0  0
  147.6246  134.5189  162.3066 H   0  0  0  0  0  0  0  0  0  0  0  0
  147.3481  137.4690  157.8803 H   0  0  0  0  0  0  0  0  0  0  0  0
  147.8941  138.1092  159.4243 H   0  0  0  0  0  0  0  0  0  0  0  0
  149.9656  136.5365  159.1000 H   0  0  0  0  0  0  0  0  0  0  0  0
  151.5377  139.0614  156.9085 H   0  0  0  0  0  0  0  0  0  0  0  0
  148.3191  139.9458  157.7127 H   0  0  0  0  0  0  0  0  0  0  0  0
  150.7582  137.0435  155.2516 H   0  0  0  0  0  0  0  0  0  0  0  0
  154.3061  135.3915  156.9224 H   0  0  0  0  0  0  0  0  0  0  0  0
  154.5179  136.6624  158.1367 H   0  0  0  0  0  0  0  0  0  0  0  0
  155.3091  136.8024  156.5605 H   0  0  0  0  0  0  0  0  0  0  0  0
  148.7257  136.4521  156.3798 H   0  0  0  0  0  0  0  0  0  0  0  0
  149.0841  132.5456  157.0571 H   0  0  0  0  0  0  0  0  0  0  0  0
  150.8238  132.2554  156.9050 H   0  0  0  0  0  0  0  0  0  0  0  0
  149.7775  132.1352  155.4831 H   0  0  0  0  0  0  0  0  0  0  0  0
  1  2  1  0  0  0  0
  1 29  1  0  0  0  0
  1 30  1  0  0  0  0
  1 31  1  0  0  0  0
  2  3  2  0  0  0  0
  2  4  1  0  0  0  0
  4  5  1  0  0  0  0
  5  6  1  0  0  0  0
  5 32  1  0  0  0  0
  5 33  1  0  0  0  0
  6 23  1  0  0  0  0
  6  7  1  0  0  0  0
  6 34  1  0  0  0  0
  7  8  1  0  0  0  0
  8  9  1  0  0  0  0
  8 18  1  0  0  0  0
  8 35  1  0  0  0  0
  9 16  1  0  0  0  0
  9 10  1  0  0  0  0
 10 11  2  0  0  0  0
 10 36  1  0  0  0  0
 11 12  1  0  0  0  0
 11 13  1  0  0  0  0
 13 14  2  0  0  0  0
 13 15  1  0  0  0  0
 15 28  1  0  0  0  0
 15 16  1  0  0  0  0
 16 17  2  0  0  0  0
 18 19  1  0  0  0  0
 18 23  1  0  0  0  0
 18 37  1  0  0  0  0
 19 20  1  0  0  0  0
 20 21  1  0  0  0  0
 20 22  2  0  0  0  0
 21 38  1  0  0  0  0
 21 39  1  0  0  0  0
 21 40  1  0  0  0  0
 23 24  1  0  0  0  0
 23 41  1  0  0  0  0
 24 25  1  0  0  0  0
 25 26  1  0  0  0  0
 25 27  2  0  0  0  0
 26 42  1  0  0  0  0
 26 43  1  0  0  0  0
 26 44  1  0  0  0  0
M  END
> <s_m_source_file>
AV-unprocessed.smi

> <i_m_source_file_index>
102

> <i_lp_mmshare_version>
43012

> <i_f3d_flags>
0

> <s_epik_input>
W0NIM11DKD1PKU9bQ0gyXVtDQEBIXTFPW0NASF0oW0NAQEhdKE9DKD1PKVtDSDNdKVtDQEhdMU9DKD1PKVtDSDNdKW4yW2NIXWMoRiljKD1PKVtuSF1jMj1P

> <s_epik_cmdline>
J2VwaWtfcHl0aG9uJywgJy1waCcsICc3LjAnLCAnLXRuJywgJzgnLCAnLW1hJywgJzIwMCcsICctbWV0YWxfYmluZGluZycsICctaW1hZScsICc8aW5maWxlLm1hZT4nLCAnLW9tYWUnLCAnPG91dGZpbGUubWFlPic=

> <r_lp_tautomer_probability>
0.999537

> <r_epik_Ionization_Penalty>
0.058267

> <r_epik_Ionization_Penalty_Charging>
0.058267

> <r_epik_Ionization_Penalty_Neutral>
6.57791e-16

> <r_epik_State_Penalty>
0.0503774

> <r_epik_Charging_Adjusted_Penalty>
0.108644

> <i_epik_Tot_Q>
0

> <i_epik_Tot_abs_Q>
0

> <r_epik_Metal_State_Penalty>
2.6644

> <b_epik_Metal_Only>
0

> <s_epik_Chemistry_Notes>
This compound has an ester and may undergo hydrolysis at high or low pH. This compound contains an acetal/aminal-like group ( X-CH(R)-Y where X, Y are N, S, or O) that may be acid/base labile, releasing an aldehyde.

> <s_lp_Force_Field>
OPLS_2005

> <r_lp_Energy>
12.8292

> <b_lp_Chiralities_Consistent>
1

> <s_lp_Variant>
AV-unprocessed.smi:102-3

> <Gold.Version>
5.8.1

> <Gold.Id.Protein>
6NUR|6NUR_protein|mol2

> <Gold.PLP.Fitness>
41.3383

> <Gold.PLP.PLP>
-26.7403

> <Gold.PLP.part.hbond>
-6.7702

> <Gold.PLP.part.metal>
0.0000

> <Gold.PLP.part.buried>
-3.6141

> <Gold.PLP.part.nonpolar>
-15.5500

> <Gold.PLP.part.repulsive>
0.5627

> <Gold.PLP.ligand.clash>
0.0000

> <Gold.PLP.ligand.torsion>
1.0954

> <Gold.PLP.Chemscore.Hbond>
5.5263

> <Gold.PLP.Chemscore.CHOScore>
0.0000

> <Gold.PLP.Chemscore.Metal>
0.0000

> <Gold.Chemscore.Hbonds>
donor molecule, donor type, donor heavy atom, donor atom, acceptor molecule, acceptor atom, score
      L1  H    15    28       P1  7957  1.00
      P1  H  6931  6943       L1     3  1.00
      P1  H  6934  6947       L1     3  0.42
      P1  H  7989  7998       L1    17  0.51
      P1  H  7997  8008       L1    22  0.59

> <Gold.PLP.Chemscore.Internal.Correction>
0.2101

> <Gold.Rescore>
     Score         DG    S(hbond)    S(metal)    S(lipo)     H(rot)  DE(clash)    DE(int)     intcor
      6.87     -13.16       4.27        0.00      32.39       4.05       0.88       5.41       ----

> <Gold.Chemscore.Fitness>
6.8723

> <Gold.Chemscore.DG>
-13.1602

> <Gold.Chemscore.ZeroCoef>
-5.4800

> <Gold.Chemscore.Hbond>
4.2704

> <Gold.Chemscore.Metal>
0.0000

> <Gold.Chemscore.Lipo>
32.3948

> <Gold.Chemscore.Internal_Hbond>
0.0000

> <Gold.Chemscore.DEClash>
0.8790

> <Gold.Chemscore.DEInternal>
5.4088

> <Gold.Chemscore.Rot>
4.0520

> <Gold.Chemscore.Internal.Correction>
   9.000000E+99

> <Gold.Chemscore.Hbonds>
donor molecule, donor type, donor heavy atom, donor atom, acceptor molecule, acceptor atom, score
      L1  H    15    28       P1  7957  0.98
      P1  H  6931  6943       L1     3  0.99
      P1  H  6934  6947       L1     3  0.41
      P1  H  7989  7998       L1    17  0.04
      P1  H  7997  8008       L1    22  0.58

> <Gold.Chemscore.Hbond.Weighted>
-14.2632

> <Gold.Chemscore.Metal.Weighted>
-0.0000

> <Gold.Chemscore.Lipo.Weighted>
-3.7902

> <Gold.Chemscore.Internal_Hbond.Weighted>
0.0000

> <Gold.Chemscore.DEClash.Weighted>
0.8790

> <Gold.Chemscore.DEInternal.Weighted>
5.4088

> <Gold.Chemscore.Rot.Weighted>
10.3732

> <Gold.Chemscore.Internal.Correction.Weighted>
   9.000000E+99

> <Gold.Protein.RotatedTorsions>
[ 6907 6896 6895 6894 ] final  -51.09 input  -60.11 | X-H torsion
[ 7974 7965 7964 7962 ] final   84.69 input  175.53 | X-H torsion
[ 8008 7997 7996 7995 ] final  -41.51 input   59.86 | X-H torsion
[ 10167 10162 10161 10158 ] final   30.83 input  -65.29 | X-H torsion
[ 10718 10713 10712 10709 ] final  -34.04 input   66.30 | X-H torsion
[ 10763 10752 10751 10750 ] final  -48.70 input  -60.55 | X-H torsion
[ 11005 11000 10999 10996 ] final -120.23 input  -57.11 | X-H torsion

> <Gold.Protein.ActiveResidues>
 VAL166  LYS551  ARG553  GLY616  TRP617  ASP618  TYR619  PRO620  LYS621  CYS622 
 ASP623  PHE694  ASN695  SER759  ASP760  ASP761  ALA762  ILE779  LEU786  VAL792 
 PHE793  MET794  SER795  GLU796  ALA797  LYS798  CYS799  TRP800  GLU811  SER814 

> <Gold.Protein.RotatedAtoms>
  150.8645  134.8004  159.7107 H   0  0  0  0  0  0  0  0  0  0  0  0  # atno 6907 bound_to 6896
  152.4671  134.5047  159.9745 H   0  0  0  0  0  0  0  0  0  0  0  0  # atno 6908 bound_to 6896
  151.5145  133.3440  159.2926 H   0  0  0  0  0  0  0  0  0  0  0  0  # atno 6909 bound_to 6896
  145.5954  139.2344  143.2276 H   0  0  0  0  0  0  0  0  0  0  0  0  # atno 7974 bound_to 7965
  154.4004  140.1497  156.3202 H   0  0  0  0  0  0  0  0  0  0  0  0  # atno 8008 bound_to 7997
  155.8536  140.3456  155.5688 H   0  0  0  0  0  0  0  0  0  0  0  0  # atno 8009 bound_to 7997
  155.7957  140.0863  157.1975 H   0  0  0  0  0  0  0  0  0  0  0  0  # atno 8010 bound_to 7997
  140.4643  144.0859  150.6220 H   0  0  0  0  0  0  0  0  0  0  0  0  # atno 10167 bound_to 10162
  156.3554  130.4315  149.7669 H   0  0  0  0  0  0  0  0  0  0  0  0  # atno 10718 bound_to 10713
  154.0821  135.6589  153.4839 H   0  0  0  0  0  0  0  0  0  0  0  0  # atno 10763 bound_to 10752
  153.0352  135.5182  154.7463 H   0  0  0  0  0  0  0  0  0  0  0  0  # atno 10764 bound_to 10752
  154.6562  135.3008  154.9893 H   0  0  0  0  0  0  0  0  0  0  0  0  # atno 10765 bound_to 10752
  141.0159  134.0196  157.3351 H   0  0  0  0  0  0  0  0  0  0  0  0  # atno 11005 bound_to 11000
  146.1616  140.6780  142.9275 LP  0  0  0  0  0  0  0  0  0  0  0  0  # atno 17320 bound_to 7965
  144.7333  140.4735  143.6922 LP  0  0  0  0  0  0  0  0  0  0  0  0  # atno 17321 bound_to 7965
  140.4055  143.2682  151.9896 LP  0  0  0  0  0  0  0  0  0  0  0  0  # atno 17342 bound_to 10162
  139.4810  144.5961  151.7688 LP  0  0  0  0  0  0  0  0  0  0  0  0  # atno 17343 bound_to 10162
  156.4853  130.8060  151.3072 LP  0  0  0  0  0  0  0  0  0  0  0  0  # atno 17370 bound_to 10713
  157.7467  130.9992  150.2882 LP  0  0  0  0  0  0  0  0  0  0  0  0  # atno 17371 bound_to 10713
  139.9116  135.0191  156.7716 LP  0  0  0  0  0  0  0  0  0  0  0  0  # atno 17394 bound_to 11000
  140.6656  133.9606  155.7828 LP  0  0  0  0  0  0  0  0  0  0  0  0  # atno 17395 bound_to 11000

$$$$
