AV-unprocessed.smi:1099|AV-procd|sdf|4757|dock8
  -GOLD-   22720 3293D 1   1.00000     0.00000
 Structure written by MMmdl.
 41 43  0  0  0  0  0  0  0  0  1 V2000
  154.9902  134.9965  163.4215 C   0  0  0  0  0  0  0  0  0  0  0  0
  154.4398  136.1497  164.2671 C   0  0  0  0  0  0  0  0  0  0  0  0
  155.0964  137.4530  163.9558 C   0  0  0  0  0  0  0  0  0  0  0  0
  155.2199  137.9400  162.7180 N   0  0  0  0  0  0  0  0  0  0  0  0
  155.9007  139.1611  162.6853 C   0  0  0  0  0  0  0  0  0  0  0  0
  156.1200  139.8634  161.3796 C   0  0  0  0  0  0  0  0  0  0  0  0
  154.8191  140.0292  160.5820 C   0  0  0  0  0  0  0  0  0  0  0  0
  154.4530  141.4356  160.4828 N   0  0  0  0  0  0  0  0  0  0  0  0
  153.2594  141.8813  160.0655 C   0  0  0  0  0  0  0  0  0  0  0  0
  152.3496  141.1282  159.7163 O   0  0  0  0  0  0  0  0  0  0  0  0
  153.0669  143.4087  160.0763 C   0  0  2  0  0  0  0  0  0  0  0  0
  151.9785  143.9170  161.0541 C   0  0  0  0  0  0  0  0  0  0  0  0
  151.0854  144.7914  160.1538 C   0  0  2  0  0  0  0  0  0  0  0  0
  150.2526  143.8894  159.2239 C   0  0  0  0  0  0  0  0  0  0  0  0
  151.2954  143.4040  158.2005 C   0  0  0  0  0  0  0  0  0  0  0  0
  152.6069  144.0260  158.7288 C   0  0  1  0  0  0  0  0  0  0  0  0
  152.1031  145.3907  159.1897 C   0  0  0  0  0  0  0  0  0  0  0  0
  156.3039  139.5891  163.9256 C   0  0  0  0  0  0  0  0  0  0  0  0
  155.8462  138.4707  165.1800 S   0  0  0  0  0  0  0  0  0  0  0  0
  154.4951  134.0591  163.6747 H   0  0  0  0  0  0  0  0  0  0  0  0
  156.0600  134.8635  163.5862 H   0  0  0  0  0  0  0  0  0  0  0  0
  154.8344  135.1796  162.3579 H   0  0  0  0  0  0  0  0  0  0  0  0
  153.3653  136.2485  164.1083 H   0  0  0  0  0  0  0  0  0  0  0  0
  154.5803  135.9328  165.3265 H   0  0  0  0  0  0  0  0  0  0  0  0
  156.5628  140.8441  161.5589 H   0  0  0  0  0  0  0  0  0  0  0  0
  156.8465  139.3128  160.7805 H   0  0  0  0  0  0  0  0  0  0  0  0
  154.9352  139.6123  159.5804 H   0  0  0  0  0  0  0  0  0  0  0  0
  154.0113  139.4806  161.0691 H   0  0  0  0  0  0  0  0  0  0  0  0
  155.1484  142.1142  160.7573 H   0  0  0  0  0  0  0  0  0  0  0  0
  154.0164  143.8672  160.3599 H   0  0  0  0  0  0  0  0  0  0  0  0
  151.4095  143.1275  161.5465 H   0  0  0  0  0  0  0  0  0  0  0  0
  152.4339  144.5216  161.8394 H   0  0  0  0  0  0  0  0  0  0  0  0
  150.4881  145.5177  160.7056 H   0  0  0  0  0  0  0  0  0  0  0  0
  149.7844  143.0643  159.7622 H   0  0  0  0  0  0  0  0  0  0  0  0
  149.4641  144.4573  158.7287 H   0  0  0  0  0  0  0  0  0  0  0  0
  151.3251  142.3194  158.1049 H   0  0  0  0  0  0  0  0  0  0  0  0
  151.0626  143.8026  157.2121 H   0  0  0  0  0  0  0  0  0  0  0  0
  153.3992  144.0729  157.9809 H   0  0  0  0  0  0  0  0  0  0  0  0
  151.6484  145.9796  158.3908 H   0  0  0  0  0  0  0  0  0  0  0  0
  152.8672  145.9926  159.6851 H   0  0  0  0  0  0  0  0  0  0  0  0
  156.8426  140.4908  164.1762 H   0  0  0  0  0  0  0  0  0  0  0  0
  1  2  1  0  0  0  0
  1 20  1  0  0  0  0
  1 21  1  0  0  0  0
  1 22  1  0  0  0  0
  2  3  1  0  0  0  0
  2 23  1  0  0  0  0
  2 24  1  0  0  0  0
  3 19  1  0  0  0  0
  3  4  2  0  0  0  0
  4  5  1  0  0  0  0
  5  6  1  0  0  0  0
  5 18  2  0  0  0  0
  6  7  1  0  0  0  0
  6 25  1  0  0  0  0
  6 26  1  0  0  0  0
  7  8  1  0  0  0  0
  7 27  1  0  0  0  0
  7 28  1  0  0  0  0
  8  9  1  0  0  0  0
  8 29  1  0  0  0  0
  9 10  2  0  0  0  0
  9 11  1  0  0  0  0
 11 16  1  0  0  0  0
 11 12  1  0  0  0  0
 11 30  1  0  0  0  0
 12 13  1  0  0  0  0
 12 31  1  0  0  0  0
 12 32  1  0  0  0  0
 13 17  1  0  0  0  0
 13 14  1  0  0  0  0
 13 33  1  0  0  0  0
 14 15  1  0  0  0  0
 14 34  1  0  0  0  0
 14 35  1  0  0  0  0
 15 16  1  0  0  0  0
 15 36  1  0  0  0  0
 15 37  1  0  0  0  0
 16 17  1  0  0  0  0
 16 38  1  0  0  0  0
 17 39  1  0  0  0  0
 17 40  1  0  0  0  0
 18 19  1  0  0  0  0
 18 41  1  0  0  0  0
M  END
> <s_m_source_file>
AV-unprocessed.smi

> <i_m_source_file_index>
1099

> <i_lp_mmshare_version>
43012

> <i_f3d_flags>
0

> <s_epik_input>
W0NIM11bQ0gyXWMxbmMoW2NIXXMxKVtDSDJdW0NIMl1bTkhdQyg9TylbQ0BIXShbQ0gyXVtDQEBIXTIzKVtDQEBIXShbQ0gyXTMpW0NIMl1bQ0gyXTI=

> <s_epik_cmdline>
J2VwaWtfcHl0aG9uJywgJy1waCcsICc3LjAnLCAnLXRuJywgJzgnLCAnLW1hJywgJzIwMCcsICctbWV0YWxfYmluZGluZycsICctaW1hZScsICc8aW5maWxlLm1hZT4nLCAnLW9tYWUnLCAnPG91dGZpbGUubWFlPic=

> <r_epik_Ionization_Penalty>
0.00110131

> <r_epik_Ionization_Penalty_Charging>
0

> <r_epik_Ionization_Penalty_Neutral>
0.00110131

> <r_epik_State_Penalty>
0.00072257

> <r_epik_Charging_Adjusted_Penalty>
0.00072257

> <i_epik_Tot_Q>
0

> <i_epik_Tot_abs_Q>
0

> <r_epik_Metal_State_Penalty>
-0

> <b_epik_Metal_Only>
0

> <s_lp_Force_Field>
OPLS_2005

> <r_lp_Energy>
38.6178

> <b_lp_Chiralities_Consistent>
1

> <s_lp_Variant>
AV-unprocessed.smi:1099-3

> <Gold.Version>
5.8.1

> <Gold.Id.Protein>
6NUR|6NUR_protein|mol2

> <Gold.PLP.Fitness>
47.0512

> <Gold.PLP.PLP>
-48.1961

> <Gold.PLP.part.hbond>
-0.2283

> <Gold.PLP.part.metal>
0.0000

> <Gold.PLP.part.buried>
-6.6975

> <Gold.PLP.part.nonpolar>
-41.2087

> <Gold.PLP.part.repulsive>
0.0345

> <Gold.PLP.ligand.clash>
0.0000

> <Gold.PLP.ligand.torsion>
0.5981

> <Gold.PLP.Chemscore.Hbond>
0.0000

> <Gold.PLP.Chemscore.CHOScore>
0.0000

> <Gold.PLP.Chemscore.Metal>
0.0000

> <Gold.PLP.Chemscore.Internal.Correction>
0.0514

> <Gold.Rescore>
     Score         DG    S(hbond)    S(metal)    S(lipo)     H(rot)  DE(clash)    DE(int)     intcor
     16.50     -18.62       0.00        0.00     143.33       1.42       0.18       1.94       ----

> <Gold.Chemscore.Fitness>
16.5012

> <Gold.Chemscore.DG>
-18.6235

> <Gold.Chemscore.ZeroCoef>
-5.4800

> <Gold.Chemscore.Hbond>
0.0000

> <Gold.Chemscore.Metal>
0.0000

> <Gold.Chemscore.Lipo>
143.3307

> <Gold.Chemscore.Internal_Hbond>
0.0000

> <Gold.Chemscore.DEClash>
0.1841

> <Gold.Chemscore.DEInternal>
1.9383

> <Gold.Chemscore.Rot>
1.4165

> <Gold.Chemscore.Internal.Correction>
   9.000000E+99

> <Gold.Chemscore.Hbond.Weighted>
-0.0000

> <Gold.Chemscore.Metal.Weighted>
-0.0000

> <Gold.Chemscore.Lipo.Weighted>
-16.7697

> <Gold.Chemscore.Internal_Hbond.Weighted>
0.0000

> <Gold.Chemscore.DEClash.Weighted>
0.1841

> <Gold.Chemscore.DEInternal.Weighted>
1.9383

> <Gold.Chemscore.Rot.Weighted>
3.6262

> <Gold.Chemscore.Internal.Correction.Weighted>
   9.000000E+99

> <Gold.Protein.RotatedTorsions>
[ 6907 6896 6895 6894 ] final  -52.38 input  -60.11 | X-H torsion
[ 7974 7965 7964 7962 ] final   28.67 input  175.53 | X-H torsion
[ 8008 7997 7996 7995 ] final -116.82 input   59.86 | X-H torsion
[ 10167 10162 10161 10158 ] final -174.46 input  -65.29 | X-H torsion
[ 10718 10713 10712 10709 ] final   18.45 input   66.30 | X-H torsion
[ 10763 10752 10751 10750 ] final  118.90 input  -60.55 | X-H torsion
[ 11005 11000 10999 10996 ] final -102.13 input  -57.11 | X-H torsion

> <Gold.Protein.ActiveResidues>
 VAL166  LYS551  ARG553  GLY616  TRP617  ASP618  TYR619  PRO620  LYS621  CYS622 
 ASP623  PHE694  ASN695  SER759  ASP760  ASP761  ALA762  ILE779  LEU786  VAL792 
 PHE793  MET794  SER795  GLU796  ALA797  LYS798  CYS799  TRP800  GLU811  SER814 

> <Gold.Protein.RotatedAtoms>
  150.8524  134.7852  159.7018 H   0  0  0  0  0  0  0  0  0  0  0  0  # atno 6907 bound_to 6896
  152.4585  134.5235  159.9799 H   0  0  0  0  0  0  0  0  0  0  0  0  # atno 6908 bound_to 6896
  151.5353  133.3404  159.2961 H   0  0  0  0  0  0  0  0  0  0  0  0  # atno 6909 bound_to 6896
  146.1715  139.7024  142.8964 H   0  0  0  0  0  0  0  0  0  0  0  0  # atno 7974 bound_to 7965
  155.0738  140.0393  157.2617 H   0  0  0  0  0  0  0  0  0  0  0  0  # atno 8008 bound_to 7997
  154.6961  140.2663  155.6740 H   0  0  0  0  0  0  0  0  0  0  0  0  # atno 8009 bound_to 7997
  156.2745  140.2750  156.1556 H   0  0  0  0  0  0  0  0  0  0  0  0  # atno 8010 bound_to 7997
  139.5632  144.1818  152.1272 H   0  0  0  0  0  0  0  0  0  0  0  0  # atno 10167 bound_to 10162
  157.0965  130.6450  149.5861 H   0  0  0  0  0  0  0  0  0  0  0  0  # atno 10718 bound_to 10713
  153.5747  135.3495  155.2851 H   0  0  0  0  0  0  0  0  0  0  0  0  # atno 10763 bound_to 10752
  154.8677  135.4168  154.2686 H   0  0  0  0  0  0  0  0  0  0  0  0  # atno 10764 bound_to 10752
  153.3459  135.7052  153.6898 H   0  0  0  0  0  0  0  0  0  0  0  0  # atno 10765 bound_to 10752
  141.1202  133.8534  157.1321 H   0  0  0  0  0  0  0  0  0  0  0  0  # atno 11005 bound_to 11000
  145.4326  141.0416  143.2902 LP  0  0  0  0  0  0  0  0  0  0  0  0  # atno 17320 bound_to 7965
  144.8171  139.5858  143.7003 LP  0  0  0  0  0  0  0  0  0  0  0  0  # atno 17321 bound_to 7965
  140.1336  144.5266  150.6787 LP  0  0  0  0  0  0  0  0  0  0  0  0  # atno 17342 bound_to 10162
  140.6914  143.2378  151.5120 LP  0  0  0  0  0  0  0  0  0  0  0  0  # atno 17343 bound_to 10162
  155.9884  130.4928  150.7170 LP  0  0  0  0  0  0  0  0  0  0  0  0  # atno 17370 bound_to 10713
  157.4677  131.0890  151.0677 LP  0  0  0  0  0  0  0  0  0  0  0  0  # atno 17371 bound_to 10713
  140.0153  134.9970  157.0481 LP  0  0  0  0  0  0  0  0  0  0  0  0  # atno 17394 bound_to 11000
  140.4530  134.1563  155.7183 LP  0  0  0  0  0  0  0  0  0  0  0  0  # atno 17395 bound_to 11000

$$$$
