AV-unprocessed.smi:2492|AV-procd|sdf|9811|dock3
  -GOLD-   2272013443D 1   1.00000     0.00000
 Structure written by MMmdl.
 33 34  0  0  0  0  0  0  0  0  1 V2000
  145.5838  132.3103  149.7709 C   0  0  0  0  0  0  0  0  0  0  0  0
  144.0825  132.8253  150.6456 S   0  0  0  0  0  0  0  0  0  0  0  0
  144.7561  134.1518  151.6865 C   0  0  2  0  0  0  0  0  0  0  0  0
  143.7012  134.7691  152.6009 C   0  0  0  0  0  0  0  0  0  0  0  0
  144.2895  136.1245  152.9952 C   0  0  0  0  0  0  0  0  0  0  0  0
  145.1706  136.5654  151.8105 C   0  0  1  0  0  0  0  0  0  0  0  0
  146.4915  136.9876  152.2730 N   0  0  0  0  0  0  0  0  0  0  0  0
  146.7419  138.0172  153.0950 C   0  0  0  0  0  0  0  0  0  0  0  0
  145.8679  138.7466  153.5641 O   0  0  0  0  0  0  0  0  0  0  0  0
  148.0593  138.1407  153.3298 N   0  0  0  0  0  0  0  0  0  0  0  0
  148.7051  139.0822  154.1706 C   0  0  0  0  0  0  0  0  0  0  0  0
  150.0173  139.1935  154.3777 N   0  0  0  0  0  0  0  0  0  0  0  0
  150.0522  140.2430  155.2439 C   0  0  0  0  0  0  0  0  0  0  0  0
  151.3256  140.7843  155.7984 C   0  0  0  0  0  0  0  0  0  0  0  0
  148.8759  140.7660  155.5713 N   0  0  0  0  0  0  0  0  0  0  0  0
  147.9605  139.9864  154.8486 O   0  0  0  0  0  0  0  0  0  0  0  0
  145.2833  135.3431  150.8807 C   0  0  0  0  0  0  0  0  0  0  0  0
  145.3597  131.4807  149.1003 H   0  0  0  0  0  0  0  0  0  0  0  0
  146.3451  131.9851  150.4799 H   0  0  0  0  0  0  0  0  0  0  0  0
  145.9856  133.1325  149.1787 H   0  0  0  0  0  0  0  0  0  0  0  0
  145.5602  133.7459  152.3024 H   0  0  0  0  0  0  0  0  0  0  0  0
  142.7723  134.9229  152.0495 H   0  0  0  0  0  0  0  0  0  0  0  0
  143.4760  134.1432  153.4651 H   0  0  0  0  0  0  0  0  0  0  0  0
  143.5117  136.8543  153.2224 H   0  0  0  0  0  0  0  0  0  0  0  0
  144.8892  136.0019  153.8986 H   0  0  0  0  0  0  0  0  0  0  0  0
  144.6686  137.3708  151.2711 H   0  0  0  0  0  0  0  0  0  0  0  0
  147.2771  136.4489  151.9392 H   0  0  0  0  0  0  0  0  0  0  0  0
  148.6675  137.4814  152.8673 H   0  0  0  0  0  0  0  0  0  0  0  0
  151.1337  141.6108  156.4838 H   0  0  0  0  0  0  0  0  0  0  0  0
  151.9631  141.1462  154.9916 H   0  0  0  0  0  0  0  0  0  0  0  0
  151.8614  140.0045  156.3401 H   0  0  0  0  0  0  0  0  0  0  0  0
  146.2966  135.1743  150.5136 H   0  0  0  0  0  0  0  0  0  0  0  0
  144.6516  135.5044  150.0059 H   0  0  0  0  0  0  0  0  0  0  0  0
  1  2  1  0  0  0  0
  1 18  1  0  0  0  0
  1 19  1  0  0  0  0
  1 20  1  0  0  0  0
  2  3  1  0  0  0  0
  3 17  1  0  0  0  0
  3  4  1  0  0  0  0
  3 21  1  0  0  0  0
  4  5  1  0  0  0  0
  4 22  1  0  0  0  0
  4 23  1  0  0  0  0
  5  6  1  0  0  0  0
  5 24  1  0  0  0  0
  5 25  1  0  0  0  0
  6  7  1  0  0  0  0
  6 17  1  0  0  0  0
  6 26  1  0  0  0  0
  7  8  1  0  0  0  0
  7 27  1  0  0  0  0
  8  9  2  0  0  0  0
  8 10  1  0  0  0  0
 10 11  1  0  0  0  0
 10 28  1  0  0  0  0
 11 16  1  0  0  0  0
 11 12  2  0  0  0  0
 12 13  1  0  0  0  0
 13 14  1  0  0  0  0
 13 15  2  0  0  0  0
 14 29  1  0  0  0  0
 14 30  1  0  0  0  0
 14 31  1  0  0  0  0
 15 16  1  0  0  0  0
 17 32  1  0  0  0  0
 17 33  1  0  0  0  0
M  END
> <s_m_source_file>
AV-unprocessed.smi

> <i_m_source_file_index>
2492

> <i_lp_mmshare_version>
43012

> <i_f3d_flags>
0

> <s_epik_input>
W0NIM11TW0NAQEhdMVtDSDJdW0NIMl1bQ0BIXShbQ0gyXTEpW05IXUMoPU8pW05IXWMybmMoW0NIM10pbm8y

> <s_epik_cmdline>
J2VwaWtfcHl0aG9uJywgJy1waCcsICc3LjAnLCAnLXRuJywgJzgnLCAnLW1hJywgJzIwMCcsICctbWV0YWxfYmluZGluZycsICctaW1hZScsICc8aW5maWxlLm1hZT4nLCAnLW9tYWUnLCAnPG91dGZpbGUubWFlPic=

> <r_lp_tautomer_probability>
1

> <r_epik_Ionization_Penalty>
3.56659e-05

> <r_epik_Ionization_Penalty_Charging>
0

> <r_epik_Ionization_Penalty_Neutral>
3.56659e-05

> <r_epik_State_Penalty>
-0

> <r_epik_Charging_Adjusted_Penalty>
0

> <i_epik_Tot_Q>
0

> <i_epik_Tot_abs_Q>
0

> <r_epik_Metal_State_Penalty>
0.0146047

> <b_epik_Metal_Only>
0

> <s_lp_Force_Field>
OPLS_2005

> <r_lp_Energy>
14.5779

> <b_lp_Chiralities_Consistent>
1

> <s_lp_Variant>
AV-unprocessed.smi:2492-1

> <Gold.Version>
5.8.1

> <Gold.Id.Protein>
6NUR|6NUR_protein|mol2

> <Gold.PLP.Fitness>
32.0157

> <Gold.PLP.PLP>
-26.0285

> <Gold.PLP.part.hbond>
-2.1872

> <Gold.PLP.part.metal>
0.0000

> <Gold.PLP.part.buried>
-2.1457

> <Gold.PLP.part.nonpolar>
-21.9701

> <Gold.PLP.part.repulsive>
1.2998

> <Gold.PLP.ligand.clash>
0.0000

> <Gold.PLP.ligand.torsion>
0.0090

> <Gold.PLP.Chemscore.Hbond>
2.0000

> <Gold.PLP.Chemscore.CHOScore>
0.0000

> <Gold.PLP.Chemscore.Metal>
0.0000

> <Gold.Chemscore.Hbonds>
donor molecule, donor type, donor heavy atom, donor atom, acceptor molecule, acceptor atom, score
      L1  H     7    27       P1  7948  0.99
      L1  H    10    28       P1  7948  1.00

> <Gold.PLP.Chemscore.Internal.Correction>
0.0053

> <Gold.Rescore>
     Score         DG    S(hbond)    S(metal)    S(lipo)     H(rot)  DE(clash)    DE(int)     intcor
     13.05     -14.66       1.94        0.00      51.04       1.28       0.15       1.46       ----

> <Gold.Chemscore.Fitness>
13.0548

> <Gold.Chemscore.DG>
-14.6591

> <Gold.Chemscore.ZeroCoef>
-5.4800

> <Gold.Chemscore.Hbond>
1.9427

> <Gold.Chemscore.Metal>
0.0000

> <Gold.Chemscore.Lipo>
51.0364

> <Gold.Chemscore.Internal_Hbond>
0.0000

> <Gold.Chemscore.DEClash>
0.1485

> <Gold.Chemscore.DEInternal>
1.4558

> <Gold.Chemscore.Rot>
1.2815

> <Gold.Chemscore.Internal.Correction>
   9.000000E+99

> <Gold.Chemscore.Hbonds>
donor molecule, donor type, donor heavy atom, donor atom, acceptor molecule, acceptor atom, score
      L1  H     7    27       P1  7948  0.94
      L1  H    10    28       P1  7948  0.97

> <Gold.Chemscore.Hbond.Weighted>
-6.4886

> <Gold.Chemscore.Metal.Weighted>
-0.0000

> <Gold.Chemscore.Lipo.Weighted>
-5.9713

> <Gold.Chemscore.Internal_Hbond.Weighted>
0.0000

> <Gold.Chemscore.DEClash.Weighted>
0.1485

> <Gold.Chemscore.DEInternal.Weighted>
1.4558

> <Gold.Chemscore.Rot.Weighted>
3.2808

> <Gold.Chemscore.Internal.Correction.Weighted>
   9.000000E+99

> <Gold.Protein.RotatedTorsions>
[ 6907 6896 6895 6894 ] final  -40.46 input  -60.11 | X-H torsion
[ 7974 7965 7964 7962 ] final   90.13 input  175.53 | X-H torsion
[ 8008 7997 7996 7995 ] final   -1.76 input   59.86 | X-H torsion
[ 10167 10162 10161 10158 ] final  179.33 input  -65.29 | X-H torsion
[ 10718 10713 10712 10709 ] final -116.70 input   66.30 | X-H torsion
[ 10763 10752 10751 10750 ] final  -48.18 input  -60.55 | X-H torsion
[ 11005 11000 10999 10996 ] final  114.50 input  -57.11 | X-H torsion

> <Gold.Protein.ActiveResidues>
 VAL166  LYS551  ARG553  GLY616  TRP617  ASP618  TYR619  PRO620  LYS621  CYS622 
 ASP623  PHE694  ASN695  SER759  ASP760  ASP761  ALA762  ILE779  LEU786  VAL792 
 PHE793  MET794  SER795  GLU796  ALA797  LYS798  CYS799  TRP800  GLU811  SER814 

> <Gold.Protein.RotatedAtoms>
  150.9782  134.9142  159.7828 H   0  0  0  0  0  0  0  0  0  0  0  0  # atno 6907 bound_to 6896
  152.5213  134.3447  159.9239 H   0  0  0  0  0  0  0  0  0  0  0  0  # atno 6908 bound_to 6896
  151.3454  133.3905  159.2709 H   0  0  0  0  0  0  0  0  0  0  0  0  # atno 6909 bound_to 6896
  145.5232  139.2280  143.2660 H   0  0  0  0  0  0  0  0  0  0  0  0  # atno 7974 bound_to 7965
  154.6432  140.2551  155.7298 H   0  0  0  0  0  0  0  0  0  0  0  0  # atno 8008 bound_to 7997
  156.2539  140.2883  156.0756 H   0  0  0  0  0  0  0  0  0  0  0  0  # atno 8009 bound_to 7997
  155.1564  140.0383  157.2823 H   0  0  0  0  0  0  0  0  0  0  0  0  # atno 8010 bound_to 7997
  139.5332  144.2574  152.0735 H   0  0  0  0  0  0  0  0  0  0  0  0  # atno 10167 bound_to 10162
  156.0982  130.6150  150.9070 H   0  0  0  0  0  0  0  0  0  0  0  0  # atno 10718 bound_to 10713
  154.0735  135.6601  153.4827 H   0  0  0  0  0  0  0  0  0  0  0  0  # atno 10763 bound_to 10752
  153.0382  135.5163  154.7543 H   0  0  0  0  0  0  0  0  0  0  0  0  # atno 10764 bound_to 10752
  154.6616  135.3016  154.9826 H   0  0  0  0  0  0  0  0  0  0  0  0  # atno 10765 bound_to 10752
  139.8982  134.9569  156.6902 H   0  0  0  0  0  0  0  0  0  0  0  0  # atno 11005 bound_to 11000
  146.2093  140.6045  142.9067 LP  0  0  0  0  0  0  0  0  0  0  0  0  # atno 17320 bound_to 7965
  144.7665  140.5542  143.6699 LP  0  0  0  0  0  0  0  0  0  0  0  0  # atno 17321 bound_to 7965
  140.2040  144.4629  150.6417 LP  0  0  0  0  0  0  0  0  0  0  0  0  # atno 17342 bound_to 10162
  140.6523  143.2228  151.6049 LP  0  0  0  0  0  0  0  0  0  0  0  0  # atno 17343 bound_to 10162
  157.6147  131.0934  150.8732 LP  0  0  0  0  0  0  0  0  0  0  0  0  # atno 17370 bound_to 10713
  156.8865  130.5198  149.5288 LP  0  0  0  0  0  0  0  0  0  0  0  0  # atno 17371 bound_to 10713
  140.7231  133.9124  155.8160 LP  0  0  0  0  0  0  0  0  0  0  0  0  # atno 17394 bound_to 11000
  141.0212  134.0886  157.4118 LP  0  0  0  0  0  0  0  0  0  0  0  0  # atno 17395 bound_to 11000

$$$$
