AV-unprocessed.smi:1544|AV-procd|sdf|6213|dock2
  -GOLD-   22720 6383D 1   1.00000     0.00000
 Structure written by MMmdl.
 41 42  0  0  0  0  0  0  0  0  1 V2000
  146.5306  138.5993  154.6850 O   0  0  0  0  0  0  0  0  0  0  0  0
  147.2707  138.0966  153.8394 C   0  0  0  0  0  0  0  0  0  0  0  0
  148.6004  138.2789  153.7667 N   0  0  0  0  0  0  0  0  0  0  0  0
  149.4199  139.0979  154.5893 C   0  0  0  0  0  0  0  0  0  0  0  0
  150.8233  138.9550  154.7013 C   0  0  0  0  0  0  0  0  0  0  0  0
  151.5279  139.8152  155.5647 C   0  0  0  0  0  0  0  0  0  0  0  0
  150.8124  140.7853  156.2938 C   0  0  0  0  0  0  0  0  0  0  0  0
  151.5126  141.6271  157.1326 O   0  0  0  0  0  0  0  0  0  0  0  0
  150.7800  142.5050  157.9829 C   0  0  0  0  0  0  0  0  0  0  0  0
  151.7423  143.5266  158.5998 C   0  0  0  0  0  0  0  0  0  0  0  0
  152.7772  142.8858  159.1417 F   0  0  0  0  0  0  0  0  0  0  0  0
  152.1969  144.3566  157.6611 F   0  0  0  0  0  0  0  0  0  0  0  0
  151.1251  144.2244  159.5529 F   0  0  0  0  0  0  0  0  0  0  0  0
  149.4659  140.9180  156.2036 N   0  0  0  0  0  0  0  0  0  0  0  0
  148.7961  140.0882  155.3759 C   0  0  0  0  0  0  0  0  0  0  0  0
  146.8400  137.2692  152.8763 N   0  0  0  0  0  0  0  0  0  0  0  0
  145.4563  136.8425  152.6888 C   0  0  2  0  0  0  0  0  0  0  0  0
  144.9682  136.1043  153.9487 C   0  0  0  0  0  0  0  0  0  0  0  0
  143.5240  135.5990  153.7847 C   0  0  0  0  0  0  0  0  0  0  0  0
  143.3492  134.7271  152.5267 C   0  0  2  0  0  0  0  0  0  0  0  0
  144.0096  133.4890  152.6996 O   0  0  0  0  0  0  0  0  0  0  0  0
  143.8802  135.4366  151.2666 C   0  0  0  0  0  0  0  0  0  0  0  0
  145.3232  135.9400  151.4451 C   0  0  0  0  0  0  0  0  0  0  0  0
  149.0904  137.7246  153.0797 H   0  0  0  0  0  0  0  0  0  0  0  0
  151.3679  138.1987  154.1572 H   0  0  0  0  0  0  0  0  0  0  0  0
  152.5996  139.7300  155.6680 H   0  0  0  0  0  0  0  0  0  0  0  0
  150.0085  143.0259  157.4131 H   0  0  0  0  0  0  0  0  0  0  0  0
  150.2866  141.9405  158.7759 H   0  0  0  0  0  0  0  0  0  0  0  0
  147.7251  140.2252  155.3370 H   0  0  0  0  0  0  0  0  0  0  0  0
  147.5195  136.9002  152.2273 H   0  0  0  0  0  0  0  0  0  0  0  0
  144.8322  137.7278  152.5513 H   0  0  0  0  0  0  0  0  0  0  0  0
  145.6262  135.2604  154.1615 H   0  0  0  0  0  0  0  0  0  0  0  0
  145.0264  136.7647  154.8148 H   0  0  0  0  0  0  0  0  0  0  0  0
  143.2169  135.0468  154.6738 H   0  0  0  0  0  0  0  0  0  0  0  0
  142.8558  136.4583  153.7161 H   0  0  0  0  0  0  0  0  0  0  0  0
  142.2900  134.5054  152.3919 H   0  0  0  0  0  0  0  0  0  0  0  0
  143.6075  133.0331  153.4231 H   0  0  0  0  0  0  0  0  0  0  0  0
  143.8186  134.7737  150.4029 H   0  0  0  0  0  0  0  0  0  0  0  0
  143.2365  136.2877  151.0412 H   0  0  0  0  0  0  0  0  0  0  0  0
  145.6287  136.4829  150.5499 H   0  0  0  0  0  0  0  0  0  0  0  0
  145.9990  135.0883  151.5323 H   0  0  0  0  0  0  0  0  0  0  0  0
  1  2  2  0  0  0  0
  2  3  1  0  0  0  0
  2 16  1  0  0  0  0
  3  4  1  0  0  0  0
  3 24  1  0  0  0  0
  4 15  1  0  0  0  0
  4  5  2  0  0  0  0
  5  6  1  0  0  0  0
  5 25  1  0  0  0  0
  6  7  2  0  0  0  0
  6 26  1  0  0  0  0
  7  8  1  0  0  0  0
  7 14  1  0  0  0  0
  8  9  1  0  0  0  0
  9 10  1  0  0  0  0
  9 27  1  0  0  0  0
  9 28  1  0  0  0  0
 10 11  1  0  0  0  0
 10 12  1  0  0  0  0
 10 13  1  0  0  0  0
 14 15  2  0  0  0  0
 15 29  1  0  0  0  0
 16 17  1  0  0  0  0
 16 30  1  0  0  0  0
 17 23  1  0  0  0  0
 17 18  1  0  0  0  0
 17 31  1  0  0  0  0
 18 19  1  0  0  0  0
 18 32  1  0  0  0  0
 18 33  1  0  0  0  0
 19 20  1  0  0  0  0
 19 34  1  0  0  0  0
 19 35  1  0  0  0  0
 20 21  1  0  0  0  0
 20 22  1  0  0  0  0
 20 36  1  0  0  0  0
 21 37  1  0  0  0  0
 22 23  1  0  0  0  0
 22 38  1  0  0  0  0
 22 39  1  0  0  0  0
 23 40  1  0  0  0  0
 23 41  1  0  0  0  0
M  END
> <s_m_source_file>
AV-unprocessed.smi

> <i_m_source_file_index>
1544

> <i_lp_mmshare_version>
43012

> <i_f3d_flags>
0

> <s_epik_input>
W0NIMl0xW0NIMl1bQ0BIXShbT0hdKVtDSDJdW0NIMl1bQ0BIXTFbTkhdQyg9TylbTkhdYzJbY0hdW2NIXWMobltjSF0yKU9bQ0gyXUMoRikoRilG

> <s_epik_cmdline>
J2VwaWtfcHl0aG9uJywgJy1waCcsICc3LjAnLCAnLXRuJywgJzgnLCAnLW1hJywgJzIwMCcsICctbWV0YWxfYmluZGluZycsICctaW1hZScsICc8aW5maWxlLm1hZT4nLCAnLW9tYWUnLCAnPG91dGZpbGUubWFlPic=

> <r_lp_tautomer_probability>
1

> <r_epik_Ionization_Penalty>
4.43219e-05

> <r_epik_Ionization_Penalty_Charging>
0

> <r_epik_Ionization_Penalty_Neutral>
4.43219e-05

> <r_epik_State_Penalty>
-0

> <r_epik_Charging_Adjusted_Penalty>
0

> <i_epik_Tot_Q>
0

> <i_epik_Tot_abs_Q>
0

> <r_epik_Metal_State_Penalty>
-0

> <b_epik_Metal_Only>
0

> <s_lp_Force_Field>
OPLS_2005

> <r_lp_Energy>
11.0247

> <b_lp_Chiralities_Consistent>
1

> <s_lp_Variant>
AV-unprocessed.smi:1544-2

> <Gold.Version>
5.8.1

> <Gold.Id.Protein>
6NUR|6NUR_protein|mol2

> <Gold.PLP.Fitness>
48.9294

> <Gold.PLP.PLP>
-40.4152

> <Gold.PLP.part.hbond>
-3.2475

> <Gold.PLP.part.metal>
0.0000

> <Gold.PLP.part.buried>
-5.0344

> <Gold.PLP.part.nonpolar>
-33.6153

> <Gold.PLP.part.repulsive>
0.2515

> <Gold.PLP.ligand.clash>
0.0000

> <Gold.PLP.ligand.torsion>
0.2134

> <Gold.PLP.Chemscore.Hbond>
2.9600

> <Gold.PLP.Chemscore.CHOScore>
0.0000

> <Gold.PLP.Chemscore.Metal>
0.0000

> <Gold.Chemscore.Hbonds>
donor molecule, donor type, donor heavy atom, donor atom, acceptor molecule, acceptor atom, score
      L1  H     3    24       P1  7948  0.93
      L1  H    16    30       P1  7948  1.00
      L1  H    21    37       P1 10957  0.88

> <Gold.PLP.Chemscore.Internal.Correction>
0.0610

> <Gold.Rescore>
     Score         DG    S(hbond)    S(metal)    S(lipo)     H(rot)  DE(clash)    DE(int)     intcor
     15.18     -16.88       2.92        0.00      64.75       2.31       0.05       1.66       ----

> <Gold.Chemscore.Fitness>
15.1829

> <Gold.Chemscore.DG>
-16.8835

> <Gold.Chemscore.ZeroCoef>
-5.4800

> <Gold.Chemscore.Hbond>
2.9174

> <Gold.Chemscore.Metal>
0.0000

> <Gold.Chemscore.Lipo>
64.7458

> <Gold.Chemscore.Internal_Hbond>
0.0000

> <Gold.Chemscore.DEClash>
0.0456

> <Gold.Chemscore.DEInternal>
1.6550

> <Gold.Chemscore.Rot>
2.3109

> <Gold.Chemscore.Internal.Correction>
   9.000000E+99

> <Gold.Chemscore.Hbonds>
donor molecule, donor type, donor heavy atom, donor atom, acceptor molecule, acceptor atom, score
      L1  H     3    24       P1  7948  0.90
      L1  H    16    30       P1  7948  0.97
      L1  H    21    37       P1 10957  0.73

> <Gold.Chemscore.Hbond.Weighted>
-9.7441

> <Gold.Chemscore.Metal.Weighted>
-0.0000

> <Gold.Chemscore.Lipo.Weighted>
-7.5753

> <Gold.Chemscore.Internal_Hbond.Weighted>
0.0000

> <Gold.Chemscore.DEClash.Weighted>
0.0456

> <Gold.Chemscore.DEInternal.Weighted>
1.6550

> <Gold.Chemscore.Rot.Weighted>
5.9158

> <Gold.Chemscore.Internal.Correction.Weighted>
   9.000000E+99

> <Gold.Protein.RotatedTorsions>
[ 6907 6896 6895 6894 ] final  -92.12 input  -60.11 | X-H torsion
[ 7974 7965 7964 7962 ] final  -40.79 input  175.53 | X-H torsion
[ 8008 7997 7996 7995 ] final -106.34 input   59.86 | X-H torsion
[ 10167 10162 10161 10158 ] final  -74.29 input  -65.29 | X-H torsion
[ 10718 10713 10712 10709 ] final   -1.79 input   66.30 | X-H torsion
[ 10763 10752 10751 10750 ] final -155.64 input  -60.55 | X-H torsion
[ 11005 11000 10999 10996 ] final   66.34 input  -57.11 | X-H torsion

> <Gold.Protein.ActiveResidues>
 VAL166  LYS551  ARG553  GLY616  TRP617  ASP618  TYR619  PRO620  LYS621  CYS622 
 ASP623  PHE694  ASN695  SER759  ASP760  ASP761  ALA762  ILE779  LEU786  VAL792 
 PHE793  MET794  SER795  GLU796  ALA797  LYS798  CYS799  TRP800  GLU811  SER814 

> <Gold.Protein.RotatedAtoms>
  150.6901  134.2172  159.4382 H   0  0  0  0  0  0  0  0  0  0  0  0  # atno 6907 bound_to 6896
  152.0130  134.9863  160.0578 H   0  0  0  0  0  0  0  0  0  0  0  0  # atno 6908 bound_to 6896
  152.1470  133.4463  159.4831 H   0  0  0  0  0  0  0  0  0  0  0  0  # atno 6909 bound_to 6896
  146.0271  140.6778  142.9150 H   0  0  0  0  0  0  0  0  0  0  0  0  # atno 7974 bound_to 7965
  154.9132  140.0409  157.1957 H   0  0  0  0  0  0  0  0  0  0  0  0  # atno 8008 bound_to 7997
  154.8328  140.2902  155.5690 H   0  0  0  0  0  0  0  0  0  0  0  0  # atno 8009 bound_to 7997
  156.2988  140.2497  156.3256 H   0  0  0  0  0  0  0  0  0  0  0  0  # atno 8010 bound_to 7997
  140.5039  143.2356  151.7706 H   0  0  0  0  0  0  0  0  0  0  0  0  # atno 10167 bound_to 10162
  156.8004  130.5391  149.5722 H   0  0  0  0  0  0  0  0  0  0  0  0  # atno 10718 bound_to 10713
  154.7772  135.3163  154.8067 H   0  0  0  0  0  0  0  0  0  0  0  0  # atno 10763 bound_to 10752
  153.8788  135.6837  153.4773 H   0  0  0  0  0  0  0  0  0  0  0  0  # atno 10764 bound_to 10752
  153.1398  135.4744  154.9415 H   0  0  0  0  0  0  0  0  0  0  0  0  # atno 10765 bound_to 10752
  139.9838  134.6701  156.0213 H   0  0  0  0  0  0  0  0  0  0  0  0  # atno 11005 bound_to 11000
  144.7014  140.3670  143.7153 LP  0  0  0  0  0  0  0  0  0  0  0  0  # atno 17320 bound_to 7965
  145.7100  139.1682  143.2544 LP  0  0  0  0  0  0  0  0  0  0  0  0  # atno 17321 bound_to 7965
  139.4879  144.4484  151.9683 LP  0  0  0  0  0  0  0  0  0  0  0  0  # atno 17342 bound_to 10162
  140.3574  144.3015  150.5939 LP  0  0  0  0  0  0  0  0  0  0  0  0  # atno 17343 bound_to 10162
  156.1104  130.6036  151.0039 LP  0  0  0  0  0  0  0  0  0  0  0  0  # atno 17370 bound_to 10713
  157.6556  131.0890  150.7954 LP  0  0  0  0  0  0  0  0  0  0  0  0  # atno 17371 bound_to 10713
  141.1506  133.6549  156.4002 LP  0  0  0  0  0  0  0  0  0  0  0  0  # atno 17394 bound_to 11000
  140.5043  134.6456  157.5260 LP  0  0  0  0  0  0  0  0  0  0  0  0  # atno 17395 bound_to 11000

$$$$
