AV-unprocessed.smi:157|AV-procd|sdf|1316|dock3
  -GOLD-   2262019 13D 1   1.00000     0.00000
 Structure written by MMmdl.
 36 38  0  0  0  0  0  0  0  0  2 V2000
  142.8642  132.0093  148.6633 O   0  0  0  0  0  0  0  0  0  0  0  0
  144.2443  132.0018  148.9593 C   0  0  0  0  0  0  0  0  0  0  0  0
  144.5069  132.6798  150.3133 C   0  0  2  0  0  0  0  0  0  0  0  0
  143.9700  134.0046  150.2931 O   0  0  0  0  0  0  0  0  0  0  0  0
  144.9525  134.9196  150.6684 C   0  0  1  0  0  0  0  0  0  0  0  0
  144.3364  135.9754  151.5257 N   0  0  0  0  0  0  0  0  0  0  0  0
  144.7017  137.2732  151.5964 C   0  0  0  0  0  0  0  0  0  0  0  0
  143.9785  137.9967  152.4346 N   0  3  0  0  0  0  0  0  0  0  0  0
  143.0409  137.1444  152.9788 C   0  0  0  0  0  0  0  0  0  0  0  0
  143.2839  135.8930  152.4068 C   0  0  0  0  0  0  0  0  0  0  0  0
  142.6241  134.6700  152.6021 N   0  0  0  0  0  0  0  0  0  0  0  0
  141.8321  134.4500  153.6007 C   0  0  0  0  0  0  0  0  0  0  0  0
  141.4047  135.3249  154.5853 N   0  0  0  0  0  0  0  0  0  0  0  0
  140.9219  136.6647  154.3012 C   0  0  0  0  0  0  0  0  0  0  0  0
  142.0363  137.6627  153.9597 C   0  0  1  0  0  0  0  0  0  0  0  0
  142.6306  138.1044  155.1626 O   0  0  0  0  0  0  0  0  0  0  0  0
  145.9928  134.1351  151.4525 C   0  0  0  0  0  0  0  0  0  0  0  0
  145.9946  132.8414  150.6689 C   0  0  1  0  0  0  0  0  0  0  0  0
  146.4860  131.7788  151.4595 O   0  0  0  0  0  0  0  0  0  0  0  0
  143.9826  132.1482  151.1095 H   0  0  0  0  0  0  0  0  0  0  0  0
  145.3532  135.4339  149.7938 H   0  0  0  0  0  0  0  0  0  0  0  0
  141.5664  138.5420  153.5173 H   0  0  0  0  0  0  0  0  0  0  0  0
  146.6029  132.9532  149.7699 H   0  0  0  0  0  0  0  0  0  0  0  0
  142.4556  131.2848  149.1120 H   0  0  0  0  0  0  0  0  0  0  0  0
  144.6184  130.9776  148.9537 H   0  0  0  0  0  0  0  0  0  0  0  0
  144.7642  132.5386  148.1651 H   0  0  0  0  0  0  0  0  0  0  0  0
  145.5113  137.6807  151.0175 H   0  0  0  0  0  0  0  0  0  0  0  0
  141.4081  133.4528  153.7277 H   0  0  0  0  0  0  0  0  0  0  0  0
  140.9705  134.9440  155.4141 H   0  0  0  0  0  0  0  0  0  0  0  0
  140.2401  136.5921  153.4525 H   0  0  0  0  0  0  0  0  0  0  0  0
  140.3240  137.0247  155.1392 H   0  0  0  0  0  0  0  0  0  0  0  0
  142.2565  137.6214  155.8832 H   0  0  0  0  0  0  0  0  0  0  0  0
  146.9537  134.6503  151.4691 H   0  0  0  0  0  0  0  0  0  0  0  0
  145.6415  133.9808  152.4747 H   0  0  0  0  0  0  0  0  0  0  0  0
  147.3281  131.5144  151.1224 H   0  0  0  0  0  0  0  0  0  0  0  0
  144.0901  138.9839  152.6277 H   0  0  0  0  0  0  0  0  0  0  0  0
  1  2  1  0  0  0  0
  1 24  1  0  0  0  0
  2  3  1  0  0  0  0
  2 25  1  0  0  0  0
  2 26  1  0  0  0  0
  3 20  1  0  0  0  0
  3 18  1  0  0  0  0
  3  4  1  0  0  0  0
  4  5  1  0  0  0  0
  5 21  1  0  0  0  0
  5  6  1  0  0  0  0
  5 17  1  0  0  0  0
  6 10  1  0  0  0  0
  6  7  1  0  0  0  0
  7  8  2  0  0  0  0
  7 27  1  0  0  0  0
  8  9  1  0  0  0  0
  8 36  1  0  0  0  0
  9 15  1  0  0  0  0
  9 10  2  0  0  0  0
 10 11  1  0  0  0  0
 11 12  2  0  0  0  0
 12 13  1  0  0  0  0
 12 28  1  0  0  0  0
 13 14  1  0  0  0  0
 13 29  1  0  0  0  0
 14 15  1  0  0  0  0
 14 30  1  0  0  0  0
 14 31  1  0  0  0  0
 15 22  1  0  0  0  0
 15 16  1  0  0  0  0
 16 32  1  0  0  0  0
 17 18  1  0  0  0  0
 17 33  1  0  0  0  0
 17 34  1  0  0  0  0
 18 23  1  0  0  0  0
 18 19  1  0  0  0  0
 19 35  1  0  0  0  0
M  CHG  1   8   1
M  END
> <s_m_source_file>
AV-unprocessed.smi

> <i_m_source_file_index>
157

> <i_lp_mmshare_version>
43012

> <i_f3d_flags>
0

> <s_epik_input>
W09IXVtDSDJdW0NASF0xT1tDQEhdKFtDSDJdW0NAQEhdMVtPSF0pbihbY0hdbjIpYyhjMjMpTj1bQ0hdW05IXVtDSDJdW0NASF0zW09IXQ==

> <s_epik_cmdline>
J2VwaWtfcHl0aG9uJywgJy1waCcsICc3LjAnLCAnLXRuJywgJzgnLCAnLW1hJywgJzIwMCcsICctbWV0YWxfYmluZGluZycsICctaW1hZScsICc8aW5maWxlLm1hZT4nLCAnLW9tYWUnLCAnPG91dGZpbGUubWFlPic=

> <r_epik_Ionization_Penalty>
1.68594

> <r_epik_Ionization_Penalty_Charging>
0

> <r_epik_Ionization_Penalty_Neutral>
1.68594

> <r_epik_State_Penalty>
1.79006

> <r_epik_Charging_Adjusted_Penalty>
1.79006

> <i_epik_Tot_Q>
1

> <i_epik_Tot_abs_Q>
1

> <r_epik_Metal_State_Penalty>
5.85324

> <b_epik_Metal_Only>
0

> <s_epik_Chemistry_Notes>
This compound has an imine and may undergo hydrolysis. This compound contains an acetal/aminal-like group ( X-CH(R)-Y where X, Y are N, S, or O) that may be acid/base labile, releasing an aldehyde.

> <s_lp_Force_Field>
OPLS_2005

> <r_lp_Energy>
52.5264

> <b_lp_Chiralities_Consistent>
1

> <s_lp_Variant>
AV-unprocessed.smi:157-26

> <Gold.Version>
5.8.1

> <Gold.Id.Protein>
6NUR|6NUR_protein|mol2

> <Gold.PLP.Fitness>
45.8945

> <Gold.PLP.PLP>
-30.3830

> <Gold.PLP.part.hbond>
-6.3798

> <Gold.PLP.part.metal>
0.0000

> <Gold.PLP.part.buried>
0.2630

> <Gold.PLP.part.nonpolar>
-26.5926

> <Gold.PLP.part.repulsive>
0.7407

> <Gold.PLP.ligand.clash>
0.0000

> <Gold.PLP.ligand.torsion>
0.7290

> <Gold.PLP.Chemscore.Hbond>
4.8793

> <Gold.PLP.Chemscore.CHOScore>
0.7731

> <Gold.PLP.Chemscore.Metal>
0.0000

> <Gold.Chemscore.Hbonds>
donor molecule, donor type, donor heavy atom, donor atom, acceptor molecule, acceptor atom, score
      L1  H     1    24       P1 10952  0.94
      L1  H     8    36       P1 10175  1.98
      L1  H    13    29       P1 11000  1.00
      L1  H    19    35       P1 10747  1.00
      L1  C     7    27       P1 10171  0.09
      L1  C    12    28       P1 10957  0.83

> <Gold.PLP.Chemscore.Internal.Correction>
0.0124

> <Gold.Rescore>
     Score         DG    S(hbond)    S(metal)    S(lipo)     H(rot)  DE(clash)    DE(int)     intcor
      9.22     -14.75       3.83        0.00      50.01       3.67       3.31       2.23       ----

> <Gold.Chemscore.Fitness>
9.2160

> <Gold.Chemscore.DG>
-14.7549

> <Gold.Chemscore.ZeroCoef>
-5.4800

> <Gold.Chemscore.Hbond>
3.8349

> <Gold.Chemscore.Metal>
0.0000

> <Gold.Chemscore.Lipo>
50.0105

> <Gold.Chemscore.Internal_Hbond>
0.0000

> <Gold.Chemscore.DEClash>
3.3087

> <Gold.Chemscore.DEInternal>
2.2302

> <Gold.Chemscore.Rot>
3.6659

> <Gold.Chemscore.Internal.Correction>
   9.000000E+99

> <Gold.Chemscore.Hbonds>
donor molecule, donor type, donor heavy atom, donor atom, acceptor molecule, acceptor atom, score
      L1  H     1    24       P1 10952  0.90
      L1  H     8    36       P1 10175  0.88
      L1  H    13    29       P1 11000  0.49
      L1  H    19    35       P1 10747  0.98

> <Gold.Chemscore.Hbond.Weighted>
-12.8085

> <Gold.Chemscore.Metal.Weighted>
-0.0000

> <Gold.Chemscore.Lipo.Weighted>
-5.8512

> <Gold.Chemscore.Internal_Hbond.Weighted>
0.0000

> <Gold.Chemscore.DEClash.Weighted>
3.3087

> <Gold.Chemscore.DEInternal.Weighted>
2.2302

> <Gold.Chemscore.Rot.Weighted>
9.3848

> <Gold.Chemscore.Internal.Correction.Weighted>
   9.000000E+99

> <Gold.Protein.RotatedTorsions>
[ 6907 6896 6895 6894 ] final   37.13 input  -60.11 | X-H torsion
[ 7974 7965 7964 7962 ] final  -54.70 input  175.53 | X-H torsion
[ 8008 7997 7996 7995 ] final -164.90 input   59.86 | X-H torsion
[ 10167 10162 10161 10158 ] final -132.64 input  -65.29 | X-H torsion
[ 10718 10713 10712 10709 ] final  158.33 input   66.30 | X-H torsion
[ 10763 10752 10751 10750 ] final -174.56 input  -60.55 | X-H torsion
[ 11005 11000 10999 10996 ] final -120.67 input  -57.11 | X-H torsion

> <Gold.Protein.ActiveResidues>
 VAL166  LYS551  ARG553  GLY616  TRP617  ASP618  TYR619  PRO620  LYS621  CYS622 
 ASP623  PHE694  ASN695  SER759  ASP760  ASP761  ALA762  ILE779  LEU786  VAL792 
 PHE793  MET794  SER795  GLU796  ALA797  LYS798  CYS799  TRP800  GLU811  SER814 

> <Gold.Protein.RotatedAtoms>
  152.1390  134.9077  160.0554 H   0  0  0  0  0  0  0  0  0  0  0  0  # atno 6907 bound_to 6896
  152.0152  133.3872  159.4244 H   0  0  0  0  0  0  0  0  0  0  0  0  # atno 6908 bound_to 6896
  150.6863  134.3608  159.4993 H   0  0  0  0  0  0  0  0  0  0  0  0  # atno 6909 bound_to 6896
  145.8826  140.8133  142.9832 H   0  0  0  0  0  0  0  0  0  0  0  0  # atno 7974 bound_to 7965
  155.8422  140.0950  157.1727 H   0  0  0  0  0  0  0  0  0  0  0  0  # atno 8008 bound_to 7997
  154.3982  140.1399  156.3804 H   0  0  0  0  0  0  0  0  0  0  0  0  # atno 8009 bound_to 7997
  155.8052  140.3451  155.5428 H   0  0  0  0  0  0  0  0  0  0  0  0  # atno 8010 bound_to 7997
  139.9064  143.6546  152.2584 H   0  0  0  0  0  0  0  0  0  0  0  0  # atno 10167 bound_to 10162
  157.1793  131.0628  151.2140 H   0  0  0  0  0  0  0  0  0  0  0  0  # atno 10718 bound_to 10713
  154.5948  135.2848  155.0598 H   0  0  0  0  0  0  0  0  0  0  0  0  # atno 10763 bound_to 10752
  154.1885  135.6445  153.5057 H   0  0  0  0  0  0  0  0  0  0  0  0  # atno 10764 bound_to 10752
  153.0134  135.5440  154.6646 H   0  0  0  0  0  0  0  0  0  0  0  0  # atno 10765 bound_to 10752
  141.0126  134.0242  157.3393 H   0  0  0  0  0  0  0  0  0  0  0  0  # atno 11005 bound_to 11000
  144.6727  140.1407  143.7437 LP  0  0  0  0  0  0  0  0  0  0  0  0  # atno 17320 bound_to 7965
  145.9005  139.2428  143.1496 LP  0  0  0  0  0  0  0  0  0  0  0  0  # atno 17321 bound_to 7965
  139.6980  144.7639  151.1322 LP  0  0  0  0  0  0  0  0  0  0  0  0  # atno 17342 bound_to 10162
  140.7695  143.5497  150.9219 LP  0  0  0  0  0  0  0  0  0  0  0  0  # atno 17343 bound_to 10162
  157.3968  130.7312  149.6737 LP  0  0  0  0  0  0  0  0  0  0  0  0  # atno 17370 bound_to 10713
  155.9727  130.4131  150.4068 LP  0  0  0  0  0  0  0  0  0  0  0  0  # atno 17371 bound_to 10713
  139.9099  135.0188  156.7645 LP  0  0  0  0  0  0  0  0  0  0  0  0  # atno 17394 bound_to 11000
  140.6708  133.9561  155.7855 LP  0  0  0  0  0  0  0  0  0  0  0  0  # atno 17395 bound_to 11000

$$$$
