AV-unprocessed.smi:2547|AV-procd|sdf|10003|dock3
  -GOLD-   2272014 53D 1   1.00000     0.00000
 Structure written by MMmdl.
 45 46  0  0  0  0  0  0  0  0  3 V2000
  148.7757  133.5717  153.8601 C   0  0  0  0  0  0  0  0  0  0  0  0
  149.1250  134.9134  154.3738 N   0  3  2  0  0  0  0  0  0  0  0  0
  150.5037  134.9676  154.9206 C   0  0  0  0  0  0  0  0  0  0  0  0
  150.8807  136.4013  155.3307 C   0  0  0  0  0  0  0  0  0  0  0  0
  149.8715  136.9735  156.3397 C   0  0  1  0  0  0  0  0  0  0  0  0
  150.2085  138.3605  156.6482 N   0  0  0  0  0  0  0  0  0  0  0  0
  150.9594  138.7581  157.6857 C   0  0  0  0  0  0  0  0  0  0  0  0
  151.4475  137.9815  158.5064 O   0  0  0  0  0  0  0  0  0  0  0  0
  151.0828  140.0964  157.7159 N   0  0  0  0  0  0  0  0  0  0  0  0
  151.7956  140.8879  158.6551 C   0  0  0  0  0  0  0  0  0  0  0  0
  152.9029  140.4258  159.4057 C   0  0  0  0  0  0  0  0  0  0  0  0
  153.5470  141.3045  160.2978 C   0  0  0  0  0  0  0  0  0  0  0  0
  153.0846  142.6292  160.4230 C   0  0  0  0  0  0  0  0  0  0  0  0
  151.9832  143.0632  159.6461 C   0  0  0  0  0  0  0  0  0  0  0  0
  151.4624  144.3739  159.7090 N   0  0  0  0  0  0  0  0  0  0  0  0
  152.2049  145.4161  160.4063 C   0  0  0  0  0  0  0  0  0  0  0  0
  150.2257  144.6962  159.0057 C   0  0  0  0  0  0  0  0  0  0  0  0
  151.4030  142.1735  158.8026 N   0  3  0  0  0  0  0  0  0  0  0  0
  148.4479  136.8700  155.7607 C   0  0  0  0  0  0  0  0  0  0  0  0
  148.1230  135.4265  155.3410 C   0  0  0  0  0  0  0  0  0  0  0  0
  148.7809  132.8319  154.6617 H   0  0  0  0  0  0  0  0  0  0  0  0
  149.4874  133.2548  153.0970 H   0  0  0  0  0  0  0  0  0  0  0  0
  147.7840  133.5786  153.4064 H   0  0  0  0  0  0  0  0  0  0  0  0
  150.5839  134.2982  155.7787 H   0  0  0  0  0  0  0  0  0  0  0  0
  151.2088  134.6068  154.1706 H   0  0  0  0  0  0  0  0  0  0  0  0
  151.8838  136.4094  155.7588 H   0  0  0  0  0  0  0  0  0  0  0  0
  150.9183  137.0338  154.4422 H   0  0  0  0  0  0  0  0  0  0  0  0
  149.9286  136.3792  157.2541 H   0  0  0  0  0  0  0  0  0  0  0  0
  149.8446  139.0672  156.0254 H   0  0  0  0  0  0  0  0  0  0  0  0
  150.5522  140.6086  157.0266 H   0  0  0  0  0  0  0  0  0  0  0  0
  153.2772  139.4181  159.3049 H   0  0  0  0  0  0  0  0  0  0  0  0
  154.3921  140.9657  160.8788 H   0  0  0  0  0  0  0  0  0  0  0  0
  153.5871  143.2915  161.1121 H   0  0  0  0  0  0  0  0  0  0  0  0
  153.1957  145.5391  159.9680 H   0  0  0  0  0  0  0  0  0  0  0  0
  152.3182  145.1660  161.4616 H   0  0  0  0  0  0  0  0  0  0  0  0
  151.6923  146.3762  160.3459 H   0  0  0  0  0  0  0  0  0  0  0  0
  149.4054  144.0748  159.3665 H   0  0  0  0  0  0  0  0  0  0  0  0
  150.3404  144.5321  157.9339 H   0  0  0  0  0  0  0  0  0  0  0  0
  149.9436  145.7385  159.1555 H   0  0  0  0  0  0  0  0  0  0  0  0
  147.7153  137.2106  156.4935 H   0  0  0  0  0  0  0  0  0  0  0  0
  148.3495  137.5294  154.8968 H   0  0  0  0  0  0  0  0  0  0  0  0
  147.1301  135.3944  154.8909 H   0  0  0  0  0  0  0  0  0  0  0  0
  148.0954  134.7778  156.2180 H   0  0  0  0  0  0  0  0  0  0  0  0
  149.1043  135.5375  153.5797 H   0  0  0  0  0  0  0  0  0  0  0  0
  150.6110  142.4958  158.2468 H   0  0  0  0  0  0  0  0  0  0  0  0
  1  2  1  0  0  0  0
  1 21  1  0  0  0  0
  1 22  1  0  0  0  0
  1 23  1  0  0  0  0
  2 20  1  0  0  0  0
  2  3  1  0  0  0  0
  2 44  1  0  0  0  0
  3  4  1  0  0  0  0
  3 24  1  0  0  0  0
  3 25  1  0  0  0  0
  4  5  1  0  0  0  0
  4 26  1  0  0  0  0
  4 27  1  0  0  0  0
  5  6  1  0  0  0  0
  5 19  1  0  0  0  0
  5 28  1  0  0  0  0
  6  7  1  0  0  0  0
  6 29  1  0  0  0  0
  7  8  2  0  0  0  0
  7  9  1  0  0  0  0
  9 10  1  0  0  0  0
  9 30  1  0  0  0  0
 10 18  1  0  0  0  0
 10 11  2  0  0  0  0
 11 12  1  0  0  0  0
 11 31  1  0  0  0  0
 12 13  2  0  0  0  0
 12 32  1  0  0  0  0
 13 14  1  0  0  0  0
 13 33  1  0  0  0  0
 14 15  1  0  0  0  0
 14 18  2  0  0  0  0
 15 16  1  0  0  0  0
 15 17  1  0  0  0  0
 16 34  1  0  0  0  0
 16 35  1  0  0  0  0
 16 36  1  0  0  0  0
 17 37  1  0  0  0  0
 17 38  1  0  0  0  0
 17 39  1  0  0  0  0
 18 45  1  0  0  0  0
 19 20  1  0  0  0  0
 19 40  1  0  0  0  0
 19 41  1  0  0  0  0
 20 42  1  0  0  0  0
 20 43  1  0  0  0  0
M  CHG  1   2   1
M  CHG  1  18   1
M  END
> <s_m_source_file>
AV-unprocessed.smi

> <i_m_source_file_index>
2547

> <i_lp_mmshare_version>
43012

> <i_f3d_flags>
0

> <s_epik_input>
W0NIM11OMVtDSDJdW0NIMl1bQ0hdKFtDSDJdW0NIMl0xKVtOSF1DKD1PKVtOSF1jMltjSF1bY0hdW2NIXWMobjIpTihbQ0gzXSlbQ0gzXQ==

> <s_epik_cmdline>
J2VwaWtfcHl0aG9uJywgJy1waCcsICc3LjAnLCAnLXRuJywgJzgnLCAnLW1hJywgJzIwMCcsICctbWV0YWxfYmluZGluZycsICctaW1hZScsICc8aW5maWxlLm1hZT4nLCAnLW9tYWUnLCAnPG91dGZpbGUubWFlPic=

> <r_lp_tautomer_probability>
0.999994

> <r_epik_Ionization_Penalty>
2.17028

> <r_epik_Ionization_Penalty_Charging>
2.10368

> <r_epik_Ionization_Penalty_Neutral>
0.0666017

> <r_epik_State_Penalty>
2.2357

> <r_epik_Charging_Adjusted_Penalty>
4.33938

> <i_epik_Tot_Q>
2

> <i_epik_Tot_abs_Q>
2

> <r_epik_Metal_State_Penalty>
2.25749

> <b_epik_Metal_Only>
0

> <s_lp_Force_Field>
OPLS_2005

> <r_lp_Energy>
26.2357

> <b_lp_Chiralities_Consistent>
1

> <s_lp_Variant>
AV-unprocessed.smi:2547-3

> <Gold.Version>
5.8.1

> <Gold.Id.Protein>
6NUR|6NUR_protein|mol2

> <Gold.PLP.Fitness>
38.0463

> <Gold.PLP.PLP>
-33.0951

> <Gold.PLP.part.hbond>
-1.0000

> <Gold.PLP.part.metal>
0.0000

> <Gold.PLP.part.buried>
-4.9452

> <Gold.PLP.part.nonpolar>
-27.2069

> <Gold.PLP.part.repulsive>
0.1634

> <Gold.PLP.ligand.clash>
0.0000

> <Gold.PLP.ligand.torsion>
0.5268

> <Gold.PLP.Chemscore.Hbond>
2.0000

> <Gold.PLP.Chemscore.CHOScore>
0.0000

> <Gold.PLP.Chemscore.Metal>
0.0000

> <Gold.Chemscore.Hbonds>
donor molecule, donor type, donor heavy atom, donor atom, acceptor molecule, acceptor atom, score
      L1  H     2    44       P1  7948  2.00

> <Gold.PLP.Chemscore.Internal.Correction>
0.0049

> <Gold.Rescore>
     Score         DG    S(hbond)    S(metal)    S(lipo)     H(rot)  DE(clash)    DE(int)     intcor
     12.64     -14.10       0.93        0.00      68.89       1.00       0.00       1.46       ----

> <Gold.Chemscore.Fitness>
12.6385

> <Gold.Chemscore.DG>
-14.1004

> <Gold.Chemscore.ZeroCoef>
-5.4800

> <Gold.Chemscore.Hbond>
0.9342

> <Gold.Chemscore.Metal>
0.0000

> <Gold.Chemscore.Lipo>
68.8919

> <Gold.Chemscore.Internal_Hbond>
0.0000

> <Gold.Chemscore.DEClash>
0.0029

> <Gold.Chemscore.DEInternal>
1.4590

> <Gold.Chemscore.Rot>
1.0000

> <Gold.Chemscore.Internal.Correction>
   9.000000E+99

> <Gold.Chemscore.Hbonds>
donor molecule, donor type, donor heavy atom, donor atom, acceptor molecule, acceptor atom, score
      L1  H     2    44       P1  7948  0.65

> <Gold.Chemscore.Hbond.Weighted>
-3.1201

> <Gold.Chemscore.Metal.Weighted>
-0.0000

> <Gold.Chemscore.Lipo.Weighted>
-8.0604

> <Gold.Chemscore.Internal_Hbond.Weighted>
0.0000

> <Gold.Chemscore.DEClash.Weighted>
0.0029

> <Gold.Chemscore.DEInternal.Weighted>
1.4590

> <Gold.Chemscore.Rot.Weighted>
2.5600

> <Gold.Chemscore.Internal.Correction.Weighted>
   9.000000E+99

> <Gold.Protein.RotatedTorsions>
[ 6907 6896 6895 6894 ] final  -50.13 input  -60.11 | X-H torsion
[ 7974 7965 7964 7962 ] final  -91.27 input  175.53 | X-H torsion
[ 8008 7997 7996 7995 ] final  -12.87 input   59.86 | X-H torsion
[ 10167 10162 10161 10158 ] final -141.03 input  -65.29 | X-H torsion
[ 10718 10713 10712 10709 ] final -111.11 input   66.30 | X-H torsion
[ 10763 10752 10751 10750 ] final  -77.48 input  -60.55 | X-H torsion
[ 11005 11000 10999 10996 ] final  115.62 input  -57.11 | X-H torsion

> <Gold.Protein.ActiveResidues>
 VAL166  LYS551  ARG553  GLY616  TRP617  ASP618  TYR619  PRO620  LYS621  CYS622 
 ASP623  PHE694  ASN695  SER759  ASP760  ASP761  ALA762  ILE779  LEU786  VAL792 
 PHE793  MET794  SER795  GLU796  ALA797  LYS798  CYS799  TRP800  GLU811  SER814 

> <Gold.Protein.RotatedAtoms>
  150.8737  134.8116  159.7173 H   0  0  0  0  0  0  0  0  0  0  0  0  # atno 6907 bound_to 6896
  152.4732  134.4906  159.9704 H   0  0  0  0  0  0  0  0  0  0  0  0  # atno 6908 bound_to 6896
  151.4991  133.3470  159.2901 H   0  0  0  0  0  0  0  0  0  0  0  0  # atno 6909 bound_to 6896
  145.4154  140.9548  143.2211 H   0  0  0  0  0  0  0  0  0  0  0  0  # atno 7974 bound_to 7965
  154.5340  140.2264  155.8755 H   0  0  0  0  0  0  0  0  0  0  0  0  # atno 8008 bound_to 7997
  156.1792  140.3104  155.9080 H   0  0  0  0  0  0  0  0  0  0  0  0  # atno 8009 bound_to 7997
  155.3393  140.0449  157.3035 H   0  0  0  0  0  0  0  0  0  0  0  0  # atno 8010 bound_to 7997
  139.8224  143.7556  152.2666 H   0  0  0  0  0  0  0  0  0  0  0  0  # atno 10167 bound_to 10162
  156.0628  130.5850  150.8328 H   0  0  0  0  0  0  0  0  0  0  0  0  # atno 10718 bound_to 10713
  154.5134  135.5762  153.6623 H   0  0  0  0  0  0  0  0  0  0  0  0  # atno 10763 bound_to 10752
  152.9902  135.6164  154.2849 H   0  0  0  0  0  0  0  0  0  0  0  0  # atno 10764 bound_to 10752
  154.2765  135.2852  155.2695 H   0  0  0  0  0  0  0  0  0  0  0  0  # atno 10765 bound_to 10752
  139.9015  134.9586  156.7073 H   0  0  0  0  0  0  0  0  0  0  0  0  # atno 11005 bound_to 11000
  144.8281  139.5675  143.6956 LP  0  0  0  0  0  0  0  0  0  0  0  0  # atno 17320 bound_to 7965
  146.2684  139.6575  142.9313 LP  0  0  0  0  0  0  0  0  0  0  0  0  # atno 17321 bound_to 7965
  139.7738  144.7468  151.0186 LP  0  0  0  0  0  0  0  0  0  0  0  0  # atno 17342 bound_to 10162
  140.7812  143.4616  151.0270 LP  0  0  0  0  0  0  0  0  0  0  0  0  # atno 17343 bound_to 10162
  157.5649  131.0946  150.9504 LP  0  0  0  0  0  0  0  0  0  0  0  0  # atno 17370 bound_to 10713
  156.9733  130.5499  149.5292 LP  0  0  0  0  0  0  0  0  0  0  0  0  # atno 17371 bound_to 10713
  140.7103  133.9229  155.8080 LP  0  0  0  0  0  0  0  0  0  0  0  0  # atno 17394 bound_to 11000
  141.0305  134.0763  157.4020 LP  0  0  0  0  0  0  0  0  0  0  0  0  # atno 17395 bound_to 11000

$$$$
