AV-unprocessed.smi:2848|AV-procd|sdf|10956|dock4
  -GOLD-   2272015413D 1   1.00000     0.00000
 Structure written by MMmdl.
 26 27  0  0  0  0  0  0  0  0  1 V2000
  147.6832  141.9361  154.7609 Cl  0  0  0  0  0  0  0  0  0  0  0  0
  149.2073  141.2164  155.1472 C   0  0  0  0  0  0  0  0  0  0  0  0
  149.7598  140.2463  154.2859 C   0  0  0  0  0  0  0  0  0  0  0  0
  150.9423  139.6368  154.5123 N   0  0  0  0  0  0  0  0  0  0  0  0
  151.6226  139.9811  155.6255 C   0  0  0  0  0  0  0  0  0  0  0  0
  151.1620  140.9376  156.5522 C   0  0  0  0  0  0  0  0  0  0  0  0
  149.9223  141.5766  156.3129 C   0  0  0  0  0  0  0  0  0  0  0  0
  149.3876  142.5392  157.1827 N   0  0  0  0  0  0  0  0  0  0  0  0
  149.6724  142.4935  158.6092 C   0  0  0  0  0  0  0  0  0  0  0  0
  150.6177  143.5897  159.0608 C   0  0  0  0  0  0  0  0  0  0  0  0
  151.0920  144.5604  158.2531 C   0  0  0  0  0  0  0  0  0  0  0  0
  151.8801  145.5937  158.6928 O   0  0  0  0  0  0  0  0  0  0  0  0
  151.9174  145.7412  160.1080 C   0  0  0  0  0  0  0  0  0  0  0  0
  152.0286  144.3678  160.7899 C   0  0  0  0  0  0  0  0  0  0  0  0
  150.9607  143.5136  160.3906 O   0  0  0  0  0  0  0  0  0  0  0  0
  149.2370  139.9509  153.3880 H   0  0  0  0  0  0  0  0  0  0  0  0
  152.5646  139.4775  155.7841 H   0  0  0  0  0  0  0  0  0  0  0  0
  151.7609  141.1600  157.4224 H   0  0  0  0  0  0  0  0  0  0  0  0
  149.0645  143.4135  156.7929 H   0  0  0  0  0  0  0  0  0  0  0  0
  148.7425  142.5974  159.1688 H   0  0  0  0  0  0  0  0  0  0  0  0
  150.1025  141.5234  158.8611 H   0  0  0  0  0  0  0  0  0  0  0  0
  150.8531  144.6499  157.2036 H   0  0  0  0  0  0  0  0  0  0  0  0
  152.7636  146.3723  160.3800 H   0  0  0  0  0  0  0  0  0  0  0  0
  151.0141  146.2563  160.4380 H   0  0  0  0  0  0  0  0  0  0  0  0
  152.9768  143.8938  160.5331 H   0  0  0  0  0  0  0  0  0  0  0  0
  152.0102  144.4780  161.8741 H   0  0  0  0  0  0  0  0  0  0  0  0
  1  2  1  0  0  0  0
  2  7  1  0  0  0  0
  2  3  2  0  0  0  0
  3  4  1  0  0  0  0
  3 16  1  0  0  0  0
  4  5  2  0  0  0  0
  5  6  1  0  0  0  0
  5 17  1  0  0  0  0
  6  7  2  0  0  0  0
  6 18  1  0  0  0  0
  7  8  1  0  0  0  0
  8  9  1  0  0  0  0
  8 19  1  0  0  0  0
  9 10  1  0  0  0  0
  9 20  1  0  0  0  0
  9 21  1  0  0  0  0
 10 15  1  0  0  0  0
 10 11  2  0  0  0  0
 11 12  1  0  0  0  0
 11 22  1  0  0  0  0
 12 13  1  0  0  0  0
 13 14  1  0  0  0  0
 13 23  1  0  0  0  0
 13 24  1  0  0  0  0
 14 15  1  0  0  0  0
 14 25  1  0  0  0  0
 14 26  1  0  0  0  0
M  END
> <s_m_source_file>
AV-unprocessed.smi

> <i_m_source_file_index>
2848

> <i_lp_mmshare_version>
43012

> <i_f3d_flags>
0

> <s_epik_input>
Q2xjMVtjSF1uW2NIXVtjSF1jMVtOSF1bQ0gyXUMyPVtDSF1PW0NIMl1bQ0gyXU8y

> <s_epik_cmdline>
J2VwaWtfcHl0aG9uJywgJy1waCcsICc3LjAnLCAnLXRuJywgJzgnLCAnLW1hJywgJzIwMCcsICctbWV0YWxfYmluZGluZycsICctaW1hZScsICc8aW5maWxlLm1hZT4nLCAnLW9tYWUnLCAnPG91dGZpbGUubWFlPic=

> <r_lp_tautomer_probability>
0.999999

> <r_epik_Ionization_Penalty>
1.20444

> <r_epik_Ionization_Penalty_Charging>
0

> <r_epik_Ionization_Penalty_Neutral>
1.20444

> <r_epik_State_Penalty>
1.27033

> <r_epik_Charging_Adjusted_Penalty>
1.27033

> <i_epik_Tot_Q>
0

> <i_epik_Tot_abs_Q>
0

> <r_epik_Metal_State_Penalty>
0.00444713

> <b_epik_Metal_Only>
0

> <s_lp_Force_Field>
OPLS_2005

> <r_lp_Energy>
2.57385

> <b_lp_Chiralities_Consistent>
1

> <s_lp_Variant>
AV-unprocessed.smi:2848-2

> <Gold.Version>
5.8.1

> <Gold.Id.Protein>
6NUR|6NUR_protein|mol2

> <Gold.PLP.Fitness>
40.9192

> <Gold.PLP.PLP>
-31.6852

> <Gold.PLP.part.hbond>
-4.0000

> <Gold.PLP.part.metal>
0.0000

> <Gold.PLP.part.buried>
0.5016

> <Gold.PLP.part.nonpolar>
-28.4552

> <Gold.PLP.part.repulsive>
0.3125

> <Gold.PLP.ligand.clash>
0.0000

> <Gold.PLP.ligand.torsion>
0.2655

> <Gold.PLP.Chemscore.Hbond>
1.2550

> <Gold.PLP.Chemscore.CHOScore>
2.0000

> <Gold.PLP.Chemscore.Metal>
0.0000

> <Gold.Chemscore.Hbonds>
donor molecule, donor type, donor heavy atom, donor atom, acceptor molecule, acceptor atom, score
      L1  H     8    19       P1  8028  1.00
      P1  H  7989  7998       L1     4  0.24
      L1  C     3    16       P1  7957  1.00
      L1  C    11    22       P1  8028  1.00

> <Gold.PLP.Chemscore.Internal.Correction>
0.0000

> <Gold.Rescore>
     Score         DG    S(hbond)    S(metal)    S(lipo)     H(rot)  DE(clash)    DE(int)     intcor
     15.33     -16.05       1.00        0.00      87.97       1.19       0.48       0.25       ----

> <Gold.Chemscore.Fitness>
15.3260

> <Gold.Chemscore.DG>
-16.0511

> <Gold.Chemscore.ZeroCoef>
-5.4800

> <Gold.Chemscore.Hbond>
0.9983

> <Gold.Chemscore.Metal>
0.0000

> <Gold.Chemscore.Lipo>
87.9705

> <Gold.Chemscore.Internal_Hbond>
0.0000

> <Gold.Chemscore.DEClash>
0.4796

> <Gold.Chemscore.DEInternal>
0.2455

> <Gold.Chemscore.Rot>
1.1937

> <Gold.Chemscore.Internal.Correction>
   9.000000E+99

> <Gold.Chemscore.Hbonds>
donor molecule, donor type, donor heavy atom, donor atom, acceptor molecule, acceptor atom, score
      L1  H     8    19       P1  8028  0.88

> <Gold.Chemscore.Hbond.Weighted>
-3.3344

> <Gold.Chemscore.Metal.Weighted>
-0.0000

> <Gold.Chemscore.Lipo.Weighted>
-10.2925

> <Gold.Chemscore.Internal_Hbond.Weighted>
0.0000

> <Gold.Chemscore.DEClash.Weighted>
0.4796

> <Gold.Chemscore.DEInternal.Weighted>
0.2455

> <Gold.Chemscore.Rot.Weighted>
3.0558

> <Gold.Chemscore.Internal.Correction.Weighted>
   9.000000E+99

> <Gold.Protein.RotatedTorsions>
[ 6907 6896 6895 6894 ] final -126.74 input  -60.11 | X-H torsion
[ 7974 7965 7964 7962 ] final -155.38 input  175.53 | X-H torsion
[ 8008 7997 7996 7995 ] final   95.64 input   59.86 | X-H torsion
[ 10167 10162 10161 10158 ] final -127.53 input  -65.29 | X-H torsion
[ 10718 10713 10712 10709 ] final    7.07 input   66.30 | X-H torsion
[ 10763 10752 10751 10750 ] final   95.86 input  -60.55 | X-H torsion
[ 11005 11000 10999 10996 ] final -145.79 input  -57.11 | X-H torsion

> <Gold.Protein.ActiveResidues>
 VAL166  LYS551  ARG553  GLY616  TRP617  ASP618  TYR619  PRO620  LYS621  CYS622 
 ASP623  PHE694  ASN695  SER759  ASP760  ASP761  ALA762  ILE779  LEU786  VAL792 
 PHE793  MET794  SER795  GLU796  ALA797  LYS798  CYS799  TRP800  GLU811  SER814 

> <Gold.Protein.RotatedAtoms>
  150.9000  133.7130  159.2881 H   0  0  0  0  0  0  0  0  0  0  0  0  # atno 6907 bound_to 6896
  151.4652  135.1040  159.9745 H   0  0  0  0  0  0  0  0  0  0  0  0  # atno 6908 bound_to 6896
  152.4871  133.8354  159.7180 H   0  0  0  0  0  0  0  0  0  0  0  0  # atno 6909 bound_to 6896
  144.7643  140.4257  143.5953 H   0  0  0  0  0  0  0  0  0  0  0  0  # atno 7974 bound_to 7965
  156.0711  140.3283  155.7577 H   0  0  0  0  0  0  0  0  0  0  0  0  # atno 8008 bound_to 7997
  155.5304  140.0593  157.2907 H   0  0  0  0  0  0  0  0  0  0  0  0  # atno 8009 bound_to 7997
  154.4530  140.1928  156.0478 H   0  0  0  0  0  0  0  0  0  0  0  0  # atno 8010 bound_to 7997
  139.9599  143.5961  152.2448 H   0  0  0  0  0  0  0  0  0  0  0  0  # atno 10167 bound_to 10162
  156.9315  130.5827  149.5649 H   0  0  0  0  0  0  0  0  0  0  0  0  # atno 10718 bound_to 10713
  153.2582  135.4239  155.0867 H   0  0  0  0  0  0  0  0  0  0  0  0  # atno 10763 bound_to 10752
  154.8409  135.3442  154.6416 H   0  0  0  0  0  0  0  0  0  0  0  0  # atno 10764 bound_to 10752
  153.6836  135.7037  153.5167 H   0  0  0  0  0  0  0  0  0  0  0  0  # atno 10765 bound_to 10752
  140.7887  134.2994  157.5021 H   0  0  0  0  0  0  0  0  0  0  0  0  # atno 11005 bound_to 11000
  145.6520  139.1566  143.2857 LP  0  0  0  0  0  0  0  0  0  0  0  0  # atno 17320 bound_to 7965
  146.1736  140.6608  142.9222 LP  0  0  0  0  0  0  0  0  0  0  0  0  # atno 17321 bound_to 7965
  139.6562  144.7662  151.2051 LP  0  0  0  0  0  0  0  0  0  0  0  0  # atno 17342 bound_to 10162
  140.7556  143.6082  150.8631 LP  0  0  0  0  0  0  0  0  0  0  0  0  # atno 17343 bound_to 10162
  156.0445  130.5523  150.8849 LP  0  0  0  0  0  0  0  0  0  0  0  0  # atno 17370 bound_to 10713
  157.5844  131.0946  150.9220 LP  0  0  0  0  0  0  0  0  0  0  0  0  # atno 17371 bound_to 10713
  139.8734  134.9361  156.3652 LP  0  0  0  0  0  0  0  0  0  0  0  0  # atno 17394 bound_to 11000
  140.9411  133.7514  156.0148 LP  0  0  0  0  0  0  0  0  0  0  0  0  # atno 17395 bound_to 11000

$$$$
