AV-unprocessed.smi:3237|AV-procd|sdf|12372|dock8
  -GOLD-   2272018233D 1   1.00000     0.00000
 Structure written by MMmdl.
 36 38  0  0  0  0  0  0  0  0  3 V2000
  147.0623  139.1472  152.8355 C   0  0  0  0  0  0  0  0  0  0  0  0
  147.8316  139.0652  154.1091 C   0  0  0  0  0  0  0  0  0  0  0  0
  149.0478  139.5547  154.4946 C   0  0  0  0  0  0  0  0  0  0  0  0
  149.1660  139.1014  155.8357 C   0  0  0  0  0  0  0  0  0  0  0  0
  150.3200  139.4080  156.6041 N   0  0  0  0  0  0  0  0  0  0  0  0
  151.4926  139.9245  156.1935 C   0  0  0  0  0  0  0  0  0  0  0  0
  151.6759  140.1897  154.9997 O   0  0  0  0  0  0  0  0  0  0  0  0
  152.3721  140.0879  157.2206 N   0  5  0  0  0  0  0  0  0  0  0  0
  151.9959  140.2074  158.6346 C   0  0  1  0  0  0  0  0  0  0  0  0
  153.2549  140.3626  159.4956 C   0  0  0  0  0  0  0  0  0  0  0  0
  153.5179  141.8753  159.5747 C   0  0  0  0  0  0  0  0  0  0  0  0
  152.3345  142.5429  158.9880 N   0  3  2  0  0  0  0  0  0  0  0  0
  151.9313  143.7906  159.6706 C   0  0  0  0  0  0  0  0  0  0  0  0
  150.8262  144.5355  158.9612 C   0  0  0  0  0  0  0  0  0  0  0  0
  152.2517  145.0385  158.8837 C   0  0  0  0  0  0  0  0  0  0  0  0
  151.2664  141.5306  158.8877 C   0  0  0  0  0  0  0  0  0  0  0  0
  148.1130  138.4024  156.2335 N   0  0  0  0  0  0  0  0  0  0  0  0
  147.2530  138.3754  155.1293 O   0  0  0  0  0  0  0  0  0  0  0  0
  147.6623  139.6009  152.0465 H   0  0  0  0  0  0  0  0  0  0  0  0
  146.1631  139.7491  152.9659 H   0  0  0  0  0  0  0  0  0  0  0  0
  146.7609  138.1543  152.5014 H   0  0  0  0  0  0  0  0  0  0  0  0
  149.7414  140.1400  153.9092 H   0  0  0  0  0  0  0  0  0  0  0  0
  150.2444  139.2258  157.5938 H   0  0  0  0  0  0  0  0  0  0  0  0
  151.3993  139.3603  158.9754 H   0  0  0  0  0  0  0  0  0  0  0  0
  153.0518  139.9830  160.4977 H   0  0  0  0  0  0  0  0  0  0  0  0
  154.1121  139.8065  159.1127 H   0  0  0  0  0  0  0  0  0  0  0  0
  153.6753  142.1783  160.6113 H   0  0  0  0  0  0  0  0  0  0  0  0
  154.4065  142.1596  159.0091 H   0  0  0  0  0  0  0  0  0  0  0  0
  151.9891  143.7904  160.7577 H   0  0  0  0  0  0  0  0  0  0  0  0
  150.3997  144.0908  158.0637 H   0  0  0  0  0  0  0  0  0  0  0  0
  150.1297  145.1037  159.5746 H   0  0  0  0  0  0  0  0  0  0  0  0
  152.4938  145.9382  159.4460 H   0  0  0  0  0  0  0  0  0  0  0  0
  152.7723  144.9291  157.9340 H   0  0  0  0  0  0  0  0  0  0  0  0
  150.5385  141.7842  158.1157 H   0  0  0  0  0  0  0  0  0  0  0  0
  150.7327  141.4734  159.8379 H   0  0  0  0  0  0  0  0  0  0  0  0
  152.5837  142.7704  158.0359 H   0  0  0  0  0  0  0  0  0  0  0  0
  1  2  1  0  0  0  0
  1 19  1  0  0  0  0
  1 20  1  0  0  0  0
  1 21  1  0  0  0  0
  2 18  1  0  0  0  0
  2  3  2  0  0  0  0
  3  4  1  0  0  0  0
  3 22  1  0  0  0  0
  4  5  1  0  0  0  0
  4 17  2  0  0  0  0
  5  6  1  0  0  0  0
  5 23  1  0  0  0  0
  6  7  2  0  0  0  0
  6  8  1  0  0  0  0
  8  9  1  0  0  0  0
  9 16  1  0  0  0  0
  9 10  1  0  0  0  0
  9 24  1  0  0  0  0
 10 11  1  0  0  0  0
 10 25  1  0  0  0  0
 10 26  1  0  0  0  0
 11 12  1  0  0  0  0
 11 27  1  0  0  0  0
 11 28  1  0  0  0  0
 12 13  1  0  0  0  0
 12 16  1  0  0  0  0
 12 36  1  0  0  0  0
 13 15  1  0  0  0  0
 13 14  1  0  0  0  0
 13 29  1  0  0  0  0
 14 15  1  0  0  0  0
 14 30  1  0  0  0  0
 14 31  1  0  0  0  0
 15 32  1  0  0  0  0
 15 33  1  0  0  0  0
 16 34  1  0  0  0  0
 16 35  1  0  0  0  0
 17 18  1  0  0  0  0
M  CHG  1   8  -1
M  CHG  1  12   1
M  END
> <s_m_source_file>
AV-unprocessed.smi

> <i_m_source_file_index>
3237

> <i_lp_mmshare_version>
43012

> <i_f3d_flags>
0

> <s_epik_input>
W0NIM11jMVtjSF1jKG5vMSlbTkhdQyg9TylbTkhdW0NAQEhdMltDSDJdW0NIMl1OKFtDSDJdMilbQ0hdM1tDSDJdW0NIMl0z

> <s_epik_cmdline>
J2VwaWtfcHl0aG9uJywgJy1waCcsICc3LjAnLCAnLXRuJywgJzgnLCAnLW1hJywgJzIwMCcsICctbWV0YWxfYmluZGluZycsICctaW1hZScsICc8aW5maWxlLm1hZT4nLCAnLW9tYWUnLCAnPG91dGZpbGUubWFlPic=

> <r_epik_Ionization_Penalty>
6.76456

> <r_epik_Ionization_Penalty_Charging>
6.76456

> <r_epik_Ionization_Penalty_Neutral>
5.76722e-06

> <r_epik_State_Penalty>
6.78919

> <r_epik_Charging_Adjusted_Penalty>
13.5538

> <i_epik_Tot_Q>
0

> <i_epik_Tot_abs_Q>
2

> <r_epik_Metal_State_Penalty>
2.728

> <b_epik_Metal_Only>
1

> <s_lp_Force_Field>
OPLS_2005

> <r_lp_Energy>
30.7434

> <b_lp_Chiralities_Consistent>
1

> <s_lp_Variant>
AV-unprocessed.smi:3237-10

> <Gold.Version>
5.8.1

> <Gold.Id.Protein>
6NUR|6NUR_protein|mol2

> <Gold.PLP.Fitness>
40.2780

> <Gold.PLP.PLP>
-31.9288

> <Gold.PLP.part.hbond>
-1.9031

> <Gold.PLP.part.metal>
0.0000

> <Gold.PLP.part.buried>
-3.8846

> <Gold.PLP.part.nonpolar>
-25.8054

> <Gold.PLP.part.repulsive>
0.1808

> <Gold.PLP.ligand.clash>
0.0000

> <Gold.PLP.ligand.torsion>
0.8766

> <Gold.PLP.Chemscore.Hbond>
2.9280

> <Gold.PLP.Chemscore.CHOScore>
0.0000

> <Gold.PLP.Chemscore.Metal>
0.0000

> <Gold.Chemscore.Hbonds>
donor molecule, donor type, donor heavy atom, donor atom, acceptor molecule, acceptor atom, score
      P1  H  7989  7998       L1     7  0.96
      P1  H  7997  8008       L1     8  1.72

> <Gold.PLP.Chemscore.Internal.Correction>
1.3184

> <Gold.Rescore>
     Score         DG    S(hbond)    S(metal)    S(lipo)     H(rot)  DE(clash)    DE(int)     intcor
     15.54     -17.87       1.85        0.00      80.39       1.25       0.02       2.30       ----

> <Gold.Chemscore.Fitness>
15.5445

> <Gold.Chemscore.DG>
-17.8723

> <Gold.Chemscore.ZeroCoef>
-5.4800

> <Gold.Chemscore.Hbond>
1.8494

> <Gold.Chemscore.Metal>
0.0000

> <Gold.Chemscore.Lipo>
80.3950

> <Gold.Chemscore.Internal_Hbond>
0.0000

> <Gold.Chemscore.DEClash>
0.0234

> <Gold.Chemscore.DEInternal>
2.3043

> <Gold.Chemscore.Rot>
1.2464

> <Gold.Chemscore.Internal.Correction>
   9.000000E+99

> <Gold.Chemscore.Hbonds>
donor molecule, donor type, donor heavy atom, donor atom, acceptor molecule, acceptor atom, score
      P1  H  7989  7998       L1     7  0.92
      P1  H  7997  8008       L1     8  0.67

> <Gold.Chemscore.Hbond.Weighted>
-6.1769

> <Gold.Chemscore.Metal.Weighted>
-0.0000

> <Gold.Chemscore.Lipo.Weighted>
-9.4062

> <Gold.Chemscore.Internal_Hbond.Weighted>
0.0000

> <Gold.Chemscore.DEClash.Weighted>
0.0234

> <Gold.Chemscore.DEInternal.Weighted>
2.3043

> <Gold.Chemscore.Rot.Weighted>
3.1909

> <Gold.Chemscore.Internal.Correction.Weighted>
   9.000000E+99

> <Gold.Protein.RotatedTorsions>
[ 6907 6896 6895 6894 ] final   95.34 input  -60.11 | X-H torsion
[ 7974 7965 7964 7962 ] final  -73.97 input  175.53 | X-H torsion
[ 8008 7997 7996 7995 ] final  -54.13 input   59.86 | X-H torsion
[ 10167 10162 10161 10158 ] final  118.37 input  -65.29 | X-H torsion
[ 10718 10713 10712 10709 ] final  130.15 input   66.30 | X-H torsion
[ 10763 10752 10751 10750 ] final  -26.50 input  -60.55 | X-H torsion
[ 11005 11000 10999 10996 ] final -159.42 input  -57.11 | X-H torsion

> <Gold.Protein.ActiveResidues>
 VAL166  LYS551  ARG553  GLY616  TRP617  ASP618  TYR619  PRO620  LYS621  CYS622 
 ASP623  PHE694  ASN695  SER759  ASP760  ASP761  ALA762  ILE779  LEU786  VAL792 
 PHE793  MET794  SER795  GLU796  ALA797  LYS798  CYS799  TRP800  GLU811  SER814 

> <Gold.Protein.RotatedAtoms>
  152.5444  134.1055  159.8336 H   0  0  0  0  0  0  0  0  0  0  0  0  # atno 6907 bound_to 6896
  151.1128  133.5153  159.2612 H   0  0  0  0  0  0  0  0  0  0  0  0  # atno 6908 bound_to 6896
  151.1865  135.0393  159.8869 H   0  0  0  0  0  0  0  0  0  0  0  0  # atno 6909 bound_to 6896
  145.6452  140.9299  143.1014 H   0  0  0  0  0  0  0  0  0  0  0  0  # atno 7974 bound_to 7965
  154.4153  140.1183  156.5266 H   0  0  0  0  0  0  0  0  0  0  0  0  # atno 8008 bound_to 7997
  155.6648  140.3496  155.4777 H   0  0  0  0  0  0  0  0  0  0  0  0  # atno 8009 bound_to 7997
  155.9683  140.1136  157.0825 H   0  0  0  0  0  0  0  0  0  0  0  0  # atno 8010 bound_to 7997
  139.6116  144.7083  151.2831 H   0  0  0  0  0  0  0  0  0  0  0  0  # atno 10167 bound_to 10162
  157.5089  131.1096  150.9321 H   0  0  0  0  0  0  0  0  0  0  0  0  # atno 10718 bound_to 10713
  153.7169  135.6947  153.5023 H   0  0  0  0  0  0  0  0  0  0  0  0  # atno 10763 bound_to 10752
  153.2232  135.4363  155.0511 H   0  0  0  0  0  0  0  0  0  0  0  0  # atno 10764 bound_to 10752
  154.8297  135.3465  154.6704 H   0  0  0  0  0  0  0  0  0  0  0  0  # atno 10765 bound_to 10752
  140.6428  134.4534  157.5233 H   0  0  0  0  0  0  0  0  0  0  0  0  # atno 11005 bound_to 11000
  144.7142  139.8256  143.7404 LP  0  0  0  0  0  0  0  0  0  0  0  0  # atno 17320 bound_to 7965
  146.1248  139.4272  143.0205 LP  0  0  0  0  0  0  0  0  0  0  0  0  # atno 17321 bound_to 7965
  140.7323  143.6827  150.7987 LP  0  0  0  0  0  0  0  0  0  0  0  0  # atno 17342 bound_to 10162
  140.0423  143.5333  152.2712 LP  0  0  0  0  0  0  0  0  0  0  0  0  # atno 17343 bound_to 10162
  156.9968  130.5584  149.5308 LP  0  0  0  0  0  0  0  0  0  0  0  0  # atno 17370 bound_to 10713
  156.0276  130.5369  150.8448 LP  0  0  0  0  0  0  0  0  0  0  0  0  # atno 17371 bound_to 10713
  139.9074  134.8419  156.1654 LP  0  0  0  0  0  0  0  0  0  0  0  0  # atno 17394 bound_to 11000
  141.0594  133.6849  156.1924 LP  0  0  0  0  0  0  0  0  0  0  0  0  # atno 17395 bound_to 11000

$$$$
