AV-unprocessed.smi:686|AV-procd|sdf|3344|dock2
  -GOLD-   22720 0313D 1   1.00000     0.00000
 Structure written by MMmdl.
 41 42  0  0  0  0  0  0  0  0  2 V2000
  151.3010  137.3476  154.3201 C   0  0  0  0  0  0  0  0  0  0  0  0
  150.2440  138.0125  155.2171 C   0  0  1  0  0  0  0  0  0  0  0  0
  149.2021  138.7770  154.3974 C   0  0  0  0  0  0  0  0  0  0  0  0
  148.1689  137.7842  154.0329 N   0  3  2  0  0  0  0  0  0  0  0  0
  146.8431  138.3453  153.6472 C   0  0  0  0  0  0  0  0  0  0  0  0
  146.9447  139.1657  152.3472 C   0  0  0  0  0  0  0  0  0  0  0  0
  146.2480  139.2238  154.7643 C   0  0  0  0  0  0  0  0  0  0  0  0
  148.1354  136.7801  155.1237 C   0  0  0  0  0  0  0  0  0  0  0  0
  149.3992  136.9844  155.9813 C   0  0  2  0  0  0  0  0  0  0  0  0
  149.0528  137.5128  157.3049 N   0  0  0  0  0  0  0  0  0  0  0  0
  149.1144  136.4395  158.6549 S   0  0  0  0  0  0  0  0  0  0  0  0
  149.5409  135.1208  158.1618 O   0  0  0  0  0  0  0  0  0  0  0  0
  149.8832  137.1103  159.7140 O   0  0  0  0  0  0  0  0  0  0  0  0
  147.3478  136.3334  159.1652 C   0  0  0  0  0  0  0  0  0  0  0  0
  147.2688  136.0750  160.6425 C   0  0  0  0  0  0  0  0  0  0  0  0
  146.7758  134.9216  161.3131 C   0  0  0  0  0  0  0  0  0  0  0  0
  146.9397  135.2267  162.6335 C   0  0  0  0  0  0  0  0  0  0  0  0
  147.4895  136.4596  162.7716 O   0  0  0  0  0  0  0  0  0  0  0  0
  147.6971  136.9929  161.4945 N   0  0  0  0  0  0  0  0  0  0  0  0
  150.8483  136.6550  153.6096 H   0  0  0  0  0  0  0  0  0  0  0  0
  152.0217  136.7872  154.9165 H   0  0  0  0  0  0  0  0  0  0  0  0
  151.8569  138.0929  153.7506 H   0  0  0  0  0  0  0  0  0  0  0  0
  150.7638  138.6906  155.8961 H   0  0  0  0  0  0  0  0  0  0  0  0
  148.7520  139.5527  155.0195 H   0  0  0  0  0  0  0  0  0  0  0  0
  149.6332  139.2606  153.5201 H   0  0  0  0  0  0  0  0  0  0  0  0
  146.1597  137.5124  153.4741 H   0  0  0  0  0  0  0  0  0  0  0  0
  145.9776  139.5913  152.0780 H   0  0  0  0  0  0  0  0  0  0  0  0
  147.2684  138.5595  151.5014 H   0  0  0  0  0  0  0  0  0  0  0  0
  147.6490  139.9913  152.4543 H   0  0  0  0  0  0  0  0  0  0  0  0
  145.3035  139.6681  154.4488 H   0  0  0  0  0  0  0  0  0  0  0  0
  146.9224  140.0385  155.0309 H   0  0  0  0  0  0  0  0  0  0  0  0
  146.0382  138.6515  155.6681 H   0  0  0  0  0  0  0  0  0  0  0  0
  147.2325  136.8893  155.7267 H   0  0  0  0  0  0  0  0  0  0  0  0
  148.1143  135.7807  154.6881 H   0  0  0  0  0  0  0  0  0  0  0  0
  149.9452  136.0491  156.1155 H   0  0  0  0  0  0  0  0  0  0  0  0
  149.5711  138.3692  157.5017 H   0  0  0  0  0  0  0  0  0  0  0  0
  146.8537  137.2689  158.9041 H   0  0  0  0  0  0  0  0  0  0  0  0
  146.8724  135.5343  158.5956 H   0  0  0  0  0  0  0  0  0  0  0  0
  146.3636  134.0165  160.8921 H   0  0  0  0  0  0  0  0  0  0  0  0
  146.7251  134.6972  163.5499 H   0  0  0  0  0  0  0  0  0  0  0  0
  148.5311  137.2997  153.2241 H   0  0  0  0  0  0  0  0  0  0  0  0
  1  2  1  0  0  0  0
  1 20  1  0  0  0  0
  1 21  1  0  0  0  0
  1 22  1  0  0  0  0
  2  9  1  0  0  0  0
  2  3  1  0  0  0  0
  2 23  1  0  0  0  0
  3  4  1  0  0  0  0
  3 24  1  0  0  0  0
  3 25  1  0  0  0  0
  4  5  1  0  0  0  0
  4  8  1  0  0  0  0
  4 41  1  0  0  0  0
  5  6  1  0  0  0  0
  5  7  1  0  0  0  0
  5 26  1  0  0  0  0
  6 27  1  0  0  0  0
  6 28  1  0  0  0  0
  6 29  1  0  0  0  0
  7 30  1  0  0  0  0
  7 31  1  0  0  0  0
  7 32  1  0  0  0  0
  8  9  1  0  0  0  0
  8 33  1  0  0  0  0
  8 34  1  0  0  0  0
  9 10  1  0  0  0  0
  9 35  1  0  0  0  0
 10 11  1  0  0  0  0
 10 36  1  0  0  0  0
 11 12  2  0  0  0  0
 11 13  2  0  0  0  0
 11 14  1  0  0  0  0
 14 15  1  0  0  0  0
 14 37  1  0  0  0  0
 14 38  1  0  0  0  0
 15 19  2  0  0  0  0
 15 16  1  0  0  0  0
 16 17  2  0  0  0  0
 16 39  1  0  0  0  0
 17 18  1  0  0  0  0
 17 40  1  0  0  0  0
 18 19  1  0  0  0  0
M  CHG  1   4   1
M  END
> <s_m_source_file>
AV-unprocessed.smi

> <i_m_source_file_index>
686

> <i_lp_mmshare_version>
43012

> <i_f3d_flags>
0

> <s_epik_input>
W0NIM11bQ0BASF0xW0NIMl1OKFtDSF0oW0NIM10pW0NIM10pW0NIMl1bQ0BIXTFbTkhdUyg9TykoPU8pW0NIMl1jMltjSF1bY0hdb24y

> <s_epik_cmdline>
J2VwaWtfcHl0aG9uJywgJy1waCcsICc3LjAnLCAnLXRuJywgJzgnLCAnLW1hJywgJzIwMCcsICctbWV0YWxfYmluZGluZycsICctaW1hZScsICc8aW5maWxlLm1hZT4nLCAnLW9tYWUnLCAnPG91dGZpbGUubWFlPic=

> <r_epik_Ionization_Penalty>
0.00200818

> <r_epik_Ionization_Penalty_Charging>
0.000701289

> <r_epik_Ionization_Penalty_Neutral>
0.00130689

> <r_epik_State_Penalty>
0.00131314

> <r_epik_Charging_Adjusted_Penalty>
0.00201443

> <i_epik_Tot_Q>
1

> <i_epik_Tot_abs_Q>
1

> <r_epik_Metal_State_Penalty>
0.310831

> <b_epik_Metal_Only>
0

> <s_lp_Force_Field>
OPLS_2005

> <r_lp_Energy>
21.6188

> <b_lp_Chiralities_Consistent>
1

> <s_lp_Variant>
AV-unprocessed.smi:686-8

> <Gold.Version>
5.8.1

> <Gold.Id.Protein>
6NUR|6NUR_protein|mol2

> <Gold.PLP.Fitness>
41.9635

> <Gold.PLP.PLP>
-30.6793

> <Gold.PLP.part.hbond>
-5.6353

> <Gold.PLP.part.metal>
0.0000

> <Gold.PLP.part.buried>
-4.8789

> <Gold.PLP.part.nonpolar>
-21.1525

> <Gold.PLP.part.repulsive>
0.0059

> <Gold.PLP.ligand.clash>
0.0000

> <Gold.PLP.ligand.torsion>
1.2881

> <Gold.PLP.Chemscore.Hbond>
4.5540

> <Gold.PLP.Chemscore.CHOScore>
0.0000

> <Gold.PLP.Chemscore.Metal>
0.0000

> <Gold.Chemscore.Hbonds>
donor molecule, donor type, donor heavy atom, donor atom, acceptor molecule, acceptor atom, score
      L1  H     4    41       P1  7948  2.00
      P1  H  6896  6909       L1    12  1.00
      P1  H  6931  6943       L1    19  0.95
      P1  H  6934  6947       L1    19  0.54

> <Gold.PLP.Chemscore.Internal.Correction>
0.1983

> <Gold.Rescore>
     Score         DG    S(hbond)    S(metal)    S(lipo)     H(rot)  DE(clash)    DE(int)     intcor
     15.19     -17.77       3.04        0.00      60.04       1.91       0.00       2.58       ----

> <Gold.Chemscore.Fitness>
15.1942

> <Gold.Chemscore.DG>
-17.7693

> <Gold.Chemscore.ZeroCoef>
-5.4800

> <Gold.Chemscore.Hbond>
3.0412

> <Gold.Chemscore.Metal>
0.0000

> <Gold.Chemscore.Lipo>
60.0446

> <Gold.Chemscore.Internal_Hbond>
0.0000

> <Gold.Chemscore.DEClash>
0.0000

> <Gold.Chemscore.DEInternal>
2.5751

> <Gold.Chemscore.Rot>
1.9115

> <Gold.Chemscore.Internal.Correction>
   9.000000E+99

> <Gold.Chemscore.Hbonds>
donor molecule, donor type, donor heavy atom, donor atom, acceptor molecule, acceptor atom, score
      L1  H     4    41       P1  7948  1.00
      P1  H  6896  6909       L1    12  0.39
      P1  H  6931  6943       L1    19  0.21
      P1  H  6934  6947       L1    19  0.49

> <Gold.Chemscore.Hbond.Weighted>
-10.1575

> <Gold.Chemscore.Metal.Weighted>
-0.0000

> <Gold.Chemscore.Lipo.Weighted>
-7.0252

> <Gold.Chemscore.Internal_Hbond.Weighted>
0.0000

> <Gold.Chemscore.DEClash.Weighted>
0.0000

> <Gold.Chemscore.DEInternal.Weighted>
2.5751

> <Gold.Chemscore.Rot.Weighted>
4.8935

> <Gold.Chemscore.Internal.Correction.Weighted>
   9.000000E+99

> <Gold.Protein.RotatedTorsions>
[ 6907 6896 6895 6894 ] final   45.93 input  -60.11 | X-H torsion
[ 7974 7965 7964 7962 ] final  -56.43 input  175.53 | X-H torsion
[ 8008 7997 7996 7995 ] final  162.28 input   59.86 | X-H torsion
[ 10167 10162 10161 10158 ] final   65.68 input  -65.29 | X-H torsion
[ 10718 10713 10712 10709 ] final   12.94 input   66.30 | X-H torsion
[ 10763 10752 10751 10750 ] final  146.40 input  -60.55 | X-H torsion
[ 11005 11000 10999 10996 ] final  -95.03 input  -57.11 | X-H torsion

> <Gold.Protein.ActiveResidues>
 VAL166  LYS551  ARG553  GLY616  TRP617  ASP618  TYR619  PRO620  LYS621  CYS622 
 ASP623  PHE694  ASN695  SER759  ASP760  ASP761  ALA762  ILE779  LEU786  VAL792 
 PHE793  MET794  SER795  GLU796  ALA797  LYS798  CYS799  TRP800  GLU811  SER814 

> <Gold.Protein.RotatedAtoms>
  152.2504  134.8138  160.0446 H   0  0  0  0  0  0  0  0  0  0  0  0  # atno 6907 bound_to 6896
  151.8820  133.3492  159.3778 H   0  0  0  0  0  0  0  0  0  0  0  0  # atno 6908 bound_to 6896
  150.7082  134.4935  159.5571 H   0  0  0  0  0  0  0  0  0  0  0  0  # atno 6909 bound_to 6896
  145.8628  140.8273  142.9928 H   0  0  0  0  0  0  0  0  0  0  0  0  # atno 7974 bound_to 7965
  156.2042  140.1754  156.7834 H   0  0  0  0  0  0  0  0  0  0  0  0  # atno 8008 bound_to 7997
  154.5633  140.0695  156.8883 H   0  0  0  0  0  0  0  0  0  0  0  0  # atno 8009 bound_to 7997
  155.2808  140.3349  155.4261 H   0  0  0  0  0  0  0  0  0  0  0  0  # atno 8010 bound_to 7997
  140.1086  144.4838  150.6992 H   0  0  0  0  0  0  0  0  0  0  0  0  # atno 10167 bound_to 10162
  157.0175  130.6141  149.5716 H   0  0  0  0  0  0  0  0  0  0  0  0  # atno 10718 bound_to 10713
  154.0213  135.2906  155.3380 H   0  0  0  0  0  0  0  0  0  0  0  0  # atno 10763 bound_to 10752
  154.7044  135.5175  153.8577 H   0  0  0  0  0  0  0  0  0  0  0  0  # atno 10764 bound_to 10752
  153.0680  135.6638  154.0434 H   0  0  0  0  0  0  0  0  0  0  0  0  # atno 10765 bound_to 10752
  141.1453  133.7998  157.0380 H   0  0  0  0  0  0  0  0  0  0  0  0  # atno 11005 bound_to 11000
  144.6726  140.1121  143.7455 LP  0  0  0  0  0  0  0  0  0  0  0  0  # atno 17320 bound_to 7965
  145.9228  139.2556  143.1371 LP  0  0  0  0  0  0  0  0  0  0  0  0  # atno 17321 bound_to 7965
  140.6938  143.2391  151.5058 LP  0  0  0  0  0  0  0  0  0  0  0  0  # atno 17342 bound_to 10162
  139.5631  144.2107  152.1723 LP  0  0  0  0  0  0  0  0  0  0  0  0  # atno 17343 bound_to 10162
  156.0114  130.5206  150.8000 LP  0  0  0  0  0  0  0  0  0  0  0  0  # atno 17370 bound_to 10713
  157.5274  131.0935  150.9999 LP  0  0  0  0  0  0  0  0  0  0  0  0  # atno 17371 bound_to 10713
  140.0711  134.9702  157.1469 LP  0  0  0  0  0  0  0  0  0  0  0  0  # atno 17394 bound_to 11000
  140.3709  134.2391  155.7178 LP  0  0  0  0  0  0  0  0  0  0  0  0  # atno 17395 bound_to 11000

$$$$
