AV-unprocessed.smi:3261|AV-procd|sdf|12482|dock7
  -GOLD-   2272018383D 1   1.00000     0.00000
 Structure written by MMmdl.
 30 31  0  0  0  0  0  0  0  0  3 V2000
  147.2246  133.1947  153.7256 O   0  0  0  0  0  0  0  0  0  0  0  0
  147.6870  132.2601  153.0732 C   0  0  0  0  0  0  0  0  0  0  0  0
  147.1173  131.9466  151.8830 N   0  0  0  0  0  0  0  0  0  0  0  0
  145.9739  132.5127  151.2585 C   0  0  0  0  0  0  0  0  0  0  0  0
  145.4191  131.8236  150.1579 C   0  0  0  0  0  0  0  0  0  0  0  0
  144.2708  132.3390  149.5232 C   0  0  0  0  0  0  0  0  0  0  0  0
  143.7039  133.4770  149.9786 N   0  3  0  0  0  0  0  0  0  0  0  0
  144.1874  134.1596  151.0389 C   0  0  0  0  0  0  0  0  0  0  0  0
  145.3331  133.6923  151.7141 C   0  0  0  0  0  0  0  0  0  0  0  0
  148.7727  131.5548  153.5150 N   0  5  0  0  0  0  0  0  0  0  0  0
  149.9743  132.0410  154.2115 C   0  0  2  0  0  0  0  0  0  0  0  0
  150.7551  130.8792  154.8605 C   0  0  0  0  0  0  0  0  0  0  0  0
  151.7680  131.4633  155.8555 C   0  0  0  0  0  0  0  0  0  0  0  0
  150.9965  132.9921  156.5145 S   0  0  0  0  0  0  0  0  0  0  0  0
  150.4765  132.7372  157.8668 O   0  0  0  0  0  0  0  0  0  0  0  0
  151.8939  134.1291  156.2551 O   0  0  0  0  0  0  0  0  0  0  0  0
  149.5962  133.0245  155.3277 C   0  0  0  0  0  0  0  0  0  0  0  0
  147.6116  131.2541  151.3396 H   0  0  0  0  0  0  0  0  0  0  0  0
  145.8728  130.9116  149.7973 H   0  0  0  0  0  0  0  0  0  0  0  0
  143.7913  131.8765  148.6728 H   0  0  0  0  0  0  0  0  0  0  0  0
  143.6434  135.0498  151.3186 H   0  0  0  0  0  0  0  0  0  0  0  0
  145.6941  134.2364  152.5738 H   0  0  0  0  0  0  0  0  0  0  0  0
  150.6544  132.5597  153.5338 H   0  0  0  0  0  0  0  0  0  0  0  0
  150.0620  130.2370  155.4066 H   0  0  0  0  0  0  0  0  0  0  0  0
  151.2468  130.2539  154.1149 H   0  0  0  0  0  0  0  0  0  0  0  0
  151.9996  130.7786  156.6710 H   0  0  0  0  0  0  0  0  0  0  0  0
  152.6999  131.7385  155.3591 H   0  0  0  0  0  0  0  0  0  0  0  0
  149.4316  134.0388  154.9643 H   0  0  0  0  0  0  0  0  0  0  0  0
  148.7025  132.6961  155.8600 H   0  0  0  0  0  0  0  0  0  0  0  0
  142.8726  133.8326  149.5058 H   0  0  0  0  0  0  0  0  0  0  0  0
  1  2  2  0  0  0  0
  2  3  1  0  0  0  0
  2 10  1  0  0  0  0
  3  4  1  0  0  0  0
  3 18  1  0  0  0  0
  4  9  1  0  0  0  0
  4  5  2  0  0  0  0
  5  6  1  0  0  0  0
  5 19  1  0  0  0  0
  6  7  2  0  0  0  0
  6 20  1  0  0  0  0
  7  8  1  0  0  0  0
  7 30  1  0  0  0  0
  8  9  2  0  0  0  0
  8 21  1  0  0  0  0
  9 22  1  0  0  0  0
 10 11  1  0  0  0  0
 11 17  1  0  0  0  0
 11 12  1  0  0  0  0
 11 23  1  0  0  0  0
 12 13  1  0  0  0  0
 12 24  1  0  0  0  0
 12 25  1  0  0  0  0
 13 14  1  0  0  0  0
 13 26  1  0  0  0  0
 13 27  1  0  0  0  0
 14 15  2  0  0  0  0
 14 16  2  0  0  0  0
 14 17  1  0  0  0  0
 17 28  1  0  0  0  0
 17 29  1  0  0  0  0
M  CHG  1   7   1
M  CHG  1  10  -1
M  END
> <s_m_source_file>
AV-unprocessed.smi

> <i_m_source_file_index>
3261

> <i_lp_mmshare_version>
43012

> <i_f3d_flags>
0

> <s_epik_input>
Tz1TMSg9TylbQ0gyXVtDSDJdW0NASF0oW0NIMl0xKVtOSF1DKD1PKVtOSF1jMltjSF1bY0hdbltjSF1bY0hdMg==

> <s_epik_cmdline>
J2VwaWtfcHl0aG9uJywgJy1waCcsICc3LjAnLCAnLXRuJywgJzgnLCAnLW1hJywgJzIwMCcsICctbWV0YWxfYmluZGluZycsICctaW1hZScsICc8aW5maWxlLm1hZT4nLCAnLW9tYWUnLCAnPG91dGZpbGUubWFlPic=

> <r_epik_Ionization_Penalty>
8.1176

> <r_epik_Ionization_Penalty_Charging>
8.1176

> <r_epik_Ionization_Penalty_Neutral>
3.03687e-06

> <r_epik_State_Penalty>
7.79629

> <r_epik_Charging_Adjusted_Penalty>
15.9139

> <i_epik_Tot_Q>
0

> <i_epik_Tot_abs_Q>
2

> <r_epik_Metal_State_Penalty>
3.7997

> <b_epik_Metal_Only>
1

> <s_lp_Force_Field>
OPLS_2005

> <r_lp_Energy>
18.9878

> <b_lp_Chiralities_Consistent>
1

> <s_lp_Variant>
AV-unprocessed.smi:3261-5

> <Gold.Version>
5.8.1

> <Gold.Id.Protein>
6NUR|6NUR_protein|mol2

> <Gold.PLP.Fitness>
40.9162

> <Gold.PLP.PLP>
-30.0041

> <Gold.PLP.part.hbond>
-3.4544

> <Gold.PLP.part.metal>
0.0000

> <Gold.PLP.part.buried>
-6.0463

> <Gold.PLP.part.nonpolar>
-20.9305

> <Gold.PLP.part.repulsive>
0.2180

> <Gold.PLP.ligand.clash>
0.0000

> <Gold.PLP.ligand.torsion>
0.5206

> <Gold.PLP.Chemscore.Hbond>
3.9840

> <Gold.PLP.Chemscore.CHOScore>
0.0000

> <Gold.PLP.Chemscore.Metal>
0.0000

> <Gold.Chemscore.Hbonds>
donor molecule, donor type, donor heavy atom, donor atom, acceptor molecule, acceptor atom, score
      L1  H     3    18       P1 10747  0.98
      L1  H     7    30       P1 10186  2.00
      P1  H  6896  6909       L1    15  1.00
      P1  H 10752 10763       L1    16  0.39

> <Gold.PLP.Chemscore.Internal.Correction>
0.0013

> <Gold.Rescore>
     Score         DG    S(hbond)    S(metal)    S(lipo)     H(rot)  DE(clash)    DE(int)     intcor
     18.75     -22.36       3.66        0.00      61.49       1.00       0.27       3.33       ----

> <Gold.Chemscore.Fitness>
18.7519

> <Gold.Chemscore.DG>
-22.3552

> <Gold.Chemscore.ZeroCoef>
-5.4800

> <Gold.Chemscore.Hbond>
3.6649

> <Gold.Chemscore.Metal>
0.0000

> <Gold.Chemscore.Lipo>
61.4899

> <Gold.Chemscore.Internal_Hbond>
0.0000

> <Gold.Chemscore.DEClash>
0.2701

> <Gold.Chemscore.DEInternal>
3.3333

> <Gold.Chemscore.Rot>
1.0000

> <Gold.Chemscore.Internal.Correction>
   9.000000E+99

> <Gold.Chemscore.Hbonds>
donor molecule, donor type, donor heavy atom, donor atom, acceptor molecule, acceptor atom, score
      L1  H     3    18       P1 10747  0.93
      L1  H     7    30       P1 10186  0.94
      P1  H  6896  6909       L1    15  0.99
      P1  H 10752 10763       L1    16  0.39

> <Gold.Chemscore.Hbond.Weighted>
-12.2409

> <Gold.Chemscore.Metal.Weighted>
-0.0000

> <Gold.Chemscore.Lipo.Weighted>
-7.1943

> <Gold.Chemscore.Internal_Hbond.Weighted>
0.0000

> <Gold.Chemscore.DEClash.Weighted>
0.2701

> <Gold.Chemscore.DEInternal.Weighted>
3.3333

> <Gold.Chemscore.Rot.Weighted>
2.5600

> <Gold.Chemscore.Internal.Correction.Weighted>
   9.000000E+99

> <Gold.Protein.RotatedTorsions>
[ 6907 6896 6895 6894 ] final  -23.39 input  -60.11 | X-H torsion
[ 7974 7965 7964 7962 ] final  138.52 input  175.53 | X-H torsion
[ 8008 7997 7996 7995 ] final -104.91 input   59.86 | X-H torsion
[ 10167 10162 10161 10158 ] final   92.55 input  -65.29 | X-H torsion
[ 10718 10713 10712 10709 ] final    3.64 input   66.30 | X-H torsion
[ 10763 10752 10751 10750 ] final  105.28 input  -60.55 | X-H torsion
[ 11005 11000 10999 10996 ] final  152.26 input  -57.11 | X-H torsion

> <Gold.Protein.ActiveResidues>
 VAL166  LYS551  ARG553  GLY616  TRP617  ASP618  TYR619  PRO620  LYS621  CYS622 
 ASP623  PHE694  ASN695  SER759  ASP760  ASP761  ALA762  ILE779  LEU786  VAL792 
 PHE793  MET794  SER795  GLU796  ALA797  LYS798  CYS799  TRP800  GLU811  SER814 

> <Gold.Protein.RotatedAtoms>
  151.2047  135.0457  159.8886 H   0  0  0  0  0  0  0  0  0  0  0  0  # atno 6907 bound_to 6896
  152.5430  134.0811  159.8246 H   0  0  0  0  0  0  0  0  0  0  0  0  # atno 6908 bound_to 6896
  151.0956  133.5235  159.2644 H   0  0  0  0  0  0  0  0  0  0  0  0  # atno 6909 bound_to 6896
  144.9364  139.4983  143.5593 H   0  0  0  0  0  0  0  0  0  0  0  0  # atno 7974 bound_to 7965
  154.8922  140.0415  157.1845 H   0  0  0  0  0  0  0  0  0  0  0  0  # atno 8008 bound_to 7997
  154.8530  140.2932  155.5566 H   0  0  0  0  0  0  0  0  0  0  0  0  # atno 8009 bound_to 7997
  156.2996  140.2461  156.3491 H   0  0  0  0  0  0  0  0  0  0  0  0  # atno 8010 bound_to 7997
  139.8266  144.6707  150.9452 H   0  0  0  0  0  0  0  0  0  0  0  0  # atno 10167 bound_to 10162
  156.8808  130.5653  149.5653 H   0  0  0  0  0  0  0  0  0  0  0  0  # atno 10718 bound_to 10713
  153.3772  135.3915  155.1831 H   0  0  0  0  0  0  0  0  0  0  0  0  # atno 10763 bound_to 10752
  154.8702  135.3716  154.4903 H   0  0  0  0  0  0  0  0  0  0  0  0  # atno 10764 bound_to 10752
  153.5376  135.7085  153.5713 H   0  0  0  0  0  0  0  0  0  0  0  0  # atno 10765 bound_to 10752
  140.1292  134.8813  157.2179 H   0  0  0  0  0  0  0  0  0  0  0  0  # atno 11005 bound_to 11000
  146.3268  139.8352  142.8900 LP  0  0  0  0  0  0  0  0  0  0  0  0  # atno 17320 bound_to 7965
  145.3059  141.0207  143.3582 LP  0  0  0  0  0  0  0  0  0  0  0  0  # atno 17321 bound_to 7965
  140.7810  143.4041  151.1100 LP  0  0  0  0  0  0  0  0  0  0  0  0  # atno 17342 bound_to 10162
  139.7698  143.8512  152.3118 LP  0  0  0  0  0  0  0  0  0  0  0  0  # atno 17343 bound_to 10162
  156.0678  130.5718  150.9324 LP  0  0  0  0  0  0  0  0  0  0  0  0  # atno 17370 bound_to 10713
  157.6141  131.0934  150.8741 LP  0  0  0  0  0  0  0  0  0  0  0  0  # atno 17371 bound_to 10713
  140.2865  134.3290  155.7327 LP  0  0  0  0  0  0  0  0  0  0  0  0  # atno 17394 bound_to 11000
  141.2167  133.7509  156.9440 LP  0  0  0  0  0  0  0  0  0  0  0  0  # atno 17395 bound_to 11000

$$$$
