AV-unprocessed.smi:1817|AV-procd|sdf|7371|dock2
  -GOLD-   22720 9 33D 1   1.00000     0.00000
 Structure written by MMmdl.
 43 44  0  0  0  0  0  0  0  0  2 V2000
  151.7429  139.2674  157.3458 C   0  0  0  0  0  0  0  0  0  0  0  0
  150.6266  138.3121  156.8999 C   0  0  0  0  0  0  0  0  0  0  0  0
  150.8601  137.7869  155.5525 N   0  0  0  0  0  0  0  0  0  0  0  0
  149.9738  136.6948  155.1464 C   0  0  0  0  0  0  0  0  0  0  0  0
  148.5182  137.1618  154.9357 C   0  0  0  0  0  0  0  0  0  0  0  0
  148.4321  138.2553  153.9260 N   0  3  0  0  0  0  0  0  0  0  0  0
  147.0415  138.7438  153.6360 C   0  0  1  0  0  0  0  0  0  0  0  0
  147.0794  140.1589  153.0104 C   0  0  0  0  0  0  0  0  0  0  0  0
  146.2292  137.7701  152.7350 C   0  0  0  0  0  0  0  0  0  0  0  0
  144.7932  138.0429  152.7363 N   0  0  0  0  0  0  0  0  0  0  0  0
  143.8399  137.2061  153.1725 C   0  0  0  0  0  0  0  0  0  0  0  0
  144.0734  136.0758  153.5995 O   0  0  0  0  0  0  0  0  0  0  0  0
  142.6227  137.7643  153.0733 N   0  0  0  0  0  0  0  0  0  0  0  0
  141.3710  137.1955  153.4176 C   0  0  0  0  0  0  0  0  0  0  0  0
  141.3686  135.9922  154.0026 N   0  0  0  0  0  0  0  0  0  0  0  0
  140.0809  135.5543  154.2872 N   0  0  0  0  0  0  0  0  0  0  0  0
  139.1618  136.4467  153.9064 C   0  0  0  0  0  0  0  0  0  0  0  0
  139.7771  137.9116  153.1618 S   0  0  0  0  0  0  0  0  0  0  0  0
  149.3645  139.3512  154.3141 C   0  0  0  0  0  0  0  0  0  0  0  0
  150.7996  138.8264  154.5264 C   0  0  0  0  0  0  0  0  0  0  0  0
  151.4785  139.7473  158.2884 H   0  0  0  0  0  0  0  0  0  0  0  0
  151.9075  140.0557  156.6108 H   0  0  0  0  0  0  0  0  0  0  0  0
  152.6874  138.7479  157.5046 H   0  0  0  0  0  0  0  0  0  0  0  0
  150.5030  137.5130  157.6298 H   0  0  0  0  0  0  0  0  0  0  0  0
  149.6898  138.8709  156.8923 H   0  0  0  0  0  0  0  0  0  0  0  0
  150.3545  136.2726  154.2152 H   0  0  0  0  0  0  0  0  0  0  0  0
  150.0096  135.8847  155.8740 H   0  0  0  0  0  0  0  0  0  0  0  0
  147.9659  136.2872  154.5952 H   0  0  0  0  0  0  0  0  0  0  0  0
  148.0646  137.4793  155.8753 H   0  0  0  0  0  0  0  0  0  0  0  0
  146.5143  138.8102  154.5893 H   0  0  0  0  0  0  0  0  0  0  0  0
  146.0792  140.5441  152.8159 H   0  0  0  0  0  0  0  0  0  0  0  0
  147.6196  140.1557  152.0632 H   0  0  0  0  0  0  0  0  0  0  0  0
  147.5447  140.8990  153.6580 H   0  0  0  0  0  0  0  0  0  0  0  0
  146.6275  137.7710  151.7188 H   0  0  0  0  0  0  0  0  0  0  0  0
  146.3126  136.7470  153.0994 H   0  0  0  0  0  0  0  0  0  0  0  0
  144.5049  138.9506  152.4009 H   0  0  0  0  0  0  0  0  0  0  0  0
  142.5837  138.7051  152.7095 H   0  0  0  0  0  0  0  0  0  0  0  0
  138.1138  136.2401  154.0656 H   0  0  0  0  0  0  0  0  0  0  0  0
  149.4177  140.1088  153.5357 H   0  0  0  0  0  0  0  0  0  0  0  0
  148.9969  139.8560  155.2083 H   0  0  0  0  0  0  0  0  0  0  0  0
  151.4656  139.6465  154.7975 H   0  0  0  0  0  0  0  0  0  0  0  0
  151.1831  138.4189  153.5900 H   0  0  0  0  0  0  0  0  0  0  0  0
  148.7842  137.8637  153.0641 H   0  0  0  0  0  0  0  0  0  0  0  0
  1  2  1  0  0  0  0
  1 21  1  0  0  0  0
  1 22  1  0  0  0  0
  1 23  1  0  0  0  0
  2  3  1  0  0  0  0
  2 24  1  0  0  0  0
  2 25  1  0  0  0  0
  3 20  1  0  0  0  0
  3  4  1  0  0  0  0
  4  5  1  0  0  0  0
  4 26  1  0  0  0  0
  4 27  1  0  0  0  0
  5  6  1  0  0  0  0
  5 28  1  0  0  0  0
  5 29  1  0  0  0  0
  6  7  1  0  0  0  0
  6 19  1  0  0  0  0
  6 43  1  0  0  0  0
  7  8  1  0  0  0  0
  7  9  1  0  0  0  0
  7 30  1  0  0  0  0
  8 31  1  0  0  0  0
  8 32  1  0  0  0  0
  8 33  1  0  0  0  0
  9 10  1  0  0  0  0
  9 34  1  0  0  0  0
  9 35  1  0  0  0  0
 10 11  1  0  0  0  0
 10 36  1  0  0  0  0
 11 12  2  0  0  0  0
 11 13  1  0  0  0  0
 13 14  1  0  0  0  0
 13 37  1  0  0  0  0
 14 18  1  0  0  0  0
 14 15  2  0  0  0  0
 15 16  1  0  0  0  0
 16 17  2  0  0  0  0
 17 18  1  0  0  0  0
 17 38  1  0  0  0  0
 19 20  1  0  0  0  0
 19 39  1  0  0  0  0
 19 40  1  0  0  0  0
 20 41  1  0  0  0  0
 20 42  1  0  0  0  0
M  CHG  1   6   1
M  END
> <s_m_source_file>
AV-unprocessed.smi

> <i_m_source_file_index>
1817

> <i_lp_mmshare_version>
43012

> <i_f3d_flags>
0

> <s_epik_input>
W0NIM11bQ0gyXU4xW0NIMl1bQ0gyXU4oW0NIMl1bQ0gyXTEpW0NASF0oW0NIM10pW0NIMl1bTkhdQyg9TylbTkhdYzJubltjSF1zMg==

> <s_epik_cmdline>
J2VwaWtfcHl0aG9uJywgJy1waCcsICc3LjAnLCAnLXRuJywgJzgnLCAnLW1hJywgJzIwMCcsICctbWV0YWxfYmluZGluZycsICctaW1hZScsICc8aW5maWxlLm1hZT4nLCAnLW9tYWUnLCAnPG91dGZpbGUubWFlPic=

> <r_epik_Ionization_Penalty>
0.153808

> <r_epik_Ionization_Penalty_Charging>
0.148467

> <r_epik_Ionization_Penalty_Neutral>
0.00534086

> <r_epik_State_Penalty>
0.974087

> <r_epik_Charging_Adjusted_Penalty>
1.12255

> <i_epik_Tot_Q>
1

> <i_epik_Tot_abs_Q>
1

> <r_epik_Metal_State_Penalty>
1.30894

> <b_epik_Metal_Only>
0

> <s_lp_Force_Field>
OPLS_2005

> <r_lp_Energy>
21.4774

> <b_lp_Chiralities_Consistent>
1

> <s_lp_Variant>
AV-unprocessed.smi:1817-4

> <Gold.Version>
5.8.1

> <Gold.Id.Protein>
6NUR|6NUR_protein|mol2

> <Gold.PLP.Fitness>
43.5948

> <Gold.PLP.PLP>
-29.9120

> <Gold.PLP.part.hbond>
-5.1846

> <Gold.PLP.part.metal>
0.0000

> <Gold.PLP.part.buried>
-3.9878

> <Gold.PLP.part.nonpolar>
-21.8498

> <Gold.PLP.part.repulsive>
0.3339

> <Gold.PLP.ligand.clash>
0.0000

> <Gold.PLP.ligand.torsion>
0.5577

> <Gold.PLP.Chemscore.Hbond>
4.9120

> <Gold.PLP.Chemscore.CHOScore>
0.0000

> <Gold.PLP.Chemscore.Metal>
0.0000

> <Gold.Chemscore.Hbonds>
donor molecule, donor type, donor heavy atom, donor atom, acceptor molecule, acceptor atom, score
      L1  H     6    43       P1  7948  1.95
      L1  H    10    36       P1 10175  1.00
      L1  H    13    37       P1 10175  0.91
      P1  H 11000 11005       L1    16  1.00

> <Gold.PLP.Chemscore.Internal.Correction>
0.0622

> <Gold.Rescore>
     Score         DG    S(hbond)    S(metal)    S(lipo)     H(rot)  DE(clash)    DE(int)     intcor
     18.60     -20.89       3.82        0.00      64.77       1.92       0.16       2.13       ----

> <Gold.Chemscore.Fitness>
18.5959

> <Gold.Chemscore.DG>
-20.8947

> <Gold.Chemscore.ZeroCoef>
-5.4800

> <Gold.Chemscore.Hbond>
3.8177

> <Gold.Chemscore.Metal>
0.0000

> <Gold.Chemscore.Lipo>
64.7656

> <Gold.Chemscore.Internal_Hbond>
0.0000

> <Gold.Chemscore.DEClash>
0.1646

> <Gold.Chemscore.DEInternal>
2.1343

> <Gold.Chemscore.Rot>
1.9196

> <Gold.Chemscore.Internal.Correction>
   9.000000E+99

> <Gold.Chemscore.Hbonds>
donor molecule, donor type, donor heavy atom, donor atom, acceptor molecule, acceptor atom, score
      L1  H     6    43       P1  7948  0.89
      L1  H    10    36       P1 10175  0.98
      L1  H    13    37       P1 10175  0.84
      P1  H 11000 11005       L1    16  0.70

> <Gold.Chemscore.Hbond.Weighted>
-12.7513

> <Gold.Chemscore.Metal.Weighted>
-0.0000

> <Gold.Chemscore.Lipo.Weighted>
-7.5776

> <Gold.Chemscore.Internal_Hbond.Weighted>
0.0000

> <Gold.Chemscore.DEClash.Weighted>
0.1646

> <Gold.Chemscore.DEInternal.Weighted>
2.1343

> <Gold.Chemscore.Rot.Weighted>
4.9141

> <Gold.Chemscore.Internal.Correction.Weighted>
   9.000000E+99

> <Gold.Protein.RotatedTorsions>
[ 6907 6896 6895 6894 ] final  152.45 input  -60.11 | X-H torsion
[ 7974 7965 7964 7962 ] final  128.65 input  175.53 | X-H torsion
[ 8008 7997 7996 7995 ] final  154.28 input   59.86 | X-H torsion
[ 10167 10162 10161 10158 ] final -152.29 input  -65.29 | X-H torsion
[ 10718 10713 10712 10709 ] final -118.55 input   66.30 | X-H torsion
[ 10763 10752 10751 10750 ] final  -81.88 input  -60.55 | X-H torsion
[ 11005 11000 10999 10996 ] final   45.61 input  -57.11 | X-H torsion

> <Gold.Protein.ActiveResidues>
 VAL166  LYS551  ARG553  GLY616  TRP617  ASP618  TYR619  PRO620  LYS621  CYS622 
 ASP623  PHE694  ASN695  SER759  ASP760  ASP761  ALA762  ILE779  LEU786  VAL792 
 PHE793  MET794  SER795  GLU796  ALA797  LYS798  CYS799  TRP800  GLU811  SER814 

> <Gold.Protein.RotatedAtoms>
  152.0865  133.4179  159.4524 H   0  0  0  0  0  0  0  0  0  0  0  0  # atno 6907 bound_to 6896
  150.6862  134.2921  159.4680 H   0  0  0  0  0  0  0  0  0  0  0  0  # atno 6908 bound_to 6896
  152.0768  134.9497  160.0624 H   0  0  0  0  0  0  0  0  0  0  0  0  # atno 6909 bound_to 6896
  145.0373  139.3994  143.5120 H   0  0  0  0  0  0  0  0  0  0  0  0  # atno 7974 bound_to 7965
  156.2539  140.1971  156.6622 H   0  0  0  0  0  0  0  0  0  0  0  0  # atno 8008 bound_to 7997
  154.6455  140.0578  156.9921 H   0  0  0  0  0  0  0  0  0  0  0  0  # atno 8009 bound_to 7997
  155.1497  140.3250  155.4436 H   0  0  0  0  0  0  0  0  0  0  0  0  # atno 8010 bound_to 7997
  139.7194  143.8981  152.2498 H   0  0  0  0  0  0  0  0  0  0  0  0  # atno 10167 bound_to 10162
  156.1114  130.6252  150.9305 H   0  0  0  0  0  0  0  0  0  0  0  0  # atno 10718 bound_to 10713
  154.5690  135.5611  153.7077 H   0  0  0  0  0  0  0  0  0  0  0  0  # atno 10763 bound_to 10752
  153.0042  135.6292  154.2141 H   0  0  0  0  0  0  0  0  0  0  0  0  # atno 10764 bound_to 10752
  154.2080  135.2875  155.2948 H   0  0  0  0  0  0  0  0  0  0  0  0  # atno 10765 bound_to 10752
  140.1444  134.4542  155.8426 H   0  0  0  0  0  0  0  0  0  0  0  0  # atno 11005 bound_to 11000
  146.3505  139.9954  142.8681 LP  0  0  0  0  0  0  0  0  0  0  0  0  # atno 17320 bound_to 7965
  145.1693  140.9713  143.4331 LP  0  0  0  0  0  0  0  0  0  0  0  0  # atno 17321 bound_to 7965
  139.8872  144.6985  150.8811 LP  0  0  0  0  0  0  0  0  0  0  0  0  # atno 17342 bound_to 10162
  140.7750  143.3614  151.1821 LP  0  0  0  0  0  0  0  0  0  0  0  0  # atno 17343 bound_to 10162
  157.6296  131.0922  150.8467 LP  0  0  0  0  0  0  0  0  0  0  0  0  # atno 17370 bound_to 10713
  156.8578  130.5102  149.5306 LP  0  0  0  0  0  0  0  0  0  0  0  0  # atno 17371 bound_to 10713
  141.2190  133.6846  156.7306 LP  0  0  0  0  0  0  0  0  0  0  0  0  # atno 17394 bound_to 11000
  140.2682  134.8413  157.3822 LP  0  0  0  0  0  0  0  0  0  0  0  0  # atno 17395 bound_to 11000

$$$$
