AV-unprocessed.smi:2148|AV-procd|sdf|8749|dock8
  -GOLD-   2272011523D 1   1.00000     0.00000
 Structure written by MMmdl.
 44 45  0  0  0  0  0  0  0  0  1 V2000
  153.6370  135.5509  164.3902 C   0  0  0  0  0  0  0  0  0  0  0  0
  154.4498  134.1334  163.6047 S   0  0  0  0  0  0  0  0  0  0  0  0
  155.5923  134.9823  162.4735 C   0  0  1  0  0  0  0  0  0  0  0  0
  156.4682  133.9732  161.7077 C   0  0  0  0  0  0  0  0  0  0  0  0
  154.8349  135.9350  161.5371 C   0  0  0  0  0  0  0  0  0  0  0  0
  154.0853  135.4877  160.6689 O   0  0  0  0  0  0  0  0  0  0  0  0
  155.0772  137.2450  161.7324 N   0  0  0  0  0  0  0  0  0  0  0  0
  154.5425  138.3661  161.0415 C   0  0  0  0  0  0  0  0  0  0  0  0
  155.1587  139.6387  160.9800 C   0  0  0  0  0  0  0  0  0  0  0  0
  154.5307  140.6646  160.2482 C   0  0  0  0  0  0  0  0  0  0  0  0
  153.3089  140.3854  159.5942 C   0  0  0  0  0  0  0  0  0  0  0  0
  152.6320  141.3626  158.8530 N   0  0  0  0  0  0  0  0  0  0  0  0
  152.7282  142.6949  159.4306 C   0  0  0  0  0  0  0  0  0  0  0  0
  152.1221  143.7313  158.4666 C   0  0  2  0  0  0  0  0  0  0  0  0
  152.0926  145.1348  159.0806 C   0  0  0  0  0  0  0  0  0  0  0  0
  150.7803  143.3586  158.1478 O   0  0  0  0  0  0  0  0  0  0  0  0
  150.6367  142.0538  157.5788 C   0  0  1  0  0  0  0  0  0  0  0  0
  151.1668  141.9882  156.1352 C   0  0  0  0  0  0  0  0  0  0  0  0
  151.2628  140.9991  158.5124 C   0  0  0  0  0  0  0  0  0  0  0  0
  152.7255  139.1685  159.6347 N   0  0  0  0  0  0  0  0  0  0  0  0
  153.3333  138.1896  160.3376 C   0  0  0  0  0  0  0  0  0  0  0  0
  152.8804  135.2035  165.0936 H   0  0  0  0  0  0  0  0  0  0  0  0
  153.1493  136.1748  163.6411 H   0  0  0  0  0  0  0  0  0  0  0  0
  154.3583  136.1588  164.9355 H   0  0  0  0  0  0  0  0  0  0  0  0
  156.2507  135.6032  163.0826 H   0  0  0  0  0  0  0  0  0  0  0  0
  157.1253  134.4753  160.9964 H   0  0  0  0  0  0  0  0  0  0  0  0
  155.8601  133.2570  161.1535 H   0  0  0  0  0  0  0  0  0  0  0  0
  157.1053  133.4076  162.3870 H   0  0  0  0  0  0  0  0  0  0  0  0
  155.7697  137.4621  162.4344 H   0  0  0  0  0  0  0  0  0  0  0  0
  156.1003  139.8472  161.4630 H   0  0  0  0  0  0  0  0  0  0  0  0
  154.9856  141.6424  160.1895 H   0  0  0  0  0  0  0  0  0  0  0  0
  152.2021  142.7191  160.3860 H   0  0  0  0  0  0  0  0  0  0  0  0
  153.7733  142.9351  159.6312 H   0  0  0  0  0  0  0  0  0  0  0  0
  152.7171  143.7743  157.5541 H   0  0  0  0  0  0  0  0  0  0  0  0
  153.0980  145.4746  159.3299 H   0  0  0  0  0  0  0  0  0  0  0  0
  151.4963  145.1543  159.9933 H   0  0  0  0  0  0  0  0  0  0  0  0
  151.6614  145.8553  158.3852 H   0  0  0  0  0  0  0  0  0  0  0  0
  149.5648  141.8592  157.5301 H   0  0  0  0  0  0  0  0  0  0  0  0
  150.9375  141.0225  155.6842 H   0  0  0  0  0  0  0  0  0  0  0  0
  152.2474  142.1190  156.0839 H   0  0  0  0  0  0  0  0  0  0  0  0
  150.7063  142.7585  155.5164 H   0  0  0  0  0  0  0  0  0  0  0  0
  151.2414  140.0142  158.0437 H   0  0  0  0  0  0  0  0  0  0  0  0
  150.6701  140.9301  159.4255 H   0  0  0  0  0  0  0  0  0  0  0  0
  152.8321  137.2325  160.3413 H   0  0  0  0  0  0  0  0  0  0  0  0
  1  2  1  0  0  0  0
  1 22  1  0  0  0  0
  1 23  1  0  0  0  0
  1 24  1  0  0  0  0
  2  3  1  0  0  0  0
  3  4  1  0  0  0  0
  3  5  1  0  0  0  0
  3 25  1  0  0  0  0
  4 26  1  0  0  0  0
  4 27  1  0  0  0  0
  4 28  1  0  0  0  0
  5  6  2  0  0  0  0
  5  7  1  0  0  0  0
  7  8  1  0  0  0  0
  7 29  1  0  0  0  0
  8 21  1  0  0  0  0
  8  9  2  0  0  0  0
  9 10  1  0  0  0  0
  9 30  1  0  0  0  0
 10 11  2  0  0  0  0
 10 31  1  0  0  0  0
 11 12  1  0  0  0  0
 11 20  1  0  0  0  0
 12 19  1  0  0  0  0
 12 13  1  0  0  0  0
 13 14  1  0  0  0  0
 13 32  1  0  0  0  0
 13 33  1  0  0  0  0
 14 15  1  0  0  0  0
 14 16  1  0  0  0  0
 14 34  1  0  0  0  0
 15 35  1  0  0  0  0
 15 36  1  0  0  0  0
 15 37  1  0  0  0  0
 16 17  1  0  0  0  0
 17 18  1  0  0  0  0
 17 19  1  0  0  0  0
 17 38  1  0  0  0  0
 18 39  1  0  0  0  0
 18 40  1  0  0  0  0
 18 41  1  0  0  0  0
 19 42  1  0  0  0  0
 19 43  1  0  0  0  0
 20 21  2  0  0  0  0
 21 44  1  0  0  0  0
M  END
> <s_m_source_file>
AV-unprocessed.smi

> <i_m_source_file_index>
2148

> <i_lp_mmshare_version>
43012

> <i_f3d_flags>
0

> <s_epik_input>
W0NIM11TW0NASF0oW0NIM10pQyg9TylbTkhdYzFbY0hdW2NIXWMobltjSF0xKU4yW0NIMl1bQ0BASF0oW0NIM10pT1tDQEBIXShbQ0gzXSlbQ0gyXTI=

> <s_epik_cmdline>
J2VwaWtfcHl0aG9uJywgJy1waCcsICc3LjAnLCAnLXRuJywgJzgnLCAnLW1hJywgJzIwMCcsICctbWV0YWxfYmluZGluZycsICctaW1hZScsICc8aW5maWxlLm1hZT4nLCAnLW9tYWUnLCAnPG91dGZpbGUubWFlPic=

> <r_lp_tautomer_probability>
1

> <r_epik_Ionization_Penalty>
0.000646494

> <r_epik_Ionization_Penalty_Charging>
0

> <r_epik_Ionization_Penalty_Neutral>
0.000646494

> <r_epik_State_Penalty>
0.000408447

> <r_epik_Charging_Adjusted_Penalty>
0.000408447

> <i_epik_Tot_Q>
0

> <i_epik_Tot_abs_Q>
0

> <r_epik_Metal_State_Penalty>
-0

> <b_epik_Metal_Only>
0

> <s_lp_Force_Field>
OPLS_2005

> <r_lp_Energy>
27.0114

> <b_lp_Chiralities_Consistent>
1

> <s_lp_Variant>
AV-unprocessed.smi:2148-4

> <Gold.Version>
5.8.1

> <Gold.Id.Protein>
6NUR|6NUR_protein|mol2

> <Gold.PLP.Fitness>
40.0230

> <Gold.PLP.PLP>
-38.2180

> <Gold.PLP.part.hbond>
-1.0000

> <Gold.PLP.part.metal>
0.0000

> <Gold.PLP.part.buried>
-5.5745

> <Gold.PLP.part.nonpolar>
-31.2328

> <Gold.PLP.part.repulsive>
0.1450

> <Gold.PLP.ligand.clash>
0.0000

> <Gold.PLP.ligand.torsion>
0.6729

> <Gold.PLP.Chemscore.Hbond>
1.0000

> <Gold.PLP.Chemscore.CHOScore>
0.0000

> <Gold.PLP.Chemscore.Metal>
0.0000

> <Gold.Chemscore.Hbonds>
donor molecule, donor type, donor heavy atom, donor atom, acceptor molecule, acceptor atom, score
      P1  H  6896  6907       L1     6  1.00

> <Gold.PLP.Chemscore.Internal.Correction>
0.1508

> <Gold.Rescore>
     Score         DG    S(hbond)    S(metal)    S(lipo)     H(rot)  DE(clash)    DE(int)     intcor
     16.30     -18.21       1.00        0.00     108.09       1.27       0.01       1.90       ----

> <Gold.Chemscore.Fitness>
16.3007

> <Gold.Chemscore.DG>
-18.2100

> <Gold.Chemscore.ZeroCoef>
-5.4800

> <Gold.Chemscore.Hbond>
0.9953

> <Gold.Chemscore.Metal>
0.0000

> <Gold.Chemscore.Lipo>
108.0863

> <Gold.Chemscore.Internal_Hbond>
0.0000

> <Gold.Chemscore.DEClash>
0.0096

> <Gold.Chemscore.DEInternal>
1.8996

> <Gold.Chemscore.Rot>
1.2659

> <Gold.Chemscore.Internal.Correction>
   9.000000E+99

> <Gold.Chemscore.Hbonds>
donor molecule, donor type, donor heavy atom, donor atom, acceptor molecule, acceptor atom, score
      P1  H  6896  6907       L1     6  0.99

> <Gold.Chemscore.Hbond.Weighted>
-3.3244

> <Gold.Chemscore.Metal.Weighted>
-0.0000

> <Gold.Chemscore.Lipo.Weighted>
-12.6461

> <Gold.Chemscore.Internal_Hbond.Weighted>
0.0000

> <Gold.Chemscore.DEClash.Weighted>
0.0096

> <Gold.Chemscore.DEInternal.Weighted>
1.8996

> <Gold.Chemscore.Rot.Weighted>
3.2406

> <Gold.Chemscore.Internal.Correction.Weighted>
   9.000000E+99

> <Gold.Protein.RotatedTorsions>
[ 6907 6896 6895 6894 ] final   64.46 input  -60.11 | X-H torsion
[ 7974 7965 7964 7962 ] final   98.10 input  175.53 | X-H torsion
[ 8008 7997 7996 7995 ] final -171.13 input   59.86 | X-H torsion
[ 10167 10162 10161 10158 ] final -155.76 input  -65.29 | X-H torsion
[ 10718 10713 10712 10709 ] final    3.72 input   66.30 | X-H torsion
[ 10763 10752 10751 10750 ] final   52.11 input  -60.55 | X-H torsion
[ 11005 11000 10999 10996 ] final -167.65 input  -57.11 | X-H torsion

> <Gold.Protein.ActiveResidues>
 VAL166  LYS551  ARG553  GLY616  TRP617  ASP618  TYR619  PRO620  LYS621  CYS622 
 ASP623  PHE694  ASN695  SER759  ASP760  ASP761  ALA762  ILE779  LEU786  VAL792 
 PHE793  MET794  SER795  GLU796  ALA797  LYS798  CYS799  TRP800  GLU811  SER814 

> <Gold.Protein.RotatedAtoms>
  152.4333  134.5736  159.9927 H   0  0  0  0  0  0  0  0  0  0  0  0  # atno 6907 bound_to 6896
  151.5853  133.3367  159.3024 H   0  0  0  0  0  0  0  0  0  0  0  0  # atno 6908 bound_to 6896
  150.8228  134.7480  159.6852 H   0  0  0  0  0  0  0  0  0  0  0  0  # atno 6909 bound_to 6896
  145.4166  139.2327  143.3219 H   0  0  0  0  0  0  0  0  0  0  0  0  # atno 7974 bound_to 7965
  155.9275  140.1085  157.1158 H   0  0  0  0  0  0  0  0  0  0  0  0  # atno 8008 bound_to 7997
  154.4065  140.1244  156.4825 H   0  0  0  0  0  0  0  0  0  0  0  0  # atno 8009 bound_to 7997
  155.7120  140.3471  155.4980 H   0  0  0  0  0  0  0  0  0  0  0  0  # atno 8010 bound_to 7997
  139.6905  143.9428  152.2383 H   0  0  0  0  0  0  0  0  0  0  0  0  # atno 10167 bound_to 10162
  156.8820  130.5657  149.5652 H   0  0  0  0  0  0  0  0  0  0  0  0  # atno 10718 bound_to 10713
  152.9787  135.5823  154.4526 H   0  0  0  0  0  0  0  0  0  0  0  0  # atno 10763 bound_to 10752
  154.4112  135.2770  155.2037 H   0  0  0  0  0  0  0  0  0  0  0  0  # atno 10764 bound_to 10752
  154.3826  135.6143  153.5853 H   0  0  0  0  0  0  0  0  0  0  0  0  # atno 10765 bound_to 10752
  140.5509  134.5429  157.5122 H   0  0  0  0  0  0  0  0  0  0  0  0  # atno 11005 bound_to 11000
  146.2678  140.4885  142.8827 LP  0  0  0  0  0  0  0  0  0  0  0  0  # atno 17320 bound_to 7965
  144.8273  140.6649  143.6314 LP  0  0  0  0  0  0  0  0  0  0  0  0  # atno 17321 bound_to 7965
  139.9243  144.6780  150.8429 LP  0  0  0  0  0  0  0  0  0  0  0  0  # atno 17342 bound_to 10162
  140.7681  143.3353  151.2322 LP  0  0  0  0  0  0  0  0  0  0  0  0  # atno 17343 bound_to 10162
  156.0672  130.5713  150.9313 LP  0  0  0  0  0  0  0  0  0  0  0  0  # atno 17370 bound_to 10713
  157.6135  131.0935  150.8753 LP  0  0  0  0  0  0  0  0  0  0  0  0  # atno 17371 bound_to 10713
  139.9456  134.7709  156.0571 LP  0  0  0  0  0  0  0  0  0  0  0  0  # atno 17394 bound_to 11000
  141.1172  133.6624  156.3123 LP  0  0  0  0  0  0  0  0  0  0  0  0  # atno 17395 bound_to 11000

$$$$
