AV-unprocessed.smi:3046|AV-procd|sdf|11619|dock8
  -GOLD-   2272017 03D 1   1.00000     0.00000
 Structure written by MMmdl.
 37 37  0  0  0  0  0  0  0  0  1 V2000
  147.0939  140.2710  153.0951 C   0  0  0  0  0  0  0  0  0  0  0  0
  147.5569  140.7732  154.2494 C   0  0  0  0  0  0  0  0  0  0  0  0
  148.8427  141.5648  154.3871 C   0  0  0  0  0  0  0  0  0  0  0  0
  148.9369  142.1983  155.6959 N   0  0  0  0  0  0  0  0  0  0  0  0
  149.3822  141.6035  156.8136 C   0  0  0  0  0  0  0  0  0  0  0  0
  149.7847  140.4400  156.8453 O   0  0  0  0  0  0  0  0  0  0  0  0
  149.3328  142.4399  158.1027 C   0  0  2  0  0  0  0  0  0  0  0  0
  147.8910  142.8675  158.4190 C   0  0  0  0  0  0  0  0  0  0  0  0
  150.2039  143.6276  158.0539 N   0  0  0  0  0  0  0  0  0  0  0  0
  151.6252  143.3578  157.8362 C   0  0  1  0  0  0  0  0  0  0  0  0
  152.4331  144.5964  158.2528 C   0  0  0  0  0  0  0  0  0  0  0  0
  152.0313  142.1179  158.6569 C   0  0  0  0  0  0  0  0  0  0  0  0
  152.3690  142.4543  160.0295 N   0  0  0  0  0  0  0  0  0  0  0  0
  153.3336  141.8873  160.8354 C   0  0  0  0  0  0  0  0  0  0  0  0
  153.2760  142.5189  162.0445 C   0  0  0  0  0  0  0  0  0  0  0  0
  152.2330  143.4722  161.8778 C   0  0  0  0  0  0  0  0  0  0  0  0
  151.6934  143.4327  160.6705 N   0  0  0  0  0  0  0  0  0  0  0  0
  147.6282  140.4110  152.1666 H   0  0  0  0  0  0  0  0  0  0  0  0
  146.1705  139.7116  153.0651 H   0  0  0  0  0  0  0  0  0  0  0  0
  146.9950  140.6084  155.1575 H   0  0  0  0  0  0  0  0  0  0  0  0
  149.6937  140.9019  154.2226 H   0  0  0  0  0  0  0  0  0  0  0  0
  148.8907  142.3376  153.6192 H   0  0  0  0  0  0  0  0  0  0  0  0
  148.6198  143.1546  155.7638 H   0  0  0  0  0  0  0  0  0  0  0  0
  149.6729  141.8138  158.9300 H   0  0  0  0  0  0  0  0  0  0  0  0
  147.2257  142.0052  158.4773 H   0  0  0  0  0  0  0  0  0  0  0  0
  147.4943  143.5438  157.6604 H   0  0  0  0  0  0  0  0  0  0  0  0
  147.8399  143.3827  159.3790 H   0  0  0  0  0  0  0  0  0  0  0  0
  149.8702  144.3183  157.3968 H   0  0  0  0  0  0  0  0  0  0  0  0
  151.8306  143.1438  156.7863 H   0  0  0  0  0  0  0  0  0  0  0  0
  153.5011  144.4304  158.1089 H   0  0  0  0  0  0  0  0  0  0  0  0
  152.2751  144.8401  159.3042 H   0  0  0  0  0  0  0  0  0  0  0  0
  152.1586  145.4714  157.6631 H   0  0  0  0  0  0  0  0  0  0  0  0
  151.2066  141.4048  158.6860 H   0  0  0  0  0  0  0  0  0  0  0  0
  152.8726  141.5999  158.1923 H   0  0  0  0  0  0  0  0  0  0  0  0
  153.9698  141.0875  160.4861 H   0  0  0  0  0  0  0  0  0  0  0  0
  153.8856  142.3290  162.9152 H   0  0  0  0  0  0  0  0  0  0  0  0
  151.8545  144.1872  162.5934 H   0  0  0  0  0  0  0  0  0  0  0  0
  1  2  2  0  0  0  0
  1 18  1  0  0  0  0
  1 19  1  0  0  0  0
  2  3  1  0  0  0  0
  2 20  1  0  0  0  0
  3  4  1  0  0  0  0
  3 21  1  0  0  0  0
  3 22  1  0  0  0  0
  4  5  1  0  0  0  0
  4 23  1  0  0  0  0
  5  6  2  0  0  0  0
  5  7  1  0  0  0  0
  7  8  1  0  0  0  0
  7  9  1  0  0  0  0
  7 24  1  0  0  0  0
  8 25  1  0  0  0  0
  8 26  1  0  0  0  0
  8 27  1  0  0  0  0
  9 10  1  0  0  0  0
  9 28  1  0  0  0  0
 10 11  1  0  0  0  0
 10 12  1  0  0  0  0
 10 29  1  0  0  0  0
 11 30  1  0  0  0  0
 11 31  1  0  0  0  0
 11 32  1  0  0  0  0
 12 13  1  0  0  0  0
 12 33  1  0  0  0  0
 12 34  1  0  0  0  0
 13 17  1  0  0  0  0
 13 14  1  0  0  0  0
 14 15  2  0  0  0  0
 14 35  1  0  0  0  0
 15 16  1  0  0  0  0
 15 36  1  0  0  0  0
 16 17  2  0  0  0  0
 16 37  1  0  0  0  0
M  END
> <s_m_source_file>
AV-unprocessed.smi

> <i_m_source_file_index>
3046

> <i_lp_mmshare_version>
43012

> <i_f3d_flags>
0

> <s_epik_input>
W0NIMl09W0NIXVtDSDJdW05IXUMoPU8pW0NASF0oW0NIM10pW05IXVtDQEhdKFtDSDNdKVtDSDJdbjFbY0hdW2NIXVtjSF1uMQ==

> <s_epik_cmdline>
J2VwaWtfcHl0aG9uJywgJy1waCcsICc3LjAnLCAnLXRuJywgJzgnLCAnLW1hJywgJzIwMCcsICctbWV0YWxfYmluZGluZycsICctaW1hZScsICc8aW5maWxlLm1hZT4nLCAnLW9tYWUnLCAnPG91dGZpbGUubWFlPic=

> <r_lp_tautomer_probability>
1

> <r_epik_Ionization_Penalty>
0.950627

> <r_epik_Ionization_Penalty_Charging>
0

> <r_epik_Ionization_Penalty_Neutral>
0.950627

> <r_epik_State_Penalty>
0.994814

> <r_epik_Charging_Adjusted_Penalty>
0.994814

> <i_epik_Tot_Q>
0

> <i_epik_Tot_abs_Q>
0

> <r_epik_Metal_State_Penalty>
0.994788

> <b_epik_Metal_Only>
0

> <s_lp_Force_Field>
OPLS_2005

> <r_lp_Energy>
6.36017

> <b_lp_Chiralities_Consistent>
1

> <s_lp_Variant>
AV-unprocessed.smi:3046-7

> <Gold.Version>
5.8.1

> <Gold.Id.Protein>
6NUR|6NUR_protein|mol2

> <Gold.PLP.Fitness>
45.1945

> <Gold.PLP.PLP>
-41.1430

> <Gold.PLP.part.hbond>
-1.8977

> <Gold.PLP.part.metal>
0.0000

> <Gold.PLP.part.buried>
-3.9575

> <Gold.PLP.part.nonpolar>
-34.7563

> <Gold.PLP.part.repulsive>
0.2434

> <Gold.PLP.ligand.clash>
0.0000

> <Gold.PLP.ligand.torsion>
1.0249

> <Gold.PLP.Chemscore.Hbond>
1.9920

> <Gold.PLP.Chemscore.CHOScore>
0.0000

> <Gold.PLP.Chemscore.Metal>
0.0000

> <Gold.Chemscore.Hbonds>
donor molecule, donor type, donor heavy atom, donor atom, acceptor molecule, acceptor atom, score
      L1  H     4    23       P1  8028  1.00
      L1  H     9    28       P1  8028  0.99

> <Gold.PLP.Chemscore.Internal.Correction>
0.1253

> <Gold.Rescore>
     Score         DG    S(hbond)    S(metal)    S(lipo)     H(rot)  DE(clash)    DE(int)     intcor
     15.08     -17.68       1.89        0.00      97.82       2.17       0.43       2.17       ----

> <Gold.Chemscore.Fitness>
15.0772

> <Gold.Chemscore.DG>
-17.6777

> <Gold.Chemscore.ZeroCoef>
-5.4800

> <Gold.Chemscore.Hbond>
1.8916

> <Gold.Chemscore.Metal>
0.0000

> <Gold.Chemscore.Lipo>
97.8192

> <Gold.Chemscore.Internal_Hbond>
0.0000

> <Gold.Chemscore.DEClash>
0.4300

> <Gold.Chemscore.DEInternal>
2.1705

> <Gold.Chemscore.Rot>
2.1739

> <Gold.Chemscore.Internal.Correction>
   9.000000E+99

> <Gold.Chemscore.Hbonds>
donor molecule, donor type, donor heavy atom, donor atom, acceptor molecule, acceptor atom, score
      L1  H     4    23       P1  8028  0.94
      L1  H     9    28       P1  8028  0.31

> <Gold.Chemscore.Hbond.Weighted>
-6.3180

> <Gold.Chemscore.Metal.Weighted>
-0.0000

> <Gold.Chemscore.Lipo.Weighted>
-11.4448

> <Gold.Chemscore.Internal_Hbond.Weighted>
0.0000

> <Gold.Chemscore.DEClash.Weighted>
0.4300

> <Gold.Chemscore.DEInternal.Weighted>
2.1705

> <Gold.Chemscore.Rot.Weighted>
5.5652

> <Gold.Chemscore.Internal.Correction.Weighted>
   9.000000E+99

> <Gold.Protein.RotatedTorsions>
[ 6907 6896 6895 6894 ] final  -16.66 input  -60.11 | X-H torsion
[ 7974 7965 7964 7962 ] final   73.39 input  175.53 | X-H torsion
[ 8008 7997 7996 7995 ] final  143.89 input   59.86 | X-H torsion
[ 10167 10162 10161 10158 ] final  170.85 input  -65.29 | X-H torsion
[ 10718 10713 10712 10709 ] final  147.97 input   66.30 | X-H torsion
[ 10763 10752 10751 10750 ] final  109.07 input  -60.55 | X-H torsion
[ 11005 11000 10999 10996 ] final   71.03 input  -57.11 | X-H torsion

> <Gold.Protein.ActiveResidues>
 VAL166  LYS551  ARG553  GLY616  TRP617  ASP618  TYR619  PRO620  LYS621  CYS622 
 ASP623  PHE694  ASN695  SER759  ASP760  ASP761  ALA762  ILE779  LEU786  VAL792 
 PHE793  MET794  SER795  GLU796  ALA797  LYS798  CYS799  TRP800  GLU811  SER814 

> <Gold.Protein.RotatedAtoms>
  151.3052  135.0779  159.9252 H   0  0  0  0  0  0  0  0  0  0  0  0  # atno 6907 bound_to 6896
  152.5289  133.9792  159.7809 H   0  0  0  0  0  0  0  0  0  0  0  0  # atno 6908 bound_to 6896
  151.0086  133.5935  159.2716 H   0  0  0  0  0  0  0  0  0  0  0  0  # atno 6909 bound_to 6896
  145.7415  139.2723  143.1484 H   0  0  0  0  0  0  0  0  0  0  0  0  # atno 7974 bound_to 7965
  156.2920  140.2250  156.4964 H   0  0  0  0  0  0  0  0  0  0  0  0  # atno 8008 bound_to 7997
  154.7727  140.0465  157.1086 H   0  0  0  0  0  0  0  0  0  0  0  0  # atno 8009 bound_to 7997
  154.9854  140.3083  155.4932 H   0  0  0  0  0  0  0  0  0  0  0  0  # atno 8010 bound_to 7997
  139.5030  144.3550  151.9883 H   0  0  0  0  0  0  0  0  0  0  0  0  # atno 10167 bound_to 10162
  157.3144  131.0893  151.1291 H   0  0  0  0  0  0  0  0  0  0  0  0  # atno 10718 bound_to 10713
  153.4296  135.3791  155.2162 H   0  0  0  0  0  0  0  0  0  0  0  0  # atno 10763 bound_to 10752
  154.8749  135.3837  154.4284 H   0  0  0  0  0  0  0  0  0  0  0  0  # atno 10764 bound_to 10752
  153.4815  135.7088  153.5998 H   0  0  0  0  0  0  0  0  0  0  0  0  # atno 10765 bound_to 10752
  139.9565  134.7134  156.0740 H   0  0  0  0  0  0  0  0  0  0  0  0  # atno 11005 bound_to 11000
  146.0443  140.8133  142.9813 LP  0  0  0  0  0  0  0  0  0  0  0  0  # atno 17320 bound_to 7965
  144.6869  140.2957  143.7271 LP  0  0  0  0  0  0  0  0  0  0  0  0  # atno 17321 bound_to 7965
  140.2987  144.3671  150.6066 LP  0  0  0  0  0  0  0  0  0  0  0  0  # atno 17342 bound_to 10162
  140.5890  143.2169  151.7288 LP  0  0  0  0  0  0  0  0  0  0  0  0  # atno 17343 bound_to 10162
  157.2600  130.6654  149.5970 LP  0  0  0  0  0  0  0  0  0  0  0  0  # atno 17370 bound_to 10713
  155.9680  130.4511  150.5724 LP  0  0  0  0  0  0  0  0  0  0  0  0  # atno 17371 bound_to 10713
  141.1237  133.6605  156.3282 LP  0  0  0  0  0  0  0  0  0  0  0  0  # atno 17394 bound_to 11000
  140.5596  134.5947  157.5430 LP  0  0  0  0  0  0  0  0  0  0  0  0  # atno 17395 bound_to 11000

$$$$
