AV-unprocessed.smi:1626|AV-procd|sdf|6508|dock7
  -GOLD-   22720 7173D 1   1.00000     0.00000
 Structure written by MMmdl.
 48 50  0  0  0  0  0  0  0  0  2 V2000
  152.8626  142.9972  160.8348 C   0  0  0  0  0  0  0  0  0  0  0  0
  152.2418  142.3952  159.5865 C   0  0  0  0  0  0  0  0  0  0  0  0
  152.2687  140.9931  159.4141 C   0  0  0  0  0  0  0  0  0  0  0  0
  151.7051  140.3934  158.2669 C   0  0  0  0  0  0  0  0  0  0  0  0
  151.6239  139.0621  157.8973 N   0  0  0  0  0  0  0  0  0  0  0  0
  150.9912  139.1454  156.7311 C   0  0  0  0  0  0  0  0  0  0  0  0
  150.6643  140.3768  156.2930 N   0  0  0  0  0  0  0  0  0  0  0  0
  149.9858  140.7126  155.0537 C   0  0  0  0  0  0  0  0  0  0  0  0
  149.2336  139.5129  154.4428 C   0  0  2  0  0  0  0  0  0  0  0  0
  150.1197  138.8600  153.5559 O   0  0  0  0  0  0  0  0  0  0  0  0
  147.9529  139.9127  153.6749 C   0  0  0  0  0  0  0  0  0  0  0  0
  147.2860  138.7492  153.0369 N   0  3  2  0  0  0  0  0  0  0  0  0
  146.4423  139.1469  151.8807 C   0  0  0  0  0  0  0  0  0  0  0  0
  145.8859  137.9135  151.1462 C   0  0  0  0  0  0  0  0  0  0  0  0
  145.1162  136.9782  152.0933 C   0  0  2  0  0  0  0  0  0  0  0  0
  143.9013  137.5825  152.4898 O   0  0  0  0  0  0  0  0  0  0  0  0
  145.9713  136.6444  153.3271 C   0  0  0  0  0  0  0  0  0  0  0  0
  146.5242  137.9124  154.0028 C   0  0  0  0  0  0  0  0  0  0  0  0
  151.1085  141.2415  157.2884 C   0  0  0  0  0  0  0  0  0  0  0  0
  151.0703  142.6376  157.4519 C   0  0  0  0  0  0  0  0  0  0  0  0
  151.6419  143.2206  158.6020 C   0  0  0  0  0  0  0  0  0  0  0  0
  151.6035  144.7299  158.7645 C   0  0  0  0  0  0  0  0  0  0  0  0
  153.2053  142.2231  161.5220 H   0  0  0  0  0  0  0  0  0  0  0  0
  152.1383  143.6158  161.3651 H   0  0  0  0  0  0  0  0  0  0  0  0
  153.7205  143.6164  160.5713 H   0  0  0  0  0  0  0  0  0  0  0  0
  152.7250  140.3642  160.1645 H   0  0  0  0  0  0  0  0  0  0  0  0
  150.7615  138.2598  156.1565 H   0  0  0  0  0  0  0  0  0  0  0  0
  149.2935  141.5333  155.2489 H   0  0  0  0  0  0  0  0  0  0  0  0
  150.7301  141.0914  154.3518 H   0  0  0  0  0  0  0  0  0  0  0  0
  148.9972  138.8143  155.2435 H   0  0  0  0  0  0  0  0  0  0  0  0
  149.9695  139.1783  152.6792 H   0  0  0  0  0  0  0  0  0  0  0  0
  147.2307  140.4000  154.3308 H   0  0  0  0  0  0  0  0  0  0  0  0
  148.2202  140.6567  152.9228 H   0  0  0  0  0  0  0  0  0  0  0  0
  145.6270  139.7850  152.2251 H   0  0  0  0  0  0  0  0  0  0  0  0
  147.0327  139.7387  151.1801 H   0  0  0  0  0  0  0  0  0  0  0  0
  145.2472  138.2246  150.3186 H   0  0  0  0  0  0  0  0  0  0  0  0
  146.7151  137.3636  150.6991 H   0  0  0  0  0  0  0  0  0  0  0  0
  144.8619  136.0582  151.5656 H   0  0  0  0  0  0  0  0  0  0  0  0
  143.5806  138.1150  151.7772 H   0  0  0  0  0  0  0  0  0  0  0  0
  145.3929  136.0584  154.0424 H   0  0  0  0  0  0  0  0  0  0  0  0
  146.8065  136.0123  153.0225 H   0  0  0  0  0  0  0  0  0  0  0  0
  147.1592  137.6181  154.8375 H   0  0  0  0  0  0  0  0  0  0  0  0
  145.7077  138.4981  154.4277 H   0  0  0  0  0  0  0  0  0  0  0  0
  150.6052  143.2564  156.6991 H   0  0  0  0  0  0  0  0  0  0  0  0
  151.1671  145.2135  157.8901 H   0  0  0  0  0  0  0  0  0  0  0  0
  152.6101  145.1270  158.8972 H   0  0  0  0  0  0  0  0  0  0  0  0
  151.0049  145.0047  159.6333 H   0  0  0  0  0  0  0  0  0  0  0  0
  148.0227  138.1720  152.6580 H   0  0  0  0  0  0  0  0  0  0  0  0
  1  2  1  0  0  0  0
  1 23  1  0  0  0  0
  1 24  1  0  0  0  0
  1 25  1  0  0  0  0
  2 21  1  0  0  0  0
  2  3  2  0  0  0  0
  3  4  1  0  0  0  0
  3 26  1  0  0  0  0
  4 19  2  0  0  0  0
  4  5  1  0  0  0  0
  5  6  2  0  0  0  0
  6  7  1  0  0  0  0
  6 27  1  0  0  0  0
  7  8  1  0  0  0  0
  7 19  1  0  0  0  0
  8  9  1  0  0  0  0
  8 28  1  0  0  0  0
  8 29  1  0  0  0  0
  9 10  1  0  0  0  0
  9 11  1  0  0  0  0
  9 30  1  0  0  0  0
 10 31  1  0  0  0  0
 11 12  1  0  0  0  0
 11 32  1  0  0  0  0
 11 33  1  0  0  0  0
 12 18  1  0  0  0  0
 12 13  1  0  0  0  0
 12 48  1  0  0  0  0
 13 14  1  0  0  0  0
 13 34  1  0  0  0  0
 13 35  1  0  0  0  0
 14 15  1  0  0  0  0
 14 36  1  0  0  0  0
 14 37  1  0  0  0  0
 15 16  1  0  0  0  0
 15 17  1  0  0  0  0
 15 38  1  0  0  0  0
 16 39  1  0  0  0  0
 17 18  1  0  0  0  0
 17 40  1  0  0  0  0
 17 41  1  0  0  0  0
 18 42  1  0  0  0  0
 18 43  1  0  0  0  0
 19 20  1  0  0  0  0
 20 21  2  0  0  0  0
 20 44  1  0  0  0  0
 21 22  1  0  0  0  0
 22 45  1  0  0  0  0
 22 46  1  0  0  0  0
 22 47  1  0  0  0  0
M  CHG  1  12   1
M  END
> <s_m_source_file>
AV-unprocessed.smi

> <i_m_source_file_index>
1626

> <i_lp_mmshare_version>
43012

> <i_f3d_flags>
0

> <s_epik_input>
W0NIM11jKFtjSF0xKWMoW0NIM10pW2NIXWMoYzEyKW4oW2NIXW4yKVtDSDJdW0NASF0oW09IXSlbQ0gyXU4zW0NIMl1bQ0gyXVtDSF0oW09IXSlbQ0gyXVtDSDJdMw==

> <s_epik_cmdline>
J2VwaWtfcHl0aG9uJywgJy1waCcsICc3LjAnLCAnLXRuJywgJzgnLCAnLW1hJywgJzIwMCcsICctbWV0YWxfYmluZGluZycsICctaW1hZScsICc8aW5maWxlLm1hZT4nLCAnLW9tYWUnLCAnPG91dGZpbGUubWFlPic=

> <r_epik_Ionization_Penalty>
0.106584

> <r_epik_Ionization_Penalty_Charging>
0.0185694

> <r_epik_Ionization_Penalty_Neutral>
0.0880147

> <r_epik_State_Penalty>
0.0908428

> <r_epik_Charging_Adjusted_Penalty>
0.109412

> <i_epik_Tot_Q>
1

> <i_epik_Tot_abs_Q>
1

> <r_epik_Metal_State_Penalty>
0.0153739

> <b_epik_Metal_Only>
0

> <s_lp_Force_Field>
OPLS_2005

> <r_lp_Energy>
24.9536

> <b_lp_Chiralities_Consistent>
1

> <s_lp_Variant>
AV-unprocessed.smi:1626-3

> <Gold.Version>
5.8.1

> <Gold.Id.Protein>
6NUR|6NUR_protein|mol2

> <Gold.PLP.Fitness>
53.6313

> <Gold.PLP.PLP>
-43.3849

> <Gold.PLP.part.hbond>
-5.0206

> <Gold.PLP.part.metal>
0.0000

> <Gold.PLP.part.buried>
5.7047

> <Gold.PLP.part.nonpolar>
-43.0393

> <Gold.PLP.part.repulsive>
0.0426

> <Gold.PLP.ligand.clash>
0.0000

> <Gold.PLP.ligand.torsion>
0.8769

> <Gold.PLP.Chemscore.Hbond>
3.9913

> <Gold.PLP.Chemscore.CHOScore>
0.0000

> <Gold.PLP.Chemscore.Metal>
0.0000

> <Gold.Chemscore.Hbonds>
donor molecule, donor type, donor heavy atom, donor atom, acceptor molecule, acceptor atom, score
      L1  H    10    31       P1  7957  1.00
      L1  H    12    48       P1  7948  0.78
      L1  H    16    39       P1 10171  0.90

> <Gold.PLP.Chemscore.Internal.Correction>
0.0264

> <Gold.Rescore>
     Score         DG    S(hbond)    S(metal)    S(lipo)     H(rot)  DE(clash)    DE(int)     intcor
     17.44     -20.20       2.15        0.00     122.78       2.67       1.92       0.84       ----

> <Gold.Chemscore.Fitness>
17.4384

> <Gold.Chemscore.DG>
-20.1965

> <Gold.Chemscore.ZeroCoef>
-5.4800

> <Gold.Chemscore.Hbond>
2.1525

> <Gold.Chemscore.Metal>
0.0000

> <Gold.Chemscore.Lipo>
122.7823

> <Gold.Chemscore.Internal_Hbond>
0.0000

> <Gold.Chemscore.DEClash>
1.9163

> <Gold.Chemscore.DEInternal>
0.8418

> <Gold.Chemscore.Rot>
2.6712

> <Gold.Chemscore.Internal.Correction>
   9.000000E+99

> <Gold.Chemscore.Hbonds>
donor molecule, donor type, donor heavy atom, donor atom, acceptor molecule, acceptor atom, score
      L1  H    10    31       P1  7957  0.85
      L1  H    12    48       P1  7948  0.39
      L1  H    16    39       P1 10171  0.75

> <Gold.Chemscore.Hbond.Weighted>
-7.1893

> <Gold.Chemscore.Metal.Weighted>
-0.0000

> <Gold.Chemscore.Lipo.Weighted>
-14.3655

> <Gold.Chemscore.Internal_Hbond.Weighted>
0.0000

> <Gold.Chemscore.DEClash.Weighted>
1.9163

> <Gold.Chemscore.DEInternal.Weighted>
0.8418

> <Gold.Chemscore.Rot.Weighted>
6.8383

> <Gold.Chemscore.Internal.Correction.Weighted>
   9.000000E+99

> <Gold.Protein.RotatedTorsions>
[ 6907 6896 6895 6894 ] final   -1.64 input  -60.11 | X-H torsion
[ 7974 7965 7964 7962 ] final   12.45 input  175.53 | X-H torsion
[ 8008 7997 7996 7995 ] final  -91.73 input   59.86 | X-H torsion
[ 10167 10162 10161 10158 ] final  118.38 input  -65.29 | X-H torsion
[ 10718 10713 10712 10709 ] final  -14.79 input   66.30 | X-H torsion
[ 10763 10752 10751 10750 ] final  123.93 input  -60.55 | X-H torsion
[ 11005 11000 10999 10996 ] final  118.98 input  -57.11 | X-H torsion

> <Gold.Protein.ActiveResidues>
 VAL166  LYS551  ARG553  GLY616  TRP617  ASP618  TYR619  PRO620  LYS621  CYS622 
 ASP623  PHE694  ASN695  SER759  ASP760  ASP761  ALA762  ILE779  LEU786  VAL792 
 PHE793  MET794  SER795  GLU796  ALA797  LYS798  CYS799  TRP800  GLU811  SER814 

> <Gold.Protein.RotatedAtoms>
  151.5428  135.1068  159.9930 H   0  0  0  0  0  0  0  0  0  0  0  0  # atno 6907 bound_to 6896
  152.4527  133.7657  159.6782 H   0  0  0  0  0  0  0  0  0  0  0  0  # atno 6908 bound_to 6896
  150.8461  133.7793  159.3067 H   0  0  0  0  0  0  0  0  0  0  0  0  # atno 6909 bound_to 6896
  146.2351  139.9335  142.8493 H   0  0  0  0  0  0  0  0  0  0  0  0  # atno 7974 bound_to 7965
  154.7144  140.0516  157.0580 H   0  0  0  0  0  0  0  0  0  0  0  0  # atno 8008 bound_to 7997
  155.0512  140.3179  155.4672 H   0  0  0  0  0  0  0  0  0  0  0  0  # atno 8009 bound_to 7997
  156.2798  140.2115  156.5637 H   0  0  0  0  0  0  0  0  0  0  0  0  # atno 8010 bound_to 7997
  139.6115  144.7083  151.2833 H   0  0  0  0  0  0  0  0  0  0  0  0  # atno 10167 bound_to 10162
  156.6110  130.4849  149.6202 H   0  0  0  0  0  0  0  0  0  0  0  0  # atno 10718 bound_to 10713
  153.6534  135.3359  155.3106 H   0  0  0  0  0  0  0  0  0  0  0  0  # atno 10763 bound_to 10752
  154.8532  135.4346  154.1880 H   0  0  0  0  0  0  0  0  0  0  0  0  # atno 10764 bound_to 10752
  153.2829  135.7010  153.7443 H   0  0  0  0  0  0  0  0  0  0  0  0  # atno 10765 bound_to 10752
  139.9129  134.9625  156.7585 H   0  0  0  0  0  0  0  0  0  0  0  0  # atno 11005 bound_to 11000
  145.2021  140.9859  143.4149 LP  0  0  0  0  0  0  0  0  0  0  0  0  # atno 17320 bound_to 7965
  144.9764  139.3827  143.6283 LP  0  0  0  0  0  0  0  0  0  0  0  0  # atno 17321 bound_to 7965
  140.7322  143.6829  150.7986 LP  0  0  0  0  0  0  0  0  0  0  0  0  # atno 17342 bound_to 10162
  140.0424  143.5332  152.2711 LP  0  0  0  0  0  0  0  0  0  0  0  0  # atno 17343 bound_to 10162
  156.2390  130.6840  151.1537 LP  0  0  0  0  0  0  0  0  0  0  0  0  # atno 17370 bound_to 10713
  157.7254  131.0653  150.5953 LP  0  0  0  0  0  0  0  0  0  0  0  0  # atno 17371 bound_to 10713
  140.6716  133.9554  155.7860 LP  0  0  0  0  0  0  0  0  0  0  0  0  # atno 17394 bound_to 11000
  141.0573  134.0397  157.3705 LP  0  0  0  0  0  0  0  0  0  0  0  0  # atno 17395 bound_to 11000

$$$$
