AV-unprocessed.smi:2659|AV-procd|sdf|10313|dock6
  -GOLD-   2272014333D 1   1.00000     0.00000
 Structure written by MMmdl.
 47 48  0  0  0  0  0  0  0  0  1 V2000
  151.4078  137.9139  154.1813 C   0  0  0  0  0  0  0  0  0  0  0  0
  150.6742  139.1090  154.5492 N   0  0  0  0  0  0  0  0  0  0  0  0
  151.2753  140.0736  155.2778 N   0  0  0  0  0  0  0  0  0  0  0  0
  150.3537  141.0177  155.4378 C   0  0  0  0  0  0  0  0  0  0  0  0
  150.6912  142.2679  156.2102 C   0  0  0  0  0  0  0  0  0  0  0  0
  150.8455  142.0767  157.7460 C   0  0  0  0  0  0  0  0  0  0  0  0
  151.9151  141.0059  158.0409 C   0  0  0  0  0  0  0  0  0  0  0  0
  149.4993  141.5940  158.3207 C   0  0  0  0  0  0  0  0  0  0  0  0
  151.2379  143.3895  158.4577 C   0  0  0  0  0  0  0  0  0  0  0  0
  149.1134  140.6820  154.8199 C   0  0  0  0  0  0  0  0  0  0  0  0
  149.3732  139.4591  154.2647 C   0  0  0  0  0  0  0  0  0  0  0  0
  148.5486  138.6546  153.5430 N   0  0  0  0  0  0  0  0  0  0  0  0
  147.2048  138.6449  153.5056 C   0  0  0  0  0  0  0  0  0  0  0  0
  146.4660  139.3937  154.1454 O   0  0  0  0  0  0  0  0  0  0  0  0
  146.7524  137.7005  152.6691 N   0  0  0  0  0  0  0  0  0  0  0  0
  145.3459  137.4168  152.4079 C   0  0  0  0  0  0  0  0  0  0  0  0
  145.0579  135.9068  152.4363 C   0  0  1  0  0  0  0  0  0  0  0  0
  143.5715  135.5641  152.3791 C   0  0  0  0  0  0  0  0  0  0  0  0
  143.6095  134.1473  151.8538 C   0  0  0  0  0  0  0  0  0  0  0  0
  144.7631  134.2080  150.8553 C   0  0  0  0  0  0  0  0  0  0  0  0
  145.6144  135.2657  151.2917 O   0  0  0  0  0  0  0  0  0  0  0  0
  151.3691  137.7786  153.1003 H   0  0  0  0  0  0  0  0  0  0  0  0
  150.9594  137.0466  154.6661 H   0  0  0  0  0  0  0  0  0  0  0  0
  152.4512  137.9932  154.4892 H   0  0  0  0  0  0  0  0  0  0  0  0
  151.6294  142.6551  155.8106 H   0  0  0  0  0  0  0  0  0  0  0  0
  149.9576  143.0480  156.0017 H   0  0  0  0  0  0  0  0  0  0  0  0
  152.0034  140.8179  159.1116 H   0  0  0  0  0  0  0  0  0  0  0  0
  152.8990  141.3118  157.6853 H   0  0  0  0  0  0  0  0  0  0  0  0
  151.6731  140.0567  157.5617 H   0  0  0  0  0  0  0  0  0  0  0  0
  149.1754  140.6663  157.8477 H   0  0  0  0  0  0  0  0  0  0  0  0
  148.7123  142.3334  158.1675 H   0  0  0  0  0  0  0  0  0  0  0  0
  149.5664  141.4089  159.3934 H   0  0  0  0  0  0  0  0  0  0  0  0
  151.2598  143.2603  159.5403 H   0  0  0  0  0  0  0  0  0  0  0  0
  150.5264  144.1863  158.2378 H   0  0  0  0  0  0  0  0  0  0  0  0
  152.2278  143.7368  158.1601 H   0  0  0  0  0  0  0  0  0  0  0  0
  148.2018  141.2594  154.7972 H   0  0  0  0  0  0  0  0  0  0  0  0
  149.0136  137.9804  152.9531 H   0  0  0  0  0  0  0  0  0  0  0  0
  147.4277  137.1257  152.1871 H   0  0  0  0  0  0  0  0  0  0  0  0
  144.7218  137.9345  153.1380 H   0  0  0  0  0  0  0  0  0  0  0  0
  145.0873  137.8294  151.4323 H   0  0  0  0  0  0  0  0  0  0  0  0
  145.4917  135.4487  153.3269 H   0  0  0  0  0  0  0  0  0  0  0  0
  143.0777  135.6489  153.3474 H   0  0  0  0  0  0  0  0  0  0  0  0
  143.0526  136.2116  151.6708 H   0  0  0  0  0  0  0  0  0  0  0  0
  143.8494  133.4564  152.6630 H   0  0  0  0  0  0  0  0  0  0  0  0
  142.6696  133.8306  151.4011 H   0  0  0  0  0  0  0  0  0  0  0  0
  145.3044  133.2635  150.7956 H   0  0  0  0  0  0  0  0  0  0  0  0
  144.3950  134.4507  149.8580 H   0  0  0  0  0  0  0  0  0  0  0  0
  1  2  1  0  0  0  0
  1 22  1  0  0  0  0
  1 23  1  0  0  0  0
  1 24  1  0  0  0  0
  2 11  1  0  0  0  0
  2  3  1  0  0  0  0
  3  4  2  0  0  0  0
  4  5  1  0  0  0  0
  4 10  1  0  0  0  0
  5  6  1  0  0  0  0
  5 25  1  0  0  0  0
  5 26  1  0  0  0  0
  6  7  1  0  0  0  0
  6  8  1  0  0  0  0
  6  9  1  0  0  0  0
  7 27  1  0  0  0  0
  7 28  1  0  0  0  0
  7 29  1  0  0  0  0
  8 30  1  0  0  0  0
  8 31  1  0  0  0  0
  8 32  1  0  0  0  0
  9 33  1  0  0  0  0
  9 34  1  0  0  0  0
  9 35  1  0  0  0  0
 10 11  2  0  0  0  0
 10 36  1  0  0  0  0
 11 12  1  0  0  0  0
 12 13  1  0  0  0  0
 12 37  1  0  0  0  0
 13 14  2  0  0  0  0
 13 15  1  0  0  0  0
 15 16  1  0  0  0  0
 15 38  1  0  0  0  0
 16 17  1  0  0  0  0
 16 39  1  0  0  0  0
 16 40  1  0  0  0  0
 17 21  1  0  0  0  0
 17 18  1  0  0  0  0
 17 41  1  0  0  0  0
 18 19  1  0  0  0  0
 18 42  1  0  0  0  0
 18 43  1  0  0  0  0
 19 20  1  0  0  0  0
 19 44  1  0  0  0  0
 19 45  1  0  0  0  0
 20 21  1  0  0  0  0
 20 46  1  0  0  0  0
 20 47  1  0  0  0  0
M  END
> <s_m_source_file>
AV-unprocessed.smi

> <i_m_source_file_index>
2659

> <i_lp_mmshare_version>
43012

> <i_f3d_flags>
0

> <s_epik_input>
W0NIM11uMW5jKFtDSDJdQyhbQ0gzXSkoW0NIM10pW0NIM10pW2NIXWMxW05IXUMoPU8pW05IXVtDSDJdW0NAQEhdMltDSDJdW0NIMl1bQ0gyXU8y

> <s_epik_cmdline>
J2VwaWtfcHl0aG9uJywgJy1waCcsICc3LjAnLCAnLXRuJywgJzgnLCAnLW1hJywgJzIwMCcsICctbWV0YWxfYmluZGluZycsICctaW1hZScsICc8aW5maWxlLm1hZT4nLCAnLW9tYWUnLCAnPG91dGZpbGUubWFlPic=

> <r_lp_tautomer_probability>
1

> <r_epik_Ionization_Penalty>
9.6187e-05

> <r_epik_Ionization_Penalty_Charging>
0

> <r_epik_Ionization_Penalty_Neutral>
9.6187e-05

> <r_epik_State_Penalty>
-0

> <r_epik_Charging_Adjusted_Penalty>
0

> <i_epik_Tot_Q>
0

> <i_epik_Tot_abs_Q>
0

> <r_epik_Metal_State_Penalty>
-0

> <b_epik_Metal_Only>
0

> <s_lp_Force_Field>
OPLS_2005

> <r_lp_Energy>
21.1922

> <b_lp_Chiralities_Consistent>
1

> <s_lp_Variant>
AV-unprocessed.smi:2659-2

> <Gold.Version>
5.8.1

> <Gold.Id.Protein>
6NUR|6NUR_protein|mol2

> <Gold.PLP.Fitness>
43.4084

> <Gold.PLP.PLP>
-38.0373

> <Gold.PLP.part.hbond>
-4.0000

> <Gold.PLP.part.metal>
0.0000

> <Gold.PLP.part.buried>
-3.7650

> <Gold.PLP.part.nonpolar>
-31.5262

> <Gold.PLP.part.repulsive>
0.4772

> <Gold.PLP.ligand.clash>
0.0000

> <Gold.PLP.ligand.torsion>
0.3688

> <Gold.PLP.Chemscore.Hbond>
2.0320

> <Gold.PLP.Chemscore.CHOScore>
0.0000

> <Gold.PLP.Chemscore.Metal>
0.0000

> <Gold.Chemscore.Hbonds>
donor molecule, donor type, donor heavy atom, donor atom, acceptor molecule, acceptor atom, score
      L1  H    12    37       P1  7948  0.99
      L1  H    15    38       P1  7948  1.00
      P1  H  7989  7998       L1     3  0.07

> <Gold.PLP.Chemscore.Internal.Correction>
0.0127

> <Gold.Rescore>
     Score         DG    S(hbond)    S(metal)    S(lipo)     H(rot)  DE(clash)    DE(int)     intcor
     16.09     -17.72       1.96        0.00      81.13       1.49       0.25       1.38       ----

> <Gold.Chemscore.Fitness>
16.0937

> <Gold.Chemscore.DG>
-17.7169

> <Gold.Chemscore.ZeroCoef>
-5.4800

> <Gold.Chemscore.Hbond>
1.9632

> <Gold.Chemscore.Metal>
0.0000

> <Gold.Chemscore.Lipo>
81.1348

> <Gold.Chemscore.Internal_Hbond>
0.0000

> <Gold.Chemscore.DEClash>
0.2467

> <Gold.Chemscore.DEInternal>
1.3765

> <Gold.Chemscore.Rot>
1.4894

> <Gold.Chemscore.Internal.Correction>
   9.000000E+99

> <Gold.Chemscore.Hbonds>
donor molecule, donor type, donor heavy atom, donor atom, acceptor molecule, acceptor atom, score
      L1  H    12    37       P1  7948  0.88
      L1  H    15    38       P1  7948  1.00

> <Gold.Chemscore.Hbond.Weighted>
-6.5570

> <Gold.Chemscore.Metal.Weighted>
-0.0000

> <Gold.Chemscore.Lipo.Weighted>
-9.4928

> <Gold.Chemscore.Internal_Hbond.Weighted>
0.0000

> <Gold.Chemscore.DEClash.Weighted>
0.2467

> <Gold.Chemscore.DEInternal.Weighted>
1.3765

> <Gold.Chemscore.Rot.Weighted>
3.8129

> <Gold.Chemscore.Internal.Correction.Weighted>
   9.000000E+99

> <Gold.Protein.RotatedTorsions>
[ 6907 6896 6895 6894 ] final   43.01 input  -60.11 | X-H torsion
[ 7974 7965 7964 7962 ] final   12.01 input  175.53 | X-H torsion
[ 8008 7997 7996 7995 ] final -164.34 input   59.86 | X-H torsion
[ 10167 10162 10161 10158 ] final  169.37 input  -65.29 | X-H torsion
[ 10718 10713 10712 10709 ] final   25.88 input   66.30 | X-H torsion
[ 10763 10752 10751 10750 ] final   40.15 input  -60.55 | X-H torsion
[ 11005 11000 10999 10996 ] final   -9.30 input  -57.11 | X-H torsion

> <Gold.Protein.ActiveResidues>
 VAL166  LYS551  ARG553  GLY616  TRP617  ASP618  TYR619  PRO620  LYS621  CYS622 
 ASP623  PHE694  ASN695  SER759  ASP760  ASP761  ALA762  ILE779  LEU786  VAL792 
 PHE793  MET794  SER795  GLU796  ALA797  LYS798  CYS799  TRP800  GLU811  SER814 

> <Gold.Protein.RotatedAtoms>
  152.2149  134.8467  160.0492 H   0  0  0  0  0  0  0  0  0  0  0  0  # atno 6907 bound_to 6896
  151.9272  133.3596  159.3926 H   0  0  0  0  0  0  0  0  0  0  0  0  # atno 6908 bound_to 6896
  150.6985  134.4500  159.5376 H   0  0  0  0  0  0  0  0  0  0  0  0  # atno 6909 bound_to 6896
  146.2360  139.9400  142.8484 H   0  0  0  0  0  0  0  0  0  0  0  0  # atno 7974 bound_to 7965
  155.8343  140.0938  157.1774 H   0  0  0  0  0  0  0  0  0  0  0  0  # atno 8008 bound_to 7997
  154.3980  140.1413  156.3712 H   0  0  0  0  0  0  0  0  0  0  0  0  # atno 8009 bound_to 7997
  155.8133  140.3449  155.5473 H   0  0  0  0  0  0  0  0  0  0  0  0  # atno 8010 bound_to 7997
  139.4990  144.3714  151.9721 H   0  0  0  0  0  0  0  0  0  0  0  0  # atno 10167 bound_to 10162
  157.1993  130.6882  149.6182 H   0  0  0  0  0  0  0  0  0  0  0  0  # atno 10718 bound_to 10713
  152.9945  135.6200  154.2579 H   0  0  0  0  0  0  0  0  0  0  0  0  # atno 10763 bound_to 10752
  154.2316  135.2792  155.2889 H   0  0  0  0  0  0  0  0  0  0  0  0  # atno 10764 bound_to 10752
  154.5445  135.5751  153.6926 H   0  0  0  0  0  0  0  0  0  0  0  0  # atno 10765 bound_to 10752
  140.7327  133.8736  155.8905 H   0  0  0  0  0  0  0  0  0  0  0  0  # atno 11005 bound_to 11000
  145.1962  140.9834  143.4182 LP  0  0  0  0  0  0  0  0  0  0  0  0  # atno 17320 bound_to 7965
  144.9814  139.3780  143.6260 LP  0  0  0  0  0  0  0  0  0  0  0  0  # atno 17321 bound_to 7965
  140.3150  144.3494  150.6024 LP  0  0  0  0  0  0  0  0  0  0  0  0  # atno 17342 bound_to 10162
  140.5769  143.2176  151.7499 LP  0  0  0  0  0  0  0  0  0  0  0  0  # atno 17343 bound_to 10162
  155.9702  130.4588  150.6013 LP  0  0  0  0  0  0  0  0  0  0  0  0  # atno 17370 bound_to 10713
  157.3783  131.0777  151.1499 LP  0  0  0  0  0  0  0  0  0  0  0  0  # atno 17371 bound_to 10713
  140.9907  134.1282  157.4411 LP  0  0  0  0  0  0  0  0  0  0  0  0  # atno 17394 bound_to 11000
  139.8823  135.0039  156.6218 LP  0  0  0  0  0  0  0  0  0  0  0  0  # atno 17395 bound_to 11000

$$$$
