AV-unprocessed.smi:2369|AV-procd|sdf|9433|dock1
  -GOLD-   2272013 63D 1   1.00000     0.00000
 Structure written by MMmdl.
 40 41  0  0  0  0  0  0  0  0  1 V2000
  153.4414  140.9863  160.0839 C   0  0  0  0  0  0  0  0  0  0  0  0
  152.6569  142.1757  159.5714 C   0  0  0  0  0  0  0  0  0  0  0  0
  152.8008  143.4448  160.1639 C   0  0  0  0  0  0  0  0  0  0  0  0
  152.0423  144.5114  159.6430 C   0  0  0  0  0  0  0  0  0  0  0  0
  152.1464  145.9022  160.2324 C   0  0  0  0  0  0  0  0  0  0  0  0
  151.1865  144.3704  158.6083 N   0  0  0  0  0  0  0  0  0  0  0  0
  151.0390  143.1525  158.0305 C   0  0  0  0  0  0  0  0  0  0  0  0
  150.1663  142.8990  156.9388 N   0  0  0  0  0  0  0  0  0  0  0  0
  150.0915  141.7962  156.1729 C   0  0  0  0  0  0  0  0  0  0  0  0
  150.7915  140.7908  156.3000 O   0  0  0  0  0  0  0  0  0  0  0  0
  149.1447  141.9231  155.2314 N   0  0  0  0  0  0  0  0  0  0  0  0
  148.8035  140.9100  154.2371 C   0  0  2  0  0  0  0  0  0  0  0  0
  147.5057  141.2911  153.4939 C   0  0  0  0  0  0  0  0  0  0  0  0
  147.0864  140.1986  152.4971 C   0  0  0  0  0  0  0  0  0  0  0  0
  146.9417  138.8361  153.1963 C   0  0  1  0  0  0  0  0  0  0  0  0
  146.6239  137.8466  152.2405 O   0  0  0  0  0  0  0  0  0  0  0  0
  148.2391  138.4491  153.9265 C   0  0  0  0  0  0  0  0  0  0  0  0
  148.6575  139.5396  154.9258 C   0  0  0  0  0  0  0  0  0  0  0  0
  151.7633  142.0301  158.4912 C   0  0  0  0  0  0  0  0  0  0  0  0
  154.2545  141.3023  160.7383 H   0  0  0  0  0  0  0  0  0  0  0  0
  153.8729  140.4273  159.2530 H   0  0  0  0  0  0  0  0  0  0  0  0
  152.7885  140.3183  160.6461 H   0  0  0  0  0  0  0  0  0  0  0  0
  153.4740  143.5967  160.9953 H   0  0  0  0  0  0  0  0  0  0  0  0
  152.9590  145.9647  160.9568 H   0  0  0  0  0  0  0  0  0  0  0  0
  151.2172  146.1681  160.7368 H   0  0  0  0  0  0  0  0  0  0  0  0
  152.3347  146.6360  159.4481 H   0  0  0  0  0  0  0  0  0  0  0  0
  149.5254  143.6453  156.7141 H   0  0  0  0  0  0  0  0  0  0  0  0
  148.6179  142.7837  155.2005 H   0  0  0  0  0  0  0  0  0  0  0  0
  149.6168  140.8382  153.5119 H   0  0  0  0  0  0  0  0  0  0  0  0
  146.7011  141.4514  154.2130 H   0  0  0  0  0  0  0  0  0  0  0  0
  147.6374  142.2347  152.9631 H   0  0  0  0  0  0  0  0  0  0  0  0
  146.1469  140.4773  152.0186 H   0  0  0  0  0  0  0  0  0  0  0  0
  147.8310  140.1317  151.7025 H   0  0  0  0  0  0  0  0  0  0  0  0
  146.1222  138.8834  153.9144 H   0  0  0  0  0  0  0  0  0  0  0  0
  147.4144  137.3793  152.0172 H   0  0  0  0  0  0  0  0  0  0  0  0
  148.1076  137.5010  154.4494 H   0  0  0  0  0  0  0  0  0  0  0  0
  149.0413  138.2959  153.2029 H   0  0  0  0  0  0  0  0  0  0  0  0
  149.5974  139.2583  155.4027 H   0  0  0  0  0  0  0  0  0  0  0  0
  147.9138  139.6023  155.7217 H   0  0  0  0  0  0  0  0  0  0  0  0
  151.6366  141.0645  158.0228 H   0  0  0  0  0  0  0  0  0  0  0  0
  1  2  1  0  0  0  0
  1 20  1  0  0  0  0
  1 21  1  0  0  0  0
  1 22  1  0  0  0  0
  2 19  1  0  0  0  0
  2  3  2  0  0  0  0
  3  4  1  0  0  0  0
  3 23  1  0  0  0  0
  4  5  1  0  0  0  0
  4  6  2  0  0  0  0
  5 24  1  0  0  0  0
  5 25  1  0  0  0  0
  5 26  1  0  0  0  0
  6  7  1  0  0  0  0
  7  8  1  0  0  0  0
  7 19  2  0  0  0  0
  8  9  1  0  0  0  0
  8 27  1  0  0  0  0
  9 10  2  0  0  0  0
  9 11  1  0  0  0  0
 11 12  1  0  0  0  0
 11 28  1  0  0  0  0
 12 18  1  0  0  0  0
 12 13  1  0  0  0  0
 12 29  1  0  0  0  0
 13 14  1  0  0  0  0
 13 30  1  0  0  0  0
 13 31  1  0  0  0  0
 14 15  1  0  0  0  0
 14 32  1  0  0  0  0
 14 33  1  0  0  0  0
 15 16  1  0  0  0  0
 15 17  1  0  0  0  0
 15 34  1  0  0  0  0
 16 35  1  0  0  0  0
 17 18  1  0  0  0  0
 17 36  1  0  0  0  0
 17 37  1  0  0  0  0
 18 38  1  0  0  0  0
 18 39  1  0  0  0  0
 19 40  1  0  0  0  0
M  END
> <s_m_source_file>
AV-unprocessed.smi

> <i_m_source_file_index>
2369

> <i_lp_mmshare_version>
43012

> <i_f3d_flags>
0

> <s_epik_input>
W0NIM11jMVtjSF1jKFtDSDNdKW5jKFtjSF0xKVtOSF1DKD1PKVtOSF1bQ0BASF0yW0NIMl1bQ0gyXVtDQEBIXShbT0hdKVtDSDJdW0NIMl0y

> <s_epik_cmdline>
J2VwaWtfcHl0aG9uJywgJy1waCcsICc3LjAnLCAnLXRuJywgJzgnLCAnLW1hJywgJzIwMCcsICctbWV0YWxfYmluZGluZycsICctaW1hZScsICc8aW5maWxlLm1hZT4nLCAnLW9tYWUnLCAnPG91dGZpbGUubWFlPic=

> <r_lp_tautomer_probability>
1

> <r_epik_Ionization_Penalty>
0.000274852

> <r_epik_Ionization_Penalty_Charging>
0

> <r_epik_Ionization_Penalty_Neutral>
0.000274852

> <r_epik_State_Penalty>
-0

> <r_epik_Charging_Adjusted_Penalty>
0

> <i_epik_Tot_Q>
0

> <i_epik_Tot_abs_Q>
0

> <r_epik_Metal_State_Penalty>
-0

> <b_epik_Metal_Only>
0

> <s_lp_Force_Field>
OPLS_2005

> <r_lp_Energy>
9.3444

> <b_lp_Chiralities_Consistent>
1

> <s_lp_Variant>
AV-unprocessed.smi:2369-1

> <Gold.Version>
5.8.1

> <Gold.Id.Protein>
6NUR|6NUR_protein|mol2

> <Gold.PLP.Fitness>
45.5619

> <Gold.PLP.PLP>
-39.3209

> <Gold.PLP.part.hbond>
-3.0000

> <Gold.PLP.part.metal>
0.0000

> <Gold.PLP.part.buried>
-3.4986

> <Gold.PLP.part.nonpolar>
-33.2391

> <Gold.PLP.part.repulsive>
0.3491

> <Gold.PLP.ligand.clash>
1.8587

> <Gold.PLP.ligand.torsion>
0.1518

> <Gold.PLP.Chemscore.Hbond>
2.8000

> <Gold.PLP.Chemscore.CHOScore>
0.0000

> <Gold.PLP.Chemscore.Metal>
0.0000

> <Gold.Chemscore.Hbonds>
donor molecule, donor type, donor heavy atom, donor atom, acceptor molecule, acceptor atom, score
      L1  H     8    27       P1  8028  1.00
      L1  H    11    28       P1  8028  0.78
      L1  H    16    35       P1  7948  1.00

> <Gold.PLP.Chemscore.Internal.Correction>
0.0032

> <Gold.Rescore>
     Score         DG    S(hbond)    S(metal)    S(lipo)     H(rot)  DE(clash)    DE(int)     intcor
     18.82     -23.40       2.74        0.00     105.92       1.42       1.65       2.93       ----

> <Gold.Chemscore.Fitness>
18.8225

> <Gold.Chemscore.DG>
-23.3957

> <Gold.Chemscore.ZeroCoef>
-5.4800

> <Gold.Chemscore.Hbond>
2.7430

> <Gold.Chemscore.Metal>
0.0000

> <Gold.Chemscore.Lipo>
105.9189

> <Gold.Chemscore.Internal_Hbond>
0.0000

> <Gold.Chemscore.DEClash>
1.6472

> <Gold.Chemscore.DEInternal>
2.9261

> <Gold.Chemscore.Rot>
1.4213

> <Gold.Chemscore.Internal.Correction>
   9.000000E+99

> <Gold.Chemscore.Hbonds>
donor molecule, donor type, donor heavy atom, donor atom, acceptor molecule, acceptor atom, score
      L1  H     8    27       P1  8028  0.95
      L1  H    11    28       P1  8028  0.75
      L1  H    16    35       P1  7948  1.00

> <Gold.Chemscore.Hbond.Weighted>
-9.1618

> <Gold.Chemscore.Metal.Weighted>
-0.0000

> <Gold.Chemscore.Lipo.Weighted>
-12.3925

> <Gold.Chemscore.Internal_Hbond.Weighted>
0.0000

> <Gold.Chemscore.DEClash.Weighted>
1.6472

> <Gold.Chemscore.DEInternal.Weighted>
2.9261

> <Gold.Chemscore.Rot.Weighted>
3.6386

> <Gold.Chemscore.Internal.Correction.Weighted>
   9.000000E+99

> <Gold.Protein.RotatedTorsions>
[ 6907 6896 6895 6894 ] final  -38.47 input  -60.11 | X-H torsion
[ 7974 7965 7964 7962 ] final -148.62 input  175.53 | X-H torsion
[ 8008 7997 7996 7995 ] final  136.70 input   59.86 | X-H torsion
[ 10167 10162 10161 10158 ] final  -18.86 input  -65.29 | X-H torsion
[ 10718 10713 10712 10709 ] final -148.09 input   66.30 | X-H torsion
[ 10763 10752 10751 10750 ] final   47.70 input  -60.55 | X-H torsion
[ 11005 11000 10999 10996 ] final  123.67 input  -57.11 | X-H torsion

> <Gold.Protein.ActiveResidues>
 VAL166  LYS551  ARG553  GLY616  TRP617  ASP618  TYR619  PRO620  LYS621  CYS622 
 ASP623  PHE694  ASN695  SER759  ASP760  ASP761  ALA762  ILE779  LEU786  VAL792 
 PHE793  MET794  SER795  GLU796  ALA797  LYS798  CYS799  TRP800  GLU811  SER814 

> <Gold.Protein.RotatedAtoms>
  151.0021  134.9330  159.7959 H   0  0  0  0  0  0  0  0  0  0  0  0  # atno 6907 bound_to 6896
  152.5280  134.3141  159.9134 H   0  0  0  0  0  0  0  0  0  0  0  0  # atno 6908 bound_to 6896
  151.3146  133.4024  159.2684 H   0  0  0  0  0  0  0  0  0  0  0  0  # atno 6909 bound_to 6896
  144.8018  140.5172  143.5702 H   0  0  0  0  0  0  0  0  0  0  0  0  # atno 7974 bound_to 7965
  156.3003  140.2438  156.3789 H   0  0  0  0  0  0  0  0  0  0  0  0  # atno 8008 bound_to 7997
  154.8719  140.0416  157.1749 H   0  0  0  0  0  0  0  0  0  0  0  0  # atno 8009 bound_to 7997
  154.8786  140.2946  155.5442 H   0  0  0  0  0  0  0  0  0  0  0  0  # atno 8010 bound_to 7997
  140.7263  143.4875  151.0036 H   0  0  0  0  0  0  0  0  0  0  0  0  # atno 10167 bound_to 10162
  156.4158  130.8004  151.2224 H   0  0  0  0  0  0  0  0  0  0  0  0  # atno 10718 bound_to 10713
  152.9797  135.5968  154.3805 H   0  0  0  0  0  0  0  0  0  0  0  0  # atno 10763 bound_to 10752
  154.3470  135.2767  155.2394 H   0  0  0  0  0  0  0  0  0  0  0  0  # atno 10764 bound_to 10752
  154.4450  135.6004  153.6209 H   0  0  0  0  0  0  0  0  0  0  0  0  # atno 10765 bound_to 10752
  139.9323  134.9641  156.8294 H   0  0  0  0  0  0  0  0  0  0  0  0  # atno 11005 bound_to 11000
  145.5535  139.1477  143.3381 LP  0  0  0  0  0  0  0  0  0  0  0  0  # atno 17320 bound_to 7965
  146.2301  140.5673  142.8979 LP  0  0  0  0  0  0  0  0  0  0  0  0  # atno 17321 bound_to 7965
  139.8577  143.7355  152.3175 LP  0  0  0  0  0  0  0  0  0  0  0  0  # atno 17342 bound_to 10162
  139.7560  144.7520  151.0435 LP  0  0  0  0  0  0  0  0  0  0  0  0  # atno 17343 bound_to 10162
  157.7508  131.0243  150.3873 LP  0  0  0  0  0  0  0  0  0  0  0  0  # atno 17370 bound_to 10713
  156.4180  130.3947  149.6845 LP  0  0  0  0  0  0  0  0  0  0  0  0  # atno 17371 bound_to 10713
  140.6168  134.0031  155.7601 LP  0  0  0  0  0  0  0  0  0  0  0  0  # atno 17394 bound_to 11000
  141.0919  133.9904  157.3224 LP  0  0  0  0  0  0  0  0  0  0  0  0  # atno 17395 bound_to 11000

$$$$
