AV-unprocessed.smi:1|AV-procd|sdf|3|dock9
  -GOLD-   2262015 83D 1   1.00000     0.00000
 Structure written by MMmdl.
 57 62  0  0  0  0  0  0  0  0  1 V2000
  147.2755  133.7292  152.5079 O   0  0  0  0  0  0  0  0  0  0  0  0
  147.8477  132.7997  153.0780 C   0  0  0  0  0  0  0  0  0  0  0  0
  148.8206  133.0210  154.1330 N   0  0  0  0  0  0  0  0  0  0  0  0
  149.3083  134.1994  154.5864 C   0  0  0  0  0  0  0  0  0  0  0  0
  150.6136  134.3655  154.9259 N   0  0  0  0  0  0  0  0  0  0  0  0
  151.0463  135.5474  155.3734 C   0  0  0  0  0  0  0  0  0  0  0  0
  150.3534  136.6722  155.5581 N   0  0  0  0  0  0  0  0  0  0  0  0
  149.0386  136.5144  155.2251 C   0  0  0  0  0  0  0  0  0  0  0  0
  148.4460  135.3166  154.7359 C   0  0  0  0  0  0  0  0  0  0  0  0
  147.0919  135.5206  154.5056 N   0  0  0  0  0  0  0  0  0  0  0  0
  146.8974  136.7655  154.8482 C   0  0  0  0  0  0  0  0  0  0  0  0
  148.0116  137.4367  155.3003 N   0  0  0  0  0  0  0  0  0  0  0  0
  148.0813  138.8541  155.7790 C   0  0  2  0  0  0  0  0  0  0  0  0
  149.3973  139.2974  155.6497 O   0  0  0  0  0  0  0  0  0  0  0  0
  149.7764  140.0551  156.7900 C   0  0  2  0  0  0  0  0  0  0  0  0
  151.2969  140.0233  156.9853 C   0  0  0  0  0  0  0  0  0  0  0  0
  151.6540  140.9458  158.0011 O   0  0  0  0  0  0  0  0  0  0  0  0
  152.8280  140.8149  158.6485 C   0  0  0  0  0  0  0  0  0  0  0  0
  153.7220  140.0443  158.2923 O   0  0  0  0  0  0  0  0  0  0  0  0
  152.9326  141.7004  159.8441 C   0  0  0  0  0  0  0  0  0  0  0  0
  153.6648  141.2599  160.9713 C   0  0  0  0  0  0  0  0  0  0  0  0
  153.7803  142.0737  162.1149 C   0  0  0  0  0  0  0  0  0  0  0  0
  153.1644  143.3383  162.1457 C   0  0  0  0  0  0  0  0  0  0  0  0
  152.4339  143.7885  161.0306 C   0  0  0  0  0  0  0  0  0  0  0  0
  152.3176  142.9763  159.8858 C   0  0  0  0  0  0  0  0  0  0  0  0
  148.9802  139.4302  157.9336 C   0  0  2  0  0  0  0  0  0  0  0  0
  149.6132  138.2780  158.4624 O   0  0  0  0  0  0  0  0  0  0  0  0
  148.4202  137.1755  158.8440 S   0  0  0  0  0  0  0  0  0  0  0  0
  148.8284  135.8475  158.3623 O   0  0  0  0  0  0  0  0  0  0  0  0
  148.0052  137.4163  160.2346 O   0  0  0  0  0  0  0  0  0  0  0  0
  147.2241  137.7692  157.8389 O   0  0  0  0  0  0  0  0  0  0  0  0
  147.6737  138.9896  157.2615 C   0  0  2  0  0  0  0  0  0  0  0  0
  147.5099  131.3669  152.7860 C   0  0  0  0  0  0  0  0  0  0  0  0
  146.4899  131.0559  151.8587 C   0  0  0  0  0  0  0  0  0  0  0  0
  146.1754  129.7140  151.5682 C   0  0  0  0  0  0  0  0  0  0  0  0
  146.8837  128.6722  152.1961 C   0  0  0  0  0  0  0  0  0  0  0  0
  147.9097  128.9730  153.1116 C   0  0  0  0  0  0  0  0  0  0  0  0
  148.2246  130.3145  153.4036 C   0  0  0  0  0  0  0  0  0  0  0  0
  149.1844  132.1916  154.5790 H   0  0  0  0  0  0  0  0  0  0  0  0
  152.0963  135.5988  155.6206 H   0  0  0  0  0  0  0  0  0  0  0  0
  145.9241  137.2306  154.7907 H   0  0  0  0  0  0  0  0  0  0  0  0
  147.4229  139.4037  155.1052 H   0  0  0  0  0  0  0  0  0  0  0  0
  149.4336  141.0814  156.6472 H   0  0  0  0  0  0  0  0  0  0  0  0
  151.6134  139.0248  157.2887 H   0  0  0  0  0  0  0  0  0  0  0  0
  151.8058  140.2615  156.0501 H   0  0  0  0  0  0  0  0  0  0  0  0
  154.1456  140.2920  160.9714 H   0  0  0  0  0  0  0  0  0  0  0  0
  154.3421  141.7263  162.9693 H   0  0  0  0  0  0  0  0  0  0  0  0
  153.2522  143.9621  163.0230 H   0  0  0  0  0  0  0  0  0  0  0  0
  151.9611  144.7591  161.0525 H   0  0  0  0  0  0  0  0  0  0  0  0
  151.7499  143.3529  159.0474 H   0  0  0  0  0  0  0  0  0  0  0  0
  148.8084  140.1367  158.7464 H   0  0  0  0  0  0  0  0  0  0  0  0
  146.9104  139.7636  157.3447 H   0  0  0  0  0  0  0  0  0  0  0  0
  145.9375  131.8445  151.3680 H   0  0  0  0  0  0  0  0  0  0  0  0
  145.3903  129.4850  150.8628 H   0  0  0  0  0  0  0  0  0  0  0  0
  146.6427  127.6433  151.9728 H   0  0  0  0  0  0  0  0  0  0  0  0
  148.4583  128.1744  153.5888 H   0  0  0  0  0  0  0  0  0  0  0  0
  149.0217  130.5231  154.1026 H   0  0  0  0  0  0  0  0  0  0  0  0
  1  2  2  0  0  0  0
  2  3  1  0  0  0  0
  2 33  1  0  0  0  0
  3  4  1  0  0  0  0
  3 39  1  0  0  0  0
  4  9  1  0  0  0  0
  4  5  2  0  0  0  0
  5  6  1  0  0  0  0
  6  7  2  0  0  0  0
  6 40  1  0  0  0  0
  7  8  1  0  0  0  0
  8 12  1  0  0  0  0
  8  9  2  0  0  0  0
  9 10  1  0  0  0  0
 10 11  2  0  0  0  0
 11 12  1  0  0  0  0
 11 41  1  0  0  0  0
 12 13  1  0  0  0  0
 13 32  1  0  0  0  0
 13 14  1  0  0  0  0
 13 42  1  0  0  0  0
 14 15  1  0  0  0  0
 15 16  1  0  0  0  0
 15 26  1  0  0  0  0
 15 43  1  0  0  0  0
 16 17  1  0  0  0  0
 16 44  1  0  0  0  0
 16 45  1  0  0  0  0
 17 18  1  0  0  0  0
 18 19  2  0  0  0  0
 18 20  1  0  0  0  0
 20 25  1  0  0  0  0
 20 21  2  0  0  0  0
 21 22  1  0  0  0  0
 21 46  1  0  0  0  0
 22 23  2  0  0  0  0
 22 47  1  0  0  0  0
 23 24  1  0  0  0  0
 23 48  1  0  0  0  0
 24 25  2  0  0  0  0
 24 49  1  0  0  0  0
 25 50  1  0  0  0  0
 26 32  1  0  0  0  0
 26 27  1  0  0  0  0
 26 51  1  0  0  0  0
 27 28  1  0  0  0  0
 28 29  2  0  0  0  0
 28 30  2  0  0  0  0
 28 31  1  0  0  0  0
 31 32  1  0  0  0  0
 32 52  1  0  0  0  0
 33 38  1  0  0  0  0
 33 34  2  0  0  0  0
 34 35  1  0  0  0  0
 34 53  1  0  0  0  0
 35 36  2  0  0  0  0
 35 54  1  0  0  0  0
 36 37  1  0  0  0  0
 36 55  1  0  0  0  0
 37 38  2  0  0  0  0
 37 56  1  0  0  0  0
 38 57  1  0  0  0  0
M  END
> <s_m_source_file>
AV-unprocessed.smi

> <i_m_source_file_index>
1

> <i_lp_mmshare_version>
43012

> <i_f3d_flags>
0

> <s_epik_input>
W2NIXTFbY0hdW2NIXVtjSF1bY0hdYzFDKD1PKVtOSF1jKG5bY0hdbjIpYyhjMjMpbltjSF1uM1tDQEBIXShbQ0BIXShbQ0BIXTQ1KU9TKE81KSg9Tyk9TylPW0NASF00W0NIMl1PQyg9TyljNltjSF1bY0hdW2NIXVtjSF1bY0hdNg==

> <s_epik_cmdline>
J2VwaWtfcHl0aG9uJywgJy1waCcsICc3LjAnLCAnLXRuJywgJzgnLCAnLW1hJywgJzIwMCcsICctbWV0YWxfYmluZGluZycsICctaW1hZScsICc8aW5maWxlLm1hZT4nLCAnLW9tYWUnLCAnPG91dGZpbGUubWFlPic=

> <r_lp_tautomer_probability>
1

> <r_epik_Ionization_Penalty>
0.00195722

> <r_epik_Ionization_Penalty_Charging>
0

> <r_epik_Ionization_Penalty_Neutral>
0.00195722

> <r_epik_State_Penalty>
0.00633741

> <r_epik_Charging_Adjusted_Penalty>
0.00633741

> <i_epik_Tot_Q>
0

> <i_epik_Tot_abs_Q>
0

> <r_epik_Metal_State_Penalty>
0.341185

> <b_epik_Metal_Only>
0

> <s_epik_Chemistry_Notes>
This compound has an ester and may undergo hydrolysis at high or low pH. This compound contains an acetal/aminal-like group ( X-CH(R)-Y where X, Y are N, S, or O) that may be acid/base labile, releasing an aldehyde.

> <s_lp_Force_Field>
OPLS_2005

> <r_lp_Energy>
44.5828

> <b_lp_Chiralities_Consistent>
1

> <s_lp_Variant>
AV-unprocessed.smi:1-3

> <Gold.Version>
5.8.1

> <Gold.Id.Protein>
6NUR|6NUR_protein|mol2

> <Gold.PLP.Fitness>
54.8003

> <Gold.PLP.PLP>
-50.3467

> <Gold.PLP.part.hbond>
-3.0000

> <Gold.PLP.part.metal>
0.0000

> <Gold.PLP.part.buried>
-5.1341

> <Gold.PLP.part.nonpolar>
-42.0745

> <Gold.PLP.part.repulsive>
0.3862

> <Gold.PLP.ligand.clash>
0.0000

> <Gold.PLP.ligand.torsion>
1.6915

> <Gold.PLP.Chemscore.Hbond>
2.5453

> <Gold.PLP.Chemscore.CHOScore>
0.0000

> <Gold.PLP.Chemscore.Metal>
0.0000

> <Gold.Chemscore.Hbonds>
donor molecule, donor type, donor heavy atom, donor atom, acceptor molecule, acceptor atom, score
      P1  H  6931  6943       L1    30  0.45
      P1  H  6934  6947       L1    30  0.69
      P1  H  7997  8010       L1    19  0.96

> <Gold.PLP.Chemscore.Internal.Correction>
0.2007

> <Gold.Rescore>
     Score         DG    S(hbond)    S(metal)    S(lipo)     H(rot)  DE(clash)    DE(int)     intcor
     17.75     -21.95       2.40        0.00     118.87       2.13       0.05       4.15       ----

> <Gold.Chemscore.Fitness>
17.7456

> <Gold.Chemscore.DG>
-21.9512

> <Gold.Chemscore.ZeroCoef>
-5.4800

> <Gold.Chemscore.Hbond>
2.4025

> <Gold.Chemscore.Metal>
0.0000

> <Gold.Chemscore.Lipo>
118.8724

> <Gold.Chemscore.Internal_Hbond>
0.0000

> <Gold.Chemscore.DEClash>
0.0533

> <Gold.Chemscore.DEInternal>
4.1522

> <Gold.Chemscore.Rot>
2.1333

> <Gold.Chemscore.Internal.Correction>
   9.000000E+99

> <Gold.Chemscore.Hbonds>
donor molecule, donor type, donor heavy atom, donor atom, acceptor molecule, acceptor atom, score
      P1  H  6931  6943       L1    30  0.44
      P1  H  6934  6947       L1    30  0.70
      P1  H  7997  8010       L1    19  0.88

> <Gold.Chemscore.Hbond.Weighted>
-8.0245

> <Gold.Chemscore.Metal.Weighted>
-0.0000

> <Gold.Chemscore.Lipo.Weighted>
-13.9081

> <Gold.Chemscore.Internal_Hbond.Weighted>
0.0000

> <Gold.Chemscore.DEClash.Weighted>
0.0533

> <Gold.Chemscore.DEInternal.Weighted>
4.1522

> <Gold.Chemscore.Rot.Weighted>
5.4614

> <Gold.Chemscore.Internal.Correction.Weighted>
   9.000000E+99

> <Gold.Protein.RotatedTorsions>
[ 6907 6896 6895 6894 ] final  -51.07 input  -60.11 | X-H torsion
[ 7974 7965 7964 7962 ] final  -81.09 input  175.53 | X-H torsion
[ 8008 7997 7996 7995 ] final   28.14 input   59.86 | X-H torsion
[ 10167 10162 10161 10158 ] final  153.65 input  -65.29 | X-H torsion
[ 10718 10713 10712 10709 ] final  137.34 input   66.30 | X-H torsion
[ 10763 10752 10751 10750 ] final  177.66 input  -60.55 | X-H torsion
[ 11005 11000 10999 10996 ] final -167.00 input  -57.11 | X-H torsion

> <Gold.Protein.ActiveResidues>
 VAL166  LYS551  ARG553  GLY616  TRP617  ASP618  TYR619  PRO620  LYS621  CYS622 
 ASP623  PHE694  ASN695  SER759  ASP760  ASP761  ALA762  ILE779  LEU786  VAL792 
 PHE793  MET794  SER795  GLU796  ALA797  LYS798  CYS799  TRP800  GLU811  SER814 

> <Gold.Protein.RotatedAtoms>
  150.8646  134.8006  159.7108 H   0  0  0  0  0  0  0  0  0  0  0  0  # atno 6907 bound_to 6896
  152.4672  134.5044  159.9744 H   0  0  0  0  0  0  0  0  0  0  0  0  # atno 6908 bound_to 6896
  151.5142  133.3440  159.2926 H   0  0  0  0  0  0  0  0  0  0  0  0  # atno 6909 bound_to 6896
  145.5512  140.9496  143.1498 H   0  0  0  0  0  0  0  0  0  0  0  0  # atno 7974 bound_to 7965
  155.0541  140.3183  155.4682 H   0  0  0  0  0  0  0  0  0  0  0  0  # atno 8008 bound_to 7997
  156.2828  140.2141  156.5611 H   0  0  0  0  0  0  0  0  0  0  0  0  # atno 8009 bound_to 7997
  154.7186  140.0491  157.0606 H   0  0  0  0  0  0  0  0  0  0  0  0  # atno 8010 bound_to 7997
  139.4826  144.5255  151.7808 H   0  0  0  0  0  0  0  0  0  0  0  0  # atno 10167 bound_to 10162
  157.4371  131.1054  151.0185 H   0  0  0  0  0  0  0  0  0  0  0  0  # atno 10718 bound_to 10713
  154.4975  135.2782  155.1448 H   0  0  0  0  0  0  0  0  0  0  0  0  # atno 10763 bound_to 10752
  154.3095  135.6232  153.5463 H   0  0  0  0  0  0  0  0  0  0  0  0  # atno 10764 bound_to 10752
  152.9897  135.5716  154.5410 H   0  0  0  0  0  0  0  0  0  0  0  0  # atno 10765 bound_to 10752
  140.5581  134.5361  157.5137 H   0  0  0  0  0  0  0  0  0  0  0  0  # atno 11005 bound_to 11000
  144.7528  139.7149  143.7266 LP  0  0  0  0  0  0  0  0  0  0  0  0  # atno 17320 bound_to 7965
  146.1915  139.5158  142.9802 LP  0  0  0  0  0  0  0  0  0  0  0  0  # atno 17321 bound_to 7965
  140.4774  144.1499  150.5927 LP  0  0  0  0  0  0  0  0  0  0  0  0  # atno 17342 bound_to 10162
  140.4315  143.2566  151.9589 LP  0  0  0  0  0  0  0  0  0  0  0  0  # atno 17343 bound_to 10162
  157.1061  130.6002  149.5471 LP  0  0  0  0  0  0  0  0  0  0  0  0  # atno 17370 bound_to 10713
  155.9935  130.4996  150.7381 LP  0  0  0  0  0  0  0  0  0  0  0  0  # atno 17371 bound_to 10713
  139.9421  134.7768  156.0652 LP  0  0  0  0  0  0  0  0  0  0  0  0  # atno 17394 bound_to 11000
  141.1131  133.6636  156.3027 LP  0  0  0  0  0  0  0  0  0  0  0  0  # atno 17395 bound_to 11000

$$$$
