AV-unprocessed.smi:317|AV-procd|sdf|2329|dock7
  -GOLD-   2262022233D 1   1.00000     0.00000
 Structure written by MMmdl.
 40 41  0  0  0  0  0  0  0  0  2 V2000
  149.8654  132.9579  155.0066 C   0  0  0  0  0  0  0  0  0  0  0  0
  148.5431  132.9202  155.7939 C   0  0  1  0  0  0  0  0  0  0  0  0
  148.5877  133.7240  157.1071 C   0  0  0  0  0  0  0  0  0  0  0  0
  149.6103  133.2617  157.9664 O   0  0  0  0  0  0  0  0  0  0  0  0
  147.4193  133.3682  154.9748 N   0  0  0  0  0  0  0  0  0  0  0  0
  147.0553  132.8444  153.7960 C   0  0  0  0  0  0  0  0  0  0  0  0
  147.6389  131.9041  153.2573 O   0  0  0  0  0  0  0  0  0  0  0  0
  145.9951  133.4928  153.2853 N   0  0  0  0  0  0  0  0  0  0  0  0
  145.3399  133.2730  152.0398 C   0  0  0  0  0  0  0  0  0  0  0  0
  145.8090  132.3036  151.1157 C   0  0  0  0  0  0  0  0  0  0  0  0
  145.1493  132.1282  149.8847 C   0  0  0  0  0  0  0  0  0  0  0  0
  144.0260  132.9214  149.5957 C   0  0  0  0  0  0  0  0  0  0  0  0
  143.5920  133.8205  150.5027 N   0  3  0  0  0  0  0  0  0  0  0  0
  144.1752  134.0258  151.7104 C   0  0  0  0  0  0  0  0  0  0  0  0
  143.6002  134.9930  152.5657 N   0  0  0  0  0  0  0  0  0  0  0  0
  143.8230  136.4143  152.3274 C   0  0  0  0  0  0  0  0  0  0  0  0
  142.7927  137.1264  153.1990 C   0  0  0  0  0  0  0  0  0  0  0  0
  141.5969  136.1811  153.1309 C   0  0  0  0  0  0  0  0  0  0  0  0
  142.2348  134.7902  153.0401 C   0  0  0  0  0  0  0  0  0  0  0  0
  150.6981  132.6256  155.6270 H   0  0  0  0  0  0  0  0  0  0  0  0
  150.0947  133.9630  154.6515 H   0  0  0  0  0  0  0  0  0  0  0  0
  149.8255  132.3025  154.1360 H   0  0  0  0  0  0  0  0  0  0  0  0
  148.3552  131.8822  156.0743 H   0  0  0  0  0  0  0  0  0  0  0  0
  148.7342  134.7863  156.9084 H   0  0  0  0  0  0  0  0  0  0  0  0
  147.6367  133.6294  157.6323 H   0  0  0  0  0  0  0  0  0  0  0  0
  149.6031  132.3165  157.9608 H   0  0  0  0  0  0  0  0  0  0  0  0
  146.8859  134.1449  155.3374 H   0  0  0  0  0  0  0  0  0  0  0  0
  145.6860  134.3035  153.8011 H   0  0  0  0  0  0  0  0  0  0  0  0
  146.6650  131.6832  151.3331 H   0  0  0  0  0  0  0  0  0  0  0  0
  145.5020  131.3961  149.1728 H   0  0  0  0  0  0  0  0  0  0  0  0
  143.4594  132.8592  148.6780 H   0  0  0  0  0  0  0  0  0  0  0  0
  144.8416  136.7071  152.5834 H   0  0  0  0  0  0  0  0  0  0  0  0
  143.6468  136.6589  151.2791 H   0  0  0  0  0  0  0  0  0  0  0  0
  143.1550  137.1959  154.2257 H   0  0  0  0  0  0  0  0  0  0  0  0
  142.5632  138.1336  152.8501 H   0  0  0  0  0  0  0  0  0  0  0  0
  140.9240  136.2836  153.9829 H   0  0  0  0  0  0  0  0  0  0  0  0
  141.0239  136.3828  152.2246 H   0  0  0  0  0  0  0  0  0  0  0  0
  141.6639  134.1351  152.3803 H   0  0  0  0  0  0  0  0  0  0  0  0
  142.2690  134.3321  154.0291 H   0  0  0  0  0  0  0  0  0  0  0  0
  142.7678  134.3739  150.2681 H   0  0  0  0  0  0  0  0  0  0  0  0
  1  2  1  0  0  0  0
  1 20  1  0  0  0  0
  1 21  1  0  0  0  0
  1 22  1  0  0  0  0
  2  3  1  0  0  0  0
  2  5  1  0  0  0  0
  2 23  1  0  0  0  0
  3  4  1  0  0  0  0
  3 24  1  0  0  0  0
  3 25  1  0  0  0  0
  4 26  1  0  0  0  0
  5  6  1  0  0  0  0
  5 27  1  0  0  0  0
  6  7  2  0  0  0  0
  6  8  1  0  0  0  0
  8  9  1  0  0  0  0
  8 28  1  0  0  0  0
  9 14  1  0  0  0  0
  9 10  2  0  0  0  0
 10 11  1  0  0  0  0
 10 29  1  0  0  0  0
 11 12  2  0  0  0  0
 11 30  1  0  0  0  0
 12 13  1  0  0  0  0
 12 31  1  0  0  0  0
 13 14  2  0  0  0  0
 13 40  1  0  0  0  0
 14 15  1  0  0  0  0
 15 19  1  0  0  0  0
 15 16  1  0  0  0  0
 16 17  1  0  0  0  0
 16 32  1  0  0  0  0
 16 33  1  0  0  0  0
 17 18  1  0  0  0  0
 17 34  1  0  0  0  0
 17 35  1  0  0  0  0
 18 19  1  0  0  0  0
 18 36  1  0  0  0  0
 18 37  1  0  0  0  0
 19 38  1  0  0  0  0
 19 39  1  0  0  0  0
M  CHG  1  13   1
M  END
> <s_m_source_file>
AV-unprocessed.smi

> <i_m_source_file_index>
317

> <i_lp_mmshare_version>
43012

> <i_f3d_flags>
0

> <s_epik_input>
W09IXVtDSDJdW0NAQEhdKFtDSDNdKVtOSF1DKD1PKVtOSF1jMVtjSF1bY0hdW2NIXW5jMU4yW0NIMl1bQ0gyXVtDSDJdW0NIMl0y

> <s_epik_cmdline>
J2VwaWtfcHl0aG9uJywgJy1waCcsICc3LjAnLCAnLXRuJywgJzgnLCAnLW1hJywgJzIwMCcsICctbWV0YWxfYmluZGluZycsICctaW1hZScsICc8aW5maWxlLm1hZT4nLCAnLW9tYWUnLCAnPG91dGZpbGUubWFlPic=

> <r_lp_tautomer_probability>
0.999994

> <r_epik_Ionization_Penalty>
1.11558

> <r_epik_Ionization_Penalty_Charging>
1.11556

> <r_epik_Ionization_Penalty_Neutral>
2.02999e-05

> <r_epik_State_Penalty>
1.17393

> <r_epik_Charging_Adjusted_Penalty>
2.28949

> <i_epik_Tot_Q>
1

> <i_epik_Tot_abs_Q>
1

> <r_epik_Metal_State_Penalty>
1.25924

> <b_epik_Metal_Only>
0

> <s_lp_Force_Field>
OPLS_2005

> <r_lp_Energy>
42.0309

> <b_lp_Chiralities_Consistent>
1

> <s_lp_Variant>
AV-unprocessed.smi:317-4

> <Gold.Version>
5.8.1

> <Gold.Id.Protein>
6NUR|6NUR_protein|mol2

> <Gold.PLP.Fitness>
38.5270

> <Gold.PLP.PLP>
-29.6557

> <Gold.PLP.part.hbond>
-2.0000

> <Gold.PLP.part.metal>
0.0000

> <Gold.PLP.part.buried>
-7.0088

> <Gold.PLP.part.nonpolar>
-20.4724

> <Gold.PLP.part.repulsive>
0.2605

> <Gold.PLP.ligand.clash>
0.0000

> <Gold.PLP.ligand.torsion>
0.2626

> <Gold.PLP.Chemscore.Hbond>
3.0000

> <Gold.PLP.Chemscore.CHOScore>
0.0000

> <Gold.PLP.Chemscore.Metal>
0.0000

> <Gold.Chemscore.Hbonds>
donor molecule, donor type, donor heavy atom, donor atom, acceptor molecule, acceptor atom, score
      L1  H    13    40       P1 10186  1.95
      P1  H  6896  6909       L1     4  1.00

> <Gold.PLP.Chemscore.Internal.Correction>
0.3966

> <Gold.Rescore>
     Score         DG    S(hbond)    S(metal)    S(lipo)     H(rot)  DE(clash)    DE(int)     intcor
     12.66     -14.58       1.94        0.00      68.60       2.11       0.00       1.92       ----

> <Gold.Chemscore.Fitness>
12.6613

> <Gold.Chemscore.DG>
-14.5835

> <Gold.Chemscore.ZeroCoef>
-5.4800

> <Gold.Chemscore.Hbond>
1.9399

> <Gold.Chemscore.Metal>
0.0000

> <Gold.Chemscore.Lipo>
68.5955

> <Gold.Chemscore.Internal_Hbond>
0.0000

> <Gold.Chemscore.DEClash>
0.0048

> <Gold.Chemscore.DEInternal>
1.9174

> <Gold.Chemscore.Rot>
2.1099

> <Gold.Chemscore.Internal.Correction>
   9.000000E+99

> <Gold.Chemscore.Hbonds>
donor molecule, donor type, donor heavy atom, donor atom, acceptor molecule, acceptor atom, score
      L1  H    13    40       P1 10186  0.73
      P1  H  6896  6909       L1     4  0.70

> <Gold.Chemscore.Hbond.Weighted>
-6.4792

> <Gold.Chemscore.Metal.Weighted>
-0.0000

> <Gold.Chemscore.Lipo.Weighted>
-8.0257

> <Gold.Chemscore.Internal_Hbond.Weighted>
0.0000

> <Gold.Chemscore.DEClash.Weighted>
0.0048

> <Gold.Chemscore.DEInternal.Weighted>
1.9174

> <Gold.Chemscore.Rot.Weighted>
5.4015

> <Gold.Chemscore.Internal.Correction.Weighted>
   9.000000E+99

> <Gold.Protein.RotatedTorsions>
[ 6907 6896 6895 6894 ] final    4.20 input  -60.11 | X-H torsion
[ 7974 7965 7964 7962 ] final  127.33 input  175.53 | X-H torsion
[ 8008 7997 7996 7995 ] final  -92.92 input   59.86 | X-H torsion
[ 10167 10162 10161 10158 ] final   31.93 input  -65.29 | X-H torsion
[ 10718 10713 10712 10709 ] final  144.71 input   66.30 | X-H torsion
[ 10763 10752 10751 10750 ] final  -95.13 input  -60.55 | X-H torsion
[ 11005 11000 10999 10996 ] final  146.15 input  -57.11 | X-H torsion

> <Gold.Protein.ActiveResidues>
 VAL166  LYS551  ARG553  GLY616  TRP617  ASP618  TYR619  PRO620  LYS621  CYS622 
 ASP623  PHE694  ASN695  SER759  ASP760  ASP761  ALA762  ILE779  LEU786  VAL792 
 PHE793  MET794  SER795  GLU796  ALA797  LYS798  CYS799  TRP800  GLU811  SER814 

> <Gold.Protein.RotatedAtoms>
  151.6374  135.1016  160.0134 H   0  0  0  0  0  0  0  0  0  0  0  0  # atno 6907 bound_to 6896
  152.4073  133.6904  159.6376 H   0  0  0  0  0  0  0  0  0  0  0  0  # atno 6908 bound_to 6896
  150.7966  133.8603  159.3271 H   0  0  0  0  0  0  0  0  0  0  0  0  # atno 6909 bound_to 6896
  145.0518  139.3877  143.5050 H   0  0  0  0  0  0  0  0  0  0  0  0  # atno 7974 bound_to 7965
  154.7291  140.0504  157.0710 H   0  0  0  0  0  0  0  0  0  0  0  0  # atno 8008 bound_to 7997
  155.0325  140.3159  155.4734 H   0  0  0  0  0  0  0  0  0  0  0  0  # atno 8009 bound_to 7997
  156.2837  140.2147  156.5447 H   0  0  0  0  0  0  0  0  0  0  0  0  # atno 8010 bound_to 7997
  140.4544  144.1000  150.6198 H   0  0  0  0  0  0  0  0  0  0  0  0  # atno 10167 bound_to 10162
  157.3540  131.0955  151.0975 H   0  0  0  0  0  0  0  0  0  0  0  0  # atno 10718 bound_to 10713
  154.7120  135.5132  153.8681 H   0  0  0  0  0  0  0  0  0  0  0  0  # atno 10763 bound_to 10752
  153.0788  135.6625  154.0097 H   0  0  0  0  0  0  0  0  0  0  0  0  # atno 10764 bound_to 10752
  153.9937  135.3017  155.3389 H   0  0  0  0  0  0  0  0  0  0  0  0  # atno 10765 bound_to 10752
  140.0769  134.9119  157.1438 H   0  0  0  0  0  0  0  0  0  0  0  0  # atno 11005 bound_to 11000
  146.3518  140.0172  142.8662 LP  0  0  0  0  0  0  0  0  0  0  0  0  # atno 17320 bound_to 7965
  145.1518  140.9627  143.4428 LP  0  0  0  0  0  0  0  0  0  0  0  0  # atno 17321 bound_to 7965
  140.4169  143.2630  151.9764 LP  0  0  0  0  0  0  0  0  0  0  0  0  # atno 17342 bound_to 10162
  139.4799  144.5866  151.7843 LP  0  0  0  0  0  0  0  0  0  0  0  0  # atno 17343 bound_to 10162
  157.2140  130.6451  149.5785 LP  0  0  0  0  0  0  0  0  0  0  0  0  # atno 17370 bound_to 10713
  155.9726  130.4651  150.6240 LP  0  0  0  0  0  0  0  0  0  0  0  0  # atno 17371 bound_to 10713
  140.3544  134.2563  155.7194 LP  0  0  0  0  0  0  0  0  0  0  0  0  # atno 17394 bound_to 11000
  141.2033  133.7916  157.0347 LP  0  0  0  0  0  0  0  0  0  0  0  0  # atno 17395 bound_to 11000

$$$$
