AV-unprocessed.smi:653|AV-procd|sdf|3210|dock6
  -GOLD-   22720 0143D 1   1.00000     0.00000
 Structure written by MMmdl.
 45 46  0  0  0  0  0  0  0  0  2 V2000
  149.3822  134.2134  154.6602 C   0  0  0  0  0  0  0  0  0  0  0  0
  150.2542  135.3582  155.1314 C   0  0  0  0  0  0  0  0  0  0  0  0
  150.9749  135.3040  156.3437 C   0  0  0  0  0  0  0  0  0  0  0  0
  151.7747  136.4032  156.7194 C   0  0  0  0  0  0  0  0  0  0  0  0
  151.8383  137.5347  155.8763 C   0  0  0  0  0  0  0  0  0  0  0  0
  152.6964  138.7326  156.2495 C   0  0  0  0  0  0  0  0  0  0  0  0
  152.3169  139.2969  157.6233 C   0  0  0  0  0  0  0  0  0  0  0  0
  152.0389  138.5448  158.5587 O   0  0  0  0  0  0  0  0  0  0  0  0
  152.3138  140.6340  157.7306 N   0  0  0  0  0  0  0  0  0  0  0  0
  151.9802  141.3776  158.9412 C   0  0  0  0  0  0  0  0  0  0  0  0
  153.1868  142.1802  159.4899 C   0  0  2  0  0  0  0  0  0  0  0  0
  153.8883  141.4656  160.6374 C   0  0  0  0  0  0  0  0  0  0  0  0
  153.1150  141.9299  161.8746 C   0  0  0  0  0  0  0  0  0  0  0  0
  152.3502  143.0589  161.4617 O   0  0  0  0  0  0  0  0  0  0  0  0
  152.8114  143.4973  160.1907 C   0  0  2  0  0  0  0  0  0  0  0  0
  151.7766  144.4073  159.4906 C   0  0  0  0  0  0  0  0  0  0  0  0
  152.0270  144.4917  157.9749 C   0  0  0  0  0  0  0  0  0  0  0  0
  151.7795  145.8175  160.1023 C   0  0  0  0  0  0  0  0  0  0  0  0
  151.0939  137.5326  154.6764 C   0  0  0  0  0  0  0  0  0  0  0  0
  150.3415  136.4589  154.3512 N   0  3  0  0  0  0  0  0  0  0  0  0
  149.0431  133.6119  155.5041 H   0  0  0  0  0  0  0  0  0  0  0  0
  149.9411  133.5686  153.9817 H   0  0  0  0  0  0  0  0  0  0  0  0
  148.5018  134.5858  154.1353 H   0  0  0  0  0  0  0  0  0  0  0  0
  150.9193  134.4311  156.9780 H   0  0  0  0  0  0  0  0  0  0  0  0
  152.3355  136.3748  157.6424 H   0  0  0  0  0  0  0  0  0  0  0  0
  153.7481  138.4446  156.2617 H   0  0  0  0  0  0  0  0  0  0  0  0
  152.5882  139.5043  155.4856 H   0  0  0  0  0  0  0  0  0  0  0  0
  152.5595  141.1781  156.9161 H   0  0  0  0  0  0  0  0  0  0  0  0
  151.1378  142.0350  158.7251 H   0  0  0  0  0  0  0  0  0  0  0  0
  151.6265  140.6665  159.6883 H   0  0  0  0  0  0  0  0  0  0  0  0
  153.8873  142.3740  158.6766 H   0  0  0  0  0  0  0  0  0  0  0  0
  153.9148  140.3804  160.5389 H   0  0  0  0  0  0  0  0  0  0  0  0
  154.9210  141.8109  160.7038 H   0  0  0  0  0  0  0  0  0  0  0  0
  152.4383  141.1550  162.2353 H   0  0  0  0  0  0  0  0  0  0  0  0
  153.7900  142.1974  162.6879 H   0  0  0  0  0  0  0  0  0  0  0  0
  153.7248  144.0726  160.3578 H   0  0  0  0  0  0  0  0  0  0  0  0
  150.7798  143.9954  159.6486 H   0  0  0  0  0  0  0  0  0  0  0  0
  153.0127  144.9061  157.7608 H   0  0  0  0  0  0  0  0  0  0  0  0
  151.2868  145.1287  157.4901 H   0  0  0  0  0  0  0  0  0  0  0  0
  151.9704  143.5126  157.4996 H   0  0  0  0  0  0  0  0  0  0  0  0
  152.7548  146.2939  159.9998 H   0  0  0  0  0  0  0  0  0  0  0  0
  151.5328  145.7895  161.1640 H   0  0  0  0  0  0  0  0  0  0  0  0
  151.0437  146.4585  159.6158 H   0  0  0  0  0  0  0  0  0  0  0  0
  151.0829  138.3485  153.9682 H   0  0  0  0  0  0  0  0  0  0  0  0
  149.8172  136.4789  153.4762 H   0  0  0  0  0  0  0  0  0  0  0  0
  1  2  1  0  0  0  0
  1 21  1  0  0  0  0
  1 22  1  0  0  0  0
  1 23  1  0  0  0  0
  2 20  1  0  0  0  0
  2  3  2  0  0  0  0
  3  4  1  0  0  0  0
  3 24  1  0  0  0  0
  4  5  2  0  0  0  0
  4 25  1  0  0  0  0
  5  6  1  0  0  0  0
  5 19  1  0  0  0  0
  6  7  1  0  0  0  0
  6 26  1  0  0  0  0
  6 27  1  0  0  0  0
  7  8  2  0  0  0  0
  7  9  1  0  0  0  0
  9 10  1  0  0  0  0
  9 28  1  0  0  0  0
 10 11  1  0  0  0  0
 10 29  1  0  0  0  0
 10 30  1  0  0  0  0
 11 15  1  0  0  0  0
 11 12  1  0  0  0  0
 11 31  1  0  0  0  0
 12 13  1  0  0  0  0
 12 32  1  0  0  0  0
 12 33  1  0  0  0  0
 13 14  1  0  0  0  0
 13 34  1  0  0  0  0
 13 35  1  0  0  0  0
 14 15  1  0  0  0  0
 15 16  1  0  0  0  0
 15 36  1  0  0  0  0
 16 17  1  0  0  0  0
 16 18  1  0  0  0  0
 16 37  1  0  0  0  0
 17 38  1  0  0  0  0
 17 39  1  0  0  0  0
 17 40  1  0  0  0  0
 18 41  1  0  0  0  0
 18 42  1  0  0  0  0
 18 43  1  0  0  0  0
 19 20  2  0  0  0  0
 19 44  1  0  0  0  0
 20 45  1  0  0  0  0
M  CHG  1  20   1
M  END
> <s_m_source_file>
AV-unprocessed.smi

> <i_m_source_file_index>
653

> <i_lp_mmshare_version>
43012

> <i_f3d_flags>
0

> <s_epik_input>
W0NIM11jMVtjSF1bY0hdYyhbY0hdbjEpW0NIMl1DKD1PKVtOSF1bQ0gyXVtDQEBIXTJbQ0gyXVtDSDJdT1tDQEhdMltDSF0oW0NIM10pW0NIM10=

> <s_epik_cmdline>
J2VwaWtfcHl0aG9uJywgJy1waCcsICc3LjAnLCAnLXRuJywgJzgnLCAnLW1hJywgJzIwMCcsICctbWV0YWxfYmluZGluZycsICctaW1hZScsICc8aW5maWxlLm1hZT4nLCAnLW9tYWUnLCAnPG91dGZpbGUubWFlPic=

> <r_epik_Ionization_Penalty>
2.12486

> <r_epik_Ionization_Penalty_Charging>
2.12486

> <r_epik_Ionization_Penalty_Neutral>
9.0873e-08

> <r_epik_State_Penalty>
2.26279

> <r_epik_Charging_Adjusted_Penalty>
4.38765

> <i_epik_Tot_Q>
1

> <i_epik_Tot_abs_Q>
1

> <r_epik_Metal_State_Penalty>
2.27914

> <b_epik_Metal_Only>
0

> <s_lp_Force_Field>
OPLS_2005

> <r_lp_Energy>
28.354

> <b_lp_Chiralities_Consistent>
1

> <s_lp_Variant>
AV-unprocessed.smi:653-7

> <Gold.Version>
5.8.1

> <Gold.Id.Protein>
6NUR|6NUR_protein|mol2

> <Gold.PLP.Fitness>
49.5135

> <Gold.PLP.PLP>
-45.5974

> <Gold.PLP.part.hbond>
-1.9529

> <Gold.PLP.part.metal>
0.0000

> <Gold.PLP.part.buried>
-4.7179

> <Gold.PLP.part.nonpolar>
-39.9453

> <Gold.PLP.part.repulsive>
0.2691

> <Gold.PLP.ligand.clash>
0.0000

> <Gold.PLP.ligand.torsion>
1.0711

> <Gold.PLP.Chemscore.Hbond>
2.0000

> <Gold.PLP.Chemscore.CHOScore>
0.0000

> <Gold.PLP.Chemscore.Metal>
0.0000

> <Gold.Chemscore.Hbonds>
donor molecule, donor type, donor heavy atom, donor atom, acceptor molecule, acceptor atom, score
      L1  H    20    45       P1  7948  2.00

> <Gold.PLP.Chemscore.Internal.Correction>
0.0582

> <Gold.Rescore>
     Score         DG    S(hbond)    S(metal)    S(lipo)     H(rot)  DE(clash)    DE(int)     intcor
     16.87     -19.46       0.88        0.00     128.85       1.57       0.20       2.38       ----

> <Gold.Chemscore.Fitness>
16.8743

> <Gold.Chemscore.DG>
-19.4590

> <Gold.Chemscore.ZeroCoef>
-5.4800

> <Gold.Chemscore.Hbond>
0.8752

> <Gold.Chemscore.Metal>
0.0000

> <Gold.Chemscore.Lipo>
128.8505

> <Gold.Chemscore.Internal_Hbond>
0.0000

> <Gold.Chemscore.DEClash>
0.2047

> <Gold.Chemscore.DEInternal>
2.3800

> <Gold.Chemscore.Rot>
1.5701

> <Gold.Chemscore.Internal.Correction>
   9.000000E+99

> <Gold.Chemscore.Hbonds>
donor molecule, donor type, donor heavy atom, donor atom, acceptor molecule, acceptor atom, score
      L1  H    20    45       P1  7948  0.26

> <Gold.Chemscore.Hbond.Weighted>
-2.9231

> <Gold.Chemscore.Metal.Weighted>
-0.0000

> <Gold.Chemscore.Lipo.Weighted>
-15.0755

> <Gold.Chemscore.Internal_Hbond.Weighted>
0.0000

> <Gold.Chemscore.DEClash.Weighted>
0.2047

> <Gold.Chemscore.DEInternal.Weighted>
2.3800

> <Gold.Chemscore.Rot.Weighted>
4.0196

> <Gold.Chemscore.Internal.Correction.Weighted>
   9.000000E+99

> <Gold.Protein.RotatedTorsions>
[ 6907 6896 6895 6894 ] final  -38.37 input  -60.11 | X-H torsion
[ 7974 7965 7964 7962 ] final   32.38 input  175.53 | X-H torsion
[ 8008 7997 7996 7995 ] final -108.40 input   59.86 | X-H torsion
[ 10167 10162 10161 10158 ] final -155.80 input  -65.29 | X-H torsion
[ 10718 10713 10712 10709 ] final   33.82 input   66.30 | X-H torsion
[ 10763 10752 10751 10750 ] final  121.76 input  -60.55 | X-H torsion
[ 11005 11000 10999 10996 ] final  -59.55 input  -57.11 | X-H torsion

> <Gold.Protein.ActiveResidues>
 VAL166  LYS551  ARG553  GLY616  TRP617  ASP618  TYR619  PRO620  LYS621  CYS622 
 ASP623  PHE694  ASN695  SER759  ASP760  ASP761  ALA762  ILE779  LEU786  VAL792 
 PHE793  MET794  SER795  GLU796  ALA797  LYS798  CYS799  TRP800  GLU811  SER814 

> <Gold.Protein.RotatedAtoms>
  151.0032  134.9339  159.7965 H   0  0  0  0  0  0  0  0  0  0  0  0  # atno 6907 bound_to 6896
  152.5283  134.3126  159.9129 H   0  0  0  0  0  0  0  0  0  0  0  0  # atno 6908 bound_to 6896
  151.3132  133.4030  159.2683 H   0  0  0  0  0  0  0  0  0  0  0  0  # atno 6909 bound_to 6896
  146.1490  139.6533  142.9112 H   0  0  0  0  0  0  0  0  0  0  0  0  # atno 7974 bound_to 7965
  154.9437  140.0402  157.2109 H   0  0  0  0  0  0  0  0  0  0  0  0  # atno 8008 bound_to 7997
  154.8045  140.2857  155.5876 H   0  0  0  0  0  0  0  0  0  0  0  0  # atno 8009 bound_to 7997
  156.2965  140.2549  156.2920 H   0  0  0  0  0  0  0  0  0  0  0  0  # atno 8010 bound_to 7997
  139.6902  143.9433  152.2381 H   0  0  0  0  0  0  0  0  0  0  0  0  # atno 10167 bound_to 10162
  157.3026  130.7358  149.6676 H   0  0  0  0  0  0  0  0  0  0  0  0  # atno 10718 bound_to 10713
  153.6191  135.3416  155.3005 H   0  0  0  0  0  0  0  0  0  0  0  0  # atno 10763 bound_to 10752
  154.8603  135.4268  154.2226 H   0  0  0  0  0  0  0  0  0  0  0  0  # atno 10764 bound_to 10752
  153.3095  135.7030  153.7201 H   0  0  0  0  0  0  0  0  0  0  0  0  # atno 10765 bound_to 10752
  141.1252  133.6617  156.5088 H   0  0  0  0  0  0  0  0  0  0  0  0  # atno 11005 bound_to 11000
  145.4869  141.0438  143.2615 LP  0  0  0  0  0  0  0  0  0  0  0  0  # atno 17320 bound_to 7965
  144.7881  139.6385  143.7125 LP  0  0  0  0  0  0  0  0  0  0  0  0  # atno 17321 bound_to 7965
  139.9247  144.6778  150.8424 LP  0  0  0  0  0  0  0  0  0  0  0  0  # atno 17342 bound_to 10162
  140.7680  143.3350  151.2329 LP  0  0  0  0  0  0  0  0  0  0  0  0  # atno 17343 bound_to 10162
  155.9672  130.4275  150.4748 LP  0  0  0  0  0  0  0  0  0  0  0  0  # atno 17370 bound_to 10713
  157.2732  131.0591  151.2246 LP  0  0  0  0  0  0  0  0  0  0  0  0  # atno 17371 bound_to 10713
  140.4386  134.7037  157.4979 LP  0  0  0  0  0  0  0  0  0  0  0  0  # atno 17394 bound_to 11000
  140.0245  134.6498  155.9193 LP  0  0  0  0  0  0  0  0  0  0  0  0  # atno 17395 bound_to 11000

$$$$
