AV-unprocessed.smi:2424|AV-procd|sdf|9566|dock7
  -GOLD-   2272013193D 1   1.00000     0.00000
 Structure written by MMmdl.
 50 51  0  0  0  0  0  0  0  0  1 V2000
  146.6665  140.3082  156.9400 C   0  0  0  0  0  0  0  0  0  0  0  0
  147.1247  138.8395  156.9544 C   0  0  0  0  0  0  0  0  0  0  0  0
  147.6092  138.2775  155.5944 C   0  0  0  0  0  0  0  0  0  0  0  0
  148.3213  136.9237  155.8512 C   0  0  0  0  0  0  0  0  0  0  0  0
  149.5428  136.9975  156.7831 C   0  0  0  0  0  0  0  0  0  0  0  0
  146.5167  138.3024  154.4848 C   0  0  2  0  0  0  0  0  0  0  0  0
  146.7099  137.2799  153.4535 N   0  0  0  0  0  0  0  0  0  0  0  0
  145.7444  136.5287  152.9094 C   0  0  0  0  0  0  0  0  0  0  0  0
  144.5572  136.6268  153.2162 O   0  0  0  0  0  0  0  0  0  0  0  0
  146.2638  135.6699  152.0138 N   0  0  0  0  0  0  0  0  0  0  0  0
  145.6155  134.7102  151.2247 C   0  0  0  0  0  0  0  0  0  0  0  0
  144.5467  135.1067  150.5122 C   0  0  0  0  0  0  0  0  0  0  0  0
  143.8415  134.2214  149.6942 N   0  0  0  0  0  0  0  0  0  0  0  0
  144.1532  132.9144  149.5425 C   0  0  0  0  0  0  0  0  0  0  0  0
  143.4868  132.1973  148.7984 O   0  0  0  0  0  0  0  0  0  0  0  0
  145.3133  132.4464  150.3183 C   0  0  0  0  0  0  0  0  0  0  0  0
  145.7068  130.9846  150.2003 C   0  0  0  0  0  0  0  0  0  0  0  0
  145.9958  133.3059  151.1104 C   0  0  0  0  0  0  0  0  0  0  0  0
  147.0387  139.6751  154.0286 C   0  0  2  0  0  0  0  0  0  0  0  0
  147.0162  140.0967  152.5605 C   0  0  0  0  0  0  0  0  0  0  0  0
  148.3655  139.3221  154.7209 C   0  0  2  0  0  0  0  0  0  0  0  0
  149.2802  138.7512  153.7919 O   0  0  0  0  0  0  0  0  0  0  0  0
  150.5585  138.5050  154.3528 C   0  0  0  0  0  0  0  0  0  0  0  0
  143.0533  134.5949  149.1857 H   0  0  0  0  0  0  0  0  0  0  0  0
  146.2115  140.5736  157.8943 H   0  0  0  0  0  0  0  0  0  0  0  0
  145.9262  140.4944  156.1626 H   0  0  0  0  0  0  0  0  0  0  0  0
  147.4992  140.9933  156.7854 H   0  0  0  0  0  0  0  0  0  0  0  0
  147.8894  138.7105  157.7195 H   0  0  0  0  0  0  0  0  0  0  0  0
  146.2842  138.2486  157.3183 H   0  0  0  0  0  0  0  0  0  0  0  0
  147.6252  136.2108  156.2923 H   0  0  0  0  0  0  0  0  0  0  0  0
  148.6185  136.4543  154.9149 H   0  0  0  0  0  0  0  0  0  0  0  0
  149.9059  135.9962  157.0153 H   0  0  0  0  0  0  0  0  0  0  0  0
  149.3003  137.4850  157.7272 H   0  0  0  0  0  0  0  0  0  0  0  0
  150.3704  137.5391  156.3265 H   0  0  0  0  0  0  0  0  0  0  0  0
  145.5031  138.3469  154.8873 H   0  0  0  0  0  0  0  0  0  0  0  0
  147.6583  137.1355  153.1387 H   0  0  0  0  0  0  0  0  0  0  0  0
  147.2655  135.7063  151.8940 H   0  0  0  0  0  0  0  0  0  0  0  0
  144.1575  136.1145  150.5057 H   0  0  0  0  0  0  0  0  0  0  0  0
  146.5693  130.7512  150.8254 H   0  0  0  0  0  0  0  0  0  0  0  0
  145.9629  130.7417  149.1685 H   0  0  0  0  0  0  0  0  0  0  0  0
  144.8826  130.3414  150.5105 H   0  0  0  0  0  0  0  0  0  0  0  0
  146.8318  132.9121  151.6643 H   0  0  0  0  0  0  0  0  0  0  0  0
  146.5367  140.4402  154.6227 H   0  0  0  0  0  0  0  0  0  0  0  0
  147.5454  139.3907  151.9208 H   0  0  0  0  0  0  0  0  0  0  0  0
  147.4855  141.0713  152.4263 H   0  0  0  0  0  0  0  0  0  0  0  0
  145.9934  140.1704  152.1907 H   0  0  0  0  0  0  0  0  0  0  0  0
  148.7782  140.1743  155.2632 H   0  0  0  0  0  0  0  0  0  0  0  0
  151.1976  138.0302  153.6087 H   0  0  0  0  0  0  0  0  0  0  0  0
  150.4991  137.8446  155.2179 H   0  0  0  0  0  0  0  0  0  0  0  0
  151.0356  139.4364  154.6595 H   0  0  0  0  0  0  0  0  0  0  0  0
  1  2  1  0  0  0  0
  1 25  1  0  0  0  0
  1 26  1  0  0  0  0
  1 27  1  0  0  0  0
  2  3  1  0  0  0  0
  2 28  1  0  0  0  0
  2 29  1  0  0  0  0
  3 21  1  0  0  0  0
  3  4  1  0  0  0  0
  3  6  1  0  0  0  0
  4  5  1  0  0  0  0
  4 30  1  0  0  0  0
  4 31  1  0  0  0  0
  5 32  1  0  0  0  0
  5 33  1  0  0  0  0
  5 34  1  0  0  0  0
  6  7  1  0  0  0  0
  6 19  1  0  0  0  0
  6 35  1  0  0  0  0
  7  8  1  0  0  0  0
  7 36  1  0  0  0  0
  8  9  2  0  0  0  0
  8 10  1  0  0  0  0
 10 11  1  0  0  0  0
 10 37  1  0  0  0  0
 11 18  1  0  0  0  0
 11 12  2  0  0  0  0
 12 13  1  0  0  0  0
 12 38  1  0  0  0  0
 13 24  1  0  0  0  0
 13 14  1  0  0  0  0
 14 15  2  0  0  0  0
 14 16  1  0  0  0  0
 16 17  1  0  0  0  0
 16 18  2  0  0  0  0
 17 39  1  0  0  0  0
 17 40  1  0  0  0  0
 17 41  1  0  0  0  0
 18 42  1  0  0  0  0
 19 20  1  0  0  0  0
 19 21  1  0  0  0  0
 19 43  1  0  0  0  0
 20 44  1  0  0  0  0
 20 45  1  0  0  0  0
 20 46  1  0  0  0  0
 21 22  1  0  0  0  0
 21 47  1  0  0  0  0
 22 23  1  0  0  0  0
 23 48  1  0  0  0  0
 23 49  1  0  0  0  0
 23 50  1  0  0  0  0
M  END
> <s_m_source_file>
AV-unprocessed.smi

> <i_m_source_file_index>
2424

> <i_lp_mmshare_version>
43012

> <i_f3d_flags>
0

> <s_epik_input>
W0NIM11PW0NAQEhdMVtDQEhdKFtDSDNdKVtDQEBIXShDMShbQ0gyXVtDSDNdKVtDSDJdW0NIM10pW05IXUMoPU8pW05IXWMyW2NIXVtuSF1jKD1PKWMoW0NIM10pW2NIXTI=

> <s_epik_cmdline>
J2VwaWtfcHl0aG9uJywgJy1waCcsICc3LjAnLCAnLXRuJywgJzgnLCAnLW1hJywgJzIwMCcsICctbWV0YWxfYmluZGluZycsICctaW1hZScsICc8aW5maWxlLm1hZT4nLCAnLW9tYWUnLCAnPG91dGZpbGUubWFlPic=

> <r_lp_tautomer_probability>
1

> <r_epik_Ionization_Penalty>
4.7326e-05

> <r_epik_Ionization_Penalty_Charging>
2.70169e-05

> <r_epik_Ionization_Penalty_Neutral>
2.0309e-05

> <r_epik_State_Penalty>
-0

> <r_epik_Charging_Adjusted_Penalty>
2.70169e-05

> <i_epik_Tot_Q>
0

> <i_epik_Tot_abs_Q>
0

> <r_epik_Metal_State_Penalty>
0.0198736

> <b_epik_Metal_Only>
0

> <s_lp_Force_Field>
OPLS_2005

> <r_lp_Energy>
37.0094

> <b_lp_Chiralities_Consistent>
1

> <s_lp_Variant>
AV-unprocessed.smi:2424-8

> <Gold.Version>
5.8.1

> <Gold.Id.Protein>
6NUR|6NUR_protein|mol2

> <Gold.PLP.Fitness>
39.5151

> <Gold.PLP.PLP>
-27.9465

> <Gold.PLP.part.hbond>
-4.5943

> <Gold.PLP.part.metal>
0.0000

> <Gold.PLP.part.buried>
-5.9111

> <Gold.PLP.part.nonpolar>
-20.9095

> <Gold.PLP.part.repulsive>
1.8886

> <Gold.PLP.ligand.clash>
0.0000

> <Gold.PLP.ligand.torsion>
0.9525

> <Gold.PLP.Chemscore.Hbond>
3.4126

> <Gold.PLP.Chemscore.CHOScore>
0.8448

> <Gold.PLP.Chemscore.Metal>
0.0000

> <Gold.Chemscore.Hbonds>
donor molecule, donor type, donor heavy atom, donor atom, acceptor molecule, acceptor atom, score
      L1  H     7    36       P1  7948  0.99
      L1  H    10    37       P1  7948  1.00
      L1  H    13    24       P1 10186  0.56
      P1  H 10785 10796       L1    15  0.74
      L1  C    12    38       P1 10171  0.91

> <Gold.PLP.Chemscore.Internal.Correction>
0.7012

> <Gold.Rescore>
     Score         DG    S(hbond)    S(metal)    S(lipo)     H(rot)  DE(clash)    DE(int)     intcor
     18.20     -21.79       3.61        0.00      70.12       1.55       1.54       2.04       ----

> <Gold.Chemscore.Fitness>
18.2038

> <Gold.Chemscore.DG>
-21.7864

> <Gold.Chemscore.ZeroCoef>
-5.4800

> <Gold.Chemscore.Hbond>
3.6141

> <Gold.Chemscore.Metal>
0.0000

> <Gold.Chemscore.Lipo>
70.1179

> <Gold.Chemscore.Internal_Hbond>
0.0000

> <Gold.Chemscore.DEClash>
1.5427

> <Gold.Chemscore.DEInternal>
2.0398

> <Gold.Chemscore.Rot>
1.5502

> <Gold.Chemscore.Internal.Correction>
   9.000000E+99

> <Gold.Chemscore.Hbonds>
donor molecule, donor type, donor heavy atom, donor atom, acceptor molecule, acceptor atom, score
      L1  H     7    36       P1  7948  0.87
      L1  H    10    37       P1  7948  1.00
      L1  H    13    24       P1 10186  0.54
      P1  H 10785 10796       L1    15  0.72

> <Gold.Chemscore.Hbond.Weighted>
-12.0711

> <Gold.Chemscore.Metal.Weighted>
-0.0000

> <Gold.Chemscore.Lipo.Weighted>
-8.2038

> <Gold.Chemscore.Internal_Hbond.Weighted>
0.0000

> <Gold.Chemscore.DEClash.Weighted>
1.5427

> <Gold.Chemscore.DEInternal.Weighted>
2.0398

> <Gold.Chemscore.Rot.Weighted>
3.9685

> <Gold.Chemscore.Internal.Correction.Weighted>
   9.000000E+99

> <Gold.Protein.RotatedTorsions>
[ 6907 6896 6895 6894 ] final  124.88 input  -60.11 | X-H torsion
[ 7974 7965 7964 7962 ] final  147.00 input  175.53 | X-H torsion
[ 8008 7997 7996 7995 ] final    0.56 input   59.86 | X-H torsion
[ 10167 10162 10161 10158 ] final  116.83 input  -65.29 | X-H torsion
[ 10718 10713 10712 10709 ] final  -69.26 input   66.30 | X-H torsion
[ 10763 10752 10751 10750 ] final  140.36 input  -60.55 | X-H torsion
[ 11005 11000 10999 10996 ] final  112.98 input  -57.11 | X-H torsion

> <Gold.Protein.ActiveResidues>
 VAL166  LYS551  ARG553  GLY616  TRP617  ASP618  TYR619  PRO620  LYS621  CYS622 
 ASP623  PHE694  ASN695  SER759  ASP760  ASP761  ALA762  ILE779  LEU786  VAL792 
 PHE793  MET794  SER795  GLU796  ALA797  LYS798  CYS799  TRP800  GLU811  SER814 

> <Gold.Protein.RotatedAtoms>
  152.4040  133.6860  159.6340 H   0  0  0  0  0  0  0  0  0  0  0  0  # atno 6907 bound_to 6896
  150.7927  133.8742  159.3276 H   0  0  0  0  0  0  0  0  0  0  0  0  # atno 6908 bound_to 6896
  151.6501  135.1004  160.0210 H   0  0  0  0  0  0  0  0  0  0  0  0  # atno 6909 bound_to 6896
  144.8626  139.5975  143.5924 H   0  0  0  0  0  0  0  0  0  0  0  0  # atno 7974 bound_to 7965
  154.6695  140.2609  155.7022 H   0  0  0  0  0  0  0  0  0  0  0  0  # atno 8008 bound_to 7997
  156.2653  140.2832  156.1121 H   0  0  0  0  0  0  0  0  0  0  0  0  # atno 8009 bound_to 7997
  155.1189  140.0376  157.2734 H   0  0  0  0  0  0  0  0  0  0  0  0  # atno 8010 bound_to 7997
  139.6220  144.7102  151.2614 H   0  0  0  0  0  0  0  0  0  0  0  0  # atno 10167 bound_to 10162
  156.0464  130.4309  150.2121 H   0  0  0  0  0  0  0  0  0  0  0  0  # atno 10718 bound_to 10713
  153.9214  135.3000  155.3447 H   0  0  0  0  0  0  0  0  0  0  0  0  # atno 10763 bound_to 10752
  154.7574  135.4951  153.9402 H   0  0  0  0  0  0  0  0  0  0  0  0  # atno 10764 bound_to 10752
  153.1140  135.6766  153.9554 H   0  0  0  0  0  0  0  0  0  0  0  0  # atno 10765 bound_to 10752
  139.8941  134.9541  156.6668 H   0  0  0  0  0  0  0  0  0  0  0  0  # atno 11005 bound_to 11000
  146.2872  139.7036  142.9187 LP  0  0  0  0  0  0  0  0  0  0  0  0  # atno 17320 bound_to 7965
  145.4283  141.0413  143.2925 LP  0  0  0  0  0  0  0  0  0  0  0  0  # atno 17321 bound_to 7965
  140.7388  143.6638  150.8141 LP  0  0  0  0  0  0  0  0  0  0  0  0  # atno 17342 bound_to 10162
  140.0250  143.5502  152.2784 LP  0  0  0  0  0  0  0  0  0  0  0  0  # atno 17343 bound_to 10162
  157.0210  130.9979  151.3339 LP  0  0  0  0  0  0  0  0  0  0  0  0  # atno 17370 bound_to 10713
  157.5344  130.8079  149.7954 LP  0  0  0  0  0  0  0  0  0  0  0  0  # atno 17371 bound_to 10713
  140.7404  133.8982  155.8274 LP  0  0  0  0  0  0  0  0  0  0  0  0  # atno 17394 bound_to 11000
  141.0082  134.1057  157.4249 LP  0  0  0  0  0  0  0  0  0  0  0  0  # atno 17395 bound_to 11000

$$$$
