AV-unprocessed.smi:1012|AV-procd|sdf|4423|dock5
  -GOLD-   22720 2373D 1   1.00000     0.00000
 Structure written by MMmdl.
 43 45  0  0  0  0  0  0  0  0  1 V2000
  144.1905  145.0610  153.2119 C   0  0  0  0  0  0  0  0  0  0  0  0
  144.5801  143.8732  153.8850 O   0  0  0  0  0  0  0  0  0  0  0  0
  144.7956  143.9322  155.2471 C   0  0  0  0  0  0  0  0  0  0  0  0
  144.6282  145.1114  156.0173 C   0  0  0  0  0  0  0  0  0  0  0  0
  144.8611  145.0998  157.4057 C   0  0  0  0  0  0  0  0  0  0  0  0
  145.2636  143.9133  158.0434 C   0  0  0  0  0  0  0  0  0  0  0  0
  145.4330  142.7373  157.2908 C   0  0  0  0  0  0  0  0  0  0  0  0
  145.2036  142.7431  155.8985 C   0  0  0  0  0  0  0  0  0  0  0  0
  145.3812  141.4607  155.1053 C   0  0  0  0  0  0  0  0  0  0  0  0
  146.7112  140.9754  155.1894 O   0  0  0  0  0  0  0  0  0  0  0  0
  147.6601  141.8675  154.6292 C   0  0  0  0  0  0  0  0  0  0  0  0
  149.0699  141.2982  154.8509 C   0  0  1  0  0  0  0  0  0  0  0  0
  149.5634  140.8306  153.6106 O   0  0  0  0  0  0  0  0  0  0  0  0
  150.0374  142.3588  155.4107 C   0  0  0  0  0  0  0  0  0  0  0  0
  150.8899  141.8340  156.4628 N   0  0  0  0  0  0  0  0  0  0  0  0
  151.5130  140.6403  156.4779 C   0  0  0  0  0  0  0  0  0  0  0  0
  152.2515  140.3513  157.5455 N   0  0  0  0  0  0  0  0  0  0  0  0
  152.0906  141.4919  158.3133 C   0  0  0  0  0  0  0  0  0  0  0  0
  152.6200  141.8263  159.5800 C   0  0  0  0  0  0  0  0  0  0  0  0
  152.3156  143.0673  160.1769 C   0  0  0  0  0  0  0  0  0  0  0  0
  152.8323  143.3725  161.3908 F   0  0  0  0  0  0  0  0  0  0  0  0
  151.4782  143.9913  159.5171 C   0  0  0  0  0  0  0  0  0  0  0  0
  151.1926  145.1813  160.0965 F   0  0  0  0  0  0  0  0  0  0  0  0
  150.9379  143.6795  158.2547 C   0  0  0  0  0  0  0  0  0  0  0  0
  151.2439  142.4400  157.6635 C   0  0  0  0  0  0  0  0  0  0  0  0
  144.0857  144.8518  152.1474 H   0  0  0  0  0  0  0  0  0  0  0  0
  144.9409  145.8453  153.3207 H   0  0  0  0  0  0  0  0  0  0  0  0
  143.2283  145.4269  153.5724 H   0  0  0  0  0  0  0  0  0  0  0  0
  144.3184  146.0418  155.5665 H   0  0  0  0  0  0  0  0  0  0  0  0
  144.7292  146.0037  157.9819 H   0  0  0  0  0  0  0  0  0  0  0  0
  145.4409  143.9045  159.1087 H   0  0  0  0  0  0  0  0  0  0  0  0
  145.7416  141.8296  157.7884 H   0  0  0  0  0  0  0  0  0  0  0  0
  144.6905  140.6973  155.4666 H   0  0  0  0  0  0  0  0  0  0  0  0
  145.1187  141.6631  154.0657 H   0  0  0  0  0  0  0  0  0  0  0  0
  147.4650  142.0468  153.5701 H   0  0  0  0  0  0  0  0  0  0  0  0
  147.5693  142.8269  155.1413 H   0  0  0  0  0  0  0  0  0  0  0  0
  149.0194  140.4619  155.5499 H   0  0  0  0  0  0  0  0  0  0  0  0
  148.9021  140.2836  153.2147 H   0  0  0  0  0  0  0  0  0  0  0  0
  150.6666  142.7626  154.6163 H   0  0  0  0  0  0  0  0  0  0  0  0
  149.4763  143.2000  155.8197 H   0  0  0  0  0  0  0  0  0  0  0  0
  151.4190  139.9441  155.6573 H   0  0  0  0  0  0  0  0  0  0  0  0
  153.2628  141.1274  160.0939 H   0  0  0  0  0  0  0  0  0  0  0  0
  150.2995  144.3858  157.7455 H   0  0  0  0  0  0  0  0  0  0  0  0
  1  2  1  0  0  0  0
  1 26  1  0  0  0  0
  1 27  1  0  0  0  0
  1 28  1  0  0  0  0
  2  3  1  0  0  0  0
  3  8  1  0  0  0  0
  3  4  2  0  0  0  0
  4  5  1  0  0  0  0
  4 29  1  0  0  0  0
  5  6  2  0  0  0  0
  5 30  1  0  0  0  0
  6  7  1  0  0  0  0
  6 31  1  0  0  0  0
  7  8  2  0  0  0  0
  7 32  1  0  0  0  0
  8  9  1  0  0  0  0
  9 10  1  0  0  0  0
  9 33  1  0  0  0  0
  9 34  1  0  0  0  0
 10 11  1  0  0  0  0
 11 12  1  0  0  0  0
 11 35  1  0  0  0  0
 11 36  1  0  0  0  0
 12 13  1  0  0  0  0
 12 14  1  0  0  0  0
 12 37  1  0  0  0  0
 13 38  1  0  0  0  0
 14 15  1  0  0  0  0
 14 39  1  0  0  0  0
 14 40  1  0  0  0  0
 15 25  1  0  0  0  0
 15 16  1  0  0  0  0
 16 17  2  0  0  0  0
 16 41  1  0  0  0  0
 17 18  1  0  0  0  0
 18 25  2  0  0  0  0
 18 19  1  0  0  0  0
 19 20  2  0  0  0  0
 19 42  1  0  0  0  0
 20 21  1  0  0  0  0
 20 22  1  0  0  0  0
 22 23  1  0  0  0  0
 22 24  2  0  0  0  0
 24 25  1  0  0  0  0
 24 43  1  0  0  0  0
M  END
> <s_m_source_file>
AV-unprocessed.smi

> <i_m_source_file_index>
1012

> <i_lp_mmshare_version>
43012

> <i_f3d_flags>
0

> <s_epik_input>
W0NIM11PYzFbY0hdW2NIXVtjSF1bY0hdYzFbQ0gyXU9bQ0gyXVtDQEhdKFtPSF0pW0NIMl1uKFtjSF1uMiljKGMyMylbY0hdYyhGKWMoRilbY0hdMw==

> <s_epik_cmdline>
J2VwaWtfcHl0aG9uJywgJy1waCcsICc3LjAnLCAnLXRuJywgJzgnLCAnLW1hJywgJzIwMCcsICctbWV0YWxfYmluZGluZycsICctaW1hZScsICc8aW5maWxlLm1hZT4nLCAnLW9tYWUnLCAnPG91dGZpbGUubWFlPic=

> <r_lp_tautomer_probability>
1

> <r_epik_Ionization_Penalty>
0.0160257

> <r_epik_Ionization_Penalty_Charging>
0

> <r_epik_Ionization_Penalty_Neutral>
0.0160257

> <r_epik_State_Penalty>
0.0126263

> <r_epik_Charging_Adjusted_Penalty>
0.0126263

> <i_epik_Tot_Q>
0

> <i_epik_Tot_abs_Q>
0

> <r_epik_Metal_State_Penalty>
1.27616e-05

> <b_epik_Metal_Only>
0

> <s_lp_Force_Field>
OPLS_2005

> <r_lp_Energy>
17.5925

> <b_lp_Chiralities_Consistent>
1

> <s_lp_Variant>
AV-unprocessed.smi:1012-2

> <Gold.Version>
5.8.1

> <Gold.Id.Protein>
6NUR|6NUR_protein|mol2

> <Gold.PLP.Fitness>
51.4330

> <Gold.PLP.PLP>
-47.1479

> <Gold.PLP.part.hbond>
-4.0000

> <Gold.PLP.part.metal>
0.0000

> <Gold.PLP.part.buried>
-3.6293

> <Gold.PLP.part.nonpolar>
-39.1959

> <Gold.PLP.part.repulsive>
0.2536

> <Gold.PLP.ligand.clash>
0.0000

> <Gold.PLP.ligand.torsion>
1.5192

> <Gold.PLP.Chemscore.Hbond>
2.3991

> <Gold.PLP.Chemscore.CHOScore>
0.0000

> <Gold.PLP.Chemscore.Metal>
0.0000

> <Gold.Chemscore.Hbonds>
donor molecule, donor type, donor heavy atom, donor atom, acceptor molecule, acceptor atom, score
      L1  H    13    38       P1  7957  0.04
      P1  H  7989  7998       L1    13  0.36
      P1  H  7997  8009       L1    17  0.28
      P1  H  8011  8017       L1    13  0.96

> <Gold.PLP.Chemscore.Internal.Correction>
0.1263

> <Gold.Rescore>
     Score         DG    S(hbond)    S(metal)    S(lipo)     H(rot)  DE(clash)    DE(int)     intcor
     12.13     -15.95       1.71        0.00     104.83       2.93       2.34       1.48       ----

> <Gold.Chemscore.Fitness>
12.1295

> <Gold.Chemscore.DG>
-15.9500

> <Gold.Chemscore.ZeroCoef>
-5.4800

> <Gold.Chemscore.Hbond>
1.7111

> <Gold.Chemscore.Metal>
0.0000

> <Gold.Chemscore.Lipo>
104.8268

> <Gold.Chemscore.Internal_Hbond>
0.0000

> <Gold.Chemscore.DEClash>
2.3430

> <Gold.Chemscore.DEInternal>
1.4775

> <Gold.Chemscore.Rot>
2.9335

> <Gold.Chemscore.Internal.Correction>
   9.000000E+99

> <Gold.Chemscore.Hbonds>
donor molecule, donor type, donor heavy atom, donor atom, acceptor molecule, acceptor atom, score
      L1  H    13    38       P1  7957  0.05
      P1  H  7989  7998       L1    13  0.31
      P1  H  7997  8009       L1    17  0.11
      P1  H  8011  8017       L1    13  0.33

> <Gold.Chemscore.Hbond.Weighted>
-5.7149

> <Gold.Chemscore.Metal.Weighted>
-0.0000

> <Gold.Chemscore.Lipo.Weighted>
-12.2647

> <Gold.Chemscore.Internal_Hbond.Weighted>
0.0000

> <Gold.Chemscore.DEClash.Weighted>
2.3430

> <Gold.Chemscore.DEInternal.Weighted>
1.4775

> <Gold.Chemscore.Rot.Weighted>
7.5097

> <Gold.Chemscore.Internal.Correction.Weighted>
   9.000000E+99

> <Gold.Protein.RotatedTorsions>
[ 6907 6896 6895 6894 ] final   23.80 input  -60.11 | X-H torsion
[ 7974 7965 7964 7962 ] final  113.25 input  175.53 | X-H torsion
[ 8008 7997 7996 7995 ] final  177.83 input   59.86 | X-H torsion
[ 10167 10162 10161 10158 ] final   33.78 input  -65.29 | X-H torsion
[ 10718 10713 10712 10709 ] final  139.81 input   66.30 | X-H torsion
[ 10763 10752 10751 10750 ] final -151.88 input  -60.55 | X-H torsion
[ 11005 11000 10999 10996 ] final   29.63 input  -57.11 | X-H torsion

> <Gold.Protein.ActiveResidues>
 VAL166  LYS551  ARG553  GLY616  TRP617  ASP618  TYR619  PRO620  LYS621  CYS622 
 ASP623  PHE694  ASN695  SER759  ASP760  ASP761  ALA762  ILE779  LEU786  VAL792 
 PHE793  MET794  SER795  GLU796  ALA797  LYS798  CYS799  TRP800  GLU811  SER814 

> <Gold.Protein.RotatedAtoms>
  151.9478  135.0183  160.0539 H   0  0  0  0  0  0  0  0  0  0  0  0  # atno 6907 bound_to 6896
  152.1980  133.4815  159.5051 H   0  0  0  0  0  0  0  0  0  0  0  0  # atno 6908 bound_to 6896
  150.6948  134.1545  159.4195 H   0  0  0  0  0  0  0  0  0  0  0  0  # atno 6909 bound_to 6896
  145.2193  139.2869  143.4227 H   0  0  0  0  0  0  0  0  0  0  0  0  # atno 7974 bound_to 7965
  156.0614  140.1348  156.9937 H   0  0  0  0  0  0  0  0  0  0  0  0  # atno 8008 bound_to 7997
  154.4484  140.0990  156.6593 H   0  0  0  0  0  0  0  0  0  0  0  0  # atno 8009 bound_to 7997
  155.5371  140.3460  155.4441 H   0  0  0  0  0  0  0  0  0  0  0  0  # atno 8010 bound_to 7997
  140.4376  144.1235  150.6169 H   0  0  0  0  0  0  0  0  0  0  0  0  # atno 10167 bound_to 10162
  157.4102  131.1027  151.0462 H   0  0  0  0  0  0  0  0  0  0  0  0  # atno 10718 bound_to 10713
  154.8030  135.3249  154.7502 H   0  0  0  0  0  0  0  0  0  0  0  0  # atno 10763 bound_to 10752
  153.8167  135.6891  153.4837 H   0  0  0  0  0  0  0  0  0  0  0  0  # atno 10764 bound_to 10752
  153.1758  135.4605  154.9907 H   0  0  0  0  0  0  0  0  0  0  0  0  # atno 10765 bound_to 10752
  140.3029  134.2736  155.7750 H   0  0  0  0  0  0  0  0  0  0  0  0  # atno 11005 bound_to 11000
  146.3380  140.2494  142.8598 LP  0  0  0  0  0  0  0  0  0  0  0  0  # atno 17320 bound_to 7965
  144.9781  140.8433  143.5414 LP  0  0  0  0  0  0  0  0  0  0  0  0  # atno 17321 bound_to 7965
  140.4356  143.2549  151.9540 LP  0  0  0  0  0  0  0  0  0  0  0  0  # atno 17342 bound_to 10162
  139.4788  144.5703  151.8099 LP  0  0  0  0  0  0  0  0  0  0  0  0  # atno 17343 bound_to 10162
  157.1429  130.6151  149.5560 LP  0  0  0  0  0  0  0  0  0  0  0  0  # atno 17370 bound_to 10713
  155.9848  130.4875  150.7002 LP  0  0  0  0  0  0  0  0  0  0  0  0  # atno 17371 bound_to 10713
  141.2124  133.7658  156.9794 LP  0  0  0  0  0  0  0  0  0  0  0  0  # atno 17394 bound_to 11000
  140.1093  134.9487  157.2041 LP  0  0  0  0  0  0  0  0  0  0  0  0  # atno 17395 bound_to 11000

$$$$
