AV-unprocessed.smi:2501|AV-procd|sdf|9843|dock1
  -GOLD-   2272013463D 1   1.00000     0.00000
 Structure written by MMmdl.
 43 44  0  0  0  0  0  0  0  0  1 V2000
  151.4372  145.5455  159.8213 C   0  0  0  0  0  0  0  0  0  0  0  0
  152.0059  144.1996  160.2347 C   0  0  0  0  0  0  0  0  0  0  0  0
  152.4486  144.0041  161.5613 C   0  0  0  0  0  0  0  0  0  0  0  0
  152.9647  142.8421  162.0140 N   0  0  0  0  0  0  0  0  0  0  0  0
  153.0609  141.8150  161.1449 C   0  0  0  0  0  0  0  0  0  0  0  0
  152.6504  141.8991  159.8004 C   0  0  0  0  0  0  0  0  0  0  0  0
  152.1093  143.1139  159.3296 C   0  0  0  0  0  0  0  0  0  0  0  0
  151.6628  143.2194  157.8798 C   0  0  0  0  0  0  0  0  0  0  0  0
  151.3483  141.8484  157.2654 C   0  0  0  0  0  0  0  0  0  0  0  0
  150.0130  141.8448  156.6831 N   0  0  0  0  0  0  0  0  0  0  0  0
  149.6874  141.2826  155.5078 C   0  0  0  0  0  0  0  0  0  0  0  0
  150.5184  140.6986  154.8110 O   0  0  0  0  0  0  0  0  0  0  0  0
  148.3817  141.4090  155.1588 N   0  0  0  0  0  0  0  0  0  0  0  0
  147.7929  141.1078  153.8438 C   0  0  0  0  0  0  0  0  0  0  0  0
  146.9787  139.8041  153.9505 C   0  0  0  0  0  0  0  0  0  0  0  0
  145.9012  139.8705  155.0645 C   0  0  0  0  0  0  0  0  0  0  0  0
  144.8904  140.7655  154.6335 O   0  0  0  0  0  0  0  0  0  0  0  0
  145.2257  138.4958  155.2869 C   0  0  0  0  0  0  0  0  0  0  0  0
  144.7586  138.0208  154.1317 F   0  0  0  0  0  0  0  0  0  0  0  0
  146.0989  137.6142  155.7760 F   0  0  0  0  0  0  0  0  0  0  0  0
  144.2009  138.6096  156.1334 F   0  0  0  0  0  0  0  0  0  0  0  0
  146.4989  140.4344  156.3796 C   0  0  0  0  0  0  0  0  0  0  0  0
  147.3372  141.7062  156.1452 C   0  0  0  0  0  0  0  0  0  0  0  0
  151.5337  146.2773  160.6239 H   0  0  0  0  0  0  0  0  0  0  0  0
  150.3785  145.4527  159.5780 H   0  0  0  0  0  0  0  0  0  0  0  0
  151.9610  145.9385  158.9503 H   0  0  0  0  0  0  0  0  0  0  0  0
  152.3867  144.8038  162.2848 H   0  0  0  0  0  0  0  0  0  0  0  0
  153.4784  140.8974  161.5322 H   0  0  0  0  0  0  0  0  0  0  0  0
  152.7512  141.0457  159.1459 H   0  0  0  0  0  0  0  0  0  0  0  0
  150.7765  143.8539  157.8327 H   0  0  0  0  0  0  0  0  0  0  0  0
  152.4245  143.7328  157.2926 H   0  0  0  0  0  0  0  0  0  0  0  0
  152.0896  141.6028  156.5036 H   0  0  0  0  0  0  0  0  0  0  0  0
  151.4032  141.0705  158.0281 H   0  0  0  0  0  0  0  0  0  0  0  0
  149.2829  142.3051  157.2070 H   0  0  0  0  0  0  0  0  0  0  0  0
  147.1433  141.9322  153.5462 H   0  0  0  0  0  0  0  0  0  0  0  0
  148.5245  141.0212  153.0405 H   0  0  0  0  0  0  0  0  0  0  0  0
  146.5184  139.5749  152.9887 H   0  0  0  0  0  0  0  0  0  0  0  0
  147.6672  138.9842  154.1583 H   0  0  0  0  0  0  0  0  0  0  0  0
  144.7009  140.5870  153.7249 H   0  0  0  0  0  0  0  0  0  0  0  0
  145.7062  140.6408  157.0999 H   0  0  0  0  0  0  0  0  0  0  0  0
  147.1372  139.6801  156.8415 H   0  0  0  0  0  0  0  0  0  0  0  0
  147.7412  142.0633  157.0934 H   0  0  0  0  0  0  0  0  0  0  0  0
  146.7055  142.5148  155.7748 H   0  0  0  0  0  0  0  0  0  0  0  0
  1  2  1  0  0  0  0
  1 24  1  0  0  0  0
  1 25  1  0  0  0  0
  1 26  1  0  0  0  0
  2  7  1  0  0  0  0
  2  3  2  0  0  0  0
  3  4  1  0  0  0  0
  3 27  1  0  0  0  0
  4  5  2  0  0  0  0
  5  6  1  0  0  0  0
  5 28  1  0  0  0  0
  6  7  2  0  0  0  0
  6 29  1  0  0  0  0
  7  8  1  0  0  0  0
  8  9  1  0  0  0  0
  8 30  1  0  0  0  0
  8 31  1  0  0  0  0
  9 10  1  0  0  0  0
  9 32  1  0  0  0  0
  9 33  1  0  0  0  0
 10 11  1  0  0  0  0
 10 34  1  0  0  0  0
 11 12  2  0  0  0  0
 11 13  1  0  0  0  0
 13 23  1  0  0  0  0
 13 14  1  0  0  0  0
 14 15  1  0  0  0  0
 14 35  1  0  0  0  0
 14 36  1  0  0  0  0
 15 16  1  0  0  0  0
 15 37  1  0  0  0  0
 15 38  1  0  0  0  0
 16 17  1  0  0  0  0
 16 18  1  0  0  0  0
 16 22  1  0  0  0  0
 17 39  1  0  0  0  0
 18 19  1  0  0  0  0
 18 20  1  0  0  0  0
 18 21  1  0  0  0  0
 22 23  1  0  0  0  0
 22 40  1  0  0  0  0
 22 41  1  0  0  0  0
 23 42  1  0  0  0  0
 23 43  1  0  0  0  0
M  END
> <s_m_source_file>
AV-unprocessed.smi

> <i_m_source_file_index>
2501

> <i_lp_mmshare_version>
43012

> <i_f3d_flags>
0

> <s_epik_input>
W0NIM11jMVtjSF1uW2NIXVtjSF1jMVtDSDJdW0NIMl1bTkhdQyg9TylOKFtDSDJdW0NIMl0yKVtDSDJdW0NIMl1DMihbT0hdKUMoRikoRilG

> <s_epik_cmdline>
J2VwaWtfcHl0aG9uJywgJy1waCcsICc3LjAnLCAnLXRuJywgJzgnLCAnLW1hJywgJzIwMCcsICctbWV0YWxfYmluZGluZycsICctaW1hZScsICc8aW5maWxlLm1hZT4nLCAnLW9tYWUnLCAnPG91dGZpbGUubWFlPic=

> <r_epik_Ionization_Penalty>
0.105852

> <r_epik_Ionization_Penalty_Charging>
0

> <r_epik_Ionization_Penalty_Neutral>
0.105852

> <r_epik_State_Penalty>
0.0956543

> <r_epik_Charging_Adjusted_Penalty>
0.0956543

> <i_epik_Tot_Q>
0

> <i_epik_Tot_abs_Q>
0

> <r_epik_Metal_State_Penalty>
0.0810448

> <b_epik_Metal_Only>
0

> <s_lp_Force_Field>
OPLS_2005

> <r_lp_Energy>
37.1862

> <b_lp_Chiralities_Consistent>
1

> <s_lp_Variant>
AV-unprocessed.smi:2501-1

> <Gold.Version>
5.8.1

> <Gold.Id.Protein>
6NUR|6NUR_protein|mol2

> <Gold.PLP.Fitness>
43.9857

> <Gold.PLP.PLP>
-40.9610

> <Gold.PLP.part.hbond>
-2.2646

> <Gold.PLP.part.metal>
0.0000

> <Gold.PLP.part.buried>
-5.8950

> <Gold.PLP.part.nonpolar>
-33.0432

> <Gold.PLP.part.repulsive>
0.2267

> <Gold.PLP.ligand.clash>
0.6197

> <Gold.PLP.ligand.torsion>
0.9825

> <Gold.PLP.Chemscore.Hbond>
1.8480

> <Gold.PLP.Chemscore.CHOScore>
0.0000

> <Gold.PLP.Chemscore.Metal>
0.0000

> <Gold.Chemscore.Hbonds>
donor molecule, donor type, donor heavy atom, donor atom, acceptor molecule, acceptor atom, score
      L1  H    17    39       P1 10175  1.00
      P1  H  7989  7998       L1    12  0.90

> <Gold.PLP.Chemscore.Internal.Correction>
0.0654

> <Gold.Rescore>
     Score         DG    S(hbond)    S(metal)    S(lipo)     H(rot)  DE(clash)    DE(int)     intcor
     17.86     -18.76       1.86        0.00     103.17       1.95       0.01       0.90       ----

> <Gold.Chemscore.Fitness>
17.8579

> <Gold.Chemscore.DG>
-18.7634

> <Gold.Chemscore.ZeroCoef>
-5.4800

> <Gold.Chemscore.Hbond>
1.8571

> <Gold.Chemscore.Metal>
0.0000

> <Gold.Chemscore.Lipo>
103.1730

> <Gold.Chemscore.Internal_Hbond>
0.0000

> <Gold.Chemscore.DEClash>
0.0098

> <Gold.Chemscore.DEInternal>
0.8958

> <Gold.Chemscore.Rot>
1.9495

> <Gold.Chemscore.Internal.Correction>
   9.000000E+99

> <Gold.Chemscore.Hbonds>
donor molecule, donor type, donor heavy atom, donor atom, acceptor molecule, acceptor atom, score
      L1  H    17    39       P1 10175  0.94
      P1  H  7989  7998       L1    12  0.88

> <Gold.Chemscore.Hbond.Weighted>
-6.2028

> <Gold.Chemscore.Metal.Weighted>
-0.0000

> <Gold.Chemscore.Lipo.Weighted>
-12.0712

> <Gold.Chemscore.Internal_Hbond.Weighted>
0.0000

> <Gold.Chemscore.DEClash.Weighted>
0.0098

> <Gold.Chemscore.DEInternal.Weighted>
0.8958

> <Gold.Chemscore.Rot.Weighted>
4.9907

> <Gold.Chemscore.Internal.Correction.Weighted>
   9.000000E+99

> <Gold.Protein.RotatedTorsions>
[ 6907 6896 6895 6894 ] final  -18.25 input  -60.11 | X-H torsion
[ 7974 7965 7964 7962 ] final   39.57 input  175.53 | X-H torsion
[ 8008 7997 7996 7995 ] final   97.39 input   59.86 | X-H torsion
[ 10167 10162 10161 10158 ] final  -20.33 input  -65.29 | X-H torsion
[ 10718 10713 10712 10709 ] final  163.20 input   66.30 | X-H torsion
[ 10763 10752 10751 10750 ] final -127.70 input  -60.55 | X-H torsion
[ 11005 11000 10999 10996 ] final   32.48 input  -57.11 | X-H torsion

> <Gold.Protein.ActiveResidues>
 VAL166  LYS551  ARG553  GLY616  TRP617  ASP618  TYR619  PRO620  LYS621  CYS622 
 ASP623  PHE694  ASN695  SER759  ASP760  ASP761  ALA762  ILE779  LEU786  VAL792 
 PHE793  MET794  SER795  GLU796  ALA797  LYS798  CYS799  TRP800  GLU811  SER814 

> <Gold.Protein.RotatedAtoms>
  151.2810  135.0713  159.9168 H   0  0  0  0  0  0  0  0  0  0  0  0  # atno 6907 bound_to 6896
  152.5334  134.0031  159.7914 H   0  0  0  0  0  0  0  0  0  0  0  0  # atno 6908 bound_to 6896
  151.0285  133.5761  159.2694 H   0  0  0  0  0  0  0  0  0  0  0  0  # atno 6909 bound_to 6896
  146.0973  139.5635  142.9437 H   0  0  0  0  0  0  0  0  0  0  0  0  # atno 7974 bound_to 7965
  156.0897  140.3259  155.7799 H   0  0  0  0  0  0  0  0  0  0  0  0  # atno 8008 bound_to 7997
  155.5017  140.0570  157.2955 H   0  0  0  0  0  0  0  0  0  0  0  0  # atno 8009 bound_to 7997
  154.4630  140.1976  156.0209 H   0  0  0  0  0  0  0  0  0  0  0  0  # atno 8010 bound_to 7997
  140.7275  143.4733  151.0217 H   0  0  0  0  0  0  0  0  0  0  0  0  # atno 10167 bound_to 10162
  157.1118  131.0470  151.2454 H   0  0  0  0  0  0  0  0  0  0  0  0  # atno 10718 bound_to 10713
  154.8753  135.3953  154.3636 H   0  0  0  0  0  0  0  0  0  0  0  0  # atno 10763 bound_to 10752
  153.4405  135.7026  153.6177 H   0  0  0  0  0  0  0  0  0  0  0  0  # atno 10764 bound_to 10752
  153.4760  135.3780  155.2386 H   0  0  0  0  0  0  0  0  0  0  0  0  # atno 10765 bound_to 10752
  140.2731  134.3060  155.7822 H   0  0  0  0  0  0  0  0  0  0  0  0  # atno 11005 bound_to 11000
  145.5922  141.0368  143.2064 LP  0  0  0  0  0  0  0  0  0  0  0  0  # atno 17320 bound_to 7965
  144.7405  139.7461  143.7312 LP  0  0  0  0  0  0  0  0  0  0  0  0  # atno 17321 bound_to 7965
  139.8426  143.7543  152.3180 LP  0  0  0  0  0  0  0  0  0  0  0  0  # atno 17342 bound_to 10162
  139.7697  144.7480  151.0242 LP  0  0  0  0  0  0  0  0  0  0  0  0  # atno 17343 bound_to 10162
  157.4552  130.7621  149.7187 LP  0  0  0  0  0  0  0  0  0  0  0  0  # atno 17370 bound_to 10713
  155.9849  130.3988  150.3290 LP  0  0  0  0  0  0  0  0  0  0  0  0  # atno 17371 bound_to 10713
  141.2174  133.7479  156.9365 LP  0  0  0  0  0  0  0  0  0  0  0  0  # atno 17394 bound_to 11000
  140.1355  134.9328  157.2395 LP  0  0  0  0  0  0  0  0  0  0  0  0  # atno 17395 bound_to 11000

$$$$
