AV-unprocessed.smi:2923|AV-procd|sdf|11212|dock1
  -GOLD-   2272016103D 1   1.00000     0.00000
 Structure written by MMmdl.
 46 48  0  0  0  0  0  0  0  0  1 V2000
  146.3443  138.2665  151.5113 C   0  0  0  0  0  0  0  0  0  0  0  0
  146.0387  138.3145  152.9328 N   0  0  0  0  0  0  0  0  0  0  0  0
  146.0718  137.0444  153.6410 C   0  0  0  0  0  0  0  0  0  0  0  0
  146.7253  139.3332  153.6066 C   0  0  0  0  0  0  0  0  0  0  0  0
  146.7034  140.6675  153.1409 C   0  0  0  0  0  0  0  0  0  0  0  0
  147.4089  141.6496  153.8623 C   0  0  0  0  0  0  0  0  0  0  0  0
  148.1086  141.2678  155.0316 C   0  0  0  0  0  0  0  0  0  0  0  0
  148.8687  142.1586  155.8362 N   0  0  0  0  0  0  0  0  0  0  0  0
  149.9588  141.8927  156.5760 C   0  0  0  0  0  0  0  0  0  0  0  0
  150.4967  140.7910  156.6838 O   0  0  0  0  0  0  0  0  0  0  0  0
  150.4173  142.9987  157.1772 N   0  0  0  0  0  0  0  0  0  0  0  0
  151.6060  143.0434  158.0229 C   0  0  2  0  0  0  0  0  0  0  0  0
  151.5901  141.9681  159.1207 C   0  0  1  0  0  0  0  0  0  0  0  0
  152.6158  140.8672  159.1071 C   0  0  0  0  0  0  0  0  0  0  0  0
  153.6998  141.3982  160.0497 C   0  0  0  0  0  0  0  0  0  0  0  0
  153.5041  142.8103  160.0641 O   0  0  0  0  0  0  0  0  0  0  0  0
  152.0986  143.0478  160.0641 C   0  0  1  0  0  0  0  0  0  0  0  0
  151.5820  144.1469  159.1115 C   0  0  0  0  0  0  0  0  0  0  0  0
  152.5181  145.3354  158.8870 C   0  0  0  0  0  0  0  0  0  0  0  0
  150.2155  144.7278  159.5036 C   0  0  0  0  0  0  0  0  0  0  0  0
  148.0792  139.9063  155.3987 C   0  0  0  0  0  0  0  0  0  0  0  0
  147.4041  138.9600  154.7127 N   0  0  0  0  0  0  0  0  0  0  0  0
  146.2946  139.2625  151.0693 H   0  0  0  0  0  0  0  0  0  0  0  0
  145.6239  137.6328  150.9932 H   0  0  0  0  0  0  0  0  0  0  0  0
  147.3418  137.8607  151.3388 H   0  0  0  0  0  0  0  0  0  0  0  0
  145.8139  137.1795  154.6921 H   0  0  0  0  0  0  0  0  0  0  0  0
  147.0615  136.5897  153.5829 H   0  0  0  0  0  0  0  0  0  0  0  0
  145.3520  136.3516  153.2044 H   0  0  0  0  0  0  0  0  0  0  0  0
  146.1612  140.9366  152.2463 H   0  0  0  0  0  0  0  0  0  0  0  0
  147.4091  142.6652  153.4983 H   0  0  0  0  0  0  0  0  0  0  0  0
  148.5922  143.1282  155.7865 H   0  0  0  0  0  0  0  0  0  0  0  0
  149.9208  143.8660  157.0348 H   0  0  0  0  0  0  0  0  0  0  0  0
  152.5445  143.0348  157.4636 H   0  0  0  0  0  0  0  0  0  0  0  0
  150.5803  141.6487  159.3847 H   0  0  0  0  0  0  0  0  0  0  0  0
  152.2144  139.9148  159.4544 H   0  0  0  0  0  0  0  0  0  0  0  0
  153.0132  140.7180  158.1026 H   0  0  0  0  0  0  0  0  0  0  0  0
  153.5536  141.0104  161.0589 H   0  0  0  0  0  0  0  0  0  0  0  0
  154.7068  141.1354  159.7252 H   0  0  0  0  0  0  0  0  0  0  0  0
  151.6499  143.0194  161.0582 H   0  0  0  0  0  0  0  0  0  0  0  0
  152.6446  145.9228  159.7967 H   0  0  0  0  0  0  0  0  0  0  0  0
  152.1384  146.0018  158.1119 H   0  0  0  0  0  0  0  0  0  0  0  0
  153.5102  145.0123  158.5709 H   0  0  0  0  0  0  0  0  0  0  0  0
  150.2809  145.3135  160.4210 H   0  0  0  0  0  0  0  0  0  0  0  0
  149.4773  143.9445  159.6780 H   0  0  0  0  0  0  0  0  0  0  0  0
  149.8171  145.3818  158.7271 H   0  0  0  0  0  0  0  0  0  0  0  0
  148.6095  139.5635  156.2752 H   0  0  0  0  0  0  0  0  0  0  0  0
  1  2  1  0  0  0  0
  1 23  1  0  0  0  0
  1 24  1  0  0  0  0
  1 25  1  0  0  0  0
  2  3  1  0  0  0  0
  2  4  1  0  0  0  0
  3 26  1  0  0  0  0
  3 27  1  0  0  0  0
  3 28  1  0  0  0  0
  4 22  1  0  0  0  0
  4  5  2  0  0  0  0
  5  6  1  0  0  0  0
  5 29  1  0  0  0  0
  6  7  2  0  0  0  0
  6 30  1  0  0  0  0
  7  8  1  0  0  0  0
  7 21  1  0  0  0  0
  8  9  1  0  0  0  0
  8 31  1  0  0  0  0
  9 10  2  0  0  0  0
  9 11  1  0  0  0  0
 11 12  1  0  0  0  0
 11 32  1  0  0  0  0
 12 18  1  0  0  0  0
 12 13  1  0  0  0  0
 12 33  1  0  0  0  0
 13 17  1  0  0  0  0
 13 14  1  0  0  0  0
 13 34  1  0  0  0  0
 14 15  1  0  0  0  0
 14 35  1  0  0  0  0
 14 36  1  0  0  0  0
 15 16  1  0  0  0  0
 15 37  1  0  0  0  0
 15 38  1  0  0  0  0
 16 17  1  0  0  0  0
 17 18  1  0  0  0  0
 17 39  1  0  0  0  0
 18 19  1  0  0  0  0
 18 20  1  0  0  0  0
 19 40  1  0  0  0  0
 19 41  1  0  0  0  0
 19 42  1  0  0  0  0
 20 43  1  0  0  0  0
 20 44  1  0  0  0  0
 20 45  1  0  0  0  0
 21 22  2  0  0  0  0
 21 46  1  0  0  0  0
M  END
> <s_m_source_file>
AV-unprocessed.smi

> <i_m_source_file_index>
2923

> <i_lp_mmshare_version>
43012

> <i_f3d_flags>
0

> <s_epik_input>
W0NIM11OKFtDSDNdKWMxW2NIXVtjSF1jKFtjSF1uMSlbTkhdQyg9TylbTkhdW0NASF0yQyhbQ0gzXSkoW0NIM10pW0NAQEhdKFtDQEhdMjMpT1tDSDJdW0NIMl0z

> <s_epik_cmdline>
J2VwaWtfcHl0aG9uJywgJy1waCcsICc3LjAnLCAnLXRuJywgJzgnLCAnLW1hJywgJzIwMCcsICctbWV0YWxfYmluZGluZycsICctaW1hZScsICc8aW5maWxlLm1hZT4nLCAnLW9tYWUnLCAnPG91dGZpbGUubWFlPic=

> <r_lp_tautomer_probability>
1

> <r_epik_Ionization_Penalty>
0.628785

> <r_epik_Ionization_Penalty_Charging>
0

> <r_epik_Ionization_Penalty_Neutral>
0.628785

> <r_epik_State_Penalty>
0.644286

> <r_epik_Charging_Adjusted_Penalty>
0.644286

> <i_epik_Tot_Q>
0

> <i_epik_Tot_abs_Q>
0

> <r_epik_Metal_State_Penalty>
0.308404

> <b_epik_Metal_Only>
0

> <s_lp_Force_Field>
OPLS_2005

> <r_lp_Energy>
42.6723

> <b_lp_Chiralities_Consistent>
1

> <s_lp_Variant>
AV-unprocessed.smi:2923-11

> <Gold.Version>
5.8.1

> <Gold.Id.Protein>
6NUR|6NUR_protein|mol2

> <Gold.PLP.Fitness>
44.1201

> <Gold.PLP.PLP>
-39.3498

> <Gold.PLP.part.hbond>
-2.0000

> <Gold.PLP.part.metal>
0.0000

> <Gold.PLP.part.buried>
-3.8521

> <Gold.PLP.part.nonpolar>
-34.1747

> <Gold.PLP.part.repulsive>
0.5346

> <Gold.PLP.ligand.clash>
0.0000

> <Gold.PLP.ligand.torsion>
0.5076

> <Gold.PLP.Chemscore.Hbond>
1.8000

> <Gold.PLP.Chemscore.CHOScore>
0.0000

> <Gold.PLP.Chemscore.Metal>
0.0000

> <Gold.Chemscore.Hbonds>
donor molecule, donor type, donor heavy atom, donor atom, acceptor molecule, acceptor atom, score
      L1  H     8    31       P1  8028  1.00
      L1  H    11    32       P1  8028  0.80

> <Gold.PLP.Chemscore.Internal.Correction>
0.3855

> <Gold.Rescore>
     Score         DG    S(hbond)    S(metal)    S(lipo)     H(rot)  DE(clash)    DE(int)     intcor
     18.98     -22.31       1.80        0.00     118.51       1.19       0.25       3.08       ----

> <Gold.Chemscore.Fitness>
18.9813

> <Gold.Chemscore.DG>
-22.3107

> <Gold.Chemscore.ZeroCoef>
-5.4800

> <Gold.Chemscore.Hbond>
1.8025

> <Gold.Chemscore.Metal>
0.0000

> <Gold.Chemscore.Lipo>
118.5139

> <Gold.Chemscore.Internal_Hbond>
0.0000

> <Gold.Chemscore.DEClash>
0.2487

> <Gold.Chemscore.DEInternal>
3.0806

> <Gold.Chemscore.Rot>
1.1937

> <Gold.Chemscore.Internal.Correction>
   9.000000E+99

> <Gold.Chemscore.Hbonds>
donor molecule, donor type, donor heavy atom, donor atom, acceptor molecule, acceptor atom, score
      L1  H     8    31       P1  8028  0.97
      L1  H    11    32       P1  8028  0.75

> <Gold.Chemscore.Hbond.Weighted>
-6.0204

> <Gold.Chemscore.Metal.Weighted>
-0.0000

> <Gold.Chemscore.Lipo.Weighted>
-13.8661

> <Gold.Chemscore.Internal_Hbond.Weighted>
0.0000

> <Gold.Chemscore.DEClash.Weighted>
0.2487

> <Gold.Chemscore.DEInternal.Weighted>
3.0806

> <Gold.Chemscore.Rot.Weighted>
3.0559

> <Gold.Chemscore.Internal.Correction.Weighted>
   9.000000E+99

> <Gold.Protein.RotatedTorsions>
[ 6907 6896 6895 6894 ] final  170.35 input  -60.11 | X-H torsion
[ 7974 7965 7964 7962 ] final  148.86 input  175.53 | X-H torsion
[ 8008 7997 7996 7995 ] final -147.59 input   59.86 | X-H torsion
[ 10167 10162 10161 10158 ] final  -13.64 input  -65.29 | X-H torsion
[ 10718 10713 10712 10709 ] final   73.83 input   66.30 | X-H torsion
[ 10763 10752 10751 10750 ] final   60.62 input  -60.55 | X-H torsion
[ 11005 11000 10999 10996 ] final   79.61 input  -57.11 | X-H torsion

> <Gold.Protein.ActiveResidues>
 VAL166  LYS551  ARG553  GLY616  TRP617  ASP618  TYR619  PRO620  LYS621  CYS622 
 ASP623  PHE694  ASN695  SER759  ASP760  ASP761  ALA762  ILE779  LEU786  VAL792 
 PHE793  MET794  SER795  GLU796  ALA797  LYS798  CYS799  TRP800  GLU811  SER814 

> <Gold.Protein.RotatedAtoms>
  151.8175  133.3390  159.3573 H   0  0  0  0  0  0  0  0  0  0  0  0  # atno 6907 bound_to 6896
  150.7305  134.5605  159.5849 H   0  0  0  0  0  0  0  0  0  0  0  0  # atno 6908 bound_to 6896
  152.3030  134.7589  160.0405 H   0  0  0  0  0  0  0  0  0  0  0  0  # atno 6909 bound_to 6896
  144.8481  139.6207  143.5986 H   0  0  0  0  0  0  0  0  0  0  0  0  # atno 7974 bound_to 7965
  155.5779  140.0640  157.2790 H   0  0  0  0  0  0  0  0  0  0  0  0  # atno 8008 bound_to 7997
  154.4341  140.1857  156.0993 H   0  0  0  0  0  0  0  0  0  0  0  0  # atno 8009 bound_to 7997
  156.0327  140.3304  155.7160 H   0  0  0  0  0  0  0  0  0  0  0  0  # atno 8010 bound_to 7997
  140.7186  143.5405  150.9415 H   0  0  0  0  0  0  0  0  0  0  0  0  # atno 10167 bound_to 10162
  157.6565  130.9648  150.1125 H   0  0  0  0  0  0  0  0  0  0  0  0  # atno 10718 bound_to 10713
  152.9926  135.5530  154.5903 H   0  0  0  0  0  0  0  0  0  0  0  0  # atno 10763 bound_to 10752
  154.5266  135.2811  155.1218 H   0  0  0  0  0  0  0  0  0  0  0  0  # atno 10764 bound_to 10752
  154.2550  135.6391  153.5307 H   0  0  0  0  0  0  0  0  0  0  0  0  # atno 10765 bound_to 10752
  139.9166  134.7856  156.1802 H   0  0  0  0  0  0  0  0  0  0  0  0  # atno 11005 bound_to 11000
  146.2762  139.6758  142.9261 LP  0  0  0  0  0  0  0  0  0  0  0  0  # atno 17320 bound_to 7965
  145.4555  141.0430  143.2781 LP  0  0  0  0  0  0  0  0  0  0  0  0  # atno 17321 bound_to 7965
  139.9127  143.6701  152.3112 LP  0  0  0  0  0  0  0  0  0  0  0  0  # atno 17342 bound_to 10162
  139.7089  144.7623  151.1145 LP  0  0  0  0  0  0  0  0  0  0  0  0  # atno 17343 bound_to 10162
  156.2018  130.3661  149.8779 LP  0  0  0  0  0  0  0  0  0  0  0  0  # atno 17370 bound_to 10713
  156.6680  130.8809  151.3558 LP  0  0  0  0  0  0  0  0  0  0  0  0  # atno 17371 bound_to 10713
  141.0647  133.6825  156.2021 LP  0  0  0  0  0  0  0  0  0  0  0  0  # atno 17394 bound_to 11000
  140.6604  134.4973  157.5583 LP  0  0  0  0  0  0  0  0  0  0  0  0  # atno 17395 bound_to 11000

$$$$
