AV-unprocessed.smi:36|AV-procd|sdf|289|dock3
  -GOLD-   2262016 73D 1   1.00000     0.00000
 Structure written by MMmdl.
 64 67  0  0  0  0  0  0  0  0  1 V2000
  145.1636  130.6161  151.4981 C   0  0  0  0  0  0  0  0  0  0  0  0
  145.1867  131.9373  150.7115 C   0  0  0  0  0  0  0  0  0  0  0  0
  146.0552  131.7820  149.4515 C   0  0  0  0  0  0  0  0  0  0  0  0
  143.7563  132.3320  150.3082 C   0  0  0  0  0  0  0  0  0  0  0  0
  145.9289  133.3154  151.8061 Si  0  0  0  0  0  0  0  0  0  0  0  0
  147.7460  132.9561  152.2274 C   0  0  0  0  0  0  0  0  0  0  0  0
  145.7971  135.0073  150.9495 C   0  0  0  0  0  0  0  0  0  0  0  0
  145.0513  133.3486  153.2538 O   0  0  0  0  0  0  0  0  0  0  0  0
  145.5733  133.7824  154.4934 C   0  0  0  0  0  0  0  0  0  0  0  0
  144.6467  134.8438  155.1023 C   0  0  2  0  0  0  0  0  0  0  0  0
  145.3531  136.0779  155.1846 O   0  0  0  0  0  0  0  0  0  0  0  0
  144.8921  136.7527  156.3045 C   0  0  2  0  0  0  0  0  0  0  0  0
  145.9175  137.7529  156.7190 N   0  0  0  0  0  0  0  0  0  0  0  0
  145.9376  138.4837  157.8502 C   0  0  0  0  0  0  0  0  0  0  0  0
  146.9707  139.3131  157.9725 N   0  0  0  0  0  0  0  0  0  0  0  0
  147.6798  139.0909  156.7964 C   0  0  0  0  0  0  0  0  0  0  0  0
  148.9336  139.7020  156.3050 C   0  0  0  0  0  0  0  0  0  0  0  0
  149.5073  140.5888  157.0604 N   0  0  0  0  0  0  0  0  0  0  0  0
  150.6862  141.1971  156.6500 C   0  0  0  0  0  0  0  0  0  0  0  0
  151.3145  141.0388  155.5996 O   0  0  0  0  0  0  0  0  0  0  0  0
  151.2238  142.1706  157.6472 C   0  0  0  0  0  0  0  0  0  0  0  0
  151.4844  141.7566  158.9707 C   0  0  0  0  0  0  0  0  0  0  0  0
  151.9810  142.6779  159.9136 C   0  0  0  0  0  0  0  0  0  0  0  0
  152.2160  144.0146  159.5370 C   0  0  0  0  0  0  0  0  0  0  0  0
  151.9550  144.4305  158.2171 C   0  0  0  0  0  0  0  0  0  0  0  0
  151.4584  143.5106  157.2729 C   0  0  0  0  0  0  0  0  0  0  0  0
  149.2641  139.1680  155.0526 N   0  0  0  0  0  0  0  0  0  0  0  0
  148.5304  138.1982  154.3515 C   0  0  0  0  0  0  0  0  0  0  0  0
  147.4229  137.6489  154.7742 N   0  0  0  0  0  0  0  0  0  0  0  0
  147.0514  138.1447  156.0159 C   0  0  0  0  0  0  0  0  0  0  0  0
  144.7155  135.6824  157.3703 C   0  0  0  0  0  0  0  0  0  0  0  0
  144.1908  134.5201  156.5422 C   0  0  1  0  0  0  0  0  0  0  0  0
  142.7791  134.4697  156.6099 O   0  0  0  0  0  0  0  0  0  0  0  0
  144.7454  129.8060  150.8997 H   0  0  0  0  0  0  0  0  0  0  0  0
  144.5603  130.7025  152.4021 H   0  0  0  0  0  0  0  0  0  0  0  0
  146.1674  130.3161  151.7999 H   0  0  0  0  0  0  0  0  0  0  0  0
  147.0748  131.4896  149.7039 H   0  0  0  0  0  0  0  0  0  0  0  0
  146.1116  132.7162  148.8912 H   0  0  0  0  0  0  0  0  0  0  0  0
  145.6521  131.0206  148.7830 H   0  0  0  0  0  0  0  0  0  0  0  0
  143.3045  131.5789  149.6618 H   0  0  0  0  0  0  0  0  0  0  0  0
  143.7452  133.2792  149.7679 H   0  0  0  0  0  0  0  0  0  0  0  0
  143.1126  132.4436  151.1809 H   0  0  0  0  0  0  0  0  0  0  0  0
  148.3625  132.9028  151.3303 H   0  0  0  0  0  0  0  0  0  0  0  0
  147.8561  132.0088  152.7548 H   0  0  0  0  0  0  0  0  0  0  0  0
  148.1684  133.7324  152.8651 H   0  0  0  0  0  0  0  0  0  0  0  0
  146.3685  135.0306  150.0218 H   0  0  0  0  0  0  0  0  0  0  0  0
  146.1785  135.8078  151.5830 H   0  0  0  0  0  0  0  0  0  0  0  0
  144.7652  135.2533  150.7004 H   0  0  0  0  0  0  0  0  0  0  0  0
  145.6693  132.9259  155.1611 H   0  0  0  0  0  0  0  0  0  0  0  0
  146.5750  134.1896  154.3503 H   0  0  0  0  0  0  0  0  0  0  0  0
  143.7844  135.0052  154.4545 H   0  0  0  0  0  0  0  0  0  0  0  0
  143.9831  137.3134  156.0807 H   0  0  0  0  0  0  0  0  0  0  0  0
  145.1699  138.4064  158.6062 H   0  0  0  0  0  0  0  0  0  0  0  0
  151.3035  140.7336  159.2678 H   0  0  0  0  0  0  0  0  0  0  0  0
  152.1803  142.3591  160.9262 H   0  0  0  0  0  0  0  0  0  0  0  0
  152.5953  144.7207  160.2608 H   0  0  0  0  0  0  0  0  0  0  0  0
  152.1340  145.4559  157.9292 H   0  0  0  0  0  0  0  0  0  0  0  0
  151.2571  143.8379  156.2630 H   0  0  0  0  0  0  0  0  0  0  0  0
  148.9655  137.9228  153.3899 H   0  0  0  0  0  0  0  0  0  0  0  0
  145.6891  135.4313  157.7942 H   0  0  0  0  0  0  0  0  0  0  0  0
  144.0521  136.0164  158.1692 H   0  0  0  0  0  0  0  0  0  0  0  0
  144.5921  133.5731  156.9055 H   0  0  0  0  0  0  0  0  0  0  0  0
  142.4693  133.8594  155.9582 H   0  0  0  0  0  0  0  0  0  0  0  0
  150.1069  139.5127  154.6160 H   0  0  0  0  0  0  0  0  0  0  0  0
  1  2  1  0  0  0  0
  1 34  1  0  0  0  0
  1 35  1  0  0  0  0
  1 36  1  0  0  0  0
  2  3  1  0  0  0  0
  2  4  1  0  0  0  0
  2  5  1  0  0  0  0
  3 37  1  0  0  0  0
  3 38  1  0  0  0  0
  3 39  1  0  0  0  0
  4 40  1  0  0  0  0
  4 41  1  0  0  0  0
  4 42  1  0  0  0  0
  5  6  1  0  0  0  0
  5  7  1  0  0  0  0
  5  8  1  0  0  0  0
  6 43  1  0  0  0  0
  6 44  1  0  0  0  0
  6 45  1  0  0  0  0
  7 46  1  0  0  0  0
  7 47  1  0  0  0  0
  7 48  1  0  0  0  0
  8  9  1  0  0  0  0
  9 10  1  0  0  0  0
  9 49  1  0  0  0  0
  9 50  1  0  0  0  0
 10 32  1  0  0  0  0
 10 11  1  0  0  0  0
 10 51  1  0  0  0  0
 11 12  1  0  0  0  0
 12 13  1  0  0  0  0
 12 31  1  0  0  0  0
 12 52  1  0  0  0  0
 13 30  1  0  0  0  0
 13 14  1  0  0  0  0
 14 15  2  0  0  0  0
 14 53  1  0  0  0  0
 15 16  1  0  0  0  0
 16 30  2  0  0  0  0
 16 17  1  0  0  0  0
 17 18  2  0  0  0  0
 17 27  1  0  0  0  0
 18 19  1  0  0  0  0
 19 20  2  0  0  0  0
 19 21  1  0  0  0  0
 21 26  1  0  0  0  0
 21 22  2  0  0  0  0
 22 23  1  0  0  0  0
 22 54  1  0  0  0  0
 23 24  2  0  0  0  0
 23 55  1  0  0  0  0
 24 25  1  0  0  0  0
 24 56  1  0  0  0  0
 25 26  2  0  0  0  0
 25 57  1  0  0  0  0
 26 58  1  0  0  0  0
 27 28  1  0  0  0  0
 27 64  1  0  0  0  0
 28 29  2  0  0  0  0
 28 59  1  0  0  0  0
 29 30  1  0  0  0  0
 31 32  1  0  0  0  0
 31 60  1  0  0  0  0
 31 61  1  0  0  0  0
 32 33  1  0  0  0  0
 32 62  1  0  0  0  0
 33 63  1  0  0  0  0
M  END
> <s_m_source_file>
AV-unprocessed.smi

> <i_m_source_file_index>
36

> <i_lp_mmshare_version>
43012

> <i_f3d_flags>
0

> <s_epik_input>
W0NIM11DKFtDSDNdKShbQ0gzXSlbU2ldKFtDSDNdKShbQ0gzXSlPW0NIMl1bQ0BASF0xT1tDQEhdKFtDSDJdW0NASF0xW09IXSluKFtjSF1uMiljKGMyMyluW2NIXW5jM1tOSF1DKD1PKWM0W2NIXVtjSF1bY0hdW2NIXVtjSF00

> <s_epik_cmdline>
J2VwaWtfcHl0aG9uJywgJy1waCcsICc3LjAnLCAnLXRuJywgJzgnLCAnLW1hJywgJzIwMCcsICctbWV0YWxfYmluZGluZycsICctaW1hZScsICc8aW5maWxlLm1hZT4nLCAnLW9tYWUnLCAnPG91dGZpbGUubWFlPic=

> <r_epik_Ionization_Penalty>
0.0850405

> <r_epik_Ionization_Penalty_Charging>
0.0850403

> <r_epik_Ionization_Penalty_Neutral>
1.47497e-07

> <r_epik_State_Penalty>
2.6133

> <r_epik_Charging_Adjusted_Penalty>
2.69834

> <i_epik_Tot_Q>
0

> <i_epik_Tot_abs_Q>
0

> <r_epik_Metal_State_Penalty>
2.92945

> <b_epik_Metal_Only>
0

> <s_epik_Chemistry_Notes>
This compound contains an acetal/aminal-like group ( X-CH(R)-Y where X, Y are N, S, or O) that may be acid/base labile, releasing an aldehyde.

> <s_lp_Force_Field>
OPLS_2005

> <r_lp_Energy>
44.9546

> <b_lp_Chiralities_Consistent>
1

> <s_lp_Variant>
AV-unprocessed.smi:36-11

> <Gold.Version>
5.8.1

> <Gold.Id.Protein>
6NUR|6NUR_protein|mol2

> <Gold.PLP.Fitness>
48.1997

> <Gold.PLP.PLP>
-47.0226

> <Gold.PLP.part.hbond>
-3.8278

> <Gold.PLP.part.metal>
0.0000

> <Gold.PLP.part.buried>
-4.0580

> <Gold.PLP.part.nonpolar>
-39.7758

> <Gold.PLP.part.repulsive>
0.2908

> <Gold.PLP.ligand.clash>
0.0000

> <Gold.PLP.ligand.torsion>
2.8086

> <Gold.PLP.Chemscore.Hbond>
1.1469

> <Gold.PLP.Chemscore.CHOScore>
1.0000

> <Gold.PLP.Chemscore.Metal>
0.0000

> <Gold.Chemscore.Hbonds>
donor molecule, donor type, donor heavy atom, donor atom, acceptor molecule, acceptor atom, score
      L1  H    33    63       P1 10957  0.11
      P1  H  7989  7998       L1    20  0.47
      L1  C    28    59       P1  7948  1.00

> <Gold.PLP.Chemscore.Internal.Correction>
0.3538

> <Gold.Rescore>
     Score         DG    S(hbond)    S(metal)    S(lipo)     H(rot)  DE(clash)    DE(int)     intcor
     13.06     -18.03       1.49        0.00     123.98       2.70       0.75       4.22       ----

> <Gold.Chemscore.Fitness>
13.0589

> <Gold.Chemscore.DG>
-18.0268

> <Gold.Chemscore.ZeroCoef>
-5.4800

> <Gold.Chemscore.Hbond>
1.4861

> <Gold.Chemscore.Metal>
0.0000

> <Gold.Chemscore.Lipo>
123.9803

> <Gold.Chemscore.Internal_Hbond>
0.0000

> <Gold.Chemscore.DEClash>
0.7516

> <Gold.Chemscore.DEInternal>
4.2162

> <Gold.Chemscore.Rot>
2.7041

> <Gold.Chemscore.Internal.Correction>
   9.000000E+99

> <Gold.Chemscore.Hbonds>
donor molecule, donor type, donor heavy atom, donor atom, acceptor molecule, acceptor atom, score
      L1  H    33    63       P1 10957  0.14
      P1  H  7989  7998       L1    20  0.47

> <Gold.Chemscore.Hbond.Weighted>
-4.9635

> <Gold.Chemscore.Metal.Weighted>
-0.0000

> <Gold.Chemscore.Lipo.Weighted>
-14.5057

> <Gold.Chemscore.Internal_Hbond.Weighted>
0.0000

> <Gold.Chemscore.DEClash.Weighted>
0.7516

> <Gold.Chemscore.DEInternal.Weighted>
4.2162

> <Gold.Chemscore.Rot.Weighted>
6.9225

> <Gold.Chemscore.Internal.Correction.Weighted>
   9.000000E+99

> <Gold.Protein.RotatedTorsions>
[ 6907 6896 6895 6894 ] final  112.19 input  -60.11 | X-H torsion
[ 7974 7965 7964 7962 ] final  106.45 input  175.53 | X-H torsion
[ 8008 7997 7996 7995 ] final -164.88 input   59.86 | X-H torsion
[ 10167 10162 10161 10158 ] final -126.81 input  -65.29 | X-H torsion
[ 10718 10713 10712 10709 ] final   22.13 input   66.30 | X-H torsion
[ 10763 10752 10751 10750 ] final -161.19 input  -60.55 | X-H torsion
[ 11005 11000 10999 10996 ] final   61.12 input  -57.11 | X-H torsion

> <Gold.Protein.ActiveResidues>
 VAL166  LYS551  ARG553  GLY616  TRP617  ASP618  TYR619  PRO620  LYS621  CYS622 
 ASP623  PHE694  ASN695  SER759  ASP760  ASP761  ALA762  ILE779  LEU786  VAL792 
 PHE793  MET794  SER795  GLU796  ALA797  LYS798  CYS799  TRP800  GLU811  SER814 

> <Gold.Protein.RotatedAtoms>
  152.4929  133.8550  159.7220 H   0  0  0  0  0  0  0  0  0  0  0  0  # atno 6907 bound_to 6896
  150.9077  133.7028  159.2869 H   0  0  0  0  0  0  0  0  0  0  0  0  # atno 6908 bound_to 6896
  151.4448  135.1028  159.9733 H   0  0  0  0  0  0  0  0  0  0  0  0  # atno 6909 bound_to 6896
  145.3065  139.2553  143.3786 H   0  0  0  0  0  0  0  0  0  0  0  0  # atno 7974 bound_to 7965
  155.8419  140.0949  157.1729 H   0  0  0  0  0  0  0  0  0  0  0  0  # atno 8008 bound_to 7997
  154.3982  140.1399  156.3801 H   0  0  0  0  0  0  0  0  0  0  0  0  # atno 8009 bound_to 7997
  155.8055  140.3451  155.5429 H   0  0  0  0  0  0  0  0  0  0  0  0  # atno 8010 bound_to 7997
  139.9676  143.5881  152.2424 H   0  0  0  0  0  0  0  0  0  0  0  0  # atno 10167 bound_to 10162
  157.1481  130.6662  149.6003 H   0  0  0  0  0  0  0  0  0  0  0  0  # atno 10718 bound_to 10713
  154.7325  135.3050  154.8867 H   0  0  0  0  0  0  0  0  0  0  0  0  # atno 10763 bound_to 10752
  153.9706  135.6742  153.4751 H   0  0  0  0  0  0  0  0  0  0  0  0  # atno 10764 bound_to 10752
  153.0932  135.4949  154.8650 H   0  0  0  0  0  0  0  0  0  0  0  0  # atno 10765 bound_to 10752
  140.0183  134.6191  155.9676 H   0  0  0  0  0  0  0  0  0  0  0  0  # atno 11005 bound_to 11000
  146.3133  140.3591  142.8663 LP  0  0  0  0  0  0  0  0  0  0  0  0  # atno 17320 bound_to 7965
  144.9051  140.7690  143.5842 LP  0  0  0  0  0  0  0  0  0  0  0  0  # atno 17321 bound_to 7965
  139.6506  144.7660  151.2156 LP  0  0  0  0  0  0  0  0  0  0  0  0  # atno 17342 bound_to 10162
  140.7533  143.6167  150.8553 LP  0  0  0  0  0  0  0  0  0  0  0  0  # atno 17343 bound_to 10162
  155.9775  130.4754  150.6601 LP  0  0  0  0  0  0  0  0  0  0  0  0  # atno 17370 bound_to 10713
  157.4246  131.0841  151.1098 LP  0  0  0  0  0  0  0  0  0  0  0  0  # atno 17371 bound_to 10713
  141.1757  133.6540  156.4821 LP  0  0  0  0  0  0  0  0  0  0  0  0  # atno 17394 bound_to 11000
  140.4431  134.6997  157.5002 LP  0  0  0  0  0  0  0  0  0  0  0  0  # atno 17395 bound_to 11000

$$$$
