AV-unprocessed.smi:2057|AV-procd|sdf|8340|dock6
  -GOLD-   2272011 03D 1   1.00000     0.00000
 Structure written by MMmdl.
 44 46  0  0  0  0  0  0  0  0  1 V2000
  146.7274  141.4482  154.4967 C   0  0  0  0  0  0  0  0  0  0  0  0
  148.1210  141.7111  154.5701 O   0  0  0  0  0  0  0  0  0  0  0  0
  148.9707  140.6480  154.7873 C   0  0  0  0  0  0  0  0  0  0  0  0
  148.7102  139.3217  154.3698 C   0  0  0  0  0  0  0  0  0  0  0  0
  149.6413  138.2978  154.6240 C   0  0  0  0  0  0  0  0  0  0  0  0
  150.8530  138.5709  155.3059 C   0  0  0  0  0  0  0  0  0  0  0  0
  151.8105  137.6111  155.5667 O   0  0  0  0  0  0  0  0  0  0  0  0
  151.6001  136.2943  155.0796 C   0  0  0  0  0  0  0  0  0  0  0  0
  151.1093  139.8944  155.7395 C   0  0  0  0  0  0  0  0  0  0  0  0
  152.4096  140.2197  156.4691 C   0  0  2  0  0  0  0  0  0  0  0  0
  153.5412  139.5978  155.8888 O   0  0  0  0  0  0  0  0  0  0  0  0
  152.3119  139.8446  157.9615 C   0  0  0  0  0  0  0  0  0  0  0  0
  152.7196  140.9280  158.8451 N   0  0  0  0  0  0  0  0  0  0  0  0
  153.7948  140.9690  159.6716 C   0  0  0  0  0  0  0  0  0  0  0  0
  154.7527  139.8144  159.7647 C   0  0  0  0  0  0  0  0  0  0  0  0
  155.5196  139.6072  158.5957 O   0  0  0  0  0  0  0  0  0  0  0  0
  153.9386  142.0957  160.3734 N   0  0  0  0  0  0  0  0  0  0  0  0
  152.8574  142.8516  159.9653 C   0  0  0  0  0  0  0  0  0  0  0  0
  152.4485  144.1501  160.3454 C   0  0  0  0  0  0  0  0  0  0  0  0
  151.2898  144.7265  159.7847 C   0  0  0  0  0  0  0  0  0  0  0  0
  150.5252  144.0145  158.8378 C   0  0  0  0  0  0  0  0  0  0  0  0
  150.9161  142.7203  158.4442 C   0  0  0  0  0  0  0  0  0  0  0  0
  152.0733  142.1495  159.0072 C   0  0  0  0  0  0  0  0  0  0  0  0
  150.1729  140.9175  155.4680 C   0  0  0  0  0  0  0  0  0  0  0  0
  146.1938  142.3814  154.3175 H   0  0  0  0  0  0  0  0  0  0  0  0
  146.3517  141.0278  155.4306 H   0  0  0  0  0  0  0  0  0  0  0  0
  146.4919  140.7711  153.6744 H   0  0  0  0  0  0  0  0  0  0  0  0
  147.8029  139.0627  153.8456 H   0  0  0  0  0  0  0  0  0  0  0  0
  149.3996  137.3042  154.2788 H   0  0  0  0  0  0  0  0  0  0  0  0
  152.4501  135.6707  155.3560 H   0  0  0  0  0  0  0  0  0  0  0  0
  151.5208  136.2791  153.9917 H   0  0  0  0  0  0  0  0  0  0  0  0
  150.7065  135.8451  155.5147 H   0  0  0  0  0  0  0  0  0  0  0  0
  152.5934  141.2902  156.3791 H   0  0  0  0  0  0  0  0  0  0  0  0
  153.6382  138.7382  156.2692 H   0  0  0  0  0  0  0  0  0  0  0  0
  151.2906  139.5579  158.2134 H   0  0  0  0  0  0  0  0  0  0  0  0
  152.9283  138.9698  158.1726 H   0  0  0  0  0  0  0  0  0  0  0  0
  155.4385  139.9776  160.5953 H   0  0  0  0  0  0  0  0  0  0  0  0
  154.1917  138.9042  159.9775 H   0  0  0  0  0  0  0  0  0  0  0  0
  156.1374  138.9117  158.7606 H   0  0  0  0  0  0  0  0  0  0  0  0
  153.0277  144.7033  161.0696 H   0  0  0  0  0  0  0  0  0  0  0  0
  150.9858  145.7190  160.0829 H   0  0  0  0  0  0  0  0  0  0  0  0
  149.6379  144.4617  158.4145 H   0  0  0  0  0  0  0  0  0  0  0  0
  150.3319  142.1709  157.7210 H   0  0  0  0  0  0  0  0  0  0  0  0
  150.3744  141.9322  155.7788 H   0  0  0  0  0  0  0  0  0  0  0  0
  1  2  1  0  0  0  0
  1 25  1  0  0  0  0
  1 26  1  0  0  0  0
  1 27  1  0  0  0  0
  2  3  1  0  0  0  0
  3 24  1  0  0  0  0
  3  4  2  0  0  0  0
  4  5  1  0  0  0  0
  4 28  1  0  0  0  0
  5  6  2  0  0  0  0
  5 29  1  0  0  0  0
  6  7  1  0  0  0  0
  6  9  1  0  0  0  0
  7  8  1  0  0  0  0
  8 30  1  0  0  0  0
  8 31  1  0  0  0  0
  8 32  1  0  0  0  0
  9 10  1  0  0  0  0
  9 24  2  0  0  0  0
 10 11  1  0  0  0  0
 10 12  1  0  0  0  0
 10 33  1  0  0  0  0
 11 34  1  0  0  0  0
 12 13  1  0  0  0  0
 12 35  1  0  0  0  0
 12 36  1  0  0  0  0
 13 23  1  0  0  0  0
 13 14  1  0  0  0  0
 14 15  1  0  0  0  0
 14 17  2  0  0  0  0
 15 16  1  0  0  0  0
 15 37  1  0  0  0  0
 15 38  1  0  0  0  0
 16 39  1  0  0  0  0
 17 18  1  0  0  0  0
 18 23  2  0  0  0  0
 18 19  1  0  0  0  0
 19 20  2  0  0  0  0
 19 40  1  0  0  0  0
 20 21  1  0  0  0  0
 20 41  1  0  0  0  0
 21 22  2  0  0  0  0
 21 42  1  0  0  0  0
 22 23  1  0  0  0  0
 22 43  1  0  0  0  0
 24 44  1  0  0  0  0
M  END
> <s_m_source_file>
AV-unprocessed.smi

> <i_m_source_file_index>
2057

> <i_lp_mmshare_version>
43012

> <i_f3d_flags>
0

> <s_epik_input>
W0NIM11PYzFbY0hdW2NIXWMoT1tDSDNdKWMoW2NIXTEpW0NASF0oW09IXSlbQ0gyXW4oYyhuMilbQ0gyXVtPSF0pYyhjMjMpW2NIXVtjSF1bY0hdW2NIXTM=

> <s_epik_cmdline>
J2VwaWtfcHl0aG9uJywgJy1waCcsICc3LjAnLCAnLXRuJywgJzgnLCAnLW1hJywgJzIwMCcsICctbWV0YWxfYmluZGluZycsICctaW1hZScsICc8aW5maWxlLm1hZT4nLCAnLW9tYWUnLCAnPG91dGZpbGUubWFlPic=

> <r_lp_tautomer_probability>
1

> <r_epik_Ionization_Penalty>
0.0634722

> <r_epik_Ionization_Penalty_Charging>
0

> <r_epik_Ionization_Penalty_Neutral>
0.0634722

> <r_epik_State_Penalty>
0.0551572

> <r_epik_Charging_Adjusted_Penalty>
0.0551572

> <i_epik_Tot_Q>
0

> <i_epik_Tot_abs_Q>
0

> <r_epik_Metal_State_Penalty>
5.78034e-05

> <b_epik_Metal_Only>
0

> <s_lp_Force_Field>
OPLS_2005

> <r_lp_Energy>
18.6198

> <b_lp_Chiralities_Consistent>
1

> <s_lp_Variant>
AV-unprocessed.smi:2057-1

> <Gold.Version>
5.8.1

> <Gold.Id.Protein>
6NUR|6NUR_protein|mol2

> <Gold.PLP.Fitness>
52.3571

> <Gold.PLP.PLP>
-49.6013

> <Gold.PLP.part.hbond>
-3.0000

> <Gold.PLP.part.metal>
0.0000

> <Gold.PLP.part.buried>
-6.2027

> <Gold.PLP.part.nonpolar>
-41.1507

> <Gold.PLP.part.repulsive>
1.5381

> <Gold.PLP.ligand.clash>
0.0000

> <Gold.PLP.ligand.torsion>
1.6667

> <Gold.PLP.Chemscore.Hbond>
2.0168

> <Gold.PLP.Chemscore.CHOScore>
0.0000

> <Gold.PLP.Chemscore.Metal>
0.0000

> <Gold.Chemscore.Hbonds>
donor molecule, donor type, donor heavy atom, donor atom, acceptor molecule, acceptor atom, score
      P1  H  7997  8010       L1    16  0.44

> <Gold.PLP.Chemscore.Internal.Correction>
0.0390

> <Gold.Rescore>
     Score         DG    S(hbond)    S(metal)    S(lipo)     H(rot)  DE(clash)    DE(int)     intcor
     15.53     -17.72       1.58        0.00     128.84       3.17       0.34       1.85       ----

> <Gold.Chemscore.Fitness>
15.5266

> <Gold.Chemscore.DG>
-17.7197

> <Gold.Chemscore.ZeroCoef>
-5.4800

> <Gold.Chemscore.Hbond>
1.5784

> <Gold.Chemscore.Metal>
0.0000

> <Gold.Chemscore.Lipo>
128.8382

> <Gold.Chemscore.Internal_Hbond>
0.0000

> <Gold.Chemscore.DEClash>
0.3446

> <Gold.Chemscore.DEInternal>
1.8485

> <Gold.Chemscore.Rot>
3.1665

> <Gold.Chemscore.Internal.Correction>
   9.000000E+99

> <Gold.Chemscore.Hbonds>
donor molecule, donor type, donor heavy atom, donor atom, acceptor molecule, acceptor atom, score
      P1  H  7997  8008       L1    11  0.01
      P1  H  7997  8010       L1    16  0.39

> <Gold.Chemscore.Hbond.Weighted>
-5.2718

> <Gold.Chemscore.Metal.Weighted>
-0.0000

> <Gold.Chemscore.Lipo.Weighted>
-15.0741

> <Gold.Chemscore.Internal_Hbond.Weighted>
0.0000

> <Gold.Chemscore.DEClash.Weighted>
0.3446

> <Gold.Chemscore.DEInternal.Weighted>
1.8485

> <Gold.Chemscore.Rot.Weighted>
8.1062

> <Gold.Chemscore.Internal.Correction.Weighted>
   9.000000E+99

> <Gold.Protein.RotatedTorsions>
[ 6907 6896 6895 6894 ] final  173.83 input  -60.11 | X-H torsion
[ 7974 7965 7964 7962 ] final  -45.25 input  175.53 | X-H torsion
[ 8008 7997 7996 7995 ] final  -21.85 input   59.86 | X-H torsion
[ 10167 10162 10161 10158 ] final -137.46 input  -65.29 | X-H torsion
[ 10718 10713 10712 10709 ] final   78.82 input   66.30 | X-H torsion
[ 10763 10752 10751 10750 ] final   10.10 input  -60.55 | X-H torsion
[ 11005 11000 10999 10996 ] final  118.74 input  -57.11 | X-H torsion

> <Gold.Protein.ActiveResidues>
 VAL166  LYS551  ARG553  GLY616  TRP617  ASP618  TYR619  PRO620  LYS621  CYS622 
 ASP623  PHE694  ASN695  SER759  ASP760  ASP761  ALA762  ILE779  LEU786  VAL792 
 PHE793  MET794  SER795  GLU796  ALA797  LYS798  CYS799  TRP800  GLU811  SER814 

> <Gold.Protein.RotatedAtoms>
  151.7621  133.3334  159.3420 H   0  0  0  0  0  0  0  0  0  0  0  0  # atno 6907 bound_to 6896
  150.7494  134.6096  159.6089 H   0  0  0  0  0  0  0  0  0  0  0  0  # atno 6908 bound_to 6896
  152.3398  134.7151  160.0318 H   0  0  0  0  0  0  0  0  0  0  0  0  # atno 6909 bound_to 6896
  145.9839  140.7254  142.9350 H   0  0  0  0  0  0  0  0  0  0  0  0  # atno 7974 bound_to 7965
  154.4680  140.2024  156.0068 H   0  0  0  0  0  0  0  0  0  0  0  0  # atno 8008 bound_to 7997
  156.0961  140.3251  155.7851 H   0  0  0  0  0  0  0  0  0  0  0  0  # atno 8009 bound_to 7997
  155.4875  140.0543  157.2949 H   0  0  0  0  0  0  0  0  0  0  0  0  # atno 8010 bound_to 7997
  139.8575  143.7119  152.2653 H   0  0  0  0  0  0  0  0  0  0  0  0  # atno 10167 bound_to 10162
  157.6757  130.9886  150.1842 H   0  0  0  0  0  0  0  0  0  0  0  0  # atno 10718 bound_to 10713
  153.2069  135.6863  153.8162 H   0  0  0  0  0  0  0  0  0  0  0  0  # atno 10763 bound_to 10752
  153.7408  135.3238  155.3304 H   0  0  0  0  0  0  0  0  0  0  0  0  # atno 10764 bound_to 10752
  154.8201  135.4658  154.0859 H   0  0  0  0  0  0  0  0  0  0  0  0  # atno 10765 bound_to 10752
  139.9120  134.9623  156.7549 H   0  0  0  0  0  0  0  0  0  0  0  0  # atno 11005 bound_to 11000
  144.6869  140.2955  143.7271 LP  0  0  0  0  0  0  0  0  0  0  0  0  # atno 17320 bound_to 7965
  145.7729  139.1864  143.2202 LP  0  0  0  0  0  0  0  0  0  0  0  0  # atno 17321 bound_to 7965
  139.7405  144.7560  151.0659 LP  0  0  0  0  0  0  0  0  0  0  0  0  # atno 17342 bound_to 10162
  140.7779  143.4978  150.9811 LP  0  0  0  0  0  0  0  0  0  0  0  0  # atno 17343 bound_to 10162
  156.2568  130.3706  149.8173 LP  0  0  0  0  0  0  0  0  0  0  0  0  # atno 17370 bound_to 10713
  156.5930  130.8514  151.3413 LP  0  0  0  0  0  0  0  0  0  0  0  0  # atno 17371 bound_to 10713
  140.6744  133.9531  155.7874 LP  0  0  0  0  0  0  0  0  0  0  0  0  # atno 17394 bound_to 11000
  141.0555  134.0423  157.3728 LP  0  0  0  0  0  0  0  0  0  0  0  0  # atno 17395 bound_to 11000

$$$$
