AV-unprocessed.smi:1406|AV-procd|sdf|5721|dock8
  -GOLD-   22720 5353D 1   1.00000     0.00000
 Structure written by MMmdl.
 41 43  0  0  0  0  0  0  0  0  2 V2000
  146.4330  133.1382  153.1493 C   0  0  0  0  0  0  0  0  0  0  0  0
  146.1074  133.8801  151.8374 C   0  0  2  0  0  0  0  0  0  0  0  0
  145.5096  135.2772  152.0714 C   0  0  0  0  0  0  0  0  0  0  0  0
  144.3225  135.4152  152.3690 O   0  0  0  0  0  0  0  0  0  0  0  0
  146.3524  136.3145  151.9433 N   0  0  0  0  0  0  0  0  0  0  0  0
  145.9779  137.7164  152.1059 C   0  0  2  0  0  0  0  0  0  0  0  0
  146.8626  138.6744  151.3186 C   0  0  0  0  0  0  0  0  0  0  0  0
  146.6040  140.0232  151.9989 C   0  0  0  0  0  0  0  0  0  0  0  0
  146.1912  139.7299  153.3939 N   0  3  2  0  0  0  0  0  0  0  0  0
  147.0075  140.4224  154.4273 C   0  0  0  0  0  0  0  0  0  0  0  0
  146.8182  139.7719  155.8056 C   0  0  0  0  0  0  0  0  0  0  0  0
  147.2853  138.3040  155.8040 C   0  0  0  0  0  0  0  0  0  0  0  0
  147.2378  137.6716  154.3996 C   0  0  0  0  0  0  0  0  0  0  0  0
  146.0822  138.2513  153.5470 C   0  0  2  0  0  0  0  0  0  0  0  0
  145.2419  133.0915  150.9689 N   0  0  0  0  0  0  0  0  0  0  0  0
  145.5309  132.0508  150.1848 C   0  0  0  0  0  0  0  0  0  0  0  0
  144.4948  131.5885  149.4994 N   0  0  0  0  0  0  0  0  0  0  0  0
  143.5303  132.4532  149.9329 C   0  0  0  0  0  0  0  0  0  0  0  0
  143.9262  133.3790  150.8062 N   0  0  0  0  0  0  0  0  0  0  0  0
  147.1255  133.7127  153.7656 H   0  0  0  0  0  0  0  0  0  0  0  0
  146.9026  132.1759  152.9435 H   0  0  0  0  0  0  0  0  0  0  0  0
  145.5394  132.9473  153.7452 H   0  0  0  0  0  0  0  0  0  0  0  0
  147.0501  134.0221  151.3062 H   0  0  0  0  0  0  0  0  0  0  0  0
  147.3130  136.1201  151.7005 H   0  0  0  0  0  0  0  0  0  0  0  0
  144.9519  137.8498  151.7554 H   0  0  0  0  0  0  0  0  0  0  0  0
  147.9125  138.3992  151.4313 H   0  0  0  0  0  0  0  0  0  0  0  0
  146.6311  138.6887  150.2530 H   0  0  0  0  0  0  0  0  0  0  0  0
  147.4761  140.6753  151.9366 H   0  0  0  0  0  0  0  0  0  0  0  0
  145.7785  140.5389  151.5071 H   0  0  0  0  0  0  0  0  0  0  0  0
  148.0651  140.3870  154.1594 H   0  0  0  0  0  0  0  0  0  0  0  0
  146.7241  141.4749  154.4561 H   0  0  0  0  0  0  0  0  0  0  0  0
  147.3543  140.3329  156.5717 H   0  0  0  0  0  0  0  0  0  0  0  0
  145.7626  139.8179  156.0773 H   0  0  0  0  0  0  0  0  0  0  0  0
  148.3036  138.2342  156.1884 H   0  0  0  0  0  0  0  0  0  0  0  0
  146.6618  137.7330  156.4930 H   0  0  0  0  0  0  0  0  0  0  0  0
  148.1856  137.8524  153.8907 H   0  0  0  0  0  0  0  0  0  0  0  0
  147.1502  136.5897  154.5012 H   0  0  0  0  0  0  0  0  0  0  0  0
  145.1493  138.0350  154.0701 H   0  0  0  0  0  0  0  0  0  0  0  0
  146.5200  131.6228  150.1127 H   0  0  0  0  0  0  0  0  0  0  0  0
  142.5071  132.4021  149.5905 H   0  0  0  0  0  0  0  0  0  0  0  0
  145.2491  140.0820  153.4883 H   0  0  0  0  0  0  0  0  0  0  0  0
  1  2  1  0  0  0  0
  1 20  1  0  0  0  0
  1 21  1  0  0  0  0
  1 22  1  0  0  0  0
  2  3  1  0  0  0  0
  2 15  1  0  0  0  0
  2 23  1  0  0  0  0
  3  4  2  0  0  0  0
  3  5  1  0  0  0  0
  5  6  1  0  0  0  0
  5 24  1  0  0  0  0
  6 14  1  0  0  0  0
  6  7  1  0  0  0  0
  6 25  1  0  0  0  0
  7  8  1  0  0  0  0
  7 26  1  0  0  0  0
  7 27  1  0  0  0  0
  8  9  1  0  0  0  0
  8 28  1  0  0  0  0
  8 29  1  0  0  0  0
  9 14  1  0  0  0  0
  9 10  1  0  0  0  0
  9 41  1  0  0  0  0
 10 11  1  0  0  0  0
 10 30  1  0  0  0  0
 10 31  1  0  0  0  0
 11 12  1  0  0  0  0
 11 32  1  0  0  0  0
 11 33  1  0  0  0  0
 12 13  1  0  0  0  0
 12 34  1  0  0  0  0
 12 35  1  0  0  0  0
 13 14  1  0  0  0  0
 13 36  1  0  0  0  0
 13 37  1  0  0  0  0
 14 38  1  0  0  0  0
 15 19  1  0  0  0  0
 15 16  1  0  0  0  0
 16 17  2  0  0  0  0
 16 39  1  0  0  0  0
 17 18  1  0  0  0  0
 18 19  2  0  0  0  0
 18 40  1  0  0  0  0
M  CHG  1   9   1
M  END
> <s_m_source_file>
AV-unprocessed.smi

> <i_m_source_file_index>
1406

> <i_lp_mmshare_version>
43012

> <i_f3d_flags>
0

> <s_epik_input>
bjFbY0hdbltjSF1uMVtDQEhdKFtDSDNdKUMoPU8pW05IXVtDQEhdKFtDSDJdW0NIMl0yKVtDQEBIXShOMjMpW0NIMl1bQ0gyXVtDSDJdW0NIMl0z

> <s_epik_cmdline>
J2VwaWtfcHl0aG9uJywgJy1waCcsICc3LjAnLCAnLXRuJywgJzgnLCAnLW1hJywgJzIwMCcsICctbWV0YWxfYmluZGluZycsICctaW1hZScsICc8aW5maWxlLm1hZT4nLCAnLW9tYWUnLCAnPG91dGZpbGUubWFlPic=

> <r_lp_tautomer_probability>
1

> <r_epik_Ionization_Penalty>
0.00197066

> <r_epik_Ionization_Penalty_Charging>
0.00196223

> <r_epik_Ionization_Penalty_Neutral>
8.43107e-06

> <r_epik_State_Penalty>
0.00133866

> <r_epik_Charging_Adjusted_Penalty>
0.00330089

> <i_epik_Tot_Q>
1

> <i_epik_Tot_abs_Q>
1

> <r_epik_Metal_State_Penalty>
-0

> <b_epik_Metal_Only>
0

> <s_lp_Force_Field>
OPLS_2005

> <r_lp_Energy>
46.3739

> <b_lp_Chiralities_Consistent>
1

> <s_lp_Variant>
AV-unprocessed.smi:1406-13

> <Gold.Version>
5.8.1

> <Gold.Id.Protein>
6NUR|6NUR_protein|mol2

> <Gold.PLP.Fitness>
38.4745

> <Gold.PLP.PLP>
-24.2350

> <Gold.PLP.part.hbond>
-3.0000

> <Gold.PLP.part.metal>
0.0000

> <Gold.PLP.part.buried>
2.8127

> <Gold.PLP.part.nonpolar>
-25.6494

> <Gold.PLP.part.repulsive>
0.4779

> <Gold.PLP.ligand.clash>
0.0000

> <Gold.PLP.ligand.torsion>
1.3127

> <Gold.PLP.Chemscore.Hbond>
3.0155

> <Gold.PLP.Chemscore.CHOScore>
2.5747

> <Gold.PLP.Chemscore.Metal>
0.0000

> <Gold.Chemscore.Hbonds>
donor molecule, donor type, donor heavy atom, donor atom, acceptor molecule, acceptor atom, score
      L1  H     5    24       P1  7948  1.00
      L1  H     9    41       P1 10175  1.70
      P1  H 10785 10796       L1    17  0.36
      L1  C    16    39       P1 10747  0.91
      L1  C    18    40       P1 10186  0.86
      L1  C    18    40       P1 10952  0.70

> <Gold.PLP.Chemscore.Internal.Correction>
0.0946

> <Gold.Rescore>
     Score         DG    S(hbond)    S(metal)    S(lipo)     H(rot)  DE(clash)    DE(int)     intcor
     10.09     -13.83       2.26        0.00      48.11       1.89       1.05       2.70       ----

> <Gold.Chemscore.Fitness>
10.0918

> <Gold.Chemscore.DG>
-13.8350

> <Gold.Chemscore.ZeroCoef>
-5.4800

> <Gold.Chemscore.Hbond>
2.2623

> <Gold.Chemscore.Metal>
0.0000

> <Gold.Chemscore.Lipo>
48.1059

> <Gold.Chemscore.Internal_Hbond>
0.0000

> <Gold.Chemscore.DEClash>
1.0477

> <Gold.Chemscore.DEInternal>
2.6954

> <Gold.Chemscore.Rot>
1.8865

> <Gold.Chemscore.Internal.Correction>
   9.000000E+99

> <Gold.Chemscore.Hbonds>
donor molecule, donor type, donor heavy atom, donor atom, acceptor molecule, acceptor atom, score
      L1  H     5    24       P1  7948  0.98
      L1  H     9    41       P1 10175  0.83
      P1  H 10785 10796       L1    17  0.07

> <Gold.Chemscore.Hbond.Weighted>
-7.5561

> <Gold.Chemscore.Metal.Weighted>
-0.0000

> <Gold.Chemscore.Lipo.Weighted>
-5.6284

> <Gold.Chemscore.Internal_Hbond.Weighted>
0.0000

> <Gold.Chemscore.DEClash.Weighted>
1.0477

> <Gold.Chemscore.DEInternal.Weighted>
2.6954

> <Gold.Chemscore.Rot.Weighted>
4.8295

> <Gold.Chemscore.Internal.Correction.Weighted>
   9.000000E+99

> <Gold.Protein.RotatedTorsions>
[ 6907 6896 6895 6894 ] final -112.11 input  -60.11 | X-H torsion
[ 7974 7965 7964 7962 ] final  -68.64 input  175.53 | X-H torsion
[ 8008 7997 7996 7995 ] final   89.30 input   59.86 | X-H torsion
[ 10167 10162 10161 10158 ] final  -38.53 input  -65.29 | X-H torsion
[ 10718 10713 10712 10709 ] final  -62.50 input   66.30 | X-H torsion
[ 10763 10752 10751 10750 ] final    6.95 input  -60.55 | X-H torsion
[ 11005 11000 10999 10996 ] final   20.51 input  -57.11 | X-H torsion

> <Gold.Protein.ActiveResidues>
 VAL166  LYS551  ARG553  GLY616  TRP617  ASP618  TYR619  PRO620  LYS621  CYS622 
 ASP623  PHE694  ASN695  SER759  ASP760  ASP761  ALA762  ILE779  LEU786  VAL792 
 PHE793  MET794  SER795  GLU796  ALA797  LYS798  CYS799  TRP800  GLU811  SER814 

> <Gold.Protein.RotatedAtoms>
  150.7736  133.9137  159.3376 H   0  0  0  0  0  0  0  0  0  0  0  0  # atno 6907 bound_to 6896
  151.7018  135.0927  160.0261 H   0  0  0  0  0  0  0  0  0  0  0  0  # atno 6908 bound_to 6896
  152.3763  133.6448  159.6162 H   0  0  0  0  0  0  0  0  0  0  0  0  # atno 6909 bound_to 6896
  145.7139  140.9067  143.0666 H   0  0  0  0  0  0  0  0  0  0  0  0  # atno 7974 bound_to 7965
  155.9983  140.3362  155.6820 H   0  0  0  0  0  0  0  0  0  0  0  0  # atno 8008 bound_to 7997
  155.6326  140.0686  157.2662 H   0  0  0  0  0  0  0  0  0  0  0  0  # atno 8009 bound_to 7997
  154.4241  140.1757  156.1476 H   0  0  0  0  0  0  0  0  0  0  0  0  # atno 8010 bound_to 7997
  140.7089  143.3271  151.2654 H   0  0  0  0  0  0  0  0  0  0  0  0  # atno 10167 bound_to 10162
  156.0851  130.4210  150.1143 H   0  0  0  0  0  0  0  0  0  0  0  0  # atno 10718 bound_to 10713
  153.2418  135.6904  153.7775 H   0  0  0  0  0  0  0  0  0  0  0  0  # atno 10763 bound_to 10752
  153.6902  135.3314  155.3201 H   0  0  0  0  0  0  0  0  0  0  0  0  # atno 10764 bound_to 10752
  154.8358  135.4543  154.1343 H   0  0  0  0  0  0  0  0  0  0  0  0  # atno 10765 bound_to 10752
  140.4018  134.1710  155.7664 H   0  0  0  0  0  0  0  0  0  0  0  0  # atno 11005 bound_to 11000
  144.6934  139.9111  143.7463 LP  0  0  0  0  0  0  0  0  0  0  0  0  # atno 17320 bound_to 7965
  146.0687  139.3677  143.0536 LP  0  0  0  0  0  0  0  0  0  0  0  0  # atno 17321 bound_to 7965
  139.6743  143.9965  152.2771 LP  0  0  0  0  0  0  0  0  0  0  0  0  # atno 17342 bound_to 10162
  139.9574  144.6580  150.8112 LP  0  0  0  0  0  0  0  0  0  0  0  0  # atno 17343 bound_to 10162
  156.9166  130.9669  151.3555 LP  0  0  0  0  0  0  0  0  0  0  0  0  # atno 17370 bound_to 10713
  157.5983  130.8493  149.8762 LP  0  0  0  0  0  0  0  0  0  0  0  0  # atno 17371 bound_to 10713
  141.1854  133.8325  157.1107 LP  0  0  0  0  0  0  0  0  0  0  0  0  # atno 17394 bound_to 11000
  140.0330  134.9892  157.0818 LP  0  0  0  0  0  0  0  0  0  0  0  0  # atno 17395 bound_to 11000

$$$$
