AV-unprocessed.smi:1822|AV-procd|sdf|7390|dock9
  -GOLD-   22720 9 63D 1   1.00000     0.00000
 Structure written by MMmdl.
 46 47  0  0  0  0  0  0  0  0  1 V2000
  146.4633  129.8280  160.4601 C   0  0  0  0  0  0  0  0  0  0  0  0
  146.5393  131.2435  160.7888 N   0  0  0  0  0  0  0  0  0  0  0  0
  147.0881  132.1806  159.9983 C   0  0  0  0  0  0  0  0  0  0  0  0
  147.5750  131.8985  158.9019 O   0  0  0  0  0  0  0  0  0  0  0  0
  147.0484  133.5309  160.5649 C   0  0  0  0  0  0  0  0  0  0  0  0
  146.8759  133.7935  161.9859 C   0  0  0  0  0  0  0  0  0  0  0  0
  146.8494  135.0579  162.4509 C   0  0  0  0  0  0  0  0  0  0  0  0
  146.9905  136.2121  161.5588 C   0  0  0  0  0  0  0  0  0  0  0  0
  146.9669  137.3689  161.9791 O   0  0  0  0  0  0  0  0  0  0  0  0
  147.1480  135.9220  160.2318 N   0  0  0  0  0  0  0  0  0  0  0  0
  147.3011  136.9985  159.2383 C   0  0  0  0  0  0  0  0  0  0  0  0
  148.7725  137.3348  158.9648 C   0  0  0  0  0  0  0  0  0  0  0  0
  149.6188  136.4440  159.0579 O   0  0  0  0  0  0  0  0  0  0  0  0
  149.0276  138.6154  158.6242 N   0  0  0  0  0  0  0  0  0  0  0  0
  150.2205  139.1669  158.3316 C   0  0  0  0  0  0  0  0  0  0  0  0
  151.2740  138.5513  158.1547 O   0  0  0  0  0  0  0  0  0  0  0  0
  150.1230  140.5021  158.2485 N   0  0  0  0  0  0  0  0  0  0  0  0
  151.2412  141.4379  158.3205 C   0  0  0  0  0  0  0  0  0  0  0  0
  151.9924  141.2402  159.6507 C   0  0  0  0  0  0  0  0  0  0  0  0
  153.1399  142.2512  159.8063 C   0  0  0  0  0  0  0  0  0  0  0  0
  152.6323  143.6955  159.6741 C   0  0  0  0  0  0  0  0  0  0  0  0
  151.8884  143.9013  158.3453 C   0  0  0  0  0  0  0  0  0  0  0  0
  150.7407  142.8912  158.1841 C   0  0  0  0  0  0  0  0  0  0  0  0
  147.1764  134.5975  159.7515 C   0  0  0  0  0  0  0  0  0  0  0  0
  146.0034  129.2803  161.2826 H   0  0  0  0  0  0  0  0  0  0  0  0
  147.4577  129.4140  160.2891 H   0  0  0  0  0  0  0  0  0  0  0  0
  145.8604  129.6692  159.5653 H   0  0  0  0  0  0  0  0  0  0  0  0
  146.1538  131.5316  161.6765 H   0  0  0  0  0  0  0  0  0  0  0  0
  146.7644  132.9886  162.6974 H   0  0  0  0  0  0  0  0  0  0  0  0
  146.7199  135.2280  163.5097 H   0  0  0  0  0  0  0  0  0  0  0  0
  146.8091  136.7251  158.3028 H   0  0  0  0  0  0  0  0  0  0  0  0
  146.7949  137.9073  159.5675 H   0  0  0  0  0  0  0  0  0  0  0  0
  148.2293  139.2320  158.5882 H   0  0  0  0  0  0  0  0  0  0  0  0
  149.2059  140.9039  158.1210 H   0  0  0  0  0  0  0  0  0  0  0  0
  151.9366  141.2262  157.5057 H   0  0  0  0  0  0  0  0  0  0  0  0
  151.3002  141.3501  160.4868 H   0  0  0  0  0  0  0  0  0  0  0  0
  152.3885  140.2257  159.7092 H   0  0  0  0  0  0  0  0  0  0  0  0
  153.6262  142.1157  160.7727 H   0  0  0  0  0  0  0  0  0  0  0  0
  153.9002  142.0601  159.0480 H   0  0  0  0  0  0  0  0  0  0  0  0
  151.9658  143.9268  160.5060 H   0  0  0  0  0  0  0  0  0  0  0  0
  153.4682  144.3919  159.7443 H   0  0  0  0  0  0  0  0  0  0  0  0
  151.4988  144.9182  158.2911 H   0  0  0  0  0  0  0  0  0  0  0  0
  152.5876  143.7937  157.5152 H   0  0  0  0  0  0  0  0  0  0  0  0
  150.2632  143.0359  157.2142 H   0  0  0  0  0  0  0  0  0  0  0  0
  149.9763  143.0907  158.9363 H   0  0  0  0  0  0  0  0  0  0  0  0
  147.3060  134.5147  158.6812 H   0  0  0  0  0  0  0  0  0  0  0  0
  1  2  1  0  0  0  0
  1 25  1  0  0  0  0
  1 26  1  0  0  0  0
  1 27  1  0  0  0  0
  2  3  1  0  0  0  0
  2 28  1  0  0  0  0
  3  4  2  0  0  0  0
  3  5  1  0  0  0  0
  5 24  2  0  0  0  0
  5  6  1  0  0  0  0
  6  7  2  0  0  0  0
  6 29  1  0  0  0  0
  7  8  1  0  0  0  0
  7 30  1  0  0  0  0
  8  9  2  0  0  0  0
  8 10  1  0  0  0  0
 10 11  1  0  0  0  0
 10 24  1  0  0  0  0
 11 12  1  0  0  0  0
 11 31  1  0  0  0  0
 11 32  1  0  0  0  0
 12 13  2  0  0  0  0
 12 14  1  0  0  0  0
 14 15  1  0  0  0  0
 14 33  1  0  0  0  0
 15 16  2  0  0  0  0
 15 17  1  0  0  0  0
 17 18  1  0  0  0  0
 17 34  1  0  0  0  0
 18 23  1  0  0  0  0
 18 19  1  0  0  0  0
 18 35  1  0  0  0  0
 19 20  1  0  0  0  0
 19 36  1  0  0  0  0
 19 37  1  0  0  0  0
 20 21  1  0  0  0  0
 20 38  1  0  0  0  0
 20 39  1  0  0  0  0
 21 22  1  0  0  0  0
 21 40  1  0  0  0  0
 21 41  1  0  0  0  0
 22 23  1  0  0  0  0
 22 42  1  0  0  0  0
 22 43  1  0  0  0  0
 23 44  1  0  0  0  0
 23 45  1  0  0  0  0
 24 46  1  0  0  0  0
M  END
> <s_m_source_file>
AV-unprocessed.smi

> <i_m_source_file_index>
1822

> <i_lp_mmshare_version>
43012

> <i_f3d_flags>
0

> <s_epik_input>
W0NIM11bTkhdQyg9TyljMVtjSF1bY0hdYyg9TyluKFtjSF0xKVtDSDJdQyg9TylbTkhdQyg9TylbTkhdW0NIXTJbQ0gyXVtDSDJdW0NIMl1bQ0gyXVtDSDJdMg==

> <s_epik_cmdline>
J2VwaWtfcHl0aG9uJywgJy1waCcsICc3LjAnLCAnLXRuJywgJzgnLCAnLW1hJywgJzIwMCcsICctbWV0YWxfYmluZGluZycsICctaW1hZScsICc8aW5maWxlLm1hZT4nLCAnLW9tYWUnLCAnPG91dGZpbGUubWFlPic=

> <r_lp_tautomer_probability>
1

> <r_epik_Ionization_Penalty>
3.30797e-05

> <r_epik_Ionization_Penalty_Charging>
3.7169e-08

> <r_epik_Ionization_Penalty_Neutral>
3.30425e-05

> <r_epik_State_Penalty>
-0

> <r_epik_Charging_Adjusted_Penalty>
3.7169e-08

> <i_epik_Tot_Q>
0

> <i_epik_Tot_abs_Q>
0

> <r_epik_Metal_State_Penalty>
-0

> <b_epik_Metal_Only>
0

> <s_lp_Force_Field>
OPLS_2005

> <r_lp_Energy>
24.3679

> <b_lp_Chiralities_Consistent>
1

> <s_lp_Variant>
AV-unprocessed.smi:1822-1

> <Gold.Version>
5.8.1

> <Gold.Id.Protein>
6NUR|6NUR_protein|mol2

> <Gold.PLP.Fitness>
51.0448

> <Gold.PLP.PLP>
-45.7493

> <Gold.PLP.part.hbond>
-3.0000

> <Gold.PLP.part.metal>
0.0000

> <Gold.PLP.part.buried>
-5.5669

> <Gold.PLP.part.nonpolar>
-38.1268

> <Gold.PLP.part.repulsive>
0.3420

> <Gold.PLP.ligand.clash>
0.0000

> <Gold.PLP.ligand.torsion>
1.0174

> <Gold.PLP.Chemscore.Hbond>
2.4400

> <Gold.PLP.Chemscore.CHOScore>
0.0000

> <Gold.PLP.Chemscore.Metal>
0.0000

> <Gold.Chemscore.Hbonds>
donor molecule, donor type, donor heavy atom, donor atom, acceptor molecule, acceptor atom, score
      P1  H  6896  6909       L1    13  0.83
      P1  H  6931  6943       L1     9  0.34
      P1  H  6934  6947       L1     9  0.78

> <Gold.PLP.Chemscore.Internal.Correction>
0.0103

> <Gold.Rescore>
     Score         DG    S(hbond)    S(metal)    S(lipo)     H(rot)  DE(clash)    DE(int)     intcor
     18.46     -20.62       2.49        0.00      93.66       1.62       0.00       2.16       ----

> <Gold.Chemscore.Fitness>
18.4578

> <Gold.Chemscore.DG>
-20.6204

> <Gold.Chemscore.ZeroCoef>
-5.4800

> <Gold.Chemscore.Hbond>
2.4899

> <Gold.Chemscore.Metal>
0.0000

> <Gold.Chemscore.Lipo>
93.6642

> <Gold.Chemscore.Internal_Hbond>
0.0000

> <Gold.Chemscore.DEClash>
0.0000

> <Gold.Chemscore.DEInternal>
2.1626

> <Gold.Chemscore.Rot>
1.6151

> <Gold.Chemscore.Internal.Correction>
   9.000000E+99

> <Gold.Chemscore.Hbonds>
donor molecule, donor type, donor heavy atom, donor atom, acceptor molecule, acceptor atom, score
      P1  H  6896  6909       L1    13  0.80
      P1  H  6931  6943       L1     9  0.27
      P1  H  6934  6947       L1     9  0.78

> <Gold.Chemscore.Hbond.Weighted>
-8.3163

> <Gold.Chemscore.Metal.Weighted>
-0.0000

> <Gold.Chemscore.Lipo.Weighted>
-10.9587

> <Gold.Chemscore.Internal_Hbond.Weighted>
0.0000

> <Gold.Chemscore.DEClash.Weighted>
0.0000

> <Gold.Chemscore.DEInternal.Weighted>
2.1626

> <Gold.Chemscore.Rot.Weighted>
4.1346

> <Gold.Chemscore.Internal.Correction.Weighted>
   9.000000E+99

> <Gold.Protein.RotatedTorsions>
[ 6907 6896 6895 6894 ] final   79.09 input  -60.11 | X-H torsion
[ 7974 7965 7964 7962 ] final   20.02 input  175.53 | X-H torsion
[ 8008 7997 7996 7995 ] final   44.27 input   59.86 | X-H torsion
[ 10167 10162 10161 10158 ] final  -74.66 input  -65.29 | X-H torsion
[ 10718 10713 10712 10709 ] final  -94.52 input   66.30 | X-H torsion
[ 10763 10752 10751 10750 ] final   43.51 input  -60.55 | X-H torsion
[ 11005 11000 10999 10996 ] final  125.13 input  -57.11 | X-H torsion

> <Gold.Protein.ActiveResidues>
 VAL166  LYS551  ARG553  GLY616  TRP617  ASP618  TYR619  PRO620  LYS621  CYS622 
 ASP623  PHE694  ASN695  SER759  ASP760  ASP761  ALA762  ILE779  LEU786  VAL792 
 PHE793  MET794  SER795  GLU796  ALA797  LYS798  CYS799  TRP800  GLU811  SER814 

> <Gold.Protein.RotatedAtoms>
  152.5185  134.3564  159.9268 H   0  0  0  0  0  0  0  0  0  0  0  0  # atno 6907 bound_to 6896
  151.3515  133.3917  159.2688 H   0  0  0  0  0  0  0  0  0  0  0  0  # atno 6908 bound_to 6896
  150.9723  134.9112  159.7853 H   0  0  0  0  0  0  0  0  0  0  0  0  # atno 6909 bound_to 6896
  146.2127  139.8230  142.8676 H   0  0  0  0  0  0  0  0  0  0  0  0  # atno 7974 bound_to 7965
  155.3165  140.3394  155.4242 H   0  0  0  0  0  0  0  0  0  0  0  0  # atno 8008 bound_to 7997
  156.1930  140.1704  156.8092 H   0  0  0  0  0  0  0  0  0  0  0  0  # atno 8009 bound_to 7997
  154.5464  140.0714  156.8580 H   0  0  0  0  0  0  0  0  0  0  0  0  # atno 8010 bound_to 7997
  140.5009  143.2361  151.7754 H   0  0  0  0  0  0  0  0  0  0  0  0  # atno 10167 bound_to 10162
  156.0028  130.5071  150.5939 H   0  0  0  0  0  0  0  0  0  0  0  0  # atno 10718 bound_to 10713
  152.9859  135.6099  154.3124 H   0  0  0  0  0  0  0  0  0  0  0  0  # atno 10763 bound_to 10752
  154.2838  135.2776  155.2687 H   0  0  0  0  0  0  0  0  0  0  0  0  # atno 10764 bound_to 10752
  154.5014  135.5866  153.6590 H   0  0  0  0  0  0  0  0  0  0  0  0  # atno 10765 bound_to 10752
  139.9391  134.9637  156.8512 H   0  0  0  0  0  0  0  0  0  0  0  0  # atno 11005 bound_to 11000
  145.3076  141.0211  143.3573 LP  0  0  0  0  0  0  0  0  0  0  0  0  # atno 17320 bound_to 7965
  144.8959  139.4713  143.6655 LP  0  0  0  0  0  0  0  0  0  0  0  0  # atno 17321 bound_to 7965
  139.4872  144.4524  151.9639 LP  0  0  0  0  0  0  0  0  0  0  0  0  # atno 17342 bound_to 10162
  140.3613  144.2970  150.5933 LP  0  0  0  0  0  0  0  0  0  0  0  0  # atno 17343 bound_to 10162
  157.3799  131.0779  151.1486 LP  0  0  0  0  0  0  0  0  0  0  0  0  # atno 17370 bound_to 10713
  157.2211  130.6482  149.5812 LP  0  0  0  0  0  0  0  0  0  0  0  0  # atno 17371 bound_to 10713
  140.5997  134.0183  155.7532 LP  0  0  0  0  0  0  0  0  0  0  0  0  # atno 17394 bound_to 11000
  141.1019  133.9755  157.3065 LP  0  0  0  0  0  0  0  0  0  0  0  0  # atno 17395 bound_to 11000

$$$$
