AV-unprocessed.smi:949|AV-procd|sdf|4247|dock9
  -GOLD-   22720 2153D 1   1.00000     0.00000
 Structure written by MMmdl.
 32 33  0  0  0  0  0  0  0  0  1 V2000
  151.0479  140.8695  158.7813 C   0  0  0  0  0  0  0  0  0  0  0  0
  151.5541  142.1529  158.0980 C   0  0  1  0  0  0  0  0  0  0  0  0
  151.0649  142.2278  156.7254 N   0  0  0  0  0  0  0  0  0  0  0  0
  150.8735  141.0941  155.9155 C   0  0  0  0  0  0  0  0  0  0  0  0
  151.7383  139.9741  155.9470 C   0  0  0  0  0  0  0  0  0  0  0  0
  151.4705  138.8820  155.0987 C   0  0  0  0  0  0  0  0  0  0  0  0
  150.4259  138.8407  154.2469 N   0  0  0  0  0  0  0  0  0  0  0  0
  149.6015  139.9077  154.2148 C   0  0  0  0  0  0  0  0  0  0  0  0
  149.7760  141.0529  155.0201 C   0  0  0  0  0  0  0  0  0  0  0  0
  148.8691  142.1106  154.9161 N   0  0  0  0  0  0  0  0  0  0  0  0
  151.1230  143.4063  158.8848 C   0  0  2  0  0  0  0  0  0  0  0  0
  151.8904  144.6789  158.5153 C   0  0  0  0  0  0  0  0  0  0  0  0
  151.7684  145.4941  159.7815 C   0  0  0  0  0  0  0  0  0  0  0  0
  151.9140  144.4167  160.8495 C   0  0  0  0  0  0  0  0  0  0  0  0
  151.3681  143.2300  160.2800 O   0  0  0  0  0  0  0  0  0  0  0  0
  151.4355  140.7842  159.7967 H   0  0  0  0  0  0  0  0  0  0  0  0
  151.3587  139.9748  158.2422 H   0  0  0  0  0  0  0  0  0  0  0  0
  149.9590  140.8562  158.8413 H   0  0  0  0  0  0  0  0  0  0  0  0
  152.6438  142.1402  158.0829 H   0  0  0  0  0  0  0  0  0  0  0  0
  150.8638  143.1394  156.3415 H   0  0  0  0  0  0  0  0  0  0  0  0
  152.5947  139.9278  156.6015 H   0  0  0  0  0  0  0  0  0  0  0  0
  152.1159  138.0162  155.1052 H   0  0  0  0  0  0  0  0  0  0  0  0
  148.7750  139.8444  153.5219 H   0  0  0  0  0  0  0  0  0  0  0  0
  148.9717  142.9412  155.4813 H   0  0  0  0  0  0  0  0  0  0  0  0
  148.2110  142.1604  154.1520 H   0  0  0  0  0  0  0  0  0  0  0  0
  150.0539  143.5851  158.7584 H   0  0  0  0  0  0  0  0  0  0  0  0
  152.9397  144.4539  158.3178 H   0  0  0  0  0  0  0  0  0  0  0  0
  151.4799  145.1850  157.6410 H   0  0  0  0  0  0  0  0  0  0  0  0
  152.5191  146.2805  159.8625 H   0  0  0  0  0  0  0  0  0  0  0  0
  150.7806  145.9532  159.8392 H   0  0  0  0  0  0  0  0  0  0  0  0
  152.9678  144.2403  161.0694 H   0  0  0  0  0  0  0  0  0  0  0  0
  151.4125  144.6808  161.7808 H   0  0  0  0  0  0  0  0  0  0  0  0
  1  2  1  0  0  0  0
  1 16  1  0  0  0  0
  1 17  1  0  0  0  0
  1 18  1  0  0  0  0
  2  3  1  0  0  0  0
  2 11  1  0  0  0  0
  2 19  1  0  0  0  0
  3  4  1  0  0  0  0
  3 20  1  0  0  0  0
  4  9  1  0  0  0  0
  4  5  2  0  0  0  0
  5  6  1  0  0  0  0
  5 21  1  0  0  0  0
  6  7  2  0  0  0  0
  6 22  1  0  0  0  0
  7  8  1  0  0  0  0
  8  9  2  0  0  0  0
  8 23  1  0  0  0  0
  9 10  1  0  0  0  0
 10 24  1  0  0  0  0
 10 25  1  0  0  0  0
 11 15  1  0  0  0  0
 11 12  1  0  0  0  0
 11 26  1  0  0  0  0
 12 13  1  0  0  0  0
 12 27  1  0  0  0  0
 12 28  1  0  0  0  0
 13 14  1  0  0  0  0
 13 29  1  0  0  0  0
 13 30  1  0  0  0  0
 14 15  1  0  0  0  0
 14 31  1  0  0  0  0
 14 32  1  0  0  0  0
M  END
> <s_m_source_file>
AV-unprocessed.smi

> <i_m_source_file_index>
949

> <i_lp_mmshare_version>
43012

> <i_f3d_flags>
0

> <s_epik_input>
TzFbQ0gyXVtDSDJdW0NIMl1bQ0BIXTFbQ0BIXShbQ0gzXSlbTkhdYzJbY0hdW2NIXW5bY0hdYzJbTkgyXQ==

> <s_epik_cmdline>
J2VwaWtfcHl0aG9uJywgJy1waCcsICc3LjAnLCAnLXRuJywgJzgnLCAnLW1hJywgJzIwMCcsICctbWV0YWxfYmluZGluZycsICctaW1hZScsICc8aW5maWxlLm1hZT4nLCAnLW9tYWUnLCAnPG91dGZpbGUubWFlPic=

> <r_epik_Ionization_Penalty>
3.88091

> <r_epik_Ionization_Penalty_Charging>
0

> <r_epik_Ionization_Penalty_Neutral>
3.88091

> <r_epik_State_Penalty>
3.88049

> <r_epik_Charging_Adjusted_Penalty>
3.88049

> <i_epik_Tot_Q>
0

> <i_epik_Tot_abs_Q>
0

> <r_epik_Metal_State_Penalty>
0.313783

> <b_epik_Metal_Only>
1

> <s_lp_Force_Field>
OPLS_2005

> <r_lp_Energy>
23.3849

> <b_lp_Chiralities_Consistent>
1

> <s_lp_Variant>
AV-unprocessed.smi:949-6

> <Gold.Version>
5.8.1

> <Gold.Id.Protein>
6NUR|6NUR_protein|mol2

> <Gold.PLP.Fitness>
39.4902

> <Gold.PLP.PLP>
-36.3442

> <Gold.PLP.part.hbond>
-1.6260

> <Gold.PLP.part.metal>
0.0000

> <Gold.PLP.part.buried>
-2.5306

> <Gold.PLP.part.nonpolar>
-31.3649

> <Gold.PLP.part.repulsive>
0.5322

> <Gold.PLP.ligand.clash>
0.0000

> <Gold.PLP.ligand.torsion>
0.8023

> <Gold.PLP.Chemscore.Hbond>
0.9760

> <Gold.PLP.Chemscore.CHOScore>
0.6035

> <Gold.PLP.Chemscore.Metal>
0.0000

> <Gold.Chemscore.Hbonds>
donor molecule, donor type, donor heavy atom, donor atom, acceptor molecule, acceptor atom, score
      L1  H    10    24       P1  8028  0.99
      L1  C     8    23       P1  7957  0.61

> <Gold.PLP.Chemscore.Internal.Correction>
0.0121

> <Gold.Rescore>
     Score         DG    S(hbond)    S(metal)    S(lipo)     H(rot)  DE(clash)    DE(int)     intcor
     16.24     -17.11       0.92        0.00      99.83       1.22       0.11       0.75       ----

> <Gold.Chemscore.Fitness>
16.2388

> <Gold.Chemscore.DG>
-17.1054

> <Gold.Chemscore.ZeroCoef>
-5.4800

> <Gold.Chemscore.Hbond>
0.9163

> <Gold.Chemscore.Metal>
0.0000

> <Gold.Chemscore.Lipo>
99.8305

> <Gold.Chemscore.Internal_Hbond>
0.0000

> <Gold.Chemscore.DEClash>
0.1134

> <Gold.Chemscore.DEInternal>
0.7532

> <Gold.Chemscore.Rot>
1.2169

> <Gold.Chemscore.Internal.Correction>
   9.000000E+99

> <Gold.Chemscore.Hbonds>
donor molecule, donor type, donor heavy atom, donor atom, acceptor molecule, acceptor atom, score
      L1  H    10    24       P1  8028  0.93

> <Gold.Chemscore.Hbond.Weighted>
-3.0604

> <Gold.Chemscore.Metal.Weighted>
-0.0000

> <Gold.Chemscore.Lipo.Weighted>
-11.6802

> <Gold.Chemscore.Internal_Hbond.Weighted>
0.0000

> <Gold.Chemscore.DEClash.Weighted>
0.1134

> <Gold.Chemscore.DEInternal.Weighted>
0.7532

> <Gold.Chemscore.Rot.Weighted>
3.1152

> <Gold.Chemscore.Internal.Correction.Weighted>
   9.000000E+99

> <Gold.Protein.RotatedTorsions>
[ 6907 6896 6895 6894 ] final  -33.04 input  -60.11 | X-H torsion
[ 7974 7965 7964 7962 ] final  -66.06 input  175.53 | X-H torsion
[ 8008 7997 7996 7995 ] final -115.73 input   59.86 | X-H torsion
[ 10167 10162 10161 10158 ] final  -12.90 input  -65.29 | X-H torsion
[ 10718 10713 10712 10709 ] final -157.42 input   66.30 | X-H torsion
[ 10763 10752 10751 10750 ] final  -91.24 input  -60.55 | X-H torsion
[ 11005 11000 10999 10996 ] final  114.29 input  -57.11 | X-H torsion

> <Gold.Protein.ActiveResidues>
 VAL166  LYS551  ARG553  GLY616  TRP617  ASP618  TYR619  PRO620  LYS621  CYS622 
 ASP623  PHE694  ASN695  SER759  ASP760  ASP761  ALA762  ILE779  LEU786  VAL792 
 PHE793  MET794  SER795  GLU796  ALA797  LYS798  CYS799  TRP800  GLU811  SER814 

> <Gold.Protein.RotatedAtoms>
  151.0708  134.9797  159.8307 H   0  0  0  0  0  0  0  0  0  0  0  0  # atno 6907 bound_to 6896
  152.5408  134.2301  159.8831 H   0  0  0  0  0  0  0  0  0  0  0  0  # atno 6908 bound_to 6896
  151.2326  133.4399  159.2638 H   0  0  0  0  0  0  0  0  0  0  0  0  # atno 6909 bound_to 6896
  145.7465  140.8929  143.0502 H   0  0  0  0  0  0  0  0  0  0  0  0  # atno 7974 bound_to 7965
  155.0567  140.0393  157.2562 H   0  0  0  0  0  0  0  0  0  0  0  0  # atno 8008 bound_to 7997
  154.7093  140.2689  155.6620 H   0  0  0  0  0  0  0  0  0  0  0  0  # atno 8009 bound_to 7997
  156.2784  140.2725  156.1729 H   0  0  0  0  0  0  0  0  0  0  0  0  # atno 8010 bound_to 7997
  140.7171  143.5483  150.9330 H   0  0  0  0  0  0  0  0  0  0  0  0  # atno 10167 bound_to 10162
  156.5401  130.8559  151.2746 H   0  0  0  0  0  0  0  0  0  0  0  0  # atno 10718 bound_to 10713
  154.6740  135.5275  153.8175 H   0  0  0  0  0  0  0  0  0  0  0  0  # atno 10763 bound_to 10752
  153.0520  135.6536  154.0680 H   0  0  0  0  0  0  0  0  0  0  0  0  # atno 10764 bound_to 10752
  154.0575  135.2964  155.3310 H   0  0  0  0  0  0  0  0  0  0  0  0  # atno 10765 bound_to 10752
  139.8976  134.9565  156.6870 H   0  0  0  0  0  0  0  0  0  0  0  0  # atno 11005 bound_to 11000
  144.6859  139.9532  143.7478 LP  0  0  0  0  0  0  0  0  0  0  0  0  # atno 17320 bound_to 7965
  146.0398  139.3411  143.0704 LP  0  0  0  0  0  0  0  0  0  0  0  0  # atno 17321 bound_to 7965
  139.9207  143.6609  152.3097 LP  0  0  0  0  0  0  0  0  0  0  0  0  # atno 17342 bound_to 10162
  139.7025  144.7633  151.1249 LP  0  0  0  0  0  0  0  0  0  0  0  0  # atno 17343 bound_to 10162
  157.7407  130.9855  150.2393 LP  0  0  0  0  0  0  0  0  0  0  0  0  # atno 17370 bound_to 10713
  156.2979  130.3754  149.7778 LP  0  0  0  0  0  0  0  0  0  0  0  0  # atno 17371 bound_to 10713
  140.7254  133.9104  155.8175 LP  0  0  0  0  0  0  0  0  0  0  0  0  # atno 17394 bound_to 11000
  141.0194  134.0909  157.4136 LP  0  0  0  0  0  0  0  0  0  0  0  0  # atno 17395 bound_to 11000

$$$$
