AV-unprocessed.smi:198|AV-procd|sdf|1556|dock2
  -GOLD-   2262019423D 1   1.00000     0.00000
 Structure written by MMmdl.
 59 63  0  0  0  0  0  0  0  0  2 V2000
  154.6646  129.2798  155.9012 C   0  0  0  0  0  0  0  0  0  0  0  0
  153.1872  129.3377  155.9306 N   0  3  1  0  0  0  0  0  0  0  0  0
  152.6613  130.5977  155.3509 C   0  0  0  0  0  0  0  0  0  0  0  0
  151.1390  130.6908  155.5301 C   0  0  0  0  0  0  0  0  0  0  0  0
  150.4349  129.4680  154.9031 C   0  0  1  0  0  0  0  0  0  0  0  0
  151.0284  128.1503  155.4549 C   0  0  2  0  0  0  0  0  0  0  0  0
  150.5563  127.8670  156.8963 C   0  0  0  0  0  0  0  0  0  0  0  0
  149.0235  127.9051  156.9727 C   0  0  0  0  0  0  0  0  0  0  0  0
  148.4746  129.2347  156.4337 C   0  0  0  0  0  0  0  0  0  0  0  0
  148.9777  129.4987  155.0828 N   0  0  0  0  0  0  0  0  0  0  0  0
  148.3154  130.4206  154.3358 C   0  0  0  0  0  0  0  0  0  0  0  0
  148.5836  131.7432  154.5056 N   0  0  0  0  0  0  0  0  0  0  0  0
  147.9584  132.6608  153.7629 C   0  0  0  0  0  0  0  0  0  0  0  0
  147.0462  132.4789  152.8069 N   0  0  0  0  0  0  0  0  0  0  0  0
  146.7656  131.1554  152.6341 C   0  0  0  0  0  0  0  0  0  0  0  0
  147.3458  130.0715  153.3527 C   0  0  0  0  0  0  0  0  0  0  0  0
  146.7977  128.8708  152.9174 N   0  0  0  0  0  0  0  0  0  0  0  0
  145.9488  129.2238  151.9913 C   0  0  0  0  0  0  0  0  0  0  0  0
  145.8777  130.5765  151.7427 N   0  0  0  0  0  0  0  0  0  0  0  0
  145.0260  131.2371  150.7935 C   0  0  0  0  0  0  0  0  0  0  0  0
  145.5814  132.3292  149.8788 C   0  0  0  0  0  0  0  0  0  0  0  0
  144.2547  133.1148  149.9899 C   0  0  0  0  0  0  0  0  0  0  0  0
  144.4105  134.6148  150.2832 C   0  0  0  0  0  0  0  0  0  0  0  0
  145.2812  134.8393  151.3734 O   0  0  0  0  0  0  0  0  0  0  0  0
  143.2542  132.9819  148.8197 C   0  0  0  0  0  0  0  0  0  0  0  0
  143.5258  133.8653  147.7508 O   0  0  0  0  0  0  0  0  0  0  0  0
  143.9624  132.2477  151.2360 C   0  0  0  0  0  0  0  0  0  0  0  0
  152.5648  128.1369  155.3175 C   0  0  0  0  0  0  0  0  0  0  0  0
  155.0358  129.2807  154.8753 H   0  0  0  0  0  0  0  0  0  0  0  0
  155.0247  128.3767  156.3948 H   0  0  0  0  0  0  0  0  0  0  0  0
  155.0947  130.1364  156.4215 H   0  0  0  0  0  0  0  0  0  0  0  0
  153.1356  131.4507  155.8376 H   0  0  0  0  0  0  0  0  0  0  0  0
  152.9199  130.6513  154.2921 H   0  0  0  0  0  0  0  0  0  0  0  0
  150.9051  130.7707  156.5918 H   0  0  0  0  0  0  0  0  0  0  0  0
  150.7770  131.6102  155.0686 H   0  0  0  0  0  0  0  0  0  0  0  0
  150.6580  129.4832  153.8373 H   0  0  0  0  0  0  0  0  0  0  0  0
  150.6462  127.3368  154.8360 H   0  0  0  0  0  0  0  0  0  0  0  0
  150.9162  126.8913  157.2249 H   0  0  0  0  0  0  0  0  0  0  0  0
  150.9746  128.5982  157.5884 H   0  0  0  0  0  0  0  0  0  0  0  0
  148.6094  127.0800  156.3916 H   0  0  0  0  0  0  0  0  0  0  0  0
  148.6945  127.7549  158.0012 H   0  0  0  0  0  0  0  0  0  0  0  0
  147.3846  129.1904  156.4229 H   0  0  0  0  0  0  0  0  0  0  0  0
  148.7525  130.0537  157.0979 H   0  0  0  0  0  0  0  0  0  0  0  0
  148.2302  133.6872  153.9608 H   0  0  0  0  0  0  0  0  0  0  0  0
  145.3476  128.4983  151.4630 H   0  0  0  0  0  0  0  0  0  0  0  0
  144.5591  130.4518  150.1983 H   0  0  0  0  0  0  0  0  0  0  0  0
  146.4252  132.8559  150.3281 H   0  0  0  0  0  0  0  0  0  0  0  0
  145.8280  131.9878  148.8729 H   0  0  0  0  0  0  0  0  0  0  0  0
  144.7882  135.1513  149.4120 H   0  0  0  0  0  0  0  0  0  0  0  0
  143.4487  135.0655  150.5294 H   0  0  0  0  0  0  0  0  0  0  0  0
  146.1721  134.7801  151.0634 H   0  0  0  0  0  0  0  0  0  0  0  0
  143.2629  131.9678  148.4191 H   0  0  0  0  0  0  0  0  0  0  0  0
  142.2340  133.1771  149.1510 H   0  0  0  0  0  0  0  0  0  0  0  0
  144.4606  133.9934  147.6968 H   0  0  0  0  0  0  0  0  0  0  0  0
  142.9521  131.8395  151.2812 H   0  0  0  0  0  0  0  0  0  0  0  0
  144.2129  132.7517  152.1698 H   0  0  0  0  0  0  0  0  0  0  0  0
  152.8384  128.0964  154.2619 H   0  0  0  0  0  0  0  0  0  0  0  0
  152.9693  127.2350  155.7788 H   0  0  0  0  0  0  0  0  0  0  0  0
  152.9199  129.3351  156.9048 H   0  0  0  0  0  0  0  0  0  0  0  0
  1  2  1  0  0  0  0
  1 29  1  0  0  0  0
  1 30  1  0  0  0  0
  1 31  1  0  0  0  0
  2 28  1  0  0  0  0
  2  3  1  0  0  0  0
  2 59  1  0  0  0  0
  3  4  1  0  0  0  0
  3 32  1  0  0  0  0
  3 33  1  0  0  0  0
  4  5  1  0  0  0  0
  4 34  1  0  0  0  0
  4 35  1  0  0  0  0
  5 10  1  0  0  0  0
  5  6  1  0  0  0  0
  5 36  1  0  0  0  0
  6  7  1  0  0  0  0
  6 28  1  0  0  0  0
  6 37  1  0  0  0  0
  7  8  1  0  0  0  0
  7 38  1  0  0  0  0
  7 39  1  0  0  0  0
  8  9  1  0  0  0  0
  8 40  1  0  0  0  0
  8 41  1  0  0  0  0
  9 10  1  0  0  0  0
  9 42  1  0  0  0  0
  9 43  1  0  0  0  0
 10 11  1  0  0  0  0
 11 16  1  0  0  0  0
 11 12  2  0  0  0  0
 12 13  1  0  0  0  0
 13 14  2  0  0  0  0
 13 44  1  0  0  0  0
 14 15  1  0  0  0  0
 15 19  1  0  0  0  0
 15 16  2  0  0  0  0
 16 17  1  0  0  0  0
 17 18  2  0  0  0  0
 18 19  1  0  0  0  0
 18 45  1  0  0  0  0
 19 20  1  0  0  0  0
 20 27  1  0  0  0  0
 20 21  1  0  0  0  0
 20 46  1  0  0  0  0
 21 22  1  0  0  0  0
 21 47  1  0  0  0  0
 21 48  1  0  0  0  0
 22 23  1  0  0  0  0
 22 25  1  0  0  0  0
 22 27  1  0  0  0  0
 23 24  1  0  0  0  0
 23 49  1  0  0  0  0
 23 50  1  0  0  0  0
 24 51  1  0  0  0  0
 25 26  1  0  0  0  0
 25 52  1  0  0  0  0
 25 53  1  0  0  0  0
 26 54  1  0  0  0  0
 27 55  1  0  0  0  0
 27 56  1  0  0  0  0
 28 57  1  0  0  0  0
 28 58  1  0  0  0  0
M  CHG  1   2   1
M  END
> <s_m_source_file>
AV-unprocessed.smi

> <i_m_source_file_index>
198

> <i_lp_mmshare_version>
43012

> <i_f3d_flags>
0

> <s_epik_input>
W0NIMl0xW0NIMl1OKFtDSDNdKVtDSDJdW0NAQEhdKFtDQEhdMTIpW0NIMl1bQ0gyXVtDSDJdTjJjKG5bY0hdbjMpYyhjMzQpbltjSF1uNFtDSF0oW0NIMl01KVtDSDJdQzUoW0NIMl1bT0hdKVtDSDJdW09IXQ==

> <s_epik_cmdline>
J2VwaWtfcHl0aG9uJywgJy1waCcsICc3LjAnLCAnLXRuJywgJzgnLCAnLW1hJywgJzIwMCcsICctbWV0YWxfYmluZGluZycsICctaW1hZScsICc8aW5maWxlLm1hZT4nLCAnLW9tYWUnLCAnPG91dGZpbGUubWFlPic=

> <r_lp_tautomer_probability>
1

> <r_epik_Ionization_Penalty>
0.00239938

> <r_epik_Ionization_Penalty_Charging>
0.00138697

> <r_epik_Ionization_Penalty_Neutral>
0.00101241

> <r_epik_State_Penalty>
-0

> <r_epik_Charging_Adjusted_Penalty>
0.00138697

> <i_epik_Tot_Q>
1

> <i_epik_Tot_abs_Q>
1

> <r_epik_Metal_State_Penalty>
-0

> <b_epik_Metal_Only>
0

> <s_lp_Force_Field>
OPLS_2005

> <r_lp_Energy>
58.4616

> <b_lp_Chiralities_Consistent>
1

> <s_lp_Variant>
AV-unprocessed.smi:198-5

> <Gold.Version>
5.8.1

> <Gold.Id.Protein>
6NUR|6NUR_protein|mol2

> <Gold.PLP.Fitness>
49.1286

> <Gold.PLP.PLP>
-43.6687

> <Gold.PLP.part.hbond>
-3.8808

> <Gold.PLP.part.metal>
0.0000

> <Gold.PLP.part.buried>
-3.6726

> <Gold.PLP.part.nonpolar>
-36.4258

> <Gold.PLP.part.repulsive>
0.2898

> <Gold.PLP.ligand.clash>
0.0000

> <Gold.PLP.ligand.torsion>
0.7277

> <Gold.PLP.Chemscore.Hbond>
2.0000

> <Gold.PLP.Chemscore.CHOScore>
0.0000

> <Gold.PLP.Chemscore.Metal>
0.0000

> <Gold.Chemscore.Hbonds>
donor molecule, donor type, donor heavy atom, donor atom, acceptor molecule, acceptor atom, score
      L1  H    26    54       P1  7921  1.00
      P1  H 10192 10197       L1    26  0.89

> <Gold.PLP.Chemscore.Internal.Correction>
0.9153

> <Gold.Rescore>
     Score         DG    S(hbond)    S(metal)    S(lipo)     H(rot)  DE(clash)    DE(int)     intcor
     11.27     -15.49       1.96        0.00      96.93       3.08       2.29       1.92       ----

> <Gold.Chemscore.Fitness>
11.2701

> <Gold.Chemscore.DG>
-15.4873

> <Gold.Chemscore.ZeroCoef>
-5.4800

> <Gold.Chemscore.Hbond>
1.9600

> <Gold.Chemscore.Metal>
0.0000

> <Gold.Chemscore.Lipo>
96.9321

> <Gold.Chemscore.Internal_Hbond>
0.0000

> <Gold.Chemscore.DEClash>
2.2940

> <Gold.Chemscore.DEInternal>
1.9232

> <Gold.Chemscore.Rot>
3.0781

> <Gold.Chemscore.Internal.Correction>
   9.000000E+99

> <Gold.Chemscore.Hbonds>
donor molecule, donor type, donor heavy atom, donor atom, acceptor molecule, acceptor atom, score
      L1  H    26    54       P1  7921  1.00
      P1  H 10192 10197       L1    26  0.82

> <Gold.Chemscore.Hbond.Weighted>
-6.5463

> <Gold.Chemscore.Metal.Weighted>
-0.0000

> <Gold.Chemscore.Lipo.Weighted>
-11.3411

> <Gold.Chemscore.Internal_Hbond.Weighted>
0.0000

> <Gold.Chemscore.DEClash.Weighted>
2.2940

> <Gold.Chemscore.DEInternal.Weighted>
1.9232

> <Gold.Chemscore.Rot.Weighted>
7.8800

> <Gold.Chemscore.Internal.Correction.Weighted>
   9.000000E+99

> <Gold.Protein.RotatedTorsions>
[ 6907 6896 6895 6894 ] final  109.63 input  -60.11 | X-H torsion
[ 7974 7965 7964 7962 ] final   -7.97 input  175.53 | X-H torsion
[ 8008 7997 7996 7995 ] final -152.54 input   59.86 | X-H torsion
[ 10167 10162 10161 10158 ] final  120.32 input  -65.29 | X-H torsion
[ 10718 10713 10712 10709 ] final    9.27 input   66.30 | X-H torsion
[ 10763 10752 10751 10750 ] final -133.01 input  -60.55 | X-H torsion
[ 11005 11000 10999 10996 ] final  -26.57 input  -57.11 | X-H torsion

> <Gold.Protein.ActiveResidues>
 VAL166  LYS551  ARG553  GLY616  TRP617  ASP618  TYR619  PRO620  LYS621  CYS622 
 ASP623  PHE694  ASN695  SER759  ASP760  ASP761  ALA762  ILE779  LEU786  VAL792 
 PHE793  MET794  SER795  GLU796  ALA797  LYS798  CYS799  TRP800  GLU811  SER814 

> <Gold.Protein.RotatedAtoms>
  152.5058  133.8916  159.7396 H   0  0  0  0  0  0  0  0  0  0  0  0  # atno 6907 bound_to 6896
  150.9353  133.6710  159.2809 H   0  0  0  0  0  0  0  0  0  0  0  0  # atno 6908 bound_to 6896
  151.4040  135.0980  159.9617 H   0  0  0  0  0  0  0  0  0  0  0  0  # atno 6909 bound_to 6896
  146.2293  140.2399  142.8343 H   0  0  0  0  0  0  0  0  0  0  0  0  # atno 7974 bound_to 7965
  155.6568  140.0718  157.2568 H   0  0  0  0  0  0  0  0  0  0  0  0  # atno 8008 bound_to 7997
  154.4151  140.1723  156.1784 H   0  0  0  0  0  0  0  0  0  0  0  0  # atno 8009 bound_to 7997
  155.9730  140.3360  155.6596 H   0  0  0  0  0  0  0  0  0  0  0  0  # atno 8010 bound_to 7997
  139.5989  144.7050  151.3109 H   0  0  0  0  0  0  0  0  0  0  0  0  # atno 10167 bound_to 10162
  156.9639  130.5943  149.5664 H   0  0  0  0  0  0  0  0  0  0  0  0  # atno 10718 bound_to 10713
  154.8737  135.3779  154.4503 H   0  0  0  0  0  0  0  0  0  0  0  0  # atno 10763 bound_to 10752
  153.5180  135.7029  153.5751 H   0  0  0  0  0  0  0  0  0  0  0  0  # atno 10764 bound_to 10752
  153.4011  135.3948  155.1954 H   0  0  0  0  0  0  0  0  0  0  0  0  # atno 10765 bound_to 10752
  140.9041  133.7504  156.0583 H   0  0  0  0  0  0  0  0  0  0  0  0  # atno 11005 bound_to 11000
  144.9492  140.8161  143.5582 LP  0  0  0  0  0  0  0  0  0  0  0  0  # atno 17320 bound_to 7965
  145.2358  139.2094  143.5018 LP  0  0  0  0  0  0  0  0  0  0  0  0  # atno 17321 bound_to 7965
  140.7234  143.7072  150.7798 LP  0  0  0  0  0  0  0  0  0  0  0  0  # atno 17342 bound_to 10162
  140.0644  143.5123  152.2611 LP  0  0  0  0  0  0  0  0  0  0  0  0  # atno 17343 bound_to 10162
  156.0311  130.5402  150.8535 LP  0  0  0  0  0  0  0  0  0  0  0  0  # atno 17370 bound_to 10713
  157.5639  131.0946  150.9518 LP  0  0  0  0  0  0  0  0  0  0  0  0  # atno 17371 bound_to 10713
  140.8193  134.3308  157.5387 LP  0  0  0  0  0  0  0  0  0  0  0  0  # atno 17394 bound_to 11000
  139.8747  134.9300  156.3490 LP  0  0  0  0  0  0  0  0  0  0  0  0  # atno 17395 bound_to 11000

$$$$
