AV-unprocessed.smi:1265|AV-procd|sdf|5315|dock2
  -GOLD-   22720 4443D 1   1.00000     0.00000
 Structure written by MMmdl.
 44 46  0  0  0  0  0  0  0  0  1 V2000
  144.8003  137.0609  152.7303 O   0  0  0  0  0  0  0  0  0  0  0  0
  145.9849  136.8488  152.4732 C   0  0  0  0  0  0  0  0  0  0  0  0
  146.9674  137.7167  152.7537 N   0  0  0  0  0  0  0  0  0  0  0  0
  146.8001  139.0294  153.3770 C   0  0  0  0  0  0  0  0  0  0  0  0
  148.0393  139.4522  154.2346 C   0  0  1  0  0  0  0  0  0  0  0  0
  149.1286  138.4348  154.1101 N   0  0  0  0  0  0  0  0  0  0  0  0
  150.5034  138.9386  154.2448 C   0  0  0  0  0  0  0  0  0  0  0  0
  151.5555  137.8389  154.0198 C   0  0  0  0  0  0  0  0  0  0  0  0
  151.3302  136.7640  154.9215 O   0  0  0  0  0  0  0  0  0  0  0  0
  150.0361  136.1982  154.7665 C   0  0  0  0  0  0  0  0  0  0  0  0
  148.9678  137.2785  155.0025 C   0  0  0  0  0  0  0  0  0  0  0  0
  148.4704  140.8780  153.7834 C   0  0  0  0  0  0  0  0  0  0  0  0
  147.4191  141.8931  154.2451 C   0  0  0  0  0  0  0  0  0  0  0  0
  146.7365  141.2886  155.8065 S   0  0  0  0  0  0  0  0  0  0  0  0
  147.5635  139.6776  155.6929 C   0  0  0  0  0  0  0  0  0  0  0  0
  146.4754  135.7431  151.8854 N   0  0  0  0  0  0  0  0  0  0  0  0
  145.7969  134.5771  151.4326 C   0  0  0  0  0  0  0  0  0  0  0  0
  146.5913  133.5043  150.9765 C   0  0  0  0  0  0  0  0  0  0  0  0
  145.9572  132.3344  150.5132 C   0  0  0  0  0  0  0  0  0  0  0  0
  144.6172  132.1818  150.4777 N   0  0  0  0  0  0  0  0  0  0  0  0
  143.8569  133.2105  150.9083 C   0  0  0  0  0  0  0  0  0  0  0  0
  144.3893  134.4232  151.3905 C   0  0  0  0  0  0  0  0  0  0  0  0
  147.9105  137.4599  152.5009 H   0  0  0  0  0  0  0  0  0  0  0  0
  146.5569  139.7771  152.6226 H   0  0  0  0  0  0  0  0  0  0  0  0
  145.8984  138.9904  153.9862 H   0  0  0  0  0  0  0  0  0  0  0  0
  150.7100  139.7153  153.5127 H   0  0  0  0  0  0  0  0  0  0  0  0
  150.6586  139.3742  155.2310 H   0  0  0  0  0  0  0  0  0  0  0  0
  151.5198  137.4753  152.9918 H   0  0  0  0  0  0  0  0  0  0  0  0
  152.5577  138.2352  154.1832 H   0  0  0  0  0  0  0  0  0  0  0  0
  149.9347  135.7662  153.7698 H   0  0  0  0  0  0  0  0  0  0  0  0
  149.9161  135.3844  155.4818 H   0  0  0  0  0  0  0  0  0  0  0  0
  149.0138  137.6016  156.0429 H   0  0  0  0  0  0  0  0  0  0  0  0
  147.9982  136.8062  154.8635 H   0  0  0  0  0  0  0  0  0  0  0  0
  149.3925  141.1845  154.2717 H   0  0  0  0  0  0  0  0  0  0  0  0
  148.6555  140.9478  152.7117 H   0  0  0  0  0  0  0  0  0  0  0  0
  147.8454  142.8887  154.3711 H   0  0  0  0  0  0  0  0  0  0  0  0
  146.6129  141.9762  153.5163 H   0  0  0  0  0  0  0  0  0  0  0  0
  146.8992  138.8874  156.0441 H   0  0  0  0  0  0  0  0  0  0  0  0
  148.4021  139.7168  156.3859 H   0  0  0  0  0  0  0  0  0  0  0  0
  147.4778  135.7216  151.7690 H   0  0  0  0  0  0  0  0  0  0  0  0
  147.6696  133.5704  150.9809 H   0  0  0  0  0  0  0  0  0  0  0  0
  146.5436  131.4988  150.1607 H   0  0  0  0  0  0  0  0  0  0  0  0
  142.7878  133.0642  150.8647 H   0  0  0  0  0  0  0  0  0  0  0  0
  143.7071  135.1962  151.7059 H   0  0  0  0  0  0  0  0  0  0  0  0
  1  2  2  0  0  0  0
  2  3  1  0  0  0  0
  2 16  1  0  0  0  0
  3  4  1  0  0  0  0
  3 23  1  0  0  0  0
  4  5  1  0  0  0  0
  4 24  1  0  0  0  0
  4 25  1  0  0  0  0
  5 15  1  0  0  0  0
  5  6  1  0  0  0  0
  5 12  1  0  0  0  0
  6 11  1  0  0  0  0
  6  7  1  0  0  0  0
  7  8  1  0  0  0  0
  7 26  1  0  0  0  0
  7 27  1  0  0  0  0
  8  9  1  0  0  0  0
  8 28  1  0  0  0  0
  8 29  1  0  0  0  0
  9 10  1  0  0  0  0
 10 11  1  0  0  0  0
 10 30  1  0  0  0  0
 10 31  1  0  0  0  0
 11 32  1  0  0  0  0
 11 33  1  0  0  0  0
 12 13  1  0  0  0  0
 12 34  1  0  0  0  0
 12 35  1  0  0  0  0
 13 14  1  0  0  0  0
 13 36  1  0  0  0  0
 13 37  1  0  0  0  0
 14 15  1  0  0  0  0
 15 38  1  0  0  0  0
 15 39  1  0  0  0  0
 16 17  1  0  0  0  0
 16 40  1  0  0  0  0
 17 22  1  0  0  0  0
 17 18  2  0  0  0  0
 18 19  1  0  0  0  0
 18 41  1  0  0  0  0
 19 20  2  0  0  0  0
 19 42  1  0  0  0  0
 20 21  1  0  0  0  0
 21 22  2  0  0  0  0
 21 43  1  0  0  0  0
 22 44  1  0  0  0  0
M  END
> <s_m_source_file>
AV-unprocessed.smi

> <i_m_source_file_index>
1265

> <i_lp_mmshare_version>
43012

> <i_f3d_flags>
0

> <s_epik_input>
W2NIXTFbY0hdbltjSF1bY0hdYzFbTkhdQyg9TylbTkhdW0NIMl1bQ0BdMihbQ0gyXVtDSDJdU1tDSDJdMilOM1tDSDJdW0NIMl1PW0NIMl1bQ0gyXTM=

> <s_epik_cmdline>
J2VwaWtfcHl0aG9uJywgJy1waCcsICc3LjAnLCAnLXRuJywgJzgnLCAnLW1hJywgJzIwMCcsICctbWV0YWxfYmluZGluZycsICctaW1hZScsICc8aW5maWxlLm1hZT4nLCAnLW9tYWUnLCAnPG91dGZpbGUubWFlPic=

> <r_epik_Ionization_Penalty>
0.131531

> <r_epik_Ionization_Penalty_Charging>
0

> <r_epik_Ionization_Penalty_Neutral>
0.131531

> <r_epik_State_Penalty>
0.114508

> <r_epik_Charging_Adjusted_Penalty>
0.114508

> <i_epik_Tot_Q>
0

> <i_epik_Tot_abs_Q>
0

> <r_epik_Metal_State_Penalty>
0.0964753

> <b_epik_Metal_Only>
0

> <s_lp_Force_Field>
OPLS_2005

> <r_lp_Energy>
59.4994

> <b_lp_Chiralities_Consistent>
1

> <s_lp_Variant>
AV-unprocessed.smi:1265-1

> <Gold.Version>
5.8.1

> <Gold.Id.Protein>
6NUR|6NUR_protein|mol2

> <Gold.PLP.Fitness>
43.5951

> <Gold.PLP.PLP>
-33.3832

> <Gold.PLP.part.hbond>
-2.7974

> <Gold.PLP.part.metal>
0.0000

> <Gold.PLP.part.buried>
-3.2405

> <Gold.PLP.part.nonpolar>
-28.8678

> <Gold.PLP.part.repulsive>
0.8116

> <Gold.PLP.ligand.clash>
0.0000

> <Gold.PLP.ligand.torsion>
2.2065

> <Gold.PLP.Chemscore.Hbond>
2.8378

> <Gold.PLP.Chemscore.CHOScore>
2.0000

> <Gold.PLP.Chemscore.Metal>
0.0000

> <Gold.Chemscore.Hbonds>
donor molecule, donor type, donor heavy atom, donor atom, acceptor molecule, acceptor atom, score
      L1  H     3    23       P1  7948  0.94
      L1  H    16    40       P1  7948  0.99
      P1  H 10752 10764       L1     9  0.99
      L1  C    19    42       P1 10747  1.00
      L1  C    21    43       P1 10186  0.84

> <Gold.PLP.Chemscore.Internal.Correction>
0.1117

> <Gold.Rescore>
     Score         DG    S(hbond)    S(metal)    S(lipo)     H(rot)  DE(clash)    DE(int)     intcor
     15.23     -18.95       2.07        0.00      87.76       1.44       0.25       3.47       ----

> <Gold.Chemscore.Fitness>
15.2305

> <Gold.Chemscore.DG>
-18.9489

> <Gold.Chemscore.ZeroCoef>
-5.4800

> <Gold.Chemscore.Hbond>
2.0654

> <Gold.Chemscore.Metal>
0.0000

> <Gold.Chemscore.Lipo>
87.7634

> <Gold.Chemscore.Internal_Hbond>
0.0000

> <Gold.Chemscore.DEClash>
0.2504

> <Gold.Chemscore.DEInternal>
3.4680

> <Gold.Chemscore.Rot>
1.4445

> <Gold.Chemscore.Internal.Correction>
   9.000000E+99

> <Gold.Chemscore.Hbonds>
donor molecule, donor type, donor heavy atom, donor atom, acceptor molecule, acceptor atom, score
      L1  H     3    23       P1  7948  0.91
      L1  H    16    40       P1  7948  0.92
      P1  H 10752 10764       L1     9  0.45

> <Gold.Chemscore.Hbond.Weighted>
-6.8985

> <Gold.Chemscore.Metal.Weighted>
-0.0000

> <Gold.Chemscore.Lipo.Weighted>
-10.2683

> <Gold.Chemscore.Internal_Hbond.Weighted>
0.0000

> <Gold.Chemscore.DEClash.Weighted>
0.2504

> <Gold.Chemscore.DEInternal.Weighted>
3.4680

> <Gold.Chemscore.Rot.Weighted>
3.6980

> <Gold.Chemscore.Internal.Correction.Weighted>
   9.000000E+99

> <Gold.Protein.RotatedTorsions>
[ 6907 6896 6895 6894 ] final   -6.28 input  -60.11 | X-H torsion
[ 7974 7965 7964 7962 ] final   87.32 input  175.53 | X-H torsion
[ 8008 7997 7996 7995 ] final  155.76 input   59.86 | X-H torsion
[ 10167 10162 10161 10158 ] final   51.20 input  -65.29 | X-H torsion
[ 10718 10713 10712 10709 ] final  106.45 input   66.30 | X-H torsion
[ 10763 10752 10751 10750 ] final  -51.49 input  -60.55 | X-H torsion
[ 11005 11000 10999 10996 ] final  168.32 input  -57.11 | X-H torsion

> <Gold.Protein.ActiveResidues>
 VAL166  LYS551  ARG553  GLY616  TRP617  ASP618  TYR619  PRO620  LYS621  CYS622 
 ASP623  PHE694  ASN695  SER759  ASP760  ASP761  ALA762  ILE779  LEU786  VAL792 
 PHE793  MET794  SER795  GLU796  ALA797  LYS798  CYS799  TRP800  GLU811  SER814 

> <Gold.Protein.RotatedAtoms>
  151.4681  135.1044  159.9743 H   0  0  0  0  0  0  0  0  0  0  0  0  # atno 6907 bound_to 6896
  152.4827  133.8290  159.7104 H   0  0  0  0  0  0  0  0  0  0  0  0  # atno 6908 bound_to 6896
  150.8911  133.7181  159.2931 H   0  0  0  0  0  0  0  0  0  0  0  0  # atno 6909 bound_to 6896
  145.5606  139.2303  143.2462 H   0  0  0  0  0  0  0  0  0  0  0  0  # atno 7974 bound_to 7965
  156.2460  140.1931  156.6851 H   0  0  0  0  0  0  0  0  0  0  0  0  # atno 8008 bound_to 7997
  154.6293  140.0598  156.9738 H   0  0  0  0  0  0  0  0  0  0  0  0  # atno 8009 bound_to 7997
  155.1736  140.3270  155.4390 H   0  0  0  0  0  0  0  0  0  0  0  0  # atno 8010 bound_to 7997
  140.2644  144.3336  150.6308 H   0  0  0  0  0  0  0  0  0  0  0  0  # atno 10167 bound_to 10162
  157.6667  131.0851  150.6009 H   0  0  0  0  0  0  0  0  0  0  0  0  # atno 10718 bound_to 10713
  154.1274  135.6525  153.4915 H   0  0  0  0  0  0  0  0  0  0  0  0  # atno 10763 bound_to 10752
  153.0206  135.5284  154.7036 H   0  0  0  0  0  0  0  0  0  0  0  0  # atno 10764 bound_to 10752
  154.6261  135.2970  155.0241 H   0  0  0  0  0  0  0  0  0  0  0  0  # atno 10765 bound_to 10752
  140.2860  134.7712  157.3798 H   0  0  0  0  0  0  0  0  0  0  0  0  # atno 11005 bound_to 11000
  146.1854  140.6430  142.9170 LP  0  0  0  0  0  0  0  0  0  0  0  0  # atno 17320 bound_to 7965
  144.7485  140.5130  143.6819 LP  0  0  0  0  0  0  0  0  0  0  0  0  # atno 17321 bound_to 7965
  140.5940  143.2167  151.7200 LP  0  0  0  0  0  0  0  0  0  0  0  0  # atno 17342 bound_to 10162
  139.5007  144.3896  152.0293 LP  0  0  0  0  0  0  0  0  0  0  0  0  # atno 17343 bound_to 10162
  156.6310  130.4432  149.5787 LP  0  0  0  0  0  0  0  0  0  0  0  0  # atno 17370 bound_to 10713
  156.2282  130.6778  151.1437 LP  0  0  0  0  0  0  0  0  0  0  0  0  # atno 17371 bound_to 10713
  140.1239  134.5183  155.8160 LP  0  0  0  0  0  0  0  0  0  0  0  0  # atno 17394 bound_to 11000
  141.2154  133.6766  156.6916 LP  0  0  0  0  0  0  0  0  0  0  0  0  # atno 17395 bound_to 11000

$$$$
