AV-unprocessed.smi:1861|AV-procd|sdf|7548|dock2
  -GOLD-   22720 9263D 1   1.00000     0.00000
 Structure written by MMmdl.
 30 31  0  0  0  0  0  0  0  0  1 V2000
  146.6317  140.4683  154.3397 C   0  0  0  0  0  0  0  0  0  0  0  0
  147.6982  140.9099  155.2246 N   0  0  0  0  0  0  0  0  0  0  0  0
  148.9174  141.2824  154.8088 C   0  0  0  0  0  0  0  0  0  0  0  0
  149.2600  141.2775  153.6267 O   0  0  0  0  0  0  0  0  0  0  0  0
  149.9031  141.7322  155.8886 C   0  0  0  0  0  0  0  0  0  0  0  0
  151.0126  140.7996  156.0098 N   0  0  0  0  0  0  0  0  0  0  0  0
  151.3141  139.9530  154.9939 N   0  0  0  0  0  0  0  0  0  0  0  0
  152.3217  139.2326  155.3918 N   0  0  0  0  0  0  0  0  0  0  0  0
  152.7106  139.5776  156.6712 N   0  0  0  0  0  0  0  0  0  0  0  0
  151.8800  140.5585  157.0056 C   0  0  0  0  0  0  0  0  0  0  0  0
  151.8630  141.2665  158.3302 C   0  0  0  0  0  0  0  0  0  0  0  0
  151.9640  142.7899  158.2408 C   0  0  0  0  0  0  0  0  0  0  0  0
  152.3629  143.2186  159.6551 C   0  0  0  0  0  0  0  0  0  0  0  0
  153.1473  142.0392  160.2541 C   0  0  0  0  0  0  0  0  0  0  0  0
  153.0063  140.8704  159.2684 C   0  0  0  0  0  0  0  0  0  0  0  0
  145.7549  140.1913  154.9248 H   0  0  0  0  0  0  0  0  0  0  0  0
  146.9423  139.5997  153.7578 H   0  0  0  0  0  0  0  0  0  0  0  0
  146.3450  141.2644  153.6513 H   0  0  0  0  0  0  0  0  0  0  0  0
  147.4948  140.9439  156.2134 H   0  0  0  0  0  0  0  0  0  0  0  0
  150.2862  142.7251  155.6473 H   0  0  0  0  0  0  0  0  0  0  0  0
  149.4008  141.8149  156.8530 H   0  0  0  0  0  0  0  0  0  0  0  0
  150.9263  141.0407  158.8396 H   0  0  0  0  0  0  0  0  0  0  0  0
  152.7570  143.0761  157.5483 H   0  0  0  0  0  0  0  0  0  0  0  0
  151.0398  143.2566  157.8982 H   0  0  0  0  0  0  0  0  0  0  0  0
  152.9411  144.1431  159.6536 H   0  0  0  0  0  0  0  0  0  0  0  0
  151.4654  143.3964  160.2490 H   0  0  0  0  0  0  0  0  0  0  0  0
  154.1977  142.2942  160.4004 H   0  0  0  0  0  0  0  0  0  0  0  0
  152.7389  141.7739  161.2301 H   0  0  0  0  0  0  0  0  0  0  0  0
  152.8282  139.9147  159.7624 H   0  0  0  0  0  0  0  0  0  0  0  0
  153.9352  140.7775  158.7036 H   0  0  0  0  0  0  0  0  0  0  0  0
  1  2  1  0  0  0  0
  1 16  1  0  0  0  0
  1 17  1  0  0  0  0
  1 18  1  0  0  0  0
  2  3  1  0  0  0  0
  2 19  1  0  0  0  0
  3  4  2  0  0  0  0
  3  5  1  0  0  0  0
  5  6  1  0  0  0  0
  5 20  1  0  0  0  0
  5 21  1  0  0  0  0
  6 10  1  0  0  0  0
  6  7  1  0  0  0  0
  7  8  2  0  0  0  0
  8  9  1  0  0  0  0
  9 10  2  0  0  0  0
 10 11  1  0  0  0  0
 11 15  1  0  0  0  0
 11 12  1  0  0  0  0
 11 22  1  0  0  0  0
 12 13  1  0  0  0  0
 12 23  1  0  0  0  0
 12 24  1  0  0  0  0
 13 14  1  0  0  0  0
 13 25  1  0  0  0  0
 13 26  1  0  0  0  0
 14 15  1  0  0  0  0
 14 27  1  0  0  0  0
 14 28  1  0  0  0  0
 15 29  1  0  0  0  0
 15 30  1  0  0  0  0
M  END
> <s_m_source_file>
AV-unprocessed.smi

> <i_m_source_file_index>
1861

> <i_lp_mmshare_version>
43012

> <i_f3d_flags>
0

> <s_epik_input>
W0NIM11bTkhdQyg9TylbQ0gyXW4xbm5uYzFbQ0hdMltDSDJdW0NIMl1bQ0gyXVtDSDJdMg==

> <s_epik_cmdline>
J2VwaWtfcHl0aG9uJywgJy1waCcsICc3LjAnLCAnLXRuJywgJzgnLCAnLW1hJywgJzIwMCcsICctbWV0YWxfYmluZGluZycsICctaW1hZScsICc8aW5maWxlLm1hZT4nLCAnLW9tYWUnLCAnPG91dGZpbGUubWFlPic=

> <r_lp_tautomer_probability>
1

> <r_epik_Ionization_Penalty>
8.43634e-07

> <r_epik_Ionization_Penalty_Charging>
0

> <r_epik_Ionization_Penalty_Neutral>
8.43634e-07

> <r_epik_State_Penalty>
-0

> <r_epik_Charging_Adjusted_Penalty>
0

> <i_epik_Tot_Q>
0

> <i_epik_Tot_abs_Q>
0

> <r_epik_Metal_State_Penalty>
-0

> <b_epik_Metal_Only>
0

> <s_lp_Force_Field>
OPLS_2005

> <r_lp_Energy>
21.2835

> <b_lp_Chiralities_Consistent>
1

> <s_lp_Variant>
AV-unprocessed.smi:1861-1

> <Gold.Version>
5.8.1

> <Gold.Id.Protein>
6NUR|6NUR_protein|mol2

> <Gold.PLP.Fitness>
37.2567

> <Gold.PLP.PLP>
-29.2013

> <Gold.PLP.part.hbond>
-4.0121

> <Gold.PLP.part.metal>
0.0000

> <Gold.PLP.part.buried>
-5.0982

> <Gold.PLP.part.nonpolar>
-22.6654

> <Gold.PLP.part.repulsive>
2.6896

> <Gold.PLP.ligand.clash>
0.0000

> <Gold.PLP.ligand.torsion>
0.3933

> <Gold.PLP.Chemscore.Hbond>
2.9440

> <Gold.PLP.Chemscore.CHOScore>
0.0000

> <Gold.PLP.Chemscore.Metal>
0.0000

> <Gold.Chemscore.Hbonds>
donor molecule, donor type, donor heavy atom, donor atom, acceptor molecule, acceptor atom, score
      P1  H  7989  7998       L1     7  1.00
      P1  H  7997  8009       L1     9  1.00
      P1  H  8011  8017       L1     4  0.91

> <Gold.PLP.Chemscore.Internal.Correction>
0.0099

> <Gold.Rescore>
     Score         DG    S(hbond)    S(metal)    S(lipo)     H(rot)  DE(clash)    DE(int)     intcor
     13.34     -15.44       2.10        0.00      61.07       1.64       0.29       1.82       ----

> <Gold.Chemscore.Fitness>
13.3372

> <Gold.Chemscore.DG>
-15.4421

> <Gold.Chemscore.ZeroCoef>
-5.4800

> <Gold.Chemscore.Hbond>
2.0996

> <Gold.Chemscore.Metal>
0.0000

> <Gold.Chemscore.Lipo>
61.0683

> <Gold.Chemscore.Internal_Hbond>
0.0000

> <Gold.Chemscore.DEClash>
0.2892

> <Gold.Chemscore.DEInternal>
1.8157

> <Gold.Chemscore.Rot>
1.6389

> <Gold.Chemscore.Internal.Correction>
   9.000000E+99

> <Gold.Chemscore.Hbonds>
donor molecule, donor type, donor heavy atom, donor atom, acceptor molecule, acceptor atom, score
      P1  H  7989  7998       L1     7  0.63
      P1  H  7997  8009       L1     9  0.22
      P1  H  8011  8017       L1     4  0.90

> <Gold.Chemscore.Hbond.Weighted>
-7.0126

> <Gold.Chemscore.Metal.Weighted>
-0.0000

> <Gold.Chemscore.Lipo.Weighted>
-7.1450

> <Gold.Chemscore.Internal_Hbond.Weighted>
0.0000

> <Gold.Chemscore.DEClash.Weighted>
0.2892

> <Gold.Chemscore.DEInternal.Weighted>
1.8157

> <Gold.Chemscore.Rot.Weighted>
4.1955

> <Gold.Chemscore.Internal.Correction.Weighted>
   9.000000E+99

> <Gold.Protein.RotatedTorsions>
[ 6907 6896 6895 6894 ] final -148.66 input  -60.11 | X-H torsion
[ 7974 7965 7964 7962 ] final  -89.30 input  175.53 | X-H torsion
[ 8008 7997 7996 7995 ] final -163.29 input   59.86 | X-H torsion
[ 10167 10162 10161 10158 ] final  -40.65 input  -65.29 | X-H torsion
[ 10718 10713 10712 10709 ] final   58.56 input   66.30 | X-H torsion
[ 10763 10752 10751 10750 ] final   29.69 input  -60.55 | X-H torsion
[ 11005 11000 10999 10996 ] final -169.55 input  -57.11 | X-H torsion

> <Gold.Protein.ActiveResidues>
 VAL166  LYS551  ARG553  GLY616  TRP617  ASP618  TYR619  PRO620  LYS621  CYS622 
 ASP623  PHE694  ASN695  SER759  ASP760  ASP761  ALA762  ILE779  LEU786  VAL792 
 PHE793  MET794  SER795  GLU796  ALA797  LYS798  CYS799  TRP800  GLU811  SER814 

> <Gold.Protein.RotatedAtoms>
  151.1730  133.4772  159.2593 H   0  0  0  0  0  0  0  0  0  0  0  0  # atno 6907 bound_to 6896
  151.1336  135.0143  159.8604 H   0  0  0  0  0  0  0  0  0  0  0  0  # atno 6908 bound_to 6896
  152.5460  134.1631  159.8619 H   0  0  0  0  0  0  0  0  0  0  0  0  # atno 6909 bound_to 6896
  145.4417  140.9559  143.2071 H   0  0  0  0  0  0  0  0  0  0  0  0  # atno 7974 bound_to 7965
  155.8192  140.0917  157.1859 H   0  0  0  0  0  0  0  0  0  0  0  0  # atno 8008 bound_to 7997
  154.3979  140.1440  156.3539 H   0  0  0  0  0  0  0  0  0  0  0  0  # atno 8009 bound_to 7997
  155.8284  140.3443  155.5560 H   0  0  0  0  0  0  0  0  0  0  0  0  # atno 8010 bound_to 7997
  140.7027  143.3140  151.2955 H   0  0  0  0  0  0  0  0  0  0  0  0  # atno 10167 bound_to 10162
  157.5606  130.8832  149.9105 H   0  0  0  0  0  0  0  0  0  0  0  0  # atno 10718 bound_to 10713
  153.0415  135.6482  154.0930 H   0  0  0  0  0  0  0  0  0  0  0  0  # atno 10763 bound_to 10752
  154.0635  135.2886  155.3322 H   0  0  0  0  0  0  0  0  0  0  0  0  # atno 10764 bound_to 10752
  154.6641  135.5380  153.8120 H   0  0  0  0  0  0  0  0  0  0  0  0  # atno 10765 bound_to 10752
  140.5294  134.5631  157.5070 H   0  0  0  0  0  0  0  0  0  0  0  0  # atno 11005 bound_to 11000
  144.8117  139.5949  143.7026 LP  0  0  0  0  0  0  0  0  0  0  0  0  # atno 17320 bound_to 7965
  146.2553  139.6288  142.9399 LP  0  0  0  0  0  0  0  0  0  0  0  0  # atno 17321 bound_to 7965
  139.6573  144.0253  152.2668 LP  0  0  0  0  0  0  0  0  0  0  0  0  # atno 17342 bound_to 10162
  139.9809  144.6429  150.7902 LP  0  0  0  0  0  0  0  0  0  0  0  0  # atno 17343 bound_to 10162
  156.0659  130.3692  150.0880 LP  0  0  0  0  0  0  0  0  0  0  0  0  # atno 17370 bound_to 10713
  156.9044  130.9631  151.3572 LP  0  0  0  0  0  0  0  0  0  0  0  0  # atno 17371 bound_to 10713
  139.9562  134.7531  156.0336 LP  0  0  0  0  0  0  0  0  0  0  0  0  # atno 17394 bound_to 11000
  141.1290  133.6591  156.3412 LP  0  0  0  0  0  0  0  0  0  0  0  0  # atno 17395 bound_to 11000

$$$$
