AV-unprocessed.smi:663|AV-procd|sdf|3248|dock1
  -GOLD-   22720 0193D 1   1.00000     0.00000
 Structure written by MMmdl.
 30 31  0  0  0  0  0  0  0  0  1 V2000
  149.4666  138.8322  152.9809 N   0  0  0  0  0  0  0  0  0  0  0  0
  149.9818  138.8235  154.2127 C   0  0  0  0  0  0  0  0  0  0  0  0
  150.1852  137.7783  154.8275 O   0  0  0  0  0  0  0  0  0  0  0  0
  150.3061  140.1878  154.8377 C   0  0  0  0  0  0  0  0  0  0  0  0
  149.0694  141.0056  155.2790 C   0  0  1  0  0  0  0  0  0  0  0  0
  149.4781  142.0912  156.1705 N   0  0  0  0  0  0  0  0  0  0  0  0
  150.1760  141.9445  157.3059 C   0  0  0  0  0  0  0  0  0  0  0  0
  150.5485  140.8546  157.7397 O   0  0  0  0  0  0  0  0  0  0  0  0
  150.4056  143.1319  157.8893 N   0  0  0  0  0  0  0  0  0  0  0  0
  151.1074  143.3904  159.0932 C   0  0  0  0  0  0  0  0  0  0  0  0
  151.4022  142.3516  159.8838 N   0  0  0  0  0  0  0  0  0  0  0  0
  152.0889  142.7451  161.0262 N   0  0  0  0  0  0  0  0  0  0  0  0
  152.2850  144.0671  161.0521 C   0  0  0  0  0  0  0  0  0  0  0  0
  151.6516  144.9637  159.6832 S   0  0  0  0  0  0  0  0  0  0  0  0
  148.2973  141.4979  154.0661 C   0  0  0  0  0  0  0  0  0  0  0  0
  146.9326  142.1307  154.2043 C   0  0  0  0  0  0  0  0  0  0  0  0
  147.0721  140.7639  153.5747 C   0  0  0  0  0  0  0  0  0  0  0  0
  149.2339  137.9588  152.5308 H   0  0  0  0  0  0  0  0  0  0  0  0
  149.3076  139.7082  152.5048 H   0  0  0  0  0  0  0  0  0  0  0  0
  150.9705  140.0436  155.6913 H   0  0  0  0  0  0  0  0  0  0  0  0
  150.8754  140.7553  154.1007 H   0  0  0  0  0  0  0  0  0  0  0  0
  148.4100  140.3330  155.8321 H   0  0  0  0  0  0  0  0  0  0  0  0
  149.2161  143.0262  155.8938 H   0  0  0  0  0  0  0  0  0  0  0  0
  150.0390  143.9457  157.4181 H   0  0  0  0  0  0  0  0  0  0  0  0
  152.8067  144.5173  161.8836 H   0  0  0  0  0  0  0  0  0  0  0  0
  148.9346  141.9122  153.2868 H   0  0  0  0  0  0  0  0  0  0  0  0
  146.4918  142.1806  155.1980 H   0  0  0  0  0  0  0  0  0  0  0  0
  146.6990  142.9668  153.5483 H   0  0  0  0  0  0  0  0  0  0  0  0
  146.9308  140.6878  152.4986 H   0  0  0  0  0  0  0  0  0  0  0  0
  146.7260  139.9091  154.1525 H   0  0  0  0  0  0  0  0  0  0  0  0
  1  2  1  0  0  0  0
  1 18  1  0  0  0  0
  1 19  1  0  0  0  0
  2  3  2  0  0  0  0
  2  4  1  0  0  0  0
  4  5  1  0  0  0  0
  4 20  1  0  0  0  0
  4 21  1  0  0  0  0
  5  6  1  0  0  0  0
  5 15  1  0  0  0  0
  5 22  1  0  0  0  0
  6  7  1  0  0  0  0
  6 23  1  0  0  0  0
  7  8  2  0  0  0  0
  7  9  1  0  0  0  0
  9 10  1  0  0  0  0
  9 24  1  0  0  0  0
 10 14  1  0  0  0  0
 10 11  2  0  0  0  0
 11 12  1  0  0  0  0
 12 13  2  0  0  0  0
 13 14  1  0  0  0  0
 13 25  1  0  0  0  0
 15 17  1  0  0  0  0
 15 16  1  0  0  0  0
 15 26  1  0  0  0  0
 16 17  1  0  0  0  0
 16 27  1  0  0  0  0
 16 28  1  0  0  0  0
 17 29  1  0  0  0  0
 17 30  1  0  0  0  0
M  END
> <s_m_source_file>
AV-unprocessed.smi

> <i_m_source_file_index>
663

> <i_lp_mmshare_version>
43012

> <i_f3d_flags>
0

> <s_epik_input>
W05IMl1DKD1PKVtDSDJdW0NAQEhdKFtDSF0xW0NIMl1bQ0gyXTEpW05IXUMoPU8pW05IXWMybm5bY0hdczI=

> <s_epik_cmdline>
J2VwaWtfcHl0aG9uJywgJy1waCcsICc3LjAnLCAnLXRuJywgJzgnLCAnLW1hJywgJzIwMCcsICctbWV0YWxfYmluZGluZycsICctaW1hZScsICc8aW5maWxlLm1hZT4nLCAnLW9tYWUnLCAnPG91dGZpbGUubWFlPic=

> <r_lp_tautomer_probability>
1

> <r_epik_Ionization_Penalty>
0.000388224

> <r_epik_Ionization_Penalty_Charging>
0

> <r_epik_Ionization_Penalty_Neutral>
0.000388224

> <r_epik_State_Penalty>
-0

> <r_epik_Charging_Adjusted_Penalty>
0

> <i_epik_Tot_Q>
0

> <i_epik_Tot_abs_Q>
0

> <r_epik_Metal_State_Penalty>
0.191941

> <b_epik_Metal_Only>
0

> <s_lp_Force_Field>
OPLS_2005

> <r_lp_Energy>
6.566

> <b_lp_Chiralities_Consistent>
1

> <s_lp_Variant>
AV-unprocessed.smi:663-2

> <Gold.Version>
5.8.1

> <Gold.Id.Protein>
6NUR|6NUR_protein|mol2

> <Gold.PLP.Fitness>
47.3207

> <Gold.PLP.PLP>
-36.0764

> <Gold.PLP.part.hbond>
-5.2991

> <Gold.PLP.part.metal>
0.0000

> <Gold.PLP.part.buried>
-5.2708

> <Gold.PLP.part.nonpolar>
-25.5115

> <Gold.PLP.part.repulsive>
0.4518

> <Gold.PLP.ligand.clash>
0.0000

> <Gold.PLP.ligand.torsion>
0.8795

> <Gold.PLP.Chemscore.Hbond>
3.9680

> <Gold.PLP.Chemscore.CHOScore>
0.0000

> <Gold.PLP.Chemscore.Metal>
0.0000

> <Gold.Chemscore.Hbonds>
donor molecule, donor type, donor heavy atom, donor atom, acceptor molecule, acceptor atom, score
      L1  H     1    18       P1  7948  1.00
      L1  H     1    19       P1  7957  0.39
      L1  H     6    23       P1  8028  1.00
      L1  H     9    24       P1  8028  0.51

> <Gold.PLP.Chemscore.Internal.Correction>
1.0994

> <Gold.Rescore>
     Score         DG    S(hbond)    S(metal)    S(lipo)     H(rot)  DE(clash)    DE(int)     intcor
     15.73     -18.39       3.78        0.00      57.67       2.52       0.00       2.66       ----

> <Gold.Chemscore.Fitness>
15.7314

> <Gold.Chemscore.DG>
-18.3934

> <Gold.Chemscore.ZeroCoef>
-5.4800

> <Gold.Chemscore.Hbond>
3.7791

> <Gold.Chemscore.Metal>
0.0000

> <Gold.Chemscore.Lipo>
57.6684

> <Gold.Chemscore.Internal_Hbond>
0.0000

> <Gold.Chemscore.DEClash>
0.0021

> <Gold.Chemscore.DEInternal>
2.6598

> <Gold.Chemscore.Rot>
2.5218

> <Gold.Chemscore.Internal.Correction>
   9.000000E+99

> <Gold.Chemscore.Hbonds>
donor molecule, donor type, donor heavy atom, donor atom, acceptor molecule, acceptor atom, score
      L1  H     1    18       P1  7948  0.93
      L1  H     1    19       P1  7957  0.40
      L1  H     6    23       P1  8028  1.00
      L1  H     9    24       P1  8028  0.36

> <Gold.Chemscore.Hbond.Weighted>
-12.6221

> <Gold.Chemscore.Metal.Weighted>
-0.0000

> <Gold.Chemscore.Lipo.Weighted>
-6.7472

> <Gold.Chemscore.Internal_Hbond.Weighted>
0.0000

> <Gold.Chemscore.DEClash.Weighted>
0.0021

> <Gold.Chemscore.DEInternal.Weighted>
2.6598

> <Gold.Chemscore.Rot.Weighted>
6.4559

> <Gold.Chemscore.Internal.Correction.Weighted>
   9.000000E+99

> <Gold.Protein.RotatedTorsions>
[ 6907 6896 6895 6894 ] final  163.11 input  -60.11 | X-H torsion
[ 7974 7965 7964 7962 ] final   80.23 input  175.53 | X-H torsion
[ 8008 7997 7996 7995 ] final  -88.50 input   59.86 | X-H torsion
[ 10167 10162 10161 10158 ] final  101.85 input  -65.29 | X-H torsion
[ 10718 10713 10712 10709 ] final  145.20 input   66.30 | X-H torsion
[ 10763 10752 10751 10750 ] final  136.56 input  -60.55 | X-H torsion
[ 11005 11000 10999 10996 ] final -127.02 input  -57.11 | X-H torsion

> <Gold.Protein.ActiveResidues>
 VAL166  LYS551  ARG553  GLY616  TRP617  ASP618  TYR619  PRO620  LYS621  CYS622 
 ASP623  PHE694  ASN695  SER759  ASP760  ASP761  ALA762  ILE779  LEU786  VAL792 
 PHE793  MET794  SER795  GLU796  ALA797  LYS798  CYS799  TRP800  GLU811  SER814 

> <Gold.Protein.RotatedAtoms>
  151.9302  133.3609  159.3927 H   0  0  0  0  0  0  0  0  0  0  0  0  # atno 6907 bound_to 6896
  150.7019  134.4546  159.5361 H   0  0  0  0  0  0  0  0  0  0  0  0  # atno 6908 bound_to 6896
  152.2185  134.8436  160.0540 H   0  0  0  0  0  0  0  0  0  0  0  0  # atno 6909 bound_to 6896
  145.6539  139.2454  143.1961 H   0  0  0  0  0  0  0  0  0  0  0  0  # atno 7974 bound_to 7965
  154.6756  140.0553  157.0211 H   0  0  0  0  0  0  0  0  0  0  0  0  # atno 8008 bound_to 7997
  155.1026  140.3230  155.4524 H   0  0  0  0  0  0  0  0  0  0  0  0  # atno 8009 bound_to 7997
  156.2674  140.2028  156.6152 H   0  0  0  0  0  0  0  0  0  0  0  0  # atno 8010 bound_to 7997
  139.7402  144.7013  151.0587 H   0  0  0  0  0  0  0  0  0  0  0  0  # atno 10167 bound_to 10162
  157.3481  131.0946  151.1024 H   0  0  0  0  0  0  0  0  0  0  0  0  # atno 10718 bound_to 10713
  153.8586  135.3070  155.3436 H   0  0  0  0  0  0  0  0  0  0  0  0  # atno 10763 bound_to 10752
  154.7859  135.4810  153.9948 H   0  0  0  0  0  0  0  0  0  0  0  0  # atno 10764 bound_to 10752
  153.1475  135.6836  153.9026 H   0  0  0  0  0  0  0  0  0  0  0  0  # atno 10765 bound_to 10752
  140.9633  134.0906  157.3946 H   0  0  0  0  0  0  0  0  0  0  0  0  # atno 11005 bound_to 11000
  146.1181  140.7344  142.9471 LP  0  0  0  0  0  0  0  0  0  0  0  0  # atno 17320 bound_to 7965
  144.7113  140.4048  143.7078 LP  0  0  0  0  0  0  0  0  0  0  0  0  # atno 17321 bound_to 7965
  140.7785  143.4934  150.9864 LP  0  0  0  0  0  0  0  0  0  0  0  0  # atno 17342 bound_to 10162
  139.8622  143.7299  152.3172 LP  0  0  0  0  0  0  0  0  0  0  0  0  # atno 17343 bound_to 10162
  157.2210  130.6481  149.5811 LP  0  0  0  0  0  0  0  0  0  0  0  0  # atno 17370 bound_to 10713
  155.9717  130.4629  150.6163 LP  0  0  0  0  0  0  0  0  0  0  0  0  # atno 17371 bound_to 10713
  139.8886  135.0098  156.6628 LP  0  0  0  0  0  0  0  0  0  0  0  0  # atno 17394 bound_to 11000
  140.7435  133.8957  155.8295 LP  0  0  0  0  0  0  0  0  0  0  0  0  # atno 17395 bound_to 11000

$$$$
