AV-unprocessed.smi:2928|AV-procd|sdf|11236|dock3
  -GOLD-   2272016133D 1   1.00000     0.00000
 Structure written by MMmdl.
 56 59  0  0  0  0  0  0  0  0  3 V2000
  155.5555  135.4097  160.9606 C   0  0  0  0  0  0  0  0  0  0  0  0
  155.4939  136.1315  162.2540 N   0  3  2  0  0  0  0  0  0  0  0  0
  154.1245  136.4499  162.7259 C   0  0  1  0  0  0  0  0  0  0  0  0
  154.1805  136.7838  164.2350 C   0  0  0  0  0  0  0  0  0  0  0  0
  155.2028  137.8818  164.5926 C   0  0  0  0  0  0  0  0  0  0  0  0
  156.5322  137.7213  163.8264 C   0  0  0  0  0  0  0  0  0  0  0  0
  156.3554  137.3358  162.3387 C   0  0  2  0  0  0  0  0  0  0  0  0
  155.8230  138.4736  161.4314 C   0  0  0  0  0  0  0  0  0  0  0  0
  154.3267  138.8079  161.6289 C   0  0  1  0  0  0  0  0  0  0  0  0
  153.8455  139.5545  160.4681 N   0  0  0  0  0  0  0  0  0  0  0  0
  153.3382  140.7955  160.5034 C   0  0  0  0  0  0  0  0  0  0  0  0
  153.2048  141.4483  161.5383 O   0  0  0  0  0  0  0  0  0  0  0  0
  152.9806  141.2141  159.2779 N   0  0  0  0  0  0  0  0  0  0  0  0
  152.3893  142.4596  158.9240 C   0  0  0  0  0  0  0  0  0  0  0  0
  152.7174  143.6487  159.6246 C   0  0  0  0  0  0  0  0  0  0  0  0
  152.1777  144.8807  159.2096 C   0  0  0  0  0  0  0  0  0  0  0  0
  151.3306  144.9090  158.0888 C   0  0  0  0  0  0  0  0  0  0  0  0
  151.0469  143.7629  157.4362 N   0  3  0  0  0  0  0  0  0  0  0  0
  151.5223  142.5443  157.7959 C   0  0  0  0  0  0  0  0  0  0  0  0
  151.1266  141.4267  157.0262 N   0  0  0  0  0  0  0  0  0  0  0  0
  152.1257  140.5173  156.4769 C   0  0  0  0  0  0  0  0  0  0  0  0
  151.3764  139.6877  155.4379 C   0  0  0  0  0  0  0  0  0  0  0  0
  150.3803  140.6941  154.8699 C   0  0  0  0  0  0  0  0  0  0  0  0
  150.0340  141.5812  156.0704 C   0  0  0  0  0  0  0  0  0  0  0  0
  153.4640  137.5395  161.8442 C   0  0  0  0  0  0  0  0  0  0  0  0
  155.1744  136.0079  160.1335 H   0  0  0  0  0  0  0  0  0  0  0  0
  154.9695  134.4915  161.0104 H   0  0  0  0  0  0  0  0  0  0  0  0
  156.5838  135.1312  160.7297 H   0  0  0  0  0  0  0  0  0  0  0  0
  153.5211  135.5458  162.6327 H   0  0  0  0  0  0  0  0  0  0  0  0
  153.1916  137.0597  164.6022 H   0  0  0  0  0  0  0  0  0  0  0  0
  154.4551  135.8763  164.7744 H   0  0  0  0  0  0  0  0  0  0  0  0
  154.7784  138.8664  164.4158 H   0  0  0  0  0  0  0  0  0  0  0  0
  155.3976  137.8595  165.6652 H   0  0  0  0  0  0  0  0  0  0  0  0
  157.1286  138.6296  163.9174 H   0  0  0  0  0  0  0  0  0  0  0  0
  157.1113  136.9358  164.3138 H   0  0  0  0  0  0  0  0  0  0  0  0
  157.3459  137.0639  161.9708 H   0  0  0  0  0  0  0  0  0  0  0  0
  156.4234  139.3733  161.5721 H   0  0  0  0  0  0  0  0  0  0  0  0
  155.9867  138.1805  160.3935 H   0  0  0  0  0  0  0  0  0  0  0  0
  154.2320  139.4610  162.4930 H   0  0  0  0  0  0  0  0  0  0  0  0
  153.9157  139.0954  159.5716 H   0  0  0  0  0  0  0  0  0  0  0  0
  153.0493  140.5352  158.5338 H   0  0  0  0  0  0  0  0  0  0  0  0
  153.3961  143.6374  160.4641 H   0  0  0  0  0  0  0  0  0  0  0  0
  152.4217  145.7917  159.7365 H   0  0  0  0  0  0  0  0  0  0  0  0
  150.8769  145.8067  157.6941 H   0  0  0  0  0  0  0  0  0  0  0  0
  152.9265  141.0761  155.9904 H   0  0  0  0  0  0  0  0  0  0  0  0
  152.5640  139.8910  157.2546 H   0  0  0  0  0  0  0  0  0  0  0  0
  152.0334  139.2603  154.6799 H   0  0  0  0  0  0  0  0  0  0  0  0
  150.8428  138.8708  155.9259 H   0  0  0  0  0  0  0  0  0  0  0  0
  150.8661  141.2931  154.0985 H   0  0  0  0  0  0  0  0  0  0  0  0
  149.5038  140.2219  154.4255 H   0  0  0  0  0  0  0  0  0  0  0  0
  149.1100  141.2356  156.5344 H   0  0  0  0  0  0  0  0  0  0  0  0
  149.8954  142.6202  155.7676 H   0  0  0  0  0  0  0  0  0  0  0  0
  153.2392  137.0972  160.8726 H   0  0  0  0  0  0  0  0  0  0  0  0
  152.4954  137.8159  162.2624 H   0  0  0  0  0  0  0  0  0  0  0  0
  155.8697  135.4802  162.9288 H   0  0  0  0  0  0  0  0  0  0  0  0
  150.4294  143.8165  156.6261 H   0  0  0  0  0  0  0  0  0  0  0  0
  1  2  1  0  0  0  0
  1 26  1  0  0  0  0
  1 27  1  0  0  0  0
  1 28  1  0  0  0  0
  2  7  1  0  0  0  0
  2  3  1  0  0  0  0
  2 55  1  0  0  0  0
  3 25  1  0  0  0  0
  3  4  1  0  0  0  0
  3 29  1  0  0  0  0
  4  5  1  0  0  0  0
  4 30  1  0  0  0  0
  4 31  1  0  0  0  0
  5  6  1  0  0  0  0
  5 32  1  0  0  0  0
  5 33  1  0  0  0  0
  6  7  1  0  0  0  0
  6 34  1  0  0  0  0
  6 35  1  0  0  0  0
  7  8  1  0  0  0  0
  7 36  1  0  0  0  0
  8  9  1  0  0  0  0
  8 37  1  0  0  0  0
  8 38  1  0  0  0  0
  9 10  1  0  0  0  0
  9 25  1  0  0  0  0
  9 39  1  0  0  0  0
 10 11  1  0  0  0  0
 10 40  1  0  0  0  0
 11 12  2  0  0  0  0
 11 13  1  0  0  0  0
 13 14  1  0  0  0  0
 13 41  1  0  0  0  0
 14 19  1  0  0  0  0
 14 15  2  0  0  0  0
 15 16  1  0  0  0  0
 15 42  1  0  0  0  0
 16 17  2  0  0  0  0
 16 43  1  0  0  0  0
 17 18  1  0  0  0  0
 17 44  1  0  0  0  0
 18 19  2  0  0  0  0
 18 56  1  0  0  0  0
 19 20  1  0  0  0  0
 20 24  1  0  0  0  0
 20 21  1  0  0  0  0
 21 22  1  0  0  0  0
 21 45  1  0  0  0  0
 21 46  1  0  0  0  0
 22 23  1  0  0  0  0
 22 47  1  0  0  0  0
 22 48  1  0  0  0  0
 23 24  1  0  0  0  0
 23 49  1  0  0  0  0
 23 50  1  0  0  0  0
 24 51  1  0  0  0  0
 24 52  1  0  0  0  0
 25 53  1  0  0  0  0
 25 54  1  0  0  0  0
M  CHG  1   2   1
M  CHG  1  18   1
M  END
> <s_m_source_file>
AV-unprocessed.smi

> <i_m_source_file_index>
2928

> <i_lp_mmshare_version>
43012

> <i_f3d_flags>
0

> <s_epik_input>
W0NIMl0xW0NIMl1bQ0gyXVtDQEhdKE4oW0NIM10pW0NIXTEyKVtDSDJdW0NASF0oW0NIMl0yKVtOSF1DKD1PKVtOSF1jM1tjSF1bY0hdW2NIXW5jM040W0NIMl1bQ0gyXVtDSDJdW0NIMl00

> <s_epik_cmdline>
J2VwaWtfcHl0aG9uJywgJy1waCcsICc3LjAnLCAnLXRuJywgJzgnLCAnLW1hJywgJzIwMCcsICctbWV0YWxfYmluZGluZycsICctaW1hZScsICc8aW5maWxlLm1hZT4nLCAnLW9tYWUnLCAnPG91dGZpbGUubWFlPic=

> <r_lp_tautomer_probability>
0.999994

> <r_epik_Ionization_Penalty>
1.2404

> <r_epik_Ionization_Penalty_Charging>
1.24038

> <r_epik_Ionization_Penalty_Neutral>
1.86539e-05

> <r_epik_State_Penalty>
1.30821

> <r_epik_Charging_Adjusted_Penalty>
2.54859

> <i_epik_Tot_Q>
2

> <i_epik_Tot_abs_Q>
2

> <r_epik_Metal_State_Penalty>
1.3782

> <b_epik_Metal_Only>
0

> <s_lp_Force_Field>
OPLS_2005

> <r_lp_Energy>
72.136

> <b_lp_Chiralities_Consistent>
1

> <s_lp_Variant>
AV-unprocessed.smi:2928-6

> <Gold.Version>
5.8.1

> <Gold.Id.Protein>
6NUR|6NUR_protein|mol2

> <Gold.PLP.Fitness>
50.7377

> <Gold.PLP.PLP>
-45.1633

> <Gold.PLP.part.hbond>
-1.0000

> <Gold.PLP.part.metal>
0.0000

> <Gold.PLP.part.buried>
-6.4085

> <Gold.PLP.part.nonpolar>
-37.8678

> <Gold.PLP.part.repulsive>
0.1992

> <Gold.PLP.ligand.clash>
0.0000

> <Gold.PLP.ligand.torsion>
0.4014

> <Gold.PLP.Chemscore.Hbond>
2.0000

> <Gold.PLP.Chemscore.CHOScore>
0.0000

> <Gold.PLP.Chemscore.Metal>
0.0000

> <Gold.Chemscore.Hbonds>
donor molecule, donor type, donor heavy atom, donor atom, acceptor molecule, acceptor atom, score
      L1  H    18    56       P1  8028  1.95

> <Gold.PLP.Chemscore.Internal.Correction>
0.3772

> <Gold.Rescore>
     Score         DG    S(hbond)    S(metal)    S(lipo)     H(rot)  DE(clash)    DE(int)     intcor
     17.05     -18.89       0.86        0.00     116.08       1.19       0.16       1.68       ----

> <Gold.Chemscore.Fitness>
17.0522

> <Gold.Chemscore.DG>
-18.8943

> <Gold.Chemscore.ZeroCoef>
-5.4800

> <Gold.Chemscore.Hbond>
0.8603

> <Gold.Chemscore.Metal>
0.0000

> <Gold.Chemscore.Lipo>
116.0848

> <Gold.Chemscore.Internal_Hbond>
0.0000

> <Gold.Chemscore.DEClash>
0.1648

> <Gold.Chemscore.DEInternal>
1.6773

> <Gold.Chemscore.Rot>
1.1879

> <Gold.Chemscore.Internal.Correction>
   9.000000E+99

> <Gold.Chemscore.Hbonds>
donor molecule, donor type, donor heavy atom, donor atom, acceptor molecule, acceptor atom, score
      L1  H    18    56       P1  8028  0.88

> <Gold.Chemscore.Hbond.Weighted>
-2.8735

> <Gold.Chemscore.Metal.Weighted>
-0.0000

> <Gold.Chemscore.Lipo.Weighted>
-13.5819

> <Gold.Chemscore.Internal_Hbond.Weighted>
0.0000

> <Gold.Chemscore.DEClash.Weighted>
0.1648

> <Gold.Chemscore.DEInternal.Weighted>
1.6773

> <Gold.Chemscore.Rot.Weighted>
3.0410

> <Gold.Chemscore.Internal.Correction.Weighted>
   9.000000E+99

> <Gold.Protein.RotatedTorsions>
[ 6907 6896 6895 6894 ] final   48.33 input  -60.11 | X-H torsion
[ 7974 7965 7964 7962 ] final  155.82 input  175.53 | X-H torsion
[ 8008 7997 7996 7995 ] final -148.40 input   59.86 | X-H torsion
[ 10167 10162 10161 10158 ] final  153.88 input  -65.29 | X-H torsion
[ 10718 10713 10712 10709 ] final  -50.99 input   66.30 | X-H torsion
[ 10763 10752 10751 10750 ] final -137.58 input  -60.55 | X-H torsion
[ 11005 11000 10999 10996 ] final   -4.09 input  -57.11 | X-H torsion

> <Gold.Protein.ActiveResidues>
 VAL166  LYS551  ARG553  GLY616  TRP617  ASP618  TYR619  PRO620  LYS621  CYS622 
 ASP623  PHE694  ASN695  SER759  ASP760  ASP761  ALA762  ILE779  LEU786  VAL792 
 PHE793  MET794  SER795  GLU796  ALA797  LYS798  CYS799  TRP800  GLU811  SER814 

> <Gold.Protein.RotatedAtoms>
  152.2782  134.7858  160.0401 H   0  0  0  0  0  0  0  0  0  0  0  0  # atno 6907 bound_to 6896
  151.8446  133.3424  159.3662 H   0  0  0  0  0  0  0  0  0  0  0  0  # atno 6908 bound_to 6896
  150.7179  134.5286  159.5733 H   0  0  0  0  0  0  0  0  0  0  0  0  # atno 6909 bound_to 6896
  144.8001  139.7119  143.6185 H   0  0  0  0  0  0  0  0  0  0  0  0  # atno 7974 bound_to 7965
  155.5910  140.0652  157.2758 H   0  0  0  0  0  0  0  0  0  0  0  0  # atno 8008 bound_to 7997
  154.4305  140.1835  156.1122 H   0  0  0  0  0  0  0  0  0  0  0  0  # atno 8009 bound_to 7997
  156.0232  140.3314  155.7064 H   0  0  0  0  0  0  0  0  0  0  0  0  # atno 8010 bound_to 7997
  139.4825  144.5235  151.7839 H   0  0  0  0  0  0  0  0  0  0  0  0  # atno 10167 bound_to 10162
  156.1750  130.4150  149.9591 H   0  0  0  0  0  0  0  0  0  0  0  0  # atno 10718 bound_to 10713
  154.8658  135.3638  154.5246 H   0  0  0  0  0  0  0  0  0  0  0  0  # atno 10763 bound_to 10752
  153.5874  135.7016  153.5442 H   0  0  0  0  0  0  0  0  0  0  0  0  # atno 10764 bound_to 10752
  153.3403  135.4100  155.1529 H   0  0  0  0  0  0  0  0  0  0  0  0  # atno 10765 bound_to 10752
  140.6764  133.9191  155.8527 H   0  0  0  0  0  0  0  0  0  0  0  0  # atno 11005 bound_to 11000
  146.2280  139.5760  142.9574 LP  0  0  0  0  0  0  0  0  0  0  0  0  # atno 17320 bound_to 7965
  145.5574  141.0407  143.2245 LP  0  0  0  0  0  0  0  0  0  0  0  0  # atno 17321 bound_to 7965
  140.4751  144.1530  150.5924 LP  0  0  0  0  0  0  0  0  0  0  0  0  # atno 17342 bound_to 10162
  140.4339  143.2556  151.9560 LP  0  0  0  0  0  0  0  0  0  0  0  0  # atno 17343 bound_to 10162
  156.7379  130.9068  151.3630 LP  0  0  0  0  0  0  0  0  0  0  0  0  # atno 17370 bound_to 10713
  157.6829  130.9157  150.0313 LP  0  0  0  0  0  0  0  0  0  0  0  0  # atno 17371 bound_to 10713
  141.0352  134.0700  157.3968 LP  0  0  0  0  0  0  0  0  0  0  0  0  # atno 17394 bound_to 11000
  139.8965  135.0146  156.7055 LP  0  0  0  0  0  0  0  0  0  0  0  0  # atno 17395 bound_to 11000

$$$$
