AV-unprocessed.smi:3125|AV-procd|sdf|11907|dock7
  -GOLD-   2272017293D 1   1.00000     0.00000
 Structure written by MMmdl.
 29 30  0  0  0  0  0  0  0  0  3 V2000
  149.5956  139.8954  154.4405 C   0  0  0  0  0  0  0  0  0  0  0  0
  148.3785  140.6652  154.1755 N   0  0  0  0  0  0  0  0  0  0  0  0
  148.1593  141.9745  154.5198 C   0  0  0  0  0  0  0  0  0  0  0  0
  146.8980  142.2892  154.0881 C   0  0  0  0  0  0  0  0  0  0  0  0
  146.4001  141.1605  153.4970 N   0  3  0  0  0  0  0  0  0  0  0  0
  147.2984  140.1678  153.5462 C   0  0  0  0  0  0  0  0  0  0  0  0
  147.0964  138.7838  152.9923 C   0  0  1  0  0  0  0  0  0  0  0  0
  146.1969  137.9281  153.9043 C   0  0  0  0  0  0  0  0  0  0  0  0
  146.0015  136.5273  153.3037 C   0  0  0  0  0  0  0  0  0  0  0  0
  145.4635  136.6145  151.8659 C   0  0  0  0  0  0  0  0  0  0  0  0
  146.3521  137.4458  151.0249 N   0  3  0  0  0  0  0  0  0  0  0  0
  146.5362  138.8157  151.5545 C   0  0  0  0  0  0  0  0  0  0  0  0
  150.3172  140.5222  154.9658 H   0  0  0  0  0  0  0  0  0  0  0  0
  150.0272  139.5643  153.4956 H   0  0  0  0  0  0  0  0  0  0  0  0
  149.3500  139.0333  155.0615 H   0  0  0  0  0  0  0  0  0  0  0  0
  148.8980  142.5717  155.0354 H   0  0  0  0  0  0  0  0  0  0  0  0
  146.3325  143.2073  154.1561 H   0  0  0  0  0  0  0  0  0  0  0  0
  148.0790  138.3136  152.9573 H   0  0  0  0  0  0  0  0  0  0  0  0
  146.6366  137.8467  154.8993 H   0  0  0  0  0  0  0  0  0  0  0  0
  145.2249  138.4067  154.0310 H   0  0  0  0  0  0  0  0  0  0  0  0
  146.9516  135.9912  153.3073 H   0  0  0  0  0  0  0  0  0  0  0  0
  145.3174  135.9472  153.9241 H   0  0  0  0  0  0  0  0  0  0  0  0
  145.3881  135.6187  151.4284 H   0  0  0  0  0  0  0  0  0  0  0  0
  144.4598  137.0418  151.8607 H   0  0  0  0  0  0  0  0  0  0  0  0
  147.2548  136.9954  150.9715 H   0  0  0  0  0  0  0  0  0  0  0  0
  145.5783  139.3373  151.5252 H   0  0  0  0  0  0  0  0  0  0  0  0
  147.2146  139.3579  150.8948 H   0  0  0  0  0  0  0  0  0  0  0  0
  145.9626  137.5023  150.0942 H   0  0  0  0  0  0  0  0  0  0  0  0
  145.4792  141.0851  153.0832 H   0  0  0  0  0  0  0  0  0  0  0  0
  1  2  1  0  0  0  0
  1 13  1  0  0  0  0
  1 14  1  0  0  0  0
  1 15  1  0  0  0  0
  2  6  1  0  0  0  0
  2  3  1  0  0  0  0
  3  4  2  0  0  0  0
  3 16  1  0  0  0  0
  4  5  1  0  0  0  0
  4 17  1  0  0  0  0
  5  6  2  0  0  0  0
  5 29  1  0  0  0  0
  6  7  1  0  0  0  0
  7 12  1  0  0  0  0
  7  8  1  0  0  0  0
  7 18  1  0  0  0  0
  8  9  1  0  0  0  0
  8 19  1  0  0  0  0
  8 20  1  0  0  0  0
  9 10  1  0  0  0  0
  9 21  1  0  0  0  0
  9 22  1  0  0  0  0
 10 11  1  0  0  0  0
 10 23  1  0  0  0  0
 10 24  1  0  0  0  0
 11 12  1  0  0  0  0
 11 25  1  0  0  0  0
 11 28  1  0  0  0  0
 12 26  1  0  0  0  0
 12 27  1  0  0  0  0
M  CHG  1   5   1
M  CHG  1  11   1
M  END
> <s_m_source_file>
AV-unprocessed.smi

> <i_m_source_file_index>
3125

> <i_lp_mmshare_version>
43012

> <i_f3d_flags>
0

> <s_epik_input>
W0NIM11uMVtjSF1bY0hdbmMxW0NAQEhdMltDSDJdW0NIMl1bQ0gyXVtOSF1bQ0gyXTI=

> <s_epik_cmdline>
J2VwaWtfcHl0aG9uJywgJy1waCcsICc3LjAnLCAnLXRuJywgJzgnLCAnLW1hJywgJzIwMCcsICctbWV0YWxfYmluZGluZycsICctaW1hZScsICc8aW5maWxlLm1hZT4nLCAnLW9tYWUnLCAnPG91dGZpbGUubWFlPic=

> <r_lp_tautomer_probability>
1

> <r_epik_Ionization_Penalty>
0.803551

> <r_epik_Ionization_Penalty_Charging>
0.000747377

> <r_epik_Ionization_Penalty_Neutral>
0.802804

> <r_epik_State_Penalty>
0.360941

> <r_epik_Charging_Adjusted_Penalty>
0.361688

> <i_epik_Tot_Q>
2

> <i_epik_Tot_abs_Q>
2

> <r_epik_Metal_State_Penalty>
3.98724

> <b_epik_Metal_Only>
0

> <s_lp_Force_Field>
OPLS_2005

> <r_lp_Energy>
24.5109

> <b_lp_Chiralities_Consistent>
1

> <s_lp_Variant>
AV-unprocessed.smi:3125-2

> <Gold.Version>
5.8.1

> <Gold.Id.Protein>
6NUR|6NUR_protein|mol2

> <Gold.PLP.Fitness>
40.6864

> <Gold.PLP.PLP>
-26.0304

> <Gold.PLP.part.hbond>
-3.0000

> <Gold.PLP.part.metal>
0.0000

> <Gold.PLP.part.buried>
-1.1571

> <Gold.PLP.part.nonpolar>
-23.5326

> <Gold.PLP.part.repulsive>
0.1389

> <Gold.PLP.ligand.clash>
0.0000

> <Gold.PLP.ligand.torsion>
0.3513

> <Gold.PLP.Chemscore.Hbond>
4.1123

> <Gold.PLP.Chemscore.CHOScore>
1.0000

> <Gold.PLP.Chemscore.Metal>
0.0000

> <Gold.Chemscore.Hbonds>
donor molecule, donor type, donor heavy atom, donor atom, acceptor molecule, acceptor atom, score
      L1  H     5    29       P1 10175  2.00
      L1  H    11    25       P1  7948  2.00
      L1  H    11    28       P1 10171  0.07
      L1  C     3    16       P1  8028  1.00

> <Gold.PLP.Chemscore.Internal.Correction>
0.0218

> <Gold.Rescore>
     Score         DG    S(hbond)    S(metal)    S(lipo)     H(rot)  DE(clash)    DE(int)     intcor
     14.37     -14.77       1.94        0.00      45.93       1.00       0.05       0.35       ----

> <Gold.Chemscore.Fitness>
14.3724

> <Gold.Chemscore.DG>
-14.7694

> <Gold.Chemscore.ZeroCoef>
-5.4800

> <Gold.Chemscore.Hbond>
1.9386

> <Gold.Chemscore.Metal>
0.0000

> <Gold.Chemscore.Lipo>
45.9346

> <Gold.Chemscore.Internal_Hbond>
0.0000

> <Gold.Chemscore.DEClash>
0.0494

> <Gold.Chemscore.DEInternal>
0.3475

> <Gold.Chemscore.Rot>
1.0000

> <Gold.Chemscore.Internal.Correction>
   9.000000E+99

> <Gold.Chemscore.Hbonds>
donor molecule, donor type, donor heavy atom, donor atom, acceptor molecule, acceptor atom, score
      L1  H     5    29       P1 10175  0.25
      L1  H    11    25       P1  7948  0.92
      L1  H    11    28       P1 10171  0.07

> <Gold.Chemscore.Hbond.Weighted>
-6.4750

> <Gold.Chemscore.Metal.Weighted>
-0.0000

> <Gold.Chemscore.Lipo.Weighted>
-5.3744

> <Gold.Chemscore.Internal_Hbond.Weighted>
0.0000

> <Gold.Chemscore.DEClash.Weighted>
0.0494

> <Gold.Chemscore.DEInternal.Weighted>
0.3475

> <Gold.Chemscore.Rot.Weighted>
2.5600

> <Gold.Chemscore.Internal.Correction.Weighted>
   9.000000E+99

> <Gold.Protein.RotatedTorsions>
[ 6907 6896 6895 6894 ] final  177.39 input  -60.11 | X-H torsion
[ 7974 7965 7964 7962 ] final  159.23 input  175.53 | X-H torsion
[ 8008 7997 7996 7995 ] final -165.23 input   59.86 | X-H torsion
[ 10167 10162 10161 10158 ] final  178.20 input  -65.29 | X-H torsion
[ 10718 10713 10712 10709 ] final  123.30 input   66.30 | X-H torsion
[ 10763 10752 10751 10750 ] final  -26.13 input  -60.55 | X-H torsion
[ 11005 11000 10999 10996 ] final  -45.85 input  -57.11 | X-H torsion

> <Gold.Protein.ActiveResidues>
 VAL166  LYS551  ARG553  GLY616  TRP617  ASP618  TYR619  PRO620  LYS621  CYS622 
 ASP623  PHE694  ASN695  SER759  ASP760  ASP761  ALA762  ILE779  LEU786  VAL792 
 PHE793  MET794  SER795  GLU796  ALA797  LYS798  CYS799  TRP800  GLU811  SER814 

> <Gold.Protein.RotatedAtoms>
  151.7048  133.3311  159.3275 H   0  0  0  0  0  0  0  0  0  0  0  0  # atno 6907 bound_to 6896
  150.7720  134.6584  159.6335 H   0  0  0  0  0  0  0  0  0  0  0  0  # atno 6908 bound_to 6896
  152.3747  134.6683  160.0216 H   0  0  0  0  0  0  0  0  0  0  0  0  # atno 6909 bound_to 6896
  144.7802  139.7588  143.6263 H   0  0  0  0  0  0  0  0  0  0  0  0  # atno 7974 bound_to 7965
  155.8468  140.0957  157.1700 H   0  0  0  0  0  0  0  0  0  0  0  0  # atno 8008 bound_to 7997
  154.3984  140.1390  156.3857 H   0  0  0  0  0  0  0  0  0  0  0  0  # atno 8009 bound_to 7997
  155.8005  140.3453  155.5402 H   0  0  0  0  0  0  0  0  0  0  0  0  # atno 8010 bound_to 7997
  139.5284  144.2708  152.0629 H   0  0  0  0  0  0  0  0  0  0  0  0  # atno 10167 bound_to 10162
  157.5676  131.1085  150.8426 H   0  0  0  0  0  0  0  0  0  0  0  0  # atno 10718 bound_to 10713
  153.7110  135.6950  153.5037 H   0  0  0  0  0  0  0  0  0  0  0  0  # atno 10763 bound_to 10752
  153.2272  135.4350  155.0554 H   0  0  0  0  0  0  0  0  0  0  0  0  # atno 10764 bound_to 10752
  154.8314  135.3475  154.6647 H   0  0  0  0  0  0  0  0  0  0  0  0  # atno 10765 bound_to 10752
  141.0542  133.6732  156.3071 H   0  0  0  0  0  0  0  0  0  0  0  0  # atno 11005 bound_to 11000
  146.2005  139.5297  142.9746 LP  0  0  0  0  0  0  0  0  0  0  0  0  # atno 17320 bound_to 7965
  145.6072  141.0345  143.1986 LP  0  0  0  0  0  0  0  0  0  0  0  0  # atno 17321 bound_to 7965
  140.2168  144.4507  150.6360 LP  0  0  0  0  0  0  0  0  0  0  0  0  # atno 17342 bound_to 10162
  140.6445  143.2210  151.6217 LP  0  0  0  0  0  0  0  0  0  0  0  0  # atno 17343 bound_to 10162
  156.8907  130.5212  149.5286 LP  0  0  0  0  0  0  0  0  0  0  0  0  # atno 17370 bound_to 10713
  156.0723  130.5753  150.9407 LP  0  0  0  0  0  0  0  0  0  0  0  0  # atno 17371 bound_to 10713
  140.5997  134.5567  157.5515 LP  0  0  0  0  0  0  0  0  0  0  0  0  # atno 17394 bound_to 11000
  139.9375  134.7847  156.0763 LP  0  0  0  0  0  0  0  0  0  0  0  0  # atno 17395 bound_to 11000

$$$$
