AV-unprocessed.smi:124|AV-procd|sdf|1147|dock3
  -GOLD-   2262018283D 1   1.00000     0.00000
 Structure written by MMmdl.
 52 56  0  0  0  0  0  0  0  0  1 V2000
  149.6856  138.5721  156.3850 O   0  0  0  0  0  0  0  0  0  0  0  0
  150.1134  139.0716  157.4271 C   0  0  0  0  0  0  0  0  0  0  0  0
  150.3265  138.1662  158.6554 C   0  0  0  0  0  0  0  0  0  0  0  0
  149.6124  136.8960  158.5704 N   0  0  0  0  0  0  0  0  0  0  0  0
  149.9294  136.0321  157.4925 C   0  0  0  0  0  0  0  0  0  0  0  0
  150.7778  136.3222  156.6470 O   0  0  0  0  0  0  0  0  0  0  0  0
  149.1561  134.7967  157.4613 C   0  0  0  0  0  0  0  0  0  0  0  0
  149.3418  133.9219  156.4583 F   0  0  0  0  0  0  0  0  0  0  0  0
  148.2426  134.5210  158.4168 C   0  0  0  0  0  0  0  0  0  0  0  0
  147.9858  135.3597  159.4896 N   0  0  0  0  0  0  0  0  0  0  0  0
  146.8798  135.0599  160.4805 C   0  0  2  0  0  0  0  0  0  0  0  0
  147.2607  135.3286  161.9472 C   0  0  0  0  0  0  0  0  0  0  0  0
  147.4377  133.9277  162.5002 C   0  0  0  0  0  0  0  0  0  0  0  0
  146.4513  133.1331  161.6535 C   0  0  0  0  0  0  0  0  0  0  0  0
  146.5615  133.7063  160.3574 O   0  0  0  0  0  0  0  0  0  0  0  0
  148.6311  136.6165  159.5530 C   0  0  0  0  0  0  0  0  0  0  0  0
  148.3446  137.4345  160.4305 O   0  0  0  0  0  0  0  0  0  0  0  0
  150.4567  140.4906  157.5931 C   0  0  0  0  0  0  0  0  0  0  0  0
  149.8185  141.5105  156.9128 C   0  0  0  0  0  0  0  0  0  0  0  0
  148.7129  141.5160  155.9615 C   0  0  0  0  0  0  0  0  0  0  0  0
  147.3916  141.7375  156.4054 C   0  0  0  0  0  0  0  0  0  0  0  0
  146.3210  141.7368  155.4902 C   0  0  0  0  0  0  0  0  0  0  0  0
  146.5641  141.5104  154.1222 C   0  0  0  0  0  0  0  0  0  0  0  0
  147.8785  141.2845  153.6715 C   0  0  0  0  0  0  0  0  0  0  0  0
  148.9474  141.2861  154.5886 C   0  0  0  0  0  0  0  0  0  0  0  0
  150.3924  142.7199  157.2538 N   0  0  0  0  0  0  0  0  0  0  0  0
  151.3971  142.5439  158.1758 C   0  0  0  0  0  0  0  0  0  0  0  0
  152.2462  143.4661  158.8147 C   0  0  0  0  0  0  0  0  0  0  0  0
  153.2008  143.0058  159.7367 C   0  0  0  0  0  0  0  0  0  0  0  0
  153.2944  141.6297  160.0087 C   0  0  0  0  0  0  0  0  0  0  0  0
  152.4398  140.7149  159.3613 C   0  0  0  0  0  0  0  0  0  0  0  0
  151.4621  141.1377  158.4209 C   0  0  0  0  0  0  0  0  0  0  0  0
  150.0842  143.6015  156.8697 H   0  0  0  0  0  0  0  0  0  0  0  0
  151.3840  137.9367  158.7913 H   0  0  0  0  0  0  0  0  0  0  0  0
  150.0068  138.6690  159.5689 H   0  0  0  0  0  0  0  0  0  0  0  0
  147.6901  133.6007  158.3157 H   0  0  0  0  0  0  0  0  0  0  0  0
  146.0327  135.6845  160.1933 H   0  0  0  0  0  0  0  0  0  0  0  0
  148.1280  135.9792  162.0587 H   0  0  0  0  0  0  0  0  0  0  0  0
  146.4132  135.8134  162.4335 H   0  0  0  0  0  0  0  0  0  0  0  0
  148.4528  133.5691  162.3287 H   0  0  0  0  0  0  0  0  0  0  0  0
  147.2301  133.8616  163.5684 H   0  0  0  0  0  0  0  0  0  0  0  0
  146.6711  132.0654  161.6398 H   0  0  0  0  0  0  0  0  0  0  0  0
  145.4330  133.2696  162.0207 H   0  0  0  0  0  0  0  0  0  0  0  0
  147.1968  141.9124  157.4534 H   0  0  0  0  0  0  0  0  0  0  0  0
  145.3133  141.9101  155.8381 H   0  0  0  0  0  0  0  0  0  0  0  0
  145.7437  141.5096  153.4197 H   0  0  0  0  0  0  0  0  0  0  0  0
  148.0679  141.1097  152.6228 H   0  0  0  0  0  0  0  0  0  0  0  0
  149.9533  141.1115  154.2354 H   0  0  0  0  0  0  0  0  0  0  0  0
  152.1643  144.5210  158.5993 H   0  0  0  0  0  0  0  0  0  0  0  0
  153.8575  143.7044  160.2341 H   0  0  0  0  0  0  0  0  0  0  0  0
  154.0257  141.2716  160.7184 H   0  0  0  0  0  0  0  0  0  0  0  0
  152.5507  139.6720  159.6072 H   0  0  0  0  0  0  0  0  0  0  0  0
  1  2  2  0  0  0  0
  2  3  1  0  0  0  0
  2 18  1  0  0  0  0
  3  4  1  0  0  0  0
  3 34  1  0  0  0  0
  3 35  1  0  0  0  0
  4 16  1  0  0  0  0
  4  5  1  0  0  0  0
  5  6  2  0  0  0  0
  5  7  1  0  0  0  0
  7  8  1  0  0  0  0
  7  9  2  0  0  0  0
  9 10  1  0  0  0  0
  9 36  1  0  0  0  0
 10 11  1  0  0  0  0
 10 16  1  0  0  0  0
 11 15  1  0  0  0  0
 11 12  1  0  0  0  0
 11 37  1  0  0  0  0
 12 13  1  0  0  0  0
 12 38  1  0  0  0  0
 12 39  1  0  0  0  0
 13 14  1  0  0  0  0
 13 40  1  0  0  0  0
 13 41  1  0  0  0  0
 14 15  1  0  0  0  0
 14 42  1  0  0  0  0
 14 43  1  0  0  0  0
 16 17  2  0  0  0  0
 18 32  1  0  0  0  0
 18 19  2  0  0  0  0
 19 20  1  0  0  0  0
 19 26  1  0  0  0  0
 20 25  1  0  0  0  0
 20 21  2  0  0  0  0
 21 22  1  0  0  0  0
 21 44  1  0  0  0  0
 22 23  2  0  0  0  0
 22 45  1  0  0  0  0
 23 24  1  0  0  0  0
 23 46  1  0  0  0  0
 24 25  2  0  0  0  0
 24 47  1  0  0  0  0
 25 48  1  0  0  0  0
 26 33  1  0  0  0  0
 26 27  1  0  0  0  0
 27 32  1  0  0  0  0
 27 28  2  0  0  0  0
 28 29  1  0  0  0  0
 28 49  1  0  0  0  0
 29 30  2  0  0  0  0
 29 50  1  0  0  0  0
 30 31  1  0  0  0  0
 30 51  1  0  0  0  0
 31 32  2  0  0  0  0
 31 52  1  0  0  0  0
M  END
> <s_m_source_file>
AV-unprocessed.smi

> <i_m_source_file_index>
124

> <i_lp_mmshare_version>
43012

> <i_f3d_flags>
0

> <s_epik_input>
W2NIXTFbY0hdW2NIXVtjSF1bY0hdYzEtYyhbbkhdMiljKGMoYzIzKVtjSF1bY0hdW2NIXVtjSF0zKUMoPU8pW0NIMl1uNGMoPU8pYyhGKVtjSF1uKGM0PU8pW0NAQEhdNVtDSDJdW0NIMl1bQ0gyXU81

> <s_epik_cmdline>
J2VwaWtfcHl0aG9uJywgJy1waCcsICc3LjAnLCAnLXRuJywgJzgnLCAnLW1hJywgJzIwMCcsICctbWV0YWxfYmluZGluZycsICctaW1hZScsICc8aW5maWxlLm1hZT4nLCAnLW9tYWUnLCAnPG91dGZpbGUubWFlPic=

> <r_lp_tautomer_probability>
1

> <r_epik_Ionization_Penalty>
1.43207e-08

> <r_epik_Ionization_Penalty_Charging>
5.01743e-09

> <r_epik_Ionization_Penalty_Neutral>
9.30329e-09

> <r_epik_State_Penalty>
-0

> <r_epik_Charging_Adjusted_Penalty>
5.01743e-09

> <i_epik_Tot_Q>
0

> <i_epik_Tot_abs_Q>
0

> <r_epik_Metal_State_Penalty>
-0

> <b_epik_Metal_Only>
0

> <s_epik_Chemistry_Notes>
This compound contains an acetal/aminal-like group ( X-CH(R)-Y where X, Y are N, S, or O) that may be acid/base labile, releasing an aldehyde.

> <s_lp_Force_Field>
OPLS_2005

> <r_lp_Energy>
48.315

> <b_lp_Chiralities_Consistent>
1

> <s_lp_Variant>
AV-unprocessed.smi:124-1

> <Gold.Version>
5.8.1

> <Gold.Id.Protein>
6NUR|6NUR_protein|mol2

> <Gold.PLP.Fitness>
57.3454

> <Gold.PLP.PLP>
-54.2240

> <Gold.PLP.part.hbond>
-3.0000

> <Gold.PLP.part.metal>
0.0000

> <Gold.PLP.part.buried>
-6.4046

> <Gold.PLP.part.nonpolar>
-46.1195

> <Gold.PLP.part.repulsive>
0.0137

> <Gold.PLP.ligand.clash>
0.0000

> <Gold.PLP.ligand.torsion>
2.4642

> <Gold.PLP.Chemscore.Hbond>
2.1520

> <Gold.PLP.Chemscore.CHOScore>
0.0000

> <Gold.PLP.Chemscore.Metal>
0.0000

> <Gold.Chemscore.Hbonds>
donor molecule, donor type, donor heavy atom, donor atom, acceptor molecule, acceptor atom, score
      L1  H    26    33       P1  8028  1.00
      P1  H  6931  6943       L1    17  0.61
      P1  H  6934  6947       L1    17  0.53

> <Gold.PLP.Chemscore.Internal.Correction>
1.5938

> <Gold.Rescore>
     Score         DG    S(hbond)    S(metal)    S(lipo)     H(rot)  DE(clash)    DE(int)     intcor
     16.30     -24.12       2.33        0.00     126.89       1.55       0.15       7.67       ----

> <Gold.Chemscore.Fitness>
16.3027

> <Gold.Chemscore.DG>
-24.1195

> <Gold.Chemscore.ZeroCoef>
-5.4800

> <Gold.Chemscore.Hbond>
2.3266

> <Gold.Chemscore.Metal>
0.0000

> <Gold.Chemscore.Lipo>
126.8897

> <Gold.Chemscore.Internal_Hbond>
0.0000

> <Gold.Chemscore.DEClash>
0.1489

> <Gold.Chemscore.DEInternal>
7.6680

> <Gold.Chemscore.Rot>
1.5537

> <Gold.Chemscore.Internal.Correction>
   9.000000E+99

> <Gold.Chemscore.Hbonds>
donor molecule, donor type, donor heavy atom, donor atom, acceptor molecule, acceptor atom, score
      L1  H    26    33       P1  8028  0.90
      P1  H  6931  6943       L1    17  0.60
      P1  H  6934  6947       L1    17  0.51

> <Gold.Chemscore.Hbond.Weighted>
-7.7709

> <Gold.Chemscore.Metal.Weighted>
-0.0000

> <Gold.Chemscore.Lipo.Weighted>
-14.8461

> <Gold.Chemscore.Internal_Hbond.Weighted>
0.0000

> <Gold.Chemscore.DEClash.Weighted>
0.1489

> <Gold.Chemscore.DEInternal.Weighted>
7.6680

> <Gold.Chemscore.Rot.Weighted>
3.9774

> <Gold.Chemscore.Internal.Correction.Weighted>
   9.000000E+99

> <Gold.Protein.RotatedTorsions>
[ 6907 6896 6895 6894 ] final  -39.96 input  -60.11 | X-H torsion
[ 7974 7965 7964 7962 ] final   56.46 input  175.53 | X-H torsion
[ 8008 7997 7996 7995 ] final  -98.62 input   59.86 | X-H torsion
[ 10167 10162 10161 10158 ] final -155.86 input  -65.29 | X-H torsion
[ 10718 10713 10712 10709 ] final   -4.79 input   66.30 | X-H torsion
[ 10763 10752 10751 10750 ] final  136.22 input  -60.55 | X-H torsion
[ 11005 11000 10999 10996 ] final  -73.61 input  -57.11 | X-H torsion

> <Gold.Protein.ActiveResidues>
 VAL166  LYS551  ARG553  GLY616  TRP617  ASP618  TYR619  PRO620  LYS621  CYS622 
 ASP623  PHE694  ASN695  SER759  ASP760  ASP761  ALA762  ILE779  LEU786  VAL792 
 PHE793  MET794  SER795  GLU796  ALA797  LYS798  CYS799  TRP800  GLU811  SER814 

> <Gold.Protein.RotatedAtoms>
  150.9841  134.9190  159.7860 H   0  0  0  0  0  0  0  0  0  0  0  0  # atno 6907 bound_to 6896
  152.5231  134.3371  159.9213 H   0  0  0  0  0  0  0  0  0  0  0  0  # atno 6908 bound_to 6896
  151.3377  133.3933  159.2703 H   0  0  0  0  0  0  0  0  0  0  0  0  # atno 6909 bound_to 6896
  145.9396  139.3877  143.0372 H   0  0  0  0  0  0  0  0  0  0  0  0  # atno 7974 bound_to 7965
  154.8037  140.0454  157.1292 H   0  0  0  0  0  0  0  0  0  0  0  0  # atno 8008 bound_to 7997
  154.9449  140.3057  155.5083 H   0  0  0  0  0  0  0  0  0  0  0  0  # atno 8009 bound_to 7997
  156.2964  140.2299  156.4521 H   0  0  0  0  0  0  0  0  0  0  0  0  # atno 8010 bound_to 7997
  139.6897  143.9441  152.2379 H   0  0  0  0  0  0  0  0  0  0  0  0  # atno 10167 bound_to 10162
  156.7561  130.5255  149.5794 H   0  0  0  0  0  0  0  0  0  0  0  0  # atno 10718 bound_to 10713
  153.8529  135.3077  155.3433 H   0  0  0  0  0  0  0  0  0  0  0  0  # atno 10763 bound_to 10752
  154.7883  135.4797  153.9998 H   0  0  0  0  0  0  0  0  0  0  0  0  # atno 10764 bound_to 10752
  153.1507  135.6842  153.8980 H   0  0  0  0  0  0  0  0  0  0  0  0  # atno 10765 bound_to 10752
  141.1625  133.6884  156.7238 H   0  0  0  0  0  0  0  0  0  0  0  0  # atno 11005 bound_to 11000
  145.8318  140.9627  143.0845 LP  0  0  0  0  0  0  0  0  0  0  0  0  # atno 17320 bound_to 7965
  144.6777  140.0172  143.7484 LP  0  0  0  0  0  0  0  0  0  0  0  0  # atno 17321 bound_to 7965
  139.9254  144.6774  150.8418 LP  0  0  0  0  0  0  0  0  0  0  0  0  # atno 17342 bound_to 10162
  140.7679  143.3345  151.2338 LP  0  0  0  0  0  0  0  0  0  0  0  0  # atno 17343 bound_to 10162
  156.1369  130.6218  151.0413 LP  0  0  0  0  0  0  0  0  0  0  0  0  # atno 17370 bound_to 10713
  157.6755  131.0851  150.7504 LP  0  0  0  0  0  0  0  0  0  0  0  0  # atno 17371 bound_to 10713
  140.2796  134.8327  157.3921 LP  0  0  0  0  0  0  0  0  0  0  0  0  # atno 17394 bound_to 11000
  140.1445  134.4928  155.8006 LP  0  0  0  0  0  0  0  0  0  0  0  0  # atno 17395 bound_to 11000

$$$$
