AV-unprocessed.smi:1108|AV-procd|sdf|4787|dock9
  -GOLD-   22720 3333D 1   1.00000     0.00000
 Structure written by MMmdl.
 31 32  0  0  0  0  0  0  0  0  1 V2000
  151.6859  139.1298  158.1272 C   0  0  0  0  0  0  0  0  0  0  0  0
  151.7703  140.6437  157.8900 C   0  0  2  0  0  0  0  0  0  0  0  0
  151.9896  141.4072  159.2137 C   0  0  0  0  0  0  0  0  0  0  0  0
  151.8046  142.8407  159.0745 N   0  0  0  0  0  0  0  0  0  0  0  0
  152.6867  143.8537  159.3868 C   0  0  0  0  0  0  0  0  0  0  0  0
  152.0667  145.0354  159.0980 C   0  0  0  0  0  0  0  0  0  0  0  0
  150.7936  144.6365  158.6032 C   0  0  0  0  0  0  0  0  0  0  0  0
  150.6413  143.3222  158.5862 N   0  0  0  0  0  0  0  0  0  0  0  0
  150.5433  141.0878  157.2293 N   0  0  0  0  0  0  0  0  0  0  0  0
  150.2739  140.9751  155.9201 C   0  0  0  0  0  0  0  0  0  0  0  0
  151.0389  140.4720  155.0971 O   0  0  0  0  0  0  0  0  0  0  0  0
  149.0739  141.4874  155.6171 N   0  0  0  0  0  0  0  0  0  0  0  0
  148.5019  141.5344  154.3107 C   0  0  0  0  0  0  0  0  0  0  0  0
  147.1128  142.1189  154.1725 C   0  0  0  0  0  0  0  0  0  0  0  0
  147.3169  140.6357  154.0302 C   0  0  0  0  0  0  0  0  0  0  0  0
  152.5990  138.7544  158.5900 H   0  0  0  0  0  0  0  0  0  0  0  0
  151.5495  138.5918  157.1884 H   0  0  0  0  0  0  0  0  0  0  0  0
  150.8522  138.8750  158.7826 H   0  0  0  0  0  0  0  0  0  0  0  0
  152.6271  140.8179  157.2362 H   0  0  0  0  0  0  0  0  0  0  0  0
  151.3121  141.0395  159.9856 H   0  0  0  0  0  0  0  0  0  0  0  0
  153.0017  141.2345  159.5828 H   0  0  0  0  0  0  0  0  0  0  0  0
  153.6678  143.6513  159.7905 H   0  0  0  0  0  0  0  0  0  0  0  0
  152.4613  146.0327  159.2228 H   0  0  0  0  0  0  0  0  0  0  0  0
  149.9816  145.2586  158.2574 H   0  0  0  0  0  0  0  0  0  0  0  0
  149.8454  141.5184  157.8181 H   0  0  0  0  0  0  0  0  0  0  0  0
  148.5229  141.8794  156.3668 H   0  0  0  0  0  0  0  0  0  0  0  0
  149.1785  141.7060  153.4745 H   0  0  0  0  0  0  0  0  0  0  0  0
  146.6167  142.4730  155.0740 H   0  0  0  0  0  0  0  0  0  0  0  0
  146.8955  142.6853  153.2692 H   0  0  0  0  0  0  0  0  0  0  0  0
  147.2352  140.2111  153.0318 H   0  0  0  0  0  0  0  0  0  0  0  0
  146.9576  139.9997  154.8370 H   0  0  0  0  0  0  0  0  0  0  0  0
  1  2  1  0  0  0  0
  1 16  1  0  0  0  0
  1 17  1  0  0  0  0
  1 18  1  0  0  0  0
  2  3  1  0  0  0  0
  2  9  1  0  0  0  0
  2 19  1  0  0  0  0
  3  4  1  0  0  0  0
  3 20  1  0  0  0  0
  3 21  1  0  0  0  0
  4  8  1  0  0  0  0
  4  5  1  0  0  0  0
  5  6  2  0  0  0  0
  5 22  1  0  0  0  0
  6  7  1  0  0  0  0
  6 23  1  0  0  0  0
  7  8  2  0  0  0  0
  7 24  1  0  0  0  0
  9 10  1  0  0  0  0
  9 25  1  0  0  0  0
 10 11  2  0  0  0  0
 10 12  1  0  0  0  0
 12 13  1  0  0  0  0
 12 26  1  0  0  0  0
 13 15  1  0  0  0  0
 13 14  1  0  0  0  0
 13 27  1  0  0  0  0
 14 15  1  0  0  0  0
 14 28  1  0  0  0  0
 14 29  1  0  0  0  0
 15 30  1  0  0  0  0
 15 31  1  0  0  0  0
M  END
> <s_m_source_file>
AV-unprocessed.smi

> <i_m_source_file_index>
1108

> <i_lp_mmshare_version>
43012

> <i_f3d_flags>
0

> <s_epik_input>
W0NIMl0xW0NIMl1bQ0hdMVtOSF1DKD1PKVtOSF1bQ0BIXShbQ0gzXSlbQ0gyXW4yW2NIXVtjSF1bY0hdbjI=

> <s_epik_cmdline>
J2VwaWtfcHl0aG9uJywgJy1waCcsICc3LjAnLCAnLXRuJywgJzgnLCAnLW1hJywgJzIwMCcsICctbWV0YWxfYmluZGluZycsICctaW1hZScsICc8aW5maWxlLm1hZT4nLCAnLW9tYWUnLCAnPG91dGZpbGUubWFlPic=

> <r_lp_tautomer_probability>
1

> <r_epik_Ionization_Penalty>
7.55353e-05

> <r_epik_Ionization_Penalty_Charging>
0

> <r_epik_Ionization_Penalty_Neutral>
7.55353e-05

> <r_epik_State_Penalty>
-0

> <r_epik_Charging_Adjusted_Penalty>
0

> <i_epik_Tot_Q>
0

> <i_epik_Tot_abs_Q>
0

> <r_epik_Metal_State_Penalty>
-0

> <b_epik_Metal_Only>
0

> <s_lp_Force_Field>
OPLS_2005

> <r_lp_Energy>
13.7116

> <b_lp_Chiralities_Consistent>
1

> <s_lp_Variant>
AV-unprocessed.smi:1108-1

> <Gold.Version>
5.8.1

> <Gold.Id.Protein>
6NUR|6NUR_protein|mol2

> <Gold.PLP.Fitness>
39.3609

> <Gold.PLP.PLP>
-34.1560

> <Gold.PLP.part.hbond>
-1.6612

> <Gold.PLP.part.metal>
0.0000

> <Gold.PLP.part.buried>
-4.1876

> <Gold.PLP.part.nonpolar>
-28.6486

> <Gold.PLP.part.repulsive>
0.3168

> <Gold.PLP.ligand.clash>
0.0000

> <Gold.PLP.ligand.torsion>
0.4481

> <Gold.PLP.Chemscore.Hbond>
1.0000

> <Gold.PLP.Chemscore.CHOScore>
1.0181

> <Gold.PLP.Chemscore.Metal>
0.0000

> <Gold.Chemscore.Hbonds>
donor molecule, donor type, donor heavy atom, donor atom, acceptor molecule, acceptor atom, score
      P1  H  7989  7998       L1    11  1.00
      L1  C     7    24       P1  8028  0.02
      L1  C     7    24       P1  8029  1.00

> <Gold.PLP.Chemscore.Internal.Correction>
0.0469

> <Gold.Rescore>
     Score         DG    S(hbond)    S(metal)    S(lipo)     H(rot)  DE(clash)    DE(int)     intcor
     13.40     -13.66       0.99        0.00      79.11       1.71       0.00       0.25       ----

> <Gold.Chemscore.Fitness>
13.4027

> <Gold.Chemscore.DG>
-13.6600

> <Gold.Chemscore.ZeroCoef>
-5.4800

> <Gold.Chemscore.Hbond>
0.9866

> <Gold.Chemscore.Metal>
0.0000

> <Gold.Chemscore.Lipo>
79.1115

> <Gold.Chemscore.Internal_Hbond>
0.0000

> <Gold.Chemscore.DEClash>
0.0029

> <Gold.Chemscore.DEInternal>
0.2544

> <Gold.Chemscore.Rot>
1.7075

> <Gold.Chemscore.Internal.Correction>
   9.000000E+99

> <Gold.Chemscore.Hbonds>
donor molecule, donor type, donor heavy atom, donor atom, acceptor molecule, acceptor atom, score
      P1  H  7989  7998       L1    11  0.95

> <Gold.Chemscore.Hbond.Weighted>
-3.2952

> <Gold.Chemscore.Metal.Weighted>
-0.0000

> <Gold.Chemscore.Lipo.Weighted>
-9.2560

> <Gold.Chemscore.Internal_Hbond.Weighted>
0.0000

> <Gold.Chemscore.DEClash.Weighted>
0.0029

> <Gold.Chemscore.DEInternal.Weighted>
0.2544

> <Gold.Chemscore.Rot.Weighted>
4.3713

> <Gold.Chemscore.Internal.Correction.Weighted>
   9.000000E+99

> <Gold.Protein.RotatedTorsions>
[ 6907 6896 6895 6894 ] final -104.60 input  -60.11 | X-H torsion
[ 7974 7965 7964 7962 ] final   35.23 input  175.53 | X-H torsion
[ 8008 7997 7996 7995 ] final  106.89 input   59.86 | X-H torsion
[ 10167 10162 10161 10158 ] final   95.60 input  -65.29 | X-H torsion
[ 10718 10713 10712 10709 ] final   45.74 input   66.30 | X-H torsion
[ 10763 10752 10751 10750 ] final  -45.23 input  -60.55 | X-H torsion
[ 11005 11000 10999 10996 ] final -137.95 input  -57.11 | X-H torsion

> <Gold.Protein.ActiveResidues>
 VAL166  LYS551  ARG553  GLY616  TRP617  ASP618  TYR619  PRO620  LYS621  CYS622 
 ASP623  PHE694  ASN695  SER759  ASP760  ASP761  ALA762  ILE779  LEU786  VAL792 
 PHE793  MET794  SER795  GLU796  ALA797  LYS798  CYS799  TRP800  GLU811  SER814 

> <Gold.Protein.RotatedAtoms>
  150.7295  134.0252  159.3714 H   0  0  0  0  0  0  0  0  0  0  0  0  # atno 6907 bound_to 6896
  151.8219  135.0647  160.0435 H   0  0  0  0  0  0  0  0  0  0  0  0  # atno 6908 bound_to 6896
  152.2997  133.5607  159.5647 H   0  0  0  0  0  0  0  0  0  0  0  0  # atno 6909 bound_to 6896
  146.1297  139.6168  142.9234 H   0  0  0  0  0  0  0  0  0  0  0  0  # atno 7974 bound_to 7965
  156.1780  140.3104  155.9095 H   0  0  0  0  0  0  0  0  0  0  0  0  # atno 8008 bound_to 7997
  155.3445  140.0467  157.3062 H   0  0  0  0  0  0  0  0  0  0  0  0  # atno 8009 bound_to 7997
  154.5311  140.2231  155.8812 H   0  0  0  0  0  0  0  0  0  0  0  0  # atno 8010 bound_to 7997
  139.7973  144.6828  150.9811 H   0  0  0  0  0  0  0  0  0  0  0  0  # atno 10167 bound_to 10162
  157.4408  130.8080  149.7692 H   0  0  0  0  0  0  0  0  0  0  0  0  # atno 10718 bound_to 10713
  154.0251  135.6664  153.4776 H   0  0  0  0  0  0  0  0  0  0  0  0  # atno 10763 bound_to 10752
  153.0563  135.5054  154.7986 H   0  0  0  0  0  0  0  0  0  0  0  0  # atno 10764 bound_to 10752
  154.6913  135.3062  154.9440 H   0  0  0  0  0  0  0  0  0  0  0  0  # atno 10765 bound_to 10752
  140.8662  134.2107  157.4678 H   0  0  0  0  0  0  0  0  0  0  0  0  # atno 11005 bound_to 11000
  145.5287  141.0428  143.2395 LP  0  0  0  0  0  0  0  0  0  0  0  0  # atno 17320 bound_to 7965
  144.7678  139.6804  143.7207 LP  0  0  0  0  0  0  0  0  0  0  0  0  # atno 17321 bound_to 7965
  140.7820  143.4317  151.0684 LP  0  0  0  0  0  0  0  0  0  0  0  0  # atno 17342 bound_to 10162
  139.7991  143.8109  152.3161 LP  0  0  0  0  0  0  0  0  0  0  0  0  # atno 17343 bound_to 10162
  155.9948  130.3916  150.2845 LP  0  0  0  0  0  0  0  0  0  0  0  0  # atno 17370 bound_to 10713
  157.1009  131.0195  151.3086 LP  0  0  0  0  0  0  0  0  0  0  0  0  # atno 17371 bound_to 10713
  139.8709  134.9753  156.4878 LP  0  0  0  0  0  0  0  0  0  0  0  0  # atno 17394 bound_to 11000
  140.8626  133.8048  155.9280 LP  0  0  0  0  0  0  0  0  0  0  0  0  # atno 17395 bound_to 11000

$$$$
