AV-unprocessed.smi:2170|AV-procd|sdf|8825|dock10
  -GOLD-   2272012 23D 1   1.00000     0.00000
 Structure written by MMmdl.
 45 46  0  0  0  0  0  0  0  0  2 V2000
  147.7105  134.2667  155.2835 C   0  0  0  0  0  0  0  0  0  0  0  0
  149.0833  134.1157  154.6042 C   0  0  0  0  0  0  0  0  0  0  0  0
  149.0654  133.0116  153.5315 C   0  0  0  0  0  0  0  0  0  0  0  0
  150.1618  133.9121  155.6036 N   0  0  0  0  0  0  0  0  0  0  0  0
  150.2425  132.5630  156.1994 C   0  0  0  0  0  0  0  0  0  0  0  0
  150.5893  135.2598  156.6233 S   0  0  0  0  0  0  0  0  0  0  0  0
  149.6781  135.2257  157.7794 O   0  0  0  0  0  0  0  0  0  0  0  0
  152.0323  135.1263  156.8829 O   0  0  0  0  0  0  0  0  0  0  0  0
  150.2205  136.4398  155.5742 N   0  5  0  0  0  0  0  0  0  0  0  0
  151.2857  137.2815  155.0621 C   0  0  0  0  0  0  0  0  0  0  0  0
  151.5466  138.4742  155.9708 C   0  0  0  0  0  0  0  0  0  0  0  0
  150.6507  139.5643  156.0172 C   0  0  0  0  0  0  0  0  0  0  0  0
  150.9345  140.6473  156.8723 C   0  0  0  0  0  0  0  0  0  0  0  0
  152.1069  140.6151  157.6638 C   0  0  0  0  0  0  0  0  0  0  0  0
  152.4062  141.6878  158.5323 N   0  0  0  0  0  0  0  0  0  0  0  0
  152.7857  141.3694  159.9077 C   0  0  0  0  0  0  0  0  0  0  0  0
  153.3405  142.6183  160.6129 C   0  0  0  0  0  0  0  0  0  0  0  0
  152.3870  143.6728  160.5382 O   0  0  0  0  0  0  0  0  0  0  0  0
  152.1120  144.0431  159.1914 C   0  0  0  0  0  0  0  0  0  0  0  0
  151.5198  142.8445  158.4301 C   0  0  0  0  0  0  0  0  0  0  0  0
  152.9702  139.5710  157.6104 N   0  0  0  0  0  0  0  0  0  0  0  0
  152.6944  138.5323  156.7920 C   0  0  0  0  0  0  0  0  0  0  0  0
  146.9380  134.4890  154.5470 H   0  0  0  0  0  0  0  0  0  0  0  0
  147.7109  135.0817  156.0073 H   0  0  0  0  0  0  0  0  0  0  0  0
  147.4120  133.3571  155.8046 H   0  0  0  0  0  0  0  0  0  0  0  0
  149.2956  135.0443  154.0752 H   0  0  0  0  0  0  0  0  0  0  0  0
  148.3906  133.2790  152.7180 H   0  0  0  0  0  0  0  0  0  0  0  0
  148.7225  132.0565  153.9300 H   0  0  0  0  0  0  0  0  0  0  0  0
  150.0559  132.8653  153.0991 H   0  0  0  0  0  0  0  0  0  0  0  0
  149.3296  132.3288  156.7458 H   0  0  0  0  0  0  0  0  0  0  0  0
  151.0724  132.4935  156.9014 H   0  0  0  0  0  0  0  0  0  0  0  0
  150.4084  131.8027  155.4379 H   0  0  0  0  0  0  0  0  0  0  0  0
  152.2169  136.7257  154.9457 H   0  0  0  0  0  0  0  0  0  0  0  0
  151.0507  137.6674  154.0696 H   0  0  0  0  0  0  0  0  0  0  0  0
  149.7546  139.5873  155.4122 H   0  0  0  0  0  0  0  0  0  0  0  0
  150.2591  141.4889  156.9002 H   0  0  0  0  0  0  0  0  0  0  0  0
  151.9141  140.9939  160.4459 H   0  0  0  0  0  0  0  0  0  0  0  0
  153.5412  140.5828  159.9189 H   0  0  0  0  0  0  0  0  0  0  0  0
  153.5455  142.3978  161.6606 H   0  0  0  0  0  0  0  0  0  0  0  0
  154.2839  142.9328  160.1631 H   0  0  0  0  0  0  0  0  0  0  0  0
  151.4057  144.8735  159.1893 H   0  0  0  0  0  0  0  0  0  0  0  0
  153.0229  144.3989  158.7072 H   0  0  0  0  0  0  0  0  0  0  0  0
  151.3498  143.1335  157.3940 H   0  0  0  0  0  0  0  0  0  0  0  0
  150.5480  142.5803  158.8490 H   0  0  0  0  0  0  0  0  0  0  0  0
  153.4233  137.7334  156.8052 H   0  0  0  0  0  0  0  0  0  0  0  0
  1  2  1  0  0  0  0
  1 23  1  0  0  0  0
  1 24  1  0  0  0  0
  1 25  1  0  0  0  0
  2  3  1  0  0  0  0
  2  4  1  0  0  0  0
  2 26  1  0  0  0  0
  3 27  1  0  0  0  0
  3 28  1  0  0  0  0
  3 29  1  0  0  0  0
  4  5  1  0  0  0  0
  4  6  1  0  0  0  0
  5 30  1  0  0  0  0
  5 31  1  0  0  0  0
  5 32  1  0  0  0  0
  6  7  2  0  0  0  0
  6  8  2  0  0  0  0
  6  9  1  0  0  0  0
  9 10  1  0  0  0  0
 10 11  1  0  0  0  0
 10 33  1  0  0  0  0
 10 34  1  0  0  0  0
 11 22  1  0  0  0  0
 11 12  2  0  0  0  0
 12 13  1  0  0  0  0
 12 35  1  0  0  0  0
 13 14  2  0  0  0  0
 13 36  1  0  0  0  0
 14 15  1  0  0  0  0
 14 21  1  0  0  0  0
 15 20  1  0  0  0  0
 15 16  1  0  0  0  0
 16 17  1  0  0  0  0
 16 37  1  0  0  0  0
 16 38  1  0  0  0  0
 17 18  1  0  0  0  0
 17 39  1  0  0  0  0
 17 40  1  0  0  0  0
 18 19  1  0  0  0  0
 19 20  1  0  0  0  0
 19 41  1  0  0  0  0
 19 42  1  0  0  0  0
 20 43  1  0  0  0  0
 20 44  1  0  0  0  0
 21 22  2  0  0  0  0
 22 45  1  0  0  0  0
M  CHG  1   9  -1
M  END
> <s_m_source_file>
AV-unprocessed.smi

> <i_m_source_file_index>
2170

> <i_lp_mmshare_version>
43012

> <i_f3d_flags>
0

> <s_epik_input>
W0NIM11bQ0hdKFtDSDNdKU4oW0NIM10pUyg9TykoPU8pW05IXVtDSDJdYzFbY0hdW2NIXWMobltjSF0xKU4yW0NIMl1bQ0gyXU9bQ0gyXVtDSDJdMg==

> <s_epik_cmdline>
J2VwaWtfcHl0aG9uJywgJy1waCcsICc3LjAnLCAnLXRuJywgJzgnLCAnLW1hJywgJzIwMCcsICctbWV0YWxfYmluZGluZycsICctaW1hZScsICc8aW5maWxlLm1hZT4nLCAnLW9tYWUnLCAnPG91dGZpbGUubWFlPic=

> <r_lp_tautomer_probability>
1

> <r_epik_Ionization_Penalty>
3.3971

> <r_epik_Ionization_Penalty_Charging>
3.31706

> <r_epik_Ionization_Penalty_Neutral>
0.0800436

> <r_epik_State_Penalty>
3.32044

> <r_epik_Charging_Adjusted_Penalty>
6.63751

> <i_epik_Tot_Q>
-1

> <i_epik_Tot_abs_Q>
1

> <r_epik_Metal_State_Penalty>
0.488406

> <b_epik_Metal_Only>
1

> <s_lp_Force_Field>
OPLS_2005

> <r_lp_Energy>
16.8192

> <b_lp_Chiralities_Consistent>
1

> <s_lp_Variant>
AV-unprocessed.smi:2170-2

> <Gold.Version>
5.8.1

> <Gold.Id.Protein>
6NUR|6NUR_protein|mol2

> <Gold.PLP.Fitness>
44.7466

> <Gold.PLP.PLP>
-37.1514

> <Gold.PLP.part.hbond>
-3.0657

> <Gold.PLP.part.metal>
0.0000

> <Gold.PLP.part.buried>
-5.4872

> <Gold.PLP.part.nonpolar>
-29.4857

> <Gold.PLP.part.repulsive>
0.1564

> <Gold.PLP.ligand.clash>
0.0000

> <Gold.PLP.ligand.torsion>
2.4990

> <Gold.PLP.Chemscore.Hbond>
2.8483

> <Gold.PLP.Chemscore.CHOScore>
0.0000

> <Gold.PLP.Chemscore.Metal>
0.0000

> <Gold.Chemscore.Hbonds>
donor molecule, donor type, donor heavy atom, donor atom, acceptor molecule, acceptor atom, score
      P1  H  6896  6909       L1     7  0.71
      P1  H  7997  8009       L1    21  0.99
      P1  H 10752 10764       L1     8  0.78

> <Gold.PLP.Chemscore.Internal.Correction>
4.0484

> <Gold.Rescore>
     Score         DG    S(hbond)    S(metal)    S(lipo)     H(rot)  DE(clash)    DE(int)     intcor
     17.57     -20.08       2.41        0.00      89.77       1.54       0.03       2.48       ----

> <Gold.Chemscore.Fitness>
17.5660

> <Gold.Chemscore.DG>
-20.0770

> <Gold.Chemscore.ZeroCoef>
-5.4800

> <Gold.Chemscore.Hbond>
2.4072

> <Gold.Chemscore.Metal>
0.0000

> <Gold.Chemscore.Lipo>
89.7717

> <Gold.Chemscore.Internal_Hbond>
0.0000

> <Gold.Chemscore.DEClash>
0.0279

> <Gold.Chemscore.DEInternal>
2.4831

> <Gold.Chemscore.Rot>
1.5415

> <Gold.Chemscore.Internal.Correction>
   9.000000E+99

> <Gold.Chemscore.Hbonds>
donor molecule, donor type, donor heavy atom, donor atom, acceptor molecule, acceptor atom, score
      P1  H  6896  6909       L1     7  0.44
      P1  H  7997  8009       L1    21  0.29
      P1  H 10752 10764       L1     8  0.75

> <Gold.Chemscore.Hbond.Weighted>
-8.0399

> <Gold.Chemscore.Metal.Weighted>
-0.0000

> <Gold.Chemscore.Lipo.Weighted>
-10.5033

> <Gold.Chemscore.Internal_Hbond.Weighted>
0.0000

> <Gold.Chemscore.DEClash.Weighted>
0.0279

> <Gold.Chemscore.DEInternal.Weighted>
2.4831

> <Gold.Chemscore.Rot.Weighted>
3.9462

> <Gold.Chemscore.Internal.Correction.Weighted>
   9.000000E+99

> <Gold.Protein.RotatedTorsions>
[ 6907 6896 6895 6894 ] final   26.10 input  -60.11 | X-H torsion
[ 7974 7965 7964 7962 ] final -122.83 input  175.53 | X-H torsion
[ 8008 7997 7996 7995 ] final  148.09 input   59.86 | X-H torsion
[ 10167 10162 10161 10158 ] final   84.57 input  -65.29 | X-H torsion
[ 10718 10713 10712 10709 ] final  123.94 input   66.30 | X-H torsion
[ 10763 10752 10751 10750 ] final  -12.53 input  -60.55 | X-H torsion
[ 11005 11000 10999 10996 ] final  128.75 input  -57.11 | X-H torsion

> <Gold.Protein.ActiveResidues>
 VAL166  LYS551  ARG553  GLY616  TRP617  ASP618  TYR619  PRO620  LYS621  CYS622 
 ASP623  PHE694  ASN695  SER759  ASP760  ASP761  ALA762  ILE779  LEU786  VAL792 
 PHE793  MET794  SER795  GLU796  ALA797  LYS798  CYS799  TRP800  GLU811  SER814 

> <Gold.Protein.RotatedAtoms>
  151.9824  135.0021  160.0557 H   0  0  0  0  0  0  0  0  0  0  0  0  # atno 6907 bound_to 6896
  152.1684  133.4622  159.4904 H   0  0  0  0  0  0  0  0  0  0  0  0  # atno 6908 bound_to 6896
  150.6898  134.1902  159.4325 H   0  0  0  0  0  0  0  0  0  0  0  0  # atno 6909 bound_to 6896
  145.0252  140.8021  143.4357 H   0  0  0  0  0  0  0  0  0  0  0  0  # atno 7974 bound_to 7965
  156.2803  140.2138  156.5642 H   0  0  0  0  0  0  0  0  0  0  0  0  # atno 8008 bound_to 7997
  154.7188  140.0505  157.0643 H   0  0  0  0  0  0  0  0  0  0  0  0  # atno 8009 bound_to 7997
  155.0506  140.3156  155.4696 H   0  0  0  0  0  0  0  0  0  0  0  0  # atno 8010 bound_to 7997
  139.9067  144.6297  150.8580 H   0  0  0  0  0  0  0  0  0  0  0  0  # atno 10167 bound_to 10162
  157.5625  131.1088  150.8513 H   0  0  0  0  0  0  0  0  0  0  0  0  # atno 10718 bound_to 10713
  153.4999  135.7017  153.5837 H   0  0  0  0  0  0  0  0  0  0  0  0  # atno 10763 bound_to 10752
  153.3973  135.3881  155.1964 H   0  0  0  0  0  0  0  0  0  0  0  0  # atno 10764 bound_to 10752
  154.8711  135.3873  154.4468 H   0  0  0  0  0  0  0  0  0  0  0  0  # atno 10765 bound_to 10752
  139.9577  134.9609  156.9047 H   0  0  0  0  0  0  0  0  0  0  0  0  # atno 11005 bound_to 11000
  145.1843  139.2335  143.5276 LP  0  0  0  0  0  0  0  0  0  0  0  0  # atno 17320 bound_to 7965
  146.3491  140.1625  142.8590 LP  0  0  0  0  0  0  0  0  0  0  0  0  # atno 17321 bound_to 7965
  140.7695  143.3396  151.2235 LP  0  0  0  0  0  0  0  0  0  0  0  0  # atno 17342 bound_to 10162
  139.6978  143.9583  152.2891 LP  0  0  0  0  0  0  0  0  0  0  0  0  # atno 17343 bound_to 10162
  156.9007  130.5245  149.5283 LP  0  0  0  0  0  0  0  0  0  0  0  0  # atno 17370 bound_to 10713
  156.0676  130.5716  150.9320 LP  0  0  0  0  0  0  0  0  0  0  0  0  # atno 17371 bound_to 10713
  140.5570  134.0571  155.7387 LP  0  0  0  0  0  0  0  0  0  0  0  0  # atno 17394 bound_to 11000
  141.1251  133.9396  157.2651 LP  0  0  0  0  0  0  0  0  0  0  0  0  # atno 17395 bound_to 11000

$$$$
