AV-unprocessed.smi:686|AV-procd|sdf|3345|dock2
  -GOLD-   22720 0323D 1   1.00000     0.00000
 Structure written by MMmdl.
 40 41  0  0  0  0  0  0  0  0  3 V2000
  149.5336  132.0550  154.9239 C   0  0  0  0  0  0  0  0  0  0  0  0
  148.1458  132.6070  154.5424 C   0  0  2  0  0  0  0  0  0  0  0  0
  147.9555  132.7881  153.0256 C   0  0  0  0  0  0  0  0  0  0  0  0
  147.1777  134.0383  152.8226 N   0  3  1  0  0  0  0  0  0  0  0  0
  146.1198  133.9691  151.7751 C   0  0  0  0  0  0  0  0  0  0  0  0
  146.6420  133.2687  150.5066 C   0  0  0  0  0  0  0  0  0  0  0  0
  145.5875  135.3677  151.4080 C   0  0  0  0  0  0  0  0  0  0  0  0
  146.7295  134.4876  154.1584 C   0  0  0  0  0  0  0  0  0  0  0  0
  147.8088  133.9891  155.1162 C   0  0  1  0  0  0  0  0  0  0  0  0
  147.3214  133.9045  156.4867 N   0  5  0  0  0  0  0  0  0  0  0  0
  147.9635  134.8148  157.6742 S   0  0  0  0  0  0  0  0  0  0  0  0
  149.3693  134.4930  157.9760 O   0  0  0  0  0  0  0  0  0  0  0  0
  147.6459  136.2337  157.4546 O   0  0  0  0  0  0  0  0  0  0  0  0
  146.9430  134.3272  159.1488 C   0  0  0  0  0  0  0  0  0  0  0  0
  147.2365  135.1800  160.3550 C   0  0  0  0  0  0  0  0  0  0  0  0
  147.5463  134.7696  161.6816 C   0  0  0  0  0  0  0  0  0  0  0  0
  147.7272  135.9468  162.3479 C   0  0  0  0  0  0  0  0  0  0  0  0
  147.5594  136.9985  161.5081 O   0  0  0  0  0  0  0  0  0  0  0  0
  147.2567  136.4992  160.2365 N   0  0  0  0  0  0  0  0  0  0  0  0
  150.3440  132.7083  154.5949 H   0  0  0  0  0  0  0  0  0  0  0  0
  149.6961  131.0810  154.4619 H   0  0  0  0  0  0  0  0  0  0  0  0
  149.6334  131.9181  156.0023 H   0  0  0  0  0  0  0  0  0  0  0  0
  147.3896  131.8961  154.8818 H   0  0  0  0  0  0  0  0  0  0  0  0
  148.9078  132.8819  152.5007 H   0  0  0  0  0  0  0  0  0  0  0  0
  147.4426  131.9167  152.6152 H   0  0  0  0  0  0  0  0  0  0  0  0
  145.2877  133.3859  152.1729 H   0  0  0  0  0  0  0  0  0  0  0  0
  145.8729  133.2358  149.7342 H   0  0  0  0  0  0  0  0  0  0  0  0
  146.9415  132.2386  150.6983 H   0  0  0  0  0  0  0  0  0  0  0  0
  147.5030  133.7937  150.0917 H   0  0  0  0  0  0  0  0  0  0  0  0
  144.8532  135.3072  150.6041 H   0  0  0  0  0  0  0  0  0  0  0  0
  146.3919  136.0227  151.0715 H   0  0  0  0  0  0  0  0  0  0  0  0
  145.0917  135.8507  152.2499 H   0  0  0  0  0  0  0  0  0  0  0  0
  146.6124  135.5709  154.1997 H   0  0  0  0  0  0  0  0  0  0  0  0
  145.7666  134.0295  154.3939 H   0  0  0  0  0  0  0  0  0  0  0  0
  148.6850  134.6306  155.0187 H   0  0  0  0  0  0  0  0  0  0  0  0
  145.8975  134.4511  158.8687 H   0  0  0  0  0  0  0  0  0  0  0  0
  147.0923  133.2652  159.3449 H   0  0  0  0  0  0  0  0  0  0  0  0
  147.6151  133.7689  162.0810 H   0  0  0  0  0  0  0  0  0  0  0  0
  147.9705  136.1900  163.3715 H   0  0  0  0  0  0  0  0  0  0  0  0
  147.8478  134.7312  152.5210 H   0  0  0  0  0  0  0  0  0  0  0  0
  1  2  1  0  0  0  0
  1 20  1  0  0  0  0
  1 21  1  0  0  0  0
  1 22  1  0  0  0  0
  2  9  1  0  0  0  0
  2  3  1  0  0  0  0
  2 23  1  0  0  0  0
  3  4  1  0  0  0  0
  3 24  1  0  0  0  0
  3 25  1  0  0  0  0
  4  5  1  0  0  0  0
  4  8  1  0  0  0  0
  4 40  1  0  0  0  0
  5  6  1  0  0  0  0
  5  7  1  0  0  0  0
  5 26  1  0  0  0  0
  6 27  1  0  0  0  0
  6 28  1  0  0  0  0
  6 29  1  0  0  0  0
  7 30  1  0  0  0  0
  7 31  1  0  0  0  0
  7 32  1  0  0  0  0
  8  9  1  0  0  0  0
  8 33  1  0  0  0  0
  8 34  1  0  0  0  0
  9 10  1  0  0  0  0
  9 35  1  0  0  0  0
 10 11  1  0  0  0  0
 11 12  2  0  0  0  0
 11 13  2  0  0  0  0
 11 14  1  0  0  0  0
 14 15  1  0  0  0  0
 14 36  1  0  0  0  0
 14 37  1  0  0  0  0
 15 19  2  0  0  0  0
 15 16  1  0  0  0  0
 16 17  2  0  0  0  0
 16 38  1  0  0  0  0
 17 18  1  0  0  0  0
 17 39  1  0  0  0  0
 18 19  1  0  0  0  0
M  CHG  1   4   1
M  CHG  1  10  -1
M  END
> <s_m_source_file>
AV-unprocessed.smi

> <i_m_source_file_index>
686

> <i_lp_mmshare_version>
43012

> <i_f3d_flags>
0

> <s_epik_input>
W0NIM11bQ0BASF0xW0NIMl1OKFtDSF0oW0NIM10pW0NIM10pW0NIMl1bQ0BIXTFbTkhdUyg9TykoPU8pW0NIMl1jMltjSF1bY0hdb24y

> <s_epik_cmdline>
J2VwaWtfcHl0aG9uJywgJy1waCcsICc3LjAnLCAnLXRuJywgJzgnLCAnLW1hJywgJzIwMCcsICctbWV0YWxfYmluZGluZycsICctaW1hZScsICc8aW5maWxlLm1hZT4nLCAnLW9tYWUnLCAnPG91dGZpbGUubWFlPic=

> <r_epik_Ionization_Penalty>
3.62478

> <r_epik_Ionization_Penalty_Charging>
3.62478

> <r_epik_Ionization_Penalty_Neutral>
2.03645e-10

> <r_epik_State_Penalty>
3.6247

> <r_epik_Charging_Adjusted_Penalty>
7.24949

> <i_epik_Tot_Q>
0

> <i_epik_Tot_abs_Q>
2

> <r_epik_Metal_State_Penalty>
0.530836

> <b_epik_Metal_Only>
1

> <s_lp_Force_Field>
OPLS_2005

> <r_lp_Energy>
16.9735

> <b_lp_Chiralities_Consistent>
1

> <s_lp_Variant>
AV-unprocessed.smi:686-9

> <Gold.Version>
5.8.1

> <Gold.Id.Protein>
6NUR|6NUR_protein|mol2

> <Gold.PLP.Fitness>
41.1264

> <Gold.PLP.PLP>
-28.3134

> <Gold.PLP.part.hbond>
-4.0000

> <Gold.PLP.part.metal>
0.0000

> <Gold.PLP.part.buried>
-3.7449

> <Gold.PLP.part.nonpolar>
-19.6836

> <Gold.PLP.part.repulsive>
0.0000

> <Gold.PLP.ligand.clash>
0.0000

> <Gold.PLP.ligand.torsion>
0.9624

> <Gold.PLP.Chemscore.Hbond>
4.5488

> <Gold.PLP.Chemscore.CHOScore>
0.0000

> <Gold.PLP.Chemscore.Metal>
0.0000

> <Gold.Chemscore.Hbonds>
donor molecule, donor type, donor heavy atom, donor atom, acceptor molecule, acceptor atom, score
      L1  H     4    40       P1  7948  2.00
      P1  H  6896  6909       L1    12  1.00
      P1  H  6931  6943       L1    18  1.00
      P1  H  6934  6947       L1    18  0.45

> <Gold.PLP.Chemscore.Internal.Correction>
1.0915

> <Gold.Rescore>
     Score         DG    S(hbond)    S(metal)    S(lipo)     H(rot)  DE(clash)    DE(int)     intcor
     16.14     -18.38       2.89        0.00      63.16       1.61       0.03       2.21       ----

> <Gold.Chemscore.Fitness>
16.1448

> <Gold.Chemscore.DG>
-18.3792

> <Gold.Chemscore.ZeroCoef>
-5.4800

> <Gold.Chemscore.Hbond>
2.8875

> <Gold.Chemscore.Metal>
0.0000

> <Gold.Chemscore.Lipo>
63.1553

> <Gold.Chemscore.Internal_Hbond>
0.0000

> <Gold.Chemscore.DEClash>
0.0280

> <Gold.Chemscore.DEInternal>
2.2064

> <Gold.Chemscore.Rot>
1.6149

> <Gold.Chemscore.Internal.Correction>
   9.000000E+99

> <Gold.Chemscore.Hbonds>
donor molecule, donor type, donor heavy atom, donor atom, acceptor molecule, acceptor atom, score
      L1  H     4    40       P1  7948  0.78
      P1  H  6896  6909       L1    12  1.00
      P1  H  6931  6943       L1    18  0.52
      P1  H  6934  6947       L1    18  0.05

> <Gold.Chemscore.Hbond.Weighted>
-9.6442

> <Gold.Chemscore.Metal.Weighted>
-0.0000

> <Gold.Chemscore.Lipo.Weighted>
-7.3892

> <Gold.Chemscore.Internal_Hbond.Weighted>
0.0000

> <Gold.Chemscore.DEClash.Weighted>
0.0280

> <Gold.Chemscore.DEInternal.Weighted>
2.2064

> <Gold.Chemscore.Rot.Weighted>
4.1341

> <Gold.Chemscore.Internal.Correction.Weighted>
   9.000000E+99

> <Gold.Protein.RotatedTorsions>
[ 6907 6896 6895 6894 ] final   21.72 input  -60.11 | X-H torsion
[ 7974 7965 7964 7962 ] final  153.05 input  175.53 | X-H torsion
[ 8008 7997 7996 7995 ] final -178.34 input   59.86 | X-H torsion
[ 10167 10162 10161 10158 ] final  -12.81 input  -65.29 | X-H torsion
[ 10718 10713 10712 10709 ] final -159.53 input   66.30 | X-H torsion
[ 10763 10752 10751 10750 ] final  160.22 input  -60.55 | X-H torsion
[ 11005 11000 10999 10996 ] final   19.27 input  -57.11 | X-H torsion

> <Gold.Protein.ActiveResidues>
 VAL166  LYS551  ARG553  GLY616  TRP617  ASP618  TYR619  PRO620  LYS621  CYS622 
 ASP623  PHE694  ASN695  SER759  ASP760  ASP761  ALA762  ILE779  LEU786  VAL792 
 PHE793  MET794  SER795  GLU796  ALA797  LYS798  CYS799  TRP800  GLU811  SER814 

> <Gold.Protein.RotatedAtoms>
  151.9161  135.0318  160.0518 H   0  0  0  0  0  0  0  0  0  0  0  0  # atno 6907 bound_to 6896
  152.2239  133.5000  159.5186 H   0  0  0  0  0  0  0  0  0  0  0  0  # atno 6908 bound_to 6896
  150.7007  134.1223  159.4082 H   0  0  0  0  0  0  0  0  0  0  0  0  # atno 6909 bound_to 6896
  144.8181  139.6749  143.6112 H   0  0  0  0  0  0  0  0  0  0  0  0  # atno 7974 bound_to 7965
  156.0177  140.1254  157.0389 H   0  0  0  0  0  0  0  0  0  0  0  0  # atno 8008 bound_to 7997
  154.4299  140.1075  156.5989 H   0  0  0  0  0  0  0  0  0  0  0  0  # atno 8009 bound_to 7997
  155.5989  140.3470  155.4590 H   0  0  0  0  0  0  0  0  0  0  0  0  # atno 8010 bound_to 7997
  140.7169  143.5492  150.9320 H   0  0  0  0  0  0  0  0  0  0  0  0  # atno 10167 bound_to 10162
  156.5695  130.8682  151.2833 H   0  0  0  0  0  0  0  0  0  0  0  0  # atno 10718 bound_to 10713
  154.2439  135.2774  155.2843 H   0  0  0  0  0  0  0  0  0  0  0  0  # atno 10763 bound_to 10752
  154.5521  135.5672  153.6935 H   0  0  0  0  0  0  0  0  0  0  0  0  # atno 10764 bound_to 10752
  152.9994  135.6277  154.2584 H   0  0  0  0  0  0  0  0  0  0  0  0  # atno 10765 bound_to 10752
  140.4156  134.1573  155.7669 H   0  0  0  0  0  0  0  0  0  0  0  0  # atno 11005 bound_to 11000
  146.2485  139.6149  142.9443 LP  0  0  0  0  0  0  0  0  0  0  0  0  # atno 17320 bound_to 7965
  145.5168  141.0433  143.2457 LP  0  0  0  0  0  0  0  0  0  0  0  0  # atno 17321 bound_to 7965
  139.9216  143.6599  152.3095 LP  0  0  0  0  0  0  0  0  0  0  0  0  # atno 17342 bound_to 10162
  139.7018  144.7634  151.1260 LP  0  0  0  0  0  0  0  0  0  0  0  0  # atno 17343 bound_to 10162
  157.7351  130.9757  150.2065 LP  0  0  0  0  0  0  0  0  0  0  0  0  # atno 17370 bound_to 10713
  156.2727  130.3724  149.8015 LP  0  0  0  0  0  0  0  0  0  0  0  0  # atno 17371 bound_to 10713
  141.1804  133.8425  157.1277 LP  0  0  0  0  0  0  0  0  0  0  0  0  # atno 17394 bound_to 11000
  140.0236  134.9934  157.0642 LP  0  0  0  0  0  0  0  0  0  0  0  0  # atno 17395 bound_to 11000

$$$$
