AV-unprocessed.smi:1005|AV-procd|sdf|4370|dock2
  -GOLD-   22720 2283D 1   1.00000     0.00000
 Structure written by MMmdl.
 57 59  0  0  0  0  0  0  0  0  3 V2000
  151.9737  143.0074  160.5413 C   0  0  0  0  0  0  0  0  0  0  0  0
  151.5555  142.3248  159.2510 C   0  0  0  0  0  0  0  0  0  0  0  0
  152.3531  141.2769  158.7383 C   0  0  0  0  0  0  0  0  0  0  0  0
  151.9994  140.6157  157.5419 C   0  0  0  0  0  0  0  0  0  0  0  0
  152.6151  139.5710  156.8743 N   0  0  0  0  0  0  0  0  0  0  0  0
  151.8015  139.3965  155.8369 C   0  0  0  0  0  0  0  0  0  0  0  0
  150.7248  140.2015  155.7570 N   0  0  0  0  0  0  0  0  0  0  0  0
  149.6899  140.1788  154.7383 C   0  0  0  0  0  0  0  0  0  0  0  0
  149.2558  138.7464  154.3599 C   0  0  2  0  0  0  0  0  0  0  0  0
  150.0002  138.3583  153.2232 O   0  0  0  0  0  0  0  0  0  0  0  0
  147.7484  138.6293  154.0412 C   0  0  0  0  0  0  0  0  0  0  0  0
  147.3137  137.2546  153.6749 N   0  3  1  0  0  0  0  0  0  0  0  0
  147.3710  136.2601  154.7774 C   0  0  0  0  0  0  0  0  0  0  0  0
  146.1928  136.4287  155.7565 C   0  0  0  0  0  0  0  0  0  0  0  0
  144.9614  136.3875  155.0431 O   0  0  0  0  0  0  0  0  0  0  0  0
  144.8526  137.4265  154.0764 C   0  0  2  0  0  0  0  0  0  0  0  0
  143.4416  137.3497  153.4614 C   0  0  0  0  0  0  0  0  0  0  0  0
  142.6284  138.5738  153.6876 N   0  3  0  0  0  0  0  0  0  0  0  0
  141.2644  138.4399  153.1292 C   0  0  0  0  0  0  0  0  0  0  0  0
  142.5925  139.0113  155.1033 C   0  0  0  0  0  0  0  0  0  0  0  0
  145.9762  137.2283  153.0327 C   0  0  0  0  0  0  0  0  0  0  0  0
  150.8186  141.0382  156.8651 C   0  0  0  0  0  0  0  0  0  0  0  0
  150.0200  142.0841  157.3622 C   0  0  0  0  0  0  0  0  0  0  0  0
  150.3834  142.7284  158.5627 C   0  0  0  0  0  0  0  0  0  0  0  0
  149.5089  143.8493  159.0961 C   0  0  0  0  0  0  0  0  0  0  0  0
  152.9097  142.5987  160.9234 H   0  0  0  0  0  0  0  0  0  0  0  0
  151.2120  142.8727  161.3094 H   0  0  0  0  0  0  0  0  0  0  0  0
  152.1181  144.0760  160.3795 H   0  0  0  0  0  0  0  0  0  0  0  0
  153.2458  140.9693  159.2632 H   0  0  0  0  0  0  0  0  0  0  0  0
  151.9931  138.6326  155.0971 H   0  0  0  0  0  0  0  0  0  0  0  0
  148.8375  140.7507  155.1081 H   0  0  0  0  0  0  0  0  0  0  0  0
  150.0593  140.7079  153.8583 H   0  0  0  0  0  0  0  0  0  0  0  0
  149.5208  138.0825  155.1820 H   0  0  0  0  0  0  0  0  0  0  0  0
  149.4698  137.7827  152.6930 H   0  0  0  0  0  0  0  0  0  0  0  0
  147.1541  138.9698  154.8869 H   0  0  0  0  0  0  0  0  0  0  0  0
  147.5222  139.3077  153.2173 H   0  0  0  0  0  0  0  0  0  0  0  0
  147.3223  135.2647  154.3340 H   0  0  0  0  0  0  0  0  0  0  0  0
  148.3210  136.3040  155.3073 H   0  0  0  0  0  0  0  0  0  0  0  0
  146.1994  135.6206  156.4877 H   0  0  0  0  0  0  0  0  0  0  0  0
  146.2722  137.3587  156.3210 H   0  0  0  0  0  0  0  0  0  0  0  0
  144.9695  138.3794  154.5921 H   0  0  0  0  0  0  0  0  0  0  0  0
  143.5423  137.1738  152.3893 H   0  0  0  0  0  0  0  0  0  0  0  0
  142.9049  136.4882  153.8622 H   0  0  0  0  0  0  0  0  0  0  0  0
  140.7113  137.6468  153.6341 H   0  0  0  0  0  0  0  0  0  0  0  0
  141.3010  138.2072  152.0645 H   0  0  0  0  0  0  0  0  0  0  0  0
  140.7073  139.3705  153.2418 H   0  0  0  0  0  0  0  0  0  0  0  0
  142.1839  138.2298  155.7449 H   0  0  0  0  0  0  0  0  0  0  0  0
  141.9691  139.8990  155.2146 H   0  0  0  0  0  0  0  0  0  0  0  0
  143.5840  139.2740  155.4704 H   0  0  0  0  0  0  0  0  0  0  0  0
  145.9218  137.9840  152.2484 H   0  0  0  0  0  0  0  0  0  0  0  0
  145.8508  136.2652  152.5364 H   0  0  0  0  0  0  0  0  0  0  0  0
  149.1321  142.3855  156.8267 H   0  0  0  0  0  0  0  0  0  0  0  0
  148.6168  143.9841  158.4839 H   0  0  0  0  0  0  0  0  0  0  0  0
  150.0588  144.7907  159.1008 H   0  0  0  0  0  0  0  0  0  0  0  0
  149.1844  143.6326  160.1140 H   0  0  0  0  0  0  0  0  0  0  0  0
  143.0678  139.3170  153.1635 H   0  0  0  0  0  0  0  0  0  0  0  0
  147.9737  136.9479  152.9736 H   0  0  0  0  0  0  0  0  0  0  0  0
  1  2  1  0  0  0  0
  1 26  1  0  0  0  0
  1 27  1  0  0  0  0
  1 28  1  0  0  0  0
  2 24  1  0  0  0  0
  2  3  2  0  0  0  0
  3  4  1  0  0  0  0
  3 29  1  0  0  0  0
  4 22  2  0  0  0  0
  4  5  1  0  0  0  0
  5  6  2  0  0  0  0
  6  7  1  0  0  0  0
  6 30  1  0  0  0  0
  7  8  1  0  0  0  0
  7 22  1  0  0  0  0
  8  9  1  0  0  0  0
  8 31  1  0  0  0  0
  8 32  1  0  0  0  0
  9 10  1  0  0  0  0
  9 11  1  0  0  0  0
  9 33  1  0  0  0  0
 10 34  1  0  0  0  0
 11 12  1  0  0  0  0
 11 35  1  0  0  0  0
 11 36  1  0  0  0  0
 12 21  1  0  0  0  0
 12 13  1  0  0  0  0
 12 57  1  0  0  0  0
 13 14  1  0  0  0  0
 13 37  1  0  0  0  0
 13 38  1  0  0  0  0
 14 15  1  0  0  0  0
 14 39  1  0  0  0  0
 14 40  1  0  0  0  0
 15 16  1  0  0  0  0
 16 17  1  0  0  0  0
 16 21  1  0  0  0  0
 16 41  1  0  0  0  0
 17 18  1  0  0  0  0
 17 42  1  0  0  0  0
 17 43  1  0  0  0  0
 18 19  1  0  0  0  0
 18 20  1  0  0  0  0
 18 56  1  0  0  0  0
 19 44  1  0  0  0  0
 19 45  1  0  0  0  0
 19 46  1  0  0  0  0
 20 47  1  0  0  0  0
 20 48  1  0  0  0  0
 20 49  1  0  0  0  0
 21 50  1  0  0  0  0
 21 51  1  0  0  0  0
 22 23  1  0  0  0  0
 23 24  2  0  0  0  0
 23 52  1  0  0  0  0
 24 25  1  0  0  0  0
 25 53  1  0  0  0  0
 25 54  1  0  0  0  0
 25 55  1  0  0  0  0
M  CHG  1  12   1
M  CHG  1  18   1
M  END
> <s_m_source_file>
AV-unprocessed.smi

> <i_m_source_file_index>
1005

> <i_lp_mmshare_version>
43012

> <i_f3d_flags>
0

> <s_epik_input>
W0NIM11jKFtjSF0xKWMoW0NIM10pW2NIXWMoYzEyKW4oW2NIXW4yKVtDSDJdW0NASF0oW09IXSlbQ0gyXU4zW0NIMl1bQ0gyXU9bQ0BIXShbQ0gyXTMpW0NIMl1OKFtDSDNdKVtDSDNd

> <s_epik_cmdline>
J2VwaWtfcHl0aG9uJywgJy1waCcsICc3LjAnLCAnLXRuJywgJzgnLCAnLW1hJywgJzIwMCcsICctbWV0YWxfYmluZGluZycsICctaW1hZScsICc8aW5maWxlLm1hZT4nLCAnLW9tYWUnLCAnPG91dGZpbGUubWFlPic=

> <r_epik_Ionization_Penalty>
1.0968

> <r_epik_Ionization_Penalty_Charging>
1.0096

> <r_epik_Ionization_Penalty_Neutral>
0.0871956

> <r_epik_State_Penalty>
1.31185

> <r_epik_Charging_Adjusted_Penalty>
2.32145

> <i_epik_Tot_Q>
2

> <i_epik_Tot_abs_Q>
2

> <r_epik_Metal_State_Penalty>
1.22442

> <b_epik_Metal_Only>
0

> <s_lp_Force_Field>
OPLS_2005

> <r_lp_Energy>
36.3086

> <b_lp_Chiralities_Consistent>
1

> <s_lp_Variant>
AV-unprocessed.smi:1005-9

> <Gold.Version>
5.8.1

> <Gold.Id.Protein>
6NUR|6NUR_protein|mol2

> <Gold.PLP.Fitness>
53.3408

> <Gold.PLP.PLP>
-38.3675

> <Gold.PLP.part.hbond>
-5.7503

> <Gold.PLP.part.metal>
0.0000

> <Gold.PLP.part.buried>
-2.2794

> <Gold.PLP.part.nonpolar>
-29.5465

> <Gold.PLP.part.repulsive>
0.0010

> <Gold.PLP.ligand.clash>
0.0000

> <Gold.PLP.ligand.torsion>
1.5596

> <Gold.PLP.Chemscore.Hbond>
5.9760

> <Gold.PLP.Chemscore.CHOScore>
0.0000

> <Gold.PLP.Chemscore.Metal>
0.0000

> <Gold.Chemscore.Hbonds>
donor molecule, donor type, donor heavy atom, donor atom, acceptor molecule, acceptor atom, score
      L1  H    10    34       P1  7948  1.00
      L1  H    12    57       P1  7948  2.00
      L1  H    18    56       P1 10175  1.46
      P1  H  7997  8008       L1     5  1.00

> <Gold.PLP.Chemscore.Internal.Correction>
0.1645

> <Gold.Rescore>
     Score         DG    S(hbond)    S(metal)    S(lipo)     H(rot)  DE(clash)    DE(int)     intcor
     19.98     -21.53       3.60        0.00      88.86       2.48       0.00       1.55       ----

> <Gold.Chemscore.Fitness>
19.9816

> <Gold.Chemscore.DG>
-21.5325

> <Gold.Chemscore.ZeroCoef>
-5.4800

> <Gold.Chemscore.Hbond>
3.5953

> <Gold.Chemscore.Metal>
0.0000

> <Gold.Chemscore.Lipo>
88.8586

> <Gold.Chemscore.Internal_Hbond>
0.0000

> <Gold.Chemscore.DEClash>
0.0018

> <Gold.Chemscore.DEInternal>
1.5491

> <Gold.Chemscore.Rot>
2.4814

> <Gold.Chemscore.Internal.Correction>
   9.000000E+99

> <Gold.Chemscore.Hbonds>
donor molecule, donor type, donor heavy atom, donor atom, acceptor molecule, acceptor atom, score
      L1  H    10    34       P1  7948  0.78
      L1  H    12    57       P1  7948  1.00
      L1  H    18    56       P1 10175  0.73
      P1  H  7997  8008       L1     5  0.43

> <Gold.Chemscore.Hbond.Weighted>
-12.0084

> <Gold.Chemscore.Metal.Weighted>
-0.0000

> <Gold.Chemscore.Lipo.Weighted>
-10.3965

> <Gold.Chemscore.Internal_Hbond.Weighted>
0.0000

> <Gold.Chemscore.DEClash.Weighted>
0.0018

> <Gold.Chemscore.DEInternal.Weighted>
1.5491

> <Gold.Chemscore.Rot.Weighted>
6.3524

> <Gold.Chemscore.Internal.Correction.Weighted>
   9.000000E+99

> <Gold.Protein.RotatedTorsions>
[ 6907 6896 6895 6894 ] final -116.97 input  -60.11 | X-H torsion
[ 7974 7965 7964 7962 ] final  156.40 input  175.53 | X-H torsion
[ 8008 7997 7996 7995 ] final  -75.52 input   59.86 | X-H torsion
[ 10167 10162 10161 10158 ] final   91.91 input  -65.29 | X-H torsion
[ 10718 10713 10712 10709 ] final    5.12 input   66.30 | X-H torsion
[ 10763 10752 10751 10750 ] final -110.35 input  -60.55 | X-H torsion
[ 11005 11000 10999 10996 ] final   66.15 input  -57.11 | X-H torsion

> <Gold.Protein.ActiveResidues>
 VAL166  LYS551  ARG553  GLY616  TRP617  ASP618  TYR619  PRO620  LYS621  CYS622 
 ASP623  PHE694  ASN695  SER759  ASP760  ASP761  ALA762  ILE779  LEU786  VAL792 
 PHE793  MET794  SER795  GLU796  ALA797  LYS798  CYS799  TRP800  GLU811  SER814 

> <Gold.Protein.RotatedAtoms>
  150.8099  133.8442  159.3187 H   0  0  0  0  0  0  0  0  0  0  0  0  # atno 6907 bound_to 6896
  151.6230  135.1028  160.0115 H   0  0  0  0  0  0  0  0  0  0  0  0  # atno 6908 bound_to 6896
  152.4190  133.7045  159.6500 H   0  0  0  0  0  0  0  0  0  0  0  0  # atno 6909 bound_to 6896
  144.7965  139.7199  143.6199 H   0  0  0  0  0  0  0  0  0  0  0  0  # atno 7974 bound_to 7965
  154.5424  140.0742  156.8532 H   0  0  0  0  0  0  0  0  0  0  0  0  # atno 8008 bound_to 7997
  155.3154  140.3393  155.4224 H   0  0  0  0  0  0  0  0  0  0  0  0  # atno 8009 bound_to 7997
  156.1887  140.1678  156.8121 H   0  0  0  0  0  0  0  0  0  0  0  0  # atno 8010 bound_to 7997
  139.8328  144.6679  150.9379 H   0  0  0  0  0  0  0  0  0  0  0  0  # atno 10167 bound_to 10162
  156.9027  130.5727  149.5648 H   0  0  0  0  0  0  0  0  0  0  0  0  # atno 10718 bound_to 10713
  154.8243  135.4567  154.0871 H   0  0  0  0  0  0  0  0  0  0  0  0  # atno 10763 bound_to 10752
  153.2199  135.6892  153.8019 H   0  0  0  0  0  0  0  0  0  0  0  0  # atno 10764 bound_to 10752
  153.7440  135.3308  155.3286 H   0  0  0  0  0  0  0  0  0  0  0  0  # atno 10765 bound_to 10752
  139.9849  134.6683  156.0194 H   0  0  0  0  0  0  0  0  0  0  0  0  # atno 11005 bound_to 11000
  146.2235  139.5679  142.9603 LP  0  0  0  0  0  0  0  0  0  0  0  0  # atno 17320 bound_to 7965
  145.5659  141.0399  143.2200 LP  0  0  0  0  0  0  0  0  0  0  0  0  # atno 17321 bound_to 7965
  140.7805  143.3985  151.1189 LP  0  0  0  0  0  0  0  0  0  0  0  0  # atno 17342 bound_to 10162
  139.7637  143.8597  152.3106 LP  0  0  0  0  0  0  0  0  0  0  0  0  # atno 17343 bound_to 10162
  156.0574  130.5633  150.9120 LP  0  0  0  0  0  0  0  0  0  0  0  0  # atno 17370 bound_to 10713
  157.6016  131.0941  150.8951 LP  0  0  0  0  0  0  0  0  0  0  0  0  # atno 17371 bound_to 10713
  141.1516  133.6548  156.4031 LP  0  0  0  0  0  0  0  0  0  0  0  0  # atno 17394 bound_to 11000
  140.5021  134.6475  157.5252 LP  0  0  0  0  0  0  0  0  0  0  0  0  # atno 17395 bound_to 11000

$$$$
