AV-unprocessed.smi:394|AV-procd|sdf|2485|dock10
  -GOLD-   2262022423D 1   1.00000     0.00000
 Structure written by MMmdl.
 30 31  0  0  0  0  0  0  0  0  1 V2000
  150.4696  137.9584  158.7267 C   0  0  0  0  0  0  0  0  0  0  0  0
  151.6426  138.7910  158.9414 N   0  0  0  0  0  0  0  0  0  0  0  0
  152.7460  138.3933  159.5954 C   0  0  0  0  0  0  0  0  0  0  0  0
  152.8611  137.2663  160.0758 O   0  0  0  0  0  0  0  0  0  0  0  0
  153.9089  139.3907  159.7478 C   0  0  0  0  0  0  0  0  0  0  0  0
  153.5379  140.7092  160.3130 N   0  0  0  0  0  0  0  0  0  0  0  0
  153.9874  141.0423  161.6167 C   0  0  0  0  0  0  0  0  0  0  0  0
  154.6917  140.2652  162.2632 O   0  0  0  0  0  0  0  0  0  0  0  0
  153.5604  142.3477  162.1154 C   0  0  0  0  0  0  0  0  0  0  0  0
  153.9509  142.6987  163.4407 C   0  0  0  0  0  0  0  0  0  0  0  0
  154.2455  142.9750  164.5253 N   0  0  0  0  0  0  0  0  0  0  0  0
  152.8238  143.1774  161.3482 C   0  0  0  0  0  0  0  0  0  0  0  0
  152.4470  142.8584  160.0620 N   0  0  0  0  0  0  0  0  0  0  0  0
  151.5459  143.6923  159.3173 C   0  0  0  0  0  0  0  0  0  0  0  0
  151.8369  144.0335  157.8686 C   0  0  0  0  0  0  0  0  0  0  0  0
  151.9847  145.0895  158.9366 C   0  0  0  0  0  0  0  0  0  0  0  0
  152.7550  141.5890  159.5261 C   0  0  0  0  0  0  0  0  0  0  0  0
  152.3569  141.2547  158.4075 O   0  0  0  0  0  0  0  0  0  0  0  0
  149.7223  138.5099  158.1564 H   0  0  0  0  0  0  0  0  0  0  0  0
  150.0239  137.6641  159.6777 H   0  0  0  0  0  0  0  0  0  0  0  0
  150.7288  137.0578  158.1686 H   0  0  0  0  0  0  0  0  0  0  0  0
  151.6157  139.7307  158.5733 H   0  0  0  0  0  0  0  0  0  0  0  0
  154.6830  138.9152  160.3522 H   0  0  0  0  0  0  0  0  0  0  0  0
  154.3820  139.5052  158.7713 H   0  0  0  0  0  0  0  0  0  0  0  0
  152.5222  144.1333  161.7522 H   0  0  0  0  0  0  0  0  0  0  0  0
  150.4938  143.5808  159.5740 H   0  0  0  0  0  0  0  0  0  0  0  0
  152.7516  143.6494  157.4209 H   0  0  0  0  0  0  0  0  0  0  0  0
  150.9873  144.1150  157.1939 H   0  0  0  0  0  0  0  0  0  0  0  0
  151.2347  145.8771  158.9713 H   0  0  0  0  0  0  0  0  0  0  0  0
  152.9962  145.3985  159.1929 H   0  0  0  0  0  0  0  0  0  0  0  0
  1  2  1  0  0  0  0
  1 19  1  0  0  0  0
  1 20  1  0  0  0  0
  1 21  1  0  0  0  0
  2  3  1  0  0  0  0
  2 22  1  0  0  0  0
  3  4  2  0  0  0  0
  3  5  1  0  0  0  0
  5  6  1  0  0  0  0
  5 23  1  0  0  0  0
  5 24  1  0  0  0  0
  6 17  1  0  0  0  0
  6  7  1  0  0  0  0
  7  8  2  0  0  0  0
  7  9  1  0  0  0  0
  9 10  1  0  0  0  0
  9 12  2  0  0  0  0
 10 11  3  0  0  0  0
 12 13  1  0  0  0  0
 12 25  1  0  0  0  0
 13 14  1  0  0  0  0
 13 17  1  0  0  0  0
 14 16  1  0  0  0  0
 14 15  1  0  0  0  0
 14 26  1  0  0  0  0
 15 16  1  0  0  0  0
 15 27  1  0  0  0  0
 15 28  1  0  0  0  0
 16 29  1  0  0  0  0
 16 30  1  0  0  0  0
 17 18  2  0  0  0  0
M  END
> <s_m_source_file>
AV-unprocessed.smi

> <i_m_source_file_index>
394

> <i_lp_mmshare_version>
43012

> <i_f3d_flags>
0

> <s_epik_input>
W0NIM11bTkhdQyg9TylbQ0gyXW4xYyg9TyljKEMjTilbY0hdbihjMT1PKVtDSF0yW0NIMl1bQ0gyXTI=

> <s_epik_cmdline>
J2VwaWtfcHl0aG9uJywgJy1waCcsICc3LjAnLCAnLXRuJywgJzgnLCAnLW1hJywgJzIwMCcsICctbWV0YWxfYmluZGluZycsICctaW1hZScsICc8aW5maWxlLm1hZT4nLCAnLW9tYWUnLCAnPG91dGZpbGUubWFlPic=

> <r_lp_tautomer_probability>
1

> <r_epik_Ionization_Penalty>
1.93483e-08

> <r_epik_Ionization_Penalty_Charging>
8.13451e-11

> <r_epik_Ionization_Penalty_Neutral>
1.9267e-08

> <r_epik_State_Penalty>
-0

> <r_epik_Charging_Adjusted_Penalty>
8.13451e-11

> <i_epik_Tot_Q>
0

> <i_epik_Tot_abs_Q>
0

> <r_epik_Metal_State_Penalty>
-0

> <b_epik_Metal_Only>
0

> <s_lp_Force_Field>
OPLS_2005

> <r_lp_Energy>
29.0516

> <b_lp_Chiralities_Consistent>
1

> <s_lp_Variant>
AV-unprocessed.smi:394-1

> <Gold.Version>
5.8.1

> <Gold.Id.Protein>
6NUR|6NUR_protein|mol2

> <Gold.PLP.Fitness>
44.7882

> <Gold.PLP.PLP>
-44.4153

> <Gold.PLP.part.hbond>
-0.6515

> <Gold.PLP.part.metal>
0.0000

> <Gold.PLP.part.buried>
-6.3544

> <Gold.PLP.part.nonpolar>
-37.3385

> <Gold.PLP.part.repulsive>
0.1577

> <Gold.PLP.ligand.clash>
0.0000

> <Gold.PLP.ligand.torsion>
0.2781

> <Gold.PLP.Chemscore.Hbond>
0.2438

> <Gold.PLP.Chemscore.CHOScore>
0.0000

> <Gold.PLP.Chemscore.Metal>
0.0000

> <Gold.Chemscore.Hbonds>
donor molecule, donor type, donor heavy atom, donor atom, acceptor molecule, acceptor atom, score
      P1  H  6896  6908       L1     4  0.18

> <Gold.PLP.Chemscore.Internal.Correction>
0.1980

> <Gold.Rescore>
     Score         DG    S(hbond)    S(metal)    S(lipo)     H(rot)  DE(clash)    DE(int)     intcor
     10.36     -12.65       1.00        0.00      70.77       1.73       0.02       2.27       ----

> <Gold.Chemscore.Fitness>
10.3629

> <Gold.Chemscore.DG>
-12.6523

> <Gold.Chemscore.ZeroCoef>
-5.4800

> <Gold.Chemscore.Hbond>
0.9953

> <Gold.Chemscore.Metal>
0.0000

> <Gold.Chemscore.Lipo>
70.7688

> <Gold.Chemscore.Internal_Hbond>
0.0000

> <Gold.Chemscore.DEClash>
0.0202

> <Gold.Chemscore.DEInternal>
2.2692

> <Gold.Chemscore.Rot>
1.7313

> <Gold.Chemscore.Internal.Correction>
   9.000000E+99

> <Gold.Chemscore.Hbonds>
donor molecule, donor type, donor heavy atom, donor atom, acceptor molecule, acceptor atom, score
      P1  H  6896  6908       L1     4  0.19

> <Gold.Chemscore.Hbond.Weighted>
-3.3244

> <Gold.Chemscore.Metal.Weighted>
-0.0000

> <Gold.Chemscore.Lipo.Weighted>
-8.2799

> <Gold.Chemscore.Internal_Hbond.Weighted>
0.0000

> <Gold.Chemscore.DEClash.Weighted>
0.0202

> <Gold.Chemscore.DEInternal.Weighted>
2.2692

> <Gold.Chemscore.Rot.Weighted>
4.4320

> <Gold.Chemscore.Internal.Correction.Weighted>
   9.000000E+99

> <Gold.Protein.RotatedTorsions>
[ 6907 6896 6895 6894 ] final  -98.07 input  -60.11 | X-H torsion
[ 7974 7965 7964 7962 ] final  -32.57 input  175.53 | X-H torsion
[ 8008 7997 7996 7995 ] final   36.56 input   59.86 | X-H torsion
[ 10167 10162 10161 10158 ] final  -91.36 input  -65.29 | X-H torsion
[ 10718 10713 10712 10709 ] final   25.22 input   66.30 | X-H torsion
[ 10763 10752 10751 10750 ] final  150.41 input  -60.55 | X-H torsion
[ 11005 11000 10999 10996 ] final   87.08 input  -57.11 | X-H torsion

> <Gold.Protein.ActiveResidues>
 VAL166  LYS551  ARG553  GLY616  TRP617  ASP618  TYR619  PRO620  LYS621  CYS622 
 ASP623  PHE694  ASN695  SER759  ASP760  ASP761  ALA762  ILE779  LEU786  VAL792 
 PHE793  MET794  SER795  GLU796  ALA797  LYS798  CYS799  TRP800  GLU811  SER814 

> <Gold.Protein.RotatedAtoms>
  150.7035  134.1252  159.4049 H   0  0  0  0  0  0  0  0  0  0  0  0  # atno 6907 bound_to 6896
  151.9238  135.0284  160.0533 H   0  0  0  0  0  0  0  0  0  0  0  0  # atno 6908 bound_to 6896
  152.2234  133.4966  159.5212 H   0  0  0  0  0  0  0  0  0  0  0  0  # atno 6909 bound_to 6896
  146.0979  140.5809  142.8834 H   0  0  0  0  0  0  0  0  0  0  0  0  # atno 7974 bound_to 7965
  155.1894  140.3306  155.4361 H   0  0  0  0  0  0  0  0  0  0  0  0  # atno 8008 bound_to 7997
  156.2448  140.1913  156.6938 H   0  0  0  0  0  0  0  0  0  0  0  0  # atno 8009 bound_to 7997
  154.6216  140.0594  156.9608 H   0  0  0  0  0  0  0  0  0  0  0  0  # atno 8010 bound_to 7997
  140.3457  143.2918  151.9784 H   0  0  0  0  0  0  0  0  0  0  0  0  # atno 10167 bound_to 10162
  157.1904  130.6843  149.6147 H   0  0  0  0  0  0  0  0  0  0  0  0  # atno 10718 bound_to 10713
  154.0871  135.2855  155.3279 H   0  0  0  0  0  0  0  0  0  0  0  0  # atno 10763 bound_to 10752
  154.6645  135.5322  153.8063 H   0  0  0  0  0  0  0  0  0  0  0  0  # atno 10764 bound_to 10752
  153.0427  135.6542  154.1042 H   0  0  0  0  0  0  0  0  0  0  0  0  # atno 10765 bound_to 10752
  139.8928  134.8398  156.2809 H   0  0  0  0  0  0  0  0  0  0  0  0  # atno 11005 bound_to 11000
  144.7410  140.4941  143.6869 LP  0  0  0  0  0  0  0  0  0  0  0  0  # atno 17320 bound_to 7965
  145.5912  139.1496  143.3181 LP  0  0  0  0  0  0  0  0  0  0  0  0  # atno 17321 bound_to 7965
  139.4833  144.6119  151.7418 LP  0  0  0  0  0  0  0  0  0  0  0  0  # atno 17342 bound_to 10162
  140.5267  144.0795  150.6040 LP  0  0  0  0  0  0  0  0  0  0  0  0  # atno 17343 bound_to 10162
  155.9712  130.4616  150.6117 LP  0  0  0  0  0  0  0  0  0  0  0  0  # atno 17370 bound_to 10713
  157.3866  131.0789  151.1430 LP  0  0  0  0  0  0  0  0  0  0  0  0  # atno 17371 bound_to 10713
  141.0039  133.7135  156.1004 LP  0  0  0  0  0  0  0  0  0  0  0  0  # atno 17394 bound_to 11000
  140.7460  134.4097  157.5548 LP  0  0  0  0  0  0  0  0  0  0  0  0  # atno 17395 bound_to 11000

$$$$
