AV-unprocessed.smi:2009|AV-procd|sdf|8145|dock2
  -GOLD-   2272010383D 1   1.00000     0.00000
 Structure written by MMmdl.
 38 39  0  0  0  0  0  0  0  0  1 V2000
  152.8500  140.7736  159.4023 C   0  0  0  0  0  0  0  0  0  0  0  0
  152.2023  140.9467  158.0200 C   0  0  2  0  0  0  0  0  0  0  0  0
  151.0715  142.0004  157.9986 C   0  0  0  0  0  0  0  0  0  0  0  0
  151.4514  143.2759  158.5845 N   0  0  0  0  0  0  0  0  0  0  0  0
  151.4354  144.5242  157.9977 C   0  0  0  0  0  0  0  0  0  0  0  0
  151.8771  145.4183  158.9301 C   0  0  0  0  0  0  0  0  0  0  0  0
  152.1480  144.6108  160.0698 C   0  0  0  0  0  0  0  0  0  0  0  0
  151.8952  143.3290  159.8596 N   0  0  0  0  0  0  0  0  0  0  0  0
  151.7157  139.6442  157.5550 N   0  0  0  0  0  0  0  0  0  0  0  0
  151.7289  139.2584  155.8736 S   0  0  0  0  0  0  0  0  0  0  0  0
  150.8189  140.1721  155.1661 O   0  0  0  0  0  0  0  0  0  0  0  0
  153.1311  139.1130  155.4538 O   0  0  0  0  0  0  0  0  0  0  0  0
  150.9919  137.6920  155.9391 N   0  0  0  0  0  0  0  0  0  0  0  0
  150.9957  136.9048  154.6898 C   0  0  0  0  0  0  0  0  0  0  0  0
  150.6586  135.4273  154.9509 C   0  0  0  0  0  0  0  0  0  0  0  0
  149.3318  135.2845  155.7011 C   0  0  0  0  0  0  0  0  0  0  0  0
  149.3996  136.0905  157.0010 C   0  0  0  0  0  0  0  0  0  0  0  0
  149.7460  137.5630  156.7261 C   0  0  0  0  0  0  0  0  0  0  0  0
  153.2145  141.7273  159.7843 H   0  0  0  0  0  0  0  0  0  0  0  0
  153.7001  140.0925  159.3535 H   0  0  0  0  0  0  0  0  0  0  0  0
  152.1467  140.3698  160.1312 H   0  0  0  0  0  0  0  0  0  0  0  0
  152.9823  141.2766  157.3328 H   0  0  0  0  0  0  0  0  0  0  0  0
  150.7518  142.1734  156.9698 H   0  0  0  0  0  0  0  0  0  0  0  0
  150.1900  141.6321  158.5230 H   0  0  0  0  0  0  0  0  0  0  0  0
  151.1113  144.6691  156.9774 H   0  0  0  0  0  0  0  0  0  0  0  0
  151.9908  146.4860  158.8154 H   0  0  0  0  0  0  0  0  0  0  0  0
  152.5196  144.9157  161.0370 H   0  0  0  0  0  0  0  0  0  0  0  0
  152.0180  138.8650  158.1392 H   0  0  0  0  0  0  0  0  0  0  0  0
  150.2782  137.3419  153.9942 H   0  0  0  0  0  0  0  0  0  0  0  0
  151.9756  136.9718  154.2169 H   0  0  0  0  0  0  0  0  0  0  0  0
  150.6121  134.8850  154.0062 H   0  0  0  0  0  0  0  0  0  0  0  0
  151.4594  134.9677  155.5316 H   0  0  0  0  0  0  0  0  0  0  0  0
  148.5104  135.6446  155.0805 H   0  0  0  0  0  0  0  0  0  0  0  0
  149.1299  134.2349  155.9164 H   0  0  0  0  0  0  0  0  0  0  0  0
  148.4475  136.0261  157.5286 H   0  0  0  0  0  0  0  0  0  0  0  0
  150.1498  135.6568  157.6634 H   0  0  0  0  0  0  0  0  0  0  0  0
  149.8449  138.0914  157.6739 H   0  0  0  0  0  0  0  0  0  0  0  0
  148.9335  138.0467  156.1824 H   0  0  0  0  0  0  0  0  0  0  0  0
  1  2  1  0  0  0  0
  1 19  1  0  0  0  0
  1 20  1  0  0  0  0
  1 21  1  0  0  0  0
  2  3  1  0  0  0  0
  2  9  1  0  0  0  0
  2 22  1  0  0  0  0
  3  4  1  0  0  0  0
  3 23  1  0  0  0  0
  3 24  1  0  0  0  0
  4  8  1  0  0  0  0
  4  5  1  0  0  0  0
  5  6  2  0  0  0  0
  5 25  1  0  0  0  0
  6  7  1  0  0  0  0
  6 26  1  0  0  0  0
  7  8  2  0  0  0  0
  7 27  1  0  0  0  0
  9 10  1  0  0  0  0
  9 28  1  0  0  0  0
 10 11  2  0  0  0  0
 10 12  2  0  0  0  0
 10 13  1  0  0  0  0
 13 18  1  0  0  0  0
 13 14  1  0  0  0  0
 14 15  1  0  0  0  0
 14 29  1  0  0  0  0
 14 30  1  0  0  0  0
 15 16  1  0  0  0  0
 15 31  1  0  0  0  0
 15 32  1  0  0  0  0
 16 17  1  0  0  0  0
 16 33  1  0  0  0  0
 16 34  1  0  0  0  0
 17 18  1  0  0  0  0
 17 35  1  0  0  0  0
 17 36  1  0  0  0  0
 18 37  1  0  0  0  0
 18 38  1  0  0  0  0
M  END
> <s_m_source_file>
AV-unprocessed.smi

> <i_m_source_file_index>
2009

> <i_lp_mmshare_version>
43012

> <i_f3d_flags>
0

> <s_epik_input>
bjFbY0hdW2NIXVtjSF1uMVtDSDJdW0NAQEhdKFtDSDNdKVtOSF1TKD1PKSg9TylOMltDSDJdW0NIMl1bQ0gyXVtDSDJdW0NIMl0y

> <s_epik_cmdline>
J2VwaWtfcHl0aG9uJywgJy1waCcsICc3LjAnLCAnLXRuJywgJzgnLCAnLW1hJywgJzIwMCcsICctbWV0YWxfYmluZGluZycsICctaW1hZScsICc8aW5maWxlLm1hZT4nLCAnLW9tYWUnLCAnPG91dGZpbGUubWFlPic=

> <r_lp_tautomer_probability>
1

> <r_epik_Ionization_Penalty>
0.0313937

> <r_epik_Ionization_Penalty_Charging>
0

> <r_epik_Ionization_Penalty_Neutral>
0.0313937

> <r_epik_State_Penalty>
0.0259441

> <r_epik_Charging_Adjusted_Penalty>
0.0259441

> <i_epik_Tot_Q>
0

> <i_epik_Tot_abs_Q>
0

> <r_epik_Metal_State_Penalty>
0.365037

> <b_epik_Metal_Only>
0

> <s_lp_Force_Field>
OPLS_2005

> <r_lp_Energy>
7.7354

> <b_lp_Chiralities_Consistent>
1

> <s_lp_Variant>
AV-unprocessed.smi:2009-1

> <Gold.Version>
5.8.1

> <Gold.Id.Protein>
6NUR|6NUR_protein|mol2

> <Gold.PLP.Fitness>
40.1909

> <Gold.PLP.PLP>
-32.0178

> <Gold.PLP.part.hbond>
-2.0000

> <Gold.PLP.part.metal>
0.0000

> <Gold.PLP.part.buried>
-5.3837

> <Gold.PLP.part.nonpolar>
-25.0107

> <Gold.PLP.part.repulsive>
0.0676

> <Gold.PLP.ligand.clash>
0.0000

> <Gold.PLP.ligand.torsion>
0.8043

> <Gold.PLP.Chemscore.Hbond>
2.0000

> <Gold.PLP.Chemscore.CHOScore>
1.0000

> <Gold.PLP.Chemscore.Metal>
0.0000

> <Gold.Chemscore.Hbonds>
donor molecule, donor type, donor heavy atom, donor atom, acceptor molecule, acceptor atom, score
      P1  H  7989  7998       L1    11  1.00
      P1  H  7997  8010       L1    12  1.00
      L1  C     5    25       P1  8028  0.96

> <Gold.PLP.Chemscore.Internal.Correction>
0.7818

> <Gold.Rescore>
     Score         DG    S(hbond)    S(metal)    S(lipo)     H(rot)  DE(clash)    DE(int)     intcor
     14.38     -16.49       1.93        0.00      79.07       1.82       0.02       2.09       ----

> <Gold.Chemscore.Fitness>
14.3831

> <Gold.Chemscore.DG>
-16.4946

> <Gold.Chemscore.ZeroCoef>
-5.4800

> <Gold.Chemscore.Hbond>
1.9257

> <Gold.Chemscore.Metal>
0.0000

> <Gold.Chemscore.Lipo>
79.0715

> <Gold.Chemscore.Internal_Hbond>
0.0000

> <Gold.Chemscore.DEClash>
0.0247

> <Gold.Chemscore.DEInternal>
2.0867

> <Gold.Chemscore.Rot>
1.8237

> <Gold.Chemscore.Internal.Correction>
   9.000000E+99

> <Gold.Chemscore.Hbonds>
donor molecule, donor type, donor heavy atom, donor atom, acceptor molecule, acceptor atom, score
      P1  H  7989  7998       L1    11  0.79
      P1  H  7997  8010       L1    12  0.93

> <Gold.Chemscore.Hbond.Weighted>
-6.4317

> <Gold.Chemscore.Metal.Weighted>
-0.0000

> <Gold.Chemscore.Lipo.Weighted>
-9.2514

> <Gold.Chemscore.Internal_Hbond.Weighted>
0.0000

> <Gold.Chemscore.DEClash.Weighted>
0.0247

> <Gold.Chemscore.DEInternal.Weighted>
2.0867

> <Gold.Chemscore.Rot.Weighted>
4.6686

> <Gold.Chemscore.Internal.Correction.Weighted>
   9.000000E+99

> <Gold.Protein.RotatedTorsions>
[ 6907 6896 6895 6894 ] final  128.26 input  -60.11 | X-H torsion
[ 7974 7965 7964 7962 ] final   74.25 input  175.53 | X-H torsion
[ 8008 7997 7996 7995 ] final   79.53 input   59.86 | X-H torsion
[ 10167 10162 10161 10158 ] final  -66.69 input  -65.29 | X-H torsion
[ 10718 10713 10712 10709 ] final  -10.14 input   66.30 | X-H torsion
[ 10763 10752 10751 10750 ] final -141.22 input  -60.55 | X-H torsion
[ 11005 11000 10999 10996 ] final   87.10 input  -57.11 | X-H torsion

> <Gold.Protein.ActiveResidues>
 VAL166  LYS551  ARG553  GLY616  TRP617  ASP618  TYR619  PRO620  LYS621  CYS622 
 ASP623  PHE694  ASN695  SER759  ASP760  ASP761  ALA762  ILE779  LEU786  VAL792 
 PHE793  MET794  SER795  GLU796  ALA797  LYS798  CYS799  TRP800  GLU811  SER814 

> <Gold.Protein.RotatedAtoms>
  152.3736  133.6452  159.6106 H   0  0  0  0  0  0  0  0  0  0  0  0  # atno 6907 bound_to 6896
  150.7687  133.9229  159.3412 H   0  0  0  0  0  0  0  0  0  0  0  0  # atno 6908 bound_to 6896
  151.7048  135.0925  160.0308 H   0  0  0  0  0  0  0  0  0  0  0  0  # atno 6909 bound_to 6896
  145.7306  139.2682  143.1543 H   0  0  0  0  0  0  0  0  0  0  0  0  # atno 7974 bound_to 7965
  155.8709  140.3449  155.5821 H   0  0  0  0  0  0  0  0  0  0  0  0  # atno 8008 bound_to 7997
  155.7828  140.0861  157.2069 H   0  0  0  0  0  0  0  0  0  0  0  0  # atno 8009 bound_to 7997
  154.4017  140.1497  156.3059 H   0  0  0  0  0  0  0  0  0  0  0  0  # atno 8010 bound_to 7997
  140.5638  143.2314  151.6675 H   0  0  0  0  0  0  0  0  0  0  0  0  # atno 10167 bound_to 10162
  156.6778  130.5028  149.5980 H   0  0  0  0  0  0  0  0  0  0  0  0  # atno 10718 bound_to 10713
  154.8552  135.3530  154.5833 H   0  0  0  0  0  0  0  0  0  0  0  0  # atno 10763 bound_to 10752
  153.6444  135.6997  153.5235 H   0  0  0  0  0  0  0  0  0  0  0  0  # atno 10764 bound_to 10752
  153.2945  135.4225  155.1155 H   0  0  0  0  0  0  0  0  0  0  0  0  # atno 10765 bound_to 10752
  139.8928  134.8400  156.2813 H   0  0  0  0  0  0  0  0  0  0  0  0  # atno 11005 bound_to 11000
  146.0541  140.8039  142.9767 LP  0  0  0  0  0  0  0  0  0  0  0  0  # atno 17320 bound_to 7965
  144.6894  140.3097  143.7250 LP  0  0  0  0  0  0  0  0  0  0  0  0  # atno 17321 bound_to 7965
  139.5083  144.3616  152.0557 LP  0  0  0  0  0  0  0  0  0  0  0  0  # atno 17342 bound_to 10162
  140.2745  144.3927  150.6140 LP  0  0  0  0  0  0  0  0  0  0  0  0  # atno 17343 bound_to 10162
  156.1890  130.6548  151.1040 LP  0  0  0  0  0  0  0  0  0  0  0  0  # atno 17370 bound_to 10713
  157.7054  131.0758  150.6683 LP  0  0  0  0  0  0  0  0  0  0  0  0  # atno 17371 bound_to 10713
  141.0037  133.7136  156.1000 LP  0  0  0  0  0  0  0  0  0  0  0  0  # atno 17394 bound_to 11000
  140.7463  134.4094  157.5548 LP  0  0  0  0  0  0  0  0  0  0  0  0  # atno 17395 bound_to 11000

$$$$
