AV-unprocessed.smi:949|AV-procd|sdf|4249|dock2
  -GOLD-   22720 2153D 1   1.00000     0.00000
 Structure written by MMmdl.
 32 33  0  0  0  0  0  0  0  0  1 V2000
  151.5372  140.4137  156.0025 C   0  0  0  0  0  0  0  0  0  0  0  0
  150.2405  141.1800  156.3245 C   0  0  1  0  0  0  0  0  0  0  0  0
  150.5539  142.5033  156.8512 N   0  0  0  0  0  0  0  0  0  0  0  0
  151.3027  142.7029  158.0246 C   0  0  0  0  0  0  0  0  0  0  0  0
  151.9603  141.6493  158.7032 C   0  0  0  0  0  0  0  0  0  0  0  0
  152.6867  141.9414  159.8743 C   0  0  0  0  0  0  0  0  0  0  0  0
  152.7932  143.1812  160.3936 N   0  0  0  0  0  0  0  0  0  0  0  0
  152.1669  144.1864  159.7483 C   0  0  0  0  0  0  0  0  0  0  0  0
  151.4140  144.0066  158.5686 C   0  0  0  0  0  0  0  0  0  0  0  0
  150.8006  145.1100  157.9697 N   0  0  0  0  0  0  0  0  0  0  0  0
  149.3417  141.3208  155.0807 C   0  0  1  0  0  0  0  0  0  0  0  0
  148.8468  139.9986  154.4912 C   0  0  0  0  0  0  0  0  0  0  0  0
  147.5621  140.3820  153.7735 C   0  0  0  0  0  0  0  0  0  0  0  0
  147.2136  141.7584  154.3456 C   0  0  0  0  0  0  0  0  0  0  0  0
  148.1167  141.9509  155.4250 O   0  0  0  0  0  0  0  0  0  0  0  0
  151.3263  139.3996  155.6634 H   0  0  0  0  0  0  0  0  0  0  0  0
  152.1844  140.3299  156.8753 H   0  0  0  0  0  0  0  0  0  0  0  0
  152.1067  140.9144  155.2187 H   0  0  0  0  0  0  0  0  0  0  0  0
  149.6764  140.6252  157.0744 H   0  0  0  0  0  0  0  0  0  0  0  0
  150.1154  143.3011  156.4147 H   0  0  0  0  0  0  0  0  0  0  0  0
  151.9250  140.6298  158.3519 H   0  0  0  0  0  0  0  0  0  0  0  0
  153.1974  141.1543  160.4092 H   0  0  0  0  0  0  0  0  0  0  0  0
  152.2712  145.1673  160.1892 H   0  0  0  0  0  0  0  0  0  0  0  0
  150.2547  145.0152  157.1251 H   0  0  0  0  0  0  0  0  0  0  0  0
  150.9353  146.0454  158.3251 H   0  0  0  0  0  0  0  0  0  0  0  0
  149.8408  141.9088  154.3073 H   0  0  0  0  0  0  0  0  0  0  0  0
  149.5762  139.5324  153.8281 H   0  0  0  0  0  0  0  0  0  0  0  0
  148.6194  139.2924  155.2909 H   0  0  0  0  0  0  0  0  0  0  0  0
  147.7111  140.4423  152.6949 H   0  0  0  0  0  0  0  0  0  0  0  0
  146.7749  139.6519  153.9641 H   0  0  0  0  0  0  0  0  0  0  0  0
  147.3755  142.5365  153.5983 H   0  0  0  0  0  0  0  0  0  0  0  0
  146.1797  141.8221  154.6848 H   0  0  0  0  0  0  0  0  0  0  0  0
  1  2  1  0  0  0  0
  1 16  1  0  0  0  0
  1 17  1  0  0  0  0
  1 18  1  0  0  0  0
  2  3  1  0  0  0  0
  2 11  1  0  0  0  0
  2 19  1  0  0  0  0
  3  4  1  0  0  0  0
  3 20  1  0  0  0  0
  4  9  1  0  0  0  0
  4  5  2  0  0  0  0
  5  6  1  0  0  0  0
  5 21  1  0  0  0  0
  6  7  2  0  0  0  0
  6 22  1  0  0  0  0
  7  8  1  0  0  0  0
  8  9  2  0  0  0  0
  8 23  1  0  0  0  0
  9 10  1  0  0  0  0
 10 24  1  0  0  0  0
 10 25  1  0  0  0  0
 11 15  1  0  0  0  0
 11 12  1  0  0  0  0
 11 26  1  0  0  0  0
 12 13  1  0  0  0  0
 12 27  1  0  0  0  0
 12 28  1  0  0  0  0
 13 14  1  0  0  0  0
 13 29  1  0  0  0  0
 13 30  1  0  0  0  0
 14 15  1  0  0  0  0
 14 31  1  0  0  0  0
 14 32  1  0  0  0  0
M  END
> <s_m_source_file>
AV-unprocessed.smi

> <i_m_source_file_index>
949

> <i_lp_mmshare_version>
43012

> <i_f3d_flags>
0

> <s_epik_input>
TzFbQ0gyXVtDSDJdW0NIMl1bQ0BIXTFbQ0BIXShbQ0gzXSlbTkhdYzJbY0hdW2NIXW5bY0hdYzJbTkgyXQ==

> <s_epik_cmdline>
J2VwaWtfcHl0aG9uJywgJy1waCcsICc3LjAnLCAnLXRuJywgJzgnLCAnLW1hJywgJzIwMCcsICctbWV0YWxfYmluZGluZycsICctaW1hZScsICc8aW5maWxlLm1hZT4nLCAnLW9tYWUnLCAnPG91dGZpbGUubWFlPic=

> <r_epik_Ionization_Penalty>
3.88091

> <r_epik_Ionization_Penalty_Charging>
0

> <r_epik_Ionization_Penalty_Neutral>
3.88091

> <r_epik_State_Penalty>
3.88049

> <r_epik_Charging_Adjusted_Penalty>
3.88049

> <i_epik_Tot_Q>
0

> <i_epik_Tot_abs_Q>
0

> <r_epik_Metal_State_Penalty>
0.313783

> <b_epik_Metal_Only>
1

> <s_lp_Force_Field>
OPLS_2005

> <r_lp_Energy>
24.4145

> <b_lp_Chiralities_Consistent>
1

> <s_lp_Variant>
AV-unprocessed.smi:949-8

> <Gold.Version>
5.8.1

> <Gold.Id.Protein>
6NUR|6NUR_protein|mol2

> <Gold.PLP.Fitness>
38.5946

> <Gold.PLP.PLP>
-33.0842

> <Gold.PLP.part.hbond>
-3.0000

> <Gold.PLP.part.metal>
0.0000

> <Gold.PLP.part.buried>
-3.3177

> <Gold.PLP.part.nonpolar>
-28.5847

> <Gold.PLP.part.repulsive>
1.6296

> <Gold.PLP.ligand.clash>
0.0024

> <Gold.PLP.ligand.torsion>
0.0322

> <Gold.PLP.Chemscore.Hbond>
1.8500

> <Gold.PLP.Chemscore.CHOScore>
0.0000

> <Gold.PLP.Chemscore.Metal>
0.0000

> <Gold.Chemscore.Hbonds>
donor molecule, donor type, donor heavy atom, donor atom, acceptor molecule, acceptor atom, score
      L1  H     3    20       P1  8028  1.00
      L1  H    10    24       P1  8028  0.90

> <Gold.PLP.Chemscore.Internal.Correction>
0.0271

> <Gold.Rescore>
     Score         DG    S(hbond)    S(metal)    S(lipo)     H(rot)  DE(clash)    DE(int)     intcor
     17.29     -19.27       1.73        0.00      95.20       1.22       1.88       0.10       ----

> <Gold.Chemscore.Fitness>
17.2919

> <Gold.Chemscore.DG>
-19.2715

> <Gold.Chemscore.ZeroCoef>
-5.4800

> <Gold.Chemscore.Hbond>
1.7270

> <Gold.Chemscore.Metal>
0.0000

> <Gold.Chemscore.Lipo>
95.2006

> <Gold.Chemscore.Internal_Hbond>
0.0000

> <Gold.Chemscore.DEClash>
1.8803

> <Gold.Chemscore.DEInternal>
0.0993

> <Gold.Chemscore.Rot>
1.2169

> <Gold.Chemscore.Internal.Correction>
   9.000000E+99

> <Gold.Chemscore.Hbonds>
donor molecule, donor type, donor heavy atom, donor atom, acceptor molecule, acceptor atom, score
      L1  H     3    20       P1  8028  0.94
      L1  H    10    24       P1  8028  0.17

> <Gold.Chemscore.Hbond.Weighted>
-5.7682

> <Gold.Chemscore.Metal.Weighted>
-0.0000

> <Gold.Chemscore.Lipo.Weighted>
-11.1385

> <Gold.Chemscore.Internal_Hbond.Weighted>
0.0000

> <Gold.Chemscore.DEClash.Weighted>
1.8803

> <Gold.Chemscore.DEInternal.Weighted>
0.0993

> <Gold.Chemscore.Rot.Weighted>
3.1152

> <Gold.Chemscore.Internal.Correction.Weighted>
   9.000000E+99

> <Gold.Protein.RotatedTorsions>
[ 6907 6896 6895 6894 ] final -121.06 input  -60.11 | X-H torsion
[ 7974 7965 7964 7962 ] final  -52.10 input  175.53 | X-H torsion
[ 8008 7997 7996 7995 ] final   68.42 input   59.86 | X-H torsion
[ 10167 10162 10161 10158 ] final  -51.27 input  -65.29 | X-H torsion
[ 10718 10713 10712 10709 ] final  130.82 input   66.30 | X-H torsion
[ 10763 10752 10751 10750 ] final  -22.31 input  -60.55 | X-H torsion
[ 11005 11000 10999 10996 ] final  167.11 input  -57.11 | X-H torsion

> <Gold.Protein.ActiveResidues>
 VAL166  LYS551  ARG553  GLY616  TRP617  ASP618  TYR619  PRO620  LYS621  CYS622 
 ASP623  PHE694  ASN695  SER759  ASP760  ASP761  ALA762  ILE779  LEU786  VAL792 
 PHE793  MET794  SER795  GLU796  ALA797  LYS798  CYS799  TRP800  GLU811  SER814 

> <Gold.Protein.RotatedAtoms>
  150.8449  133.7877  159.3046 H   0  0  0  0  0  0  0  0  0  0  0  0  # atno 6907 bound_to 6896
  151.5567  135.1065  159.9972 H   0  0  0  0  0  0  0  0  0  0  0  0  # atno 6908 bound_to 6896
  152.4505  133.7577  159.6785 H   0  0  0  0  0  0  0  0  0  0  0  0  # atno 6909 bound_to 6896
  145.9117  140.7910  142.9692 H   0  0  0  0  0  0  0  0  0  0  0  0  # atno 7974 bound_to 7965
  155.7081  140.3494  155.4962 H   0  0  0  0  0  0  0  0  0  0  0  0  # atno 8008 bound_to 7997
  155.9381  140.1096  157.1100 H   0  0  0  0  0  0  0  0  0  0  0  0  # atno 8009 bound_to 7997
  154.4097  140.1218  156.4877 H   0  0  0  0  0  0  0  0  0  0  0  0  # atno 8010 bound_to 7997
  140.6597  143.2626  151.4479 H   0  0  0  0  0  0  0  0  0  0  0  0  # atno 10167 bound_to 10162
  157.5026  131.1094  150.9405 H   0  0  0  0  0  0  0  0  0  0  0  0  # atno 10718 bound_to 10713
  153.6499  135.6981  153.5212 H   0  0  0  0  0  0  0  0  0  0  0  0  # atno 10763 bound_to 10752
  153.2715  135.4213  155.0991 H   0  0  0  0  0  0  0  0  0  0  0  0  # atno 10764 bound_to 10752
  154.8479  135.3579  154.6044 H   0  0  0  0  0  0  0  0  0  0  0  0  # atno 10765 bound_to 10752
  140.2734  134.7808  157.3695 H   0  0  0  0  0  0  0  0  0  0  0  0  # atno 11005 bound_to 11000
  144.6744  140.1836  143.7403 LP  0  0  0  0  0  0  0  0  0  0  0  0  # atno 17320 bound_to 7965
  145.8663  139.2249  143.1687 LP  0  0  0  0  0  0  0  0  0  0  0  0  # atno 17321 bound_to 7965
  139.5827  144.1673  152.1989 LP  0  0  0  0  0  0  0  0  0  0  0  0  # atno 17342 bound_to 10162
  140.1003  144.5545  150.6993 LP  0  0  0  0  0  0  0  0  0  0  0  0  # atno 17343 bound_to 10162
  157.0071  130.5622  149.5317 LP  0  0  0  0  0  0  0  0  0  0  0  0  # atno 17370 bound_to 10713
  156.0238  130.5333  150.8351 LP  0  0  0  0  0  0  0  0  0  0  0  0  # atno 17371 bound_to 10713
  140.1351  134.5044  155.8074 LP  0  0  0  0  0  0  0  0  0  0  0  0  # atno 17394 bound_to 11000
  141.2174  133.6804  156.7110 LP  0  0  0  0  0  0  0  0  0  0  0  0  # atno 17395 bound_to 11000

$$$$
