AV-unprocessed.smi:1580|AV-procd|sdf|6359|dock6
  -GOLD-   22720 6583D 1   1.00000     0.00000
 Structure written by MMmdl.
 37 38  0  0  0  0  0  0  0  0  1 V2000
  142.1660  146.5582  162.4270 C   0  0  0  0  0  0  0  0  0  0  0  0
  142.5459  144.8071  162.0138 S   0  0  0  0  0  0  0  0  0  0  0  0
  142.5448  144.0372  163.2677 O   0  0  0  0  0  0  0  0  0  0  0  0
  141.6694  144.3931  160.9070 O   0  0  0  0  0  0  0  0  0  0  0  0
  144.2231  144.8705  161.3940 C   0  0  0  0  0  0  0  0  0  0  0  0
  145.3119  144.6366  162.2571 C   0  0  0  0  0  0  0  0  0  0  0  0
  146.6128  144.7370  161.7284 C   0  0  0  0  0  0  0  0  0  0  0  0
  146.7738  145.0741  160.3609 C   0  0  0  0  0  0  0  0  0  0  0  0
  148.0243  145.2129  159.6966 N   0  0  0  0  0  0  0  0  0  0  0  0
  149.2644  144.9439  160.1408 C   0  0  0  0  0  0  0  0  0  0  0  0
  149.5499  144.5146  161.2579 O   0  0  0  0  0  0  0  0  0  0  0  0
  150.1797  145.2018  159.1965 N   0  0  0  0  0  0  0  0  0  0  0  0
  151.6195  145.0362  159.3607 C   0  0  0  0  0  0  0  0  0  0  0  0
  151.9839  143.5815  159.7005 C   0  0  1  0  0  0  0  0  0  0  0  0
  153.3231  143.1323  159.1191 C   0  0  0  0  0  0  0  0  0  0  0  0
  153.7060  142.0171  160.0646 C   0  0  0  0  0  0  0  0  0  0  0  0
  153.2342  142.5728  161.4048 C   0  0  0  0  0  0  0  0  0  0  0  0
  152.1217  143.4146  161.1105 O   0  0  0  0  0  0  0  0  0  0  0  0
  145.6072  145.3068  159.6005 C   0  0  0  0  0  0  0  0  0  0  0  0
  144.3556  145.2153  160.0960 N   0  0  0  0  0  0  0  0  0  0  0  0
  141.1504  146.6272  162.8158 H   0  0  0  0  0  0  0  0  0  0  0  0
  142.2535  147.1707  161.5298 H   0  0  0  0  0  0  0  0  0  0  0  0
  142.8685  146.9145  163.1801 H   0  0  0  0  0  0  0  0  0  0  0  0
  145.1614  144.3870  163.2969 H   0  0  0  0  0  0  0  0  0  0  0  0
  147.4470  144.5610  162.3879 H   0  0  0  0  0  0  0  0  0  0  0  0
  147.9653  145.5389  158.7432 H   0  0  0  0  0  0  0  0  0  0  0  0
  149.8618  145.5527  158.3050 H   0  0  0  0  0  0  0  0  0  0  0  0
  152.1358  145.3526  158.4529 H   0  0  0  0  0  0  0  0  0  0  0  0
  151.9557  145.7030  160.1550 H   0  0  0  0  0  0  0  0  0  0  0  0
  151.2052  142.8995  159.3550 H   0  0  0  0  0  0  0  0  0  0  0  0
  153.2482  142.8072  158.0811 H   0  0  0  0  0  0  0  0  0  0  0  0
  154.0586  143.9363  159.1743 H   0  0  0  0  0  0  0  0  0  0  0  0
  153.1530  141.1100  159.8169 H   0  0  0  0  0  0  0  0  0  0  0  0
  154.7712  141.7852  160.0492 H   0  0  0  0  0  0  0  0  0  0  0  0
  152.9636  141.7851  162.1081 H   0  0  0  0  0  0  0  0  0  0  0  0
  154.0160  143.1806  161.8618 H   0  0  0  0  0  0  0  0  0  0  0  0
  145.6792  145.5768  158.5569 H   0  0  0  0  0  0  0  0  0  0  0  0
  1  2  1  0  0  0  0
  1 21  1  0  0  0  0
  1 22  1  0  0  0  0
  1 23  1  0  0  0  0
  2  3  2  0  0  0  0
  2  4  2  0  0  0  0
  2  5  1  0  0  0  0
  5 20  1  0  0  0  0
  5  6  2  0  0  0  0
  6  7  1  0  0  0  0
  6 24  1  0  0  0  0
  7  8  2  0  0  0  0
  7 25  1  0  0  0  0
  8  9  1  0  0  0  0
  8 19  1  0  0  0  0
  9 10  1  0  0  0  0
  9 26  1  0  0  0  0
 10 11  2  0  0  0  0
 10 12  1  0  0  0  0
 12 13  1  0  0  0  0
 12 27  1  0  0  0  0
 13 14  1  0  0  0  0
 13 28  1  0  0  0  0
 13 29  1  0  0  0  0
 14 18  1  0  0  0  0
 14 15  1  0  0  0  0
 14 30  1  0  0  0  0
 15 16  1  0  0  0  0
 15 31  1  0  0  0  0
 15 32  1  0  0  0  0
 16 17  1  0  0  0  0
 16 33  1  0  0  0  0
 16 34  1  0  0  0  0
 17 18  1  0  0  0  0
 17 35  1  0  0  0  0
 17 36  1  0  0  0  0
 19 20  2  0  0  0  0
 19 37  1  0  0  0  0
M  END
> <s_m_source_file>
AV-unprocessed.smi

> <i_m_source_file_index>
1580

> <i_lp_mmshare_version>
43012

> <i_f3d_flags>
0

> <s_epik_input>
W0NIM11TKD1PKSg9TyljMVtjSF1bY0hdYyhbY0hdbjEpW05IXUMoPU8pW05IXVtDSDJdW0NAQEhdMltDSDJdW0NIMl1bQ0gyXU8y

> <s_epik_cmdline>
J2VwaWtfcHl0aG9uJywgJy1waCcsICc3LjAnLCAnLXRuJywgJzgnLCAnLW1hJywgJzIwMCcsICctbWV0YWxfYmluZGluZycsICctaW1hZScsICc8aW5maWxlLm1hZT4nLCAnLW9tYWUnLCAnPG91dGZpbGUubWFlPic=

> <r_lp_tautomer_probability>
1

> <r_epik_Ionization_Penalty>
3.28405e-05

> <r_epik_Ionization_Penalty_Charging>
0

> <r_epik_Ionization_Penalty_Neutral>
3.28405e-05

> <r_epik_State_Penalty>
-0

> <r_epik_Charging_Adjusted_Penalty>
0

> <i_epik_Tot_Q>
0

> <i_epik_Tot_abs_Q>
0

> <r_epik_Metal_State_Penalty>
-0

> <b_epik_Metal_Only>
0

> <s_lp_Force_Field>
OPLS_2005

> <r_lp_Energy>
18.5383

> <b_lp_Chiralities_Consistent>
1

> <s_lp_Variant>
AV-unprocessed.smi:1580-2

> <Gold.Version>
5.8.1

> <Gold.Id.Protein>
6NUR|6NUR_protein|mol2

> <Gold.PLP.Fitness>
48.1521

> <Gold.PLP.PLP>
-40.6111

> <Gold.PLP.part.hbond>
-5.0205

> <Gold.PLP.part.metal>
0.0000

> <Gold.PLP.part.buried>
-7.8546

> <Gold.PLP.part.nonpolar>
-29.8501

> <Gold.PLP.part.repulsive>
0.7940

> <Gold.PLP.ligand.clash>
0.0000

> <Gold.PLP.ligand.torsion>
1.4928

> <Gold.PLP.Chemscore.Hbond>
1.9153

> <Gold.PLP.Chemscore.CHOScore>
0.9174

> <Gold.PLP.Chemscore.Metal>
0.0000

> <Gold.Chemscore.Hbonds>
donor molecule, donor type, donor heavy atom, donor atom, acceptor molecule, acceptor atom, score
      L1  H     9    26       P1  8029  0.98
      L1  H    12    27       P1  8029  0.37
      P1  H  6933  6944       L1    11  0.06
      L1  C    19    37       P1  8029  0.92

> <Gold.PLP.Chemscore.Internal.Correction>
2.0282

> <Gold.Rescore>
     Score         DG    S(hbond)    S(metal)    S(lipo)     H(rot)  DE(clash)    DE(int)     intcor
     16.16     -20.91       2.56        0.00      86.53       1.27       1.88       2.86       ----

> <Gold.Chemscore.Fitness>
16.1645

> <Gold.Chemscore.DG>
-20.9106

> <Gold.Chemscore.ZeroCoef>
-5.4800

> <Gold.Chemscore.Hbond>
2.5640

> <Gold.Chemscore.Metal>
0.0000

> <Gold.Chemscore.Lipo>
86.5344

> <Gold.Chemscore.Internal_Hbond>
0.0000

> <Gold.Chemscore.DEClash>
1.8849

> <Gold.Chemscore.DEInternal>
2.8612

> <Gold.Chemscore.Rot>
1.2725

> <Gold.Chemscore.Internal.Correction>
   9.000000E+99

> <Gold.Chemscore.Hbonds>
donor molecule, donor type, donor heavy atom, donor atom, acceptor molecule, acceptor atom, score
      L1  H     9    26       P1  8029  0.91
      L1  H    12    27       P1  8029  0.21
      P1  H  6933  6944       L1    11  0.04

> <Gold.Chemscore.Hbond.Weighted>
-8.5637

> <Gold.Chemscore.Metal.Weighted>
-0.0000

> <Gold.Chemscore.Lipo.Weighted>
-10.1245

> <Gold.Chemscore.Internal_Hbond.Weighted>
0.0000

> <Gold.Chemscore.DEClash.Weighted>
1.8849

> <Gold.Chemscore.DEInternal.Weighted>
2.8612

> <Gold.Chemscore.Rot.Weighted>
3.2576

> <Gold.Chemscore.Internal.Correction.Weighted>
   9.000000E+99

> <Gold.Protein.RotatedTorsions>
[ 6907 6896 6895 6894 ] final -164.63 input  -60.11 | X-H torsion
[ 7974 7965 7964 7962 ] final -155.14 input  175.53 | X-H torsion
[ 8008 7997 7996 7995 ] final  -69.74 input   59.86 | X-H torsion
[ 10167 10162 10161 10158 ] final   64.55 input  -65.29 | X-H torsion
[ 10718 10713 10712 10709 ] final  -11.24 input   66.30 | X-H torsion
[ 10763 10752 10751 10750 ] final -140.66 input  -60.55 | X-H torsion
[ 11005 11000 10999 10996 ] final -139.19 input  -57.11 | X-H torsion

> <Gold.Protein.ActiveResidues>
 VAL166  LYS551  ARG553  GLY616  TRP617  ASP618  TYR619  PRO620  LYS621  CYS622 
 ASP623  PHE694  ASN695  SER759  ASP760  ASP761  ALA762  ILE779  LEU786  VAL792 
 PHE793  MET794  SER795  GLU796  ALA797  LYS798  CYS799  TRP800  GLU811  SER814 

> <Gold.Protein.RotatedAtoms>
  151.4149  133.3716  159.2748 H   0  0  0  0  0  0  0  0  0  0  0  0  # atno 6907 bound_to 6896
  150.9336  134.8751  159.7577 H   0  0  0  0  0  0  0  0  0  0  0  0  # atno 6908 bound_to 6896
  152.5039  134.4095  159.9496 H   0  0  0  0  0  0  0  0  0  0  0  0  # atno 6909 bound_to 6896
  144.7655  140.4291  143.5945 H   0  0  0  0  0  0  0  0  0  0  0  0  # atno 7974 bound_to 7965
  154.4960  140.0848  156.7698 H   0  0  0  0  0  0  0  0  0  0  0  0  # atno 8008 bound_to 7997
  155.4115  140.3441  155.4246 H   0  0  0  0  0  0  0  0  0  0  0  0  # atno 8009 bound_to 7997
  156.1394  140.1525  156.8931 H   0  0  0  0  0  0  0  0  0  0  0  0  # atno 8010 bound_to 7997
  140.1210  144.4731  150.6920 H   0  0  0  0  0  0  0  0  0  0  0  0  # atno 10167 bound_to 10162
  156.6618  130.4984  149.6028 H   0  0  0  0  0  0  0  0  0  0  0  0  # atno 10718 bound_to 10713
  154.8571  135.3547  154.5743 H   0  0  0  0  0  0  0  0  0  0  0  0  # atno 10763 bound_to 10752
  153.6356  135.7000  153.5264 H   0  0  0  0  0  0  0  0  0  0  0  0  # atno 10764 bound_to 10752
  153.3014  135.4205  155.1215 H   0  0  0  0  0  0  0  0  0  0  0  0  # atno 10765 bound_to 10752
  140.8543  134.2247  157.4743 H   0  0  0  0  0  0  0  0  0  0  0  0  # atno 11005 bound_to 11000
  145.6485  139.1561  143.2875 LP  0  0  0  0  0  0  0  0  0  0  0  0  # atno 17320 bound_to 7965
  146.1758  140.6576  142.9212 LP  0  0  0  0  0  0  0  0  0  0  0  0  # atno 17321 bound_to 7965
  140.6872  143.2356  151.5228 LP  0  0  0  0  0  0  0  0  0  0  0  0  # atno 17342 bound_to 10162
  139.5569  144.2254  152.1627 LP  0  0  0  0  0  0  0  0  0  0  0  0  # atno 17343 bound_to 10162
  156.2005  130.6617  151.1162 LP  0  0  0  0  0  0  0  0  0  0  0  0  # atno 17370 bound_to 10713
  157.7107  131.0735  150.6511 LP  0  0  0  0  0  0  0  0  0  0  0  0  # atno 17371 bound_to 10713
  139.8705  134.9699  156.4681 LP  0  0  0  0  0  0  0  0  0  0  0  0  # atno 17394 bound_to 11000
  140.8754  133.7957  155.9409 LP  0  0  0  0  0  0  0  0  0  0  0  0  # atno 17395 bound_to 11000

$$$$
