AV-unprocessed.smi:212|AV-procd|sdf|1619|dock8
  -GOLD-   2262019553D 1   1.00000     0.00000
 Structure written by MMmdl.
 65 68  0  0  0  0  0  0  0  0  2 V2000
  161.3883  135.3547  150.8623 C   0  0  0  0  0  0  0  0  0  0  0  0
  160.3269  134.2658  151.0928 C   0  0  2  0  0  0  0  0  0  0  0  0
  158.8993  134.8493  151.1616 C   0  0  0  0  0  0  0  0  0  0  0  0
  158.6709  135.5994  152.4270 N   0  3  1  0  0  0  0  0  0  0  0  0
  157.3424  136.2671  152.5037 C   0  0  0  0  0  0  0  0  0  0  0  0
  157.1542  137.1834  153.7414 C   0  0  0  0  0  0  0  0  0  0  0  0
  158.5016  137.8154  154.1317 C   0  0  0  0  0  0  0  0  0  0  0  0
  156.0983  138.2828  153.5188 C   0  0  0  0  0  0  0  0  0  0  0  0
  156.7623  136.4062  154.8546 O   0  0  0  0  0  0  0  0  0  0  0  0
  158.9468  134.7583  153.6208 C   0  0  0  0  0  0  0  0  0  0  0  0
  160.3622  134.1543  153.5691 C   0  0  0  0  0  0  0  0  0  0  0  0
  160.6107  133.4801  152.2952 N   0  0  0  0  0  0  0  0  0  0  0  0
  160.3562  132.1499  152.1987 C   0  0  0  0  0  0  0  0  0  0  0  0
  159.9647  131.4492  153.2956 N   0  0  0  0  0  0  0  0  0  0  0  0
  159.6963  130.1438  153.2000 C   0  0  0  0  0  0  0  0  0  0  0  0
  159.7543  129.3576  152.1238 N   0  0  0  0  0  0  0  0  0  0  0  0
  160.1510  130.0521  151.0198 C   0  0  0  0  0  0  0  0  0  0  0  0
  160.4735  131.4376  150.9726 C   0  0  0  0  0  0  0  0  0  0  0  0
  160.8574  131.7917  149.6857 N   0  0  0  0  0  0  0  0  0  0  0  0
  160.7656  130.6792  149.0103 C   0  0  0  0  0  0  0  0  0  0  0  0
  160.3277  129.5869  149.7268 N   0  0  0  0  0  0  0  0  0  0  0  0
  160.1304  128.2344  149.2203 C   0  0  0  0  0  0  0  0  0  0  0  0
  159.6499  128.1683  147.7460 C   0  0  2  0  0  0  0  0  0  0  0  0
  158.4834  129.1574  147.5078 C   0  0  0  0  0  0  0  0  0  0  0  0
  157.5060  129.0782  148.5241 O   0  0  0  0  0  0  0  0  0  0  0  0
  159.3069  126.7154  147.3132 C   0  0  2  0  0  0  0  0  0  0  0  0
  159.2437  126.5077  145.8083 C   0  0  0  0  0  0  0  0  0  0  0  0
  158.4881  125.1882  145.6867 C   0  0  0  0  0  0  0  0  0  0  0  0
  157.6391  125.1205  146.8272 O   0  0  0  0  0  0  0  0  0  0  0  0
  157.9105  126.2152  147.6950 C   0  0  0  0  0  0  0  0  0  0  0  0
  161.1964  135.8942  149.9344 H   0  0  0  0  0  0  0  0  0  0  0  0
  162.3837  134.9160  150.7856 H   0  0  0  0  0  0  0  0  0  0  0  0
  161.4082  136.0877  151.6688 H   0  0  0  0  0  0  0  0  0  0  0  0
  160.3583  133.6164  150.2175 H   0  0  0  0  0  0  0  0  0  0  0  0
  158.7382  135.4848  150.2935 H   0  0  0  0  0  0  0  0  0  0  0  0
  158.1691  134.0412  151.0940 H   0  0  0  0  0  0  0  0  0  0  0  0
  157.1348  136.8040  151.5764 H   0  0  0  0  0  0  0  0  0  0  0  0
  156.5803  135.4888  152.5665 H   0  0  0  0  0  0  0  0  0  0  0  0
  158.8816  138.4579  153.3366 H   0  0  0  0  0  0  0  0  0  0  0  0
  159.2578  137.0540  154.3271 H   0  0  0  0  0  0  0  0  0  0  0  0
  158.4120  138.4278  155.0301 H   0  0  0  0  0  0  0  0  0  0  0  0
  156.3470  138.8982  152.6535 H   0  0  0  0  0  0  0  0  0  0  0  0
  156.0280  138.9451  154.3826 H   0  0  0  0  0  0  0  0  0  0  0  0
  155.1044  137.8650  153.3546 H   0  0  0  0  0  0  0  0  0  0  0  0
  156.5430  136.9877  155.5670 H   0  0  0  0  0  0  0  0  0  0  0  0
  158.8502  135.3551  154.5285 H   0  0  0  0  0  0  0  0  0  0  0  0
  158.1978  133.9675  153.6820 H   0  0  0  0  0  0  0  0  0  0  0  0
  161.1033  134.9447  153.6892 H   0  0  0  0  0  0  0  0  0  0  0  0
  160.5183  133.4733  154.4070 H   0  0  0  0  0  0  0  0  0  0  0  0
  159.3886  129.6606  154.1156 H   0  0  0  0  0  0  0  0  0  0  0  0
  161.0130  130.6284  147.9599 H   0  0  0  0  0  0  0  0  0  0  0  0
  161.0757  127.7000  149.3217 H   0  0  0  0  0  0  0  0  0  0  0  0
  159.4312  127.7155  149.8761 H   0  0  0  0  0  0  0  0  0  0  0  0
  160.4901  128.5089  147.1383 H   0  0  0  0  0  0  0  0  0  0  0  0
  158.8463  130.1828  147.4300 H   0  0  0  0  0  0  0  0  0  0  0  0
  157.9756  128.9248  146.5715 H   0  0  0  0  0  0  0  0  0  0  0  0
  157.4623  129.9125  148.9661 H   0  0  0  0  0  0  0  0  0  0  0  0
  160.0367  126.0233  147.7356 H   0  0  0  0  0  0  0  0  0  0  0  0
  158.6684  127.3073  145.3397 H   0  0  0  0  0  0  0  0  0  0  0  0
  160.2182  126.4711  145.3244 H   0  0  0  0  0  0  0  0  0  0  0  0
  157.9173  125.1215  144.7604 H   0  0  0  0  0  0  0  0  0  0  0  0
  159.1806  124.3462  145.7202 H   0  0  0  0  0  0  0  0  0  0  0  0
  157.8439  125.9090  148.7393 H   0  0  0  0  0  0  0  0  0  0  0  0
  157.1603  126.9868  147.5163 H   0  0  0  0  0  0  0  0  0  0  0  0
  159.3575  136.3396  152.4488 H   0  0  0  0  0  0  0  0  0  0  0  0
  1  2  1  0  0  0  0
  1 31  1  0  0  0  0
  1 32  1  0  0  0  0
  1 33  1  0  0  0  0
  2 12  1  0  0  0  0
  2  3  1  0  0  0  0
  2 34  1  0  0  0  0
  3  4  1  0  0  0  0
  3 35  1  0  0  0  0
  3 36  1  0  0  0  0
  4  5  1  0  0  0  0
  4 10  1  0  0  0  0
  4 65  1  0  0  0  0
  5  6  1  0  0  0  0
  5 37  1  0  0  0  0
  5 38  1  0  0  0  0
  6  7  1  0  0  0  0
  6  8  1  0  0  0  0
  6  9  1  0  0  0  0
  7 39  1  0  0  0  0
  7 40  1  0  0  0  0
  7 41  1  0  0  0  0
  8 42  1  0  0  0  0
  8 43  1  0  0  0  0
  8 44  1  0  0  0  0
  9 45  1  0  0  0  0
 10 11  1  0  0  0  0
 10 46  1  0  0  0  0
 10 47  1  0  0  0  0
 11 12  1  0  0  0  0
 11 48  1  0  0  0  0
 11 49  1  0  0  0  0
 12 13  1  0  0  0  0
 13 18  1  0  0  0  0
 13 14  2  0  0  0  0
 14 15  1  0  0  0  0
 15 16  2  0  0  0  0
 15 50  1  0  0  0  0
 16 17  1  0  0  0  0
 17 21  1  0  0  0  0
 17 18  2  0  0  0  0
 18 19  1  0  0  0  0
 19 20  2  0  0  0  0
 20 21  1  0  0  0  0
 20 51  1  0  0  0  0
 21 22  1  0  0  0  0
 22 23  1  0  0  0  0
 22 52  1  0  0  0  0
 22 53  1  0  0  0  0
 23 24  1  0  0  0  0
 23 26  1  0  0  0  0
 23 54  1  0  0  0  0
 24 25  1  0  0  0  0
 24 55  1  0  0  0  0
 24 56  1  0  0  0  0
 25 57  1  0  0  0  0
 26 30  1  0  0  0  0
 26 27  1  0  0  0  0
 26 58  1  0  0  0  0
 27 28  1  0  0  0  0
 27 59  1  0  0  0  0
 27 60  1  0  0  0  0
 28 29  1  0  0  0  0
 28 61  1  0  0  0  0
 28 62  1  0  0  0  0
 29 30  1  0  0  0  0
 30 63  1  0  0  0  0
 30 64  1  0  0  0  0
M  CHG  1   4   1
M  END
> <s_m_source_file>
AV-unprocessed.smi

> <i_m_source_file_index>
212

> <i_lp_mmshare_version>
43012

> <i_f3d_flags>
0

> <s_epik_input>
W0NIM11bQ0BASF0xW0NIMl1OKFtDSDJdQyhbQ0gzXSkoW0NIM10pW09IXSlbQ0gyXVtDSDJdTjFjKG5bY0hdbjIpYyhjMjMpbltjSF1uM1tDSDJdW0NASF0oW0NIMl1bT0hdKVtDQEBIXTRbQ0gyXVtDSDJdT1tDSDJdNA==

> <s_epik_cmdline>
J2VwaWtfcHl0aG9uJywgJy1waCcsICc3LjAnLCAnLXRuJywgJzgnLCAnLW1hJywgJzIwMCcsICctbWV0YWxfYmluZGluZycsICctaW1hZScsICc8aW5maWxlLm1hZT4nLCAnLW9tYWUnLCAnPG91dGZpbGUubWFlPic=

> <r_lp_tautomer_probability>
1

> <r_epik_Ionization_Penalty>
0.00182193

> <r_epik_Ionization_Penalty_Charging>
0.00173996

> <r_epik_Ionization_Penalty_Neutral>
8.19718e-05

> <r_epik_State_Penalty>
-0

> <r_epik_Charging_Adjusted_Penalty>
0.00173996

> <i_epik_Tot_Q>
1

> <i_epik_Tot_abs_Q>
1

> <r_epik_Metal_State_Penalty>
-0

> <b_epik_Metal_Only>
0

> <s_lp_Force_Field>
OPLS_2005

> <r_lp_Energy>
58.2747

> <b_lp_Chiralities_Consistent>
1

> <s_lp_Variant>
AV-unprocessed.smi:212-3

> <Gold.Version>
5.8.1

> <Gold.Id.Protein>
6NUR|6NUR_protein|mol2

> <Gold.PLP.Fitness>
53.6258

> <Gold.PLP.PLP>
-50.0034

> <Gold.PLP.part.hbond>
-4.6072

> <Gold.PLP.part.metal>
0.0000

> <Gold.PLP.part.buried>
-7.3425

> <Gold.PLP.part.nonpolar>
-38.0521

> <Gold.PLP.part.repulsive>
0.1793

> <Gold.PLP.ligand.clash>
0.0000

> <Gold.PLP.ligand.torsion>
1.4977

> <Gold.PLP.Chemscore.Hbond>
1.9760

> <Gold.PLP.Chemscore.CHOScore>
0.0000

> <Gold.PLP.Chemscore.Metal>
0.0000

> <Gold.Chemscore.Hbonds>
donor molecule, donor type, donor heavy atom, donor atom, acceptor molecule, acceptor atom, score
      L1  H    25    57       P1 10713  1.00
      P1  H 10752 10765       L1     9  0.78

> <Gold.PLP.Chemscore.Internal.Correction>
0.6898

> <Gold.Rescore>
     Score         DG    S(hbond)    S(metal)    S(lipo)     H(rot)  DE(clash)    DE(int)     intcor
     14.76     -18.05       1.84        0.00     129.34       3.40       0.56       2.73       ----

> <Gold.Chemscore.Fitness>
14.7631

> <Gold.Chemscore.DG>
-18.0522

> <Gold.Chemscore.ZeroCoef>
-5.4800

> <Gold.Chemscore.Hbond>
1.8383

> <Gold.Chemscore.Metal>
0.0000

> <Gold.Chemscore.Lipo>
129.3391

> <Gold.Chemscore.Internal_Hbond>
0.0000

> <Gold.Chemscore.DEClash>
0.5618

> <Gold.Chemscore.DEInternal>
2.7273

> <Gold.Chemscore.Rot>
3.3986

> <Gold.Chemscore.Internal.Correction>
   9.000000E+99

> <Gold.Chemscore.Hbonds>
donor molecule, donor type, donor heavy atom, donor atom, acceptor molecule, acceptor atom, score
      L1  H    25    57       P1 10713  0.76
      P1  H 10752 10765       L1     9  0.24

> <Gold.Chemscore.Hbond.Weighted>
-6.1400

> <Gold.Chemscore.Metal.Weighted>
-0.0000

> <Gold.Chemscore.Lipo.Weighted>
-15.1327

> <Gold.Chemscore.Internal_Hbond.Weighted>
0.0000

> <Gold.Chemscore.DEClash.Weighted>
0.5618

> <Gold.Chemscore.DEInternal.Weighted>
2.7273

> <Gold.Chemscore.Rot.Weighted>
8.7005

> <Gold.Chemscore.Internal.Correction.Weighted>
   9.000000E+99

> <Gold.Protein.RotatedTorsions>
[ 6907 6896 6895 6894 ] final   -0.52 input  -60.11 | X-H torsion
[ 7974 7965 7964 7962 ] final -162.69 input  175.53 | X-H torsion
[ 8008 7997 7996 7995 ] final -142.32 input   59.86 | X-H torsion
[ 10167 10162 10161 10158 ] final  -69.97 input  -65.29 | X-H torsion
[ 10718 10713 10712 10709 ] final  146.97 input   66.30 | X-H torsion
[ 10763 10752 10751 10750 ] final  -14.43 input  -60.55 | X-H torsion
[ 11005 11000 10999 10996 ] final   66.06 input  -57.11 | X-H torsion

> <Gold.Protein.ActiveResidues>
 VAL166  LYS551  ARG553  GLY616  TRP617  ASP618  TYR619  PRO620  LYS621  CYS622 
 ASP623  PHE694  ASN695  SER759  ASP760  ASP761  ALA762  ILE779  LEU786  VAL792 
 PHE793  MET794  SER795  GLU796  ALA797  LYS798  CYS799  TRP800  GLU811  SER814 

> <Gold.Protein.RotatedAtoms>
  151.5609  135.1065  159.9972 H   0  0  0  0  0  0  0  0  0  0  0  0  # atno 6907 bound_to 6896
  152.4447  133.7510  159.6704 H   0  0  0  0  0  0  0  0  0  0  0  0  # atno 6908 bound_to 6896
  150.8360  133.7945  159.3103 H   0  0  0  0  0  0  0  0  0  0  0  0  # atno 6909 bound_to 6896
  144.7349  140.3216  143.6169 H   0  0  0  0  0  0  0  0  0  0  0  0  # atno 7974 bound_to 7965
  155.4923  140.0569  157.2952 H   0  0  0  0  0  0  0  0  0  0  0  0  # atno 8008 bound_to 7997
  154.4618  140.2000  156.0174 H   0  0  0  0  0  0  0  0  0  0  0  0  # atno 8009 bound_to 7997
  156.0904  140.3234  155.7813 H   0  0  0  0  0  0  0  0  0  0  0  0  # atno 8010 bound_to 7997
  140.5389  143.2316  151.7126 H   0  0  0  0  0  0  0  0  0  0  0  0  # atno 10167 bound_to 10162
  157.3267  131.0913  151.1196 H   0  0  0  0  0  0  0  0  0  0  0  0  # atno 10718 bound_to 10713
  153.5281  135.7015  153.5697 H   0  0  0  0  0  0  0  0  0  0  0  0  # atno 10763 bound_to 10752
  153.3716  135.3943  155.1793 H   0  0  0  0  0  0  0  0  0  0  0  0  # atno 10764 bound_to 10752
  154.8687  135.3813  154.4776 H   0  0  0  0  0  0  0  0  0  0  0  0  # atno 10765 bound_to 10752
  139.9855  134.6674  156.0183 H   0  0  0  0  0  0  0  0  0  0  0  0  # atno 11005 bound_to 11000
  145.7563  139.1810  143.2293 LP  0  0  0  0  0  0  0  0  0  0  0  0  # atno 17320 bound_to 7965
  146.1022  140.7530  142.9544 LP  0  0  0  0  0  0  0  0  0  0  0  0  # atno 17321 bound_to 7965
  139.4981  144.4000  152.0191 LP  0  0  0  0  0  0  0  0  0  0  0  0  # atno 17342 bound_to 10162
  140.3107  144.3541  150.6034 LP  0  0  0  0  0  0  0  0  0  0  0  0  # atno 17343 bound_to 10162
  157.2460  130.6592  149.5910 LP  0  0  0  0  0  0  0  0  0  0  0  0  # atno 17370 bound_to 10713
  155.9691  130.4553  150.5883 LP  0  0  0  0  0  0  0  0  0  0  0  0  # atno 17371 bound_to 10713
  141.1521  133.6547  156.4046 LP  0  0  0  0  0  0  0  0  0  0  0  0  # atno 17394 bound_to 11000
  140.5010  134.6485  157.5248 LP  0  0  0  0  0  0  0  0  0  0  0  0  # atno 17395 bound_to 11000

$$$$
