AV-unprocessed.smi:317|AV-procd|sdf|2329|dock2
  -GOLD-   2262022233D 1   1.00000     0.00000
 Structure written by MMmdl.
 40 41  0  0  0  0  0  0  0  0  2 V2000
  152.0199  137.7673  155.2855 C   0  0  0  0  0  0  0  0  0  0  0  0
  150.4983  137.9424  155.1312 C   0  0  1  0  0  0  0  0  0  0  0  0
  150.1010  139.2362  154.3959 C   0  0  0  0  0  0  0  0  0  0  0  0
  150.7604  140.3648  154.9339 O   0  0  0  0  0  0  0  0  0  0  0  0
  149.8909  136.7891  154.4714 N   0  0  0  0  0  0  0  0  0  0  0  0
  149.9259  135.5261  154.9190 C   0  0  0  0  0  0  0  0  0  0  0  0
  150.4856  135.1864  155.9612 O   0  0  0  0  0  0  0  0  0  0  0  0
  149.2926  134.6957  154.0737 N   0  0  0  0  0  0  0  0  0  0  0  0
  149.1486  133.2816  154.1653 C   0  0  0  0  0  0  0  0  0  0  0  0
  150.0384  132.4939  154.9408 C   0  0  0  0  0  0  0  0  0  0  0  0
  149.8791  131.0963  154.9912 C   0  0  0  0  0  0  0  0  0  0  0  0
  148.8288  130.5048  154.2689 C   0  0  0  0  0  0  0  0  0  0  0  0
  147.9872  131.2819  153.5569 N   0  3  0  0  0  0  0  0  0  0  0  0
  148.0796  132.6334  153.4805 C   0  0  0  0  0  0  0  0  0  0  0  0
  147.1158  133.3187  152.7065 N   0  0  0  0  0  0  0  0  0  0  0  0
  147.1648  133.2640  151.2501 C   0  0  0  0  0  0  0  0  0  0  0  0
  145.8118  133.7987  150.7899 C   0  0  0  0  0  0  0  0  0  0  0  0
  144.8694  133.2799  151.8720 C   0  0  0  0  0  0  0  0  0  0  0  0
  145.7235  133.3069  153.1446 C   0  0  0  0  0  0  0  0  0  0  0  0
  152.4644  138.6341  155.7753 H   0  0  0  0  0  0  0  0  0  0  0  0
  152.5113  137.6416  154.3204 H   0  0  0  0  0  0  0  0  0  0  0  0
  152.2573  136.8928  155.8920 H   0  0  0  0  0  0  0  0  0  0  0  0
  150.0709  138.0138  156.1331 H   0  0  0  0  0  0  0  0  0  0  0  0
  150.3214  139.1616  153.3304 H   0  0  0  0  0  0  0  0  0  0  0  0
  149.0264  139.3985  154.4853 H   0  0  0  0  0  0  0  0  0  0  0  0
  151.4021  140.0672  155.5610 H   0  0  0  0  0  0  0  0  0  0  0  0
  149.4145  136.9741  153.6007 H   0  0  0  0  0  0  0  0  0  0  0  0
  148.9648  135.1105  153.2139 H   0  0  0  0  0  0  0  0  0  0  0  0
  150.8419  132.9404  155.5066 H   0  0  0  0  0  0  0  0  0  0  0  0
  150.5545  130.4879  155.5751 H   0  0  0  0  0  0  0  0  0  0  0  0
  148.6313  129.4429  154.2458 H   0  0  0  0  0  0  0  0  0  0  0  0
  147.9901  133.8576  150.8558 H   0  0  0  0  0  0  0  0  0  0  0  0
  147.2863  132.2349  150.9095 H   0  0  0  0  0  0  0  0  0  0  0  0
  145.8194  134.8897  150.7939 H   0  0  0  0  0  0  0  0  0  0  0  0
  145.5399  133.4640  149.7884 H   0  0  0  0  0  0  0  0  0  0  0  0
  143.9573  133.8708  151.9615 H   0  0  0  0  0  0  0  0  0  0  0  0
  144.5824  132.2524  151.6434 H   0  0  0  0  0  0  0  0  0  0  0  0
  145.5026  132.4537  153.7878 H   0  0  0  0  0  0  0  0  0  0  0  0
  145.5228  134.2191  153.7073 H   0  0  0  0  0  0  0  0  0  0  0  0
  147.2284  130.8240  153.0517 H   0  0  0  0  0  0  0  0  0  0  0  0
  1  2  1  0  0  0  0
  1 20  1  0  0  0  0
  1 21  1  0  0  0  0
  1 22  1  0  0  0  0
  2  3  1  0  0  0  0
  2  5  1  0  0  0  0
  2 23  1  0  0  0  0
  3  4  1  0  0  0  0
  3 24  1  0  0  0  0
  3 25  1  0  0  0  0
  4 26  1  0  0  0  0
  5  6  1  0  0  0  0
  5 27  1  0  0  0  0
  6  7  2  0  0  0  0
  6  8  1  0  0  0  0
  8  9  1  0  0  0  0
  8 28  1  0  0  0  0
  9 14  1  0  0  0  0
  9 10  2  0  0  0  0
 10 11  1  0  0  0  0
 10 29  1  0  0  0  0
 11 12  2  0  0  0  0
 11 30  1  0  0  0  0
 12 13  1  0  0  0  0
 12 31  1  0  0  0  0
 13 14  2  0  0  0  0
 13 40  1  0  0  0  0
 14 15  1  0  0  0  0
 15 19  1  0  0  0  0
 15 16  1  0  0  0  0
 16 17  1  0  0  0  0
 16 32  1  0  0  0  0
 16 33  1  0  0  0  0
 17 18  1  0  0  0  0
 17 34  1  0  0  0  0
 17 35  1  0  0  0  0
 18 19  1  0  0  0  0
 18 36  1  0  0  0  0
 18 37  1  0  0  0  0
 19 38  1  0  0  0  0
 19 39  1  0  0  0  0
M  CHG  1  13   1
M  END
> <s_m_source_file>
AV-unprocessed.smi

> <i_m_source_file_index>
317

> <i_lp_mmshare_version>
43012

> <i_f3d_flags>
0

> <s_epik_input>
W09IXVtDSDJdW0NAQEhdKFtDSDNdKVtOSF1DKD1PKVtOSF1jMVtjSF1bY0hdW2NIXW5jMU4yW0NIMl1bQ0gyXVtDSDJdW0NIMl0y

> <s_epik_cmdline>
J2VwaWtfcHl0aG9uJywgJy1waCcsICc3LjAnLCAnLXRuJywgJzgnLCAnLW1hJywgJzIwMCcsICctbWV0YWxfYmluZGluZycsICctaW1hZScsICc8aW5maWxlLm1hZT4nLCAnLW9tYWUnLCAnPG91dGZpbGUubWFlPic=

> <r_lp_tautomer_probability>
0.999994

> <r_epik_Ionization_Penalty>
1.11558

> <r_epik_Ionization_Penalty_Charging>
1.11556

> <r_epik_Ionization_Penalty_Neutral>
2.02999e-05

> <r_epik_State_Penalty>
1.17393

> <r_epik_Charging_Adjusted_Penalty>
2.28949

> <i_epik_Tot_Q>
1

> <i_epik_Tot_abs_Q>
1

> <r_epik_Metal_State_Penalty>
1.25924

> <b_epik_Metal_Only>
0

> <s_lp_Force_Field>
OPLS_2005

> <r_lp_Energy>
42.0309

> <b_lp_Chiralities_Consistent>
1

> <s_lp_Variant>
AV-unprocessed.smi:317-4

> <Gold.Version>
5.8.1

> <Gold.Id.Protein>
6NUR|6NUR_protein|mol2

> <Gold.PLP.Fitness>
39.0350

> <Gold.PLP.PLP>
-30.9144

> <Gold.PLP.part.hbond>
-3.0374

> <Gold.PLP.part.metal>
0.0000

> <Gold.PLP.part.buried>
-3.7174

> <Gold.PLP.part.nonpolar>
-24.2557

> <Gold.PLP.part.repulsive>
0.2408

> <Gold.PLP.ligand.clash>
0.0000

> <Gold.PLP.ligand.torsion>
0.3622

> <Gold.PLP.Chemscore.Hbond>
2.8160

> <Gold.PLP.Chemscore.CHOScore>
0.0000

> <Gold.PLP.Chemscore.Metal>
0.0000

> <Gold.Chemscore.Hbonds>
donor molecule, donor type, donor heavy atom, donor atom, acceptor molecule, acceptor atom, score
      L1  H     5    27       P1  7948  0.88
      L1  H     8    28       P1  7948  1.00
      P1  H  7989  7998       L1     4  0.95

> <Gold.PLP.Chemscore.Internal.Correction>
0.3969

> <Gold.Rescore>
     Score         DG    S(hbond)    S(metal)    S(lipo)     H(rot)  DE(clash)    DE(int)     intcor
     11.86     -14.77       2.43        0.00      56.16       2.11       0.03       2.88       ----

> <Gold.Chemscore.Fitness>
11.8611

> <Gold.Chemscore.DG>
-14.7720

> <Gold.Chemscore.ZeroCoef>
-5.4800

> <Gold.Chemscore.Hbond>
2.4321

> <Gold.Chemscore.Metal>
0.0000

> <Gold.Chemscore.Lipo>
56.1554

> <Gold.Chemscore.Internal_Hbond>
0.0000

> <Gold.Chemscore.DEClash>
0.0270

> <Gold.Chemscore.DEInternal>
2.8839

> <Gold.Chemscore.Rot>
2.1099

> <Gold.Chemscore.Internal.Correction>
   9.000000E+99

> <Gold.Chemscore.Hbonds>
donor molecule, donor type, donor heavy atom, donor atom, acceptor molecule, acceptor atom, score
      L1  H     5    27       P1  7948  0.80
      L1  H     8    28       P1  7948  0.30
      P1  H  7989  7998       L1     4  0.13

> <Gold.Chemscore.Hbond.Weighted>
-8.1233

> <Gold.Chemscore.Metal.Weighted>
-0.0000

> <Gold.Chemscore.Lipo.Weighted>
-6.5702

> <Gold.Chemscore.Internal_Hbond.Weighted>
0.0000

> <Gold.Chemscore.DEClash.Weighted>
0.0270

> <Gold.Chemscore.DEInternal.Weighted>
2.8839

> <Gold.Chemscore.Rot.Weighted>
5.4015

> <Gold.Chemscore.Internal.Correction.Weighted>
   9.000000E+99

> <Gold.Protein.RotatedTorsions>
[ 6907 6896 6895 6894 ] final  150.70 input  -60.11 | X-H torsion
[ 7974 7965 7964 7962 ] final  -35.60 input  175.53 | X-H torsion
[ 8008 7997 7996 7995 ] final -108.82 input   59.86 | X-H torsion
[ 10167 10162 10161 10158 ] final  -91.13 input  -65.29 | X-H torsion
[ 10718 10713 10712 10709 ] final  179.43 input   66.30 | X-H torsion
[ 10763 10752 10751 10750 ] final  140.69 input  -60.55 | X-H torsion
[ 11005 11000 10999 10996 ] final  -92.61 input  -57.11 | X-H torsion

> <Gold.Protein.ActiveResidues>
 VAL166  LYS551  ARG553  GLY616  TRP617  ASP618  TYR619  PRO620  LYS621  CYS622 
 ASP623  PHE694  ASN695  SER759  ASP760  ASP761  ALA762  ILE779  LEU786  VAL792 
 PHE793  MET794  SER795  GLU796  ALA797  LYS798  CYS799  TRP800  GLU811  SER814 

> <Gold.Protein.RotatedAtoms>
  152.1109  133.4300  159.4630 H   0  0  0  0  0  0  0  0  0  0  0  0  # atno 6907 bound_to 6896
  150.6867  134.2650  159.4574 H   0  0  0  0  0  0  0  0  0  0  0  0  # atno 6908 bound_to 6896
  152.0518  134.9648  160.0625 H   0  0  0  0  0  0  0  0  0  0  0  0  # atno 6909 bound_to 6896
  146.0733  140.6178  142.8942 H   0  0  0  0  0  0  0  0  0  0  0  0  # atno 7974 bound_to 7965
  154.9500  140.0401  157.2139 H   0  0  0  0  0  0  0  0  0  0  0  0  # atno 8008 bound_to 7997
  154.7987  140.2848  155.5915 H   0  0  0  0  0  0  0  0  0  0  0  0  # atno 8009 bound_to 7997
  156.2959  140.2559  156.2851 H   0  0  0  0  0  0  0  0  0  0  0  0  # atno 8010 bound_to 7997
  140.3479  143.2907  151.9760 H   0  0  0  0  0  0  0  0  0  0  0  0  # atno 10167 bound_to 10162
  156.8758  130.9799  151.3068 H   0  0  0  0  0  0  0  0  0  0  0  0  # atno 10718 bound_to 10713
  153.9269  135.2994  155.3446 H   0  0  0  0  0  0  0  0  0  0  0  0  # atno 10763 bound_to 10752
  154.7547  135.4963  153.9355 H   0  0  0  0  0  0  0  0  0  0  0  0  # atno 10764 bound_to 10752
  153.1112  135.6759  153.9602 H   0  0  0  0  0  0  0  0  0  0  0  0  # atno 10765 bound_to 10752
  141.1518  133.7832  157.0044 H   0  0  0  0  0  0  0  0  0  0  0  0  # atno 11005 bound_to 11000
  144.7245  140.4481  143.6983 LP  0  0  0  0  0  0  0  0  0  0  0  0  # atno 17320 bound_to 7965
  145.6352  139.1542  143.2946 LP  0  0  0  0  0  0  0  0  0  0  0  0  # atno 17321 bound_to 7965
  139.4830  144.6101  151.7449 LP  0  0  0  0  0  0  0  0  0  0  0  0  # atno 17342 bound_to 10162
  140.5247  144.0825  150.6033 LP  0  0  0  0  0  0  0  0  0  0  0  0  # atno 17343 bound_to 10162
  157.6169  130.8625  149.9043 LP  0  0  0  0  0  0  0  0  0  0  0  0  # atno 17370 bound_to 10713
  156.0702  130.3686  150.0791 LP  0  0  0  0  0  0  0  0  0  0  0  0  # atno 17371 bound_to 10713
  140.0919  134.9587  157.1789 LP  0  0  0  0  0  0  0  0  0  0  0  0  # atno 17394 bound_to 11000
  140.3434  134.2678  155.7208 LP  0  0  0  0  0  0  0  0  0  0  0  0  # atno 17395 bound_to 11000

$$$$
