AV-unprocessed.smi:662|AV-procd|sdf|3246|dock6
  -GOLD-   22720 0193D 1   1.00000     0.00000
 Structure written by MMmdl.
 33 34  0  0  0  0  0  0  0  0  1 V2000
  143.8248  135.3147  151.4045 O   0  0  0  0  0  0  0  0  0  0  0  0
  143.5764  134.3210  152.0885 C   0  0  0  0  0  0  0  0  0  0  0  0
  142.8539  134.3640  153.2192 N   0  0  0  0  0  0  0  0  0  0  0  0
  142.2472  135.5614  153.7952 C   0  0  0  0  0  0  0  0  0  0  0  0
  140.7274  135.4129  154.0026 C   0  0  0  0  0  0  0  0  0  0  0  0
  139.9536  136.6719  153.7761 C   0  0  0  0  0  0  0  0  0  0  0  0
  138.7421  136.8903  154.2934 N   0  0  0  0  0  0  0  0  0  0  0  0
  138.2417  138.1601  153.9852 C   0  0  0  0  0  0  0  0  0  0  0  0
  136.8913  138.5733  154.4951 C   0  0  0  0  0  0  0  0  0  0  0  0
  136.8599  138.6096  155.8274 F   0  0  0  0  0  0  0  0  0  0  0  0
  136.5605  139.7862  154.0530 F   0  0  0  0  0  0  0  0  0  0  0  0
  135.9462  137.7232  154.0949 F   0  0  0  0  0  0  0  0  0  0  0  0
  139.1030  138.9043  153.2159 C   0  0  0  0  0  0  0  0  0  0  0  0
  140.5718  138.0399  152.8570 S   0  0  0  0  0  0  0  0  0  0  0  0
  144.0898  132.9413  151.6621 C   0  0  1  0  0  0  0  0  0  0  0  0
  143.5964  132.5271  150.2653 C   0  0  0  0  0  0  0  0  0  0  0  0
  144.8640  132.1017  149.5346 C   0  0  0  0  0  0  0  0  0  0  0  0
  145.8710  131.8583  150.6563 C   0  0  0  0  0  0  0  0  0  0  0  0
  145.5568  132.8967  151.6230 N   0  0  0  0  0  0  0  0  0  0  0  0
  142.7035  133.4968  153.7140 H   0  0  0  0  0  0  0  0  0  0  0  0
  142.7262  135.7495  154.7561 H   0  0  0  0  0  0  0  0  0  0  0  0
  142.4570  136.4363  153.1774 H   0  0  0  0  0  0  0  0  0  0  0  0
  140.3382  134.6451  153.3332 H   0  0  0  0  0  0  0  0  0  0  0  0
  140.5289  135.0625  155.0160 H   0  0  0  0  0  0  0  0  0  0  0  0
  138.9632  139.9078  152.8430 H   0  0  0  0  0  0  0  0  0  0  0  0
  143.7546  132.1912  152.3810 H   0  0  0  0  0  0  0  0  0  0  0  0
  142.9010  131.6912  150.3480 H   0  0  0  0  0  0  0  0  0  0  0  0
  143.0843  133.3251  149.7247 H   0  0  0  0  0  0  0  0  0  0  0  0
  144.7139  131.2223  148.9079 H   0  0  0  0  0  0  0  0  0  0  0  0
  145.2126  132.9131  148.8941 H   0  0  0  0  0  0  0  0  0  0  0  0
  145.7156  130.8782  151.1100 H   0  0  0  0  0  0  0  0  0  0  0  0
  146.9054  131.9220  150.3181 H   0  0  0  0  0  0  0  0  0  0  0  0
  145.9697  132.7065  152.5249 H   0  0  0  0  0  0  0  0  0  0  0  0
  1  2  2  0  0  0  0
  2  3  1  0  0  0  0
  2 15  1  0  0  0  0
  3  4  1  0  0  0  0
  3 20  1  0  0  0  0
  4  5  1  0  0  0  0
  4 21  1  0  0  0  0
  4 22  1  0  0  0  0
  5  6  1  0  0  0  0
  5 23  1  0  0  0  0
  5 24  1  0  0  0  0
  6 14  1  0  0  0  0
  6  7  2  0  0  0  0
  7  8  1  0  0  0  0
  8  9  1  0  0  0  0
  8 13  2  0  0  0  0
  9 10  1  0  0  0  0
  9 11  1  0  0  0  0
  9 12  1  0  0  0  0
 13 14  1  0  0  0  0
 13 25  1  0  0  0  0
 15 19  1  0  0  0  0
 15 16  1  0  0  0  0
 15 26  1  0  0  0  0
 16 17  1  0  0  0  0
 16 27  1  0  0  0  0
 16 28  1  0  0  0  0
 17 18  1  0  0  0  0
 17 29  1  0  0  0  0
 17 30  1  0  0  0  0
 18 19  1  0  0  0  0
 18 31  1  0  0  0  0
 18 32  1  0  0  0  0
 19 33  1  0  0  0  0
M  END
> <s_m_source_file>
AV-unprocessed.smi

> <i_m_source_file_index>
662

> <i_lp_mmshare_version>
43012

> <i_f3d_flags>
0

> <s_epik_input>
W05IXTFbQ0gyXVtDSDJdW0NIMl1bQ0BIXTFDKD1PKVtOSF1bQ0gyXVtDSDJdYzJuYyhDKEYpKEYpRilbY0hdczI=

> <s_epik_cmdline>
J2VwaWtfcHl0aG9uJywgJy1waCcsICc3LjAnLCAnLXRuJywgJzgnLCAnLW1hJywgJzIwMCcsICctbWV0YWxfYmluZGluZycsICctaW1hZScsICc8aW5maWxlLm1hZT4nLCAnLW9tYWUnLCAnPG91dGZpbGUubWFlPic=

> <r_epik_Ionization_Penalty>
1.64272

> <r_epik_Ionization_Penalty_Charging>
0

> <r_epik_Ionization_Penalty_Neutral>
1.64272

> <r_epik_State_Penalty>
1.74416

> <r_epik_Charging_Adjusted_Penalty>
1.74416

> <i_epik_Tot_Q>
0

> <i_epik_Tot_abs_Q>
0

> <r_epik_Metal_State_Penalty>
1.74416

> <b_epik_Metal_Only>
0

> <s_lp_Force_Field>
OPLS_2005

> <r_lp_Energy>
17.8155

> <b_lp_Chiralities_Consistent>
1

> <s_lp_Variant>
AV-unprocessed.smi:662-4

> <Gold.Version>
5.8.1

> <Gold.Id.Protein>
6NUR|6NUR_protein|mol2

> <Gold.PLP.Fitness>
36.2978

> <Gold.PLP.PLP>
-32.4035

> <Gold.PLP.part.hbond>
-1.0000

> <Gold.PLP.part.metal>
0.0000

> <Gold.PLP.part.buried>
-2.5655

> <Gold.PLP.part.nonpolar>
-28.6768

> <Gold.PLP.part.repulsive>
0.3038

> <Gold.PLP.ligand.clash>
0.0000

> <Gold.PLP.ligand.torsion>
0.5669

> <Gold.PLP.Chemscore.Hbond>
1.0000

> <Gold.PLP.Chemscore.CHOScore>
0.6688

> <Gold.PLP.Chemscore.Metal>
0.0000

> <Gold.Chemscore.Hbonds>
donor molecule, donor type, donor heavy atom, donor atom, acceptor molecule, acceptor atom, score
      L1  H     3    20       P1 10957  1.00
      L1  C    13    25       P1 10160  0.67

> <Gold.PLP.Chemscore.Internal.Correction>
0.0217

> <Gold.Rescore>
     Score         DG    S(hbond)    S(metal)    S(lipo)     H(rot)  DE(clash)    DE(int)     intcor
     12.55     -14.13       0.99        0.00      87.31       1.91       1.01       0.57       ----

> <Gold.Chemscore.Fitness>
12.5460

> <Gold.Chemscore.DG>
-14.1302

> <Gold.Chemscore.ZeroCoef>
-5.4800

> <Gold.Chemscore.Hbond>
0.9949

> <Gold.Chemscore.Metal>
0.0000

> <Gold.Chemscore.Lipo>
87.3132

> <Gold.Chemscore.Internal_Hbond>
0.0000

> <Gold.Chemscore.DEClash>
1.0122

> <Gold.Chemscore.DEInternal>
0.5720

> <Gold.Chemscore.Rot>
1.9095

> <Gold.Chemscore.Internal.Correction>
   9.000000E+99

> <Gold.Chemscore.Hbonds>
donor molecule, donor type, donor heavy atom, donor atom, acceptor molecule, acceptor atom, score
      L1  H     3    20       P1 10957  0.93

> <Gold.Chemscore.Hbond.Weighted>
-3.3229

> <Gold.Chemscore.Metal.Weighted>
-0.0000

> <Gold.Chemscore.Lipo.Weighted>
-10.2156

> <Gold.Chemscore.Internal_Hbond.Weighted>
0.0000

> <Gold.Chemscore.DEClash.Weighted>
1.0122

> <Gold.Chemscore.DEInternal.Weighted>
0.5720

> <Gold.Chemscore.Rot.Weighted>
4.8883

> <Gold.Chemscore.Internal.Correction.Weighted>
   9.000000E+99

> <Gold.Protein.RotatedTorsions>
[ 6907 6896 6895 6894 ] final   10.12 input  -60.11 | X-H torsion
[ 7974 7965 7964 7962 ] final  -40.10 input  175.53 | X-H torsion
[ 8008 7997 7996 7995 ] final   39.90 input   59.86 | X-H torsion
[ 10167 10162 10161 10158 ] final  -10.20 input  -65.29 | X-H torsion
[ 10718 10713 10712 10709 ] final  172.28 input   66.30 | X-H torsion
[ 10763 10752 10751 10750 ] final   -1.19 input  -60.55 | X-H torsion
[ 11005 11000 10999 10996 ] final  175.00 input  -57.11 | X-H torsion

> <Gold.Protein.ActiveResidues>
 VAL166  LYS551  ARG553  GLY616  TRP617  ASP618  TYR619  PRO620  LYS621  CYS622 
 ASP623  PHE694  ASN695  SER759  ASP760  ASP761  ALA762  ILE779  LEU786  VAL792 
 PHE793  MET794  SER795  GLU796  ALA797  LYS798  CYS799  TRP800  GLU811  SER814 

> <Gold.Protein.RotatedAtoms>
  151.7332  135.0870  160.0303 H   0  0  0  0  0  0  0  0  0  0  0  0  # atno 6907 bound_to 6896
  152.3528  133.6196  159.5965 H   0  0  0  0  0  0  0  0  0  0  0  0  # atno 6908 bound_to 6896
  150.7551  133.9464  159.3513 H   0  0  0  0  0  0  0  0  0  0  0  0  # atno 6909 bound_to 6896
  146.0335  140.6701  142.9121 H   0  0  0  0  0  0  0  0  0  0  0  0  # atno 7974 bound_to 7965
  155.2442  140.3347  155.4289 H   0  0  0  0  0  0  0  0  0  0  0  0  # atno 8008 bound_to 7997
  156.2243  140.1822  156.7446 H   0  0  0  0  0  0  0  0  0  0  0  0  # atno 8009 bound_to 7997
  154.5874  140.0643  156.9175 H   0  0  0  0  0  0  0  0  0  0  0  0  # atno 8010 bound_to 7997
  140.7107  143.5774  150.9028 H   0  0  0  0  0  0  0  0  0  0  0  0  # atno 10167 bound_to 10162
  156.9813  131.0120  151.2881 H   0  0  0  0  0  0  0  0  0  0  0  0  # atno 10718 bound_to 10713
  153.3416  135.6981  153.6862 H   0  0  0  0  0  0  0  0  0  0  0  0  # atno 10763 bound_to 10752
  153.5625  135.3532  155.2805 H   0  0  0  0  0  0  0  0  0  0  0  0  # atno 10764 bound_to 10752
  154.8637  135.4252  154.2630 H   0  0  0  0  0  0  0  0  0  0  0  0  # atno 10765 bound_to 10752
  140.3574  134.7142  157.4308 H   0  0  0  0  0  0  0  0  0  0  0  0  # atno 11005 bound_to 11000
  144.7041  140.3779  143.7132 LP  0  0  0  0  0  0  0  0  0  0  0  0  # atno 17320 bound_to 7965
  145.7002  139.1659  143.2597 LP  0  0  0  0  0  0  0  0  0  0  0  0  # atno 17321 bound_to 7965
  139.9500  143.6283  152.3031 LP  0  0  0  0  0  0  0  0  0  0  0  0  # atno 17342 bound_to 10162
  139.6798  144.7656  151.1629 LP  0  0  0  0  0  0  0  0  0  0  0  0  # atno 17343 bound_to 10162
  157.5524  130.8191  149.8162 LP  0  0  0  0  0  0  0  0  0  0  0  0  # atno 17370 bound_to 10713
  156.0243  130.3784  150.1868 LP  0  0  0  0  0  0  0  0  0  0  0  0  # atno 17371 bound_to 10713
  140.0654  134.5937  155.8701 LP  0  0  0  0  0  0  0  0  0  0  0  0  # atno 17394 bound_to 11000
  141.1994  133.6607  156.5843 LP  0  0  0  0  0  0  0  0  0  0  0  0  # atno 17395 bound_to 11000

$$$$
