AV-unprocessed.smi:34|AV-procd|sdf|220|dock8
  -GOLD-   2262015533D 1   1.00000     0.00000
 Structure written by MMmdl.
 55 59  0  0  0  0  0  0  0  0  1 V2000
  151.0056  141.5398  156.5272 O   0  0  0  0  0  0  0  0  0  0  0  0
  151.6388  141.5286  157.5834 C   0  0  0  0  0  0  0  0  0  0  0  0
  152.4572  140.3973  157.9826 N   0  0  0  0  0  0  0  0  0  0  0  0
  152.6111  139.2120  157.3467 C   0  0  0  0  0  0  0  0  0  0  0  0
  153.8081  138.8018  156.8511 N   0  0  0  0  0  0  0  0  0  0  0  0
  153.9112  137.6208  156.2356 C   0  0  0  0  0  0  0  0  0  0  0  0
  152.9590  136.7138  156.0119 N   0  0  0  0  0  0  0  0  0  0  0  0
  151.7513  137.1177  156.4995 C   0  0  0  0  0  0  0  0  0  0  0  0
  151.4996  138.3467  157.1717 C   0  0  0  0  0  0  0  0  0  0  0  0
  150.1592  138.4230  157.5262 N   0  0  0  0  0  0  0  0  0  0  0  0
  149.6531  137.3011  157.0902 C   0  0  0  0  0  0  0  0  0  0  0  0
  150.5401  136.4529  156.4656 N   0  0  0  0  0  0  0  0  0  0  0  0
  150.2392  135.1022  155.8894 C   0  0  1  0  0  0  0  0  0  0  0  0
  148.8885  134.7965  156.0604 O   0  0  0  0  0  0  0  0  0  0  0  0
  148.3379  134.2177  154.8744 C   0  0  1  0  0  0  0  0  0  0  0  0
  147.3053  135.1865  154.2801 C   0  0  0  0  0  0  0  0  0  0  0  0
  146.7205  134.5976  153.1297 O   0  0  0  0  0  0  0  0  0  0  0  0
  145.3990  134.3356  153.0994 C   0  0  0  0  0  0  0  0  0  0  0  0
  144.6199  134.6443  154.0036 O   0  0  0  0  0  0  0  0  0  0  0  0
  144.9770  133.6252  151.8582 C   0  0  0  0  0  0  0  0  0  0  0  0
  143.6149  133.2864  151.6828 C   0  0  0  0  0  0  0  0  0  0  0  0
  143.1864  132.6147  150.5213 C   0  0  0  0  0  0  0  0  0  0  0  0
  144.1152  132.2740  149.5207 C   0  0  0  0  0  0  0  0  0  0  0  0
  145.4731  132.6049  149.6834 C   0  0  0  0  0  0  0  0  0  0  0  0
  145.9036  133.2755  150.8449 C   0  0  0  0  0  0  0  0  0  0  0  0
  149.5280  133.9877  153.9360 C   0  0  2  0  0  0  0  0  0  0  0  0
  150.0152  132.7607  154.1298 F   0  0  0  0  0  0  0  0  0  0  0  0
  150.5528  135.0090  154.3910 C   0  0  1  0  0  0  0  0  0  0  0  0
  150.4177  136.2327  153.6905 O   0  0  0  0  0  0  0  0  0  0  0  0
  151.6802  142.7241  158.4897 C   0  0  0  0  0  0  0  0  0  0  0  0
  152.1523  142.5897  159.8148 C   0  0  0  0  0  0  0  0  0  0  0  0
  152.2069  143.7080  160.6694 C   0  0  0  0  0  0  0  0  0  0  0  0
  151.7985  144.9718  160.2034 C   0  0  0  0  0  0  0  0  0  0  0  0
  151.3390  145.1173  158.8808 C   0  0  0  0  0  0  0  0  0  0  0  0
  151.2828  143.9995  158.0255 C   0  0  0  0  0  0  0  0  0  0  0  0
  152.9797  140.5107  158.8391 H   0  0  0  0  0  0  0  0  0  0  0  0
  154.8958  137.3654  155.8720 H   0  0  0  0  0  0  0  0  0  0  0  0
  148.6093  137.0546  157.2203 H   0  0  0  0  0  0  0  0  0  0  0  0
  150.8336  134.4067  156.4835 H   0  0  0  0  0  0  0  0  0  0  0  0
  147.8505  133.2710  155.1118 H   0  0  0  0  0  0  0  0  0  0  0  0
  146.5489  135.4374  155.0240 H   0  0  0  0  0  0  0  0  0  0  0  0
  147.7894  136.1180  153.9853 H   0  0  0  0  0  0  0  0  0  0  0  0
  142.8835  133.5382  152.4372 H   0  0  0  0  0  0  0  0  0  0  0  0
  142.1438  132.3611  150.3985 H   0  0  0  0  0  0  0  0  0  0  0  0
  143.7867  131.7594  148.6299 H   0  0  0  0  0  0  0  0  0  0  0  0
  146.1868  132.3445  148.9157 H   0  0  0  0  0  0  0  0  0  0  0  0
  146.9532  133.5127  150.9392 H   0  0  0  0  0  0  0  0  0  0  0  0
  149.2744  134.0608  152.8775 H   0  0  0  0  0  0  0  0  0  0  0  0
  151.5755  134.6555  154.2544 H   0  0  0  0  0  0  0  0  0  0  0  0
  150.7442  136.1120  152.8117 H   0  0  0  0  0  0  0  0  0  0  0  0
  152.4707  141.6266  160.1871 H   0  0  0  0  0  0  0  0  0  0  0  0
  152.5633  143.5954  161.6827 H   0  0  0  0  0  0  0  0  0  0  0  0
  151.8410  145.8292  160.8587 H   0  0  0  0  0  0  0  0  0  0  0  0
  151.0316  146.0881  158.5207 H   0  0  0  0  0  0  0  0  0  0  0  0
  150.9354  144.1349  157.0116 H   0  0  0  0  0  0  0  0  0  0  0  0
  1  2  2  0  0  0  0
  2  3  1  0  0  0  0
  2 30  1  0  0  0  0
  3  4  1  0  0  0  0
  3 36  1  0  0  0  0
  4  9  1  0  0  0  0
  4  5  2  0  0  0  0
  5  6  1  0  0  0  0
  6  7  2  0  0  0  0
  6 37  1  0  0  0  0
  7  8  1  0  0  0  0
  8 12  1  0  0  0  0
  8  9  2  0  0  0  0
  9 10  1  0  0  0  0
 10 11  2  0  0  0  0
 11 12  1  0  0  0  0
 11 38  1  0  0  0  0
 12 13  1  0  0  0  0
 13 28  1  0  0  0  0
 13 14  1  0  0  0  0
 13 39  1  0  0  0  0
 14 15  1  0  0  0  0
 15 16  1  0  0  0  0
 15 26  1  0  0  0  0
 15 40  1  0  0  0  0
 16 17  1  0  0  0  0
 16 41  1  0  0  0  0
 16 42  1  0  0  0  0
 17 18  1  0  0  0  0
 18 19  2  0  0  0  0
 18 20  1  0  0  0  0
 20 25  1  0  0  0  0
 20 21  2  0  0  0  0
 21 22  1  0  0  0  0
 21 43  1  0  0  0  0
 22 23  2  0  0  0  0
 22 44  1  0  0  0  0
 23 24  1  0  0  0  0
 23 45  1  0  0  0  0
 24 25  2  0  0  0  0
 24 46  1  0  0  0  0
 25 47  1  0  0  0  0
 26 27  1  0  0  0  0
 26 28  1  0  0  0  0
 26 48  1  0  0  0  0
 28 29  1  0  0  0  0
 28 49  1  0  0  0  0
 29 50  1  0  0  0  0
 30 35  1  0  0  0  0
 30 31  2  0  0  0  0
 31 32  1  0  0  0  0
 31 51  1  0  0  0  0
 32 33  2  0  0  0  0
 32 52  1  0  0  0  0
 33 34  1  0  0  0  0
 33 53  1  0  0  0  0
 34 35  2  0  0  0  0
 34 54  1  0  0  0  0
 35 55  1  0  0  0  0
M  END
> <s_m_source_file>
AV-unprocessed.smi

> <i_m_source_file_index>
34

> <i_lp_mmshare_version>
43012

> <i_f3d_flags>
0

> <s_epik_input>
W2NIXTFbY0hdW2NIXVtjSF1bY0hdYzFDKD1PKVtOSF1jKG5bY0hdbjIpYyhjMjMpbltjSF1uM1tDQEBIXTRPW0NASF0oW0NAQEhdKEYpW0NASF00W09IXSlbQ0gyXU9DKD1PKWM1W2NIXVtjSF1bY0hdW2NIXVtjSF01

> <s_epik_cmdline>
J2VwaWtfcHl0aG9uJywgJy1waCcsICc3LjAnLCAnLXRuJywgJzgnLCAnLW1hJywgJzIwMCcsICctbWV0YWxfYmluZGluZycsICctaW1hZScsICc8aW5maWxlLm1hZT4nLCAnLW9tYWUnLCAnPG91dGZpbGUubWFlPic=

> <r_lp_tautomer_probability>
1

> <r_epik_Ionization_Penalty>
0.00257489

> <r_epik_Ionization_Penalty_Charging>
0

> <r_epik_Ionization_Penalty_Neutral>
0.00257489

> <r_epik_State_Penalty>
0.00519398

> <r_epik_Charging_Adjusted_Penalty>
0.00519398

> <i_epik_Tot_Q>
0

> <i_epik_Tot_abs_Q>
0

> <r_epik_Metal_State_Penalty>
0.335891

> <b_epik_Metal_Only>
0

> <s_epik_Chemistry_Notes>
This compound has an ester and may undergo hydrolysis at high or low pH. This compound contains an acetal/aminal-like group ( X-CH(R)-Y where X, Y are N, S, or O) that may be acid/base labile, releasing an aldehyde.

> <s_lp_Force_Field>
OPLS_2005

> <r_lp_Energy>
51.6643

> <b_lp_Chiralities_Consistent>
1

> <s_lp_Variant>
AV-unprocessed.smi:34-6

> <Gold.Version>
5.8.1

> <Gold.Id.Protein>
6NUR|6NUR_protein|mol2

> <Gold.PLP.Fitness>
64.6100

> <Gold.PLP.PLP>
-57.7013

> <Gold.PLP.part.hbond>
-4.2330

> <Gold.PLP.part.metal>
0.0000

> <Gold.PLP.part.buried>
-8.0743

> <Gold.PLP.part.nonpolar>
-45.6599

> <Gold.PLP.part.repulsive>
0.8548

> <Gold.PLP.ligand.clash>
0.0000

> <Gold.PLP.ligand.torsion>
1.1252

> <Gold.PLP.Chemscore.Hbond>
3.0000

> <Gold.PLP.Chemscore.CHOScore>
0.0000

> <Gold.PLP.Chemscore.Metal>
0.0000

> <Gold.Chemscore.Hbonds>
donor molecule, donor type, donor heavy atom, donor atom, acceptor molecule, acceptor atom, score
      L1  H    29    50       P1  7949  0.22
      P1  H  7997  8009       L1     5  0.54
      P1  H 10752 10765       L1     7  0.67

> <Gold.PLP.Chemscore.Internal.Correction>
0.1592

> <Gold.Rescore>
     Score         DG    S(hbond)    S(metal)    S(lipo)     H(rot)  DE(clash)    DE(int)     intcor
     19.63     -20.61       1.97        0.00     132.65       2.72       0.05       0.93       ----

> <Gold.Chemscore.Fitness>
19.6252

> <Gold.Chemscore.DG>
-20.6106

> <Gold.Chemscore.ZeroCoef>
-5.4800

> <Gold.Chemscore.Hbond>
1.9695

> <Gold.Chemscore.Metal>
0.0000

> <Gold.Chemscore.Lipo>
132.6461

> <Gold.Chemscore.Internal_Hbond>
0.0000

> <Gold.Chemscore.DEClash>
0.0512

> <Gold.Chemscore.DEInternal>
0.9342

> <Gold.Chemscore.Rot>
2.7215

> <Gold.Chemscore.Internal.Correction>
   9.000000E+99

> <Gold.Chemscore.Hbonds>
donor molecule, donor type, donor heavy atom, donor atom, acceptor molecule, acceptor atom, score
      P1  H  7997  8009       L1     5  0.21
      P1  H 10752 10765       L1     7  0.55

> <Gold.Chemscore.Hbond.Weighted>
-6.5781

> <Gold.Chemscore.Metal.Weighted>
-0.0000

> <Gold.Chemscore.Lipo.Weighted>
-15.5196

> <Gold.Chemscore.Internal_Hbond.Weighted>
0.0000

> <Gold.Chemscore.DEClash.Weighted>
0.0512

> <Gold.Chemscore.DEInternal.Weighted>
0.9342

> <Gold.Chemscore.Rot.Weighted>
6.9670

> <Gold.Chemscore.Internal.Correction.Weighted>
   9.000000E+99

> <Gold.Protein.RotatedTorsions>
[ 6907 6896 6895 6894 ] final -140.84 input  -60.11 | X-H torsion
[ 7974 7965 7964 7962 ] final -127.23 input  175.53 | X-H torsion
[ 8008 7997 7996 7995 ] final  147.87 input   59.86 | X-H torsion
[ 10167 10162 10161 10158 ] final  112.82 input  -65.29 | X-H torsion
[ 10718 10713 10712 10709 ] final   94.62 input   66.30 | X-H torsion
[ 10763 10752 10751 10750 ] final -122.12 input  -60.55 | X-H torsion
[ 11005 11000 10999 10996 ] final  165.47 input  -57.11 | X-H torsion

> <Gold.Protein.ActiveResidues>
 VAL166  LYS551  ARG553  GLY616  TRP617  ASP618  TYR619  PRO620  LYS621  CYS622 
 ASP623  PHE694  ASN695  SER759  ASP760  ASP761  ALA762  ILE779  LEU786  VAL792 
 PHE793  MET794  SER795  GLU796  ALA797  LYS798  CYS799  TRP800  GLU811  SER814 

> <Gold.Protein.RotatedAtoms>
  151.0659  133.5506  159.2630 H   0  0  0  0  0  0  0  0  0  0  0  0  # atno 6907 bound_to 6896
  151.2463  135.0606  159.9054 H   0  0  0  0  0  0  0  0  0  0  0  0  # atno 6908 bound_to 6896
  152.5404  134.0426  159.8128 H   0  0  0  0  0  0  0  0  0  0  0  0  # atno 6909 bound_to 6896
  144.9792  140.7623  143.4622 H   0  0  0  0  0  0  0  0  0  0  0  0  # atno 7974 bound_to 7965
  156.2810  140.2144  156.5606 H   0  0  0  0  0  0  0  0  0  0  0  0  # atno 8008 bound_to 7997
  154.7216  140.0503  157.0667 H   0  0  0  0  0  0  0  0  0  0  0  0  # atno 8009 bound_to 7997
  155.0471  140.3152  155.4707 H   0  0  0  0  0  0  0  0  0  0  0  0  # atno 8010 bound_to 7997
  139.6507  144.7128  151.2054 H   0  0  0  0  0  0  0  0  0  0  0  0  # atno 10167 bound_to 10162
  157.6946  131.0518  150.4214 H   0  0  0  0  0  0  0  0  0  0  0  0  # atno 10718 bound_to 10713
  154.8683  135.4144  154.2730 H   0  0  0  0  0  0  0  0  0  0  0  0  # atno 10763 bound_to 10752
  153.3637  135.7004  153.6698 H   0  0  0  0  0  0  0  0  0  0  0  0  # atno 10764 bound_to 10752
  153.5588  135.3614  155.2763 H   0  0  0  0  0  0  0  0  0  0  0  0  # atno 10765 bound_to 10752
  140.2564  134.7936  157.3550 H   0  0  0  0  0  0  0  0  0  0  0  0  # atno 11005 bound_to 11000
  145.2445  139.2058  143.4975 LP  0  0  0  0  0  0  0  0  0  0  0  0  # atno 17320 bound_to 7965
  146.3403  140.2347  142.8594 LP  0  0  0  0  0  0  0  0  0  0  0  0  # atno 17321 bound_to 7965
  140.7536  143.6155  150.8564 LP  0  0  0  0  0  0  0  0  0  0  0  0  # atno 17342 bound_to 10162
  139.9803  143.5959  152.2945 LP  0  0  0  0  0  0  0  0  0  0  0  0  # atno 17343 bound_to 10162
  156.4588  130.4027  149.6589 LP  0  0  0  0  0  0  0  0  0  0  0  0  # atno 17370 bound_to 10713
  156.3711  130.7531  151.2514 LP  0  0  0  0  0  0  0  0  0  0  0  0  # atno 17371 bound_to 10713
  140.1507  134.4853  155.7963 LP  0  0  0  0  0  0  0  0  0  0  0  0  # atno 17394 bound_to 11000
  141.2195  133.6861  156.7373 LP  0  0  0  0  0  0  0  0  0  0  0  0  # atno 17395 bound_to 11000

$$$$
