AV-unprocessed.smi:1533|AV-procd|sdf|6163|dock4
  -GOLD-   22720 6313D 1   1.00000     0.00000
 Structure written by MMmdl.
 37 39  0  0  0  0  0  0  0  0  1 V2000
  155.7056  136.2190  164.1099 C   0  0  0  0  0  0  0  0  0  0  0  0
  155.0774  136.2487  162.7590 C   0  0  0  0  0  0  0  0  0  0  0  0
  155.0820  135.1756  161.9779 N   0  0  0  0  0  0  0  0  0  0  0  0
  154.4019  135.6085  160.8307 O   0  0  0  0  0  0  0  0  0  0  0  0
  154.0769  136.9041  161.0603 C   0  0  0  0  0  0  0  0  0  0  0  0
  153.2738  137.6416  160.0379 C   0  0  0  0  0  0  0  0  0  0  0  0
  153.9992  138.8559  159.4270 C   0  0  0  0  0  0  0  0  0  0  0  0
  153.4021  140.1276  159.8290 N   0  0  0  0  0  0  0  0  0  0  0  0
  152.5970  140.8873  159.0692 C   0  0  0  0  0  0  0  0  0  0  0  0
  152.2659  140.5771  157.9241 O   0  0  0  0  0  0  0  0  0  0  0  0
  152.1349  142.2147  159.6953 C   0  0  1  0  0  0  0  0  0  0  0  0
  153.1060  143.4017  159.4787 C   0  0  0  0  0  0  0  0  0  0  0  0
  152.1932  144.4906  158.8837 C   0  0  1  0  0  0  0  0  0  0  0  0
  151.8376  144.1261  157.4303 C   0  0  0  0  0  0  0  0  0  0  0  0
  150.8265  142.9783  157.6060 C   0  0  0  0  0  0  0  0  0  0  0  0
  150.8010  142.7787  159.1375 C   0  0  2  0  0  0  0  0  0  0  0  0
  150.8778  144.2280  159.6087 C   0  0  0  0  0  0  0  0  0  0  0  0
  154.4678  137.3543  162.2499 N   0  0  0  0  0  0  0  0  0  0  0  0
  156.7612  135.9581  164.0305 H   0  0  0  0  0  0  0  0  0  0  0  0
  155.2104  135.4798  164.7401 H   0  0  0  0  0  0  0  0  0  0  0  0
  155.6269  137.1928  164.5940 H   0  0  0  0  0  0  0  0  0  0  0  0
  153.0002  136.9434  159.2462 H   0  0  0  0  0  0  0  0  0  0  0  0
  152.3390  137.9629  160.4986 H   0  0  0  0  0  0  0  0  0  0  0  0
  155.0591  138.8282  159.6860 H   0  0  0  0  0  0  0  0  0  0  0  0
  153.9530  138.7946  158.3397 H   0  0  0  0  0  0  0  0  0  0  0  0
  153.6291  140.4633  160.7538 H   0  0  0  0  0  0  0  0  0  0  0  0
  152.0227  142.0618  160.7705 H   0  0  0  0  0  0  0  0  0  0  0  0
  153.5165  143.7291  160.4348 H   0  0  0  0  0  0  0  0  0  0  0  0
  153.9517  143.1793  158.8264 H   0  0  0  0  0  0  0  0  0  0  0  0
  152.5890  145.5003  158.9960 H   0  0  0  0  0  0  0  0  0  0  0  0
  151.3752  144.9695  156.9162 H   0  0  0  0  0  0  0  0  0  0  0  0
  152.7141  143.8227  156.8562 H   0  0  0  0  0  0  0  0  0  0  0  0
  149.8429  143.2896  157.2522 H   0  0  0  0  0  0  0  0  0  0  0  0
  151.0952  142.0841  157.0452 H   0  0  0  0  0  0  0  0  0  0  0  0
  149.9215  142.2405  159.4926 H   0  0  0  0  0  0  0  0  0  0  0  0
  150.9525  144.3305  160.6928 H   0  0  0  0  0  0  0  0  0  0  0  0
  150.0538  144.8469  159.2483 H   0  0  0  0  0  0  0  0  0  0  0  0
  1  2  1  0  0  0  0
  1 19  1  0  0  0  0
  1 20  1  0  0  0  0
  1 21  1  0  0  0  0
  2 18  1  0  0  0  0
  2  3  2  0  0  0  0
  3  4  1  0  0  0  0
  4  5  1  0  0  0  0
  5  6  1  0  0  0  0
  5 18  2  0  0  0  0
  6  7  1  0  0  0  0
  6 22  1  0  0  0  0
  6 23  1  0  0  0  0
  7  8  1  0  0  0  0
  7 24  1  0  0  0  0
  7 25  1  0  0  0  0
  8  9  1  0  0  0  0
  8 26  1  0  0  0  0
  9 10  2  0  0  0  0
  9 11  1  0  0  0  0
 11 16  1  0  0  0  0
 11 12  1  0  0  0  0
 11 27  1  0  0  0  0
 12 13  1  0  0  0  0
 12 28  1  0  0  0  0
 12 29  1  0  0  0  0
 13 17  1  0  0  0  0
 13 14  1  0  0  0  0
 13 30  1  0  0  0  0
 14 15  1  0  0  0  0
 14 31  1  0  0  0  0
 14 32  1  0  0  0  0
 15 16  1  0  0  0  0
 15 33  1  0  0  0  0
 15 34  1  0  0  0  0
 16 17  1  0  0  0  0
 16 35  1  0  0  0  0
 17 36  1  0  0  0  0
 17 37  1  0  0  0  0
M  END
> <s_m_source_file>
AV-unprocessed.smi

> <i_m_source_file_index>
1533

> <i_lp_mmshare_version>
43012

> <i_f3d_flags>
0

> <s_epik_input>
W0NIM11jMW5vYyhuMSlbQ0gyXVtDSDJdW05IXUMoPU8pW0NASF0oW0NIMl1bQ0BASF0yMylbQ0BASF0oW0NIMl0zKVtDSDJdW0NIMl0y

> <s_epik_cmdline>
J2VwaWtfcHl0aG9uJywgJy1waCcsICc3LjAnLCAnLXRuJywgJzgnLCAnLW1hJywgJzIwMCcsICctbWV0YWxfYmluZGluZycsICctaW1hZScsICc8aW5maWxlLm1hZT4nLCAnLW9tYWUnLCAnPG91dGZpbGUubWFlPic=

> <r_lp_tautomer_probability>
1

> <r_epik_Ionization_Penalty>
1.90116e-08

> <r_epik_Ionization_Penalty_Charging>
0

> <r_epik_Ionization_Penalty_Neutral>
1.90116e-08

> <r_epik_State_Penalty>
-0

> <r_epik_Charging_Adjusted_Penalty>
0

> <i_epik_Tot_Q>
0

> <i_epik_Tot_abs_Q>
0

> <r_epik_Metal_State_Penalty>
-0

> <b_epik_Metal_Only>
0

> <s_lp_Force_Field>
OPLS_2005

> <r_lp_Energy>
44.7071

> <b_lp_Chiralities_Consistent>
1

> <s_lp_Variant>
AV-unprocessed.smi:1533-2

> <Gold.Version>
5.8.1

> <Gold.Id.Protein>
6NUR|6NUR_protein|mol2

> <Gold.PLP.Fitness>
37.4667

> <Gold.PLP.PLP>
-35.9853

> <Gold.PLP.part.hbond>
-1.9237

> <Gold.PLP.part.metal>
0.0000

> <Gold.PLP.part.buried>
-2.9975

> <Gold.PLP.part.nonpolar>
-30.3739

> <Gold.PLP.part.repulsive>
0.0862

> <Gold.PLP.ligand.clash>
0.0000

> <Gold.PLP.ligand.torsion>
1.2175

> <Gold.PLP.Chemscore.Hbond>
1.2987

> <Gold.PLP.Chemscore.CHOScore>
0.0000

> <Gold.PLP.Chemscore.Metal>
0.0000

> <Gold.Chemscore.Hbonds>
donor molecule, donor type, donor heavy atom, donor atom, acceptor molecule, acceptor atom, score
      P1  H  6896  6907       L1     4  0.31

> <Gold.PLP.Chemscore.Internal.Correction>
0.0202

> <Gold.Rescore>
     Score         DG    S(hbond)    S(metal)    S(lipo)     H(rot)  DE(clash)    DE(int)     intcor
     13.81     -16.29       1.32        0.00      95.15       1.85       0.15       2.33       ----

> <Gold.Chemscore.Fitness>
13.8056

> <Gold.Chemscore.DG>
-16.2899

> <Gold.Chemscore.ZeroCoef>
-5.4800

> <Gold.Chemscore.Hbond>
1.3204

> <Gold.Chemscore.Metal>
0.0000

> <Gold.Chemscore.Lipo>
95.1547

> <Gold.Chemscore.Internal_Hbond>
0.0000

> <Gold.Chemscore.DEClash>
0.1541

> <Gold.Chemscore.DEInternal>
2.3302

> <Gold.Chemscore.Rot>
1.8490

> <Gold.Chemscore.Internal.Correction>
   9.000000E+99

> <Gold.Chemscore.Hbonds>
donor molecule, donor type, donor heavy atom, donor atom, acceptor molecule, acceptor atom, score
      P1  H  6896  6907       L1     4  0.15

> <Gold.Chemscore.Hbond.Weighted>
-4.4102

> <Gold.Chemscore.Metal.Weighted>
-0.0000

> <Gold.Chemscore.Lipo.Weighted>
-11.1331

> <Gold.Chemscore.Internal_Hbond.Weighted>
0.0000

> <Gold.Chemscore.DEClash.Weighted>
0.1541

> <Gold.Chemscore.DEInternal.Weighted>
2.3302

> <Gold.Chemscore.Rot.Weighted>
4.7334

> <Gold.Chemscore.Internal.Correction.Weighted>
   9.000000E+99

> <Gold.Protein.RotatedTorsions>
[ 6907 6896 6895 6894 ] final   60.82 input  -60.11 | X-H torsion
[ 7974 7965 7964 7962 ] final   98.14 input  175.53 | X-H torsion
[ 8008 7997 7996 7995 ] final  166.99 input   59.86 | X-H torsion
[ 10167 10162 10161 10158 ] final  158.09 input  -65.29 | X-H torsion
[ 10718 10713 10712 10709 ] final   -1.91 input   66.30 | X-H torsion
[ 10763 10752 10751 10750 ] final   55.49 input  -60.55 | X-H torsion
[ 11005 11000 10999 10996 ] final -143.88 input  -57.11 | X-H torsion

> <Gold.Protein.ActiveResidues>
 VAL166  LYS551  ARG553  GLY616  TRP617  ASP618  TYR619  PRO620  LYS621  CYS622 
 ASP623  PHE694  ASN695  SER759  ASP760  ASP761  ALA762  ILE779  LEU786  VAL792 
 PHE793  MET794  SER795  GLU796  ALA797  LYS798  CYS799  TRP800  GLU811  SER814 

> <Gold.Protein.RotatedAtoms>
  152.4036  134.6244  160.0059 H   0  0  0  0  0  0  0  0  0  0  0  0  # atno 6907 bound_to 6896
  151.6442  133.3318  159.3145 H   0  0  0  0  0  0  0  0  0  0  0  0  # atno 6908 bound_to 6896
  150.7934  134.7017  159.6598 H   0  0  0  0  0  0  0  0  0  0  0  0  # atno 6909 bound_to 6896
  145.4161  139.2327  143.3221 H   0  0  0  0  0  0  0  0  0  0  0  0  # atno 7974 bound_to 7965
  156.1672  140.1629  156.8511 H   0  0  0  0  0  0  0  0  0  0  0  0  # atno 8008 bound_to 7997
  154.5219  140.0776  156.8223 H   0  0  0  0  0  0  0  0  0  0  0  0  # atno 8009 bound_to 7997
  155.3587  140.3394  155.4242 H   0  0  0  0  0  0  0  0  0  0  0  0  # atno 8010 bound_to 7997
  139.4825  144.4857  151.8381 H   0  0  0  0  0  0  0  0  0  0  0  0  # atno 10167 bound_to 10162
  156.7987  130.5386  149.5725 H   0  0  0  0  0  0  0  0  0  0  0  0  # atno 10718 bound_to 10713
  152.9817  135.5709  154.5075 H   0  0  0  0  0  0  0  0  0  0  0  0  # atno 10763 bound_to 10752
  154.4584  135.2780  155.1733 H   0  0  0  0  0  0  0  0  0  0  0  0  # atno 10764 bound_to 10752
  154.3331  135.6245  153.5614 H   0  0  0  0  0  0  0  0  0  0  0  0  # atno 10765 bound_to 10752
  140.8081  134.2777  157.4952 H   0  0  0  0  0  0  0  0  0  0  0  0  # atno 11005 bound_to 11000
  146.2680  140.4879  142.8826 LP  0  0  0  0  0  0  0  0  0  0  0  0  # atno 17320 bound_to 7965
  144.8276  140.6654  143.6312 LP  0  0  0  0  0  0  0  0  0  0  0  0  # atno 17321 bound_to 7965
  140.4337  144.2081  150.5888 LP  0  0  0  0  0  0  0  0  0  0  0  0  # atno 17342 bound_to 10162
  140.4754  143.2398  151.9031 LP  0  0  0  0  0  0  0  0  0  0  0  0  # atno 17343 bound_to 10162
  156.1114  130.6043  151.0054 LP  0  0  0  0  0  0  0  0  0  0  0  0  # atno 17370 bound_to 10713
  157.6564  131.0888  150.7936 LP  0  0  0  0  0  0  0  0  0  0  0  0  # atno 17371 bound_to 10713
  139.8716  134.9467  156.3947 LP  0  0  0  0  0  0  0  0  0  0  0  0  # atno 17394 bound_to 11000
  140.9226  133.7634  155.9925 LP  0  0  0  0  0  0  0  0  0  0  0  0  # atno 17395 bound_to 11000

$$$$
