AV-unprocessed.smi:2061|AV-procd|sdf|8378|dock7
  -GOLD-   2272011 53D 1   1.00000     0.00000
 Structure written by MMmdl.
 44 45  0  0  0  0  0  0  0  0  2 V2000
  143.6675  145.4424  153.8993 C   0  0  0  0  0  0  0  0  0  0  0  0
  144.6823  144.3985  154.2188 C   0  0  0  0  0  0  0  0  0  0  0  0
  145.6021  143.7345  153.4579 C   0  0  0  0  0  0  0  0  0  0  0  0
  146.2459  142.8821  154.3963 C   0  0  0  0  0  0  0  0  0  0  0  0
  147.2282  142.0086  154.1261 N   0  5  0  0  0  0  0  0  0  0  0  0
  147.8935  141.3964  155.1327 C   0  0  0  0  0  0  0  0  0  0  0  0
  147.8515  140.1964  155.4140 O   0  0  0  0  0  0  0  0  0  0  0  0
  148.6516  142.2281  155.8619 N   0  0  0  0  0  0  0  0  0  0  0  0
  149.4631  141.8564  157.0189 C   0  0  0  0  0  0  0  0  0  0  0  0
  150.9945  141.8917  156.7396 C   0  0  2  0  0  0  0  0  0  0  0  0
  151.4383  140.5009  156.2174 C   0  0  0  0  0  0  0  0  0  0  0  0
  151.7946  142.3492  157.9007 N   0  0  0  0  0  0  0  0  0  0  0  0
  151.3844  143.6740  158.3755 C   0  0  0  0  0  0  0  0  0  0  0  0
  152.2187  144.1686  159.5706 C   0  0  1  0  0  0  0  0  0  0  0  0
  151.7180  145.5156  160.1031 C   0  0  0  0  0  0  0  0  0  0  0  0
  152.1421  143.2213  160.6304 O   0  0  0  0  0  0  0  0  0  0  0  0
  152.5197  141.8943  160.2712 C   0  0  2  0  0  0  0  0  0  0  0  0
  154.0429  141.7556  160.1051 C   0  0  0  0  0  0  0  0  0  0  0  0
  151.7250  141.4228  159.0368 C   0  0  0  0  0  0  0  0  0  0  0  0
  145.7482  143.0054  155.6153 N   0  0  0  0  0  0  0  0  0  0  0  0
  144.7485  143.9798  155.5111 O   0  0  0  0  0  0  0  0  0  0  0  0
  142.8176  145.0048  153.3755 H   0  0  0  0  0  0  0  0  0  0  0  0
  144.0966  146.2159  153.2623 H   0  0  0  0  0  0  0  0  0  0  0  0
  143.2967  145.9205  154.8063 H   0  0  0  0  0  0  0  0  0  0  0  0
  145.7884  143.8423  152.4000 H   0  0  0  0  0  0  0  0  0  0  0  0
  148.6576  143.2016  155.5956 H   0  0  0  0  0  0  0  0  0  0  0  0
  149.1762  142.5275  157.8270 H   0  0  0  0  0  0  0  0  0  0  0  0
  149.1663  140.8549  157.3315 H   0  0  0  0  0  0  0  0  0  0  0  0
  151.1552  142.6007  155.9259 H   0  0  0  0  0  0  0  0  0  0  0  0
  150.8126  140.1431  155.4005 H   0  0  0  0  0  0  0  0  0  0  0  0
  151.4011  139.7523  157.0094 H   0  0  0  0  0  0  0  0  0  0  0  0
  152.4483  140.5136  155.8108 H   0  0  0  0  0  0  0  0  0  0  0  0
  151.4957  144.4150  157.5866 H   0  0  0  0  0  0  0  0  0  0  0  0
  150.3276  143.6565  158.6466 H   0  0  0  0  0  0  0  0  0  0  0  0
  153.2581  144.2886  159.2638 H   0  0  0  0  0  0  0  0  0  0  0  0
  151.7684  146.2860  159.3332 H   0  0  0  0  0  0  0  0  0  0  0  0
  152.3226  145.8494  160.9467 H   0  0  0  0  0  0  0  0  0  0  0  0
  150.6836  145.4468  160.4412 H   0  0  0  0  0  0  0  0  0  0  0  0
  152.2354  141.2603  161.1113 H   0  0  0  0  0  0  0  0  0  0  0  0
  154.3219  140.7131  159.9504 H   0  0  0  0  0  0  0  0  0  0  0  0
  154.5646  142.1084  160.9950 H   0  0  0  0  0  0  0  0  0  0  0  0
  154.4161  142.3205  159.2512 H   0  0  0  0  0  0  0  0  0  0  0  0
  150.6813  141.2795  159.3215 H   0  0  0  0  0  0  0  0  0  0  0  0
  152.1112  140.4427  158.7658 H   0  0  0  0  0  0  0  0  0  0  0  0
  1  2  1  0  0  0  0
  1 22  1  0  0  0  0
  1 23  1  0  0  0  0
  1 24  1  0  0  0  0
  2 21  1  0  0  0  0
  2  3  2  0  0  0  0
  3  4  1  0  0  0  0
  3 25  1  0  0  0  0
  4  5  1  0  0  0  0
  4 20  2  0  0  0  0
  5  6  1  0  0  0  0
  6  7  2  0  0  0  0
  6  8  1  0  0  0  0
  8  9  1  0  0  0  0
  8 26  1  0  0  0  0
  9 10  1  0  0  0  0
  9 27  1  0  0  0  0
  9 28  1  0  0  0  0
 10 11  1  0  0  0  0
 10 12  1  0  0  0  0
 10 29  1  0  0  0  0
 11 30  1  0  0  0  0
 11 31  1  0  0  0  0
 11 32  1  0  0  0  0
 12 19  1  0  0  0  0
 12 13  1  0  0  0  0
 13 14  1  0  0  0  0
 13 33  1  0  0  0  0
 13 34  1  0  0  0  0
 14 15  1  0  0  0  0
 14 16  1  0  0  0  0
 14 35  1  0  0  0  0
 15 36  1  0  0  0  0
 15 37  1  0  0  0  0
 15 38  1  0  0  0  0
 16 17  1  0  0  0  0
 17 18  1  0  0  0  0
 17 19  1  0  0  0  0
 17 39  1  0  0  0  0
 18 40  1  0  0  0  0
 18 41  1  0  0  0  0
 18 42  1  0  0  0  0
 19 43  1  0  0  0  0
 19 44  1  0  0  0  0
 20 21  1  0  0  0  0
M  CHG  1   5  -1
M  END
> <s_m_source_file>
AV-unprocessed.smi

> <i_m_source_file_index>
2061

> <i_lp_mmshare_version>
43012

> <i_f3d_flags>
0

> <s_epik_input>
W0NIM11jMVtjSF1jKG5vMSlbTkhdQyg9TylbTkhdW0NIMl1bQ0BIXShbQ0gzXSlOMltDSDJdW0NAQEhdKFtDSDNdKU9bQ0BASF0oW0NIM10pW0NIMl0y

> <s_epik_cmdline>
J2VwaWtfcHl0aG9uJywgJy1waCcsICc3LjAnLCAnLXRuJywgJzgnLCAnLW1hJywgJzIwMCcsICctbWV0YWxfYmluZGluZycsICctaW1hZScsICc8aW5maWxlLm1hZT4nLCAnLW9tYWUnLCAnPG91dGZpbGUubWFlPic=

> <r_epik_Ionization_Penalty>
6.88367

> <r_epik_Ionization_Penalty_Charging>
6.57198

> <r_epik_Ionization_Penalty_Neutral>
0.311681

> <r_epik_State_Penalty>
6.77619

> <r_epik_Charging_Adjusted_Penalty>
13.3482

> <i_epik_Tot_Q>
-1

> <i_epik_Tot_abs_Q>
1

> <r_epik_Metal_State_Penalty>
2.70524

> <b_epik_Metal_Only>
1

> <s_lp_Force_Field>
OPLS_2005

> <r_lp_Energy>
23.679

> <b_lp_Chiralities_Consistent>
1

> <s_lp_Variant>
AV-unprocessed.smi:2061-19

> <Gold.Version>
5.8.1

> <Gold.Id.Protein>
6NUR|6NUR_protein|mol2

> <Gold.PLP.Fitness>
45.1902

> <Gold.PLP.PLP>
-44.4996

> <Gold.PLP.part.hbond>
-0.9053

> <Gold.PLP.part.metal>
0.0000

> <Gold.PLP.part.buried>
-7.1895

> <Gold.PLP.part.nonpolar>
-37.6712

> <Gold.PLP.part.repulsive>
0.6994

> <Gold.PLP.ligand.clash>
0.0000

> <Gold.PLP.ligand.torsion>
1.1592

> <Gold.PLP.Chemscore.Hbond>
0.9913

> <Gold.PLP.Chemscore.CHOScore>
0.0000

> <Gold.PLP.Chemscore.Metal>
0.0000

> <Gold.Chemscore.Hbonds>
donor molecule, donor type, donor heavy atom, donor atom, acceptor molecule, acceptor atom, score
      L1  H     8    26       P1  8028  0.99

> <Gold.PLP.Chemscore.Internal.Correction>
0.0352

> <Gold.Rescore>
     Score         DG    S(hbond)    S(metal)    S(lipo)     H(rot)  DE(clash)    DE(int)     intcor
     15.91     -17.21       1.00        0.00     105.01       1.52       0.09       1.22       ----

> <Gold.Chemscore.Fitness>
15.9070

> <Gold.Chemscore.DG>
-17.2099

> <Gold.Chemscore.ZeroCoef>
-5.4800

> <Gold.Chemscore.Hbond>
0.9978

> <Gold.Chemscore.Metal>
0.0000

> <Gold.Chemscore.Lipo>
105.0071

> <Gold.Chemscore.Internal_Hbond>
0.0000

> <Gold.Chemscore.DEClash>
0.0858

> <Gold.Chemscore.DEInternal>
1.2172

> <Gold.Chemscore.Rot>
1.5190

> <Gold.Chemscore.Internal.Correction>
   9.000000E+99

> <Gold.Chemscore.Hbonds>
donor molecule, donor type, donor heavy atom, donor atom, acceptor molecule, acceptor atom, score
      L1  H     8    26       P1  8028  0.92

> <Gold.Chemscore.Hbond.Weighted>
-3.3327

> <Gold.Chemscore.Metal.Weighted>
-0.0000

> <Gold.Chemscore.Lipo.Weighted>
-12.2858

> <Gold.Chemscore.Internal_Hbond.Weighted>
0.0000

> <Gold.Chemscore.DEClash.Weighted>
0.0858

> <Gold.Chemscore.DEInternal.Weighted>
1.2172

> <Gold.Chemscore.Rot.Weighted>
3.8886

> <Gold.Chemscore.Internal.Correction.Weighted>
   9.000000E+99

> <Gold.Protein.RotatedTorsions>
[ 6907 6896 6895 6894 ] final   53.36 input  -60.11 | X-H torsion
[ 7974 7965 7964 7962 ] final -166.01 input  175.53 | X-H torsion
[ 8008 7997 7996 7995 ] final -115.82 input   59.86 | X-H torsion
[ 10167 10162 10161 10158 ] final  131.34 input  -65.29 | X-H torsion
[ 10718 10713 10712 10709 ] final   95.85 input   66.30 | X-H torsion
[ 10763 10752 10751 10750 ] final   70.87 input  -60.55 | X-H torsion
[ 11005 11000 10999 10996 ] final  -39.24 input  -57.11 | X-H torsion

> <Gold.Protein.ActiveResidues>
 VAL166  LYS551  ARG553  GLY616  TRP617  ASP618  TYR619  PRO620  LYS621  CYS622 
 ASP623  PHE694  ASN695  SER759  ASP760  ASP761  ALA762  ILE779  LEU786  VAL792 
 PHE793  MET794  SER795  GLU796  ALA797  LYS798  CYS799  TRP800  GLU811  SER814 

> <Gold.Protein.RotatedAtoms>
  152.3328  134.7236  160.0284 H   0  0  0  0  0  0  0  0  0  0  0  0  # atno 6907 bound_to 6896
  151.7647  133.3331  159.3436 H   0  0  0  0  0  0  0  0  0  0  0  0  # atno 6908 bound_to 6896
  150.7433  134.6005  159.6079 H   0  0  0  0  0  0  0  0  0  0  0  0  # atno 6909 bound_to 6896
  144.7255  140.2729  143.6248 H   0  0  0  0  0  0  0  0  0  0  0  0  # atno 7974 bound_to 7965
  155.0580  140.0393  157.2567 H   0  0  0  0  0  0  0  0  0  0  0  0  # atno 8008 bound_to 7997
  154.7083  140.2687  155.6629 H   0  0  0  0  0  0  0  0  0  0  0  0  # atno 8009 bound_to 7997
  156.2782  140.2727  156.1716 H   0  0  0  0  0  0  0  0  0  0  0  0  # atno 8010 bound_to 7997
  139.5388  144.6710  151.4693 H   0  0  0  0  0  0  0  0  0  0  0  0  # atno 10167 bound_to 10162
  157.6934  131.0559  150.4402 H   0  0  0  0  0  0  0  0  0  0  0  0  # atno 10718 bound_to 10713
  153.0366  135.5158  154.7507 H   0  0  0  0  0  0  0  0  0  0  0  0  # atno 10763 bound_to 10752
  154.6478  135.2921  155.0026 H   0  0  0  0  0  0  0  0  0  0  0  0  # atno 10764 bound_to 10752
  154.0921  135.6648  153.4907 H   0  0  0  0  0  0  0  0  0  0  0  0  # atno 10765 bound_to 10752
  141.0087  133.6918  156.2160 H   0  0  0  0  0  0  0  0  0  0  0  0  # atno 11005 bound_to 11000
  145.8025  139.1970  143.2040 LP  0  0  0  0  0  0  0  0  0  0  0  0  # atno 17320 bound_to 7965
  146.0664  140.7916  142.9709 LP  0  0  0  0  0  0  0  0  0  0  0  0  # atno 17321 bound_to 7965
  140.6608  143.8501  150.6886 LP  0  0  0  0  0  0  0  0  0  0  0  0  # atno 17342 bound_to 10162
  140.1895  143.4048  152.1873 LP  0  0  0  0  0  0  0  0  0  0  0  0  # atno 17343 bound_to 10162
  156.4762  130.4063  149.6489 LP  0  0  0  0  0  0  0  0  0  0  0  0  # atno 17370 bound_to 10713
  156.3551  130.7452  151.2417 LP  0  0  0  0  0  0  0  0  0  0  0  0  # atno 17371 bound_to 10713
  140.6769  134.4808  157.5588 LP  0  0  0  0  0  0  0  0  0  0  0  0  # atno 17394 bound_to 11000
  139.9078  134.8411  156.1641 LP  0  0  0  0  0  0  0  0  0  0  0  0  # atno 17395 bound_to 11000

$$$$
