AV-unprocessed.smi:331|AV-procd|sdf|2350|dock1
  -GOLD-   2262022263D 1   1.00000     0.00000
 Structure written by MMmdl.
 36 37  0  0  0  0  0  0  0  0  1 V2000
  147.8216  144.1824  161.2167 O   0  0  0  0  0  0  0  0  0  0  0  0
  147.8468  144.8314  160.1728 C   0  0  0  0  0  0  0  0  0  0  0  0
  146.7898  145.5097  159.6967 N   0  0  0  0  0  0  0  0  0  0  0  0
  145.4516  145.4944  160.2769 C   0  0  0  0  0  0  0  0  0  0  0  0
  144.4540  146.3331  159.4554 C   0  0  0  0  0  0  0  0  0  0  0  0
  144.9887  147.7068  159.0870 C   0  0  0  0  0  0  0  0  0  0  0  0
  145.0716  148.1164  157.7397 C   0  0  0  0  0  0  0  0  0  0  0  0
  145.5921  149.3919  157.4493 C   0  0  0  0  0  0  0  0  0  0  0  0
  146.0053  150.2073  158.5218 C   0  0  0  0  0  0  0  0  0  0  0  0
  145.9290  149.8266  159.8153 N   0  0  0  0  0  0  0  0  0  0  0  0
  145.4295  148.6013  160.0851 C   0  0  0  0  0  0  0  0  0  0  0  0
  148.9546  144.9187  159.4154 N   0  0  0  0  0  0  0  0  0  0  0  0
  150.2603  144.3001  159.6583 C   0  0  0  0  0  0  0  0  0  0  0  0
  151.3365  145.3762  159.8973 C   0  0  0  0  0  0  0  0  0  0  0  0
  152.5331  144.9769  159.0327 C   0  0  0  0  0  0  0  0  0  0  0  0
  151.9106  144.2570  157.8411 C   0  0  0  0  0  0  0  0  0  0  0  0
  150.7391  143.4798  158.4428 C   0  0  0  0  0  0  0  0  0  0  0  0
  146.9080  146.0292  158.8391 H   0  0  0  0  0  0  0  0  0  0  0  0
  145.0917  144.4704  160.3869 H   0  0  0  0  0  0  0  0  0  0  0  0
  145.5278  145.9037  161.2846 H   0  0  0  0  0  0  0  0  0  0  0  0
  144.1899  145.8000  158.5410 H   0  0  0  0  0  0  0  0  0  0  0  0
  143.5249  146.4515  160.0140 H   0  0  0  0  0  0  0  0  0  0  0  0
  144.7512  147.4626  156.9417 H   0  0  0  0  0  0  0  0  0  0  0  0
  145.6735  149.7370  156.4293 H   0  0  0  0  0  0  0  0  0  0  0  0
  146.4095  151.1915  158.3354 H   0  0  0  0  0  0  0  0  0  0  0  0
  145.3862  148.3241  161.1281 H   0  0  0  0  0  0  0  0  0  0  0  0
  148.9051  145.5363  158.6179 H   0  0  0  0  0  0  0  0  0  0  0  0
  150.2085  143.6547  160.5374 H   0  0  0  0  0  0  0  0  0  0  0  0
  150.9798  146.3560  159.5743 H   0  0  0  0  0  0  0  0  0  0  0  0
  151.6050  145.4632  160.9507 H   0  0  0  0  0  0  0  0  0  0  0  0
  153.1415  145.8321  158.7373 H   0  0  0  0  0  0  0  0  0  0  0  0
  153.1726  144.2871  159.5851 H   0  0  0  0  0  0  0  0  0  0  0  0
  151.5368  144.9895  157.1242 H   0  0  0  0  0  0  0  0  0  0  0  0
  152.6199  143.6124  157.3208 H   0  0  0  0  0  0  0  0  0  0  0  0
  151.0919  142.5063  158.7856 H   0  0  0  0  0  0  0  0  0  0  0  0
  149.9556  143.2943  157.7067 H   0  0  0  0  0  0  0  0  0  0  0  0
  1  2  2  0  0  0  0
  2  3  1  0  0  0  0
  2 12  1  0  0  0  0
  3  4  1  0  0  0  0
  3 18  1  0  0  0  0
  4  5  1  0  0  0  0
  4 19  1  0  0  0  0
  4 20  1  0  0  0  0
  5  6  1  0  0  0  0
  5 21  1  0  0  0  0
  5 22  1  0  0  0  0
  6 11  1  0  0  0  0
  6  7  2  0  0  0  0
  7  8  1  0  0  0  0
  7 23  1  0  0  0  0
  8  9  2  0  0  0  0
  8 24  1  0  0  0  0
  9 10  1  0  0  0  0
  9 25  1  0  0  0  0
 10 11  2  0  0  0  0
 11 26  1  0  0  0  0
 12 13  1  0  0  0  0
 12 27  1  0  0  0  0
 13 17  1  0  0  0  0
 13 14  1  0  0  0  0
 13 28  1  0  0  0  0
 14 15  1  0  0  0  0
 14 29  1  0  0  0  0
 14 30  1  0  0  0  0
 15 16  1  0  0  0  0
 15 31  1  0  0  0  0
 15 32  1  0  0  0  0
 16 17  1  0  0  0  0
 16 33  1  0  0  0  0
 16 34  1  0  0  0  0
 17 35  1  0  0  0  0
 17 36  1  0  0  0  0
M  END
> <s_m_source_file>
AV-unprocessed.smi

> <i_m_source_file_index>
331

> <i_lp_mmshare_version>
43012

> <i_f3d_flags>
0

> <s_epik_input>
W0NIMl0xW0NIMl1bQ0gyXVtDSDJdW0NIXTFbTkhdQyg9TylbTkhdW0NIMl1bQ0gyXWMyW2NIXVtjSF1bY0hdbltjSF0y

> <s_epik_cmdline>
J2VwaWtfcHl0aG9uJywgJy1waCcsICc3LjAnLCAnLXRuJywgJzgnLCAnLW1hJywgJzIwMCcsICctbWV0YWxfYmluZGluZycsICctaW1hZScsICc8aW5maWxlLm1hZT4nLCAnLW9tYWUnLCAnPG91dGZpbGUubWFlPic=

> <r_epik_Ionization_Penalty>
0.0144384

> <r_epik_Ionization_Penalty_Charging>
0

> <r_epik_Ionization_Penalty_Neutral>
0.0144384

> <r_epik_State_Penalty>
0.0112394

> <r_epik_Charging_Adjusted_Penalty>
0.0112394

> <i_epik_Tot_Q>
0

> <i_epik_Tot_abs_Q>
0

> <r_epik_Metal_State_Penalty>
0.0109726

> <b_epik_Metal_Only>
0

> <s_lp_Force_Field>
OPLS_2005

> <r_lp_Energy>
25.692

> <b_lp_Chiralities_Consistent>
1

> <s_lp_Variant>
AV-unprocessed.smi:331-1

> <Gold.Version>
5.8.1

> <Gold.Id.Protein>
6NUR|6NUR_protein|mol2

> <Gold.PLP.Fitness>
49.6567

> <Gold.PLP.PLP>
-41.1445

> <Gold.PLP.part.hbond>
-3.0000

> <Gold.PLP.part.metal>
0.0000

> <Gold.PLP.part.buried>
-7.4890

> <Gold.PLP.part.nonpolar>
-32.3089

> <Gold.PLP.part.repulsive>
0.4545

> <Gold.PLP.ligand.clash>
0.0000

> <Gold.PLP.ligand.torsion>
0.0839

> <Gold.PLP.Chemscore.Hbond>
2.8880

> <Gold.PLP.Chemscore.CHOScore>
0.0000

> <Gold.PLP.Chemscore.Metal>
0.0000

> <Gold.Chemscore.Hbonds>
donor molecule, donor type, donor heavy atom, donor atom, acceptor molecule, acceptor atom, score
      L1  H     3    18       P1  8029  0.82
      L1  H    12    27       P1  8029  0.86
      P1  H  6933  6944       L1     1  1.00

> <Gold.PLP.Chemscore.Internal.Correction>
0.0161

> <Gold.Rescore>
     Score         DG    S(hbond)    S(metal)    S(lipo)     H(rot)  DE(clash)    DE(int)     intcor
     23.53     -23.69       2.82        0.00     107.94       1.51       0.04       0.11       ----

> <Gold.Chemscore.Fitness>
23.5306

> <Gold.Chemscore.DG>
-23.6853

> <Gold.Chemscore.ZeroCoef>
-5.4800

> <Gold.Chemscore.Hbond>
2.8238

> <Gold.Chemscore.Metal>
0.0000

> <Gold.Chemscore.Lipo>
107.9416

> <Gold.Chemscore.Internal_Hbond>
0.0000

> <Gold.Chemscore.DEClash>
0.0406

> <Gold.Chemscore.DEInternal>
0.1141

> <Gold.Chemscore.Rot>
1.5060

> <Gold.Chemscore.Internal.Correction>
   9.000000E+99

> <Gold.Chemscore.Hbonds>
donor molecule, donor type, donor heavy atom, donor atom, acceptor molecule, acceptor atom, score
      L1  H     3    18       P1  8029  0.81
      L1  H    12    27       P1  8029  0.85
      P1  H  6933  6944       L1     1  0.98

> <Gold.Chemscore.Hbond.Weighted>
-9.4314

> <Gold.Chemscore.Metal.Weighted>
-0.0000

> <Gold.Chemscore.Lipo.Weighted>
-12.6292

> <Gold.Chemscore.Internal_Hbond.Weighted>
0.0000

> <Gold.Chemscore.DEClash.Weighted>
0.0406

> <Gold.Chemscore.DEInternal.Weighted>
0.1141

> <Gold.Chemscore.Rot.Weighted>
3.8553

> <Gold.Chemscore.Internal.Correction.Weighted>
   9.000000E+99

> <Gold.Protein.RotatedTorsions>
[ 6907 6896 6895 6894 ] final  -54.88 input  -60.11 | X-H torsion
[ 7974 7965 7964 7962 ] final   44.46 input  175.53 | X-H torsion
[ 8008 7997 7996 7995 ] final   57.90 input   59.86 | X-H torsion
[ 10167 10162 10161 10158 ] final -127.98 input  -65.29 | X-H torsion
[ 10718 10713 10712 10709 ] final -171.88 input   66.30 | X-H torsion
[ 10763 10752 10751 10750 ] final -134.84 input  -60.55 | X-H torsion
[ 11005 11000 10999 10996 ] final -167.10 input  -57.11 | X-H torsion

> <Gold.Protein.ActiveResidues>
 VAL166  LYS551  ARG553  GLY616  TRP617  ASP618  TYR619  PRO620  LYS621  CYS622 
 ASP623  PHE694  ASN695  SER759  ASP760  ASP761  ALA762  ILE779  LEU786  VAL792 
 PHE793  MET794  SER795  GLU796  ALA797  LYS798  CYS799  TRP800  GLU811  SER814 

> <Gold.Protein.RotatedAtoms>
  150.8299  134.7548  159.6844 H   0  0  0  0  0  0  0  0  0  0  0  0  # atno 6907 bound_to 6896
  152.4405  134.5597  159.9900 H   0  0  0  0  0  0  0  0  0  0  0  0  # atno 6908 bound_to 6896
  151.5760  133.3346  159.3035 H   0  0  0  0  0  0  0  0  0  0  0  0  # atno 6909 bound_to 6896
  146.0566  139.5072  142.9685 H   0  0  0  0  0  0  0  0  0  0  0  0  # atno 7974 bound_to 7965
  155.5413  140.3484  155.4447 H   0  0  0  0  0  0  0  0  0  0  0  0  # atno 8008 bound_to 7997
  156.0649  140.1349  156.9924 H   0  0  0  0  0  0  0  0  0  0  0  0  # atno 8009 bound_to 7997
  154.4498  140.0977  156.6557 H   0  0  0  0  0  0  0  0  0  0  0  0  # atno 8010 bound_to 7997
  139.9551  143.6012  152.2463 H   0  0  0  0  0  0  0  0  0  0  0  0  # atno 10167 bound_to 10162
  156.7474  130.9365  151.3113 H   0  0  0  0  0  0  0  0  0  0  0  0  # atno 10718 bound_to 10713
  154.8713  135.3722  154.4800 H   0  0  0  0  0  0  0  0  0  0  0  0  # atno 10763 bound_to 10752
  153.5454  135.7026  153.5621 H   0  0  0  0  0  0  0  0  0  0  0  0  # atno 10764 bound_to 10752
  153.3764  135.4008  155.1790 H   0  0  0  0  0  0  0  0  0  0  0  0  # atno 10765 bound_to 10752
  140.5571  134.5370  157.5135 H   0  0  0  0  0  0  0  0  0  0  0  0  # atno 11005 bound_to 11000
  145.6633  141.0235  143.1697 LP  0  0  0  0  0  0  0  0  0  0  0  0  # atno 17320 bound_to 7965
  144.7151  139.8225  143.7401 LP  0  0  0  0  0  0  0  0  0  0  0  0  # atno 17321 bound_to 7965
  139.6598  144.7662  151.1985 LP  0  0  0  0  0  0  0  0  0  0  0  0  # atno 17342 bound_to 10162
  140.7571  143.6028  150.8682 LP  0  0  0  0  0  0  0  0  0  0  0  0  # atno 17343 bound_to 10162
  157.6792  130.9123  150.0225 LP  0  0  0  0  0  0  0  0  0  0  0  0  # atno 17370 bound_to 10713
  156.1424  130.3642  149.9562 LP  0  0  0  0  0  0  0  0  0  0  0  0  # atno 17371 bound_to 10713
  139.9426  134.7759  156.0640 LP  0  0  0  0  0  0  0  0  0  0  0  0  # atno 17394 bound_to 11000
  141.1137  133.6635  156.3041 LP  0  0  0  0  0  0  0  0  0  0  0  0  # atno 17395 bound_to 11000

$$$$
