AV-unprocessed.smi:3054|AV-procd|sdf|11639|dock1
  -GOLD-   2272017 33D 1   1.00000     0.00000
 Structure written by MMmdl.
 40 41  0  0  0  0  0  0  0  0  2 V2000
  147.9943  141.6807  154.0311 C   0  0  0  0  0  0  0  0  0  0  0  0
  147.0816  140.4596  154.2250 C   0  0  0  0  0  0  0  0  0  0  0  0
  147.3768  139.2714  153.2692 C   0  0  2  0  0  0  0  0  0  0  0  0
  146.1420  138.3562  153.0683 C   0  0  0  0  0  0  0  0  0  0  0  0
  146.4784  137.1365  152.3407 N   0  0  0  0  0  0  0  0  0  0  0  0
  145.5893  136.2419  151.8887 C   0  0  0  0  0  0  0  0  0  0  0  0
  144.3736  136.3512  152.0468 O   0  0  0  0  0  0  0  0  0  0  0  0
  146.1982  135.2297  151.2502 N   0  0  0  0  0  0  0  0  0  0  0  0
  145.5843  134.1058  150.6431 C   0  0  0  0  0  0  0  0  0  0  0  0
  146.1549  132.8491  150.2843 C   0  0  0  0  0  0  0  0  0  0  0  0
  145.2507  132.0519  149.7331 N   0  0  0  0  0  0  0  0  0  0  0  0
  144.1139  132.7836  149.7362 N   0  0  0  0  0  0  0  0  0  0  0  0
  144.2721  134.0389  150.2806 C   0  0  0  0  0  0  0  0  0  0  0  0
  148.5721  138.4980  153.7194 N   0  3  0  0  0  0  0  0  0  0  0  0
  149.8074  139.2829  153.9340 C   0  0  0  0  0  0  0  0  0  0  0  0
  150.6865  138.4025  154.8142 C   0  0  0  0  0  0  0  0  0  0  0  0
  149.6815  137.7363  155.7466 C   0  0  0  0  0  0  0  0  0  0  0  0
  148.3759  137.6768  154.9415 C   0  0  0  0  0  0  0  0  0  0  0  0
  143.2483  132.4162  149.3673 H   0  0  0  0  0  0  0  0  0  0  0  0
  147.7075  142.4845  154.7095 H   0  0  0  0  0  0  0  0  0  0  0  0
  147.9316  142.0711  153.0152 H   0  0  0  0  0  0  0  0  0  0  0  0
  149.0373  141.4403  154.2371 H   0  0  0  0  0  0  0  0  0  0  0  0
  147.1626  140.1277  155.2605 H   0  0  0  0  0  0  0  0  0  0  0  0
  146.0447  140.7787  154.1227 H   0  0  0  0  0  0  0  0  0  0  0  0
  147.6244  139.6942  152.2939 H   0  0  0  0  0  0  0  0  0  0  0  0
  145.7291  138.0430  154.0271 H   0  0  0  0  0  0  0  0  0  0  0  0
  145.3516  138.9090  152.5576 H   0  0  0  0  0  0  0  0  0  0  0  0
  147.4575  136.9622  152.1669 H   0  0  0  0  0  0  0  0  0  0  0  0
  147.2053  135.2650  151.1928 H   0  0  0  0  0  0  0  0  0  0  0  0
  147.1663  132.4888  150.3978 H   0  0  0  0  0  0  0  0  0  0  0  0
  143.4625  134.7495  150.3585 H   0  0  0  0  0  0  0  0  0  0  0  0
  150.2991  139.5382  152.9947 H   0  0  0  0  0  0  0  0  0  0  0  0
  149.5701  140.2091  154.4606 H   0  0  0  0  0  0  0  0  0  0  0  0
  151.1847  137.6475  154.2045 H   0  0  0  0  0  0  0  0  0  0  0  0
  151.4530  138.9656  155.3479 H   0  0  0  0  0  0  0  0  0  0  0  0
  150.0139  136.7527  156.0803 H   0  0  0  0  0  0  0  0  0  0  0  0
  149.5376  138.3555  156.6332 H   0  0  0  0  0  0  0  0  0  0  0  0
  147.5541  138.0519  155.5532 H   0  0  0  0  0  0  0  0  0  0  0  0
  148.1343  136.6539  154.6511 H   0  0  0  0  0  0  0  0  0  0  0  0
  148.7922  137.8447  152.9809 H   0  0  0  0  0  0  0  0  0  0  0  0
  1  2  1  0  0  0  0
  1 20  1  0  0  0  0
  1 21  1  0  0  0  0
  1 22  1  0  0  0  0
  2  3  1  0  0  0  0
  2 23  1  0  0  0  0
  2 24  1  0  0  0  0
  3  4  1  0  0  0  0
  3 14  1  0  0  0  0
  3 25  1  0  0  0  0
  4  5  1  0  0  0  0
  4 26  1  0  0  0  0
  4 27  1  0  0  0  0
  5  6  1  0  0  0  0
  5 28  1  0  0  0  0
  6  7  2  0  0  0  0
  6  8  1  0  0  0  0
  8  9  1  0  0  0  0
  8 29  1  0  0  0  0
  9 13  2  0  0  0  0
  9 10  1  0  0  0  0
 10 11  2  0  0  0  0
 10 30  1  0  0  0  0
 11 12  1  0  0  0  0
 12 19  1  0  0  0  0
 12 13  1  0  0  0  0
 13 31  1  0  0  0  0
 14 18  1  0  0  0  0
 14 15  1  0  0  0  0
 14 40  1  0  0  0  0
 15 16  1  0  0  0  0
 15 32  1  0  0  0  0
 15 33  1  0  0  0  0
 16 17  1  0  0  0  0
 16 34  1  0  0  0  0
 16 35  1  0  0  0  0
 17 18  1  0  0  0  0
 17 36  1  0  0  0  0
 17 37  1  0  0  0  0
 18 38  1  0  0  0  0
 18 39  1  0  0  0  0
M  CHG  1  14   1
M  END
> <s_m_source_file>
AV-unprocessed.smi

> <i_m_source_file_index>
3054

> <i_lp_mmshare_version>
43012

> <i_f3d_flags>
0

> <s_epik_input>
W0NIMl0xW0NIMl1bQ0gyXVtDSDJdTjFbQ0BIXShbQ0gyXVtDSDNdKVtDSDJdW05IXUMoPU8pW05IXWMyW2NIXW5bbkhdW2NIXTI=

> <s_epik_cmdline>
J2VwaWtfcHl0aG9uJywgJy1waCcsICc3LjAnLCAnLXRuJywgJzgnLCAnLW1hJywgJzIwMCcsICctbWV0YWxfYmluZGluZycsICctaW1hZScsICc8aW5maWxlLm1hZT4nLCAnLW9tYWUnLCAnPG91dGZpbGUubWFlPic=

> <r_lp_tautomer_probability>
0.5

> <r_epik_Ionization_Penalty>
0.00108132

> <r_epik_Ionization_Penalty_Charging>
0.00104139

> <r_epik_Ionization_Penalty_Neutral>
3.99244e-05

> <r_epik_State_Penalty>
0.00068071

> <r_epik_Charging_Adjusted_Penalty>
0.0017221

> <i_epik_Tot_Q>
1

> <i_epik_Tot_abs_Q>
1

> <r_epik_Metal_State_Penalty>
-0

> <b_epik_Metal_Only>
0

> <s_lp_Force_Field>
OPLS_2005

> <r_lp_Energy>
36.476

> <b_lp_Chiralities_Consistent>
1

> <s_lp_Variant>
AV-unprocessed.smi:3054-1

> <Gold.Version>
5.8.1

> <Gold.Id.Protein>
6NUR|6NUR_protein|mol2

> <Gold.PLP.Fitness>
43.3619

> <Gold.PLP.PLP>
-26.9084

> <Gold.PLP.part.hbond>
-3.5714

> <Gold.PLP.part.metal>
0.0000

> <Gold.PLP.part.buried>
-2.8311

> <Gold.PLP.part.nonpolar>
-21.9325

> <Gold.PLP.part.repulsive>
0.5597

> <Gold.PLP.ligand.clash>
0.0000

> <Gold.PLP.ligand.torsion>
0.4428

> <Gold.PLP.Chemscore.Hbond>
3.9516

> <Gold.PLP.Chemscore.CHOScore>
1.7427

> <Gold.PLP.Chemscore.Metal>
0.0000

> <Gold.Chemscore.Hbonds>
donor molecule, donor type, donor heavy atom, donor atom, acceptor molecule, acceptor atom, score
      L1  H     5    28       P1  7948  1.00
      L1  H     8    29       P1  7948  0.91
      L1  H    14    40       P1  7948  2.00
      L1  C    10    30       P1 10747  1.00
      L1  C    13    31       P1 10186  0.80

> <Gold.PLP.Chemscore.Internal.Correction>
0.2562

> <Gold.Rescore>
     Score         DG    S(hbond)    S(metal)    S(lipo)     H(rot)  DE(clash)    DE(int)     intcor
     15.49     -17.37       2.68        0.00      64.61       1.81       0.05       1.83       ----

> <Gold.Chemscore.Fitness>
15.4923

> <Gold.Chemscore.DG>
-17.3702

> <Gold.Chemscore.ZeroCoef>
-5.4800

> <Gold.Chemscore.Hbond>
2.6835

> <Gold.Chemscore.Metal>
0.0000

> <Gold.Chemscore.Lipo>
64.6099

> <Gold.Chemscore.Internal_Hbond>
0.0000

> <Gold.Chemscore.DEClash>
0.0480

> <Gold.Chemscore.DEInternal>
1.8299

> <Gold.Chemscore.Rot>
1.8094

> <Gold.Chemscore.Internal.Correction>
   9.000000E+99

> <Gold.Chemscore.Hbonds>
donor molecule, donor type, donor heavy atom, donor atom, acceptor molecule, acceptor atom, score
      L1  H     5    28       P1  7948  1.00
      L1  H     8    29       P1  7948  0.61
      L1  H    14    40       P1  7948  0.99

> <Gold.Chemscore.Hbond.Weighted>
-8.9630

> <Gold.Chemscore.Metal.Weighted>
-0.0000

> <Gold.Chemscore.Lipo.Weighted>
-7.5594

> <Gold.Chemscore.Internal_Hbond.Weighted>
0.0000

> <Gold.Chemscore.DEClash.Weighted>
0.0480

> <Gold.Chemscore.DEInternal.Weighted>
1.8299

> <Gold.Chemscore.Rot.Weighted>
4.6322

> <Gold.Chemscore.Internal.Correction.Weighted>
   9.000000E+99

> <Gold.Protein.RotatedTorsions>
[ 6907 6896 6895 6894 ] final  120.19 input  -60.11 | X-H torsion
[ 7974 7965 7964 7962 ] final  -24.64 input  175.53 | X-H torsion
[ 8008 7997 7996 7995 ] final  -49.07 input   59.86 | X-H torsion
[ 10167 10162 10161 10158 ] final -168.60 input  -65.29 | X-H torsion
[ 10718 10713 10712 10709 ] final  179.99 input   66.30 | X-H torsion
[ 10763 10752 10751 10750 ] final -151.26 input  -60.55 | X-H torsion
[ 11005 11000 10999 10996 ] final   -3.53 input  -57.11 | X-H torsion

> <Gold.Protein.ActiveResidues>
 VAL166  LYS551  ARG553  GLY616  TRP617  ASP618  TYR619  PRO620  LYS621  CYS622 
 ASP623  PHE694  ASN695  SER759  ASP760  ASP761  ALA762  ILE779  LEU786  VAL792 
 PHE793  MET794  SER795  GLU796  ALA797  LYS798  CYS799  TRP800  GLU811  SER814 

> <Gold.Protein.RotatedAtoms>
  152.4416  133.7459  159.6666 H   0  0  0  0  0  0  0  0  0  0  0  0  # atno 6907 bound_to 6896
  150.8308  133.8084  159.3105 H   0  0  0  0  0  0  0  0  0  0  0  0  # atno 6908 bound_to 6896
  151.5738  135.1064  160.0053 H   0  0  0  0  0  0  0  0  0  0  0  0  # atno 6909 bound_to 6896
  146.1542  140.4779  142.8598 H   0  0  0  0  0  0  0  0  0  0  0  0  # atno 7974 bound_to 7965
  154.4038  140.1306  156.4442 H   0  0  0  0  0  0  0  0  0  0  0  0  # atno 8008 bound_to 7997
  155.7429  140.3489  155.5093 H   0  0  0  0  0  0  0  0  0  0  0  0  # atno 8009 bound_to 7997
  155.9022  140.1021  157.1331 H   0  0  0  0  0  0  0  0  0  0  0  0  # atno 8010 bound_to 7997
  139.5975  144.1081  152.1705 H   0  0  0  0  0  0  0  0  0  0  0  0  # atno 10167 bound_to 10162
  156.8676  130.9773  151.3077 H   0  0  0  0  0  0  0  0  0  0  0  0  # atno 10718 bound_to 10713
  154.8068  135.3264  154.7409 H   0  0  0  0  0  0  0  0  0  0  0  0  # atno 10763 bound_to 10752
  153.8066  135.6899  153.4851 H   0  0  0  0  0  0  0  0  0  0  0  0  # atno 10764 bound_to 10752
  153.1819  135.4583  154.9984 H   0  0  0  0  0  0  0  0  0  0  0  0  # atno 10765 bound_to 10752
  140.6703  133.9242  155.8490 H   0  0  0  0  0  0  0  0  0  0  0  0  # atno 11005 bound_to 11000
  144.7942  140.6090  143.6521 LP  0  0  0  0  0  0  0  0  0  0  0  0  # atno 17320 bound_to 7965
  145.4750  139.1500  143.3793 LP  0  0  0  0  0  0  0  0  0  0  0  0  # atno 17321 bound_to 7965
  140.0670  144.5810  150.7220 LP  0  0  0  0  0  0  0  0  0  0  0  0  # atno 17342 bound_to 10162
  140.7223  143.2601  151.4236 LP  0  0  0  0  0  0  0  0  0  0  0  0  # atno 17343 bound_to 10162
  157.6214  130.8658  149.9115 LP  0  0  0  0  0  0  0  0  0  0  0  0  # atno 17370 bound_to 10713
  156.0743  130.3681  150.0710 LP  0  0  0  0  0  0  0  0  0  0  0  0  # atno 17371 bound_to 10713
  141.0397  134.0639  157.3916 LP  0  0  0  0  0  0  0  0  0  0  0  0  # atno 17394 bound_to 11000
  139.8984  135.0154  156.7145 LP  0  0  0  0  0  0  0  0  0  0  0  0  # atno 17395 bound_to 11000

$$$$
