AV-unprocessed.smi:3162|AV-procd|sdf|12069|dock2
  -GOLD-   2272017503D 1   1.00000     0.00000
 Structure written by MMmdl.
 36 36  0  0  0  0  0  0  0  0  1 V2000
  147.4399  141.8269  154.0320 C   0  0  0  0  0  0  0  0  0  0  0  0
  148.6025  140.8213  154.0268 C   0  0  0  0  0  0  0  0  0  0  0  0
  148.1654  139.3395  154.0232 C   0  0  2  0  0  0  0  0  0  0  0  0
  149.3320  138.4887  153.7190 N   0  0  0  0  0  0  0  0  0  0  0  0
  150.2893  138.3012  154.8079 C   0  0  1  0  0  0  0  0  0  0  0  0
  150.9003  136.8897  154.7186 C   0  0  0  0  0  0  0  0  0  0  0  0
  151.3493  139.4157  154.6915 C   0  0  0  0  0  0  0  0  0  0  0  0
  151.4534  140.2237  155.8934 N   0  0  0  0  0  0  0  0  0  0  0  0
  150.7478  141.3602  156.2277 C   0  0  0  0  0  0  0  0  0  0  0  0
  151.1830  141.7676  157.4572 C   0  0  0  0  0  0  0  0  0  0  0  0
  150.7389  142.9514  158.2669 C   0  0  0  0  0  0  0  0  0  0  0  0
  152.1683  140.7974  157.7973 C   0  0  0  0  0  0  0  0  0  0  0  0
  152.3260  139.8745  156.8625 N   0  0  0  0  0  0  0  0  0  0  0  0
  146.9810  139.0942  153.0697 C   0  0  0  0  0  0  0  0  0  0  0  0
  147.1387  139.4552  151.7936 N   0  0  0  0  0  0  0  0  0  0  0  0
  145.9331  138.6025  153.4848 O   0  0  0  0  0  0  0  0  0  0  0  0
  147.8141  142.8477  154.1117 H   0  0  0  0  0  0  0  0  0  0  0  0
  146.7723  141.6525  154.8761 H   0  0  0  0  0  0  0  0  0  0  0  0
  146.8495  141.7671  153.1176 H   0  0  0  0  0  0  0  0  0  0  0  0
  149.2522  141.0243  153.1742 H   0  0  0  0  0  0  0  0  0  0  0  0
  149.2110  141.0069  154.9129 H   0  0  0  0  0  0  0  0  0  0  0  0
  147.8406  139.0961  155.0369 H   0  0  0  0  0  0  0  0  0  0  0  0
  149.0613  137.5966  153.3299 H   0  0  0  0  0  0  0  0  0  0  0  0
  149.7926  138.4168  155.7724 H   0  0  0  0  0  0  0  0  0  0  0  0
  151.5931  136.7059  155.5398 H   0  0  0  0  0  0  0  0  0  0  0  0
  151.4496  136.7542  153.7864 H   0  0  0  0  0  0  0  0  0  0  0  0
  150.1372  136.1135  154.7683 H   0  0  0  0  0  0  0  0  0  0  0  0
  152.3305  138.9873  154.4811 H   0  0  0  0  0  0  0  0  0  0  0  0
  151.1140  140.0779  153.8565 H   0  0  0  0  0  0  0  0  0  0  0  0
  150.0034  141.7821  155.5684 H   0  0  0  0  0  0  0  0  0  0  0  0
  150.7988  142.7540  159.3374 H   0  0  0  0  0  0  0  0  0  0  0  0
  149.7066  143.2267  158.0496 H   0  0  0  0  0  0  0  0  0  0  0  0
  151.3549  143.8282  158.0664 H   0  0  0  0  0  0  0  0  0  0  0  0
  152.7692  140.7362  158.6927 H   0  0  0  0  0  0  0  0  0  0  0  0
  146.3893  139.3098  151.1327 H   0  0  0  0  0  0  0  0  0  0  0  0
  148.0091  139.8697  151.4939 H   0  0  0  0  0  0  0  0  0  0  0  0
  1  2  1  0  0  0  0
  1 17  1  0  0  0  0
  1 18  1  0  0  0  0
  1 19  1  0  0  0  0
  2  3  1  0  0  0  0
  2 20  1  0  0  0  0
  2 21  1  0  0  0  0
  3  4  1  0  0  0  0
  3 14  1  0  0  0  0
  3 22  1  0  0  0  0
  4  5  1  0  0  0  0
  4 23  1  0  0  0  0
  5  6  1  0  0  0  0
  5  7  1  0  0  0  0
  5 24  1  0  0  0  0
  6 25  1  0  0  0  0
  6 26  1  0  0  0  0
  6 27  1  0  0  0  0
  7  8  1  0  0  0  0
  7 28  1  0  0  0  0
  7 29  1  0  0  0  0
  8 13  1  0  0  0  0
  8  9  1  0  0  0  0
  9 10  2  0  0  0  0
  9 30  1  0  0  0  0
 10 11  1  0  0  0  0
 10 12  1  0  0  0  0
 11 31  1  0  0  0  0
 11 32  1  0  0  0  0
 11 33  1  0  0  0  0
 12 13  2  0  0  0  0
 12 34  1  0  0  0  0
 14 15  1  0  0  0  0
 14 16  2  0  0  0  0
 15 35  1  0  0  0  0
 15 36  1  0  0  0  0
M  END
> <s_m_source_file>
AV-unprocessed.smi

> <i_m_source_file_index>
3162

> <i_lp_mmshare_version>
43012

> <i_f3d_flags>
0

> <s_epik_input>
W0NIM11bQ0gyXVtDQEBIXShDKD1PKVtOSDJdKVtOSF1bQ0BIXShbQ0gzXSlbQ0gyXW4xW2NIXWMoW0NIM10pW2NIXW4x

> <s_epik_cmdline>
J2VwaWtfcHl0aG9uJywgJy1waCcsICc3LjAnLCAnLXRuJywgJzgnLCAnLW1hJywgJzIwMCcsICctbWV0YWxfYmluZGluZycsICctaW1hZScsICc8aW5maWxlLm1hZT4nLCAnLW9tYWUnLCAnPG91dGZpbGUubWFlPic=

> <r_lp_tautomer_probability>
1

> <r_epik_Ionization_Penalty>
1.04167

> <r_epik_Ionization_Penalty_Charging>
0

> <r_epik_Ionization_Penalty_Neutral>
1.04167

> <r_epik_State_Penalty>
1.09367

> <r_epik_Charging_Adjusted_Penalty>
1.09367

> <i_epik_Tot_Q>
0

> <i_epik_Tot_abs_Q>
0

> <r_epik_Metal_State_Penalty>
1.09362

> <b_epik_Metal_Only>
0

> <s_lp_Force_Field>
OPLS_2005

> <r_lp_Energy>
3.23366

> <b_lp_Chiralities_Consistent>
1

> <s_lp_Variant>
AV-unprocessed.smi:3162-7

> <Gold.Version>
5.8.1

> <Gold.Id.Protein>
6NUR|6NUR_protein|mol2

> <Gold.PLP.Fitness>
37.9242

> <Gold.PLP.PLP>
-32.5365

> <Gold.PLP.part.hbond>
-3.8938

> <Gold.PLP.part.metal>
0.0000

> <Gold.PLP.part.buried>
-1.8981

> <Gold.PLP.part.nonpolar>
-28.1158

> <Gold.PLP.part.repulsive>
0.4127

> <Gold.PLP.ligand.clash>
0.0000

> <Gold.PLP.ligand.torsion>
1.8728

> <Gold.PLP.Chemscore.Hbond>
3.0000

> <Gold.PLP.Chemscore.CHOScore>
0.0000

> <Gold.PLP.Chemscore.Metal>
0.0000

> <Gold.Chemscore.Hbonds>
donor molecule, donor type, donor heavy atom, donor atom, acceptor molecule, acceptor atom, score
      L1  H     4    23       P1  7948  1.00
      L1  H    15    36       P1  7957  1.00
      P1  H  7997  8009       L1    13  0.88

> <Gold.PLP.Chemscore.Internal.Correction>
0.1332

> <Gold.Rescore>
     Score         DG    S(hbond)    S(metal)    S(lipo)     H(rot)  DE(clash)    DE(int)     intcor
     13.31     -16.69       2.72        0.00      71.47       2.43       1.53       1.84       ----

> <Gold.Chemscore.Fitness>
13.3115

> <Gold.Chemscore.DG>
-16.6867

> <Gold.Chemscore.ZeroCoef>
-5.4800

> <Gold.Chemscore.Hbond>
2.7164

> <Gold.Chemscore.Metal>
0.0000

> <Gold.Chemscore.Lipo>
71.4695

> <Gold.Chemscore.Internal_Hbond>
0.0000

> <Gold.Chemscore.DEClash>
1.5332

> <Gold.Chemscore.DEInternal>
1.8420

> <Gold.Chemscore.Rot>
2.4328

> <Gold.Chemscore.Internal.Correction>
   9.000000E+99

> <Gold.Chemscore.Hbonds>
donor molecule, donor type, donor heavy atom, donor atom, acceptor molecule, acceptor atom, score
      L1  H     4    23       P1  7948  0.94
      L1  H    15    36       P1  7957  0.98
      P1  H  7997  8009       L1    13  0.18

> <Gold.Chemscore.Hbond.Weighted>
-9.0727

> <Gold.Chemscore.Metal.Weighted>
-0.0000

> <Gold.Chemscore.Lipo.Weighted>
-8.3619

> <Gold.Chemscore.Internal_Hbond.Weighted>
0.0000

> <Gold.Chemscore.DEClash.Weighted>
1.5332

> <Gold.Chemscore.DEInternal.Weighted>
1.8420

> <Gold.Chemscore.Rot.Weighted>
6.2279

> <Gold.Chemscore.Internal.Correction.Weighted>
   9.000000E+99

> <Gold.Protein.RotatedTorsions>
[ 6907 6896 6895 6894 ] final -140.31 input  -60.11 | X-H torsion
[ 7974 7965 7964 7962 ] final  -95.39 input  175.53 | X-H torsion
[ 8008 7997 7996 7995 ] final -171.14 input   59.86 | X-H torsion
[ 10167 10162 10161 10158 ] final   85.58 input  -65.29 | X-H torsion
[ 10718 10713 10712 10709 ] final  -34.81 input   66.30 | X-H torsion
[ 10763 10752 10751 10750 ] final  101.05 input  -60.55 | X-H torsion
[ 11005 11000 10999 10996 ] final -117.49 input  -57.11 | X-H torsion

> <Gold.Protein.ActiveResidues>
 VAL166  LYS551  ARG553  GLY616  TRP617  ASP618  TYR619  PRO620  LYS621  CYS622 
 ASP623  PHE694  ASN695  SER759  ASP760  ASP761  ALA762  ILE779  LEU786  VAL792 
 PHE793  MET794  SER795  GLU796  ALA797  LYS798  CYS799  TRP800  GLU811  SER814 

> <Gold.Protein.RotatedAtoms>
  151.0590  133.5560  159.2635 H   0  0  0  0  0  0  0  0  0  0  0  0  # atno 6907 bound_to 6896
  151.2542  135.0632  159.9083 H   0  0  0  0  0  0  0  0  0  0  0  0  # atno 6908 bound_to 6896
  152.5394  134.0346  159.8094 H   0  0  0  0  0  0  0  0  0  0  0  0  # atno 6909 bound_to 6896
  145.3607  140.9491  143.2502 H   0  0  0  0  0  0  0  0  0  0  0  0  # atno 7974 bound_to 7965
  155.9277  140.1085  157.1157 H   0  0  0  0  0  0  0  0  0  0  0  0  # atno 8008 bound_to 7997
  154.4065  140.1243  156.4827 H   0  0  0  0  0  0  0  0  0  0  0  0  # atno 8009 bound_to 7997
  155.7119  140.3471  155.4980 H   0  0  0  0  0  0  0  0  0  0  0  0  # atno 8010 bound_to 7997
  139.8963  144.6356  150.8685 H   0  0  0  0  0  0  0  0  0  0  0  0  # atno 10167 bound_to 10162
  156.3461  130.4301  149.7745 H   0  0  0  0  0  0  0  0  0  0  0  0  # atno 10718 bound_to 10713
  153.3217  135.4058  155.1422 H   0  0  0  0  0  0  0  0  0  0  0  0  # atno 10763 bound_to 10752
  154.8602  135.3589  154.5588 H   0  0  0  0  0  0  0  0  0  0  0  0  # atno 10764 bound_to 10752
  153.6021  135.7070  153.5439 H   0  0  0  0  0  0  0  0  0  0  0  0  # atno 10765 bound_to 10752
  141.0351  133.9921  157.3083 H   0  0  0  0  0  0  0  0  0  0  0  0  # atno 11005 bound_to 11000
  144.8648  139.5124  143.6795 LP  0  0  0  0  0  0  0  0  0  0  0  0  # atno 17320 bound_to 7965
  146.2928  139.7190  142.9148 LP  0  0  0  0  0  0  0  0  0  0  0  0  # atno 17321 bound_to 7965
  140.7716  143.3471  151.2089 LP  0  0  0  0  0  0  0  0  0  0  0  0  # atno 17342 bound_to 10162
  139.7065  143.9447  152.2929 LP  0  0  0  0  0  0  0  0  0  0  0  0  # atno 17343 bound_to 10162
  156.4963  130.8108  151.3115 LP  0  0  0  0  0  0  0  0  0  0  0  0  # atno 17370 bound_to 10713
  157.7454  130.9959  150.2760 LP  0  0  0  0  0  0  0  0  0  0  0  0  # atno 17371 bound_to 10713
  139.9235  135.0201  156.8151 LP  0  0  0  0  0  0  0  0  0  0  0  0  # atno 17394 bound_to 11000
  140.6336  133.9883  155.7674 LP  0  0  0  0  0  0  0  0  0  0  0  0  # atno 17395 bound_to 11000

$$$$
