AV-unprocessed.smi:229|AV-procd|sdf|1759|dock7
  -GOLD-   2262020293D 1   1.00000     0.00000
 Structure written by MMmdl.
 58 62  0  0  0  0  0  0  0  0  1 V2000
  146.0272  132.4032  151.2405 C   0  0  0  0  0  0  0  0  0  0  0  0
  145.3462  131.4251  152.2072 C   0  0  0  0  0  0  0  0  0  0  0  0
  146.3319  130.6465  153.0939 C   0  0  2  0  0  0  0  0  0  0  0  0
  147.4120  131.5448  153.7233 C   0  0  0  0  0  0  0  0  0  0  0  0
  148.3710  130.7295  154.4578 N   0  0  0  0  0  0  0  0  0  0  0  0
  149.1667  131.4122  155.3194 C   0  0  0  0  0  0  0  0  0  0  0  0
  149.6892  130.7830  156.4066 N   0  0  0  0  0  0  0  0  0  0  0  0
  150.4814  131.4450  157.2553 C   0  0  0  0  0  0  0  0  0  0  0  0
  150.8725  132.7199  157.2100 N   0  0  0  0  0  0  0  0  0  0  0  0
  150.3448  133.3588  156.1272 C   0  0  0  0  0  0  0  0  0  0  0  0
  149.4901  132.7875  155.1424 C   0  0  0  0  0  0  0  0  0  0  0  0
  149.1447  133.7511  154.2012 N   0  0  0  0  0  0  0  0  0  0  0  0
  149.7680  134.8260  154.6005 C   0  0  0  0  0  0  0  0  0  0  0  0
  150.5120  134.6782  155.7487 N   0  0  0  0  0  0  0  0  0  0  0  0
  151.2981  135.7009  156.4157 C   0  0  0  0  0  0  0  0  0  0  0  0
  151.2221  137.0631  155.6989 C   0  0  2  0  0  0  0  0  0  0  0  0
  151.9066  136.9790  154.4629 O   0  0  0  0  0  0  0  0  0  0  0  0
  151.8056  138.2016  156.5608 C   0  0  1  0  0  0  0  0  0  0  0  0
  151.9135  139.5871  155.9155 C   0  0  0  0  0  0  0  0  0  0  0  0
  151.9483  140.4747  157.1392 C   0  0  0  0  0  0  0  0  0  0  0  0
  150.9599  139.7690  158.0656 C   0  0  0  0  0  0  0  0  0  0  0  0
  151.0512  138.3802  157.7559 O   0  0  0  0  0  0  0  0  0  0  0  0
  148.9783  129.6852  153.6381 C   0  0  0  0  0  0  0  0  0  0  0  0
  147.8961  128.8175  152.9569 C   0  0  2  0  0  0  0  0  0  0  0  0
  147.1788  127.8633  153.9188 C   0  0  0  0  0  0  0  0  0  0  0  0
  147.8134  126.5105  153.6296 C   0  0  0  0  0  0  0  0  0  0  0  0
  148.0080  126.5658  152.2291 O   0  0  0  0  0  0  0  0  0  0  0  0
  148.5246  127.8550  151.9305 C   0  0  0  0  0  0  0  0  0  0  0  0
  146.9676  129.6653  152.2727 O   0  0  0  0  0  0  0  0  0  0  0  0
  145.2848  132.9737  150.6823 H   0  0  0  0  0  0  0  0  0  0  0  0
  146.6523  131.8826  150.5152 H   0  0  0  0  0  0  0  0  0  0  0  0
  146.6557  133.1139  151.7779 H   0  0  0  0  0  0  0  0  0  0  0  0
  144.6696  131.9915  152.8480 H   0  0  0  0  0  0  0  0  0  0  0  0
  144.7208  130.7289  151.6471 H   0  0  0  0  0  0  0  0  0  0  0  0
  145.7669  130.1487  153.8831 H   0  0  0  0  0  0  0  0  0  0  0  0
  147.9413  132.0979  152.9460 H   0  0  0  0  0  0  0  0  0  0  0  0
  146.9453  132.2835  154.3725 H   0  0  0  0  0  0  0  0  0  0  0  0
  150.8549  130.8704  158.0900 H   0  0  0  0  0  0  0  0  0  0  0  0
  149.6974  135.7639  154.0690 H   0  0  0  0  0  0  0  0  0  0  0  0
  150.9358  135.7921  157.4405 H   0  0  0  0  0  0  0  0  0  0  0  0
  152.3317  135.3580  156.4804 H   0  0  0  0  0  0  0  0  0  0  0  0
  150.1753  137.2867  155.4894 H   0  0  0  0  0  0  0  0  0  0  0  0
  151.5663  137.6488  153.8894 H   0  0  0  0  0  0  0  0  0  0  0  0
  152.8023  137.9068  156.8936 H   0  0  0  0  0  0  0  0  0  0  0  0
  152.7952  139.6949  155.2833 H   0  0  0  0  0  0  0  0  0  0  0  0
  151.0336  139.8263  155.3177 H   0  0  0  0  0  0  0  0  0  0  0  0
  152.9469  140.4683  157.5785 H   0  0  0  0  0  0  0  0  0  0  0  0
  151.6737  141.5088  156.9292 H   0  0  0  0  0  0  0  0  0  0  0  0
  151.1685  139.9574  159.1189 H   0  0  0  0  0  0  0  0  0  0  0  0
  149.9421  140.1016  157.8575 H   0  0  0  0  0  0  0  0  0  0  0  0
  149.6046  130.1564  152.8790 H   0  0  0  0  0  0  0  0  0  0  0  0
  149.6288  129.0561  154.2481 H   0  0  0  0  0  0  0  0  0  0  0  0
  147.2612  128.1525  154.9670 H   0  0  0  0  0  0  0  0  0  0  0  0
  146.1174  127.8074  153.6730 H   0  0  0  0  0  0  0  0  0  0  0  0
  148.7748  126.4086  154.1358 H   0  0  0  0  0  0  0  0  0  0  0  0
  147.1767  125.6738  153.9175 H   0  0  0  0  0  0  0  0  0  0  0  0
  148.3034  128.1309  150.8990 H   0  0  0  0  0  0  0  0  0  0  0  0
  149.6104  127.8200  152.0346 H   0  0  0  0  0  0  0  0  0  0  0  0
  1  2  1  0  0  0  0
  1 30  1  0  0  0  0
  1 31  1  0  0  0  0
  1 32  1  0  0  0  0
  2  3  1  0  0  0  0
  2 33  1  0  0  0  0
  2 34  1  0  0  0  0
  3 29  1  0  0  0  0
  3  4  1  0  0  0  0
  3 35  1  0  0  0  0
  4  5  1  0  0  0  0
  4 36  1  0  0  0  0
  4 37  1  0  0  0  0
  5  6  1  0  0  0  0
  5 23  1  0  0  0  0
  6 11  1  0  0  0  0
  6  7  2  0  0  0  0
  7  8  1  0  0  0  0
  8  9  2  0  0  0  0
  8 38  1  0  0  0  0
  9 10  1  0  0  0  0
 10 14  1  0  0  0  0
 10 11  2  0  0  0  0
 11 12  1  0  0  0  0
 12 13  2  0  0  0  0
 13 14  1  0  0  0  0
 13 39  1  0  0  0  0
 14 15  1  0  0  0  0
 15 16  1  0  0  0  0
 15 40  1  0  0  0  0
 15 41  1  0  0  0  0
 16 17  1  0  0  0  0
 16 18  1  0  0  0  0
 16 42  1  0  0  0  0
 17 43  1  0  0  0  0
 18 22  1  0  0  0  0
 18 19  1  0  0  0  0
 18 44  1  0  0  0  0
 19 20  1  0  0  0  0
 19 45  1  0  0  0  0
 19 46  1  0  0  0  0
 20 21  1  0  0  0  0
 20 47  1  0  0  0  0
 20 48  1  0  0  0  0
 21 22  1  0  0  0  0
 21 49  1  0  0  0  0
 21 50  1  0  0  0  0
 23 24  1  0  0  0  0
 23 51  1  0  0  0  0
 23 52  1  0  0  0  0
 24 28  1  0  0  0  0
 24 25  1  0  0  0  0
 24 29  1  0  0  0  0
 25 26  1  0  0  0  0
 25 53  1  0  0  0  0
 25 54  1  0  0  0  0
 26 27  1  0  0  0  0
 26 55  1  0  0  0  0
 26 56  1  0  0  0  0
 27 28  1  0  0  0  0
 28 57  1  0  0  0  0
 28 58  1  0  0  0  0
M  END
> <s_m_source_file>
AV-unprocessed.smi

> <i_m_source_file_index>
229

> <i_lp_mmshare_version>
43012

> <i_f3d_flags>
0

> <s_epik_input>
W0NIMl0xT1tDSDJdW0NIMl1bQ0BdMTJbQ0gyXU4oW0NIMl1bQ0BIXShPMilbQ0gyXVtDSDNdKWMobltjSF1uMyljKGMzNCluW2NIXW40W0NIMl1bQ0BIXShbT0hdKVtDQEBIXTVbQ0gyXVtDSDJdW0NIMl1PNQ==

> <s_epik_cmdline>
J2VwaWtfcHl0aG9uJywgJy1waCcsICc3LjAnLCAnLXRuJywgJzgnLCAnLW1hJywgJzIwMCcsICctbWV0YWxfYmluZGluZycsICctaW1hZScsICc8aW5maWxlLm1hZT4nLCAnLW9tYWUnLCAnPG91dGZpbGUubWFlPic=

> <r_lp_tautomer_probability>
1

> <r_epik_Ionization_Penalty>
0.00318402

> <r_epik_Ionization_Penalty_Charging>
0

> <r_epik_Ionization_Penalty_Neutral>
0.00318402

> <r_epik_State_Penalty>
0.00215642

> <r_epik_Charging_Adjusted_Penalty>
0.00215642

> <i_epik_Tot_Q>
0

> <i_epik_Tot_abs_Q>
0

> <r_epik_Metal_State_Penalty>
-0

> <b_epik_Metal_Only>
0

> <s_lp_Force_Field>
OPLS_2005

> <r_lp_Energy>
55.431

> <b_lp_Chiralities_Consistent>
1

> <s_lp_Variant>
AV-unprocessed.smi:229-13

> <Gold.Version>
5.8.1

> <Gold.Id.Protein>
6NUR|6NUR_protein|mol2

> <Gold.PLP.Fitness>
45.2493

> <Gold.PLP.PLP>
-37.1446

> <Gold.PLP.part.hbond>
-2.2321

> <Gold.PLP.part.metal>
0.0000

> <Gold.PLP.part.buried>
-6.8585

> <Gold.PLP.part.nonpolar>
-29.7060

> <Gold.PLP.part.repulsive>
1.1988

> <Gold.PLP.ligand.clash>
0.0000

> <Gold.PLP.ligand.torsion>
0.6164

> <Gold.PLP.Chemscore.Hbond>
1.9913

> <Gold.PLP.Chemscore.CHOScore>
0.9999

> <Gold.PLP.Chemscore.Metal>
0.0000

> <Gold.Chemscore.Hbonds>
donor molecule, donor type, donor heavy atom, donor atom, acceptor molecule, acceptor atom, score
      P1  H  6896  6907       L1     9  0.73
      P1  H 10752 10764       L1    17  1.00
      L1  C    13    39       P1  7948  1.00

> <Gold.PLP.Chemscore.Internal.Correction>
0.3640

> <Gold.Rescore>
     Score         DG    S(hbond)    S(metal)    S(lipo)     H(rot)  DE(clash)    DE(int)     intcor
     12.12     -14.61       1.75        0.00      81.90       2.46       0.00       2.49       ----

> <Gold.Chemscore.Fitness>
12.1164

> <Gold.Chemscore.DG>
-14.6105

> <Gold.Chemscore.ZeroCoef>
-5.4800

> <Gold.Chemscore.Hbond>
1.7495

> <Gold.Chemscore.Metal>
0.0000

> <Gold.Chemscore.Lipo>
81.9013

> <Gold.Chemscore.Internal_Hbond>
0.0000

> <Gold.Chemscore.DEClash>
0.0048

> <Gold.Chemscore.DEInternal>
2.4892

> <Gold.Chemscore.Rot>
2.4591

> <Gold.Chemscore.Internal.Correction>
   9.000000E+99

> <Gold.Chemscore.Hbonds>
donor molecule, donor type, donor heavy atom, donor atom, acceptor molecule, acceptor atom, score
      P1  H  6896  6907       L1     9  0.50
      P1  H 10752 10764       L1    17  0.91

> <Gold.Chemscore.Hbond.Weighted>
-5.8433

> <Gold.Chemscore.Metal.Weighted>
-0.0000

> <Gold.Chemscore.Lipo.Weighted>
-9.5825

> <Gold.Chemscore.Internal_Hbond.Weighted>
0.0000

> <Gold.Chemscore.DEClash.Weighted>
0.0048

> <Gold.Chemscore.DEInternal.Weighted>
2.4892

> <Gold.Chemscore.Rot.Weighted>
6.2953

> <Gold.Chemscore.Internal.Correction.Weighted>
   9.000000E+99

> <Gold.Protein.RotatedTorsions>
[ 6907 6896 6895 6894 ] final -156.13 input  -60.11 | X-H torsion
[ 7974 7965 7964 7962 ] final  124.49 input  175.53 | X-H torsion
[ 8008 7997 7996 7995 ] final  -24.36 input   59.86 | X-H torsion
[ 10167 10162 10161 10158 ] final  148.38 input  -65.29 | X-H torsion
[ 10718 10713 10712 10709 ] final -144.58 input   66.30 | X-H torsion
[ 10763 10752 10751 10750 ] final  -79.36 input  -60.55 | X-H torsion
[ 11005 11000 10999 10996 ] final  -90.70 input  -57.11 | X-H torsion

> <Gold.Protein.ActiveResidues>
 VAL166  LYS551  ARG553  GLY616  TRP617  ASP618  TYR619  PRO620  LYS621  CYS622 
 ASP623  PHE694  ASN695  SER759  ASP760  ASP761  ALA762  ILE779  LEU786  VAL792 
 PHE793  MET794  SER795  GLU796  ALA797  LYS798  CYS799  TRP800  GLU811  SER814 

> <Gold.Protein.RotatedAtoms>
  151.2829  133.4201  159.2627 H   0  0  0  0  0  0  0  0  0  0  0  0  # atno 6907 bound_to 6896
  151.0345  134.9563  159.8139 H   0  0  0  0  0  0  0  0  0  0  0  0  # atno 6908 bound_to 6896
  152.5352  134.2789  159.9052 H   0  0  0  0  0  0  0  0  0  0  0  0  # atno 6909 bound_to 6896
  145.0838  139.3637  143.4895 H   0  0  0  0  0  0  0  0  0  0  0  0  # atno 7974 bound_to 7965
  154.4533  140.1955  156.0453 H   0  0  0  0  0  0  0  0  0  0  0  0  # atno 8008 bound_to 7997
  156.0694  140.3286  155.7530 H   0  0  0  0  0  0  0  0  0  0  0  0  # atno 8009 bound_to 7997
  155.5286  140.0576  157.2884 H   0  0  0  0  0  0  0  0  0  0  0  0  # atno 8010 bound_to 7997
  139.4876  144.5684  151.7101 H   0  0  0  0  0  0  0  0  0  0  0  0  # atno 10167 bound_to 10162
  156.3719  130.7792  151.1974 H   0  0  0  0  0  0  0  0  0  0  0  0  # atno 10718 bound_to 10713
  154.5376  135.5698  153.6812 H   0  0  0  0  0  0  0  0  0  0  0  0  # atno 10763 bound_to 10752
  152.9955  135.6220  154.2545 H   0  0  0  0  0  0  0  0  0  0  0  0  # atno 10764 bound_to 10752
  154.2474  135.2860  155.2810 H   0  0  0  0  0  0  0  0  0  0  0  0  # atno 10765 bound_to 10752
  141.1560  133.7709  156.9775 H   0  0  0  0  0  0  0  0  0  0  0  0  # atno 11005 bound_to 11000
  146.3531  140.0640  142.8627 LP  0  0  0  0  0  0  0  0  0  0  0  0  # atno 17320 bound_to 7965
  145.1147  140.9426  143.4636 LP  0  0  0  0  0  0  0  0  0  0  0  0  # atno 17321 bound_to 7965
  140.5266  144.0795  150.6040 LP  0  0  0  0  0  0  0  0  0  0  0  0  # atno 17342 bound_to 10162
  140.3771  143.2822  152.0212 LP  0  0  0  0  0  0  0  0  0  0  0  0  # atno 17343 bound_to 10162
  157.7484  131.0370  150.4434 LP  0  0  0  0  0  0  0  0  0  0  0  0  # atno 17370 bound_to 10713
  156.4662  130.4043  149.6546 LP  0  0  0  0  0  0  0  0  0  0  0  0  # atno 17371 bound_to 10713
  140.1088  134.9490  157.2034 LP  0  0  0  0  0  0  0  0  0  0  0  0  # atno 17394 bound_to 11000
  140.3221  134.2904  155.7244 LP  0  0  0  0  0  0  0  0  0  0  0  0  # atno 17395 bound_to 11000

$$$$
