AV-unprocessed.smi:1041|AV-procd|sdf|4534|dock5
  -GOLD-   22720 2563D 1   1.00000     0.00000
 Structure written by MMmdl.
 52 53  0  0  0  0  0  0  0  0  3 V2000
  144.3401  134.7587  151.5622 C   0  0  0  0  0  0  0  0  0  0  0  0
  145.0132  135.9128  151.0902 O   0  0  0  0  0  0  0  0  0  0  0  0
  145.3536  136.8081  152.1356 C   0  0  0  0  0  0  0  0  0  0  0  0
  146.0396  138.0433  151.5307 C   0  0  0  0  0  0  0  0  0  0  0  0
  146.2405  139.1285  152.5246 N   0  3  2  0  0  0  0  0  0  0  0  0
  147.0603  140.2587  152.0116 C   0  0  0  0  0  0  0  0  0  0  0  0
  147.1351  141.4060  153.0362 C   0  0  0  0  0  0  0  0  0  0  0  0
  147.6585  140.9344  154.4048 C   0  0  2  0  0  0  0  0  0  0  0  0
  149.1833  140.6690  154.3883 C   0  0  0  0  0  0  0  0  0  0  0  0
  149.6436  140.0239  155.6109 N   0  0  0  0  0  0  0  0  0  0  0  0
  150.9247  139.7936  155.9404 C   0  0  0  0  0  0  0  0  0  0  0  0
  151.8656  140.0347  155.1850 O   0  0  0  0  0  0  0  0  0  0  0  0
  151.2019  139.2347  157.3410 C   0  0  0  0  0  0  0  0  0  0  0  0
  151.6948  140.2269  158.3971 C   0  0  0  0  0  0  0  0  0  0  0  0
  150.9824  141.3217  158.7881 C   0  0  0  0  0  0  0  0  0  0  0  0
  149.6145  141.6612  158.2229 C   0  0  0  0  0  0  0  0  0  0  0  0
  151.4898  142.2135  159.7479 N   0  0  0  0  0  0  0  0  0  0  0  0
  152.6439  142.0022  160.2559 C   0  0  0  0  0  0  0  0  0  0  0  0
  153.1822  142.9677  161.2902 C   0  0  0  0  0  0  0  0  0  0  0  0
  153.4500  140.9386  159.9160 N   0  5  0  0  0  0  0  0  0  0  0  0
  153.0240  140.0230  159.0005 C   0  0  0  0  0  0  0  0  0  0  0  0
  153.7170  139.0640  158.6626 O   0  0  0  0  0  0  0  0  0  0  0  0
  146.8138  139.7308  154.8735 C   0  0  0  0  0  0  0  0  0  0  0  0
  146.7625  138.6150  153.8170 C   0  0  0  0  0  0  0  0  0  0  0  0
  144.0934  134.1084  150.7231 H   0  0  0  0  0  0  0  0  0  0  0  0
  143.4108  135.0226  152.0683 H   0  0  0  0  0  0  0  0  0  0  0  0
  144.9673  134.1935  152.2530 H   0  0  0  0  0  0  0  0  0  0  0  0
  144.4457  137.1180  152.6552 H   0  0  0  0  0  0  0  0  0  0  0  0
  145.9880  136.3173  152.8738 H   0  0  0  0  0  0  0  0  0  0  0  0
  147.0045  137.7289  151.1302 H   0  0  0  0  0  0  0  0  0  0  0  0
  145.4657  138.4233  150.6843 H   0  0  0  0  0  0  0  0  0  0  0  0
  148.0601  139.9025  151.7608 H   0  0  0  0  0  0  0  0  0  0  0  0
  146.6315  140.6492  151.0900 H   0  0  0  0  0  0  0  0  0  0  0  0
  147.7591  142.2131  152.6508 H   0  0  0  0  0  0  0  0  0  0  0  0
  146.1383  141.8308  153.1630 H   0  0  0  0  0  0  0  0  0  0  0  0
  147.4866  141.7467  155.1122 H   0  0  0  0  0  0  0  0  0  0  0  0
  149.4554  140.0207  153.5563 H   0  0  0  0  0  0  0  0  0  0  0  0
  149.7301  141.6014  154.2383 H   0  0  0  0  0  0  0  0  0  0  0  0
  148.9374  139.7862  156.2931 H   0  0  0  0  0  0  0  0  0  0  0  0
  150.2843  138.7647  157.6940 H   0  0  0  0  0  0  0  0  0  0  0  0
  151.9126  138.4129  157.2477 H   0  0  0  0  0  0  0  0  0  0  0  0
  148.8837  140.9072  158.5162 H   0  0  0  0  0  0  0  0  0  0  0  0
  149.6492  141.7079  157.1342 H   0  0  0  0  0  0  0  0  0  0  0  0
  149.2653  142.6279  158.5880 H   0  0  0  0  0  0  0  0  0  0  0  0
  153.6918  142.4299  162.0905 H   0  0  0  0  0  0  0  0  0  0  0  0
  152.3759  143.5518  161.7359 H   0  0  0  0  0  0  0  0  0  0  0  0
  153.8912  143.6554  160.8285 H   0  0  0  0  0  0  0  0  0  0  0  0
  147.1838  139.3339  155.8192 H   0  0  0  0  0  0  0  0  0  0  0  0
  145.7968  140.0693  155.0765 H   0  0  0  0  0  0  0  0  0  0  0  0
  146.1165  137.8153  154.1817 H   0  0  0  0  0  0  0  0  0  0  0  0
  147.7512  138.1776  153.6709 H   0  0  0  0  0  0  0  0  0  0  0  0
  145.3224  139.4989  152.7253 H   0  0  0  0  0  0  0  0  0  0  0  0
  1  2  1  0  0  0  0
  1 25  1  0  0  0  0
  1 26  1  0  0  0  0
  1 27  1  0  0  0  0
  2  3  1  0  0  0  0
  3  4  1  0  0  0  0
  3 28  1  0  0  0  0
  3 29  1  0  0  0  0
  4  5  1  0  0  0  0
  4 30  1  0  0  0  0
  4 31  1  0  0  0  0
  5 24  1  0  0  0  0
  5  6  1  0  0  0  0
  5 52  1  0  0  0  0
  6  7  1  0  0  0  0
  6 32  1  0  0  0  0
  6 33  1  0  0  0  0
  7  8  1  0  0  0  0
  7 34  1  0  0  0  0
  7 35  1  0  0  0  0
  8  9  1  0  0  0  0
  8 23  1  0  0  0  0
  8 36  1  0  0  0  0
  9 10  1  0  0  0  0
  9 37  1  0  0  0  0
  9 38  1  0  0  0  0
 10 11  1  0  0  0  0
 10 39  1  0  0  0  0
 11 12  2  0  0  0  0
 11 13  1  0  0  0  0
 13 14  1  0  0  0  0
 13 40  1  0  0  0  0
 13 41  1  0  0  0  0
 14 21  1  0  0  0  0
 14 15  2  0  0  0  0
 15 16  1  0  0  0  0
 15 17  1  0  0  0  0
 16 42  1  0  0  0  0
 16 43  1  0  0  0  0
 16 44  1  0  0  0  0
 17 18  2  0  0  0  0
 18 19  1  0  0  0  0
 18 20  1  0  0  0  0
 19 45  1  0  0  0  0
 19 46  1  0  0  0  0
 19 47  1  0  0  0  0
 20 21  1  0  0  0  0
 21 22  2  0  0  0  0
 23 24  1  0  0  0  0
 23 48  1  0  0  0  0
 23 49  1  0  0  0  0
 24 50  1  0  0  0  0
 24 51  1  0  0  0  0
M  CHG  1   5   1
M  CHG  1  20  -1
M  END
> <s_m_source_file>
AV-unprocessed.smi

> <i_m_source_file_index>
1041

> <i_lp_mmshare_version>
43012

> <i_f3d_flags>
0

> <s_epik_input>
W0NIM11PW0NIMl1bQ0gyXU4xW0NIMl1bQ0gyXVtDSF0oW0NIMl1bQ0gyXTEpW0NIMl1bTkhdQyg9TylbQ0gyXWMyYyhbQ0gzXSluYyhbQ0gzXSlbbkhdYzI9Tw==

> <s_epik_cmdline>
J2VwaWtfcHl0aG9uJywgJy1waCcsICc3LjAnLCAnLXRuJywgJzgnLCAnLW1hJywgJzIwMCcsICctbWV0YWxfYmluZGluZycsICctaW1hZScsICc8aW5maWxlLm1hZT4nLCAnLW9tYWUnLCAnPG91dGZpbGUubWFlPic=

> <r_lp_tautomer_probability>
0.839158

> <r_epik_Ionization_Penalty>
6.54961

> <r_epik_Ionization_Penalty_Charging>
0.00968647

> <r_epik_Ionization_Penalty_Neutral>
6.53992

> <r_epik_State_Penalty>
4.43892

> <r_epik_Charging_Adjusted_Penalty>
4.44861

> <i_epik_Tot_Q>
0

> <i_epik_Tot_abs_Q>
2

> <r_epik_Metal_State_Penalty>
0.818645

> <b_epik_Metal_Only>
1

> <s_lp_Force_Field>
OPLS_2005

> <r_lp_Energy>
22.1122

> <b_lp_Chiralities_Consistent>
1

> <s_lp_Variant>
AV-unprocessed.smi:1041-7

> <Gold.Version>
5.8.1

> <Gold.Id.Protein>
6NUR|6NUR_protein|mol2

> <Gold.PLP.Fitness>
47.9602

> <Gold.PLP.PLP>
-37.2681

> <Gold.PLP.part.hbond>
-3.8960

> <Gold.PLP.part.metal>
0.0000

> <Gold.PLP.part.buried>
-2.5632

> <Gold.PLP.part.nonpolar>
-30.7969

> <Gold.PLP.part.repulsive>
0.3766

> <Gold.PLP.ligand.clash>
0.0000

> <Gold.PLP.ligand.torsion>
0.4262

> <Gold.PLP.Chemscore.Hbond>
3.8160

> <Gold.PLP.Chemscore.CHOScore>
0.0000

> <Gold.PLP.Chemscore.Metal>
0.0000

> <Gold.Chemscore.Hbonds>
donor molecule, donor type, donor heavy atom, donor atom, acceptor molecule, acceptor atom, score
      L1  H     5    52       P1 10175  2.00
      P1  H  7989  7998       L1    12  0.90
      P1  H  7997  8009       L1    22  0.80

> <Gold.PLP.Chemscore.Internal.Correction>
0.0964

> <Gold.Rescore>
     Score         DG    S(hbond)    S(metal)    S(lipo)     H(rot)  DE(clash)    DE(int)     intcor
     15.58     -17.22       2.42        0.00      82.64       2.35       1.29       0.35       ----

> <Gold.Chemscore.Fitness>
15.5824

> <Gold.Chemscore.DG>
-17.2157

> <Gold.Chemscore.ZeroCoef>
-5.4800

> <Gold.Chemscore.Hbond>
2.4216

> <Gold.Chemscore.Metal>
0.0000

> <Gold.Chemscore.Lipo>
82.6379

> <Gold.Chemscore.Internal_Hbond>
0.0000

> <Gold.Chemscore.DEClash>
1.2871

> <Gold.Chemscore.DEInternal>
0.3462

> <Gold.Chemscore.Rot>
2.3520

> <Gold.Chemscore.Internal.Correction>
   9.000000E+99

> <Gold.Chemscore.Hbonds>
donor molecule, donor type, donor heavy atom, donor atom, acceptor molecule, acceptor atom, score
      L1  H     5    52       P1 10175  0.99
      P1  H  7989  7998       L1    12  0.86
      P1  H  7997  8009       L1    22  0.20

> <Gold.Chemscore.Hbond.Weighted>
-8.0882

> <Gold.Chemscore.Metal.Weighted>
-0.0000

> <Gold.Chemscore.Lipo.Weighted>
-9.6686

> <Gold.Chemscore.Internal_Hbond.Weighted>
0.0000

> <Gold.Chemscore.DEClash.Weighted>
1.2871

> <Gold.Chemscore.DEInternal.Weighted>
0.3462

> <Gold.Chemscore.Rot.Weighted>
6.0211

> <Gold.Chemscore.Internal.Correction.Weighted>
   9.000000E+99

> <Gold.Protein.RotatedTorsions>
[ 6907 6896 6895 6894 ] final -167.21 input  -60.11 | X-H torsion
[ 7974 7965 7964 7962 ] final  158.52 input  175.53 | X-H torsion
[ 8008 7997 7996 7995 ] final  123.45 input   59.86 | X-H torsion
[ 10167 10162 10161 10158 ] final   39.40 input  -65.29 | X-H torsion
[ 10718 10713 10712 10709 ] final  -23.62 input   66.30 | X-H torsion
[ 10763 10752 10751 10750 ] final   20.57 input  -60.55 | X-H torsion
[ 11005 11000 10999 10996 ] final  -82.33 input  -57.11 | X-H torsion

> <Gold.Protein.ActiveResidues>
 VAL166  LYS551  ARG553  GLY616  TRP617  ASP618  TYR619  PRO620  LYS621  CYS622 
 ASP623  PHE694  ASN695  SER759  ASP760  ASP761  ALA762  ILE779  LEU786  VAL792 
 PHE793  MET794  SER795  GLU796  ALA797  LYS798  CYS799  TRP800  GLU811  SER814 

> <Gold.Protein.RotatedAtoms>
  151.4559  133.3605  159.2801 H   0  0  0  0  0  0  0  0  0  0  0  0  # atno 6907 bound_to 6896
  150.9058  134.8475  159.7402 H   0  0  0  0  0  0  0  0  0  0  0  0  # atno 6908 bound_to 6896
  152.4905  134.4484  159.9618 H   0  0  0  0  0  0  0  0  0  0  0  0  # atno 6909 bound_to 6896
  144.7841  139.7490  143.6248 H   0  0  0  0  0  0  0  0  0  0  0  0  # atno 7974 bound_to 7965
  156.2766  140.2762  156.1630 H   0  0  0  0  0  0  0  0  0  0  0  0  # atno 8008 bound_to 7997
  155.0734  140.0387  157.2634 H   0  0  0  0  0  0  0  0  0  0  0  0  # atno 8009 bound_to 7997
  154.7021  140.2651  155.6715 H   0  0  0  0  0  0  0  0  0  0  0  0  # atno 8010 bound_to 7997
  140.3843  144.1938  150.6130 H   0  0  0  0  0  0  0  0  0  0  0  0  # atno 10167 bound_to 10162
  156.4886  130.4561  149.6769 H   0  0  0  0  0  0  0  0  0  0  0  0  # atno 10718 bound_to 10713
  153.1066  135.6686  153.9575 H   0  0  0  0  0  0  0  0  0  0  0  0  # atno 10763 bound_to 10752
  153.9130  135.3023  155.3450 H   0  0  0  0  0  0  0  0  0  0  0  0  # atno 10764 bound_to 10752
  154.7487  135.5045  153.9327 H   0  0  0  0  0  0  0  0  0  0  0  0  # atno 10765 bound_to 10752
  141.1663  133.7239  156.8555 H   0  0  0  0  0  0  0  0  0  0  0  0  # atno 11005 bound_to 11000
  146.2064  139.5392  142.9709 LP  0  0  0  0  0  0  0  0  0  0  0  0  # atno 17320 bound_to 7965
  145.5969  141.0361  143.2039 LP  0  0  0  0  0  0  0  0  0  0  0  0  # atno 17321 bound_to 7965
  140.4906  143.2349  151.8825 LP  0  0  0  0  0  0  0  0  0  0  0  0  # atno 17342 bound_to 10162
  139.4793  144.5170  151.8854 LP  0  0  0  0  0  0  0  0  0  0  0  0  # atno 17343 bound_to 10162
  156.3449  130.7401  151.2352 LP  0  0  0  0  0  0  0  0  0  0  0  0  # atno 17370 bound_to 10713
  157.7476  131.0393  150.4545 LP  0  0  0  0  0  0  0  0  0  0  0  0  # atno 17371 bound_to 10713
  140.1885  134.8982  157.3032 LP  0  0  0  0  0  0  0  0  0  0  0  0  # atno 17394 bound_to 11000
  140.2316  134.3902  155.7519 LP  0  0  0  0  0  0  0  0  0  0  0  0  # atno 17395 bound_to 11000

$$$$
