AV-unprocessed.smi:3134|AV-procd|sdf|11943|dock8
  -GOLD-   2272017333D 1   1.00000     0.00000
 Structure written by MMmdl.
 36 36  0  0  0  0  0  0  0  0  1 V2000
  146.8830  140.2434  154.1218 C   0  0  0  0  0  0  0  0  0  0  0  0
  146.8245  141.5859  154.8621 C   0  0  0  0  0  0  0  0  0  0  0  0
  146.5459  142.7528  153.9015 C   0  0  0  0  0  0  0  0  0  0  0  0
  148.0814  141.8034  155.5711 N   0  0  0  0  0  0  0  0  0  0  0  0
  149.3084  141.6244  155.0562 C   0  0  0  0  0  0  0  0  0  0  0  0
  149.5096  141.2561  153.8984 O   0  0  0  0  0  0  0  0  0  0  0  0
  150.4916  141.8631  156.0095 C   0  0  2  0  0  0  0  0  0  0  0  0
  151.3297  140.5843  156.1716 C   0  0  0  0  0  0  0  0  0  0  0  0
  150.0827  142.3610  157.3357 N   0  0  0  0  0  0  0  0  0  0  0  0
  151.1804  142.5397  158.2798 C   0  0  0  0  0  0  0  0  0  0  0  0
  151.3635  141.2528  159.0965 C   0  0  0  0  0  0  0  0  0  0  0  0
  151.8634  141.5322  160.4288 N   0  0  0  0  0  0  0  0  0  0  0  0
  153.0104  141.0594  161.0307 C   0  0  0  0  0  0  0  0  0  0  0  0
  153.0616  141.5966  162.2849 C   0  0  0  0  0  0  0  0  0  0  0  0
  151.8859  142.3948  162.3590 C   0  0  0  0  0  0  0  0  0  0  0  0
  151.1703  142.3537  161.2466 N   0  0  0  0  0  0  0  0  0  0  0  0
  145.9463  140.0426  153.6011 H   0  0  0  0  0  0  0  0  0  0  0  0
  147.0568  139.4197  154.8150 H   0  0  0  0  0  0  0  0  0  0  0  0
  147.6840  140.2316  153.3818 H   0  0  0  0  0  0  0  0  0  0  0  0
  146.0107  141.5298  155.5874 H   0  0  0  0  0  0  0  0  0  0  0  0
  145.6061  142.6053  153.3691 H   0  0  0  0  0  0  0  0  0  0  0  0
  147.3375  142.8527  153.1580 H   0  0  0  0  0  0  0  0  0  0  0  0
  146.4728  143.6992  154.4384 H   0  0  0  0  0  0  0  0  0  0  0  0
  148.0144  142.0972  156.5347 H   0  0  0  0  0  0  0  0  0  0  0  0
  151.1392  142.6173  155.5581 H   0  0  0  0  0  0  0  0  0  0  0  0
  151.6585  140.2004  155.2051 H   0  0  0  0  0  0  0  0  0  0  0  0
  150.7673  139.7936  156.6702 H   0  0  0  0  0  0  0  0  0  0  0  0
  152.2236  140.7770  156.7657 H   0  0  0  0  0  0  0  0  0  0  0  0
  149.5526  143.2178  157.2631 H   0  0  0  0  0  0  0  0  0  0  0  0
  152.0990  142.7711  157.7385 H   0  0  0  0  0  0  0  0  0  0  0  0
  150.9750  143.3725  158.9537 H   0  0  0  0  0  0  0  0  0  0  0  0
  150.4183  140.7150  159.1858 H   0  0  0  0  0  0  0  0  0  0  0  0
  152.0644  140.5816  158.5982 H   0  0  0  0  0  0  0  0  0  0  0  0
  153.6869  140.3885  160.5217 H   0  0  0  0  0  0  0  0  0  0  0  0
  153.8226  141.4428  163.0353 H   0  0  0  0  0  0  0  0  0  0  0  0
  151.5333  142.9982  163.1824 H   0  0  0  0  0  0  0  0  0  0  0  0
  1  2  1  0  0  0  0
  1 17  1  0  0  0  0
  1 18  1  0  0  0  0
  1 19  1  0  0  0  0
  2  3  1  0  0  0  0
  2  4  1  0  0  0  0
  2 20  1  0  0  0  0
  3 21  1  0  0  0  0
  3 22  1  0  0  0  0
  3 23  1  0  0  0  0
  4  5  1  0  0  0  0
  4 24  1  0  0  0  0
  5  6  2  0  0  0  0
  5  7  1  0  0  0  0
  7  8  1  0  0  0  0
  7  9  1  0  0  0  0
  7 25  1  0  0  0  0
  8 26  1  0  0  0  0
  8 27  1  0  0  0  0
  8 28  1  0  0  0  0
  9 10  1  0  0  0  0
  9 29  1  0  0  0  0
 10 11  1  0  0  0  0
 10 30  1  0  0  0  0
 10 31  1  0  0  0  0
 11 12  1  0  0  0  0
 11 32  1  0  0  0  0
 11 33  1  0  0  0  0
 12 16  1  0  0  0  0
 12 13  1  0  0  0  0
 13 14  2  0  0  0  0
 13 34  1  0  0  0  0
 14 15  1  0  0  0  0
 14 35  1  0  0  0  0
 15 16  2  0  0  0  0
 15 36  1  0  0  0  0
M  END
> <s_m_source_file>
AV-unprocessed.smi

> <i_m_source_file_index>
3134

> <i_lp_mmshare_version>
43012

> <i_f3d_flags>
0

> <s_epik_input>
W0NIM11bQ0hdKFtDSDNdKVtOSF1DKD1PKVtDQEhdKFtDSDNdKVtOSF1bQ0gyXVtDSDJdbjFbY0hdW2NIXVtjSF1uMQ==

> <s_epik_cmdline>
J2VwaWtfcHl0aG9uJywgJy1waCcsICc3LjAnLCAnLXRuJywgJzgnLCAnLW1hJywgJzIwMCcsICctbWV0YWxfYmluZGluZycsICctaW1hZScsICc8aW5maWxlLm1hZT4nLCAnLW9tYWUnLCAnPG91dGZpbGUubWFlPic=

> <r_lp_tautomer_probability>
1

> <r_epik_Ionization_Penalty>
0.731872

> <r_epik_Ionization_Penalty_Charging>
0

> <r_epik_Ionization_Penalty_Neutral>
0.731872

> <r_epik_State_Penalty>
0.75611

> <r_epik_Charging_Adjusted_Penalty>
0.75611

> <i_epik_Tot_Q>
0

> <i_epik_Tot_abs_Q>
0

> <r_epik_Metal_State_Penalty>
0.755373

> <b_epik_Metal_Only>
0

> <s_lp_Force_Field>
OPLS_2005

> <r_lp_Energy>
3.66061

> <b_lp_Chiralities_Consistent>
1

> <s_lp_Variant>
AV-unprocessed.smi:3134-3

> <Gold.Version>
5.8.1

> <Gold.Id.Protein>
6NUR|6NUR_protein|mol2

> <Gold.PLP.Fitness>
43.6196

> <Gold.PLP.PLP>
-38.8847

> <Gold.PLP.part.hbond>
-5.0000

> <Gold.PLP.part.metal>
0.0000

> <Gold.PLP.part.buried>
-5.2380

> <Gold.PLP.part.nonpolar>
-29.7955

> <Gold.PLP.part.repulsive>
1.6992

> <Gold.PLP.ligand.clash>
0.0000

> <Gold.PLP.ligand.torsion>
0.6220

> <Gold.PLP.Chemscore.Hbond>
1.9756

> <Gold.PLP.Chemscore.CHOScore>
0.0000

> <Gold.PLP.Chemscore.Metal>
0.0000

> <Gold.Chemscore.Hbonds>
donor molecule, donor type, donor heavy atom, donor atom, acceptor molecule, acceptor atom, score
      L1  H     9    29       P1  8028  0.29
      P1  H  6933  6945       L1    16  0.06
      P1  H  7989  7998       L1     6  0.20
      P1  H  8011  8017       L1     6  0.82

> <Gold.PLP.Chemscore.Internal.Correction>
0.0522

> <Gold.Rescore>
     Score         DG    S(hbond)    S(metal)    S(lipo)     H(rot)  DE(clash)    DE(int)     intcor
     13.19     -16.46       1.92        0.00      83.89       2.05       1.35       1.92       ----

> <Gold.Chemscore.Fitness>
13.1856

> <Gold.Chemscore.DG>
-16.4562

> <Gold.Chemscore.ZeroCoef>
-5.4800

> <Gold.Chemscore.Hbond>
1.9210

> <Gold.Chemscore.Metal>
0.0000

> <Gold.Chemscore.Lipo>
83.8922

> <Gold.Chemscore.Internal_Hbond>
0.0000

> <Gold.Chemscore.DEClash>
1.3539

> <Gold.Chemscore.DEInternal>
1.9167

> <Gold.Chemscore.Rot>
2.0529

> <Gold.Chemscore.Internal.Correction>
   9.000000E+99

> <Gold.Chemscore.Hbonds>
donor molecule, donor type, donor heavy atom, donor atom, acceptor molecule, acceptor atom, score
      L1  H     9    29       P1  8028  0.26
      P1  H  7989  7998       L1     6  0.17
      P1  H  8011  8017       L1     6  0.80

> <Gold.Chemscore.Hbond.Weighted>
-6.4162

> <Gold.Chemscore.Metal.Weighted>
-0.0000

> <Gold.Chemscore.Lipo.Weighted>
-9.8154

> <Gold.Chemscore.Internal_Hbond.Weighted>
0.0000

> <Gold.Chemscore.DEClash.Weighted>
1.3539

> <Gold.Chemscore.DEInternal.Weighted>
1.9167

> <Gold.Chemscore.Rot.Weighted>
5.2554

> <Gold.Chemscore.Internal.Correction.Weighted>
   9.000000E+99

> <Gold.Protein.RotatedTorsions>
[ 6907 6896 6895 6894 ] final  141.75 input  -60.11 | X-H torsion
[ 7974 7965 7964 7962 ] final  158.25 input  175.53 | X-H torsion
[ 8008 7997 7996 7995 ] final  -52.22 input   59.86 | X-H torsion
[ 10167 10162 10161 10158 ] final  132.82 input  -65.29 | X-H torsion
[ 10718 10713 10712 10709 ] final  112.48 input   66.30 | X-H torsion
[ 10763 10752 10751 10750 ] final  150.61 input  -60.55 | X-H torsion
[ 11005 11000 10999 10996 ] final  -99.32 input  -57.11 | X-H torsion

> <Gold.Protein.ActiveResidues>
 VAL166  LYS551  ARG553  GLY616  TRP617  ASP618  TYR619  PRO620  LYS621  CYS622 
 ASP623  PHE694  ASN695  SER759  ASP760  ASP761  ALA762  ILE779  LEU786  VAL792 
 PHE793  MET794  SER795  GLU796  ALA797  LYS798  CYS799  TRP800  GLU811  SER814 

> <Gold.Protein.RotatedAtoms>
  152.2271  133.5029  159.5194 H   0  0  0  0  0  0  0  0  0  0  0  0  # atno 6907 bound_to 6896
  150.7027  134.1265  159.4063 H   0  0  0  0  0  0  0  0  0  0  0  0  # atno 6908 bound_to 6896
  151.9186  135.0308  160.0571 H   0  0  0  0  0  0  0  0  0  0  0  0  # atno 6909 bound_to 6896
  144.7856  139.7453  143.6242 H   0  0  0  0  0  0  0  0  0  0  0  0  # atno 7974 bound_to 7965
  154.4101  140.1229  156.4956 H   0  0  0  0  0  0  0  0  0  0  0  0  # atno 8008 bound_to 7997
  155.6947  140.3495  155.4888 H   0  0  0  0  0  0  0  0  0  0  0  0  # atno 8009 bound_to 7997
  155.9438  140.1092  157.1023 H   0  0  0  0  0  0  0  0  0  0  0  0  # atno 8010 bound_to 7997
  139.5323  144.6644  151.4907 H   0  0  0  0  0  0  0  0  0  0  0  0  # atno 10167 bound_to 10162
  157.6390  131.0968  150.6902 H   0  0  0  0  0  0  0  0  0  0  0  0  # atno 10718 bound_to 10713
  154.0903  135.2853  155.3273 H   0  0  0  0  0  0  0  0  0  0  0  0  # atno 10763 bound_to 10752
  154.6624  135.5329  153.8038 H   0  0  0  0  0  0  0  0  0  0  0  0  # atno 10764 bound_to 10752
  153.0416  135.6537  154.1073 H   0  0  0  0  0  0  0  0  0  0  0  0  # atno 10765 bound_to 10752
  141.1313  133.8312  157.0956 H   0  0  0  0  0  0  0  0  0  0  0  0  # atno 11005 bound_to 11000
  146.2086  139.5427  142.9696 LP  0  0  0  0  0  0  0  0  0  0  0  0  # atno 17320 bound_to 7965
  145.5931  141.0366  143.2059 LP  0  0  0  0  0  0  0  0  0  0  0  0  # atno 17321 bound_to 7965
  140.6509  143.8699  150.6784 LP  0  0  0  0  0  0  0  0  0  0  0  0  # atno 17342 bound_to 10162
  140.2063  143.3919  152.1753 LP  0  0  0  0  0  0  0  0  0  0  0  0  # atno 17343 bound_to 10162
  156.7229  130.4686  149.5518 LP  0  0  0  0  0  0  0  0  0  0  0  0  # atno 17370 bound_to 10713
  156.1653  130.6401  151.0771 LP  0  0  0  0  0  0  0  0  0  0  0  0  # atno 17371 bound_to 10713
  140.0365  134.9875  157.0881 LP  0  0  0  0  0  0  0  0  0  0  0  0  # atno 17394 bound_to 11000
  140.4202  134.1889  155.7164 LP  0  0  0  0  0  0  0  0  0  0  0  0  # atno 17395 bound_to 11000

$$$$
