AV-unprocessed.smi:602|AV-procd|sdf|3035|dock10
  -GOLD-   2262023553D 1   1.00000     0.00000
 Structure written by MMmdl.
 47 48  0  0  0  0  0  0  0  0  1 V2000
  147.9899  141.4462  154.0629 C   0  0  0  0  0  0  0  0  0  0  0  0
  148.7063  140.4880  155.0192 C   0  0  0  0  0  0  0  0  0  0  0  0
  147.9900  140.3720  156.3749 C   0  0  0  0  0  0  0  0  0  0  0  0
  148.6280  139.4174  157.2590 N   0  0  0  0  0  0  0  0  0  0  0  0
  147.9773  138.2984  157.7864 C   0  0  0  0  0  0  0  0  0  0  0  0
  146.6491  138.0948  157.4408 N   0  0  0  0  0  0  0  0  0  0  0  0
  148.6263  137.4030  158.5891 C   0  0  0  0  0  0  0  0  0  0  0  0
  147.9664  136.2828  159.1282 N   0  0  0  0  0  0  0  0  0  0  0  0
  147.8511  135.0984  158.2606 C   0  0  0  0  0  0  0  0  0  0  0  0
  148.6413  133.8940  158.8108 C   0  0  0  0  0  0  0  0  0  0  0  0
  149.9564  133.8120  158.2792 O   0  0  0  0  0  0  0  0  0  0  0  0
  150.0620  132.9881  157.1288 C   0  0  0  0  0  0  0  0  0  0  0  0
  147.5293  136.2569  160.4157 C   0  0  0  0  0  0  0  0  0  0  0  0
  147.6840  137.2133  161.1763 O   0  0  0  0  0  0  0  0  0  0  0  0
  146.8198  134.9901  160.9447 C   0  0  0  0  0  0  0  0  0  0  0  0
  145.4307  135.2519  161.5524 C   0  0  0  0  0  0  0  0  0  0  0  0
  145.7804  134.2676  162.6713 C   0  0  0  0  0  0  0  0  0  0  0  0
  147.2570  134.4995  162.3405 C   0  0  0  0  0  0  0  0  0  0  0  0
  150.0358  137.6078  158.9501 C   0  0  0  0  0  0  0  0  0  0  0  0
  150.7005  136.8822  159.6886 O   0  0  0  0  0  0  0  0  0  0  0  0
  150.6306  138.7275  158.3752 N   0  0  0  0  0  0  0  0  0  0  0  0
  150.0000  139.6356  157.5321 C   0  0  0  0  0  0  0  0  0  0  0  0
  150.6466  140.5737  157.0647 O   0  0  0  0  0  0  0  0  0  0  0  0
  151.6055  138.8898  158.5827 H   0  0  0  0  0  0  0  0  0  0  0  0
  148.5149  141.5093  153.1097 H   0  0  0  0  0  0  0  0  0  0  0  0
  147.9367  142.4518  154.4812 H   0  0  0  0  0  0  0  0  0  0  0  0
  146.9718  141.1122  153.8612 H   0  0  0  0  0  0  0  0  0  0  0  0
  148.7769  139.5033  154.5554 H   0  0  0  0  0  0  0  0  0  0  0  0
  149.7306  140.8309  155.1688 H   0  0  0  0  0  0  0  0  0  0  0  0
  147.9294  141.3314  156.8921 H   0  0  0  0  0  0  0  0  0  0  0  0
  146.9552  140.0521  156.2554 H   0  0  0  0  0  0  0  0  0  0  0  0
  146.1559  138.7283  156.8278 H   0  0  0  0  0  0  0  0  0  0  0  0
  146.1060  137.3405  157.8357 H   0  0  0  0  0  0  0  0  0  0  0  0
  146.8017  134.8091  158.1897 H   0  0  0  0  0  0  0  0  0  0  0  0
  148.1441  135.3237  157.2347 H   0  0  0  0  0  0  0  0  0  0  0  0
  148.7232  133.9785  159.8943 H   0  0  0  0  0  0  0  0  0  0  0  0
  148.0997  132.9652  158.6249 H   0  0  0  0  0  0  0  0  0  0  0  0
  151.0953  132.9813  156.7822 H   0  0  0  0  0  0  0  0  0  0  0  0
  149.4401  133.3488  156.3097 H   0  0  0  0  0  0  0  0  0  0  0  0
  149.7787  131.9596  157.3552 H   0  0  0  0  0  0  0  0  0  0  0  0
  146.8154  134.1627  160.2344 H   0  0  0  0  0  0  0  0  0  0  0  0
  145.2941  136.2736  161.9119 H   0  0  0  0  0  0  0  0  0  0  0  0
  144.5966  134.9341  160.9260 H   0  0  0  0  0  0  0  0  0  0  0  0
  145.4806  134.5865  163.6699 H   0  0  0  0  0  0  0  0  0  0  0  0
  145.4539  133.2493  162.4546 H   0  0  0  0  0  0  0  0  0  0  0  0
  147.8565  133.5887  162.3305 H   0  0  0  0  0  0  0  0  0  0  0  0
  147.7039  135.2618  162.9806 H   0  0  0  0  0  0  0  0  0  0  0  0
  1  2  1  0  0  0  0
  1 25  1  0  0  0  0
  1 26  1  0  0  0  0
  1 27  1  0  0  0  0
  2  3  1  0  0  0  0
  2 28  1  0  0  0  0
  2 29  1  0  0  0  0
  3  4  1  0  0  0  0
  3 30  1  0  0  0  0
  3 31  1  0  0  0  0
  4 22  1  0  0  0  0
  4  5  1  0  0  0  0
  5  6  1  0  0  0  0
  5  7  2  0  0  0  0
  6 32  1  0  0  0  0
  6 33  1  0  0  0  0
  7  8  1  0  0  0  0
  7 19  1  0  0  0  0
  8  9  1  0  0  0  0
  8 13  1  0  0  0  0
  9 10  1  0  0  0  0
  9 34  1  0  0  0  0
  9 35  1  0  0  0  0
 10 11  1  0  0  0  0
 10 36  1  0  0  0  0
 10 37  1  0  0  0  0
 11 12  1  0  0  0  0
 12 38  1  0  0  0  0
 12 39  1  0  0  0  0
 12 40  1  0  0  0  0
 13 14  2  0  0  0  0
 13 15  1  0  0  0  0
 15 18  1  0  0  0  0
 15 16  1  0  0  0  0
 15 41  1  0  0  0  0
 16 17  1  0  0  0  0
 16 42  1  0  0  0  0
 16 43  1  0  0  0  0
 17 18  1  0  0  0  0
 17 44  1  0  0  0  0
 17 45  1  0  0  0  0
 18 46  1  0  0  0  0
 18 47  1  0  0  0  0
 19 20  2  0  0  0  0
 19 21  1  0  0  0  0
 21 24  1  0  0  0  0
 21 22  1  0  0  0  0
 22 23  2  0  0  0  0
M  END
> <s_m_source_file>
AV-unprocessed.smi

> <i_m_source_file_index>
602

> <i_lp_mmshare_version>
43012

> <i_f3d_flags>
0

> <s_epik_input>
W0NIM11bQ0gyXVtDSDJdbjFjKFtOSDJdKWMoYyg9TylbbkhdYzE9TylOKFtDSDJdW0NIMl1PW0NIM10pQyg9TylbQ0hdMltDSDJdW0NIMl1bQ0gyXTI=

> <s_epik_cmdline>
J2VwaWtfcHl0aG9uJywgJy1waCcsICc3LjAnLCAnLXRuJywgJzgnLCAnLW1hJywgJzIwMCcsICctbWV0YWxfYmluZGluZycsICctaW1hZScsICc8aW5maWxlLm1hZT4nLCAnLW9tYWUnLCAnPG91dGZpbGUubWFlPic=

> <r_lp_tautomer_probability>
1

> <r_epik_Ionization_Penalty>
1.77098e-05

> <r_epik_Ionization_Penalty_Charging>
5.46221e-06

> <r_epik_Ionization_Penalty_Neutral>
1.22476e-05

> <r_epik_State_Penalty>
-0

> <r_epik_Charging_Adjusted_Penalty>
5.46221e-06

> <i_epik_Tot_Q>
0

> <i_epik_Tot_abs_Q>
0

> <r_epik_Metal_State_Penalty>
-0

> <b_epik_Metal_Only>
0

> <s_epik_Chemistry_Notes>
This compound has an imine and may undergo hydrolysis.

> <s_lp_Force_Field>
OPLS_2005

> <r_lp_Energy>
36.0285

> <b_lp_Chiralities_Consistent>
1

> <s_lp_Variant>
AV-unprocessed.smi:602-1

> <Gold.Version>
5.8.1

> <Gold.Id.Protein>
6NUR|6NUR_protein|mol2

> <Gold.PLP.Fitness>
37.9431

> <Gold.PLP.PLP>
-28.2735

> <Gold.PLP.part.hbond>
-4.0000

> <Gold.PLP.part.metal>
0.0000

> <Gold.PLP.part.buried>
-4.6801

> <Gold.PLP.part.nonpolar>
-20.7375

> <Gold.PLP.part.repulsive>
0.1691

> <Gold.PLP.ligand.clash>
0.0000

> <Gold.PLP.ligand.torsion>
2.1405

> <Gold.PLP.Chemscore.Hbond>
3.7920

> <Gold.PLP.Chemscore.CHOScore>
0.0000

> <Gold.PLP.Chemscore.Metal>
0.0000

> <Gold.Chemscore.Hbonds>
donor molecule, donor type, donor heavy atom, donor atom, acceptor molecule, acceptor atom, score
      P1  H  6896  6908       L1    11  0.51
      P1  H  6896  6909       L1    20  1.00
      P1  H  6931  6943       L1    14  0.93
      P1  H  6934  6947       L1    14  0.86

> <Gold.PLP.Chemscore.Internal.Correction>
2.5746

> <Gold.Rescore>
     Score         DG    S(hbond)    S(metal)    S(lipo)     H(rot)  DE(clash)    DE(int)     intcor
     14.01     -18.63       3.68        0.00      53.72       2.12       0.02       4.60       ----

> <Gold.Chemscore.Fitness>
14.0147

> <Gold.Chemscore.DG>
-18.6282

> <Gold.Chemscore.ZeroCoef>
-5.4800

> <Gold.Chemscore.Hbond>
3.6816

> <Gold.Chemscore.Metal>
0.0000

> <Gold.Chemscore.Lipo>
53.7224

> <Gold.Chemscore.Internal_Hbond>
0.0000

> <Gold.Chemscore.DEClash>
0.0158

> <Gold.Chemscore.DEInternal>
4.5977

> <Gold.Chemscore.Rot>
2.1226

> <Gold.Chemscore.Internal.Correction>
   9.000000E+99

> <Gold.Chemscore.Hbonds>
donor molecule, donor type, donor heavy atom, donor atom, acceptor molecule, acceptor atom, score
      P1  H  6896  6908       L1    11  0.40
      P1  H  6896  6909       L1    20  1.00
      P1  H  6931  6943       L1    14  0.90
      P1  H  6934  6947       L1    14  0.85

> <Gold.Chemscore.Hbond.Weighted>
-12.2964

> <Gold.Chemscore.Metal.Weighted>
-0.0000

> <Gold.Chemscore.Lipo.Weighted>
-6.2855

> <Gold.Chemscore.Internal_Hbond.Weighted>
0.0000

> <Gold.Chemscore.DEClash.Weighted>
0.0158

> <Gold.Chemscore.DEInternal.Weighted>
4.5977

> <Gold.Chemscore.Rot.Weighted>
5.4338

> <Gold.Chemscore.Internal.Correction.Weighted>
   9.000000E+99

> <Gold.Protein.RotatedTorsions>
[ 6907 6896 6895 6894 ] final  109.21 input  -60.11 | X-H torsion
[ 7974 7965 7964 7962 ] final  101.80 input  175.53 | X-H torsion
[ 8008 7997 7996 7995 ] final  -27.53 input   59.86 | X-H torsion
[ 10167 10162 10161 10158 ] final   42.47 input  -65.29 | X-H torsion
[ 10718 10713 10712 10709 ] final  -97.05 input   66.30 | X-H torsion
[ 10763 10752 10751 10750 ] final  -42.07 input  -60.55 | X-H torsion
[ 11005 11000 10999 10996 ] final   11.09 input  -57.11 | X-H torsion

> <Gold.Protein.ActiveResidues>
 VAL166  LYS551  ARG553  GLY616  TRP617  ASP618  TYR619  PRO620  LYS621  CYS622 
 ASP623  PHE694  ASN695  SER759  ASP760  ASP761  ALA762  ILE779  LEU786  VAL792 
 PHE793  MET794  SER795  GLU796  ALA797  LYS798  CYS799  TRP800  GLU811  SER814 

> <Gold.Protein.RotatedAtoms>
  152.5078  133.8977  159.7425 H   0  0  0  0  0  0  0  0  0  0  0  0  # atno 6907 bound_to 6896
  150.9401  133.6658  159.2799 H   0  0  0  0  0  0  0  0  0  0  0  0  # atno 6908 bound_to 6896
  151.3973  135.0970  159.9597 H   0  0  0  0  0  0  0  0  0  0  0  0  # atno 6909 bound_to 6896
  145.3675  139.2405  143.3473 H   0  0  0  0  0  0  0  0  0  0  0  0  # atno 7974 bound_to 7965
  154.4373  140.1870  156.0947 H   0  0  0  0  0  0  0  0  0  0  0  0  # atno 8008 bound_to 7997
  156.0339  140.3327  155.7143 H   0  0  0  0  0  0  0  0  0  0  0  0  # atno 8009 bound_to 7997
  155.5799  140.0620  157.2776 H   0  0  0  0  0  0  0  0  0  0  0  0  # atno 8010 bound_to 7997
  140.3540  144.2313  150.6143 H   0  0  0  0  0  0  0  0  0  0  0  0  # atno 10167 bound_to 10162
  156.0075  130.5177  150.6317 H   0  0  0  0  0  0  0  0  0  0  0  0  # atno 10718 bound_to 10713
  153.9730  135.6726  153.4747 H   0  0  0  0  0  0  0  0  0  0  0  0  # atno 10763 bound_to 10752
  153.0784  135.4936  154.8449 H   0  0  0  0  0  0  0  0  0  0  0  0  # atno 10764 bound_to 10752
  154.7208  135.3117  154.9011 H   0  0  0  0  0  0  0  0  0  0  0  0  # atno 10765 bound_to 10752
  140.5071  134.0688  155.7808 H   0  0  0  0  0  0  0  0  0  0  0  0  # atno 11005 bound_to 11000
  146.2900  140.4321  142.8743 LP  0  0  0  0  0  0  0  0  0  0  0  0  # atno 17320 bound_to 7965
  144.8600  140.7126  143.6113 LP  0  0  0  0  0  0  0  0  0  0  0  0  # atno 17321 bound_to 7965
  140.5191  143.2270  151.8417 LP  0  0  0  0  0  0  0  0  0  0  0  0  # atno 17342 bound_to 10162
  139.4822  144.4858  151.9248 LP  0  0  0  0  0  0  0  0  0  0  0  0  # atno 17343 bound_to 10162
  157.4113  131.0824  151.1218 LP  0  0  0  0  0  0  0  0  0  0  0  0  # atno 17370 bound_to 10713
  157.1848  130.6325  149.5684 LP  0  0  0  0  0  0  0  0  0  0  0  0  # atno 17371 bound_to 10713
  141.1405  133.9147  157.2337 LP  0  0  0  0  0  0  0  0  0  0  0  0  # atno 17394 bound_to 11000
  139.9680  135.0136  156.9437 LP  0  0  0  0  0  0  0  0  0  0  0  0  # atno 17395 bound_to 11000

$$$$
