AV-unprocessed.smi:3285|AV-procd|sdf|12581|dock7
  -GOLD-   2272018503D 1   1.00000     0.00000
 Structure written by MMmdl.
 45 46  0  0  0  0  0  0  0  0  2 V2000
  152.4042  141.0152  153.1176 C   0  0  0  0  0  0  0  0  0  0  0  0
  151.1352  140.3082  153.4992 C   0  0  0  0  0  0  0  0  0  0  0  0
  150.7896  139.2029  152.8614 N   0  0  0  0  0  0  0  0  0  0  0  0
  149.5796  138.7942  153.4300 O   0  0  0  0  0  0  0  0  0  0  0  0
  149.2385  139.6820  154.3980 C   0  0  0  0  0  0  0  0  0  0  0  0
  147.9640  139.4227  155.1282 C   0  0  0  0  0  0  0  0  0  0  0  0
  150.1808  140.6688  154.4937 C   0  0  0  0  0  0  0  0  0  0  0  0
  150.2066  141.8548  155.4194 C   0  0  0  0  0  0  0  0  0  0  0  0
  149.3527  141.6089  156.6699 C   0  0  0  0  0  0  0  0  0  0  0  0
  150.1474  140.9599  157.7332 N   0  3  0  0  0  0  0  0  0  0  0  0
  151.3522  141.7022  158.1661 C   0  0  1  0  0  0  0  0  0  0  0  0
  150.9328  142.9703  158.9310 C   0  0  0  0  0  0  0  0  0  0  0  0
  152.1541  143.7577  159.4347 C   0  0  0  0  0  0  0  0  0  0  0  0
  153.0851  142.8963  160.3121 C   0  0  1  0  0  0  0  0  0  0  0  0
  152.4703  142.6273  161.7007 C   0  0  0  0  0  0  0  0  0  0  0  0
  153.5034  141.6169  159.5432 C   0  0  1  0  0  0  0  0  0  0  0  0
  154.4732  140.7223  160.3330 C   0  0  0  0  0  0  0  0  0  0  0  0
  152.2788  140.8267  159.0372 C   0  0  0  0  0  0  0  0  0  0  0  0
  152.2073  141.7983  152.3854 H   0  0  0  0  0  0  0  0  0  0  0  0
  153.1308  140.3280  152.6826 H   0  0  0  0  0  0  0  0  0  0  0  0
  152.8727  141.4807  153.9846 H   0  0  0  0  0  0  0  0  0  0  0  0
  147.2605  140.2414  154.9777 H   0  0  0  0  0  0  0  0  0  0  0  0
  148.1460  139.3251  156.1983 H   0  0  0  0  0  0  0  0  0  0  0  0
  147.4913  138.5035  154.7817 H   0  0  0  0  0  0  0  0  0  0  0  0
  151.2298  142.0817  155.7216 H   0  0  0  0  0  0  0  0  0  0  0  0
  149.8477  142.7473  154.9057 H   0  0  0  0  0  0  0  0  0  0  0  0
  148.9537  142.5559  157.0330 H   0  0  0  0  0  0  0  0  0  0  0  0
  148.5023  140.9739  156.4173 H   0  0  0  0  0  0  0  0  0  0  0  0
  149.5453  140.8618  158.5382 H   0  0  0  0  0  0  0  0  0  0  0  0
  151.8964  142.0158  157.2737 H   0  0  0  0  0  0  0  0  0  0  0  0
  150.3319  143.6114  158.2847 H   0  0  0  0  0  0  0  0  0  0  0  0
  150.2930  142.7043  159.7733 H   0  0  0  0  0  0  0  0  0  0  0  0
  152.7146  144.1305  158.5763 H   0  0  0  0  0  0  0  0  0  0  0  0
  151.8273  144.6409  159.9848 H   0  0  0  0  0  0  0  0  0  0  0  0
  153.9883  143.4828  160.4866 H   0  0  0  0  0  0  0  0  0  0  0  0
  151.5870  141.9919  161.6454 H   0  0  0  0  0  0  0  0  0  0  0  0
  152.1728  143.5601  162.1804 H   0  0  0  0  0  0  0  0  0  0  0  0
  153.1844  142.1440  162.3674 H   0  0  0  0  0  0  0  0  0  0  0  0
  154.0512  141.9490  158.6597 H   0  0  0  0  0  0  0  0  0  0  0  0
  153.9903  140.2653  161.1971 H   0  0  0  0  0  0  0  0  0  0  0  0
  155.3319  141.2915  160.6898 H   0  0  0  0  0  0  0  0  0  0  0  0
  154.8532  139.9137  159.7080 H   0  0  0  0  0  0  0  0  0  0  0  0
  151.7216  140.4207  159.8822 H   0  0  0  0  0  0  0  0  0  0  0  0
  152.6286  139.9679  158.4644 H   0  0  0  0  0  0  0  0  0  0  0  0
  150.4239  140.0379  157.4272 H   0  0  0  0  0  0  0  0  0  0  0  0
  1  2  1  0  0  0  0
  1 19  1  0  0  0  0
  1 20  1  0  0  0  0
  1 21  1  0  0  0  0
  2  7  1  0  0  0  0
  2  3  2  0  0  0  0
  3  4  1  0  0  0  0
  4  5  1  0  0  0  0
  5  6  1  0  0  0  0
  5  7  2  0  0  0  0
  6 22  1  0  0  0  0
  6 23  1  0  0  0  0
  6 24  1  0  0  0  0
  7  8  1  0  0  0  0
  8  9  1  0  0  0  0
  8 25  1  0  0  0  0
  8 26  1  0  0  0  0
  9 10  1  0  0  0  0
  9 27  1  0  0  0  0
  9 28  1  0  0  0  0
 10 11  1  0  0  0  0
 10 29  1  0  0  0  0
 10 45  1  0  0  0  0
 11 18  1  0  0  0  0
 11 12  1  0  0  0  0
 11 30  1  0  0  0  0
 12 13  1  0  0  0  0
 12 31  1  0  0  0  0
 12 32  1  0  0  0  0
 13 14  1  0  0  0  0
 13 33  1  0  0  0  0
 13 34  1  0  0  0  0
 14 15  1  0  0  0  0
 14 16  1  0  0  0  0
 14 35  1  0  0  0  0
 15 36  1  0  0  0  0
 15 37  1  0  0  0  0
 15 38  1  0  0  0  0
 16 17  1  0  0  0  0
 16 18  1  0  0  0  0
 16 39  1  0  0  0  0
 17 40  1  0  0  0  0
 17 41  1  0  0  0  0
 17 42  1  0  0  0  0
 18 43  1  0  0  0  0
 18 44  1  0  0  0  0
M  CHG  1  10   1
M  END
> <s_m_source_file>
AV-unprocessed.smi

> <i_m_source_file_index>
3285

> <i_lp_mmshare_version>
43012

> <i_f3d_flags>
0

> <s_epik_input>
W0NIM11jMW5vYyhbQ0gzXSljMVtDSDJdW0NIMl1bTkhdW0NAQEhdMltDSDJdW0NIMl1bQ0BASF0oW0NIM10pW0NAQEhdKFtDSDNdKVtDSDJdMg==

> <s_epik_cmdline>
J2VwaWtfcHl0aG9uJywgJy1waCcsICc3LjAnLCAnLXRuJywgJzgnLCAnLW1hJywgJzIwMCcsICctbWV0YWxfYmluZGluZycsICctaW1hZScsICc8aW5maWxlLm1hZT4nLCAnLW9tYWUnLCAnPG91dGZpbGUubWFlPic=

> <r_lp_tautomer_probability>
1

> <r_epik_Ionization_Penalty>
0.000204615

> <r_epik_Ionization_Penalty_Charging>
0.000204615

> <r_epik_Ionization_Penalty_Neutral>
9.28663e-11

> <r_epik_State_Penalty>
-0

> <r_epik_Charging_Adjusted_Penalty>
0.000204615

> <i_epik_Tot_Q>
1

> <i_epik_Tot_abs_Q>
1

> <r_epik_Metal_State_Penalty>
-0

> <b_epik_Metal_Only>
0

> <s_lp_Force_Field>
OPLS_2005

> <r_lp_Energy>
12.3416

> <b_lp_Chiralities_Consistent>
1

> <s_lp_Variant>
AV-unprocessed.smi:3285-2

> <Gold.Version>
5.8.1

> <Gold.Id.Protein>
6NUR|6NUR_protein|mol2

> <Gold.PLP.Fitness>
42.2776

> <Gold.PLP.PLP>
-40.3872

> <Gold.PLP.part.hbond>
-1.0000

> <Gold.PLP.part.metal>
0.0000

> <Gold.PLP.part.buried>
-3.0970

> <Gold.PLP.part.nonpolar>
-36.0617

> <Gold.PLP.part.repulsive>
0.4430

> <Gold.PLP.ligand.clash>
0.0000

> <Gold.PLP.ligand.torsion>
0.5604

> <Gold.PLP.Chemscore.Hbond>
1.0000

> <Gold.PLP.Chemscore.CHOScore>
0.0000

> <Gold.PLP.Chemscore.Metal>
0.0000

> <Gold.PLP.Chemscore.Internal.Correction>
0.0111

> <Gold.Rescore>
     Score         DG    S(hbond)    S(metal)    S(lipo)     H(rot)  DE(clash)    DE(int)     intcor
     17.52     -19.85       0.97        0.00     124.64       1.35       0.34       1.99       ----

> <Gold.Chemscore.Fitness>
17.5178

> <Gold.Chemscore.DG>
-19.8492

> <Gold.Chemscore.ZeroCoef>
-5.4800

> <Gold.Chemscore.Hbond>
0.9682

> <Gold.Chemscore.Metal>
0.0000

> <Gold.Chemscore.Lipo>
124.6365

> <Gold.Chemscore.Internal_Hbond>
0.0000

> <Gold.Chemscore.DEClash>
0.3377

> <Gold.Chemscore.DEInternal>
1.9937

> <Gold.Chemscore.Rot>
1.3465

> <Gold.Chemscore.Internal.Correction>
   9.000000E+99

> <Gold.Chemscore.Hbond.Weighted>
-3.2337

> <Gold.Chemscore.Metal.Weighted>
-0.0000

> <Gold.Chemscore.Lipo.Weighted>
-14.5825

> <Gold.Chemscore.Internal_Hbond.Weighted>
0.0000

> <Gold.Chemscore.DEClash.Weighted>
0.3377

> <Gold.Chemscore.DEInternal.Weighted>
1.9937

> <Gold.Chemscore.Rot.Weighted>
3.4470

> <Gold.Chemscore.Internal.Correction.Weighted>
   9.000000E+99

> <Gold.Protein.RotatedTorsions>
[ 6907 6896 6895 6894 ] final  160.93 input  -60.11 | X-H torsion
[ 7974 7965 7964 7962 ] final  -33.84 input  175.53 | X-H torsion
[ 8008 7997 7996 7995 ] final   74.67 input   59.86 | X-H torsion
[ 10167 10162 10161 10158 ] final  156.11 input  -65.29 | X-H torsion
[ 10718 10713 10712 10709 ] final -145.98 input   66.30 | X-H torsion
[ 10763 10752 10751 10750 ] final   46.74 input  -60.55 | X-H torsion
[ 11005 11000 10999 10996 ] final -162.69 input  -57.11 | X-H torsion

> <Gold.Protein.ActiveResidues>
 VAL166  LYS551  ARG553  GLY616  TRP617  ASP618  TYR619  PRO620  LYS621  CYS622 
 ASP623  PHE694  ASN695  SER759  ASP760  ASP761  ALA762  ILE779  LEU786  VAL792 
 PHE793  MET794  SER795  GLU796  ALA797  LYS798  CYS799  TRP800  GLU811  SER814 

> <Gold.Protein.RotatedAtoms>
  151.9633  133.3702  159.4043 H   0  0  0  0  0  0  0  0  0  0  0  0  # atno 6907 bound_to 6896
  150.6960  134.4218  159.5217 H   0  0  0  0  0  0  0  0  0  0  0  0  # atno 6908 bound_to 6896
  152.1910  134.8672  160.0568 H   0  0  0  0  0  0  0  0  0  0  0  0  # atno 6909 bound_to 6896
  146.0878  140.5966  142.8878 H   0  0  0  0  0  0  0  0  0  0  0  0  # atno 7974 bound_to 7965
  155.8018  140.3476  155.5407 H   0  0  0  0  0  0  0  0  0  0  0  0  # atno 8008 bound_to 7997
  155.8530  140.0959  157.1682 H   0  0  0  0  0  0  0  0  0  0  0  0  # atno 8009 bound_to 7997
  154.4008  140.1373  156.3855 H   0  0  0  0  0  0  0  0  0  0  0  0  # atno 8010 bound_to 7997
  139.4821  144.5038  151.8128 H   0  0  0  0  0  0  0  0  0  0  0  0  # atno 10167 bound_to 10162
  156.3892  130.7877  151.2077 H   0  0  0  0  0  0  0  0  0  0  0  0  # atno 10718 bound_to 10713
  152.9807  135.5998  154.3648 H   0  0  0  0  0  0  0  0  0  0  0  0  # atno 10763 bound_to 10752
  154.3327  135.2768  155.2465 H   0  0  0  0  0  0  0  0  0  0  0  0  # atno 10764 bound_to 10752
  154.4582  135.5972  153.6293 H   0  0  0  0  0  0  0  0  0  0  0  0  # atno 10765 bound_to 10752
  140.6064  134.4894  157.5211 H   0  0  0  0  0  0  0  0  0  0  0  0  # atno 11005 bound_to 11000
  144.7338  140.4749  143.6918 LP  0  0  0  0  0  0  0  0  0  0  0  0  # atno 17320 bound_to 7965
  145.6097  139.1512  143.3082 LP  0  0  0  0  0  0  0  0  0  0  0  0  # atno 17321 bound_to 7965
  140.4534  144.1823  150.5899 LP  0  0  0  0  0  0  0  0  0  0  0  0  # atno 17342 bound_to 10162
  140.4560  143.2467  151.9283 LP  0  0  0  0  0  0  0  0  0  0  0  0  # atno 17343 bound_to 10162
  157.7498  131.0321  150.4210 LP  0  0  0  0  0  0  0  0  0  0  0  0  # atno 17370 bound_to 10713
  156.4468  130.4003  149.6661 LP  0  0  0  0  0  0  0  0  0  0  0  0  # atno 17371 bound_to 10713
  139.9210  134.8148  156.1211 LP  0  0  0  0  0  0  0  0  0  0  0  0  # atno 17394 bound_to 11000
  141.0837  133.6743  156.2391 LP  0  0  0  0  0  0  0  0  0  0  0  0  # atno 17395 bound_to 11000

$$$$
