AV-unprocessed.smi:670|AV-procd|sdf|3267|dock8
  -GOLD-   22720 0223D 1   1.00000     0.00000
 Structure written by MMmdl.
 44 45  0  0  0  0  0  0  0  0  2 V2000
  145.6056  135.9491  151.1059 C   0  0  0  0  0  0  0  0  0  0  0  0
  145.5468  134.4357  150.8489 C   0  0  2  0  0  0  0  0  0  0  0  0
  144.0926  133.9277  150.7809 C   0  0  0  0  0  0  0  0  0  0  0  0
  144.0336  132.4232  150.4727 C   0  0  0  0  0  0  0  0  0  0  0  0
  144.8508  131.6120  151.4893 C   0  0  0  0  0  0  0  0  0  0  0  0
  146.3024  132.1142  151.5689 C   0  0  0  0  0  0  0  0  0  0  0  0
  146.3735  133.6223  151.8730 C   0  0  2  0  0  0  0  0  0  0  0  0
  145.8596  133.8244  153.1845 O   0  0  0  0  0  0  0  0  0  0  0  0
  146.7278  133.4076  154.2273 C   0  0  0  0  0  0  0  0  0  0  0  0
  146.0923  133.7667  155.5778 C   0  0  0  0  0  0  0  0  0  0  0  0
  147.0984  133.9179  156.6225 N   0  0  0  0  0  0  0  0  0  0  0  0
  147.0455  133.3548  157.8390 C   0  0  0  0  0  0  0  0  0  0  0  0
  146.1201  132.6343  158.2141 O   0  0  0  0  0  0  0  0  0  0  0  0
  148.2316  133.6353  158.7680 C   0  0  0  0  0  0  0  0  0  0  0  0
  147.7979  134.1017  160.0914 N   0  0  0  0  0  0  0  0  0  0  0  0
  148.0191  135.5288  160.3111 N   0  5  0  0  0  0  0  0  0  0  0  0
  147.6337  136.0857  161.4898 C   0  0  0  0  0  0  0  0  0  0  0  0
  147.7753  137.2804  161.7402 O   0  0  0  0  0  0  0  0  0  0  0  0
  147.0316  135.2206  162.4905 C   0  0  0  0  0  0  0  0  0  0  0  0
  146.8534  133.9038  162.2666 C   0  0  0  0  0  0  0  0  0  0  0  0
  147.2452  133.2650  161.0158 C   0  0  0  0  0  0  0  0  0  0  0  0
  147.0877  132.0621  160.8079 O   0  0  0  0  0  0  0  0  0  0  0  0
  145.1259  136.2117  152.0488 H   0  0  0  0  0  0  0  0  0  0  0  0
  145.0967  136.4998  150.3145 H   0  0  0  0  0  0  0  0  0  0  0  0
  146.6360  136.3033  151.1439 H   0  0  0  0  0  0  0  0  0  0  0  0
  145.9954  134.2675  149.8686 H   0  0  0  0  0  0  0  0  0  0  0  0
  143.5863  134.1270  151.7265 H   0  0  0  0  0  0  0  0  0  0  0  0
  143.5416  134.4768  150.0166 H   0  0  0  0  0  0  0  0  0  0  0  0
  142.9972  132.0847  150.4754 H   0  0  0  0  0  0  0  0  0  0  0  0
  144.4156  132.2408  149.4676 H   0  0  0  0  0  0  0  0  0  0  0  0
  144.3838  131.6837  152.4725 H   0  0  0  0  0  0  0  0  0  0  0  0
  144.8373  130.5560  151.2191 H   0  0  0  0  0  0  0  0  0  0  0  0
  146.8484  131.5549  152.3293 H   0  0  0  0  0  0  0  0  0  0  0  0
  146.8047  131.9128  150.6218 H   0  0  0  0  0  0  0  0  0  0  0  0
  147.4205  133.9274  151.8145 H   0  0  0  0  0  0  0  0  0  0  0  0
  146.8792  132.3293  154.1624 H   0  0  0  0  0  0  0  0  0  0  0  0
  147.7071  133.8779  154.1307 H   0  0  0  0  0  0  0  0  0  0  0  0
  145.5392  134.7022  155.4924 H   0  0  0  0  0  0  0  0  0  0  0  0
  145.3692  133.0031  155.8684 H   0  0  0  0  0  0  0  0  0  0  0  0
  147.8960  134.5003  156.4103 H   0  0  0  0  0  0  0  0  0  0  0  0
  148.8342  132.7305  158.8647 H   0  0  0  0  0  0  0  0  0  0  0  0
  148.8889  134.3691  158.2972 H   0  0  0  0  0  0  0  0  0  0  0  0
  146.7218  135.6432  163.4350 H   0  0  0  0  0  0  0  0  0  0  0  0
  146.4025  133.2989  163.0391 H   0  0  0  0  0  0  0  0  0  0  0  0
  1  2  1  0  0  0  0
  1 23  1  0  0  0  0
  1 24  1  0  0  0  0
  1 25  1  0  0  0  0
  2  7  1  0  0  0  0
  2  3  1  0  0  0  0
  2 26  1  0  0  0  0
  3  4  1  0  0  0  0
  3 27  1  0  0  0  0
  3 28  1  0  0  0  0
  4  5  1  0  0  0  0
  4 29  1  0  0  0  0
  4 30  1  0  0  0  0
  5  6  1  0  0  0  0
  5 31  1  0  0  0  0
  5 32  1  0  0  0  0
  6  7  1  0  0  0  0
  6 33  1  0  0  0  0
  6 34  1  0  0  0  0
  7  8  1  0  0  0  0
  7 35  1  0  0  0  0
  8  9  1  0  0  0  0
  9 10  1  0  0  0  0
  9 36  1  0  0  0  0
  9 37  1  0  0  0  0
 10 11  1  0  0  0  0
 10 38  1  0  0  0  0
 10 39  1  0  0  0  0
 11 12  1  0  0  0  0
 11 40  1  0  0  0  0
 12 13  2  0  0  0  0
 12 14  1  0  0  0  0
 14 41  1  0  0  0  0
 14 42  1  0  0  0  0
 14 15  1  0  0  0  0
 15 16  1  0  0  0  0
 15 21  1  0  0  0  0
 16 17  1  0  0  0  0
 17 18  2  0  0  0  0
 17 19  1  0  0  0  0
 19 43  1  0  0  0  0
 19 20  2  0  0  0  0
 20 44  1  0  0  0  0
 20 21  1  0  0  0  0
 21 22  2  0  0  0  0
M  CHG  1  16  -1
M  END
> <s_m_source_file>
AV-unprocessed.smi

> <i_m_source_file_index>
670

> <i_lp_mmshare_version>
43012

> <i_f3d_flags>
0

> <s_epik_input>
W0NIM11bQ0BASF0xW0NIMl1bQ0gyXVtDSDJdW0NIMl1bQ0BIXTFPW0NIMl1bQ0gyXVtOSF1DKD1PKVtDSDJdbjJbbkhdYyg9TylbY0hdW2NIXWMyPU8=

> <s_epik_cmdline>
J2VwaWtfcHl0aG9uJywgJy1waCcsICc3LjAnLCAnLXRuJywgJzgnLCAnLW1hJywgJzIwMCcsICctbWV0YWxfYmluZGluZycsICctaW1hZScsICc8aW5maWxlLm1hZT4nLCAnLW9tYWUnLCAnPG91dGZpbGUubWFlPic=

> <r_lp_tautomer_probability>
1

> <r_epik_Ionization_Penalty>
0.0975638

> <r_epik_Ionization_Penalty_Charging>
0.0975637

> <r_epik_Ionization_Penalty_Neutral>
2.78599e-08

> <r_epik_State_Penalty>
0.0343507

> <r_epik_Charging_Adjusted_Penalty>
0.131914

> <i_epik_Tot_Q>
-1

> <i_epik_Tot_abs_Q>
1

> <r_epik_Metal_State_Penalty>
0.0343507

> <b_epik_Metal_Only>
0

> <s_lp_Force_Field>
OPLS_2005

> <r_lp_Energy>
29.4365

> <b_lp_Chiralities_Consistent>
1

> <s_lp_Variant>
AV-unprocessed.smi:670-3

> <Gold.Version>
5.8.1

> <Gold.Id.Protein>
6NUR|6NUR_protein|mol2

> <Gold.PLP.Fitness>
41.0161

> <Gold.PLP.PLP>
-36.9516

> <Gold.PLP.part.hbond>
-2.0000

> <Gold.PLP.part.metal>
0.0000

> <Gold.PLP.part.buried>
-4.5281

> <Gold.PLP.part.nonpolar>
-29.9559

> <Gold.PLP.part.repulsive>
0.0905

> <Gold.PLP.ligand.clash>
0.0000

> <Gold.PLP.ligand.torsion>
0.5468

> <Gold.PLP.Chemscore.Hbond>
1.7057

> <Gold.PLP.Chemscore.CHOScore>
0.0000

> <Gold.PLP.Chemscore.Metal>
0.0000

> <Gold.Chemscore.Hbonds>
donor molecule, donor type, donor heavy atom, donor atom, acceptor molecule, acceptor atom, score
      P1  H  6931  6943       L1    18  1.00
      P1  H  6934  6947       L1    18  0.66

> <Gold.PLP.Chemscore.Internal.Correction>
0.0411

> <Gold.Rescore>
     Score         DG    S(hbond)    S(metal)    S(lipo)     H(rot)  DE(clash)    DE(int)     intcor
     11.90     -13.71       1.72        0.00      74.96       2.45       0.00       1.81       ----

> <Gold.Chemscore.Fitness>
11.9010

> <Gold.Chemscore.DG>
-13.7104

> <Gold.Chemscore.ZeroCoef>
-5.4800

> <Gold.Chemscore.Hbond>
1.7154

> <Gold.Chemscore.Metal>
0.0000

> <Gold.Chemscore.Lipo>
74.9598

> <Gold.Chemscore.Internal_Hbond>
0.0000

> <Gold.Chemscore.DEClash>
0.0024

> <Gold.Chemscore.DEInternal>
1.8070

> <Gold.Chemscore.Rot>
2.4490

> <Gold.Chemscore.Internal.Correction>
   9.000000E+99

> <Gold.Chemscore.Hbonds>
donor molecule, donor type, donor heavy atom, donor atom, acceptor molecule, acceptor atom, score
      P1  H  6931  6943       L1    18  0.93
      P1  H  6934  6947       L1    18  0.61

> <Gold.Chemscore.Hbond.Weighted>
-5.7295

> <Gold.Chemscore.Metal.Weighted>
-0.0000

> <Gold.Chemscore.Lipo.Weighted>
-8.7703

> <Gold.Chemscore.Internal_Hbond.Weighted>
0.0000

> <Gold.Chemscore.DEClash.Weighted>
0.0024

> <Gold.Chemscore.DEInternal.Weighted>
1.8070

> <Gold.Chemscore.Rot.Weighted>
6.2694

> <Gold.Chemscore.Internal.Correction.Weighted>
   9.000000E+99

> <Gold.Protein.RotatedTorsions>
[ 6907 6896 6895 6894 ] final -136.18 input  -60.11 | X-H torsion
[ 7974 7965 7964 7962 ] final   75.10 input  175.53 | X-H torsion
[ 8008 7997 7996 7995 ] final   19.24 input   59.86 | X-H torsion
[ 10167 10162 10161 10158 ] final  172.14 input  -65.29 | X-H torsion
[ 10718 10713 10712 10709 ] final   -0.83 input   66.30 | X-H torsion
[ 10763 10752 10751 10750 ] final  -72.70 input  -60.55 | X-H torsion
[ 11005 11000 10999 10996 ] final -134.09 input  -57.11 | X-H torsion

> <Gold.Protein.ActiveResidues>
 VAL166  LYS551  ARG553  GLY616  TRP617  ASP618  TYR619  PRO620  LYS621  CYS622 
 ASP623  PHE694  ASN695  SER759  ASP760  ASP761  ALA762  ILE779  LEU786  VAL792 
 PHE793  MET794  SER795  GLU796  ALA797  LYS798  CYS799  TRP800  GLU811  SER814 

> <Gold.Protein.RotatedAtoms>
  151.0069  133.6002  159.2687 H   0  0  0  0  0  0  0  0  0  0  0  0  # atno 6907 bound_to 6896
  151.3168  135.0807  159.9301 H   0  0  0  0  0  0  0  0  0  0  0  0  # atno 6908 bound_to 6896
  152.5289  133.9724  159.7822 H   0  0  0  0  0  0  0  0  0  0  0  0  # atno 6909 bound_to 6896
  145.7198  139.2644  143.1602 H   0  0  0  0  0  0  0  0  0  0  0  0  # atno 7974 bound_to 7965
  154.9179  140.3023  155.5232 H   0  0  0  0  0  0  0  0  0  0  0  0  # atno 8008 bound_to 7997
  156.3011  140.2377  156.4161 H   0  0  0  0  0  0  0  0  0  0  0  0  # atno 8009 bound_to 7997
  154.8360  140.0416  157.1498 H   0  0  0  0  0  0  0  0  0  0  0  0  # atno 8010 bound_to 7997
  139.5067  144.3407  152.0020 H   0  0  0  0  0  0  0  0  0  0  0  0  # atno 10167 bound_to 10162
  156.8146  130.5436  149.5704 H   0  0  0  0  0  0  0  0  0  0  0  0  # atno 10718 bound_to 10713
  154.4494  135.5921  153.6181 H   0  0  0  0  0  0  0  0  0  0  0  0  # atno 10763 bound_to 10752
  152.9812  135.6017  154.3624 H   0  0  0  0  0  0  0  0  0  0  0  0  # atno 10764 bound_to 10752
  154.3483  135.2841  155.2364 H   0  0  0  0  0  0  0  0  0  0  0  0  # atno 10765 bound_to 10752
  140.9022  134.1676  157.4452 H   0  0  0  0  0  0  0  0  0  0  0  0  # atno 11005 bound_to 11000
  146.0636  140.7944  142.9722 LP  0  0  0  0  0  0  0  0  0  0  0  0  # atno 17320 bound_to 7965
  144.6919  140.3234  143.7228 LP  0  0  0  0  0  0  0  0  0  0  0  0  # atno 17321 bound_to 7965
  140.2845  144.3822  150.6108 LP  0  0  0  0  0  0  0  0  0  0  0  0  # atno 17342 bound_to 10162
  140.5993  143.2167  151.7103 LP  0  0  0  0  0  0  0  0  0  0  0  0  # atno 17343 bound_to 10162
  156.1024  130.5979  150.9916 LP  0  0  0  0  0  0  0  0  0  0  0  0  # atno 17370 bound_to 10713
  157.6488  131.0900  150.8095 LP  0  0  0  0  0  0  0  0  0  0  0  0  # atno 17371 bound_to 10713
  139.8744  134.9902  156.5493 LP  0  0  0  0  0  0  0  0  0  0  0  0  # atno 17394 bound_to 11000
  140.8216  133.8349  155.8901 LP  0  0  0  0  0  0  0  0  0  0  0  0  # atno 17395 bound_to 11000

$$$$
