AV-unprocessed.smi:2510|AV-procd|sdf|9877|dock1
  -GOLD-   2272013513D 1   1.00000     0.00000
 Structure written by MMmdl.
 48 49  0  0  0  0  0  0  0  0  1 V2000
  151.0787  143.1719  157.7150 C   0  0  0  0  0  0  0  0  0  0  0  0
  151.9679  142.0944  158.3583 C   0  0  0  0  0  0  0  0  0  0  0  0
  151.6847  140.6438  157.8976 C   0  0  0  0  0  0  0  0  0  0  0  0
  152.8758  139.7487  158.3330 C   0  0  0  0  0  0  0  0  0  0  0  0
  153.2033  139.7786  159.8343 C   0  0  0  0  0  0  0  0  0  0  0  0
  150.2393  140.1564  158.2232 C   0  0  2  0  0  0  0  0  0  0  0  0
  150.1278  138.7082  158.3888 N   0  0  0  0  0  0  0  0  0  0  0  0
  148.9809  138.0387  158.5758 C   0  0  0  0  0  0  0  0  0  0  0  0
  147.8700  138.5659  158.5229 O   0  0  0  0  0  0  0  0  0  0  0  0
  149.1138  136.5508  158.9040 C   0  0  0  0  0  0  0  0  0  0  0  0
  148.2716  136.2204  160.1086 C   0  0  0  0  0  0  0  0  0  0  0  0
  147.9588  134.9312  160.6330 C   0  0  0  0  0  0  0  0  0  0  0  0
  147.1305  135.1873  161.6888 C   0  0  0  0  0  0  0  0  0  0  0  0
  146.4382  134.2725  162.6411 C   0  0  0  0  0  0  0  0  0  0  0  0
  147.0003  136.5555  161.7524 N   0  0  0  0  0  0  0  0  0  0  0  0
  147.6962  137.1978  160.7965 N   0  0  0  0  0  0  0  0  0  0  0  0
  149.7927  140.6057  156.8210 C   0  0  2  0  0  0  0  0  0  0  0  0
  148.7148  139.8457  156.0505 C   0  0  0  0  0  0  0  0  0  0  0  0
  151.2731  140.5349  156.4039 C   0  0  2  0  0  0  0  0  0  0  0  0
  151.6215  139.2713  155.8474 O   0  0  0  0  0  0  0  0  0  0  0  0
  151.1872  139.1109  154.5084 C   0  0  0  0  0  0  0  0  0  0  0  0
  146.4472  137.0571  162.4326 H   0  0  0  0  0  0  0  0  0  0  0  0
  151.4257  144.1671  157.9932 H   0  0  0  0  0  0  0  0  0  0  0  0
  150.0426  143.0928  158.0425 H   0  0  0  0  0  0  0  0  0  0  0  0
  151.0942  143.1118  156.6271 H   0  0  0  0  0  0  0  0  0  0  0  0
  153.0010  142.3571  158.1320 H   0  0  0  0  0  0  0  0  0  0  0  0
  151.9049  142.1768  159.4427 H   0  0  0  0  0  0  0  0  0  0  0  0
  152.7271  138.7180  158.0125 H   0  0  0  0  0  0  0  0  0  0  0  0
  153.7861  140.0583  157.8216 H   0  0  0  0  0  0  0  0  0  0  0  0
  154.1301  139.2392  160.0313 H   0  0  0  0  0  0  0  0  0  0  0  0
  152.4245  139.3060  160.4318 H   0  0  0  0  0  0  0  0  0  0  0  0
  153.3354  140.7997  160.1923 H   0  0  0  0  0  0  0  0  0  0  0  0
  149.7422  140.7242  159.0110 H   0  0  0  0  0  0  0  0  0  0  0  0
  150.9930  138.1911  158.4552 H   0  0  0  0  0  0  0  0  0  0  0  0
  148.7967  135.9573  158.0458 H   0  0  0  0  0  0  0  0  0  0  0  0
  150.1642  136.3130  159.0788 H   0  0  0  0  0  0  0  0  0  0  0  0
  148.2797  133.9646  160.2738 H   0  0  0  0  0  0  0  0  0  0  0  0
  147.0155  133.3601  162.7913 H   0  0  0  0  0  0  0  0  0  0  0  0
  145.4565  133.9916  162.2589 H   0  0  0  0  0  0  0  0  0  0  0  0
  146.3009  134.7471  163.6131 H   0  0  0  0  0  0  0  0  0  0  0  0
  149.5080  141.6572  156.8816 H   0  0  0  0  0  0  0  0  0  0  0  0
  148.9830  138.8013  155.8910 H   0  0  0  0  0  0  0  0  0  0  0  0
  148.5446  140.2922  155.0711 H   0  0  0  0  0  0  0  0  0  0  0  0
  147.7656  139.8623  156.5861 H   0  0  0  0  0  0  0  0  0  0  0  0
  151.6146  141.3818  155.8057 H   0  0  0  0  0  0  0  0  0  0  0  0
  151.4481  138.1125  154.1576 H   0  0  0  0  0  0  0  0  0  0  0  0
  151.6724  139.8349  153.8529 H   0  0  0  0  0  0  0  0  0  0  0  0
  150.1075  139.2289  154.4181 H   0  0  0  0  0  0  0  0  0  0  0  0
  1  2  1  0  0  0  0
  1 23  1  0  0  0  0
  1 24  1  0  0  0  0
  1 25  1  0  0  0  0
  2  3  1  0  0  0  0
  2 26  1  0  0  0  0
  2 27  1  0  0  0  0
  3 19  1  0  0  0  0
  3  4  1  0  0  0  0
  3  6  1  0  0  0  0
  4  5  1  0  0  0  0
  4 28  1  0  0  0  0
  4 29  1  0  0  0  0
  5 30  1  0  0  0  0
  5 31  1  0  0  0  0
  5 32  1  0  0  0  0
  6  7  1  0  0  0  0
  6 17  1  0  0  0  0
  6 33  1  0  0  0  0
  7  8  1  0  0  0  0
  7 34  1  0  0  0  0
  8  9  2  0  0  0  0
  8 10  1  0  0  0  0
 10 11  1  0  0  0  0
 10 35  1  0  0  0  0
 10 36  1  0  0  0  0
 11 16  2  0  0  0  0
 11 12  1  0  0  0  0
 12 13  2  0  0  0  0
 12 37  1  0  0  0  0
 13 14  1  0  0  0  0
 13 15  1  0  0  0  0
 14 38  1  0  0  0  0
 14 39  1  0  0  0  0
 14 40  1  0  0  0  0
 15 22  1  0  0  0  0
 15 16  1  0  0  0  0
 17 18  1  0  0  0  0
 17 19  1  0  0  0  0
 17 41  1  0  0  0  0
 18 42  1  0  0  0  0
 18 43  1  0  0  0  0
 18 44  1  0  0  0  0
 19 20  1  0  0  0  0
 19 45  1  0  0  0  0
 20 21  1  0  0  0  0
 21 46  1  0  0  0  0
 21 47  1  0  0  0  0
 21 48  1  0  0  0  0
M  END
> <s_m_source_file>
AV-unprocessed.smi

> <i_m_source_file_index>
2510

> <i_lp_mmshare_version>
43012

> <i_f3d_flags>
0

> <s_epik_input>
W0NIM11PW0NAQEhdMVtDQEhdKFtDSDNdKVtDQEBIXShDMShbQ0gyXVtDSDNdKVtDSDJdW0NIM10pW05IXUMoPU8pW0NIMl1jMltjSF1jKFtDSDNdKVtuSF1uMg==

> <s_epik_cmdline>
J2VwaWtfcHl0aG9uJywgJy1waCcsICc3LjAnLCAnLXRuJywgJzgnLCAnLW1hJywgJzIwMCcsICctbWV0YWxfYmluZGluZycsICctaW1hZScsICc8aW5maWxlLm1hZT4nLCAnLW9tYWUnLCAnPG91dGZpbGUubWFlPic=

> <r_lp_tautomer_probability>
0.5

> <r_epik_Ionization_Penalty>
9.73156e-05

> <r_epik_Ionization_Penalty_Charging>
0

> <r_epik_Ionization_Penalty_Neutral>
9.73156e-05

> <r_epik_State_Penalty>
0.41068

> <r_epik_Charging_Adjusted_Penalty>
0.41068

> <i_epik_Tot_Q>
0

> <i_epik_Tot_abs_Q>
0

> <r_epik_Metal_State_Penalty>
0.410699

> <b_epik_Metal_Only>
0

> <s_lp_Force_Field>
OPLS_2005

> <r_lp_Energy>
26.3407

> <b_lp_Chiralities_Consistent>
1

> <s_lp_Variant>
AV-unprocessed.smi:2510-8

> <Gold.Version>
5.8.1

> <Gold.Id.Protein>
6NUR|6NUR_protein|mol2

> <Gold.PLP.Fitness>
37.7672

> <Gold.PLP.PLP>
-33.0543

> <Gold.PLP.part.hbond>
-3.0000

> <Gold.PLP.part.metal>
0.0000

> <Gold.PLP.part.buried>
-2.9488

> <Gold.PLP.part.nonpolar>
-26.7153

> <Gold.PLP.part.repulsive>
0.3088

> <Gold.PLP.ligand.clash>
0.0000

> <Gold.PLP.ligand.torsion>
0.6399

> <Gold.PLP.Chemscore.Hbond>
1.7440

> <Gold.PLP.Chemscore.CHOScore>
0.0000

> <Gold.PLP.Chemscore.Metal>
0.0000

> <Gold.Chemscore.Hbonds>
donor molecule, donor type, donor heavy atom, donor atom, acceptor molecule, acceptor atom, score
      P1  H  6931  6943       L1    16  0.83
      P1  H  6934  6947       L1    16  0.91

> <Gold.PLP.Chemscore.Internal.Correction>
0.7608

> <Gold.Rescore>
     Score         DG    S(hbond)    S(metal)    S(lipo)     H(rot)  DE(clash)    DE(int)     intcor
     12.41     -16.96       1.50        0.00      94.94       1.81       0.04       4.52       ----

> <Gold.Chemscore.Fitness>
12.4100

> <Gold.Chemscore.DG>
-16.9649

> <Gold.Chemscore.ZeroCoef>
-5.4800

> <Gold.Chemscore.Hbond>
1.5004

> <Gold.Chemscore.Metal>
0.0000

> <Gold.Chemscore.Lipo>
94.9376

> <Gold.Chemscore.Internal_Hbond>
0.0000

> <Gold.Chemscore.DEClash>
0.0387

> <Gold.Chemscore.DEInternal>
4.5162

> <Gold.Chemscore.Rot>
1.8102

> <Gold.Chemscore.Internal.Correction>
   9.000000E+99

> <Gold.Chemscore.Hbonds>
donor molecule, donor type, donor heavy atom, donor atom, acceptor molecule, acceptor atom, score
      P1  H  6931  6943       L1    16  0.22
      P1  H  6934  6947       L1    16  0.49

> <Gold.Chemscore.Hbond.Weighted>
-5.0113

> <Gold.Chemscore.Metal.Weighted>
-0.0000

> <Gold.Chemscore.Lipo.Weighted>
-11.1077

> <Gold.Chemscore.Internal_Hbond.Weighted>
0.0000

> <Gold.Chemscore.DEClash.Weighted>
0.0387

> <Gold.Chemscore.DEInternal.Weighted>
4.5162

> <Gold.Chemscore.Rot.Weighted>
4.6341

> <Gold.Chemscore.Internal.Correction.Weighted>
   9.000000E+99

> <Gold.Protein.RotatedTorsions>
[ 6907 6896 6895 6894 ] final  104.33 input  -60.11 | X-H torsion
[ 7974 7965 7964 7962 ] final   -6.62 input  175.53 | X-H torsion
[ 8008 7997 7996 7995 ] final   24.02 input   59.86 | X-H torsion
[ 10167 10162 10161 10158 ] final  123.61 input  -65.29 | X-H torsion
[ 10718 10713 10712 10709 ] final -154.75 input   66.30 | X-H torsion
[ 10763 10752 10751 10750 ] final   74.49 input  -60.55 | X-H torsion
[ 11005 11000 10999 10996 ] final  -45.45 input  -57.11 | X-H torsion

> <Gold.Protein.ActiveResidues>
 VAL166  LYS551  ARG553  GLY616  TRP617  ASP618  TYR619  PRO620  LYS621  CYS622 
 ASP623  PHE694  ASN695  SER759  ASP760  ASP761  ALA762  ILE779  LEU786  VAL792 
 PHE793  MET794  SER795  GLU796  ALA797  LYS798  CYS799  TRP800  GLU811  SER814 

> <Gold.Protein.RotatedAtoms>
  152.5267  133.9692  159.7753 H   0  0  0  0  0  0  0  0  0  0  0  0  # atno 6907 bound_to 6896
  150.9967  133.6088  159.2707 H   0  0  0  0  0  0  0  0  0  0  0  0  # atno 6908 bound_to 6896
  151.3211  135.0825  159.9359 H   0  0  0  0  0  0  0  0  0  0  0  0  # atno 6909 bound_to 6896
  146.2327  140.2197  142.8337 H   0  0  0  0  0  0  0  0  0  0  0  0  # atno 7974 bound_to 7965
  154.9899  140.3112  155.4911 H   0  0  0  0  0  0  0  0  0  0  0  0  # atno 8008 bound_to 7997
  156.2941  140.2251  156.4943 H   0  0  0  0  0  0  0  0  0  0  0  0  # atno 8009 bound_to 7997
  154.7713  140.0452  157.1042 H   0  0  0  0  0  0  0  0  0  0  0  0  # atno 8010 bound_to 7997
  139.5789  144.6977  151.3579 H   0  0  0  0  0  0  0  0  0  0  0  0  # atno 10167 bound_to 10162
  156.5035  130.8402  151.2619 H   0  0  0  0  0  0  0  0  0  0  0  0  # atno 10718 bound_to 10713
  153.0590  135.5024  154.8049 H   0  0  0  0  0  0  0  0  0  0  0  0  # atno 10763 bound_to 10752
  154.6853  135.2975  154.9558 H   0  0  0  0  0  0  0  0  0  0  0  0  # atno 10764 bound_to 10752
  154.0331  135.6727  153.4835 H   0  0  0  0  0  0  0  0  0  0  0  0  # atno 10765 bound_to 10752
  141.0516  133.6741  156.3015 H   0  0  0  0  0  0  0  0  0  0  0  0  # atno 11005 bound_to 11000
  144.9641  140.8305  143.5495 LP  0  0  0  0  0  0  0  0  0  0  0  0  # atno 17320 bound_to 7965
  145.2171  139.2176  143.5112 LP  0  0  0  0  0  0  0  0  0  0  0  0  # atno 17321 bound_to 7965
  140.7069  143.7490  150.7498 LP  0  0  0  0  0  0  0  0  0  0  0  0  # atno 17342 bound_to 10162
  140.1017  143.4782  152.2421 LP  0  0  0  0  0  0  0  0  0  0  0  0  # atno 17343 bound_to 10162
  157.7460  130.9973  150.2813 LP  0  0  0  0  0  0  0  0  0  0  0  0  # atno 17370 bound_to 10713
  156.3309  130.3800  149.7492 LP  0  0  0  0  0  0  0  0  0  0  0  0  # atno 17371 bound_to 10713
  140.6044  134.5522  157.5523 LP  0  0  0  0  0  0  0  0  0  0  0  0  # atno 17394 bound_to 11000
  139.9355  134.7883  156.0814 LP  0  0  0  0  0  0  0  0  0  0  0  0  # atno 17395 bound_to 11000

$$$$
