AV-unprocessed.smi:910|AV-procd|sdf|4125|dock6
  -GOLD-   22720 2 23D 1   1.00000     0.00000
 Structure written by MMmdl.
 46 47  0  0  0  0  0  0  0  0  1 V2000
  146.5345  133.2050  150.6897 C   0  0  0  0  0  0  0  0  0  0  0  0
  145.6585  134.1940  151.4264 C   0  0  0  0  0  0  0  0  0  0  0  0
  146.0655  135.4737  151.6814 N   0  0  0  0  0  0  0  0  0  0  0  0
  145.0427  136.1287  152.3637 C   0  0  0  0  0  0  0  0  0  0  0  0
  144.9322  137.3334  152.8336 N   0  0  0  0  0  0  0  0  0  0  0  0
  145.9918  138.2046  152.6463 C   0  0  0  0  0  0  0  0  0  0  0  0
  146.8336  138.1715  151.7430 O   0  0  0  0  0  0  0  0  0  0  0  0
  146.0567  139.0953  153.6481 N   0  0  0  0  0  0  0  0  0  0  0  0
  147.1213  140.0760  153.8373 C   0  0  0  0  0  0  0  0  0  0  0  0
  147.6547  140.0385  155.2761 C   0  0  0  0  0  0  0  0  0  0  0  0
  148.9393  139.4335  155.2721 O   0  0  0  0  0  0  0  0  0  0  0  0
  150.0388  140.3235  155.1216 C   0  0  1  0  0  0  0  0  0  0  0  0
  149.8772  141.5663  156.0254 C   0  0  0  0  0  0  0  0  0  0  0  0
  149.8774  141.1875  157.5151 C   0  0  0  0  0  0  0  0  0  0  0  0
  151.1494  140.4111  157.8857 C   0  0  0  0  0  0  0  0  0  0  0  0
  151.3302  139.1741  156.9911 C   0  0  0  0  0  0  0  0  0  0  0  0
  151.3247  139.5512  155.4949 C   0  0  1  0  0  0  0  0  0  0  0  0
  151.5430  138.3233  154.5973 C   0  0  0  0  0  0  0  0  0  0  0  0
  144.0303  135.2137  152.5069 O   0  0  0  0  0  0  0  0  0  0  0  0
  144.4344  134.0489  151.9270 C   0  0  0  0  0  0  0  0  0  0  0  0
  143.4955  132.8640  151.9414 C   0  0  0  0  0  0  0  0  0  0  0  0
  146.0303  132.8512  149.7904 H   0  0  0  0  0  0  0  0  0  0  0  0
  146.7502  132.3461  151.3256 H   0  0  0  0  0  0  0  0  0  0  0  0
  147.4798  133.6625  150.3963 H   0  0  0  0  0  0  0  0  0  0  0  0
  146.9636  135.8415  151.4017 H   0  0  0  0  0  0  0  0  0  0  0  0
  145.3408  139.0573  154.3592 H   0  0  0  0  0  0  0  0  0  0  0  0
  147.9317  139.9223  153.1229 H   0  0  0  0  0  0  0  0  0  0  0  0
  146.7090  141.0630  153.6271 H   0  0  0  0  0  0  0  0  0  0  0  0
  147.7282  141.0523  155.6715 H   0  0  0  0  0  0  0  0  0  0  0  0
  146.9569  139.4910  155.9088 H   0  0  0  0  0  0  0  0  0  0  0  0
  150.1091  140.6376  154.0786 H   0  0  0  0  0  0  0  0  0  0  0  0
  150.7010  142.2550  155.8335 H   0  0  0  0  0  0  0  0  0  0  0  0
  148.9714  142.1196  155.7817 H   0  0  0  0  0  0  0  0  0  0  0  0
  149.7994  142.0860  158.1277 H   0  0  0  0  0  0  0  0  0  0  0  0
  148.9974  140.5840  157.7407 H   0  0  0  0  0  0  0  0  0  0  0  0
  152.0170  141.0640  157.7842 H   0  0  0  0  0  0  0  0  0  0  0  0
  151.1103  140.1135  158.9332 H   0  0  0  0  0  0  0  0  0  0  0  0
  152.2650  138.6745  157.2469 H   0  0  0  0  0  0  0  0  0  0  0  0
  150.5344  138.4569  157.1950 H   0  0  0  0  0  0  0  0  0  0  0  0
  152.1688  140.2212  155.3242 H   0  0  0  0  0  0  0  0  0  0  0  0
  150.7505  137.5859  154.7290 H   0  0  0  0  0  0  0  0  0  0  0  0
  152.4903  137.8346  154.8261 H   0  0  0  0  0  0  0  0  0  0  0  0
  151.5638  138.6055  153.5444 H   0  0  0  0  0  0  0  0  0  0  0  0
  143.3940  132.4492  150.9384 H   0  0  0  0  0  0  0  0  0  0  0  0
  142.5080  133.1623  152.2935 H   0  0  0  0  0  0  0  0  0  0  0  0
  143.8792  132.0863  152.6018 H   0  0  0  0  0  0  0  0  0  0  0  0
  1 22  1  0  0  0  0
  1 23  1  0  0  0  0
  1 24  1  0  0  0  0
  1  2  1  0  0  0  0
  2  3  1  0  0  0  0
  2 20  2  0  0  0  0
  3 25  1  0  0  0  0
  3  4  1  0  0  0  0
  4 19  1  0  0  0  0
  4  5  2  0  0  0  0
  5  6  1  0  0  0  0
  6  8  1  0  0  0  0
  6  7  2  0  0  0  0
  8  9  1  0  0  0  0
  8 26  1  0  0  0  0
  9 10  1  0  0  0  0
  9 27  1  0  0  0  0
  9 28  1  0  0  0  0
 10 11  1  0  0  0  0
 10 29  1  0  0  0  0
 10 30  1  0  0  0  0
 11 12  1  0  0  0  0
 12 17  1  0  0  0  0
 12 13  1  0  0  0  0
 12 31  1  0  0  0  0
 13 14  1  0  0  0  0
 13 32  1  0  0  0  0
 13 33  1  0  0  0  0
 14 15  1  0  0  0  0
 14 34  1  0  0  0  0
 14 35  1  0  0  0  0
 15 16  1  0  0  0  0
 15 36  1  0  0  0  0
 15 37  1  0  0  0  0
 16 17  1  0  0  0  0
 16 38  1  0  0  0  0
 16 39  1  0  0  0  0
 17 18  1  0  0  0  0
 17 40  1  0  0  0  0
 18 41  1  0  0  0  0
 18 42  1  0  0  0  0
 18 43  1  0  0  0  0
 19 20  1  0  0  0  0
 20 21  1  0  0  0  0
 21 44  1  0  0  0  0
 21 45  1  0  0  0  0
 21 46  1  0  0  0  0
M  END
> <s_m_source_file>
AV-unprocessed.smi

> <i_m_source_file_index>
910

> <i_lp_mmshare_version>
43012

> <i_f3d_flags>
0

> <s_epik_input>
W0NIM11jMW5jKG9jMVtDSDNdKVtOSF1DKD1PKVtOSF1bQ0gyXVtDSDJdT1tDQEBIXTJbQ0gyXVtDSDJdW0NIMl1bQ0gyXVtDQEhdMltDSDNd

> <s_epik_cmdline>
J2VwaWtfcHl0aG9uJywgJy1waCcsICc3LjAnLCAnLXRuJywgJzgnLCAnLW1hJywgJzIwMCcsICctbWV0YWxfYmluZGluZycsICctaW1hZScsICc8aW5maWxlLm1hZT4nLCAnLW9tYWUnLCAnPG91dGZpbGUubWFlPic=

> <r_lp_tautomer_probability>
0.107061

> <r_epik_Ionization_Penalty>
0.727192

> <r_epik_Ionization_Penalty_Charging>
0.726719

> <r_epik_Ionization_Penalty_Neutral>
0.000473387

> <r_epik_State_Penalty>
2.53712

> <r_epik_Charging_Adjusted_Penalty>
3.26383

> <i_epik_Tot_Q>
0

> <i_epik_Tot_abs_Q>
0

> <r_epik_Metal_State_Penalty>
3.71015

> <b_epik_Metal_Only>
0

> <s_lp_Force_Field>
OPLS_2005

> <r_lp_Energy>
28.9635

> <b_lp_Chiralities_Consistent>
1

> <s_lp_Variant>
AV-unprocessed.smi:910-10

> <Gold.Version>
5.8.1

> <Gold.Id.Protein>
6NUR|6NUR_protein|mol2

> <Gold.PLP.Fitness>
37.7278

> <Gold.PLP.PLP>
-33.7087

> <Gold.PLP.part.hbond>
-3.0000

> <Gold.PLP.part.metal>
0.0000

> <Gold.PLP.part.buried>
-3.3176

> <Gold.PLP.part.nonpolar>
-30.1725

> <Gold.PLP.part.repulsive>
4.1642

> <Gold.PLP.ligand.clash>
0.0000

> <Gold.PLP.ligand.torsion>
0.8501

> <Gold.PLP.Chemscore.Hbond>
1.8960

> <Gold.PLP.Chemscore.CHOScore>
0.0000

> <Gold.PLP.Chemscore.Metal>
0.0000

> <Gold.Chemscore.Hbonds>
donor molecule, donor type, donor heavy atom, donor atom, acceptor molecule, acceptor atom, score
      L1  H     3    25       P1  7948  0.99
      P1  H  7954  7966       L1     7  0.34

> <Gold.PLP.Chemscore.Internal.Correction>
0.0314

> <Gold.Rescore>
     Score         DG    S(hbond)    S(metal)    S(lipo)     H(rot)  DE(clash)    DE(int)     intcor
     12.52     -16.69       1.98        0.00      75.54       1.66       1.95       2.23       ----

> <Gold.Chemscore.Fitness>
12.5178

> <Gold.Chemscore.DG>
-16.6945

> <Gold.Chemscore.ZeroCoef>
-5.4800

> <Gold.Chemscore.Hbond>
1.9818

> <Gold.Chemscore.Metal>
0.0000

> <Gold.Chemscore.Lipo>
75.5449

> <Gold.Chemscore.Internal_Hbond>
0.0000

> <Gold.Chemscore.DEClash>
1.9482

> <Gold.Chemscore.DEInternal>
2.2284

> <Gold.Chemscore.Rot>
1.6576

> <Gold.Chemscore.Internal.Correction>
   9.000000E+99

> <Gold.Chemscore.Hbonds>
donor molecule, donor type, donor heavy atom, donor atom, acceptor molecule, acceptor atom, score
      L1  H     3    25       P1  7948  0.87
      P1  H  7954  7966       L1     7  0.33

> <Gold.Chemscore.Hbond.Weighted>
-6.6193

> <Gold.Chemscore.Metal.Weighted>
-0.0000

> <Gold.Chemscore.Lipo.Weighted>
-8.8388

> <Gold.Chemscore.Internal_Hbond.Weighted>
0.0000

> <Gold.Chemscore.DEClash.Weighted>
1.9482

> <Gold.Chemscore.DEInternal.Weighted>
2.2284

> <Gold.Chemscore.Rot.Weighted>
4.2436

> <Gold.Chemscore.Internal.Correction.Weighted>
   9.000000E+99

> <Gold.Protein.RotatedTorsions>
[ 6907 6896 6895 6894 ] final  136.24 input  -60.11 | X-H torsion
[ 7974 7965 7964 7962 ] final  112.92 input  175.53 | X-H torsion
[ 8008 7997 7996 7995 ] final -169.57 input   59.86 | X-H torsion
[ 10167 10162 10161 10158 ] final -134.11 input  -65.29 | X-H torsion
[ 10718 10713 10712 10709 ] final   22.19 input   66.30 | X-H torsion
[ 10763 10752 10751 10750 ] final   47.76 input  -60.55 | X-H torsion
[ 11005 11000 10999 10996 ] final -140.42 input  -57.11 | X-H torsion

> <Gold.Protein.ActiveResidues>
 VAL166  LYS551  ARG553  GLY616  TRP617  ASP618  TYR619  PRO620  LYS621  CYS622 
 ASP623  PHE694  ASN695  SER759  ASP760  ASP761  ALA762  ILE779  LEU786  VAL792 
 PHE793  MET794  SER795  GLU796  ALA797  LYS798  CYS799  TRP800  GLU811  SER814 

> <Gold.Protein.RotatedAtoms>
  152.2916  133.5567  159.5560 H   0  0  0  0  0  0  0  0  0  0  0  0  # atno 6907 bound_to 6896
  150.7238  134.0420  159.3778 H   0  0  0  0  0  0  0  0  0  0  0  0  # atno 6908 bound_to 6896
  151.8326  135.0617  160.0489 H   0  0  0  0  0  0  0  0  0  0  0  0  # atno 6909 bound_to 6896
  145.2234  139.2851  143.4206 H   0  0  0  0  0  0  0  0  0  0  0  0  # atno 7974 bound_to 7965
  155.9067  140.1050  157.1310 H   0  0  0  0  0  0  0  0  0  0  0  0  # atno 8008 bound_to 7997
  154.4033  140.1282  156.4569 H   0  0  0  0  0  0  0  0  0  0  0  0  # atno 8009 bound_to 7997
  155.7359  140.3467  155.5083 H   0  0  0  0  0  0  0  0  0  0  0  0  # atno 8010 bound_to 7997
  139.8914  143.6718  152.2611 H   0  0  0  0  0  0  0  0  0  0  0  0  # atno 10167 bound_to 10162
  157.1489  130.6665  149.6005 H   0  0  0  0  0  0  0  0  0  0  0  0  # atno 10718 bound_to 10713
  152.9797  135.5966  154.3814 H   0  0  0  0  0  0  0  0  0  0  0  0  # atno 10763 bound_to 10752
  154.3479  135.2767  155.2390 H   0  0  0  0  0  0  0  0  0  0  0  0  # atno 10764 bound_to 10752
  154.4442  135.6005  153.6204 H   0  0  0  0  0  0  0  0  0  0  0  0  # atno 10765 bound_to 10752
  140.8424  134.2385  157.4803 H   0  0  0  0  0  0  0  0  0  0  0  0  # atno 11005 bound_to 11000
  146.3370  140.2547  142.8600 LP  0  0  0  0  0  0  0  0  0  0  0  0  # atno 17320 bound_to 7965
  144.9744  140.8399  143.5436 LP  0  0  0  0  0  0  0  0  0  0  0  0  # atno 17321 bound_to 7965
  139.7106  144.7621  151.1118 LP  0  0  0  0  0  0  0  0  0  0  0  0  # atno 17342 bound_to 10162
  140.7726  143.5335  150.9395 LP  0  0  0  0  0  0  0  0  0  0  0  0  # atno 17343 bound_to 10162
  155.9774  130.4751  150.6592 LP  0  0  0  0  0  0  0  0  0  0  0  0  # atno 17370 bound_to 10713
  157.4239  131.0840  151.1104 LP  0  0  0  0  0  0  0  0  0  0  0  0  # atno 17371 bound_to 10713
  139.8703  134.9642  156.4488 LP  0  0  0  0  0  0  0  0  0  0  0  0  # atno 17394 bound_to 11000
  140.8880  133.7869  155.9540 LP  0  0  0  0  0  0  0  0  0  0  0  0  # atno 17395 bound_to 11000

$$$$
