AV-unprocessed.smi:1669|AV-procd|sdf|6691|dock8
  -GOLD-   22720 7423D 1   1.00000     0.00000
 Structure written by MMmdl.
 49 51  0  0  0  0  0  0  0  0  3 V2000
  147.2691  136.7783  154.9841 C   0  0  0  0  0  0  0  0  0  0  0  0
  147.6917  137.6493  153.8616 N   0  3  1  0  0  0  0  0  0  0  0  0
  146.5144  138.2024  153.1420 C   0  0  0  0  0  0  0  0  0  0  0  0
  145.5917  137.1226  152.6012 C   0  0  0  0  0  0  0  0  0  0  0  0
  144.3267  136.9068  153.1900 C   0  0  0  0  0  0  0  0  0  0  0  0
  143.4689  135.9132  152.6798 C   0  0  0  0  0  0  0  0  0  0  0  0
  143.8738  135.1286  151.5828 C   0  0  0  0  0  0  0  0  0  0  0  0
  145.1370  135.3375  150.9960 C   0  0  0  0  0  0  0  0  0  0  0  0
  145.9948  136.3324  151.5043 C   0  0  0  0  0  0  0  0  0  0  0  0
  148.6708  138.6959  154.2676 C   0  0  0  0  0  0  0  0  0  0  0  0
  149.9501  138.1419  154.9348 C   0  0  1  0  0  0  0  0  0  0  0  0
  150.3988  137.0068  154.2220 O   0  0  0  0  0  0  0  0  0  0  0  0
  151.1195  139.1496  154.9566 C   0  0  0  0  0  0  0  0  0  0  0  0
  150.8501  140.3490  155.7675 N   0  0  0  0  0  0  0  0  0  0  0  0
  150.0473  141.4211  155.5046 C   0  0  0  0  0  0  0  0  0  0  0  0
  149.2197  141.6454  154.2823 C   0  0  0  0  0  0  0  0  0  0  0  0
  148.4398  142.8167  154.3721 O   0  0  0  0  0  0  0  0  0  0  0  0
  150.1228  142.2560  156.5787 N   0  3  0  0  0  0  0  0  0  0  0  0
  150.9772  141.7150  157.5399 C   0  0  0  0  0  0  0  0  0  0  0  0
  151.3628  142.1954  158.7875 C   0  0  0  0  0  0  0  0  0  0  0  0
  152.2557  141.3924  159.5269 C   0  0  0  0  0  0  0  0  0  0  0  0
  152.7287  140.1645  159.0213 C   0  0  0  0  0  0  0  0  0  0  0  0
  152.3291  139.6868  157.7559 C   0  0  0  0  0  0  0  0  0  0  0  0
  151.4466  140.4871  157.0286 C   0  0  0  0  0  0  0  0  0  0  0  0
  146.8013  137.3628  155.7775 H   0  0  0  0  0  0  0  0  0  0  0  0
  148.1105  136.2326  155.4089 H   0  0  0  0  0  0  0  0  0  0  0  0
  146.5503  136.0316  154.6449 H   0  0  0  0  0  0  0  0  0  0  0  0
  145.9291  138.8266  153.8189 H   0  0  0  0  0  0  0  0  0  0  0  0
  146.8481  138.8530  152.3319 H   0  0  0  0  0  0  0  0  0  0  0  0
  144.0072  137.5063  154.0301 H   0  0  0  0  0  0  0  0  0  0  0  0
  142.5003  135.7521  153.1300 H   0  0  0  0  0  0  0  0  0  0  0  0
  143.2163  134.3657  151.1920 H   0  0  0  0  0  0  0  0  0  0  0  0
  145.4474  134.7344  150.1554 H   0  0  0  0  0  0  0  0  0  0  0  0
  146.9614  136.4884  151.0474 H   0  0  0  0  0  0  0  0  0  0  0  0
  148.9837  139.2663  153.3945 H   0  0  0  0  0  0  0  0  0  0  0  0
  148.1667  139.3999  154.9309 H   0  0  0  0  0  0  0  0  0  0  0  0
  149.7420  137.8412  155.9607 H   0  0  0  0  0  0  0  0  0  0  0  0
  149.7880  136.8176  153.5262 H   0  0  0  0  0  0  0  0  0  0  0  0
  152.0113  138.6747  155.3676 H   0  0  0  0  0  0  0  0  0  0  0  0
  151.3886  139.4581  153.9462 H   0  0  0  0  0  0  0  0  0  0  0  0
  149.8708  141.7187  153.4109 H   0  0  0  0  0  0  0  0  0  0  0  0
  148.5642  140.7897  154.1215 H   0  0  0  0  0  0  0  0  0  0  0  0
  148.4133  143.0948  155.2751 H   0  0  0  0  0  0  0  0  0  0  0  0
  150.9991  143.1344  159.1788 H   0  0  0  0  0  0  0  0  0  0  0  0
  152.5826  141.7242  160.5020 H   0  0  0  0  0  0  0  0  0  0  0  0
  153.4104  139.5749  159.6180 H   0  0  0  0  0  0  0  0  0  0  0  0
  152.7000  138.7431  157.3850 H   0  0  0  0  0  0  0  0  0  0  0  0
  148.1657  137.0543  153.1971 H   0  0  0  0  0  0  0  0  0  0  0  0
  149.6160  143.1291  156.6506 H   0  0  0  0  0  0  0  0  0  0  0  0
  1  2  1  0  0  0  0
  1 25  1  0  0  0  0
  1 26  1  0  0  0  0
  1 27  1  0  0  0  0
  2  3  1  0  0  0  0
  2 10  1  0  0  0  0
  2 48  1  0  0  0  0
  3  4  1  0  0  0  0
  3 28  1  0  0  0  0
  3 29  1  0  0  0  0
  4  9  1  0  0  0  0
  4  5  2  0  0  0  0
  5  6  1  0  0  0  0
  5 30  1  0  0  0  0
  6  7  2  0  0  0  0
  6 31  1  0  0  0  0
  7  8  1  0  0  0  0
  7 32  1  0  0  0  0
  8  9  2  0  0  0  0
  8 33  1  0  0  0  0
  9 34  1  0  0  0  0
 10 11  1  0  0  0  0
 10 35  1  0  0  0  0
 10 36  1  0  0  0  0
 11 12  1  0  0  0  0
 11 13  1  0  0  0  0
 11 37  1  0  0  0  0
 12 38  1  0  0  0  0
 13 14  1  0  0  0  0
 13 39  1  0  0  0  0
 13 40  1  0  0  0  0
 14 24  1  0  0  0  0
 14 15  1  0  0  0  0
 15 16  1  0  0  0  0
 15 18  2  0  0  0  0
 16 17  1  0  0  0  0
 16 41  1  0  0  0  0
 16 42  1  0  0  0  0
 17 43  1  0  0  0  0
 18 19  1  0  0  0  0
 18 49  1  0  0  0  0
 19 24  2  0  0  0  0
 19 20  1  0  0  0  0
 20 21  2  0  0  0  0
 20 44  1  0  0  0  0
 21 22  1  0  0  0  0
 21 45  1  0  0  0  0
 22 23  2  0  0  0  0
 22 46  1  0  0  0  0
 23 24  1  0  0  0  0
 23 47  1  0  0  0  0
M  CHG  1   2   1
M  CHG  1  18   1
M  END
> <s_m_source_file>
AV-unprocessed.smi

> <i_m_source_file_index>
1669

> <i_lp_mmshare_version>
43012

> <i_f3d_flags>
0

> <s_epik_input>
W2NIXTFbY0hdW2NIXVtjSF1bY0hdYzFbQ0gyXU4oW0NIM10pW0NIMl1bQ0BIXShbT0hdKVtDSDJdbihjKG4yKVtDSDJdW09IXSljKGMyMylbY0hdW2NIXVtjSF1bY0hdMw==

> <s_epik_cmdline>
J2VwaWtfcHl0aG9uJywgJy1waCcsICc3LjAnLCAnLXRuJywgJzgnLCAnLW1hJywgJzIwMCcsICctbWV0YWxfYmluZGluZycsICctaW1hZScsICc8aW5maWxlLm1hZT4nLCAnLW9tYWUnLCAnPG91dGZpbGUubWFlPic=

> <r_epik_Ionization_Penalty>
1.57484

> <r_epik_Ionization_Penalty_Charging>
1.57398

> <r_epik_Ionization_Penalty_Neutral>
0.000858917

> <r_epik_State_Penalty>
1.64997

> <r_epik_Charging_Adjusted_Penalty>
3.22395

> <i_epik_Tot_Q>
2

> <i_epik_Tot_abs_Q>
2

> <r_epik_Metal_State_Penalty>
5.70481

> <b_epik_Metal_Only>
0

> <s_lp_Force_Field>
OPLS_2005

> <r_lp_Energy>
25.6323

> <b_lp_Chiralities_Consistent>
1

> <s_lp_Variant>
AV-unprocessed.smi:1669-9

> <Gold.Version>
5.8.1

> <Gold.Id.Protein>
6NUR|6NUR_protein|mol2

> <Gold.PLP.Fitness>
61.3184

> <Gold.PLP.PLP>
-44.0976

> <Gold.PLP.part.hbond>
-6.2117

> <Gold.PLP.part.metal>
0.0000

> <Gold.PLP.part.buried>
-0.4174

> <Gold.PLP.part.nonpolar>
-37.3710

> <Gold.PLP.part.repulsive>
0.0696

> <Gold.PLP.ligand.clash>
0.0000

> <Gold.PLP.ligand.torsion>
0.4903

> <Gold.PLP.Chemscore.Hbond>
5.9900

> <Gold.PLP.Chemscore.CHOScore>
0.0000

> <Gold.PLP.Chemscore.Metal>
0.0000

> <Gold.Chemscore.Hbonds>
donor molecule, donor type, donor heavy atom, donor atom, acceptor molecule, acceptor atom, score
      L1  H     2    48       P1  7948  2.00
      L1  H    12    38       P1  7948  1.00
      L1  H    17    43       P1  8028  0.35
      L1  H    18    49       P1  8028  1.86
      P1  H  8022  8030       L1    17  0.59

> <Gold.PLP.Chemscore.Internal.Correction>
0.2313

> <Gold.Rescore>
     Score         DG    S(hbond)    S(metal)    S(lipo)     H(rot)  DE(clash)    DE(int)     intcor
     17.87     -20.81       3.47        0.00     103.58       3.27       1.50       1.45       ----

> <Gold.Chemscore.Fitness>
17.8710

> <Gold.Chemscore.DG>
-20.8146

> <Gold.Chemscore.ZeroCoef>
-5.4800

> <Gold.Chemscore.Hbond>
3.4706

> <Gold.Chemscore.Metal>
0.0000

> <Gold.Chemscore.Lipo>
103.5777

> <Gold.Chemscore.Internal_Hbond>
0.0000

> <Gold.Chemscore.DEClash>
1.4962

> <Gold.Chemscore.DEInternal>
1.4474

> <Gold.Chemscore.Rot>
3.2718

> <Gold.Chemscore.Internal.Correction>
   9.000000E+99

> <Gold.Chemscore.Hbonds>
donor molecule, donor type, donor heavy atom, donor atom, acceptor molecule, acceptor atom, score
      L1  H     2    48       P1  7948  1.00
      L1  H    12    38       P1  7948  0.45
      L1  H    17    43       P1  8028  0.36
      L1  H    18    49       P1  8028  0.85
      P1  H  8022  8030       L1    17  0.06

> <Gold.Chemscore.Hbond.Weighted>
-11.5919

> <Gold.Chemscore.Metal.Weighted>
-0.0000

> <Gold.Chemscore.Lipo.Weighted>
-12.1186

> <Gold.Chemscore.Internal_Hbond.Weighted>
0.0000

> <Gold.Chemscore.DEClash.Weighted>
1.4962

> <Gold.Chemscore.DEInternal.Weighted>
1.4474

> <Gold.Chemscore.Rot.Weighted>
8.3759

> <Gold.Chemscore.Internal.Correction.Weighted>
   9.000000E+99

> <Gold.Protein.RotatedTorsions>
[ 6907 6896 6895 6894 ] final   44.10 input  -60.11 | X-H torsion
[ 7974 7965 7964 7962 ] final  -97.07 input  175.53 | X-H torsion
[ 8008 7997 7996 7995 ] final  178.02 input   59.86 | X-H torsion
[ 10167 10162 10161 10158 ] final  -72.09 input  -65.29 | X-H torsion
[ 10718 10713 10712 10709 ] final   29.36 input   66.30 | X-H torsion
[ 10763 10752 10751 10750 ] final  127.56 input  -60.55 | X-H torsion
[ 11005 11000 10999 10996 ] final   73.37 input  -57.11 | X-H torsion

> <Gold.Protein.ActiveResidues>
 VAL166  LYS551  ARG553  GLY616  TRP617  ASP618  TYR619  PRO620  LYS621  CYS622 
 ASP623  PHE694  ASN695  SER759  ASP760  ASP761  ALA762  ILE779  LEU786  VAL792 
 PHE793  MET794  SER795  GLU796  ALA797  LYS798  CYS799  TRP800  GLU811  SER814 

> <Gold.Protein.RotatedAtoms>
  152.2284  134.8346  160.0476 H   0  0  0  0  0  0  0  0  0  0  0  0  # atno 6907 bound_to 6896
  151.9104  133.3555  159.3870 H   0  0  0  0  0  0  0  0  0  0  0  0  # atno 6908 bound_to 6896
  150.7018  134.4663  159.5448 H   0  0  0  0  0  0  0  0  0  0  0  0  # atno 6909 bound_to 6896
  145.3386  140.9455  143.2621 H   0  0  0  0  0  0  0  0  0  0  0  0  # atno 7974 bound_to 7965
  156.0592  140.1344  156.9961 H   0  0  0  0  0  0  0  0  0  0  0  0  # atno 8008 bound_to 7997
  154.4473  140.0995  156.6562 H   0  0  0  0  0  0  0  0  0  0  0  0  # atno 8009 bound_to 7997
  155.5404  140.3460  155.4448 H   0  0  0  0  0  0  0  0  0  0  0  0  # atno 8010 bound_to 7997
  140.5221  143.2330  151.7412 H   0  0  0  0  0  0  0  0  0  0  0  0  # atno 10167 bound_to 10162
  157.2456  130.7090  149.6380 H   0  0  0  0  0  0  0  0  0  0  0  0  # atno 10718 bound_to 10713
  153.7113  135.3268  155.3247 H   0  0  0  0  0  0  0  0  0  0  0  0  # atno 10763 bound_to 10752
  154.8384  135.4477  154.1311 H   0  0  0  0  0  0  0  0  0  0  0  0  # atno 10764 bound_to 10752
  153.2405  135.6970  153.7867 H   0  0  0  0  0  0  0  0  0  0  0  0  # atno 10765 bound_to 10752
  139.9444  134.7341  156.1018 H   0  0  0  0  0  0  0  0  0  0  0  0  # atno 11005 bound_to 11000
  144.8808  139.4907  143.6724 LP  0  0  0  0  0  0  0  0  0  0  0  0  # atno 17320 bound_to 7965
  146.3016  139.7446  142.9087 LP  0  0  0  0  0  0  0  0  0  0  0  0  # atno 17321 bound_to 7965
  139.4926  144.4240  151.9946 LP  0  0  0  0  0  0  0  0  0  0  0  0  # atno 17342 bound_to 10162
  140.3337  144.3286  150.5982 LP  0  0  0  0  0  0  0  0  0  0  0  0  # atno 17343 bound_to 10162
  155.9668  130.4444  150.5460 LP  0  0  0  0  0  0  0  0  0  0  0  0  # atno 17370 bound_to 10713
  157.3332  131.0703  151.1845 LP  0  0  0  0  0  0  0  0  0  0  0  0  # atno 17371 bound_to 10713
  141.1089  133.6650  156.2930 LP  0  0  0  0  0  0  0  0  0  0  0  0  # atno 17394 bound_to 11000
  140.5872  134.5686  157.5492 LP  0  0  0  0  0  0  0  0  0  0  0  0  # atno 17395 bound_to 11000

$$$$
