AV-unprocessed.smi:3251|AV-procd|sdf|12437|dock8
  -GOLD-   2272018323D 1   1.00000     0.00000
 Structure written by MMmdl.
 40 41  0  0  0  0  0  0  0  0  1 V2000
  151.5616  145.5620  159.5445 C   0  0  0  0  0  0  0  0  0  0  0  0
  152.1935  144.2788  159.9998 C   0  0  0  0  0  0  0  0  0  0  0  0
  152.4649  143.8631  161.3343 C   0  0  0  0  0  0  0  0  0  0  0  0
  153.0258  142.6665  161.3969 N   0  0  0  0  0  0  0  0  0  0  0  0
  153.1306  142.2762  160.1090 N   0  0  0  0  0  0  0  0  0  0  0  0
  153.6899  140.9738  159.7942 C   0  0  0  0  0  0  0  0  0  0  0  0
  152.6201  140.0111  159.2555 C   0  0  0  0  0  0  0  0  0  0  0  0
  152.3444  140.3086  157.8529 N   0  0  0  0  0  0  0  0  0  0  0  0
  151.1733  139.5917  157.3209 C   0  0  2  0  0  0  0  0  0  0  0  0
  151.4407  138.0791  157.3499 C   0  0  0  0  0  0  0  0  0  0  0  0
  150.8100  140.0302  155.8838 C   0  0  0  0  0  0  0  0  0  0  0  0
  151.6555  139.9101  154.9949 O   0  0  0  0  0  0  0  0  0  0  0  0
  149.5830  140.5357  155.6322 N   0  0  0  0  0  0  0  0  0  0  0  0
  148.4937  140.6928  156.5955 C   0  0  0  0  0  0  0  0  0  0  0  0
  147.2590  141.0608  155.7724 C   0  0  0  0  0  0  0  0  0  0  0  0
  147.8280  141.7071  154.5178 C   0  0  0  0  0  0  0  0  0  0  0  0
  149.1662  140.9984  154.3093 C   0  0  0  0  0  0  0  0  0  0  0  0
  152.6366  143.2301  159.2447 C   0  0  0  0  0  0  0  0  0  0  0  0
  151.6649  146.3507  160.2900 H   0  0  0  0  0  0  0  0  0  0  0  0
  150.4956  145.4372  159.3534 H   0  0  0  0  0  0  0  0  0  0  0  0
  152.0134  145.9300  158.6233 H   0  0  0  0  0  0  0  0  0  0  0  0
  152.2697  144.3928  162.2551 H   0  0  0  0  0  0  0  0  0  0  0  0
  154.5017  141.0990  159.0765 H   0  0  0  0  0  0  0  0  0  0  0  0
  154.1359  140.5631  160.7010 H   0  0  0  0  0  0  0  0  0  0  0  0
  152.9714  138.9816  159.3304 H   0  0  0  0  0  0  0  0  0  0  0  0
  151.7252  140.0851  159.8743 H   0  0  0  0  0  0  0  0  0  0  0  0
  153.1736  140.1386  157.3023 H   0  0  0  0  0  0  0  0  0  0  0  0
  150.3442  139.7899  157.9995 H   0  0  0  0  0  0  0  0  0  0  0  0
  150.5826  137.5165  156.9800 H   0  0  0  0  0  0  0  0  0  0  0  0
  151.6396  137.7368  158.3658 H   0  0  0  0  0  0  0  0  0  0  0  0
  152.3025  137.8122  156.7364 H   0  0  0  0  0  0  0  0  0  0  0  0
  148.3196  139.7854  157.1752 H   0  0  0  0  0  0  0  0  0  0  0  0
  148.7432  141.5001  157.2858 H   0  0  0  0  0  0  0  0  0  0  0  0
  146.7170  140.1540  155.5007 H   0  0  0  0  0  0  0  0  0  0  0  0
  146.5709  141.7132  156.3106 H   0  0  0  0  0  0  0  0  0  0  0  0
  147.1641  141.6198  153.6572 H   0  0  0  0  0  0  0  0  0  0  0  0
  148.0009  142.7685  154.7006 H   0  0  0  0  0  0  0  0  0  0  0  0
  149.9011  141.6663  153.8571 H   0  0  0  0  0  0  0  0  0  0  0  0
  149.0442  140.1349  153.6539 H   0  0  0  0  0  0  0  0  0  0  0  0
  152.6336  143.0810  158.1749 H   0  0  0  0  0  0  0  0  0  0  0  0
  1  2  1  0  0  0  0
  1 19  1  0  0  0  0
  1 20  1  0  0  0  0
  1 21  1  0  0  0  0
  2 18  2  0  0  0  0
  2  3  1  0  0  0  0
  3  4  2  0  0  0  0
  3 22  1  0  0  0  0
  4  5  1  0  0  0  0
  5  6  1  0  0  0  0
  5 18  1  0  0  0  0
  6  7  1  0  0  0  0
  6 23  1  0  0  0  0
  6 24  1  0  0  0  0
  7  8  1  0  0  0  0
  7 25  1  0  0  0  0
  7 26  1  0  0  0  0
  8  9  1  0  0  0  0
  8 27  1  0  0  0  0
  9 10  1  0  0  0  0
  9 11  1  0  0  0  0
  9 28  1  0  0  0  0
 10 29  1  0  0  0  0
 10 30  1  0  0  0  0
 10 31  1  0  0  0  0
 11 12  2  0  0  0  0
 11 13  1  0  0  0  0
 13 17  1  0  0  0  0
 13 14  1  0  0  0  0
 14 15  1  0  0  0  0
 14 32  1  0  0  0  0
 14 33  1  0  0  0  0
 15 16  1  0  0  0  0
 15 34  1  0  0  0  0
 15 35  1  0  0  0  0
 16 17  1  0  0  0  0
 16 36  1  0  0  0  0
 16 37  1  0  0  0  0
 17 38  1  0  0  0  0
 17 39  1  0  0  0  0
 18 40  1  0  0  0  0
M  END
> <s_m_source_file>
AV-unprocessed.smi

> <i_m_source_file_index>
3251

> <i_lp_mmshare_version>
43012

> <i_f3d_flags>
0

> <s_epik_input>
W0NIM11jMVtjSF1ubihbY0hdMSlbQ0gyXVtDSDJdW05IXVtDQEhdKFtDSDNdKUMoPU8pTjJbQ0gyXVtDSDJdW0NIMl1bQ0gyXTI=

> <s_epik_cmdline>
J2VwaWtfcHl0aG9uJywgJy1waCcsICc3LjAnLCAnLXRuJywgJzgnLCAnLW1hJywgJzIwMCcsICctbWV0YWxfYmluZGluZycsICctaW1hZScsICc8aW5maWxlLm1hZT4nLCAnLW9tYWUnLCAnPG91dGZpbGUubWFlPic=

> <r_lp_tautomer_probability>
1

> <r_epik_Ionization_Penalty>
0.734676

> <r_epik_Ionization_Penalty_Charging>
0

> <r_epik_Ionization_Penalty_Neutral>
0.734676

> <r_epik_State_Penalty>
0.75825

> <r_epik_Charging_Adjusted_Penalty>
0.75825

> <i_epik_Tot_Q>
0

> <i_epik_Tot_abs_Q>
0

> <r_epik_Metal_State_Penalty>
0.756914

> <b_epik_Metal_Only>
0

> <s_lp_Force_Field>
OPLS_2005

> <r_lp_Energy>
32.0163

> <b_lp_Chiralities_Consistent>
1

> <s_lp_Variant>
AV-unprocessed.smi:3251-3

> <Gold.Version>
5.8.1

> <Gold.Id.Protein>
6NUR|6NUR_protein|mol2

> <Gold.PLP.Fitness>
43.6283

> <Gold.PLP.PLP>
-41.2588

> <Gold.PLP.part.hbond>
-1.7380

> <Gold.PLP.part.metal>
0.0000

> <Gold.PLP.part.buried>
-5.5263

> <Gold.PLP.part.nonpolar>
-34.1026

> <Gold.PLP.part.repulsive>
0.0828

> <Gold.PLP.ligand.clash>
0.0000

> <Gold.PLP.ligand.torsion>
0.2159

> <Gold.PLP.Chemscore.Hbond>
0.9120

> <Gold.PLP.Chemscore.CHOScore>
0.0000

> <Gold.PLP.Chemscore.Metal>
0.0000

> <Gold.Chemscore.Hbonds>
donor molecule, donor type, donor heavy atom, donor atom, acceptor molecule, acceptor atom, score
      P1  H  7989  7998       L1    12  1.00

> <Gold.PLP.Chemscore.Internal.Correction>
0.0654

> <Gold.Rescore>
     Score         DG    S(hbond)    S(metal)    S(lipo)     H(rot)  DE(clash)    DE(int)     intcor
     15.33     -15.51       0.92        0.00      96.61       1.70       0.03       0.14       ----

> <Gold.Chemscore.Fitness>
15.3345

> <Gold.Chemscore.DG>
-15.5055

> <Gold.Chemscore.ZeroCoef>
-5.4800

> <Gold.Chemscore.Hbond>
0.9166

> <Gold.Chemscore.Metal>
0.0000

> <Gold.Chemscore.Lipo>
96.6123

> <Gold.Chemscore.Internal_Hbond>
0.0000

> <Gold.Chemscore.DEClash>
0.0292

> <Gold.Chemscore.DEInternal>
0.1419

> <Gold.Chemscore.Rot>
1.6951

> <Gold.Chemscore.Internal.Correction>
   9.000000E+99

> <Gold.Chemscore.Hbonds>
donor molecule, donor type, donor heavy atom, donor atom, acceptor molecule, acceptor atom, score
      P1  H  7989  7998       L1    12  0.96

> <Gold.Chemscore.Hbond.Weighted>
-3.0614

> <Gold.Chemscore.Metal.Weighted>
-0.0000

> <Gold.Chemscore.Lipo.Weighted>
-11.3036

> <Gold.Chemscore.Internal_Hbond.Weighted>
0.0000

> <Gold.Chemscore.DEClash.Weighted>
0.0292

> <Gold.Chemscore.DEInternal.Weighted>
0.1419

> <Gold.Chemscore.Rot.Weighted>
4.3395

> <Gold.Chemscore.Internal.Correction.Weighted>
   9.000000E+99

> <Gold.Protein.RotatedTorsions>
[ 6907 6896 6895 6894 ] final  122.06 input  -60.11 | X-H torsion
[ 7974 7965 7964 7962 ] final -161.65 input  175.53 | X-H torsion
[ 8008 7997 7996 7995 ] final   -4.71 input   59.86 | X-H torsion
[ 10167 10162 10161 10158 ] final  -24.32 input  -65.29 | X-H torsion
[ 10718 10713 10712 10709 ] final -108.93 input   66.30 | X-H torsion
[ 10763 10752 10751 10750 ] final   23.45 input  -60.55 | X-H torsion
[ 11005 11000 10999 10996 ] final  -62.60 input  -57.11 | X-H torsion

> <Gold.Protein.ActiveResidues>
 VAL166  LYS551  ARG553  GLY616  TRP617  ASP618  TYR619  PRO620  LYS621  CYS622 
 ASP623  PHE694  ASN695  SER759  ASP760  ASP761  ALA762  ILE779  LEU786  VAL792 
 PHE793  MET794  SER795  GLU796  ALA797  LYS798  CYS799  TRP800  GLU811  SER814 

> <Gold.Protein.RotatedAtoms>
  152.4273  133.7217  159.6536 H   0  0  0  0  0  0  0  0  0  0  0  0  # atno 6907 bound_to 6896
  150.8150  133.8343  159.3170 H   0  0  0  0  0  0  0  0  0  0  0  0  # atno 6908 bound_to 6896
  151.6042  135.1047  160.0118 H   0  0  0  0  0  0  0  0  0  0  0  0  # atno 6909 bound_to 6896
  144.7384  140.3367  143.6143 H   0  0  0  0  0  0  0  0  0  0  0  0  # atno 7974 bound_to 7965
  154.6115  140.2477  155.7663 H   0  0  0  0  0  0  0  0  0  0  0  0  # atno 8008 bound_to 7997
  156.2373  140.2945  156.0298 H   0  0  0  0  0  0  0  0  0  0  0  0  # atno 8009 bound_to 7997
  155.2045  140.0395  157.2913 H   0  0  0  0  0  0  0  0  0  0  0  0  # atno 8010 bound_to 7997
  140.7288  143.4363  151.0724 H   0  0  0  0  0  0  0  0  0  0  0  0  # atno 10167 bound_to 10162
  156.0511  130.5738  150.8030 H   0  0  0  0  0  0  0  0  0  0  0  0  # atno 10718 bound_to 10713
  153.0838  135.6627  153.9991 H   0  0  0  0  0  0  0  0  0  0  0  0  # atno 10763 bound_to 10752
  153.9606  135.2974  155.3435 H   0  0  0  0  0  0  0  0  0  0  0  0  # atno 10764 bound_to 10752
  154.7242  135.5151  153.8932 H   0  0  0  0  0  0  0  0  0  0  0  0  # atno 10765 bound_to 10752
  141.1365  133.6642  156.5553 H   0  0  0  0  0  0  0  0  0  0  0  0  # atno 11005 bound_to 11000
  145.7417  139.1766  143.2372 LP  0  0  0  0  0  0  0  0  0  0  0  0  # atno 17320 bound_to 7965
  146.1129  140.7406  142.9494 LP  0  0  0  0  0  0  0  0  0  0  0  0  # atno 17321 bound_to 7965
  139.8026  143.8063  152.3164 LP  0  0  0  0  0  0  0  0  0  0  0  0  # atno 17342 bound_to 10162
  139.8085  144.7345  150.9729 LP  0  0  0  0  0  0  0  0  0  0  0  0  # atno 17343 bound_to 10162
  157.5437  131.0941  150.9792 LP  0  0  0  0  0  0  0  0  0  0  0  0  # atno 17370 bound_to 10713
  157.0068  130.5621  149.5317 LP  0  0  0  0  0  0  0  0  0  0  0  0  # atno 17371 bound_to 10713
  140.4031  134.7339  157.4792 LP  0  0  0  0  0  0  0  0  0  0  0  0  # atno 17394 bound_to 11000
  140.0481  134.6170  155.8895 LP  0  0  0  0  0  0  0  0  0  0  0  0  # atno 17395 bound_to 11000

$$$$
