AV-unprocessed.smi:261|AV-procd|sdf|1994|dock10
  -GOLD-   2262021183D 1   1.00000     0.00000
 Structure written by MMmdl.
 51 54  0  0  0  0  0  0  0  0  1 V2000
  145.5376  133.6592  155.9517 C   0  0  0  0  0  0  0  0  0  0  0  0
  146.7109  133.0999  156.5196 O   0  0  0  0  0  0  0  0  0  0  0  0
  147.8718  133.2536  155.7122 C   0  0  2  0  0  0  0  0  0  0  0  0
  149.1009  132.5810  156.3385 C   0  0  0  0  0  0  0  0  0  0  0  0
  149.6523  133.6103  157.3386 C   0  0  2  0  0  0  0  0  0  0  0  0
  149.0622  133.4046  158.7506 C   0  0  0  0  0  0  0  0  0  0  0  0
  148.3980  132.2745  159.0153 N   0  0  0  0  0  0  0  0  0  0  0  0
  149.2011  134.2810  159.6008 O   0  0  0  0  0  0  0  0  0  0  0  0
  149.2992  134.8872  156.7163 N   0  0  0  0  0  0  0  0  0  0  0  0
  149.8871  136.0868  156.9842 C   0  0  0  0  0  0  0  0  0  0  0  0
  150.6660  136.1753  158.0953 N   0  0  0  0  0  0  0  0  0  0  0  0
  151.2775  137.3184  158.4146 C   0  0  0  0  0  0  0  0  0  0  0  0
  151.2493  138.4848  157.7710 N   0  0  0  0  0  0  0  0  0  0  0  0
  150.4705  138.4131  156.6551 C   0  0  0  0  0  0  0  0  0  0  0  0
  149.7592  137.2677  156.1896 C   0  0  0  0  0  0  0  0  0  0  0  0
  149.0834  137.5940  155.0181 N   0  0  0  0  0  0  0  0  0  0  0  0
  149.3780  138.8459  154.8042 C   0  0  0  0  0  0  0  0  0  0  0  0
  150.2011  139.4195  155.7444 N   0  0  0  0  0  0  0  0  0  0  0  0
  150.6820  140.7924  155.7548 C   0  0  0  0  0  0  0  0  0  0  0  0
  150.2892  141.5817  157.0237 C   0  0  2  0  0  0  0  0  0  0  0  0
  148.9196  141.9241  156.9482 O   0  0  0  0  0  0  0  0  0  0  0  0
  151.1058  142.8725  157.2401 C   0  0  1  0  0  0  0  0  0  0  0  0
  150.6802  143.6971  158.4555 C   0  0  0  0  0  0  0  0  0  0  0  0
  151.9388  144.4673  158.8251 C   0  0  0  0  0  0  0  0  0  0  0  0
  153.0534  143.7534  158.0553 C   0  0  0  0  0  0  0  0  0  0  0  0
  152.4548  142.5662  157.5561 O   0  0  0  0  0  0  0  0  0  0  0  0
  148.2559  134.7368  155.7060 C   0  0  0  0  0  0  0  0  0  0  0  0
  147.6767  132.9004  154.6981 H   0  0  0  0  0  0  0  0  0  0  0  0
  150.7340  133.4901  157.3915 H   0  0  0  0  0  0  0  0  0  0  0  0
  144.6971  133.5016  156.6275 H   0  0  0  0  0  0  0  0  0  0  0  0
  145.2866  133.1974  154.9969 H   0  0  0  0  0  0  0  0  0  0  0  0
  145.6478  134.7338  155.8011 H   0  0  0  0  0  0  0  0  0  0  0  0
  148.8889  131.6082  156.7826 H   0  0  0  0  0  0  0  0  0  0  0  0
  149.8464  132.4120  155.5601 H   0  0  0  0  0  0  0  0  0  0  0  0
  147.9998  132.1302  159.9318 H   0  0  0  0  0  0  0  0  0  0  0  0
  148.2906  131.5747  158.2958 H   0  0  0  0  0  0  0  0  0  0  0  0
  151.8754  137.2942  159.3138 H   0  0  0  0  0  0  0  0  0  0  0  0
  148.9938  139.3907  153.9538 H   0  0  0  0  0  0  0  0  0  0  0  0
  151.7656  140.7848  155.6299 H   0  0  0  0  0  0  0  0  0  0  0  0
  150.2803  141.2950  154.8743 H   0  0  0  0  0  0  0  0  0  0  0  0
  150.4153  140.9265  157.8863 H   0  0  0  0  0  0  0  0  0  0  0  0
  148.8288  142.6730  156.3786 H   0  0  0  0  0  0  0  0  0  0  0  0
  151.0870  143.5012  156.3477 H   0  0  0  0  0  0  0  0  0  0  0  0
  149.8314  144.3481  158.2447 H   0  0  0  0  0  0  0  0  0  0  0  0
  150.4017  143.0395  159.2800 H   0  0  0  0  0  0  0  0  0  0  0  0
  151.8721  145.5132  158.5234 H   0  0  0  0  0  0  0  0  0  0  0  0
  152.1093  144.4384  159.9018 H   0  0  0  0  0  0  0  0  0  0  0  0
  153.3922  144.3631  157.2163 H   0  0  0  0  0  0  0  0  0  0  0  0
  153.9164  143.5252  158.6809 H   0  0  0  0  0  0  0  0  0  0  0  0
  148.6664  135.0130  154.7337 H   0  0  0  0  0  0  0  0  0  0  0  0
  147.3967  135.3791  155.9052 H   0  0  0  0  0  0  0  0  0  0  0  0
  1  2  1  0  0  0  0
  1 30  1  0  0  0  0
  1 31  1  0  0  0  0
  1 32  1  0  0  0  0
  2  3  1  0  0  0  0
  3 28  1  0  0  0  0
  3 27  1  0  0  0  0
  3  4  1  0  0  0  0
  4  5  1  0  0  0  0
  4 33  1  0  0  0  0
  4 34  1  0  0  0  0
  5 29  1  0  0  0  0
  5  6  1  0  0  0  0
  5  9  1  0  0  0  0
  6  7  1  0  0  0  0
  6  8  2  0  0  0  0
  7 35  1  0  0  0  0
  7 36  1  0  0  0  0
  9 10  1  0  0  0  0
  9 27  1  0  0  0  0
 10 15  1  0  0  0  0
 10 11  2  0  0  0  0
 11 12  1  0  0  0  0
 12 13  2  0  0  0  0
 12 37  1  0  0  0  0
 13 14  1  0  0  0  0
 14 18  1  0  0  0  0
 14 15  2  0  0  0  0
 15 16  1  0  0  0  0
 16 17  2  0  0  0  0
 17 18  1  0  0  0  0
 17 38  1  0  0  0  0
 18 19  1  0  0  0  0
 19 20  1  0  0  0  0
 19 39  1  0  0  0  0
 19 40  1  0  0  0  0
 20 21  1  0  0  0  0
 20 22  1  0  0  0  0
 20 41  1  0  0  0  0
 21 42  1  0  0  0  0
 22 26  1  0  0  0  0
 22 23  1  0  0  0  0
 22 43  1  0  0  0  0
 23 24  1  0  0  0  0
 23 44  1  0  0  0  0
 23 45  1  0  0  0  0
 24 25  1  0  0  0  0
 24 46  1  0  0  0  0
 24 47  1  0  0  0  0
 25 26  1  0  0  0  0
 25 48  1  0  0  0  0
 25 49  1  0  0  0  0
 27 50  1  0  0  0  0
 27 51  1  0  0  0  0
M  END
> <s_m_source_file>
AV-unprocessed.smi

> <i_m_source_file_index>
261

> <i_lp_mmshare_version>
43012

> <i_f3d_flags>
0

> <s_epik_input>
W0NIM11PW0NASF0xW0NIMl1bQ0BASF0oQyg9TylbTkgyXSlOKFtDSDJdMSljKG5bY0hdbjIpYyhjMjMpbltjSF1uM1tDSDJdW0NASF0oW09IXSlbQ0BASF00W0NIMl1bQ0gyXVtDSDJdTzQ=

> <s_epik_cmdline>
J2VwaWtfcHl0aG9uJywgJy1waCcsICc3LjAnLCAnLXRuJywgJzgnLCAnLW1hJywgJzIwMCcsICctbWV0YWxfYmluZGluZycsICctaW1hZScsICc8aW5maWxlLm1hZT4nLCAnLW9tYWUnLCAnPG91dGZpbGUubWFlPic=

> <r_lp_tautomer_probability>
1

> <r_epik_Ionization_Penalty>
0.000713824

> <r_epik_Ionization_Penalty_Charging>
0

> <r_epik_Ionization_Penalty_Neutral>
0.000713824

> <r_epik_State_Penalty>
0.000402132

> <r_epik_Charging_Adjusted_Penalty>
0.000402132

> <i_epik_Tot_Q>
0

> <i_epik_Tot_abs_Q>
0

> <r_epik_Metal_State_Penalty>
-0

> <b_epik_Metal_Only>
0

> <s_lp_Force_Field>
OPLS_2005

> <r_lp_Energy>
42.3495

> <b_lp_Chiralities_Consistent>
1

> <s_lp_Variant>
AV-unprocessed.smi:261-12

> <Gold.Version>
5.8.1

> <Gold.Id.Protein>
6NUR|6NUR_protein|mol2

> <Gold.PLP.Fitness>
47.3416

> <Gold.PLP.PLP>
-39.2621

> <Gold.PLP.part.hbond>
-2.7808

> <Gold.PLP.part.metal>
0.0000

> <Gold.PLP.part.buried>
-2.9766

> <Gold.PLP.part.nonpolar>
-32.1613

> <Gold.PLP.part.repulsive>
0.3234

> <Gold.PLP.ligand.clash>
0.0000

> <Gold.PLP.ligand.torsion>
0.5084

> <Gold.PLP.Chemscore.Hbond>
2.0000

> <Gold.PLP.Chemscore.CHOScore>
1.0000

> <Gold.PLP.Chemscore.Metal>
0.0000

> <Gold.Chemscore.Hbonds>
donor molecule, donor type, donor heavy atom, donor atom, acceptor molecule, acceptor atom, score
      L1  H    21    42       P1  8028  0.67
      P1  H  6896  6907       L1     8  0.06

> <Gold.PLP.Chemscore.Internal.Correction>
0.0963

> <Gold.Rescore>
     Score         DG    S(hbond)    S(metal)    S(lipo)     H(rot)  DE(clash)    DE(int)     intcor
      8.45     -11.74       1.36        0.00      84.31       3.18       0.79       2.51       ----

> <Gold.Chemscore.Fitness>
8.4456

> <Gold.Chemscore.DG>
-11.7409

> <Gold.Chemscore.ZeroCoef>
-5.4800

> <Gold.Chemscore.Hbond>
1.3610

> <Gold.Chemscore.Metal>
0.0000

> <Gold.Chemscore.Lipo>
84.3063

> <Gold.Chemscore.Internal_Hbond>
0.0000

> <Gold.Chemscore.DEClash>
0.7880

> <Gold.Chemscore.DEInternal>
2.5074

> <Gold.Chemscore.Rot>
3.1831

> <Gold.Chemscore.Internal.Correction>
   9.000000E+99

> <Gold.Chemscore.Hbonds>
donor molecule, donor type, donor heavy atom, donor atom, acceptor molecule, acceptor atom, score
      L1  H    21    42       P1  8028  0.66

> <Gold.Chemscore.Hbond.Weighted>
-4.5458

> <Gold.Chemscore.Metal.Weighted>
-0.0000

> <Gold.Chemscore.Lipo.Weighted>
-9.8638

> <Gold.Chemscore.Internal_Hbond.Weighted>
0.0000

> <Gold.Chemscore.DEClash.Weighted>
0.7880

> <Gold.Chemscore.DEInternal.Weighted>
2.5074

> <Gold.Chemscore.Rot.Weighted>
8.1486

> <Gold.Chemscore.Internal.Correction.Weighted>
   9.000000E+99

> <Gold.Protein.RotatedTorsions>
[ 6907 6896 6895 6894 ] final -109.11 input  -60.11 | X-H torsion
[ 7974 7965 7964 7962 ] final -117.37 input  175.53 | X-H torsion
[ 8008 7997 7996 7995 ] final  107.83 input   59.86 | X-H torsion
[ 10167 10162 10161 10158 ] final  -13.76 input  -65.29 | X-H torsion
[ 10718 10713 10712 10709 ] final  -85.35 input   66.30 | X-H torsion
[ 10763 10752 10751 10750 ] final  -93.56 input  -60.55 | X-H torsion
[ 11005 11000 10999 10996 ] final   49.18 input  -57.11 | X-H torsion

> <Gold.Protein.ActiveResidues>
 VAL166  LYS551  ARG553  GLY616  TRP617  ASP618  TYR619  PRO620  LYS621  CYS622 
 ASP623  PHE694  ASN695  SER759  ASP760  ASP761  ALA762  ILE779  LEU786  VAL792 
 PHE793  MET794  SER795  GLU796  ALA797  LYS798  CYS799  TRP800  GLU811  SER814 

> <Gold.Protein.RotatedAtoms>
  150.7542  133.9578  159.3505 H   0  0  0  0  0  0  0  0  0  0  0  0  # atno 6907 bound_to 6896
  151.7501  135.0833  160.0339 H   0  0  0  0  0  0  0  0  0  0  0  0  # atno 6908 bound_to 6896
  152.3472  133.6099  159.5954 H   0  0  0  0  0  0  0  0  0  0  0  0  # atno 6909 bound_to 6896
  145.0860  140.8458  143.4010 H   0  0  0  0  0  0  0  0  0  0  0  0  # atno 7974 bound_to 7965
  156.1855  140.3087  155.9230 H   0  0  0  0  0  0  0  0  0  0  0  0  # atno 8008 bound_to 7997
  155.3290  140.0460  157.3059 H   0  0  0  0  0  0  0  0  0  0  0  0  # atno 8009 bound_to 7997
  154.5391  140.2255  155.8682 H   0  0  0  0  0  0  0  0  0  0  0  0  # atno 8010 bound_to 7997
  140.7188  143.5392  150.9429 H   0  0  0  0  0  0  0  0  0  0  0  0  # atno 10167 bound_to 10162
  155.9997  130.4728  150.4548 H   0  0  0  0  0  0  0  0  0  0  0  0  # atno 10718 bound_to 10713
  154.6970  135.5190  153.8473 H   0  0  0  0  0  0  0  0  0  0  0  0  # atno 10763 bound_to 10752
  153.0675  135.6590  154.0331 H   0  0  0  0  0  0  0  0  0  0  0  0  # atno 10764 bound_to 10752
  154.0196  135.2995  155.3362 H   0  0  0  0  0  0  0  0  0  0  0  0  # atno 10765 bound_to 10752
  140.1126  134.4935  155.8665 H   0  0  0  0  0  0  0  0  0  0  0  0  # atno 11005 bound_to 11000
  145.1121  139.2750  143.5632 LP  0  0  0  0  0  0  0  0  0  0  0  0  # atno 17320 bound_to 7965
  146.3531  140.0721  142.8622 LP  0  0  0  0  0  0  0  0  0  0  0  0  # atno 17321 bound_to 7965
  139.9114  143.6715  152.3114 LP  0  0  0  0  0  0  0  0  0  0  0  0  # atno 17342 bound_to 10162
  139.7100  144.7622  151.1128 LP  0  0  0  0  0  0  0  0  0  0  0  0  # atno 17343 bound_to 10162
  157.2578  131.0560  151.2339 LP  0  0  0  0  0  0  0  0  0  0  0  0  # atno 17370 bound_to 10713
  157.3465  130.7060  149.6414 LP  0  0  0  0  0  0  0  0  0  0  0  0  # atno 17371 bound_to 10713
  141.2134  133.6732  156.6734 LP  0  0  0  0  0  0  0  0  0  0  0  0  # atno 17394 bound_to 11000
  140.3071  134.8116  157.4145 LP  0  0  0  0  0  0  0  0  0  0  0  0  # atno 17395 bound_to 11000

$$$$
