AV-unprocessed.smi:1107|AV-procd|sdf|4786|dock4
  -GOLD-   22720 3333D 1   1.00000     0.00000
 Structure written by MMmdl.
 48 49  0  0  0  0  0  0  0  0  3 V2000
  153.3855  141.5410  158.3055 C   0  0  0  0  0  0  0  0  0  0  0  0
  152.8615  140.4734  157.3696 C   0  0  0  0  0  0  0  0  0  0  0  0
  152.0458  140.8011  156.4418 N   0  0  0  0  0  0  0  0  0  0  0  0
  151.5433  139.8112  155.5800 C   0  0  0  0  0  0  0  0  0  0  0  0
  150.5609  140.2886  154.5255 C   0  0  0  0  0  0  0  0  0  0  0  0
  151.9180  138.5064  155.7107 C   0  0  0  0  0  0  0  0  0  0  0  0
  151.3788  137.3827  154.8266 C   0  0  0  0  0  0  0  0  0  0  0  0
  150.0941  136.7443  155.3504 C   0  0  0  0  0  0  0  0  0  0  0  0
  149.4959  137.2397  156.3044 O   0  0  0  0  0  0  0  0  0  0  0  0
  149.7183  135.6113  154.7384 N   0  0  0  0  0  0  0  0  0  0  0  0
  148.6733  134.6958  155.1877 C   0  0  1  0  0  0  0  0  0  0  0  0
  148.8788  134.3572  156.6703 C   0  0  0  0  0  0  0  0  0  0  0  0
  147.2793  135.3088  154.9216 C   0  0  0  0  0  0  0  0  0  0  0  0
  146.8995  135.3501  153.4827 N   0  3  0  0  0  0  0  0  0  0  0  0
  145.9057  136.4194  153.2026 C   0  0  0  0  0  0  0  0  0  0  0  0
  145.6124  136.5396  151.6977 C   0  0  0  0  0  0  0  0  0  0  0  0
  145.1631  135.1969  151.1087 C   0  0  0  0  0  0  0  0  0  0  0  0
  146.1933  134.1096  151.4363 C   0  0  0  0  0  0  0  0  0  0  0  0
  146.4549  134.0347  152.9491 C   0  0  0  0  0  0  0  0  0  0  0  0
  152.8556  138.1702  156.7971 C   0  0  0  0  0  0  0  0  0  0  0  0
  153.1997  137.0031  156.9806 O   0  0  0  0  0  0  0  0  0  0  0  0
  153.2965  139.1860  157.5902 N   0  5  0  0  0  0  0  0  0  0  0  0
  153.1697  142.5391  157.9219 H   0  0  0  0  0  0  0  0  0  0  0  0
  154.4657  141.4493  158.4239 H   0  0  0  0  0  0  0  0  0  0  0  0
  152.9196  141.4415  159.2863 H   0  0  0  0  0  0  0  0  0  0  0  0
  149.6185  139.7472  154.6044 H   0  0  0  0  0  0  0  0  0  0  0  0
  150.9689  140.1355  153.5263 H   0  0  0  0  0  0  0  0  0  0  0  0
  150.3448  141.3515  154.6398 H   0  0  0  0  0  0  0  0  0  0  0  0
  151.1906  137.7647  153.8232 H   0  0  0  0  0  0  0  0  0  0  0  0
  152.1370  136.6102  154.6909 H   0  0  0  0  0  0  0  0  0  0  0  0
  150.2730  135.3097  153.9494 H   0  0  0  0  0  0  0  0  0  0  0  0
  148.7404  133.7580  154.6350 H   0  0  0  0  0  0  0  0  0  0  0  0
  148.1171  133.6607  157.0218 H   0  0  0  0  0  0  0  0  0  0  0  0
  148.8274  135.2502  157.2944 H   0  0  0  0  0  0  0  0  0  0  0  0
  149.8513  133.8921  156.8350 H   0  0  0  0  0  0  0  0  0  0  0  0
  146.5152  134.7773  155.4910 H   0  0  0  0  0  0  0  0  0  0  0  0
  147.2844  136.3327  155.2987 H   0  0  0  0  0  0  0  0  0  0  0  0
  144.9841  136.2109  153.7483 H   0  0  0  0  0  0  0  0  0  0  0  0
  146.2825  137.3756  153.5681 H   0  0  0  0  0  0  0  0  0  0  0  0
  144.8465  137.2963  151.5261 H   0  0  0  0  0  0  0  0  0  0  0  0
  146.5049  136.8860  151.1788 H   0  0  0  0  0  0  0  0  0  0  0  0
  144.1911  134.9201  151.5188 H   0  0  0  0  0  0  0  0  0  0  0  0
  145.0365  135.2834  150.0290 H   0  0  0  0  0  0  0  0  0  0  0  0
  145.8463  133.1437  151.0684 H   0  0  0  0  0  0  0  0  0  0  0  0
  147.1273  134.3202  150.9155 H   0  0  0  0  0  0  0  0  0  0  0  0
  147.2133  133.2742  153.1300 H   0  0  0  0  0  0  0  0  0  0  0  0
  145.5533  133.7136  153.4725 H   0  0  0  0  0  0  0  0  0  0  0  0
  147.7351  135.6027  152.9734 H   0  0  0  0  0  0  0  0  0  0  0  0
  1  2  1  0  0  0  0
  1 23  1  0  0  0  0
  1 24  1  0  0  0  0
  1 25  1  0  0  0  0
  2 22  1  0  0  0  0
  2  3  2  0  0  0  0
  3  4  1  0  0  0  0
  4  5  1  0  0  0  0
  4  6  2  0  0  0  0
  5 26  1  0  0  0  0
  5 27  1  0  0  0  0
  5 28  1  0  0  0  0
  6  7  1  0  0  0  0
  6 20  1  0  0  0  0
  7  8  1  0  0  0  0
  7 29  1  0  0  0  0
  7 30  1  0  0  0  0
  8  9  2  0  0  0  0
  8 10  1  0  0  0  0
 10 11  1  0  0  0  0
 10 31  1  0  0  0  0
 11 12  1  0  0  0  0
 11 13  1  0  0  0  0
 11 32  1  0  0  0  0
 12 33  1  0  0  0  0
 12 34  1  0  0  0  0
 12 35  1  0  0  0  0
 13 14  1  0  0  0  0
 13 36  1  0  0  0  0
 13 37  1  0  0  0  0
 14 19  1  0  0  0  0
 14 15  1  0  0  0  0
 14 48  1  0  0  0  0
 15 16  1  0  0  0  0
 15 38  1  0  0  0  0
 15 39  1  0  0  0  0
 16 17  1  0  0  0  0
 16 40  1  0  0  0  0
 16 41  1  0  0  0  0
 17 18  1  0  0  0  0
 17 42  1  0  0  0  0
 17 43  1  0  0  0  0
 18 19  1  0  0  0  0
 18 44  1  0  0  0  0
 18 45  1  0  0  0  0
 19 46  1  0  0  0  0
 19 47  1  0  0  0  0
 20 21  2  0  0  0  0
 20 22  1  0  0  0  0
M  CHG  1  14   1
M  CHG  1  22  -1
M  END
> <s_m_source_file>
AV-unprocessed.smi

> <i_m_source_file_index>
1107

> <i_lp_mmshare_version>
43012

> <i_f3d_flags>
0

> <s_epik_input>
W0NIM11jMW5jKFtDSDNdKWMoYyg9TylbbkhdMSlbQ0gyXUMoPU8pW05IXVtDQEhdKFtDSDNdKVtDSDJdTjJbQ0gyXVtDSDJdW0NIMl1bQ0gyXVtDSDJdMg==

> <s_epik_cmdline>
J2VwaWtfcHl0aG9uJywgJy1waCcsICc3LjAnLCAnLXRuJywgJzgnLCAnLW1hJywgJzIwMCcsICctbWV0YWxfYmluZGluZycsICctaW1hZScsICc8aW5maWxlLm1hZT4nLCAnLW9tYWUnLCAnPG91dGZpbGUubWFlPic=

> <r_lp_tautomer_probability>
0.839158

> <r_epik_Ionization_Penalty>
6.34615

> <r_epik_Ionization_Penalty_Charging>
0.00266072

> <r_epik_Ionization_Penalty_Neutral>
6.34348

> <r_epik_State_Penalty>
4.30851

> <r_epik_Charging_Adjusted_Penalty>
4.31117

> <i_epik_Tot_Q>
0

> <i_epik_Tot_abs_Q>
2

> <r_epik_Metal_State_Penalty>
0.75957

> <b_epik_Metal_Only>
1

> <s_lp_Force_Field>
OPLS_2005

> <r_lp_Energy>
17.1347

> <b_lp_Chiralities_Consistent>
1

> <s_lp_Variant>
AV-unprocessed.smi:1107-6

> <Gold.Version>
5.8.1

> <Gold.Id.Protein>
6NUR|6NUR_protein|mol2

> <Gold.PLP.Fitness>
46.8283

> <Gold.PLP.PLP>
-35.0192

> <Gold.PLP.part.hbond>
-5.0000

> <Gold.PLP.part.metal>
0.0000

> <Gold.PLP.part.buried>
-2.4691

> <Gold.PLP.part.nonpolar>
-27.9758

> <Gold.PLP.part.repulsive>
0.1372

> <Gold.PLP.ligand.clash>
0.0000

> <Gold.PLP.ligand.torsion>
0.8944

> <Gold.PLP.Chemscore.Hbond>
4.5089

> <Gold.PLP.Chemscore.CHOScore>
0.0000

> <Gold.PLP.Chemscore.Metal>
0.0000

> <Gold.Chemscore.Hbonds>
donor molecule, donor type, donor heavy atom, donor atom, acceptor molecule, acceptor atom, score
      L1  H    14    48       P1  7948  2.00
      P1  H 10752 10763       L1    21  0.15

> <Gold.PLP.Chemscore.Internal.Correction>
0.0712

> <Gold.Rescore>
     Score         DG    S(hbond)    S(metal)    S(lipo)     H(rot)  DE(clash)    DE(int)     intcor
     12.48     -14.83       1.86        0.00      69.02       1.92       0.71       1.65       ----

> <Gold.Chemscore.Fitness>
12.4763

> <Gold.Chemscore.DG>
-14.8308

> <Gold.Chemscore.ZeroCoef>
-5.4800

> <Gold.Chemscore.Hbond>
1.8561

> <Gold.Chemscore.Metal>
0.0000

> <Gold.Chemscore.Lipo>
69.0189

> <Gold.Chemscore.Internal_Hbond>
0.0000

> <Gold.Chemscore.DEClash>
0.7072

> <Gold.Chemscore.DEInternal>
1.6473

> <Gold.Chemscore.Rot>
1.9233

> <Gold.Chemscore.Internal.Correction>
   9.000000E+99

> <Gold.Chemscore.Hbonds>
donor molecule, donor type, donor heavy atom, donor atom, acceptor molecule, acceptor atom, score
      L1  H    14    48       P1  7948  1.00
      P1  H 10752 10763       L1    21  0.16

> <Gold.Chemscore.Hbond.Weighted>
-6.1993

> <Gold.Chemscore.Metal.Weighted>
-0.0000

> <Gold.Chemscore.Lipo.Weighted>
-8.0752

> <Gold.Chemscore.Internal_Hbond.Weighted>
0.0000

> <Gold.Chemscore.DEClash.Weighted>
0.7072

> <Gold.Chemscore.DEInternal.Weighted>
1.6473

> <Gold.Chemscore.Rot.Weighted>
4.9237

> <Gold.Chemscore.Internal.Correction.Weighted>
   9.000000E+99

> <Gold.Protein.RotatedTorsions>
[ 6907 6896 6895 6894 ] final   64.77 input  -60.11 | X-H torsion
[ 7974 7965 7964 7962 ] final -165.52 input  175.53 | X-H torsion
[ 8008 7997 7996 7995 ] final  165.78 input   59.86 | X-H torsion
[ 10167 10162 10161 10158 ] final   97.59 input  -65.29 | X-H torsion
[ 10718 10713 10712 10709 ] final  -10.15 input   66.30 | X-H torsion
[ 10763 10752 10751 10750 ] final  103.79 input  -60.55 | X-H torsion
[ 11005 11000 10999 10996 ] final  -92.34 input  -57.11 | X-H torsion

> <Gold.Protein.ActiveResidues>
 VAL166  LYS551  ARG553  GLY616  TRP617  ASP618  TYR619  PRO620  LYS621  CYS622 
 ASP623  PHE694  ASN695  SER759  ASP760  ASP761  ALA762  ILE779  LEU786  VAL792 
 PHE793  MET794  SER795  GLU796  ALA797  LYS798  CYS799  TRP800  GLU811  SER814 

> <Gold.Protein.RotatedAtoms>
  152.4357  134.5691  159.9915 H   0  0  0  0  0  0  0  0  0  0  0  0  # atno 6907 bound_to 6896
  151.5802  133.3373  159.3015 H   0  0  0  0  0  0  0  0  0  0  0  0  # atno 6908 bound_to 6896
  150.8255  134.7519  159.6874 H   0  0  0  0  0  0  0  0  0  0  0  0  # atno 6909 bound_to 6896
  144.7268  140.2801  143.6237 H   0  0  0  0  0  0  0  0  0  0  0  0  # atno 7974 bound_to 7965
  156.1772  140.1661  156.8340 H   0  0  0  0  0  0  0  0  0  0  0  0  # atno 8008 bound_to 7997
  154.5320  140.0755  156.8396 H   0  0  0  0  0  0  0  0  0  0  0  0  # atno 8009 bound_to 7997
  155.3387  140.3383  155.4241 H   0  0  0  0  0  0  0  0  0  0  0  0  # atno 8010 bound_to 7997
  139.7787  144.6896  151.0053 H   0  0  0  0  0  0  0  0  0  0  0  0  # atno 10167 bound_to 10162
  156.6777  130.5028  149.5981 H   0  0  0  0  0  0  0  0  0  0  0  0  # atno 10718 bound_to 10713
  153.3574  135.3965  155.1692 H   0  0  0  0  0  0  0  0  0  0  0  0  # atno 10763 bound_to 10752
  154.8673  135.3671  154.5144 H   0  0  0  0  0  0  0  0  0  0  0  0  # atno 10764 bound_to 10752
  153.5600  135.7081  153.5612 H   0  0  0  0  0  0  0  0  0  0  0  0  # atno 10765 bound_to 10752
  141.1524  133.7815  157.0006 H   0  0  0  0  0  0  0  0  0  0  0  0  # atno 11005 bound_to 11000
  145.7957  139.1944  143.2077 LP  0  0  0  0  0  0  0  0  0  0  0  0  # atno 17320 bound_to 7965
  146.0718  140.7860  142.9684 LP  0  0  0  0  0  0  0  0  0  0  0  0  # atno 17321 bound_to 7965
  140.7817  143.4507  151.0417 LP  0  0  0  0  0  0  0  0  0  0  0  0  # atno 17342 bound_to 10162
  139.8188  143.7848  152.3176 LP  0  0  0  0  0  0  0  0  0  0  0  0  # atno 17343 bound_to 10162
  156.1891  130.6548  151.1040 LP  0  0  0  0  0  0  0  0  0  0  0  0  # atno 17370 bound_to 10713
  157.7055  131.0758  150.6682 LP  0  0  0  0  0  0  0  0  0  0  0  0  # atno 17371 bound_to 10713
  140.0942  134.9574  157.1824 LP  0  0  0  0  0  0  0  0  0  0  0  0  # atno 17394 bound_to 11000
  140.3405  134.2710  155.7213 LP  0  0  0  0  0  0  0  0  0  0  0  0  # atno 17395 bound_to 11000

$$$$
