AV-unprocessed.smi:3053|AV-procd|sdf|11637|dock4
  -GOLD-   2272017 33D 1   1.00000     0.00000
 Structure written by MMmdl.
 31 32  0  0  0  0  0  0  0  0  1 V2000
  154.2421  140.9050  161.0387 C   0  0  0  0  0  0  0  0  0  0  0  0
  153.2441  141.9609  160.7090 C   0  0  0  0  0  0  0  0  0  0  0  0
  152.5936  142.0228  159.5445 N   0  0  0  0  0  0  0  0  0  0  0  0
  151.7309  143.1205  159.4683 C   0  0  0  0  0  0  0  0  0  0  0  0
  150.9580  143.3806  158.2076 C   0  0  0  0  0  0  0  0  0  0  0  0
  151.0444  142.2314  157.1828 C   0  0  0  0  0  0  0  0  0  0  0  0
  149.9447  142.2622  156.2202 N   0  0  0  0  0  0  0  0  0  0  0  0
  149.7917  141.4198  155.1857 C   0  0  0  0  0  0  0  0  0  0  0  0
  150.5510  140.4754  154.9635 O   0  0  0  0  0  0  0  0  0  0  0  0
  148.5969  141.6895  154.2613 C   0  0  2  0  0  0  0  0  0  0  0  0
  147.2503  141.7335  155.0015 C   0  0  0  0  0  0  0  0  0  0  0  0
  146.5427  140.5943  154.4493 N   0  0  0  0  0  0  0  0  0  0  0  0
  147.2256  139.9610  153.4935 C   0  0  0  0  0  0  0  0  0  0  0  0
  146.8410  138.9813  152.8604 O   0  0  0  0  0  0  0  0  0  0  0  0
  148.4001  140.5783  153.3453 N   0  0  0  0  0  0  0  0  0  0  0  0
  151.7192  143.8803  160.6119 C   0  0  0  0  0  0  0  0  0  0  0  0
  152.8169  143.2617  161.8138 S   0  0  0  0  0  0  0  0  0  0  0  0
  154.0643  140.0107  160.4406 H   0  0  0  0  0  0  0  0  0  0  0  0
  154.1728  140.6386  162.0935 H   0  0  0  0  0  0  0  0  0  0  0  0
  155.2487  141.2699  160.8341 H   0  0  0  0  0  0  0  0  0  0  0  0
  149.9103  143.5663  158.4465 H   0  0  0  0  0  0  0  0  0  0  0  0
  151.3180  144.2978  157.7402 H   0  0  0  0  0  0  0  0  0  0  0  0
  152.0056  142.2648  156.6672 H   0  0  0  0  0  0  0  0  0  0  0  0
  151.0160  141.2746  157.7042 H   0  0  0  0  0  0  0  0  0  0  0  0
  149.2665  143.0024  156.3296 H   0  0  0  0  0  0  0  0  0  0  0  0
  148.7540  142.6025  153.6845 H   0  0  0  0  0  0  0  0  0  0  0  0
  147.3448  141.6321  156.0840 H   0  0  0  0  0  0  0  0  0  0  0  0
  146.7042  142.6530  154.7877 H   0  0  0  0  0  0  0  0  0  0  0  0
  145.6204  140.3237  154.7587 H   0  0  0  0  0  0  0  0  0  0  0  0
  149.1120  140.2831  152.6930 H   0  0  0  0  0  0  0  0  0  0  0  0
  151.1483  144.7748  160.8113 H   0  0  0  0  0  0  0  0  0  0  0  0
  1  2  1  0  0  0  0
  1 18  1  0  0  0  0
  1 19  1  0  0  0  0
  1 20  1  0  0  0  0
  2 17  1  0  0  0  0
  2  3  2  0  0  0  0
  3  4  1  0  0  0  0
  4  5  1  0  0  0  0
  4 16  2  0  0  0  0
  5  6  1  0  0  0  0
  5 21  1  0  0  0  0
  5 22  1  0  0  0  0
  6  7  1  0  0  0  0
  6 23  1  0  0  0  0
  6 24  1  0  0  0  0
  7  8  1  0  0  0  0
  7 25  1  0  0  0  0
  8  9  2  0  0  0  0
  8 10  1  0  0  0  0
 10 15  1  0  0  0  0
 10 11  1  0  0  0  0
 10 26  1  0  0  0  0
 11 12  1  0  0  0  0
 11 27  1  0  0  0  0
 11 28  1  0  0  0  0
 12 13  1  0  0  0  0
 12 29  1  0  0  0  0
 13 14  2  0  0  0  0
 13 15  1  0  0  0  0
 15 30  1  0  0  0  0
 16 17  1  0  0  0  0
 16 31  1  0  0  0  0
M  END
> <s_m_source_file>
AV-unprocessed.smi

> <i_m_source_file_index>
3053

> <i_lp_mmshare_version>
43012

> <i_f3d_flags>
0

> <s_epik_input>
W0NIM11jMW5jKFtjSF1zMSlbQ0gyXVtDSDJdW05IXUMoPU8pW0NAQEhdMltDSDJdW05IXUMoPU8pW05IXTI=

> <s_epik_cmdline>
J2VwaWtfcHl0aG9uJywgJy1waCcsICc3LjAnLCAnLXRuJywgJzgnLCAnLW1hJywgJzIwMCcsICctbWV0YWxfYmluZGluZycsICctaW1hZScsICc8aW5maWxlLm1hZT4nLCAnLW9tYWUnLCAnPG91dGZpbGUubWFlPic=

> <r_epik_Ionization_Penalty>
0.00110852

> <r_epik_Ionization_Penalty_Charging>
0

> <r_epik_Ionization_Penalty_Neutral>
0.00110852

> <r_epik_State_Penalty>
0.000695988

> <r_epik_Charging_Adjusted_Penalty>
0.000695988

> <i_epik_Tot_Q>
0

> <i_epik_Tot_abs_Q>
0

> <r_epik_Metal_State_Penalty>
-0

> <b_epik_Metal_Only>
0

> <s_lp_Force_Field>
OPLS_2005

> <r_lp_Energy>
23.9072

> <b_lp_Chiralities_Consistent>
1

> <s_lp_Variant>
AV-unprocessed.smi:3053-1

> <Gold.Version>
5.8.1

> <Gold.Id.Protein>
6NUR|6NUR_protein|mol2

> <Gold.PLP.Fitness>
45.4199

> <Gold.PLP.PLP>
-37.5435

> <Gold.PLP.part.hbond>
-3.0000

> <Gold.PLP.part.metal>
0.0000

> <Gold.PLP.part.buried>
-5.9107

> <Gold.PLP.part.nonpolar>
-29.1423

> <Gold.PLP.part.repulsive>
0.5896

> <Gold.PLP.ligand.clash>
0.0000

> <Gold.PLP.ligand.torsion>
0.3026

> <Gold.PLP.Chemscore.Hbond>
2.8080

> <Gold.PLP.Chemscore.CHOScore>
0.0000

> <Gold.PLP.Chemscore.Metal>
0.0000

> <Gold.Chemscore.Hbonds>
donor molecule, donor type, donor heavy atom, donor atom, acceptor molecule, acceptor atom, score
      L1  H     7    25       P1  8028  0.80
      L1  H    15    30       P1  7957  0.99
      P1  H  7989  7998       L1     9  1.00

> <Gold.PLP.Chemscore.Internal.Correction>
0.0576

> <Gold.Rescore>
     Score         DG    S(hbond)    S(metal)    S(lipo)     H(rot)  DE(clash)    DE(int)     intcor
     18.37     -18.79       2.55        0.00      85.19       2.02       0.11       0.30       ----

> <Gold.Chemscore.Fitness>
18.3736

> <Gold.Chemscore.DG>
-18.7859

> <Gold.Chemscore.ZeroCoef>
-5.4800

> <Gold.Chemscore.Hbond>
2.5516

> <Gold.Chemscore.Metal>
0.0000

> <Gold.Chemscore.Lipo>
85.1916

> <Gold.Chemscore.Internal_Hbond>
0.0000

> <Gold.Chemscore.DEClash>
0.1113

> <Gold.Chemscore.DEInternal>
0.3011

> <Gold.Chemscore.Rot>
2.0250

> <Gold.Chemscore.Internal.Correction>
   9.000000E+99

> <Gold.Chemscore.Hbonds>
donor molecule, donor type, donor heavy atom, donor atom, acceptor molecule, acceptor atom, score
      L1  H     7    25       P1  8028  0.79
      L1  H    15    30       P1  7957  0.94
      P1  H  7989  7998       L1     9  0.67

> <Gold.Chemscore.Hbond.Weighted>
-8.5225

> <Gold.Chemscore.Metal.Weighted>
-0.0000

> <Gold.Chemscore.Lipo.Weighted>
-9.9674

> <Gold.Chemscore.Internal_Hbond.Weighted>
0.0000

> <Gold.Chemscore.DEClash.Weighted>
0.1113

> <Gold.Chemscore.DEInternal.Weighted>
0.3011

> <Gold.Chemscore.Rot.Weighted>
5.1840

> <Gold.Chemscore.Internal.Correction.Weighted>
   9.000000E+99

> <Gold.Protein.RotatedTorsions>
[ 6907 6896 6895 6894 ] final -151.79 input  -60.11 | X-H torsion
[ 7974 7965 7964 7962 ] final -166.30 input  175.53 | X-H torsion
[ 8008 7997 7996 7995 ] final  132.16 input   59.86 | X-H torsion
[ 10167 10162 10161 10158 ] final -147.18 input  -65.29 | X-H torsion
[ 10718 10713 10712 10709 ] final  147.56 input   66.30 | X-H torsion
[ 10763 10752 10751 10750 ] final -126.54 input  -60.55 | X-H torsion
[ 11005 11000 10999 10996 ] final -154.84 input  -57.11 | X-H torsion

> <Gold.Protein.ActiveResidues>
 VAL166  LYS551  ARG553  GLY616  TRP617  ASP618  TYR619  PRO620  LYS621  CYS622 
 ASP623  PHE694  ASN695  SER759  ASP760  ASP761  ALA762  ILE779  LEU786  VAL792 
 PHE793  MET794  SER795  GLU796  ALA797  LYS798  CYS799  TRP800  GLU811  SER814 

> <Gold.Protein.RotatedAtoms>
  151.2182  133.4517  159.2599 H   0  0  0  0  0  0  0  0  0  0  0  0  # atno 6907 bound_to 6896
  151.0910  134.9916  159.8413 H   0  0  0  0  0  0  0  0  0  0  0  0  # atno 6908 bound_to 6896
  152.5434  134.2116  159.8805 H   0  0  0  0  0  0  0  0  0  0  0  0  # atno 6909 bound_to 6896
  144.7248  140.2686  143.6254 H   0  0  0  0  0  0  0  0  0  0  0  0  # atno 7974 bound_to 7965
  156.2979  140.2553  156.3043 H   0  0  0  0  0  0  0  0  0  0  0  0  # atno 8008 bound_to 7997
  154.9387  140.0396  157.2104 H   0  0  0  0  0  0  0  0  0  0  0  0  # atno 8009 bound_to 7997
  154.8147  140.2850  155.5833 H   0  0  0  0  0  0  0  0  0  0  0  0  # atno 8010 bound_to 7997
  139.7645  143.8328  152.2613 H   0  0  0  0  0  0  0  0  0  0  0  0  # atno 10167 bound_to 10162
  157.3195  131.0902  151.1252 H   0  0  0  0  0  0  0  0  0  0  0  0  # atno 10718 bound_to 10713
  154.8746  135.3992  154.3447 H   0  0  0  0  0  0  0  0  0  0  0  0  # atno 10763 bound_to 10752
  153.4241  135.7024  153.6280 H   0  0  0  0  0  0  0  0  0  0  0  0  # atno 10764 bound_to 10752
  153.4929  135.3744  155.2471 H   0  0  0  0  0  0  0  0  0  0  0  0  # atno 10765 bound_to 10752
  140.6929  134.4021  157.5217 H   0  0  0  0  0  0  0  0  0  0  0  0  # atno 11005 bound_to 11000
  145.8065  139.1985  143.2018 LP  0  0  0  0  0  0  0  0  0  0  0  0  # atno 17320 bound_to 7965
  146.0632  140.7948  142.9724 LP  0  0  0  0  0  0  0  0  0  0  0  0  # atno 17321 bound_to 7965
  139.8344  144.7239  150.9410 LP  0  0  0  0  0  0  0  0  0  0  0  0  # atno 17342 bound_to 10162
  140.7810  143.4040  151.1101 LP  0  0  0  0  0  0  0  0  0  0  0  0  # atno 17343 bound_to 10162
  157.2542  130.6628  149.5945 LP  0  0  0  0  0  0  0  0  0  0  0  0  # atno 17370 bound_to 10713
  155.9684  130.4529  150.5790 LP  0  0  0  0  0  0  0  0  0  0  0  0  # atno 17371 bound_to 10713
  139.8918  134.8770  156.2301 LP  0  0  0  0  0  0  0  0  0  0  0  0  # atno 17394 bound_to 11000
  141.0226  133.7032  156.1294 LP  0  0  0  0  0  0  0  0  0  0  0  0  # atno 17395 bound_to 11000

$$$$
