AV-unprocessed.smi:1222|AV-procd|sdf|5123|dock4
  -GOLD-   22720 4183D 1   1.00000     0.00000
 Structure written by MMmdl.
 36 38  0  0  0  0  0  0  0  0  3 V2000
  151.7317  137.3066  154.2606 O   0  0  0  0  0  0  0  0  0  0  0  0
  151.6623  137.8384  155.3710 C   0  0  0  0  0  0  0  0  0  0  0  0
  152.4562  138.8280  155.8382 N   0  5  0  0  0  0  0  0  0  0  0  0
  151.9379  140.0401  156.0947 C   0  0  0  0  0  0  0  0  0  0  0  0
  151.1902  140.7145  155.2137 N   0  0  0  0  0  0  0  0  0  0  0  0
  150.7512  141.9511  155.6902 C   0  0  0  0  0  0  0  0  0  0  0  0
  151.1678  142.2212  156.9667 C   0  0  0  0  0  0  0  0  0  0  0  0
  152.1285  140.9216  157.6131 S   0  0  0  0  0  0  0  0  0  0  0  0
  150.7269  137.4414  156.2454 N   0  0  0  0  0  0  0  0  0  0  0  0
  149.7305  136.3986  156.0209 C   0  0  2  0  0  0  0  0  0  0  0  0
  150.3629  135.1752  155.3301 C   0  0  0  0  0  0  0  0  0  0  0  0
  149.2990  134.1203  154.9875 C   0  0  0  0  0  0  0  0  0  0  0  0
  148.2246  134.7027  154.1460 N   0  3  1  0  0  0  0  0  0  0  0  0
  147.2488  133.6836  153.7023 C   0  0  0  0  0  0  0  0  0  0  0  0
  147.8731  132.3498  153.3644 C   0  0  0  0  0  0  0  0  0  0  0  0
  147.4140  133.2729  152.2576 C   0  0  0  0  0  0  0  0  0  0  0  0
  147.5674  135.8532  154.8138 C   0  0  0  0  0  0  0  0  0  0  0  0
  148.5893  136.9511  155.1512 C   0  0  0  0  0  0  0  0  0  0  0  0
  150.1451  142.5761  155.0513 H   0  0  0  0  0  0  0  0  0  0  0  0
  150.9692  143.0984  157.5634 H   0  0  0  0  0  0  0  0  0  0  0  0
  150.7114  137.9048  157.1422 H   0  0  0  0  0  0  0  0  0  0  0  0
  149.3114  136.0915  156.9810 H   0  0  0  0  0  0  0  0  0  0  0  0
  150.8720  135.4869  154.4165 H   0  0  0  0  0  0  0  0  0  0  0  0
  151.1248  134.7302  155.9708 H   0  0  0  0  0  0  0  0  0  0  0  0
  149.7684  133.2896  154.4595 H   0  0  0  0  0  0  0  0  0  0  0  0
  148.8668  133.7115  155.9021 H   0  0  0  0  0  0  0  0  0  0  0  0
  146.2595  133.7323  154.1540 H   0  0  0  0  0  0  0  0  0  0  0  0
  148.9459  132.2311  153.5065 H   0  0  0  0  0  0  0  0  0  0  0  0
  147.2788  131.4567  153.5472 H   0  0  0  0  0  0  0  0  0  0  0  0
  146.5177  132.9872  151.7104 H   0  0  0  0  0  0  0  0  0  0  0  0
  148.1822  133.7672  151.6654 H   0  0  0  0  0  0  0  0  0  0  0  0
  146.7959  136.2635  154.1615 H   0  0  0  0  0  0  0  0  0  0  0  0
  147.0669  135.5128  155.7219 H   0  0  0  0  0  0  0  0  0  0  0  0
  148.0911  137.7737  155.6659 H   0  0  0  0  0  0  0  0  0  0  0  0
  148.9939  137.3650  154.2260 H   0  0  0  0  0  0  0  0  0  0  0  0
  148.6695  135.0628  153.3137 H   0  0  0  0  0  0  0  0  0  0  0  0
  1  2  2  0  0  0  0
  2  3  1  0  0  0  0
  2  9  1  0  0  0  0
  3  4  1  0  0  0  0
  4  8  1  0  0  0  0
  4  5  2  0  0  0  0
  5  6  1  0  0  0  0
  6  7  2  0  0  0  0
  6 19  1  0  0  0  0
  7  8  1  0  0  0  0
  7 20  1  0  0  0  0
  9 10  1  0  0  0  0
  9 21  1  0  0  0  0
 10 18  1  0  0  0  0
 10 11  1  0  0  0  0
 10 22  1  0  0  0  0
 11 12  1  0  0  0  0
 11 23  1  0  0  0  0
 11 24  1  0  0  0  0
 12 13  1  0  0  0  0
 12 25  1  0  0  0  0
 12 26  1  0  0  0  0
 13 14  1  0  0  0  0
 13 17  1  0  0  0  0
 13 36  1  0  0  0  0
 14 16  1  0  0  0  0
 14 15  1  0  0  0  0
 14 27  1  0  0  0  0
 15 16  1  0  0  0  0
 15 28  1  0  0  0  0
 15 29  1  0  0  0  0
 16 30  1  0  0  0  0
 16 31  1  0  0  0  0
 17 18  1  0  0  0  0
 17 32  1  0  0  0  0
 17 33  1  0  0  0  0
 18 34  1  0  0  0  0
 18 35  1  0  0  0  0
M  CHG  1   3  -1
M  CHG  1  13   1
M  END
> <s_m_source_file>
AV-unprocessed.smi

> <i_m_source_file_index>
1222

> <i_lp_mmshare_version>
43012

> <i_f3d_flags>
0

> <s_epik_input>
czFbY0hdW2NIXW5jMVtOSF1DKD1PKVtOSF1bQ0hdMltDSDJdW0NIMl1OKFtDSDJdW0NIMl0yKVtDSF0zW0NIMl1bQ0gyXTM=

> <s_epik_cmdline>
J2VwaWtfcHl0aG9uJywgJy1waCcsICc3LjAnLCAnLXRuJywgJzgnLCAnLW1hJywgJzIwMCcsICctbWV0YWxfYmluZGluZycsICctaW1hZScsICc8aW5maWxlLm1hZT4nLCAnLW9tYWUnLCAnPG91dGZpbGUubWFlPic=

> <r_lp_tautomer_probability>
0.999

> <r_epik_Ionization_Penalty>
6.4609

> <r_epik_Ionization_Penalty_Charging>
5.58663

> <r_epik_Ionization_Penalty_Neutral>
0.874262

> <r_epik_State_Penalty>
5.57752

> <r_epik_Charging_Adjusted_Penalty>
11.1642

> <i_epik_Tot_Q>
0

> <i_epik_Tot_abs_Q>
2

> <r_epik_Metal_State_Penalty>
1.58738

> <b_epik_Metal_Only>
1

> <s_lp_Force_Field>
OPLS_2005

> <r_lp_Energy>
15.8934

> <b_lp_Chiralities_Consistent>
1

> <s_lp_Variant>
AV-unprocessed.smi:1222-4

> <Gold.Version>
5.8.1

> <Gold.Id.Protein>
6NUR|6NUR_protein|mol2

> <Gold.PLP.Fitness>
39.6839

> <Gold.PLP.PLP>
-28.0856

> <Gold.PLP.part.hbond>
-3.1219

> <Gold.PLP.part.metal>
0.0000

> <Gold.PLP.part.buried>
-3.4589

> <Gold.PLP.part.nonpolar>
-21.4247

> <Gold.PLP.part.repulsive>
0.9490

> <Gold.PLP.ligand.clash>
0.0171

> <Gold.PLP.ligand.torsion>
2.1565

> <Gold.PLP.Chemscore.Hbond>
3.8873

> <Gold.PLP.Chemscore.CHOScore>
1.0000

> <Gold.PLP.Chemscore.Metal>
0.0000

> <Gold.Chemscore.Hbonds>
donor molecule, donor type, donor heavy atom, donor atom, acceptor molecule, acceptor atom, score
      L1  H    13    36       P1  7948  2.00
      P1  H  7989  7998       L1     5  0.83
      P1  H 10752 10765       L1     1  0.92
      L1  C     6    19       P1  8028  0.93

> <Gold.PLP.Chemscore.Internal.Correction>
1.2666

> <Gold.Rescore>
     Score         DG    S(hbond)    S(metal)    S(lipo)     H(rot)  DE(clash)    DE(int)     intcor
     11.49     -15.33       2.00        0.00      54.50       1.25       0.11       3.73       ----

> <Gold.Chemscore.Fitness>
11.4921

> <Gold.Chemscore.DG>
-15.3326

> <Gold.Chemscore.ZeroCoef>
-5.4800

> <Gold.Chemscore.Hbond>
1.9965

> <Gold.Chemscore.Metal>
0.0000

> <Gold.Chemscore.Lipo>
54.5023

> <Gold.Chemscore.Internal_Hbond>
0.0000

> <Gold.Chemscore.DEClash>
0.1087

> <Gold.Chemscore.DEInternal>
3.7318

> <Gold.Chemscore.Rot>
1.2470

> <Gold.Chemscore.Internal.Correction>
   9.000000E+99

> <Gold.Chemscore.Hbonds>
donor molecule, donor type, donor heavy atom, donor atom, acceptor molecule, acceptor atom, score
      L1  H    13    36       P1  7948  0.70
      P1  H  7989  7998       L1     5  0.57
      P1  H 10752 10765       L1     1  0.79

> <Gold.Chemscore.Hbond.Weighted>
-6.6682

> <Gold.Chemscore.Metal.Weighted>
-0.0000

> <Gold.Chemscore.Lipo.Weighted>
-6.3768

> <Gold.Chemscore.Internal_Hbond.Weighted>
0.0000

> <Gold.Chemscore.DEClash.Weighted>
0.1087

> <Gold.Chemscore.DEInternal.Weighted>
3.7318

> <Gold.Chemscore.Rot.Weighted>
3.1924

> <Gold.Chemscore.Internal.Correction.Weighted>
   9.000000E+99

> <Gold.Protein.RotatedTorsions>
[ 6907 6896 6895 6894 ] final  120.87 input  -60.11 | X-H torsion
[ 7974 7965 7964 7962 ] final  -90.38 input  175.53 | X-H torsion
[ 8008 7997 7996 7995 ] final  -39.11 input   59.86 | X-H torsion
[ 10167 10162 10161 10158 ] final  -22.86 input  -65.29 | X-H torsion
[ 10718 10713 10712 10709 ] final  -51.22 input   66.30 | X-H torsion
[ 10763 10752 10751 10750 ] final  146.36 input  -60.55 | X-H torsion
[ 11005 11000 10999 10996 ] final   -4.69 input  -57.11 | X-H torsion

> <Gold.Protein.ActiveResidues>
 VAL166  LYS551  ARG553  GLY616  TRP617  ASP618  TYR619  PRO620  LYS621  CYS622 
 ASP623  PHE694  ASN695  SER759  ASP760  ASP761  ALA762  ILE779  LEU786  VAL792 
 PHE793  MET794  SER795  GLU796  ALA797  LYS798  CYS799  TRP800  GLU811  SER814 

> <Gold.Protein.RotatedAtoms>
  152.4365  133.7371  159.6619 H   0  0  0  0  0  0  0  0  0  0  0  0  # atno 6907 bound_to 6896
  150.8250  133.8177  159.3128 H   0  0  0  0  0  0  0  0  0  0  0  0  # atno 6908 bound_to 6896
  151.5848  135.1059  160.0077 H   0  0  0  0  0  0  0  0  0  0  0  0  # atno 6909 bound_to 6896
  145.4272  140.9554  143.2148 H   0  0  0  0  0  0  0  0  0  0  0  0  # atno 7974 bound_to 7965
  154.4027  140.1560  156.2809 H   0  0  0  0  0  0  0  0  0  0  0  0  # atno 8008 bound_to 7997
  155.8870  140.3441  155.5907 H   0  0  0  0  0  0  0  0  0  0  0  0  # atno 8009 bound_to 7997
  155.7602  140.0816  157.2150 H   0  0  0  0  0  0  0  0  0  0  0  0  # atno 8010 bound_to 7997
  140.7287  143.4496  151.0536 H   0  0  0  0  0  0  0  0  0  0  0  0  # atno 10167 bound_to 10162
  156.1730  130.4149  149.9619 H   0  0  0  0  0  0  0  0  0  0  0  0  # atno 10718 bound_to 10713
  154.0206  135.2906  155.3381 H   0  0  0  0  0  0  0  0  0  0  0  0  # atno 10763 bound_to 10752
  154.7048  135.5174  153.8582 H   0  0  0  0  0  0  0  0  0  0  0  0  # atno 10764 bound_to 10752
  153.0683  135.6638  154.0429 H   0  0  0  0  0  0  0  0  0  0  0  0  # atno 10765 bound_to 10752
  140.6831  133.9136  155.8568 H   0  0  0  0  0  0  0  0  0  0  0  0  # atno 11005 bound_to 11000
  144.8206  139.5798  143.6988 LP  0  0  0  0  0  0  0  0  0  0  0  0  # atno 17320 bound_to 7965
  146.2626  139.6445  142.9351 LP  0  0  0  0  0  0  0  0  0  0  0  0  # atno 17321 bound_to 7965
  139.8171  143.7871  152.3175 LP  0  0  0  0  0  0  0  0  0  0  0  0  # atno 17342 bound_to 10162
  139.7940  144.7399  150.9915 LP  0  0  0  0  0  0  0  0  0  0  0  0  # atno 17343 bound_to 10162
  156.7413  130.9080  151.3632 LP  0  0  0  0  0  0  0  0  0  0  0  0  # atno 17370 bound_to 10713
  157.6816  130.9145  150.0281 LP  0  0  0  0  0  0  0  0  0  0  0  0  # atno 17371 bound_to 10713
  141.0302  134.0767  157.4023 LP  0  0  0  0  0  0  0  0  0  0  0  0  # atno 17394 bound_to 11000
  139.8946  135.0136  156.6958 LP  0  0  0  0  0  0  0  0  0  0  0  0  # atno 17395 bound_to 11000

$$$$
