AV-unprocessed.smi:2703|AV-procd|sdf|10440|dock10
  -GOLD-   2272014483D 1   1.00000     0.00000
 Structure written by MMmdl.
 43 45  0  0  0  0  0  0  0  0  4 V2000
  152.0968  144.8261  160.2126 C   0  0  0  0  0  0  0  0  0  0  0  0
  151.6909  143.6166  159.3878 C   0  0  0  0  0  0  0  0  0  0  0  0
  150.6201  143.7505  158.4757 C   0  0  0  0  0  0  0  0  0  0  0  0
  150.2709  142.6259  157.7376 C   0  0  0  0  0  0  0  0  0  0  0  0
  149.2752  142.4363  156.7773 N   0  3  0  0  0  0  0  0  0  0  0  0
  149.3156  141.1515  156.3285 C   0  0  0  0  0  0  0  0  0  0  0  0
  150.3241  140.5178  156.9860 N   0  0  0  0  0  0  0  0  0  0  0  0
  150.7853  139.1264  156.8736 C   0  0  0  0  0  0  0  0  0  0  0  0
  151.6337  138.8784  155.6109 C   0  0  2  0  0  0  0  0  0  0  0  0
  151.1590  139.6796  154.5456 O   0  0  0  0  0  0  0  0  0  0  0  0
  151.6087  137.4010  155.1864 C   0  0  0  0  0  0  0  0  0  0  0  0
  149.9232  136.7235  155.1546 S   0  0  0  0  0  0  0  0  0  0  0  0
  150.0390  134.9530  155.0535 C   0  0  0  0  0  0  0  0  0  0  0  0
  149.1881  134.1908  154.2225 C   0  0  0  0  0  0  0  0  0  0  0  0
  149.3231  132.7946  154.1812 C   0  0  0  0  0  0  0  0  0  0  0  0
  150.3078  132.1855  154.9727 C   0  0  0  0  0  0  0  0  0  0  0  0
  151.1334  132.9841  155.7867 C   0  0  0  0  0  0  0  0  0  0  0  0
  151.0010  134.3457  155.8271 N   0  3  0  0  0  0  0  0  0  0  0  0
  151.7801  135.0311  156.5894 O   0  5  0  0  0  0  0  0  0  0  0  0
  150.9479  141.3985  157.8782 C   0  0  0  0  0  0  0  0  0  0  0  0
  152.0052  141.2500  158.7733 C   0  0  0  0  0  0  0  0  0  0  0  0
  152.3737  142.3816  159.5356 C   0  0  0  0  0  0  0  0  0  0  0  0
  153.5211  142.2475  160.5222 C   0  0  0  0  0  0  0  0  0  0  0  0
  151.4866  145.6970  159.9715 H   0  0  0  0  0  0  0  0  0  0  0  0
  153.1383  145.0874  160.0234 H   0  0  0  0  0  0  0  0  0  0  0  0
  151.9785  144.6205  161.2766 H   0  0  0  0  0  0  0  0  0  0  0  0
  150.0947  144.6872  158.3593 H   0  0  0  0  0  0  0  0  0  0  0  0
  148.6644  140.7139  155.5855 H   0  0  0  0  0  0  0  0  0  0  0  0
  151.3791  138.9162  157.7640 H   0  0  0  0  0  0  0  0  0  0  0  0
  149.9275  138.4550  156.9155 H   0  0  0  0  0  0  0  0  0  0  0  0
  152.6638  139.1723  155.8163 H   0  0  0  0  0  0  0  0  0  0  0  0
  150.2222  139.5746  154.4827 H   0  0  0  0  0  0  0  0  0  0  0  0
  152.0314  137.3007  154.1863 H   0  0  0  0  0  0  0  0  0  0  0  0
  152.2246  136.8029  155.8592 H   0  0  0  0  0  0  0  0  0  0  0  0
  148.4302  134.6601  153.6151 H   0  0  0  0  0  0  0  0  0  0  0  0
  148.6786  132.1989  153.5511 H   0  0  0  0  0  0  0  0  0  0  0  0
  150.4317  131.1127  154.9591 H   0  0  0  0  0  0  0  0  0  0  0  0
  151.9114  132.5864  156.4227 H   0  0  0  0  0  0  0  0  0  0  0  0
  152.5240  140.3105  158.8903 H   0  0  0  0  0  0  0  0  0  0  0  0
  153.9338  141.2382  160.5199 H   0  0  0  0  0  0  0  0  0  0  0  0
  153.1829  142.4661  161.5353 H   0  0  0  0  0  0  0  0  0  0  0  0
  154.3267  142.9370  160.2687 H   0  0  0  0  0  0  0  0  0  0  0  0
  148.6140  143.1298  156.4518 H   0  0  0  0  0  0  0  0  0  0  0  0
  1  2  1  0  0  0  0
  1 24  1  0  0  0  0
  1 25  1  0  0  0  0
  1 26  1  0  0  0  0
  2 22  1  0  0  0  0
  2  3  2  0  0  0  0
  3  4  1  0  0  0  0
  3 27  1  0  0  0  0
  4 20  2  0  0  0  0
  4  5  1  0  0  0  0
  5  6  2  0  0  0  0
  5 43  1  0  0  0  0
  6  7  1  0  0  0  0
  6 28  1  0  0  0  0
  7  8  1  0  0  0  0
  7 20  1  0  0  0  0
  8  9  1  0  0  0  0
  8 29  1  0  0  0  0
  8 30  1  0  0  0  0
  9 10  1  0  0  0  0
  9 11  1  0  0  0  0
  9 31  1  0  0  0  0
 10 32  1  0  0  0  0
 11 12  1  0  0  0  0
 11 33  1  0  0  0  0
 11 34  1  0  0  0  0
 12 13  1  0  0  0  0
 13 18  1  0  0  0  0
 13 14  2  0  0  0  0
 14 15  1  0  0  0  0
 14 35  1  0  0  0  0
 15 16  2  0  0  0  0
 15 36  1  0  0  0  0
 16 17  1  0  0  0  0
 16 37  1  0  0  0  0
 17 18  2  0  0  0  0
 17 38  1  0  0  0  0
 18 19  1  0  0  0  0
 20 21  1  0  0  0  0
 21 22  2  0  0  0  0
 21 39  1  0  0  0  0
 22 23  1  0  0  0  0
 23 40  1  0  0  0  0
 23 41  1  0  0  0  0
 23 42  1  0  0  0  0
M  CHG  1   5   1
M  CHG  1  18   1
M  CHG  1  19  -1
M  END
> <s_m_source_file>
AV-unprocessed.smi

> <i_m_source_file_index>
2703

> <i_lp_mmshare_version>
43012

> <i_f3d_flags>
0

> <s_epik_input>
W0NIM11jKFtjSF0xKWMoW0NIM10pW2NIXWMoYzEyKW4oW2NIXW4yKVtDSDJdW0NASF0oW09IXSlbQ0gyXVNjM1tjSF1bY0hdW2NIXVtjSF1bbitdM1tPLV0=

> <s_epik_cmdline>
J2VwaWtfcHl0aG9uJywgJy1waCcsICc3LjAnLCAnLXRuJywgJzgnLCAnLW1hJywgJzIwMCcsICctbWV0YWxfYmluZGluZycsICctaW1hZScsICc8aW5maWxlLm1hZT4nLCAnLW9tYWUnLCAnPG91dGZpbGUubWFlPic=

> <r_epik_Ionization_Penalty>
1.07182

> <r_epik_Ionization_Penalty_Charging>
1.07181

> <r_epik_Ionization_Penalty_Neutral>
2.88913e-06

> <r_epik_State_Penalty>
1.12646

> <r_epik_Charging_Adjusted_Penalty>
2.19828

> <i_epik_Tot_Q>
1

> <i_epik_Tot_abs_Q>
3

> <r_epik_Metal_State_Penalty>
5.12345

> <b_epik_Metal_Only>
0

> <s_lp_Force_Field>
OPLS_2005

> <r_lp_Energy>
22.2033

> <b_lp_Chiralities_Consistent>
1

> <s_lp_Variant>
AV-unprocessed.smi:2703-3

> <Gold.Version>
5.8.1

> <Gold.Id.Protein>
6NUR|6NUR_protein|mol2

> <Gold.PLP.Fitness>
51.1538

> <Gold.PLP.PLP>
-45.0603

> <Gold.PLP.part.hbond>
-3.0000

> <Gold.PLP.part.metal>
0.0000

> <Gold.PLP.part.buried>
-5.5745

> <Gold.PLP.part.nonpolar>
-35.7812

> <Gold.PLP.part.repulsive>
0.0094

> <Gold.PLP.ligand.clash>
1.4272

> <Gold.PLP.ligand.torsion>
0.8901

> <Gold.PLP.Chemscore.Hbond>
3.0935

> <Gold.PLP.Chemscore.CHOScore>
0.0000

> <Gold.PLP.Chemscore.Metal>
0.0000

> <Gold.Chemscore.Hbonds>
donor molecule, donor type, donor heavy atom, donor atom, acceptor molecule, acceptor atom, score
      L1  H     5    43       P1  8028  1.25
      P1  H  7989  7998       L1    10  1.00
      P1  H 10752 10764       L1    19  0.80

> <Gold.PLP.Chemscore.Internal.Correction>
0.0205

> <Gold.Rescore>
     Score         DG    S(hbond)    S(metal)    S(lipo)     H(rot)  DE(clash)    DE(int)     intcor
     18.55     -22.31       2.45        0.00     124.80       2.33       0.01       3.75       ----

> <Gold.Chemscore.Fitness>
18.5519

> <Gold.Chemscore.DG>
-22.3057

> <Gold.Chemscore.ZeroCoef>
-5.4800

> <Gold.Chemscore.Hbond>
2.4499

> <Gold.Chemscore.Metal>
0.0000

> <Gold.Chemscore.Lipo>
124.7968

> <Gold.Chemscore.Internal_Hbond>
0.0000

> <Gold.Chemscore.DEClash>
0.0086

> <Gold.Chemscore.DEInternal>
3.7453

> <Gold.Chemscore.Rot>
2.3274

> <Gold.Chemscore.Internal.Correction>
   9.000000E+99

> <Gold.Chemscore.Hbonds>
donor molecule, donor type, donor heavy atom, donor atom, acceptor molecule, acceptor atom, score
      L1  H     5    43       P1  8028  0.55
      P1  H  7989  7998       L1    10  0.70
      P1  H 10752 10764       L1    19  0.17

> <Gold.Chemscore.Hbond.Weighted>
-8.1827

> <Gold.Chemscore.Metal.Weighted>
-0.0000

> <Gold.Chemscore.Lipo.Weighted>
-14.6012

> <Gold.Chemscore.Internal_Hbond.Weighted>
0.0000

> <Gold.Chemscore.DEClash.Weighted>
0.0086

> <Gold.Chemscore.DEInternal.Weighted>
3.7453

> <Gold.Chemscore.Rot.Weighted>
5.9583

> <Gold.Chemscore.Internal.Correction.Weighted>
   9.000000E+99

> <Gold.Protein.RotatedTorsions>
[ 6907 6896 6895 6894 ] final  -19.96 input  -60.11 | X-H torsion
[ 7974 7965 7964 7962 ] final -117.31 input  175.53 | X-H torsion
[ 8008 7997 7996 7995 ] final  115.74 input   59.86 | X-H torsion
[ 10167 10162 10161 10158 ] final   41.16 input  -65.29 | X-H torsion
[ 10718 10713 10712 10709 ] final   79.54 input   66.30 | X-H torsion
[ 10763 10752 10751 10750 ] final  -12.70 input  -60.55 | X-H torsion
[ 11005 11000 10999 10996 ] final   28.66 input  -57.11 | X-H torsion

> <Gold.Protein.ActiveResidues>
 VAL166  LYS551  ARG553  GLY616  TRP617  ASP618  TYR619  PRO620  LYS621  CYS622 
 ASP623  PHE694  ASN695  SER759  ASP760  ASP761  ALA762  ILE779  LEU786  VAL792 
 PHE793  MET794  SER795  GLU796  ALA797  LYS798  CYS799  TRP800  GLU811  SER814 

> <Gold.Protein.RotatedAtoms>
  151.2552  135.0635  159.9076 H   0  0  0  0  0  0  0  0  0  0  0  0  # atno 6907 bound_to 6896
  152.5374  134.0289  159.8026 H   0  0  0  0  0  0  0  0  0  0  0  0  # atno 6908 bound_to 6896
  151.0504  133.5580  159.2674 H   0  0  0  0  0  0  0  0  0  0  0  0  # atno 6909 bound_to 6896
  145.0867  140.8462  143.4007 H   0  0  0  0  0  0  0  0  0  0  0  0  # atno 7974 bound_to 7965
  156.2399  140.2932  156.0415 H   0  0  0  0  0  0  0  0  0  0  0  0  # atno 8008 bound_to 7997
  155.1982  140.0409  157.2930 H   0  0  0  0  0  0  0  0  0  0  0  0  # atno 8009 bound_to 7997
  154.6148  140.2461  155.7630 H   0  0  0  0  0  0  0  0  0  0  0  0  # atno 8010 bound_to 7997
  140.3670  144.2154  150.6135 H   0  0  0  0  0  0  0  0  0  0  0  0  # atno 10167 bound_to 10162
  157.6780  130.9919  150.1948 H   0  0  0  0  0  0  0  0  0  0  0  0  # atno 10718 bound_to 10713
  153.5024  135.7017  153.5825 H   0  0  0  0  0  0  0  0  0  0  0  0  # atno 10763 bound_to 10752
  153.3950  135.3886  155.1949 H   0  0  0  0  0  0  0  0  0  0  0  0  # atno 10764 bound_to 10752
  154.8709  135.3867  154.4496 H   0  0  0  0  0  0  0  0  0  0  0  0  # atno 10765 bound_to 10752
  140.3132  134.2626  155.7730 H   0  0  0  0  0  0  0  0  0  0  0  0  # atno 11005 bound_to 11000
  145.1114  139.2755  143.5635 LP  0  0  0  0  0  0  0  0  0  0  0  0  # atno 17320 bound_to 7965
  146.3531  140.0711  142.8623 LP  0  0  0  0  0  0  0  0  0  0  0  0  # atno 17321 bound_to 7965
  140.5071  143.2301  151.8592 LP  0  0  0  0  0  0  0  0  0  0  0  0  # atno 17342 bound_to 10162
  139.4808  144.4993  151.9082 LP  0  0  0  0  0  0  0  0  0  0  0  0  # atno 17343 bound_to 10162
  156.2652  130.3715  149.8089 LP  0  0  0  0  0  0  0  0  0  0  0  0  # atno 17370 bound_to 10713
  156.5822  130.8471  151.3386 LP  0  0  0  0  0  0  0  0  0  0  0  0  # atno 17371 bound_to 10713
  141.2103  133.7722  156.9938 LP  0  0  0  0  0  0  0  0  0  0  0  0  # atno 17394 bound_to 11000
  140.1006  134.9537  157.1917 LP  0  0  0  0  0  0  0  0  0  0  0  0  # atno 17395 bound_to 11000

$$$$
