AV-unprocessed.smi:1518|AV-procd|sdf|6126|dock3
  -GOLD-   22720 6263D 1   1.00000     0.00000
 Structure written by MMmdl.
 46 48  0  0  0  0  0  0  0  0  2 V2000
  153.8494  142.0244  161.9570 C   0  0  0  0  0  0  0  0  0  0  0  0
  154.0055  141.7045  160.4711 C   0  0  0  0  0  0  0  0  0  0  0  0
  155.0218  141.1194  160.0981 O   0  0  0  0  0  0  0  0  0  0  0  0
  152.9110  142.1212  159.5476 C   0  0  0  0  0  0  0  0  0  0  0  0
  152.4994  143.4730  159.5316 C   0  0  0  0  0  0  0  0  0  0  0  0
  151.4685  143.8941  158.6727 C   0  0  0  0  0  0  0  0  0  0  0  0
  150.8400  142.9693  157.8202 C   0  0  0  0  0  0  0  0  0  0  0  0
  151.2322  141.6165  157.8136 C   0  0  0  0  0  0  0  0  0  0  0  0
  150.5646  140.7810  156.9438 O   0  0  0  0  0  0  0  0  0  0  0  0
  150.0567  141.3279  155.7338 C   0  0  0  0  0  0  0  0  0  0  0  0
  150.1012  140.2456  154.6458 C   0  0  2  0  0  0  0  0  0  0  0  0
  149.8277  140.8495  153.3974 O   0  0  0  0  0  0  0  0  0  0  0  0
  149.1019  139.1022  154.9142 C   0  0  0  0  0  0  0  0  0  0  0  0
  147.6993  139.5305  154.7933 N   0  0  0  0  0  0  0  0  0  0  0  0
  146.8312  139.3929  153.7499 C   0  0  0  0  0  0  0  0  0  0  0  0
  147.1079  138.7458  152.4329 C   0  0  0  0  0  0  0  0  0  0  0  0
  146.0120  138.8378  151.5501 O   0  0  0  0  0  0  0  0  0  0  0  0
  145.6471  139.9474  154.1335 N   0  3  0  0  0  0  0  0  0  0  0  0
  145.7577  140.4468  155.4317 C   0  0  0  0  0  0  0  0  0  0  0  0
  144.8277  141.0933  156.2402 C   0  0  0  0  0  0  0  0  0  0  0  0
  145.2645  141.4777  157.5247 C   0  0  0  0  0  0  0  0  0  0  0  0
  146.5797  141.2168  157.9609 C   0  0  0  0  0  0  0  0  0  0  0  0
  147.5136  140.5603  157.1324 C   0  0  0  0  0  0  0  0  0  0  0  0
  147.0739  140.1825  155.8635 C   0  0  0  0  0  0  0  0  0  0  0  0
  152.2708  141.1987  158.6846 C   0  0  0  0  0  0  0  0  0  0  0  0
  152.9545  141.5492  162.3593 H   0  0  0  0  0  0  0  0  0  0  0  0
  153.7753  143.1011  162.1104 H   0  0  0  0  0  0  0  0  0  0  0  0
  154.7100  141.6596  162.5180 H   0  0  0  0  0  0  0  0  0  0  0  0
  152.9688  144.2012  160.1776 H   0  0  0  0  0  0  0  0  0  0  0  0
  151.1592  144.9289  158.6678 H   0  0  0  0  0  0  0  0  0  0  0  0
  150.0495  143.3020  157.1635 H   0  0  0  0  0  0  0  0  0  0  0  0
  149.0328  141.6820  155.8661 H   0  0  0  0  0  0  0  0  0  0  0  0
  150.6746  142.1766  155.4347 H   0  0  0  0  0  0  0  0  0  0  0  0
  151.1127  139.8415  154.5935 H   0  0  0  0  0  0  0  0  0  0  0  0
  149.6033  140.1723  152.7781 H   0  0  0  0  0  0  0  0  0  0  0  0
  149.2522  138.2995  154.1913 H   0  0  0  0  0  0  0  0  0  0  0  0
  149.2631  138.6551  155.8951 H   0  0  0  0  0  0  0  0  0  0  0  0
  147.9765  139.2167  151.9720 H   0  0  0  0  0  0  0  0  0  0  0  0
  147.3567  137.6956  152.5845 H   0  0  0  0  0  0  0  0  0  0  0  0
  145.3902  139.4545  151.9059 H   0  0  0  0  0  0  0  0  0  0  0  0
  143.8199  141.2950  155.9078 H   0  0  0  0  0  0  0  0  0  0  0  0
  144.5775  141.9834  158.1878 H   0  0  0  0  0  0  0  0  0  0  0  0
  146.8793  141.5272  158.9516 H   0  0  0  0  0  0  0  0  0  0  0  0
  148.5183  140.3698  157.4782 H   0  0  0  0  0  0  0  0  0  0  0  0
  152.5792  140.1656  158.6936 H   0  0  0  0  0  0  0  0  0  0  0  0
  144.8225  139.9765  153.5477 H   0  0  0  0  0  0  0  0  0  0  0  0
  1  2  1  0  0  0  0
  1 26  1  0  0  0  0
  1 27  1  0  0  0  0
  1 28  1  0  0  0  0
  2  3  2  0  0  0  0
  2  4  1  0  0  0  0
  4 25  1  0  0  0  0
  4  5  2  0  0  0  0
  5  6  1  0  0  0  0
  5 29  1  0  0  0  0
  6  7  2  0  0  0  0
  6 30  1  0  0  0  0
  7  8  1  0  0  0  0
  7 31  1  0  0  0  0
  8  9  1  0  0  0  0
  8 25  2  0  0  0  0
  9 10  1  0  0  0  0
 10 11  1  0  0  0  0
 10 32  1  0  0  0  0
 10 33  1  0  0  0  0
 11 12  1  0  0  0  0
 11 13  1  0  0  0  0
 11 34  1  0  0  0  0
 12 35  1  0  0  0  0
 13 14  1  0  0  0  0
 13 36  1  0  0  0  0
 13 37  1  0  0  0  0
 14 24  1  0  0  0  0
 14 15  1  0  0  0  0
 15 16  1  0  0  0  0
 15 18  2  0  0  0  0
 16 17  1  0  0  0  0
 16 38  1  0  0  0  0
 16 39  1  0  0  0  0
 17 40  1  0  0  0  0
 18 19  1  0  0  0  0
 18 46  1  0  0  0  0
 19 24  2  0  0  0  0
 19 20  1  0  0  0  0
 20 21  2  0  0  0  0
 20 41  1  0  0  0  0
 21 22  1  0  0  0  0
 21 42  1  0  0  0  0
 22 23  2  0  0  0  0
 22 43  1  0  0  0  0
 23 24  1  0  0  0  0
 23 44  1  0  0  0  0
 25 45  1  0  0  0  0
M  CHG  1  18   1
M  END
> <s_m_source_file>
AV-unprocessed.smi

> <i_m_source_file_index>
1518

> <i_lp_mmshare_version>
43012

> <i_f3d_flags>
0

> <s_epik_input>
W0NIM11DKD1PKWMxW2NIXVtjSF1bY0hdYyhbY0hdMSlPW0NIMl1bQ0BIXShbT0hdKVtDSDJdbihjKG4yKVtDSDJdW09IXSljKGMyMylbY0hdW2NIXVtjSF1bY0hdMw==

> <s_epik_cmdline>
J2VwaWtfcHl0aG9uJywgJy1waCcsICc3LjAnLCAnLXRuJywgJzgnLCAnLW1hJywgJzIwMCcsICctbWV0YWxfYmluZGluZycsICctaW1hZScsICc8aW5maWxlLm1hZT4nLCAnLW9tYWUnLCAnPG91dGZpbGUubWFlPic=

> <r_lp_tautomer_probability>
0.99995

> <r_epik_Ionization_Penalty>
1.40416

> <r_epik_Ionization_Penalty_Charging>
1.4033

> <r_epik_Ionization_Penalty_Neutral>
0.000858184

> <r_epik_State_Penalty>
1.48564

> <r_epik_Charging_Adjusted_Penalty>
2.88894

> <i_epik_Tot_Q>
1

> <i_epik_Tot_abs_Q>
1

> <r_epik_Metal_State_Penalty>
5.52809

> <b_epik_Metal_Only>
0

> <s_lp_Force_Field>
OPLS_2005

> <r_lp_Energy>
23.9778

> <b_lp_Chiralities_Consistent>
1

> <s_lp_Variant>
AV-unprocessed.smi:1518-3

> <Gold.Version>
5.8.1

> <Gold.Id.Protein>
6NUR|6NUR_protein|mol2

> <Gold.PLP.Fitness>
55.6166

> <Gold.PLP.PLP>
-45.2193

> <Gold.PLP.part.hbond>
-5.4328

> <Gold.PLP.part.metal>
0.0000

> <Gold.PLP.part.buried>
-4.2222

> <Gold.PLP.part.nonpolar>
-35.0059

> <Gold.PLP.part.repulsive>
0.0276

> <Gold.PLP.ligand.clash>
0.0000

> <Gold.PLP.ligand.torsion>
1.9680

> <Gold.PLP.Chemscore.Hbond>
4.7232

> <Gold.PLP.Chemscore.CHOScore>
0.0000

> <Gold.PLP.Chemscore.Metal>
0.0000

> <Gold.Chemscore.Hbonds>
donor molecule, donor type, donor heavy atom, donor atom, acceptor molecule, acceptor atom, score
      L1  H    12    35       P1  7957  0.70
      L1  H    17    40       P1 10175  0.94
      L1  H    18    46       P1 10175  2.00
      P1  H  8011  8017       L1    12  1.00

> <Gold.PLP.Chemscore.Internal.Correction>
0.1636

> <Gold.Rescore>
     Score         DG    S(hbond)    S(metal)    S(lipo)     H(rot)  DE(clash)    DE(int)     intcor
     16.73     -18.88       3.02        0.00     101.38       3.34       0.20       1.95       ----

> <Gold.Chemscore.Fitness>
16.7347

> <Gold.Chemscore.DG>
-18.8834

> <Gold.Chemscore.ZeroCoef>
-5.4800

> <Gold.Chemscore.Hbond>
3.0207

> <Gold.Chemscore.Metal>
0.0000

> <Gold.Chemscore.Lipo>
101.3803

> <Gold.Chemscore.Internal_Hbond>
0.0000

> <Gold.Chemscore.DEClash>
0.2008

> <Gold.Chemscore.DEInternal>
1.9480

> <Gold.Chemscore.Rot>
3.3387

> <Gold.Chemscore.Internal.Correction>
   9.000000E+99

> <Gold.Chemscore.Hbonds>
donor molecule, donor type, donor heavy atom, donor atom, acceptor molecule, acceptor atom, score
      L1  H    12    35       P1  7957  0.69
      L1  H    17    40       P1 10175  0.83
      L1  H    18    46       P1 10175  0.99
      P1  H  8011  8017       L1    12  0.34

> <Gold.Chemscore.Hbond.Weighted>
-10.0891

> <Gold.Chemscore.Metal.Weighted>
-0.0000

> <Gold.Chemscore.Lipo.Weighted>
-11.8615

> <Gold.Chemscore.Internal_Hbond.Weighted>
0.0000

> <Gold.Chemscore.DEClash.Weighted>
0.2008

> <Gold.Chemscore.DEInternal.Weighted>
1.9480

> <Gold.Chemscore.Rot.Weighted>
8.5471

> <Gold.Chemscore.Internal.Correction.Weighted>
   9.000000E+99

> <Gold.Protein.RotatedTorsions>
[ 6907 6896 6895 6894 ] final  132.49 input  -60.11 | X-H torsion
[ 7974 7965 7964 7962 ] final  -81.42 input  175.53 | X-H torsion
[ 8008 7997 7996 7995 ] final  -94.14 input   59.86 | X-H torsion
[ 10167 10162 10161 10158 ] final -100.48 input  -65.29 | X-H torsion
[ 10718 10713 10712 10709 ] final  112.03 input   66.30 | X-H torsion
[ 10763 10752 10751 10750 ] final -154.56 input  -60.55 | X-H torsion
[ 11005 11000 10999 10996 ] final -172.15 input  -57.11 | X-H torsion

> <Gold.Protein.ActiveResidues>
 VAL166  LYS551  ARG553  GLY616  TRP617  ASP618  TYR619  PRO620  LYS621  CYS622 
 ASP623  PHE694  ASN695  SER759  ASP760  ASP761  ALA762  ILE779  LEU786  VAL792 
 PHE793  MET794  SER795  GLU796  ALA797  LYS798  CYS799  TRP800  GLU811  SER814 

> <Gold.Protein.RotatedAtoms>
  152.3318  133.5967  159.5814 H   0  0  0  0  0  0  0  0  0  0  0  0  # atno 6907 bound_to 6896
  150.7428  133.9856  159.3599 H   0  0  0  0  0  0  0  0  0  0  0  0  # atno 6908 bound_to 6896
  151.7729  135.0782  160.0413 H   0  0  0  0  0  0  0  0  0  0  0  0  # atno 6909 bound_to 6896
  145.5469  140.9502  143.1520 H   0  0  0  0  0  0  0  0  0  0  0  0  # atno 7974 bound_to 7965
  154.7446  140.0492  157.0841 H   0  0  0  0  0  0  0  0  0  0  0  0  # atno 8008 bound_to 7997
  155.0134  140.3138  155.4801 H   0  0  0  0  0  0  0  0  0  0  0  0  # atno 8009 bound_to 7997
  156.2872  140.2180  156.5249 H   0  0  0  0  0  0  0  0  0  0  0  0  # atno 8010 bound_to 7997
  140.2514  143.3469  152.0711 H   0  0  0  0  0  0  0  0  0  0  0  0  # atno 10167 bound_to 10162
  157.6414  131.0961  150.6835 H   0  0  0  0  0  0  0  0  0  0  0  0  # atno 10718 bound_to 10713
  154.7850  135.3187  154.7907 H   0  0  0  0  0  0  0  0  0  0  0  0  # atno 10763 bound_to 10752
  153.8609  135.6853  153.4787 H   0  0  0  0  0  0  0  0  0  0  0  0  # atno 10764 bound_to 10752
  153.1498  135.4704  154.9559 H   0  0  0  0  0  0  0  0  0  0  0  0  # atno 10765 bound_to 10752
  140.5003  134.5900  157.4985 H   0  0  0  0  0  0  0  0  0  0  0  0  # atno 11005 bound_to 11000
  144.7548  139.7101  143.7258 LP  0  0  0  0  0  0  0  0  0  0  0  0  # atno 17320 bound_to 7965
  146.1943  139.5200  142.9785 LP  0  0  0  0  0  0  0  0  0  0  0  0  # atno 17321 bound_to 7965
  139.5045  144.6776  151.6089 LP  0  0  0  0  0  0  0  0  0  0  0  0  # atno 17342 bound_to 10162
  140.6037  143.9563  150.6404 LP  0  0  0  0  0  0  0  0  0  0  0  0  # atno 17343 bound_to 10162
  156.7158  130.4665  149.5535 LP  0  0  0  0  0  0  0  0  0  0  0  0  # atno 17370 bound_to 10713
  156.1699  130.6430  151.0824 LP  0  0  0  0  0  0  0  0  0  0  0  0  # atno 17371 bound_to 10713
  139.9717  134.7281  156.0028 LP  0  0  0  0  0  0  0  0  0  0  0  0  # atno 17394 bound_to 11000
  141.1439  133.6559  156.3810 LP  0  0  0  0  0  0  0  0  0  0  0  0  # atno 17395 bound_to 11000

$$$$
