AV-unprocessed.smi:1006|AV-procd|sdf|4390|dock5
  -GOLD-   22720 2323D 1   1.00000     0.00000
 Structure written by MMmdl.
 45 47  0  0  0  0  0  0  0  0  1 V2000
  146.8806  136.7125  162.5901 C   0  0  0  0  0  0  0  0  0  0  0  0
  147.5560  136.2008  161.3354 C   0  0  0  0  0  0  0  0  0  0  0  0
  147.1435  135.0014  160.7162 C   0  0  0  0  0  0  0  0  0  0  0  0
  147.8413  134.6310  159.5477 C   0  0  0  0  0  0  0  0  0  0  0  0
  147.5123  133.4650  158.8615 N   0  0  0  0  0  0  0  0  0  0  0  0
  148.8454  135.3837  159.0493 N   0  0  0  0  0  0  0  0  0  0  0  0
  149.1482  136.4956  159.7234 C   0  0  0  0  0  0  0  0  0  0  0  0
  150.4602  137.4791  159.0246 S   0  0  0  0  0  0  0  0  0  0  0  0
  149.8841  137.7186  157.3154 C   0  0  0  0  0  0  0  0  0  0  0  0
  151.0509  137.8950  156.3306 C   0  0  2  0  0  0  0  0  0  0  0  0
  151.6565  136.6394  156.0859 O   0  0  0  0  0  0  0  0  0  0  0  0
  152.1092  138.8800  156.8620 C   0  0  0  0  0  0  0  0  0  0  0  0
  151.6105  140.2414  156.9314 N   0  0  0  0  0  0  0  0  0  0  0  0
  150.8305  140.8731  156.0331 C   0  0  0  0  0  0  0  0  0  0  0  0
  150.4892  142.1305  156.3010 N   0  0  0  0  0  0  0  0  0  0  0  0
  151.1210  142.3382  157.5154 C   0  0  0  0  0  0  0  0  0  0  0  0
  151.1583  143.4786  158.3475 C   0  0  0  0  0  0  0  0  0  0  0  0
  151.8788  143.4656  159.5633 C   0  0  0  0  0  0  0  0  0  0  0  0
  151.8919  144.7143  160.4275 C   0  0  0  0  0  0  0  0  0  0  0  0
  152.5765  142.2977  159.9638 C   0  0  0  0  0  0  0  0  0  0  0  0
  153.3575  142.2602  161.2655 C   0  0  0  0  0  0  0  0  0  0  0  0
  152.5496  141.1499  159.1443 C   0  0  0  0  0  0  0  0  0  0  0  0
  151.8301  141.1757  157.9368 C   0  0  0  0  0  0  0  0  0  0  0  0
  148.5626  136.9512  160.8351 N   0  0  0  0  0  0  0  0  0  0  0  0
  146.4487  135.8897  163.1604 H   0  0  0  0  0  0  0  0  0  0  0  0
  146.0812  137.4064  162.3293 H   0  0  0  0  0  0  0  0  0  0  0  0
  147.5926  137.2324  163.2320 H   0  0  0  0  0  0  0  0  0  0  0  0
  146.3369  134.4033  161.1145 H   0  0  0  0  0  0  0  0  0  0  0  0
  146.7715  132.8560  159.1775 H   0  0  0  0  0  0  0  0  0  0  0  0
  148.0153  133.1853  158.0318 H   0  0  0  0  0  0  0  0  0  0  0  0
  149.2953  136.8482  157.0248 H   0  0  0  0  0  0  0  0  0  0  0  0
  149.2198  138.5829  157.2794 H   0  0  0  0  0  0  0  0  0  0  0  0
  150.6598  138.2708  155.3839 H   0  0  0  0  0  0  0  0  0  0  0  0
  151.6005  136.1188  156.8726 H   0  0  0  0  0  0  0  0  0  0  0  0
  152.4275  138.5859  157.8629 H   0  0  0  0  0  0  0  0  0  0  0  0
  153.0017  138.8635  156.2347 H   0  0  0  0  0  0  0  0  0  0  0  0
  150.4922  140.3812  155.1327 H   0  0  0  0  0  0  0  0  0  0  0  0
  150.6263  144.3678  158.0425 H   0  0  0  0  0  0  0  0  0  0  0  0
  152.9131  145.0670  160.5740 H   0  0  0  0  0  0  0  0  0  0  0  0
  151.4527  144.5072  161.4037 H   0  0  0  0  0  0  0  0  0  0  0  0
  151.3217  145.5225  159.9687 H   0  0  0  0  0  0  0  0  0  0  0  0
  153.8041  141.2798  161.4331 H   0  0  0  0  0  0  0  0  0  0  0  0
  152.7039  142.4778  162.1106 H   0  0  0  0  0  0  0  0  0  0  0  0
  154.1612  142.9965  161.2495 H   0  0  0  0  0  0  0  0  0  0  0  0
  153.0758  140.2531  159.4365 H   0  0  0  0  0  0  0  0  0  0  0  0
  1  2  1  0  0  0  0
  1 25  1  0  0  0  0
  1 26  1  0  0  0  0
  1 27  1  0  0  0  0
  2 24  1  0  0  0  0
  2  3  2  0  0  0  0
  3  4  1  0  0  0  0
  3 28  1  0  0  0  0
  4  5  1  0  0  0  0
  4  6  2  0  0  0  0
  5 29  1  0  0  0  0
  5 30  1  0  0  0  0
  6  7  1  0  0  0  0
  7  8  1  0  0  0  0
  7 24  2  0  0  0  0
  8  9  1  0  0  0  0
  9 10  1  0  0  0  0
  9 31  1  0  0  0  0
  9 32  1  0  0  0  0
 10 11  1  0  0  0  0
 10 12  1  0  0  0  0
 10 33  1  0  0  0  0
 11 34  1  0  0  0  0
 12 13  1  0  0  0  0
 12 35  1  0  0  0  0
 12 36  1  0  0  0  0
 13 23  1  0  0  0  0
 13 14  1  0  0  0  0
 14 15  2  0  0  0  0
 14 37  1  0  0  0  0
 15 16  1  0  0  0  0
 16 23  2  0  0  0  0
 16 17  1  0  0  0  0
 17 18  2  0  0  0  0
 17 38  1  0  0  0  0
 18 19  1  0  0  0  0
 18 20  1  0  0  0  0
 19 39  1  0  0  0  0
 19 40  1  0  0  0  0
 19 41  1  0  0  0  0
 20 21  1  0  0  0  0
 20 22  2  0  0  0  0
 21 42  1  0  0  0  0
 21 43  1  0  0  0  0
 21 44  1  0  0  0  0
 22 23  1  0  0  0  0
 22 45  1  0  0  0  0
M  END
> <s_m_source_file>
AV-unprocessed.smi

> <i_m_source_file_index>
1006

> <i_lp_mmshare_version>
43012

> <i_f3d_flags>
0

> <s_epik_input>
W0NIM11jMVtjSF1jKFtOSDJdKW5jKG4xKVNbQ0gyXVtDQEhdKFtPSF0pW0NIMl1uKFtjSF1uMiljKGMyMylbY0hdYyhbQ0gzXSljKFtjSF0zKVtDSDNd

> <s_epik_cmdline>
J2VwaWtfcHl0aG9uJywgJy1waCcsICc3LjAnLCAnLXRuJywgJzgnLCAnLW1hJywgJzIwMCcsICctbWV0YWxfYmluZGluZycsICctaW1hZScsICc8aW5maWxlLm1hZT4nLCAnLW9tYWUnLCAnPG91dGZpbGUubWFlPic=

> <r_lp_tautomer_probability>
1

> <r_epik_Ionization_Penalty>
0.490208

> <r_epik_Ionization_Penalty_Charging>
0

> <r_epik_Ionization_Penalty_Neutral>
0.490208

> <r_epik_State_Penalty>
0.473203

> <r_epik_Charging_Adjusted_Penalty>
0.473203

> <i_epik_Tot_Q>
0

> <i_epik_Tot_abs_Q>
0

> <r_epik_Metal_State_Penalty>
0.354099

> <b_epik_Metal_Only>
0

> <s_lp_Force_Field>
OPLS_2005

> <r_lp_Energy>
3.13918

> <b_lp_Chiralities_Consistent>
1

> <s_lp_Variant>
AV-unprocessed.smi:1006-1

> <Gold.Version>
5.8.1

> <Gold.Id.Protein>
6NUR|6NUR_protein|mol2

> <Gold.PLP.Fitness>
54.9409

> <Gold.PLP.PLP>
-47.3132

> <Gold.PLP.part.hbond>
-3.8444

> <Gold.PLP.part.metal>
0.0000

> <Gold.PLP.part.buried>
-5.4932

> <Gold.PLP.part.nonpolar>
-39.1316

> <Gold.PLP.part.repulsive>
0.1518

> <Gold.PLP.ligand.clash>
0.0000

> <Gold.PLP.ligand.torsion>
0.6269

> <Gold.PLP.Chemscore.Hbond>
2.9459

> <Gold.PLP.Chemscore.CHOScore>
0.0000

> <Gold.PLP.Chemscore.Metal>
0.0000

> <Gold.Chemscore.Hbonds>
donor molecule, donor type, donor heavy atom, donor atom, acceptor molecule, acceptor atom, score
      P1  H  6896  6909       L1     6  0.56
      P1  H  6931  6943       L1    24  0.96
      P1  H 10752 10763       L1    11  0.57

> <Gold.PLP.Chemscore.Internal.Correction>
0.0437

> <Gold.Rescore>
     Score         DG    S(hbond)    S(metal)    S(lipo)     H(rot)  DE(clash)    DE(int)     intcor
     19.23     -20.00       2.33        0.00     119.40       2.82       0.09       0.68       ----

> <Gold.Chemscore.Fitness>
19.2263

> <Gold.Chemscore.DG>
-19.9967

> <Gold.Chemscore.ZeroCoef>
-5.4800

> <Gold.Chemscore.Hbond>
2.3258

> <Gold.Chemscore.Metal>
0.0000

> <Gold.Chemscore.Lipo>
119.4020

> <Gold.Chemscore.Internal_Hbond>
0.0000

> <Gold.Chemscore.DEClash>
0.0875

> <Gold.Chemscore.DEInternal>
0.6829

> <Gold.Chemscore.Rot>
2.8209

> <Gold.Chemscore.Internal.Correction>
   9.000000E+99

> <Gold.Chemscore.Hbonds>
donor molecule, donor type, donor heavy atom, donor atom, acceptor molecule, acceptor atom, score
      P1  H  6896  6909       L1     6  0.03
      P1  H  6931  6943       L1    24  0.81
      P1  H 10752 10763       L1    11  0.10

> <Gold.Chemscore.Hbond.Weighted>
-7.7681

> <Gold.Chemscore.Metal.Weighted>
-0.0000

> <Gold.Chemscore.Lipo.Weighted>
-13.9700

> <Gold.Chemscore.Internal_Hbond.Weighted>
0.0000

> <Gold.Chemscore.DEClash.Weighted>
0.0875

> <Gold.Chemscore.DEInternal.Weighted>
0.6829

> <Gold.Chemscore.Rot.Weighted>
7.2215

> <Gold.Chemscore.Internal.Correction.Weighted>
   9.000000E+99

> <Gold.Protein.RotatedTorsions>
[ 6907 6896 6895 6894 ] final   45.79 input  -60.11 | X-H torsion
[ 7974 7965 7964 7962 ] final -169.48 input  175.53 | X-H torsion
[ 8008 7997 7996 7995 ] final  145.33 input   59.86 | X-H torsion
[ 10167 10162 10161 10158 ] final   17.84 input  -65.29 | X-H torsion
[ 10718 10713 10712 10709 ] final  -11.56 input   66.30 | X-H torsion
[ 10763 10752 10751 10750 ] final   93.93 input  -60.55 | X-H torsion
[ 11005 11000 10999 10996 ] final  111.56 input  -57.11 | X-H torsion

> <Gold.Protein.ActiveResidues>
 VAL166  LYS551  ARG553  GLY616  TRP617  ASP618  TYR619  PRO620  LYS621  CYS622 
 ASP623  PHE694  ASN695  SER759  ASP760  ASP761  ALA762  ILE779  LEU786  VAL792 
 PHE793  MET794  SER795  GLU796  ALA797  LYS798  CYS799  TRP800  GLU811  SER814 

> <Gold.Protein.RotatedAtoms>
  152.2487  134.8154  160.0449 H   0  0  0  0  0  0  0  0  0  0  0  0  # atno 6907 bound_to 6896
  151.8842  133.3497  159.3785 H   0  0  0  0  0  0  0  0  0  0  0  0  # atno 6908 bound_to 6896
  150.7077  134.4914  159.5562 H   0  0  0  0  0  0  0  0  0  0  0  0  # atno 6909 bound_to 6896
  144.7185  140.2215  143.6315 H   0  0  0  0  0  0  0  0  0  0  0  0  # atno 7974 bound_to 7965
  156.2886  140.2212  156.5198 H   0  0  0  0  0  0  0  0  0  0  0  0  # atno 8008 bound_to 7997
  154.7538  140.0478  157.0938 H   0  0  0  0  0  0  0  0  0  0  0  0  # atno 8009 bound_to 7997
  155.0076  140.3109  155.4845 H   0  0  0  0  0  0  0  0  0  0  0  0  # atno 8010 bound_to 7997
  140.5697  143.9184  150.6703 H   0  0  0  0  0  0  0  0  0  0  0  0  # atno 10167 bound_to 10162
  156.6573  130.4972  149.6042 H   0  0  0  0  0  0  0  0  0  0  0  0  # atno 10718 bound_to 10713
  153.2359  135.4307  155.0646 H   0  0  0  0  0  0  0  0  0  0  0  0  # atno 10763 bound_to 10752
  154.8318  135.3391  154.6719 H   0  0  0  0  0  0  0  0  0  0  0  0  # atno 10764 bound_to 10752
  153.7145  135.7021  153.5085 H   0  0  0  0  0  0  0  0  0  0  0  0  # atno 10765 bound_to 10752
  139.8906  134.9510  156.6451 H   0  0  0  0  0  0  0  0  0  0  0  0  # atno 11005 bound_to 11000
  145.8496  139.2169  143.1779 LP  0  0  0  0  0  0  0  0  0  0  0  0  # atno 17320 bound_to 7965
  146.0272  140.8292  142.9894 LP  0  0  0  0  0  0  0  0  0  0  0  0  # atno 17321 bound_to 7965
  140.2656  143.3492  152.1283 LP  0  0  0  0  0  0  0  0  0  0  0  0  # atno 17342 bound_to 10162
  139.5111  144.6895  151.5798 LP  0  0  0  0  0  0  0  0  0  0  0  0  # atno 17343 bound_to 10162
  156.2038  130.6636  151.1196 LP  0  0  0  0  0  0  0  0  0  0  0  0  # atno 17370 bound_to 10713
  157.7121  131.0729  150.6462 LP  0  0  0  0  0  0  0  0  0  0  0  0  # atno 17371 bound_to 10713
  140.7563  133.8855  155.8385 LP  0  0  0  0  0  0  0  0  0  0  0  0  # atno 17394 bound_to 11000
  140.9959  134.1216  157.4364 LP  0  0  0  0  0  0  0  0  0  0  0  0  # atno 17395 bound_to 11000

$$$$
