AV-unprocessed.smi:160|AV-procd|sdf|1367|dock1
  -GOLD-   2262019 83D 1   1.00000     0.00000
 Structure written by MMmdl.
 28 29  0  0  0  0  0  0  0  0  2 V2000
  155.6366  138.8618  158.4806 N   0  5  0  0  0  0  0  0  0  0  0  0
  154.4513  139.0314  159.1069 C   0  0  0  0  0  0  0  0  0  0  0  0
  154.2816  139.1779  160.3170 O   0  0  0  0  0  0  0  0  0  0  0  0
  153.2528  139.0332  158.1881 C   0  0  0  0  0  0  0  0  0  0  0  0
  151.9832  139.0755  158.6949 N   0  0  0  0  0  0  0  0  0  0  0  0
  151.3008  139.0548  157.5578 C   0  0  0  0  0  0  0  0  0  0  0  0
  152.0619  139.0149  156.4600 N   0  0  0  0  0  0  0  0  0  0  0  0
  151.6572  138.9567  155.0155 C   0  0  2  0  0  0  0  0  0  0  0  0
  150.9662  140.1324  154.7259 O   0  0  0  0  0  0  0  0  0  0  0  0
  149.5630  139.8948  154.5941 C   0  0  2  0  0  0  0  0  0  0  0  0
  148.7787  140.8734  155.4844 C   0  0  0  0  0  0  0  0  0  0  0  0
  148.8280  142.1753  154.9401 O   0  0  0  0  0  0  0  0  0  0  0  0
  149.3433  138.4189  154.9676 C   0  0  1  0  0  0  0  0  0  0  0  0
  148.3647  137.8330  154.1323 O   0  0  0  0  0  0  0  0  0  0  0  0
  150.7039  137.7907  154.7084 C   0  0  2  0  0  0  0  0  0  0  0  0
  150.9129  136.6447  155.5140 O   0  0  0  0  0  0  0  0  0  0  0  0
  153.3582  138.9903  156.8568 N   0  0  0  0  0  0  0  0  0  0  0  0
  152.6019  138.9037  154.4735 H   0  0  0  0  0  0  0  0  0  0  0  0
  149.3063  140.0431  153.5432 H   0  0  0  0  0  0  0  0  0  0  0  0
  149.0550  138.3185  156.0151 H   0  0  0  0  0  0  0  0  0  0  0  0
  150.8195  137.5378  153.6532 H   0  0  0  0  0  0  0  0  0  0  0  0
  156.3996  138.4058  158.9950 H   0  0  0  0  0  0  0  0  0  0  0  0
  150.2214  139.0692  157.5249 H   0  0  0  0  0  0  0  0  0  0  0  0
  147.7294  140.5802  155.5296 H   0  0  0  0  0  0  0  0  0  0  0  0
  149.1569  140.8768  156.5067 H   0  0  0  0  0  0  0  0  0  0  0  0
  148.6990  142.7963  155.6405 H   0  0  0  0  0  0  0  0  0  0  0  0
  148.7988  137.2324  153.5457 H   0  0  0  0  0  0  0  0  0  0  0  0
  150.2891  136.6562  156.2233 H   0  0  0  0  0  0  0  0  0  0  0  0
  1  2  1  0  0  0  0
  1 22  1  0  0  0  0
  2  3  2  0  0  0  0
  2  4  1  0  0  0  0
  4 17  2  0  0  0  0
  4  5  1  0  0  0  0
  5  6  2  0  0  0  0
  6  7  1  0  0  0  0
  6 23  1  0  0  0  0
  7  8  1  0  0  0  0
  7 17  1  0  0  0  0
  8 18  1  0  0  0  0
  8 15  1  0  0  0  0
  8  9  1  0  0  0  0
  9 10  1  0  0  0  0
 10 19  1  0  0  0  0
 10 11  1  0  0  0  0
 10 13  1  0  0  0  0
 11 12  1  0  0  0  0
 11 24  1  0  0  0  0
 11 25  1  0  0  0  0
 12 26  1  0  0  0  0
 13 20  1  0  0  0  0
 13 14  1  0  0  0  0
 13 15  1  0  0  0  0
 14 27  1  0  0  0  0
 15 21  1  0  0  0  0
 15 16  1  0  0  0  0
 16 28  1  0  0  0  0
M  CHG  1   1  -1
M  END
> <s_m_source_file>
AV-unprocessed.smi

> <i_m_source_file_index>
160

> <i_lp_mmshare_version>
43012

> <i_f3d_flags>
0

> <s_epik_input>
W05IMl1DKD1PKWMxbltjSF1uKG4xKVtDQEBIXTJPW0NASF0oW0NIMl1bT0hdKVtDQEBIXShbT0hdKVtDQEhdMltPSF0=

> <s_epik_cmdline>
J2VwaWtfcHl0aG9uJywgJy1waCcsICc3LjAnLCAnLXRuJywgJzgnLCAnLW1hJywgJzIwMCcsICctbWV0YWxfYmluZGluZycsICctaW1hZScsICc8aW5maWxlLm1hZT4nLCAnLW9tYWUnLCAnPG91dGZpbGUubWFlPic=

> <r_lp_tautomer_probability>
1

> <r_epik_Ionization_Penalty>
6.6993

> <r_epik_Ionization_Penalty_Charging>
6.6993

> <r_epik_Ionization_Penalty_Neutral>
6.01698e-06

> <r_epik_State_Penalty>
6.69929

> <r_epik_Charging_Adjusted_Penalty>
13.3986

> <i_epik_Tot_Q>
-1

> <i_epik_Tot_abs_Q>
1

> <r_epik_Metal_State_Penalty>
2.62798

> <b_epik_Metal_Only>
1

> <s_epik_Chemistry_Notes>
This compound contains an acetal/aminal-like group ( X-CH(R)-Y where X, Y are N, S, or O) that may be acid/base labile, releasing an aldehyde.

> <s_lp_Force_Field>
OPLS_2005

> <r_lp_Energy>
43.4077

> <b_lp_Chiralities_Consistent>
1

> <s_lp_Variant>
AV-unprocessed.smi:160-25

> <Gold.Version>
5.8.1

> <Gold.Id.Protein>
6NUR|6NUR_protein|mol2

> <Gold.PLP.Fitness>
41.3606

> <Gold.PLP.PLP>
-24.3157

> <Gold.PLP.part.hbond>
-5.8945

> <Gold.PLP.part.metal>
0.0000

> <Gold.PLP.part.buried>
-4.0029

> <Gold.PLP.part.nonpolar>
-14.8678

> <Gold.PLP.part.repulsive>
0.0940

> <Gold.PLP.ligand.clash>
0.0000

> <Gold.PLP.ligand.torsion>
0.1095

> <Gold.PLP.Chemscore.Hbond>
5.7505

> <Gold.PLP.Chemscore.CHOScore>
0.0000

> <Gold.PLP.Chemscore.Metal>
0.0000

> <Gold.Chemscore.Hbonds>
donor molecule, donor type, donor heavy atom, donor atom, acceptor molecule, acceptor atom, score
      L1  H    12    26       P1  8028  0.61
      L1  H    14    27       P1  7948  1.00
      P1  H  7989  7998       L1     9  1.00
      P1  H  7997  8009       L1     1  2.00
      P1  H  7997  8010       L1    17  0.62

> <Gold.PLP.Chemscore.Internal.Correction>
0.0124

> <Gold.Rescore>
     Score         DG    S(hbond)    S(metal)    S(lipo)     H(rot)  DE(clash)    DE(int)     intcor
     12.54     -12.98       4.50        0.00      24.15       4.04       0.36       0.08       ----

> <Gold.Chemscore.Fitness>
12.5416

> <Gold.Chemscore.DG>
-12.9790

> <Gold.Chemscore.ZeroCoef>
-5.4800

> <Gold.Chemscore.Hbond>
4.4958

> <Gold.Chemscore.Metal>
0.0000

> <Gold.Chemscore.Lipo>
24.1547

> <Gold.Chemscore.Internal_Hbond>
0.0000

> <Gold.Chemscore.DEClash>
0.3559

> <Gold.Chemscore.DEInternal>
0.0814

> <Gold.Chemscore.Rot>
4.0403

> <Gold.Chemscore.Internal.Correction>
   9.000000E+99

> <Gold.Chemscore.Hbonds>
donor molecule, donor type, donor heavy atom, donor atom, acceptor molecule, acceptor atom, score
      L1  H    12    26       P1  8028  0.60
      L1  H    14    27       P1  7948  0.97
      P1  H  7989  7998       L1     9  0.66
      P1  H  7997  8009       L1     1  0.39
      P1  H  7997  8010       L1    17  0.54

> <Gold.Chemscore.Hbond.Weighted>
-15.0159

> <Gold.Chemscore.Metal.Weighted>
-0.0000

> <Gold.Chemscore.Lipo.Weighted>
-2.8261

> <Gold.Chemscore.Internal_Hbond.Weighted>
0.0000

> <Gold.Chemscore.DEClash.Weighted>
0.3559

> <Gold.Chemscore.DEInternal.Weighted>
0.0814

> <Gold.Chemscore.Rot.Weighted>
10.3431

> <Gold.Chemscore.Internal.Correction.Weighted>
   9.000000E+99

> <Gold.Protein.RotatedTorsions>
[ 6907 6896 6895 6894 ] final -102.31 input  -60.11 | X-H torsion
[ 7974 7965 7964 7962 ] final   94.19 input  175.53 | X-H torsion
[ 8008 7997 7996 7995 ] final   90.84 input   59.86 | X-H torsion
[ 10167 10162 10161 10158 ] final -131.59 input  -65.29 | X-H torsion
[ 10718 10713 10712 10709 ] final  -50.24 input   66.30 | X-H torsion
[ 10763 10752 10751 10750 ] final  105.51 input  -60.55 | X-H torsion
[ 11005 11000 10999 10996 ] final   56.44 input  -57.11 | X-H torsion

> <Gold.Protein.ActiveResidues>
 VAL166  LYS551  ARG553  GLY616  TRP617  ASP618  TYR619  PRO620  LYS621  CYS622 
 ASP623  PHE694  ASN695  SER759  ASP760  ASP761  ALA762  ILE779  LEU786  VAL792 
 PHE793  MET794  SER795  GLU796  ALA797  LYS798  CYS799  TRP800  GLU811  SER814 

> <Gold.Protein.RotatedAtoms>
  150.7191  134.0600  159.3827 H   0  0  0  0  0  0  0  0  0  0  0  0  # atno 6907 bound_to 6896
  151.8580  135.0532  160.0475 H   0  0  0  0  0  0  0  0  0  0  0  0  # atno 6908 bound_to 6896
  152.2739  133.5372  159.5493 H   0  0  0  0  0  0  0  0  0  0  0  0  # atno 6909 bound_to 6896
  145.4688  139.2283  143.2946 H   0  0  0  0  0  0  0  0  0  0  0  0  # atno 7974 bound_to 7965
  156.0167  140.3344  155.6996 H   0  0  0  0  0  0  0  0  0  0  0  0  # atno 8008 bound_to 7997
  155.6081  140.0662  157.2732 H   0  0  0  0  0  0  0  0  0  0  0  0  # atno 8009 bound_to 7997
  154.4301  140.1798  156.1231 H   0  0  0  0  0  0  0  0  0  0  0  0  # atno 8010 bound_to 7997
  139.9174  143.6423  152.2561 H   0  0  0  0  0  0  0  0  0  0  0  0  # atno 10167 bound_to 10162
  156.1819  130.4150  149.9494 H   0  0  0  0  0  0  0  0  0  0  0  0  # atno 10718 bound_to 10713
  153.3804  135.3907  155.1853 H   0  0  0  0  0  0  0  0  0  0  0  0  # atno 10763 bound_to 10752
  154.8707  135.3724  154.4864 H   0  0  0  0  0  0  0  0  0  0  0  0  # atno 10764 bound_to 10752
  153.5341  135.7085  153.5730 H   0  0  0  0  0  0  0  0  0  0  0  0  # atno 10765 bound_to 10752
  140.0529  134.5712  155.9243 H   0  0  0  0  0  0  0  0  0  0  0  0  # atno 11005 bound_to 11000
  146.2408  140.5465  142.8935 LP  0  0  0  0  0  0  0  0  0  0  0  0  # atno 17320 bound_to 7965
  144.7957  140.6119  143.6511 LP  0  0  0  0  0  0  0  0  0  0  0  0  # atno 17321 bound_to 7965
  139.6891  144.7648  151.1471 LP  0  0  0  0  0  0  0  0  0  0  0  0  # atno 17342 bound_to 10162
  140.7671  143.5615  150.9094 LP  0  0  0  0  0  0  0  0  0  0  0  0  # atno 17343 bound_to 10162
  156.7262  130.9026  151.3622 LP  0  0  0  0  0  0  0  0  0  0  0  0  # atno 17370 bound_to 10713
  157.6874  130.9199  150.0422 LP  0  0  0  0  0  0  0  0  0  0  0  0  # atno 17371 bound_to 10713
  141.1938  133.6580  156.5567 LP  0  0  0  0  0  0  0  0  0  0  0  0  # atno 17394 bound_to 11000
  140.3890  134.7457  157.4709 LP  0  0  0  0  0  0  0  0  0  0  0  0  # atno 17395 bound_to 11000

$$$$
