AV-unprocessed.smi:190|AV-procd|sdf|1492|dock1
  -GOLD-   2262019313D 1   1.00000     0.00000
 Structure written by MMmdl.
 54 58  0  0  0  0  0  0  0  0  1 V2000
  151.2034  135.6548  155.1432 O   0  0  0  0  0  0  0  0  0  0  0  0
  150.3333  136.2172  156.1056 C   0  0  0  0  0  0  0  0  0  0  0  0
  150.7157  137.6781  156.4649 C   0  0  0  0  0  0  0  0  0  0  0  0
  149.5970  138.3588  157.3169 C   0  0  0  0  0  0  0  0  0  0  0  0
  149.0088  137.5168  158.3500 N   0  0  0  0  0  0  0  0  0  0  0  0
  149.6651  136.9306  159.4097 C   0  0  0  0  0  0  0  0  0  0  0  0
  148.9173  136.2142  160.2032 N   0  0  0  0  0  0  0  0  0  0  0  0
  147.6536  136.2860  159.6321 C   0  0  0  0  0  0  0  0  0  0  0  0
  146.3859  135.7370  159.9648 C   0  0  0  0  0  0  0  0  0  0  0  0
  146.2051  134.9342  161.0424 N   0  0  0  0  0  0  0  0  0  0  0  0
  146.9556  133.6826  161.0750 C   0  0  0  0  0  0  0  0  0  0  0  0
  146.9172  133.1996  162.5317 C   0  0  0  0  0  0  0  0  0  0  0  0
  146.0891  134.2533  163.2722 C   0  0  0  0  0  0  0  0  0  0  0  0
  146.2187  135.5045  162.3946 C   0  0  2  0  0  0  0  0  0  0  0  0
  145.1404  136.5488  162.6664 C   0  0  0  0  0  0  0  0  0  0  0  0
  145.8172  137.8921  162.3776 C   0  0  0  0  0  0  0  0  0  0  0  0
  147.2131  137.6307  162.2691 O   0  0  0  0  0  0  0  0  0  0  0  0
  147.4922  136.3085  162.7094 C   0  0  0  0  0  0  0  0  0  0  0  0
  145.3348  136.0448  159.1597 N   0  0  0  0  0  0  0  0  0  0  0  0
  145.5160  136.8185  158.0860 C   0  0  0  0  0  0  0  0  0  0  0  0
  146.6406  137.3870  157.6479 N   0  0  0  0  0  0  0  0  0  0  0  0
  147.6939  137.0980  158.4640 C   0  0  0  0  0  0  0  0  0  0  0  0
  152.0687  137.6364  157.2196 C   0  0  0  0  0  0  0  0  0  0  0  0
  152.7173  139.0255  157.3609 C   0  0  0  0  0  0  0  0  0  0  0  0
  152.8933  139.6089  156.0769 O   0  0  0  0  0  0  0  0  0  0  0  0
  151.6624  139.8229  155.3988 C   0  0  0  0  0  0  0  0  0  0  0  0
  150.9528  138.4776  155.1587 C   0  0  0  0  0  0  0  0  0  0  0  0
  150.7870  134.8918  154.7720 H   0  0  0  0  0  0  0  0  0  0  0  0
  149.3108  136.1578  155.7328 H   0  0  0  0  0  0  0  0  0  0  0  0
  150.3669  135.5839  156.9929 H   0  0  0  0  0  0  0  0  0  0  0  0
  149.9671  139.2615  157.8007 H   0  0  0  0  0  0  0  0  0  0  0  0
  148.7879  138.6965  156.6683 H   0  0  0  0  0  0  0  0  0  0  0  0
  150.7238  137.0583  159.5825 H   0  0  0  0  0  0  0  0  0  0  0  0
  146.4807  132.9583  160.4126 H   0  0  0  0  0  0  0  0  0  0  0  0
  147.9882  133.8079  160.7474 H   0  0  0  0  0  0  0  0  0  0  0  0
  146.4848  132.2032  162.6265 H   0  0  0  0  0  0  0  0  0  0  0  0
  147.9301  133.1634  162.9349 H   0  0  0  0  0  0  0  0  0  0  0  0
  145.0467  133.9317  163.3023 H   0  0  0  0  0  0  0  0  0  0  0  0
  146.4151  134.4034  164.3020 H   0  0  0  0  0  0  0  0  0  0  0  0
  144.2227  136.3926  162.1014 H   0  0  0  0  0  0  0  0  0  0  0  0
  144.8675  136.5225  163.7223 H   0  0  0  0  0  0  0  0  0  0  0  0
  145.4614  138.3257  161.4428 H   0  0  0  0  0  0  0  0  0  0  0  0
  145.6248  138.6106  163.1748 H   0  0  0  0  0  0  0  0  0  0  0  0
  147.6638  136.3495  163.7859 H   0  0  0  0  0  0  0  0  0  0  0  0
  148.3957  135.9081  162.2487 H   0  0  0  0  0  0  0  0  0  0  0  0
  144.6336  137.0097  157.4937 H   0  0  0  0  0  0  0  0  0  0  0  0
  151.9576  137.1721  158.1992 H   0  0  0  0  0  0  0  0  0  0  0  0
  152.7673  137.0003  156.6742 H   0  0  0  0  0  0  0  0  0  0  0  0
  152.1258  139.6872  157.9933 H   0  0  0  0  0  0  0  0  0  0  0  0
  153.6934  138.9308  157.8368 H   0  0  0  0  0  0  0  0  0  0  0  0
  151.0355  140.5143  155.9627 H   0  0  0  0  0  0  0  0  0  0  0  0
  151.8730  140.3051  154.4441 H   0  0  0  0  0  0  0  0  0  0  0  0
  151.5692  137.8892  154.4777 H   0  0  0  0  0  0  0  0  0  0  0  0
  150.0101  138.6489  154.6379 H   0  0  0  0  0  0  0  0  0  0  0  0
  1  2  1  0  0  0  0
  1 28  1  0  0  0  0
  2  3  1  0  0  0  0
  2 29  1  0  0  0  0
  2 30  1  0  0  0  0
  3 27  1  0  0  0  0
  3  4  1  0  0  0  0
  3 23  1  0  0  0  0
  4  5  1  0  0  0  0
  4 31  1  0  0  0  0
  4 32  1  0  0  0  0
  5 22  1  0  0  0  0
  5  6  1  0  0  0  0
  6  7  2  0  0  0  0
  6 33  1  0  0  0  0
  7  8  1  0  0  0  0
  8 22  2  0  0  0  0
  8  9  1  0  0  0  0
  9 10  1  0  0  0  0
  9 19  2  0  0  0  0
 10 14  1  0  0  0  0
 10 11  1  0  0  0  0
 11 12  1  0  0  0  0
 11 34  1  0  0  0  0
 11 35  1  0  0  0  0
 12 13  1  0  0  0  0
 12 36  1  0  0  0  0
 12 37  1  0  0  0  0
 13 14  1  0  0  0  0
 13 38  1  0  0  0  0
 13 39  1  0  0  0  0
 14 18  1  0  0  0  0
 14 15  1  0  0  0  0
 15 16  1  0  0  0  0
 15 40  1  0  0  0  0
 15 41  1  0  0  0  0
 16 17  1  0  0  0  0
 16 42  1  0  0  0  0
 16 43  1  0  0  0  0
 17 18  1  0  0  0  0
 18 44  1  0  0  0  0
 18 45  1  0  0  0  0
 19 20  1  0  0  0  0
 20 21  2  0  0  0  0
 20 46  1  0  0  0  0
 21 22  1  0  0  0  0
 23 24  1  0  0  0  0
 23 47  1  0  0  0  0
 23 48  1  0  0  0  0
 24 25  1  0  0  0  0
 24 49  1  0  0  0  0
 24 50  1  0  0  0  0
 25 26  1  0  0  0  0
 26 27  1  0  0  0  0
 26 51  1  0  0  0  0
 26 52  1  0  0  0  0
 27 53  1  0  0  0  0
 27 54  1  0  0  0  0
M  END
> <s_m_source_file>
AV-unprocessed.smi

> <i_m_source_file_index>
190

> <i_lp_mmshare_version>
43012

> <i_f3d_flags>
0

> <s_epik_input>
W0NIMl0xW0NIMl1PW0NIMl1bQ0gyXUMxKFtDSDJdW09IXSlbQ0gyXW4oW2NIXW4yKWMoYzIzKW5bY0hdbmMzTihbQ0gyXVtDSDJdW0NIMl00KVtDQF00NVtDSDJdW0NIMl1PW0NIMl01

> <s_epik_cmdline>
J2VwaWtfcHl0aG9uJywgJy1waCcsICc3LjAnLCAnLXRuJywgJzgnLCAnLW1hJywgJzIwMCcsICctbWV0YWxfYmluZGluZycsICctaW1hZScsICc8aW5maWxlLm1hZT4nLCAnLW9tYWUnLCAnPG91dGZpbGUubWFlPic=

> <r_lp_tautomer_probability>
1

> <r_epik_Ionization_Penalty>
0.00423054

> <r_epik_Ionization_Penalty_Charging>
0

> <r_epik_Ionization_Penalty_Neutral>
0.00423054

> <r_epik_State_Penalty>
0.00298851

> <r_epik_Charging_Adjusted_Penalty>
0.00298851

> <i_epik_Tot_Q>
0

> <i_epik_Tot_abs_Q>
0

> <r_epik_Metal_State_Penalty>
-0

> <b_epik_Metal_Only>
0

> <s_lp_Force_Field>
OPLS_2005

> <r_lp_Energy>
69.5451

> <b_lp_Chiralities_Consistent>
1

> <s_lp_Variant>
AV-unprocessed.smi:190-2

> <Gold.Version>
5.8.1

> <Gold.Id.Protein>
6NUR|6NUR_protein|mol2

> <Gold.PLP.Fitness>
39.7504

> <Gold.PLP.PLP>
-32.2848

> <Gold.PLP.part.hbond>
-4.0000

> <Gold.PLP.part.metal>
0.0000

> <Gold.PLP.part.buried>
-2.0645

> <Gold.PLP.part.nonpolar>
-25.9518

> <Gold.PLP.part.repulsive>
0.0000

> <Gold.PLP.ligand.clash>
0.0000

> <Gold.PLP.ligand.torsion>
0.4724

> <Gold.PLP.Chemscore.Hbond>
2.7237

> <Gold.PLP.Chemscore.CHOScore>
0.0000

> <Gold.PLP.Chemscore.Metal>
0.0000

> <Gold.Chemscore.Hbonds>
donor molecule, donor type, donor heavy atom, donor atom, acceptor molecule, acceptor atom, score
      P1  H  6931  6943       L1    17  0.59
      P1  H  6934  6947       L1    17  0.11
      P1  H  7997  8010       L1    25  0.75
      P1  H 10752 10763       L1     1  1.00

> <Gold.PLP.Chemscore.Internal.Correction>
0.2392

> <Gold.Rescore>
     Score         DG    S(hbond)    S(metal)    S(lipo)     H(rot)  DE(clash)    DE(int)     intcor
     15.72     -16.53       2.43        0.00      76.91       2.37       0.01       0.80       ----

> <Gold.Chemscore.Fitness>
15.7211

> <Gold.Chemscore.DG>
-16.5326

> <Gold.Chemscore.ZeroCoef>
-5.4800

> <Gold.Chemscore.Hbond>
2.4289

> <Gold.Chemscore.Metal>
0.0000

> <Gold.Chemscore.Lipo>
76.9126

> <Gold.Chemscore.Internal_Hbond>
0.0000

> <Gold.Chemscore.DEClash>
0.0149

> <Gold.Chemscore.DEInternal>
0.7967

> <Gold.Chemscore.Rot>
2.3666

> <Gold.Chemscore.Internal.Correction>
   9.000000E+99

> <Gold.Chemscore.Hbonds>
donor molecule, donor type, donor heavy atom, donor atom, acceptor molecule, acceptor atom, score
      P1  H  6931  6943       L1    17  0.15
      P1  H  7997  8010       L1    25  0.09
      P1  H 10752 10763       L1     1  0.55

> <Gold.Chemscore.Hbond.Weighted>
-8.1125

> <Gold.Chemscore.Metal.Weighted>
-0.0000

> <Gold.Chemscore.Lipo.Weighted>
-8.9988

> <Gold.Chemscore.Internal_Hbond.Weighted>
0.0000

> <Gold.Chemscore.DEClash.Weighted>
0.0149

> <Gold.Chemscore.DEInternal.Weighted>
0.7967

> <Gold.Chemscore.Rot.Weighted>
6.0586

> <Gold.Chemscore.Internal.Correction.Weighted>
   9.000000E+99

> <Gold.Protein.RotatedTorsions>
[ 6907 6896 6895 6894 ] final -172.93 input  -60.11 | X-H torsion
[ 7974 7965 7964 7962 ] final  176.15 input  175.53 | X-H torsion
[ 8008 7997 7996 7995 ] final   75.92 input   59.86 | X-H torsion
[ 10167 10162 10161 10158 ] final   59.57 input  -65.29 | X-H torsion
[ 10718 10713 10712 10709 ] final    0.44 input   66.30 | X-H torsion
[ 10763 10752 10751 10750 ] final   67.94 input  -60.55 | X-H torsion
[ 11005 11000 10999 10996 ] final  -83.26 input  -57.11 | X-H torsion

> <Gold.Protein.ActiveResidues>
 VAL166  LYS551  ARG553  GLY616  TRP617  ASP618  TYR619  PRO620  LYS621  CYS622 
 ASP623  PHE694  ASN695  SER759  ASP760  ASP761  ALA762  ILE779  LEU786  VAL792 
 PHE793  MET794  SER795  GLU796  ALA797  LYS798  CYS799  TRP800  GLU811  SER814 

> <Gold.Protein.RotatedAtoms>
  151.5480  133.3422  159.2947 H   0  0  0  0  0  0  0  0  0  0  0  0  # atno 6907 bound_to 6896
  150.8495  134.7818  159.7009 H   0  0  0  0  0  0  0  0  0  0  0  0  # atno 6908 bound_to 6896
  152.4545  134.5330  159.9868 H   0  0  0  0  0  0  0  0  0  0  0  0  # atno 6909 bound_to 6896
  144.7189  140.0054  143.6440 H   0  0  0  0  0  0  0  0  0  0  0  0  # atno 7974 bound_to 7965
  155.8199  140.3470  155.5508 H   0  0  0  0  0  0  0  0  0  0  0  0  # atno 8008 bound_to 7997
  155.8353  140.0933  157.1788 H   0  0  0  0  0  0  0  0  0  0  0  0  # atno 8009 bound_to 7997
  154.4004  140.1404  156.3650 H   0  0  0  0  0  0  0  0  0  0  0  0  # atno 8010 bound_to 7997
  140.1750  144.4239  150.6643 H   0  0  0  0  0  0  0  0  0  0  0  0  # atno 10167 bound_to 10162
  156.8334  130.5496  149.5684 H   0  0  0  0  0  0  0  0  0  0  0  0  # atno 10718 bound_to 10713
  153.0211  135.5265  154.7057 H   0  0  0  0  0  0  0  0  0  0  0  0  # atno 10763 bound_to 10752
  154.6154  135.2883  155.0388 H   0  0  0  0  0  0  0  0  0  0  0  0  # atno 10764 bound_to 10752
  154.1395  135.6580  153.4991 H   0  0  0  0  0  0  0  0  0  0  0  0  # atno 10765 bound_to 10752
  141.1659  133.7285  156.8694 H   0  0  0  0  0  0  0  0  0  0  0  0  # atno 11005 bound_to 11000
  146.0301  139.3328  143.0760 LP  0  0  0  0  0  0  0  0  0  0  0  0  # atno 17320 bound_to 7965
  145.8462  140.9553  143.0773 LP  0  0  0  0  0  0  0  0  0  0  0  0  # atno 17321 bound_to 7965
  140.6557  143.2237  151.5974 LP  0  0  0  0  0  0  0  0  0  0  0  0  # atno 17342 bound_to 10162
  139.5321  144.2886  152.1171 LP  0  0  0  0  0  0  0  0  0  0  0  0  # atno 17343 bound_to 10162
  156.0921  130.5904  150.9751 LP  0  0  0  0  0  0  0  0  0  0  0  0  # atno 17370 bound_to 10713
  157.6395  131.0912  150.8281 LP  0  0  0  0  0  0  0  0  0  0  0  0  # atno 17371 bound_to 10713
  140.1792  134.9045  157.2928 LP  0  0  0  0  0  0  0  0  0  0  0  0  # atno 17394 bound_to 11000
  140.2414  134.3791  155.7479 LP  0  0  0  0  0  0  0  0  0  0  0  0  # atno 17395 bound_to 11000

$$$$
