AV-unprocessed.smi:3033|AV-procd|sdf|11575|dock4
  -GOLD-   2272016543D 1   1.00000     0.00000
 Structure written by MMmdl.
 32 33  0  0  0  0  0  0  0  0  2 V2000
  153.2252  142.8449  162.8031 C   0  0  0  0  0  0  0  0  0  0  0  0
  153.3785  142.1470  161.5757 O   0  0  0  0  0  0  0  0  0  0  0  0
  152.7513  142.6553  160.4585 C   0  0  0  0  0  0  0  0  0  0  0  0
  152.4877  144.0325  160.2505 C   0  0  0  0  0  0  0  0  0  0  0  0
  151.8474  144.4645  159.0732 C   0  0  0  0  0  0  0  0  0  0  0  0
  151.4620  143.5314  158.0936 C   0  0  0  0  0  0  0  0  0  0  0  0
  151.7108  142.1576  158.2887 C   0  0  0  0  0  0  0  0  0  0  0  0
  151.3029  141.1544  157.2204 C   0  0  2  0  0  0  0  0  0  0  0  0
  152.3855  140.3194  156.8580 O   0  0  0  0  0  0  0  0  0  0  0  0
  150.7873  141.8729  155.9552 C   0  0  0  0  0  0  0  0  0  0  0  0
  149.6666  141.1554  155.3309 N   0  0  0  0  0  0  0  0  0  0  0  0
  148.3732  141.6585  155.5490 C   0  0  0  0  0  0  0  0  0  0  0  0
  147.2808  141.0775  155.0161 C   0  0  0  0  0  0  0  0  0  0  0  0
  145.7023  141.7203  155.2991 Cl  0  0  0  0  0  0  0  0  0  0  0  0
  147.4716  139.8880  154.1882 C   0  0  0  0  0  0  0  0  0  0  0  0
  146.4954  139.3303  153.6888 O   0  0  0  0  0  0  0  0  0  0  0  0
  148.7489  139.4423  154.0030 N   0  5  0  0  0  0  0  0  0  0  0  0
  149.8472  140.0486  154.5505 C   0  0  0  0  0  0  0  0  0  0  0  0
  150.9913  139.6336  154.3613 O   0  0  0  0  0  0  0  0  0  0  0  0
  152.3558  141.7307  159.4701 C   0  0  0  0  0  0  0  0  0  0  0  0
  153.7928  142.3338  163.5807 H   0  0  0  0  0  0  0  0  0  0  0  0
  152.1816  142.8710  163.1194 H   0  0  0  0  0  0  0  0  0  0  0  0
  153.6070  143.8643  162.7326 H   0  0  0  0  0  0  0  0  0  0  0  0
  152.7689  144.7787  160.9780 H   0  0  0  0  0  0  0  0  0  0  0  0
  151.6534  145.5158  158.9203 H   0  0  0  0  0  0  0  0  0  0  0  0
  150.9777  143.8746  157.1908 H   0  0  0  0  0  0  0  0  0  0  0  0
  150.5212  140.5158  157.6342 H   0  0  0  0  0  0  0  0  0  0  0  0
  152.0361  139.5274  156.4793 H   0  0  0  0  0  0  0  0  0  0  0  0
  150.4450  142.8753  156.2195 H   0  0  0  0  0  0  0  0  0  0  0  0
  151.6009  142.0381  155.2471 H   0  0  0  0  0  0  0  0  0  0  0  0
  148.3258  142.5430  156.1674 H   0  0  0  0  0  0  0  0  0  0  0  0
  152.5566  140.6798  159.6203 H   0  0  0  0  0  0  0  0  0  0  0  0
  1  2  1  0  0  0  0
  1 21  1  0  0  0  0
  1 22  1  0  0  0  0
  1 23  1  0  0  0  0
  2  3  1  0  0  0  0
  3 20  1  0  0  0  0
  3  4  2  0  0  0  0
  4  5  1  0  0  0  0
  4 24  1  0  0  0  0
  5  6  2  0  0  0  0
  5 25  1  0  0  0  0
  6  7  1  0  0  0  0
  6 26  1  0  0  0  0
  7  8  1  0  0  0  0
  7 20  2  0  0  0  0
  8  9  1  0  0  0  0
  8 10  1  0  0  0  0
  8 27  1  0  0  0  0
  9 28  1  0  0  0  0
 10 11  1  0  0  0  0
 10 29  1  0  0  0  0
 10 30  1  0  0  0  0
 11 18  1  0  0  0  0
 11 12  1  0  0  0  0
 12 13  2  0  0  0  0
 12 31  1  0  0  0  0
 13 14  1  0  0  0  0
 13 15  1  0  0  0  0
 15 16  2  0  0  0  0
 15 17  1  0  0  0  0
 17 18  1  0  0  0  0
 18 19  2  0  0  0  0
 20 32  1  0  0  0  0
M  CHG  1  17  -1
M  END
> <s_m_source_file>
AV-unprocessed.smi

> <i_m_source_file_index>
3033

> <i_lp_mmshare_version>
43012

> <i_f3d_flags>
0

> <s_epik_input>
W0NIM11PYzFbY0hdW2NIXVtjSF1jKFtjSF0xKVtDQEhdKFtPSF0pW0NIMl1uMltjSF1jKENsKWMoPU8pW25IXWMyPU8=

> <s_epik_cmdline>
J2VwaWtfcHl0aG9uJywgJy1waCcsICc3LjAnLCAnLXRuJywgJzgnLCAnLW1hJywgJzIwMCcsICctbWV0YWxfYmluZGluZycsICctaW1hZScsICc8aW5maWxlLm1hZT4nLCAnLW9tYWUnLCAnPG91dGZpbGUubWFlPic=

> <r_lp_tautomer_probability>
1

> <r_epik_Ionization_Penalty>
1.7979

> <r_epik_Ionization_Penalty_Charging>
3.23819e-08

> <r_epik_Ionization_Penalty_Neutral>
1.7979

> <r_epik_State_Penalty>
1.91135

> <r_epik_Charging_Adjusted_Penalty>
1.91135

> <i_epik_Tot_Q>
-1

> <i_epik_Tot_abs_Q>
1

> <r_epik_Metal_State_Penalty>
0.014155

> <b_epik_Metal_Only>
0

> <s_lp_Force_Field>
OPLS_2005

> <r_lp_Energy>
24.094

> <b_lp_Chiralities_Consistent>
1

> <s_lp_Variant>
AV-unprocessed.smi:3033-3

> <Gold.Version>
5.8.1

> <Gold.Id.Protein>
6NUR|6NUR_protein|mol2

> <Gold.PLP.Fitness>
47.8232

> <Gold.PLP.PLP>
-41.9746

> <Gold.PLP.part.hbond>
-2.0000

> <Gold.PLP.part.metal>
0.0000

> <Gold.PLP.part.buried>
-4.5294

> <Gold.PLP.part.nonpolar>
-35.9966

> <Gold.PLP.part.repulsive>
1.1905

> <Gold.PLP.ligand.clash>
0.0000

> <Gold.PLP.ligand.torsion>
1.2211

> <Gold.PLP.Chemscore.Hbond>
1.7600

> <Gold.PLP.Chemscore.CHOScore>
1.0000

> <Gold.PLP.Chemscore.Metal>
0.0000

> <Gold.Chemscore.Hbonds>
donor molecule, donor type, donor heavy atom, donor atom, acceptor molecule, acceptor atom, score
      P1  H  7989  7998       L1    19  1.00
      P1  H  7997  8010       L1     9  1.00
      L1  C    12    31       P1  8028  0.99

> <Gold.PLP.Chemscore.Internal.Correction>
0.0108

> <Gold.Rescore>
     Score         DG    S(hbond)    S(metal)    S(lipo)     H(rot)  DE(clash)    DE(int)     intcor
     14.43     -16.69       1.60        0.00     103.77       2.45       1.00       1.26       ----

> <Gold.Chemscore.Fitness>
14.4271

> <Gold.Chemscore.DG>
-16.6944

> <Gold.Chemscore.ZeroCoef>
-5.4800

> <Gold.Chemscore.Hbond>
1.5996

> <Gold.Chemscore.Metal>
0.0000

> <Gold.Chemscore.Lipo>
103.7728

> <Gold.Chemscore.Internal_Hbond>
0.0000

> <Gold.Chemscore.DEClash>
1.0044

> <Gold.Chemscore.DEInternal>
1.2629

> <Gold.Chemscore.Rot>
2.4491

> <Gold.Chemscore.Internal.Correction>
   9.000000E+99

> <Gold.Chemscore.Hbonds>
donor molecule, donor type, donor heavy atom, donor atom, acceptor molecule, acceptor atom, score
      P1  H  7989  7998       L1    19  0.30
      P1  H  7997  8010       L1     9  0.31

> <Gold.Chemscore.Hbond.Weighted>
-5.3427

> <Gold.Chemscore.Metal.Weighted>
-0.0000

> <Gold.Chemscore.Lipo.Weighted>
-12.1414

> <Gold.Chemscore.Internal_Hbond.Weighted>
0.0000

> <Gold.Chemscore.DEClash.Weighted>
1.0044

> <Gold.Chemscore.DEInternal.Weighted>
1.2629

> <Gold.Chemscore.Rot.Weighted>
6.2696

> <Gold.Chemscore.Internal.Correction.Weighted>
   9.000000E+99

> <Gold.Protein.RotatedTorsions>
[ 6907 6896 6895 6894 ] final  -72.96 input  -60.11 | X-H torsion
[ 7974 7965 7964 7962 ] final -127.50 input  175.53 | X-H torsion
[ 8008 7997 7996 7995 ] final   68.01 input   59.86 | X-H torsion
[ 10167 10162 10161 10158 ] final   11.09 input  -65.29 | X-H torsion
[ 10718 10713 10712 10709 ] final  170.68 input   66.30 | X-H torsion
[ 10763 10752 10751 10750 ] final -157.54 input  -60.55 | X-H torsion
[ 11005 11000 10999 10996 ] final  -28.60 input  -57.11 | X-H torsion

> <Gold.Protein.ActiveResidues>
 VAL166  LYS551  ARG553  GLY616  TRP617  ASP618  TYR619  PRO620  LYS621  CYS622 
 ASP623  PHE694  ASN695  SER759  ASP760  ASP761  ALA762  ILE779  LEU786  VAL792 
 PHE793  MET794  SER795  GLU796  ALA797  LYS798  CYS799  TRP800  GLU811  SER814 

> <Gold.Protein.RotatedAtoms>
  150.7149  134.5086  159.5596 H   0  0  0  0  0  0  0  0  0  0  0  0  # atno 6907 bound_to 6896
  152.2668  134.7973  160.0430 H   0  0  0  0  0  0  0  0  0  0  0  0  # atno 6908 bound_to 6896
  151.8667  133.3432  159.3758 H   0  0  0  0  0  0  0  0  0  0  0  0  # atno 6909 bound_to 6896
  144.9764  140.7597  143.4639 H   0  0  0  0  0  0  0  0  0  0  0  0  # atno 7974 bound_to 7965
  155.7017  140.3495  155.4936 H   0  0  0  0  0  0  0  0  0  0  0  0  # atno 8008 bound_to 7997
  155.9435  140.1106  157.1058 H   0  0  0  0  0  0  0  0  0  0  0  0  # atno 8009 bound_to 7997
  154.4107  140.1208  156.4944 H   0  0  0  0  0  0  0  0  0  0  0  0  # atno 8010 bound_to 7997
  140.6153  143.8320  150.7112 H   0  0  0  0  0  0  0  0  0  0  0  0  # atno 10167 bound_to 10162
  157.0046  131.0186  151.2821 H   0  0  0  0  0  0  0  0  0  0  0  0  # atno 10718 bound_to 10713
  154.7628  135.3122  154.8346 H   0  0  0  0  0  0  0  0  0  0  0  0  # atno 10763 bound_to 10752
  153.9102  135.6806  153.4755 H   0  0  0  0  0  0  0  0  0  0  0  0  # atno 10764 bound_to 10752
  153.1230  135.4814  154.9158 H   0  0  0  0  0  0  0  0  0  0  0  0  # atno 10765 bound_to 10752
  140.9223  133.7391  156.0818 H   0  0  0  0  0  0  0  0  0  0  0  0  # atno 11005 bound_to 11000
  145.2484  139.2042  143.4956 LP  0  0  0  0  0  0  0  0  0  0  0  0  # atno 17320 bound_to 7965
  146.3396  140.2392  142.8595 LP  0  0  0  0  0  0  0  0  0  0  0  0  # atno 17321 bound_to 7965
  140.1898  143.4046  152.1871 LP  0  0  0  0  0  0  0  0  0  0  0  0  # atno 17342 bound_to 10162
  139.5394  144.7241  151.4785 LP  0  0  0  0  0  0  0  0  0  0  0  0  # atno 17343 bound_to 10162
  157.5365  130.8092  149.7978 LP  0  0  0  0  0  0  0  0  0  0  0  0  # atno 17370 bound_to 10713
  156.0158  130.3814  150.2115 LP  0  0  0  0  0  0  0  0  0  0  0  0  # atno 17371 bound_to 10713
  140.7972  134.3550  157.5449 LP  0  0  0  0  0  0  0  0  0  0  0  0  # atno 17394 bound_to 11000
  139.8778  134.9176  156.3182 LP  0  0  0  0  0  0  0  0  0  0  0  0  # atno 17395 bound_to 11000

$$$$
