AV-unprocessed.smi:1492|AV-procd|sdf|6041|dock7
  -GOLD-   22720 6153D 1   1.00000     0.00000
 Structure written by MMmdl.
 52 53  0  0  0  0  0  0  0  0  1 V2000
  145.6823  131.9554  160.8917 C   0  0  0  0  0  0  0  0  0  0  0  0
  146.9334  132.3837  160.1034 C   0  0  0  0  0  0  0  0  0  0  0  0
  146.9593  133.8539  159.5772 C   0  0  2  0  0  0  0  0  0  0  0  0
  145.8186  134.0254  158.5390 C   0  0  0  0  0  0  0  0  0  0  0  0
  148.3007  134.0898  158.8109 C   0  0  0  0  0  0  0  0  0  0  0  0
  148.4227  133.2386  157.6300 N   0  0  0  0  0  0  0  0  0  0  0  0
  149.5642  132.8284  157.0588 C   0  0  0  0  0  0  0  0  0  0  0  0
  150.6773  133.2495  157.3718 O   0  0  0  0  0  0  0  0  0  0  0  0
  149.4217  131.7387  155.9959 C   0  0  0  0  0  0  0  0  0  0  0  0
  148.6083  132.1499  154.7681 C   0  0  0  0  0  0  0  0  0  0  0  0
  148.8423  133.2977  154.0827 C   0  0  0  0  0  0  0  0  0  0  0  0
  149.9091  134.3132  154.4532 C   0  0  0  0  0  0  0  0  0  0  0  0
  148.1044  133.6241  152.9588 N   0  0  0  0  0  0  0  0  0  0  0  0
  147.1185  132.7408  152.5517 C   0  0  0  0  0  0  0  0  0  0  0  0
  146.3782  133.1852  151.3094 C   0  0  0  0  0  0  0  0  0  0  0  0
  146.8194  131.6226  153.1390 N   0  0  0  0  0  0  0  0  0  0  0  0
  147.5415  131.2432  154.2815 C   0  0  0  0  0  0  0  0  0  0  0  0
  147.2942  130.1786  154.8462 O   0  0  0  0  0  0  0  0  0  0  0  0
  146.7973  134.8507  160.6774 N   0  0  0  0  0  0  0  0  0  0  0  0
  147.7825  134.7630  161.7613 C   0  0  0  0  0  0  0  0  0  0  0  0
  147.4472  135.7178  162.9195 C   0  0  0  0  0  0  0  0  0  0  0  0
  147.3562  137.0513  162.4329 O   0  0  0  0  0  0  0  0  0  0  0  0
  146.3732  137.1930  161.4145 C   0  0  0  0  0  0  0  0  0  0  0  0
  146.7002  136.2499  160.2446 C   0  0  0  0  0  0  0  0  0  0  0  0
  148.3142  134.4860  152.4763 H   0  0  0  0  0  0  0  0  0  0  0  0
  145.7777  130.9183  161.2137 H   0  0  0  0  0  0  0  0  0  0  0  0
  144.7762  132.0195  160.2903 H   0  0  0  0  0  0  0  0  0  0  0  0
  145.5390  132.5556  161.7899 H   0  0  0  0  0  0  0  0  0  0  0  0
  147.7938  132.2052  160.7475 H   0  0  0  0  0  0  0  0  0  0  0  0
  147.0404  131.6901  159.2697 H   0  0  0  0  0  0  0  0  0  0  0  0
  146.0365  133.5141  157.6015 H   0  0  0  0  0  0  0  0  0  0  0  0
  145.6541  135.0754  158.2955 H   0  0  0  0  0  0  0  0  0  0  0  0
  144.8721  133.6220  158.8993 H   0  0  0  0  0  0  0  0  0  0  0  0
  148.3771  135.1253  158.4793 H   0  0  0  0  0  0  0  0  0  0  0  0
  149.1617  133.9411  159.4637 H   0  0  0  0  0  0  0  0  0  0  0  0
  147.5638  132.8328  157.2874 H   0  0  0  0  0  0  0  0  0  0  0  0
  150.4168  131.3972  155.7091 H   0  0  0  0  0  0  0  0  0  0  0  0
  148.9499  130.8686  156.4534 H   0  0  0  0  0  0  0  0  0  0  0  0
  150.8950  133.8486  154.4600 H   0  0  0  0  0  0  0  0  0  0  0  0
  149.7155  134.7235  155.4444 H   0  0  0  0  0  0  0  0  0  0  0  0
  149.9368  135.1436  153.7465 H   0  0  0  0  0  0  0  0  0  0  0  0
  145.6721  132.4207  150.9823 H   0  0  0  0  0  0  0  0  0  0  0  0
  147.0784  133.3703  150.4943 H   0  0  0  0  0  0  0  0  0  0  0  0
  145.8224  134.1023  151.5063 H   0  0  0  0  0  0  0  0  0  0  0  0
  147.8274  133.7544  162.1683 H   0  0  0  0  0  0  0  0  0  0  0  0
  148.7788  135.0003  161.3886 H   0  0  0  0  0  0  0  0  0  0  0  0
  146.5084  135.4311  163.3941 H   0  0  0  0  0  0  0  0  0  0  0  0
  148.2206  135.6705  163.6861 H   0  0  0  0  0  0  0  0  0  0  0  0
  145.3842  136.9782  161.8198 H   0  0  0  0  0  0  0  0  0  0  0  0
  146.3601  138.2283  161.0741 H   0  0  0  0  0  0  0  0  0  0  0  0
  147.6383  136.5704  159.7918 H   0  0  0  0  0  0  0  0  0  0  0  0
  145.9266  136.3734  159.4890 H   0  0  0  0  0  0  0  0  0  0  0  0
  1  2  1  0  0  0  0
  1 26  1  0  0  0  0
  1 27  1  0  0  0  0
  1 28  1  0  0  0  0
  2  3  1  0  0  0  0
  2 29  1  0  0  0  0
  2 30  1  0  0  0  0
  3  4  1  0  0  0  0
  3  5  1  0  0  0  0
  3 19  1  0  0  0  0
  4 31  1  0  0  0  0
  4 32  1  0  0  0  0
  4 33  1  0  0  0  0
  5  6  1  0  0  0  0
  5 34  1  0  0  0  0
  5 35  1  0  0  0  0
  6  7  1  0  0  0  0
  6 36  1  0  0  0  0
  7  8  2  0  0  0  0
  7  9  1  0  0  0  0
  9 37  1  0  0  0  0
  9 38  1  0  0  0  0
  9 10  1  0  0  0  0
 10 17  1  0  0  0  0
 10 11  2  0  0  0  0
 11 12  1  0  0  0  0
 11 13  1  0  0  0  0
 12 39  1  0  0  0  0
 12 40  1  0  0  0  0
 12 41  1  0  0  0  0
 13 25  1  0  0  0  0
 13 14  1  0  0  0  0
 14 15  1  0  0  0  0
 14 16  2  0  0  0  0
 15 42  1  0  0  0  0
 15 43  1  0  0  0  0
 15 44  1  0  0  0  0
 16 17  1  0  0  0  0
 17 18  2  0  0  0  0
 19 24  1  0  0  0  0
 19 20  1  0  0  0  0
 20 21  1  0  0  0  0
 20 45  1  0  0  0  0
 20 46  1  0  0  0  0
 21 22  1  0  0  0  0
 21 47  1  0  0  0  0
 21 48  1  0  0  0  0
 22 23  1  0  0  0  0
 23 24  1  0  0  0  0
 23 49  1  0  0  0  0
 23 50  1  0  0  0  0
 24 51  1  0  0  0  0
 24 52  1  0  0  0  0
M  END
> <s_m_source_file>
AV-unprocessed.smi

> <i_m_source_file_index>
1492

> <i_lp_mmshare_version>
43012

> <i_f3d_flags>
0

> <s_epik_input>
W0NIMl0xW0NIMl1PW0NIMl1bQ0gyXU4xW0NAQF0oW0NIM10pKFtDSDJdW0NIM10pW0NIMl1bTkhdQyg9TylbQ0gyXWMyYyhbQ0gzXSluYyhbQ0gzXSlbbkhdYzI9Tw==

> <s_epik_cmdline>
J2VwaWtfcHl0aG9uJywgJy1waCcsICc3LjAnLCAnLXRuJywgJzgnLCAnLW1hJywgJzIwMCcsICctbWV0YWxfYmluZGluZycsICctaW1hZScsICc8aW5maWxlLm1hZT4nLCAnLW9tYWUnLCAnPG91dGZpbGUubWFlPic=

> <r_lp_tautomer_probability>
0.156392

> <r_epik_Ionization_Penalty>
0.342516

> <r_epik_Ionization_Penalty_Charging>
0.0141408

> <r_epik_Ionization_Penalty_Neutral>
0.328375

> <r_epik_State_Penalty>
1.47662

> <r_epik_Charging_Adjusted_Penalty>
1.49076

> <i_epik_Tot_Q>
0

> <i_epik_Tot_abs_Q>
0

> <r_epik_Metal_State_Penalty>
1.65506

> <b_epik_Metal_Only>
0

> <s_lp_Force_Field>
OPLS_2005

> <r_lp_Energy>
47.0207

> <b_lp_Chiralities_Consistent>
1

> <s_lp_Variant>
AV-unprocessed.smi:1492-6

> <Gold.Version>
5.8.1

> <Gold.Id.Protein>
6NUR|6NUR_protein|mol2

> <Gold.PLP.Fitness>
35.9982

> <Gold.PLP.PLP>
-29.1335

> <Gold.PLP.part.hbond>
-3.6696

> <Gold.PLP.part.metal>
0.0000

> <Gold.PLP.part.buried>
-3.1574

> <Gold.PLP.part.nonpolar>
-22.9819

> <Gold.PLP.part.repulsive>
0.2355

> <Gold.PLP.ligand.clash>
0.0000

> <Gold.PLP.ligand.torsion>
0.3546

> <Gold.PLP.Chemscore.Hbond>
2.4400

> <Gold.PLP.Chemscore.CHOScore>
0.0000

> <Gold.PLP.Chemscore.Metal>
0.0000

> <Gold.Chemscore.Hbonds>
donor molecule, donor type, donor heavy atom, donor atom, acceptor molecule, acceptor atom, score
      L1  H    13    25       P1  7948  0.85
      P1  H  6896  6908       L1     8  0.90
      P1  H  6931  6943       L1    22  0.69

> <Gold.PLP.Chemscore.Internal.Correction>
0.2539

> <Gold.Rescore>
     Score         DG    S(hbond)    S(metal)    S(lipo)     H(rot)  DE(clash)    DE(int)     intcor
     13.67     -14.23       1.78        0.00      70.19       2.12       0.29       0.26       ----

> <Gold.Chemscore.Fitness>
13.6668

> <Gold.Chemscore.DG>
-14.2257

> <Gold.Chemscore.ZeroCoef>
-5.4800

> <Gold.Chemscore.Hbond>
1.7813

> <Gold.Chemscore.Metal>
0.0000

> <Gold.Chemscore.Lipo>
70.1874

> <Gold.Chemscore.Internal_Hbond>
0.0000

> <Gold.Chemscore.DEClash>
0.2945

> <Gold.Chemscore.DEInternal>
0.2643

> <Gold.Chemscore.Rot>
2.1155

> <Gold.Chemscore.Internal.Correction>
   9.000000E+99

> <Gold.Chemscore.Hbonds>
donor molecule, donor type, donor heavy atom, donor atom, acceptor molecule, acceptor atom, score
      L1  H    13    25       P1  7948  0.15
      P1  H  6896  6908       L1     8  0.87
      P1  H  6931  6943       L1    22  0.46

> <Gold.Chemscore.Hbond.Weighted>
-5.9495

> <Gold.Chemscore.Metal.Weighted>
-0.0000

> <Gold.Chemscore.Lipo.Weighted>
-8.2119

> <Gold.Chemscore.Internal_Hbond.Weighted>
0.0000

> <Gold.Chemscore.DEClash.Weighted>
0.2945

> <Gold.Chemscore.DEInternal.Weighted>
0.2643

> <Gold.Chemscore.Rot.Weighted>
5.4157

> <Gold.Chemscore.Internal.Correction.Weighted>
   9.000000E+99

> <Gold.Protein.RotatedTorsions>
[ 6907 6896 6895 6894 ] final   87.70 input  -60.11 | X-H torsion
[ 7974 7965 7964 7962 ] final  -37.91 input  175.53 | X-H torsion
[ 8008 7997 7996 7995 ] final    5.95 input   59.86 | X-H torsion
[ 10167 10162 10161 10158 ] final  -11.53 input  -65.29 | X-H torsion
[ 10718 10713 10712 10709 ] final -129.12 input   66.30 | X-H torsion
[ 10763 10752 10751 10750 ] final    9.68 input  -60.55 | X-H torsion
[ 11005 11000 10999 10996 ] final  -40.72 input  -57.11 | X-H torsion

> <Gold.Protein.ActiveResidues>
 VAL166  LYS551  ARG553  GLY616  TRP617  ASP618  TYR619  PRO620  LYS621  CYS622 
 ASP623  PHE694  ASN695  SER759  ASP760  ASP761  ALA762  ILE779  LEU786  VAL792 
 PHE793  MET794  SER795  GLU796  ALA797  LYS798  CYS799  TRP800  GLU811  SER814 

> <Gold.Protein.RotatedAtoms>
  152.5415  134.2236  159.8796 H   0  0  0  0  0  0  0  0  0  0  0  0  # atno 6907 bound_to 6896
  151.2212  133.4495  159.2608 H   0  0  0  0  0  0  0  0  0  0  0  0  # atno 6908 bound_to 6896
  151.0804  134.9868  159.8409 H   0  0  0  0  0  0  0  0  0  0  0  0  # atno 6909 bound_to 6896
  146.0533  140.6451  142.9031 H   0  0  0  0  0  0  0  0  0  0  0  0  # atno 7974 bound_to 7965
  154.7349  140.2737  155.6424 H   0  0  0  0  0  0  0  0  0  0  0  0  # atno 8008 bound_to 7997
  156.2859  140.2708  156.1985 H   0  0  0  0  0  0  0  0  0  0  0  0  # atno 8009 bound_to 7997
  155.0334  140.0371  157.2472 H   0  0  0  0  0  0  0  0  0  0  0  0  # atno 8010 bound_to 7997
  140.7140  143.5630  150.9175 H   0  0  0  0  0  0  0  0  0  0  0  0  # atno 10167 bound_to 10162
  156.2016  130.6861  151.0546 H   0  0  0  0  0  0  0  0  0  0  0  0  # atno 10718 bound_to 10713
  153.2114  135.6869  153.8110 H   0  0  0  0  0  0  0  0  0  0  0  0  # atno 10763 bound_to 10752
  153.7341  135.3248  155.3292 H   0  0  0  0  0  0  0  0  0  0  0  0  # atno 10764 bound_to 10752
  154.8224  135.4643  154.0923 H   0  0  0  0  0  0  0  0  0  0  0  0  # atno 10765 bound_to 10752
  141.0195  133.6869  156.2360 H   0  0  0  0  0  0  0  0  0  0  0  0  # atno 11005 bound_to 11000
  144.7134  140.4123  143.7063 LP  0  0  0  0  0  0  0  0  0  0  0  0  # atno 17320 bound_to 7965
  145.6687  139.1595  143.2767 LP  0  0  0  0  0  0  0  0  0  0  0  0  # atno 17321 bound_to 7965
  139.9355  143.6443  152.3066 LP  0  0  0  0  0  0  0  0  0  0  0  0  # atno 17342 bound_to 10162
  139.6909  144.7647  151.1441 LP  0  0  0  0  0  0  0  0  0  0  0  0  # atno 17343 bound_to 10162
  157.6989  131.0783  150.6883 LP  0  0  0  0  0  0  0  0  0  0  0  0  # atno 17370 bound_to 10713
  156.6941  130.4603  149.5591 LP  0  0  0  0  0  0  0  0  0  0  0  0  # atno 17371 bound_to 10713
  140.6597  134.4980  157.5582 LP  0  0  0  0  0  0  0  0  0  0  0  0  # atno 17394 bound_to 11000
  139.9137  134.8290  156.1439 LP  0  0  0  0  0  0  0  0  0  0  0  0  # atno 17395 bound_to 11000

$$$$
