AV-unprocessed.smi:2666|AV-procd|sdf|10332|dock7
  -GOLD-   2272014353D 1   1.00000     0.00000
 Structure written by MMmdl.
 43 44  0  0  0  0  0  0  0  0  1 V2000
  148.8690  141.0941  157.2723 O   0  0  0  0  0  0  0  0  0  0  0  0
  149.0960  142.1030  156.6052 C   0  0  0  0  0  0  0  0  0  0  0  0
  150.0175  143.0369  156.8962 N   0  0  0  0  0  0  0  0  0  0  0  0
  150.9536  143.0585  157.9655 C   0  0  0  0  0  0  0  0  0  0  0  0
  151.6489  144.2610  158.2086 C   0  0  0  0  0  0  0  0  0  0  0  0
  152.5973  144.3081  159.2478 C   0  0  0  0  0  0  0  0  0  0  0  0
  152.8208  143.1409  160.0032 C   0  0  0  0  0  0  0  0  0  0  0  0
  152.1752  141.9778  159.7759 N   0  0  0  0  0  0  0  0  0  0  0  0
  151.2657  141.9400  158.7780 C   0  0  0  0  0  0  0  0  0  0  0  0
  148.4285  142.4211  155.4858 N   0  0  0  0  0  0  0  0  0  0  0  0
  147.3654  141.6317  154.8590 C   0  0  2  0  0  0  0  0  0  0  0  0
  147.8690  141.0763  153.5014 C   0  0  0  0  0  0  0  0  0  0  0  0
  147.1361  139.8207  152.9879 C   0  0  0  0  0  0  0  0  0  0  0  0
  147.8772  138.6435  153.2361 O   0  0  0  0  0  0  0  0  0  0  0  0
  146.0705  142.4884  154.7399 C   0  0  0  0  0  0  0  0  0  0  0  0
  146.2054  143.6085  153.6753 C   0  0  0  0  0  0  0  0  0  0  0  0
  144.9350  144.4646  153.5559 C   0  0  0  0  0  0  0  0  0  0  0  0
  144.5486  145.0761  154.9076 C   0  0  0  0  0  0  0  0  0  0  0  0
  144.3790  143.9794  155.9656 C   0  0  0  0  0  0  0  0  0  0  0  0
  145.6464  143.1177  156.0904 C   0  0  0  0  0  0  0  0  0  0  0  0
  150.0270  143.8498  156.2979 H   0  0  0  0  0  0  0  0  0  0  0  0
  151.4582  145.1396  157.6096 H   0  0  0  0  0  0  0  0  0  0  0  0
  153.1413  145.2164  159.4606 H   0  0  0  0  0  0  0  0  0  0  0  0
  153.5410  143.1401  160.8080 H   0  0  0  0  0  0  0  0  0  0  0  0
  150.8046  140.9765  158.6297 H   0  0  0  0  0  0  0  0  0  0  0  0
  148.6884  143.2738  155.0124 H   0  0  0  0  0  0  0  0  0  0  0  0
  147.1295  140.7731  155.4901 H   0  0  0  0  0  0  0  0  0  0  0  0
  147.7268  141.8410  152.7396 H   0  0  0  0  0  0  0  0  0  0  0  0
  148.9434  140.8908  153.5394 H   0  0  0  0  0  0  0  0  0  0  0  0
  146.1456  139.7366  153.4365 H   0  0  0  0  0  0  0  0  0  0  0  0
  146.9915  139.8946  151.9098 H   0  0  0  0  0  0  0  0  0  0  0  0
  148.6735  138.6777  152.7282 H   0  0  0  0  0  0  0  0  0  0  0  0
  145.2646  141.8270  154.4175 H   0  0  0  0  0  0  0  0  0  0  0  0
  147.0526  144.2488  153.9250 H   0  0  0  0  0  0  0  0  0  0  0  0
  146.4198  143.1878  152.6931 H   0  0  0  0  0  0  0  0  0  0  0  0
  145.0889  145.2555  152.8213 H   0  0  0  0  0  0  0  0  0  0  0  0
  144.1142  143.8510  153.1825 H   0  0  0  0  0  0  0  0  0  0  0  0
  145.3181  145.7804  155.2266 H   0  0  0  0  0  0  0  0  0  0  0  0
  143.6249  145.6473  154.8093 H   0  0  0  0  0  0  0  0  0  0  0  0
  144.1402  144.4294  156.9297 H   0  0  0  0  0  0  0  0  0  0  0  0
  143.5312  143.3458  155.7027 H   0  0  0  0  0  0  0  0  0  0  0  0
  145.4490  142.3462  156.8329 H   0  0  0  0  0  0  0  0  0  0  0  0
  146.4616  143.7262  156.4847 H   0  0  0  0  0  0  0  0  0  0  0  0
  1  2  2  0  0  0  0
  2  3  1  0  0  0  0
  2 10  1  0  0  0  0
  3  4  1  0  0  0  0
  3 21  1  0  0  0  0
  4  9  1  0  0  0  0
  4  5  2  0  0  0  0
  5  6  1  0  0  0  0
  5 22  1  0  0  0  0
  6  7  2  0  0  0  0
  6 23  1  0  0  0  0
  7  8  1  0  0  0  0
  7 24  1  0  0  0  0
  8  9  2  0  0  0  0
  9 25  1  0  0  0  0
 10 11  1  0  0  0  0
 10 26  1  0  0  0  0
 11 12  1  0  0  0  0
 11 15  1  0  0  0  0
 11 27  1  0  0  0  0
 12 13  1  0  0  0  0
 12 28  1  0  0  0  0
 12 29  1  0  0  0  0
 13 14  1  0  0  0  0
 13 30  1  0  0  0  0
 13 31  1  0  0  0  0
 14 32  1  0  0  0  0
 15 20  1  0  0  0  0
 15 16  1  0  0  0  0
 15 33  1  0  0  0  0
 16 17  1  0  0  0  0
 16 34  1  0  0  0  0
 16 35  1  0  0  0  0
 17 18  1  0  0  0  0
 17 36  1  0  0  0  0
 17 37  1  0  0  0  0
 18 19  1  0  0  0  0
 18 38  1  0  0  0  0
 18 39  1  0  0  0  0
 19 20  1  0  0  0  0
 19 40  1  0  0  0  0
 19 41  1  0  0  0  0
 20 42  1  0  0  0  0
 20 43  1  0  0  0  0
M  END
> <s_m_source_file>
AV-unprocessed.smi

> <i_m_source_file_index>
2666

> <i_lp_mmshare_version>
43012

> <i_f3d_flags>
0

> <s_epik_input>
W2NIXTFuW2NIXVtjSF1bY0hdYzFbTkhdQyg9TylbTkhdW0NASF0oW0NIMl1bQ0gyXVtPSF0pW0NIXTJbQ0gyXVtDSDJdW0NIMl1bQ0gyXVtDSDJdMg==

> <s_epik_cmdline>
J2VwaWtfcHl0aG9uJywgJy1waCcsICc3LjAnLCAnLXRuJywgJzgnLCAnLW1hJywgJzIwMCcsICctbWV0YWxfYmluZGluZycsICctaW1hZScsICc8aW5maWxlLm1hZT4nLCAnLW9tYWUnLCAnPG91dGZpbGUubWFlPic=

> <r_epik_Ionization_Penalty>
0.00500145

> <r_epik_Ionization_Penalty_Charging>
0

> <r_epik_Ionization_Penalty_Neutral>
0.00500145

> <r_epik_State_Penalty>
0.00360517

> <r_epik_Charging_Adjusted_Penalty>
0.00360517

> <i_epik_Tot_Q>
0

> <i_epik_Tot_abs_Q>
0

> <r_epik_Metal_State_Penalty>
-0

> <b_epik_Metal_Only>
0

> <s_lp_Force_Field>
OPLS_2005

> <r_lp_Energy>
19.5826

> <b_lp_Chiralities_Consistent>
1

> <s_lp_Variant>
AV-unprocessed.smi:2666-1

> <Gold.Version>
5.8.1

> <Gold.Id.Protein>
6NUR|6NUR_protein|mol2

> <Gold.PLP.Fitness>
47.8939

> <Gold.PLP.PLP>
-41.0099

> <Gold.PLP.part.hbond>
-4.0000

> <Gold.PLP.part.metal>
0.0000

> <Gold.PLP.part.buried>
-3.8883

> <Gold.PLP.part.nonpolar>
-33.0131

> <Gold.PLP.part.repulsive>
0.2008

> <Gold.PLP.ligand.clash>
0.0000

> <Gold.PLP.ligand.torsion>
0.6324

> <Gold.PLP.Chemscore.Hbond>
2.6960

> <Gold.PLP.Chemscore.CHOScore>
0.0000

> <Gold.PLP.Chemscore.Metal>
0.0000

> <Gold.Chemscore.Hbonds>
donor molecule, donor type, donor heavy atom, donor atom, acceptor molecule, acceptor atom, score
      L1  H     3    21       P1  8028  0.67
      L1  H    10    26       P1  8028  0.58
      L1  H    14    32       P1  7957  0.32

> <Gold.PLP.Chemscore.Internal.Correction>
0.0608

> <Gold.Rescore>
     Score         DG    S(hbond)    S(metal)    S(lipo)     H(rot)  DE(clash)    DE(int)     intcor
     17.70     -19.56       2.58        0.00      95.45       2.23       0.08       1.78       ----

> <Gold.Chemscore.Fitness>
17.6956

> <Gold.Chemscore.DG>
-19.5551

> <Gold.Chemscore.ZeroCoef>
-5.4800

> <Gold.Chemscore.Hbond>
2.5760

> <Gold.Chemscore.Metal>
0.0000

> <Gold.Chemscore.Lipo>
95.4483

> <Gold.Chemscore.Internal_Hbond>
0.0000

> <Gold.Chemscore.DEClash>
0.0777

> <Gold.Chemscore.DEInternal>
1.7818

> <Gold.Chemscore.Rot>
2.2251

> <Gold.Chemscore.Internal.Correction>
   9.000000E+99

> <Gold.Chemscore.Hbonds>
donor molecule, donor type, donor heavy atom, donor atom, acceptor molecule, acceptor atom, score
      L1  H     3    21       P1  8028  0.65
      L1  H    10    26       P1  8028  0.56
      L1  H    14    32       P1  7957  0.31

> <Gold.Chemscore.Hbond.Weighted>
-8.6038

> <Gold.Chemscore.Metal.Weighted>
-0.0000

> <Gold.Chemscore.Lipo.Weighted>
-11.1675

> <Gold.Chemscore.Internal_Hbond.Weighted>
0.0000

> <Gold.Chemscore.DEClash.Weighted>
0.0777

> <Gold.Chemscore.DEInternal.Weighted>
1.7818

> <Gold.Chemscore.Rot.Weighted>
5.6962

> <Gold.Chemscore.Internal.Correction.Weighted>
   9.000000E+99

> <Gold.Protein.RotatedTorsions>
[ 6907 6896 6895 6894 ] final   89.69 input  -60.11 | X-H torsion
[ 7974 7965 7964 7962 ] final   59.66 input  175.53 | X-H torsion
[ 8008 7997 7996 7995 ] final  -36.76 input   59.86 | X-H torsion
[ 10167 10162 10161 10158 ] final  -69.63 input  -65.29 | X-H torsion
[ 10718 10713 10712 10709 ] final   87.59 input   66.30 | X-H torsion
[ 10763 10752 10751 10750 ] final  166.62 input  -60.55 | X-H torsion
[ 11005 11000 10999 10996 ] final   16.52 input  -57.11 | X-H torsion

> <Gold.Protein.ActiveResidues>
 VAL166  LYS551  ARG553  GLY616  TRP617  ASP618  TYR619  PRO620  LYS621  CYS622 
 ASP623  PHE694  ASN695  SER759  ASP760  ASP761  ALA762  ILE779  LEU786  VAL792 
 PHE793  MET794  SER795  GLU796  ALA797  LYS798  CYS799  TRP800  GLU811  SER814 

> <Gold.Protein.RotatedAtoms>
  152.5438  134.1928  159.8680 H   0  0  0  0  0  0  0  0  0  0  0  0  # atno 6907 bound_to 6896
  151.1922  133.4653  159.2602 H   0  0  0  0  0  0  0  0  0  0  0  0  # atno 6908 bound_to 6896
  151.1072  135.0018  159.8532 H   0  0  0  0  0  0  0  0  0  0  0  0  # atno 6909 bound_to 6896
  145.9047  139.3608  143.0571 H   0  0  0  0  0  0  0  0  0  0  0  0  # atno 7974 bound_to 7965
  154.4066  140.1622  156.2426 H   0  0  0  0  0  0  0  0  0  0  0  0  # atno 8008 bound_to 7997
  155.9188  140.3422  155.6134 H   0  0  0  0  0  0  0  0  0  0  0  0  # atno 8009 bound_to 7997
  155.7247  140.0773  157.2306 H   0  0  0  0  0  0  0  0  0  0  0  0  # atno 8010 bound_to 7997
  140.5416  143.2315  151.7079 H   0  0  0  0  0  0  0  0  0  0  0  0  # atno 10167 bound_to 10162
  157.6941  131.0261  150.3147 H   0  0  0  0  0  0  0  0  0  0  0  0  # atno 10718 bound_to 10713
  154.3417  135.2754  155.2419 H   0  0  0  0  0  0  0  0  0  0  0  0  # atno 10763 bound_to 10752
  154.4687  135.5888  153.6309 H   0  0  0  0  0  0  0  0  0  0  0  0  # atno 10764 bound_to 10752
  152.9857  135.6082  154.3619 H   0  0  0  0  0  0  0  0  0  0  0  0  # atno 10765 bound_to 10752
  140.4462  134.1271  155.7696 H   0  0  0  0  0  0  0  0  0  0  0  0  # atno 11005 bound_to 11000
  145.8747  140.9399  143.0632 LP  0  0  0  0  0  0  0  0  0  0  0  0  # atno 17320 bound_to 7965
  144.6738  140.0701  143.7473 LP  0  0  0  0  0  0  0  0  0  0  0  0  # atno 17321 bound_to 7965
  139.4991  144.3960  152.0230 LP  0  0  0  0  0  0  0  0  0  0  0  0  # atno 17342 bound_to 10162
  140.3070  144.3582  150.6044 LP  0  0  0  0  0  0  0  0  0  0  0  0  # atno 17343 bound_to 10162
  156.3643  130.3852  149.7226 LP  0  0  0  0  0  0  0  0  0  0  0  0  # atno 17370 bound_to 10713
  156.4662  130.7975  151.2994 LP  0  0  0  0  0  0  0  0  0  0  0  0  # atno 17371 bound_to 10713
  141.1684  133.8657  157.1645 LP  0  0  0  0  0  0  0  0  0  0  0  0  # atno 17394 bound_to 11000
  140.0037  135.0017  157.0245 LP  0  0  0  0  0  0  0  0  0  0  0  0  # atno 17395 bound_to 11000

$$$$
