AV-unprocessed.smi:794|AV-procd|sdf|3761|dock9
  -GOLD-   22720 1193D 1   1.00000     0.00000
 Structure written by MMmdl.
 41 43  0  0  0  0  0  0  0  0  1 V2000
  147.7041  136.8013  163.4882 C   0  0  0  0  0  0  0  0  0  0  0  0
  147.6563  136.2966  162.0786 C   0  0  0  0  0  0  0  0  0  0  0  0
  148.0164  137.1467  161.0291 N   0  0  0  0  0  0  0  0  0  0  0  0
  147.9186  136.5500  159.8370 C   0  0  0  0  0  0  0  0  0  0  0  0
  148.2171  137.1780  158.5994 N   0  0  0  0  0  0  0  0  0  0  0  0
  147.5392  138.1616  157.9823 C   0  0  0  0  0  0  0  0  0  0  0  0
  146.5234  138.7071  158.4150 O   0  0  0  0  0  0  0  0  0  0  0  0
  148.1103  138.4860  156.8140 N   0  0  0  0  0  0  0  0  0  0  0  0
  147.6105  139.5100  155.8991 C   0  0  1  0  0  0  0  0  0  0  0  0
  147.9915  140.9513  156.3207 C   0  0  1  0  0  0  0  0  0  0  0  0
  149.5083  141.0851  156.5768 C   0  0  0  0  0  0  0  0  0  0  0  0
  150.1011  140.9612  155.1608 C   0  0  0  0  0  0  0  0  0  0  0  0
  148.8476  140.7973  154.2796 C   0  0  2  0  0  0  0  0  0  0  0  0
  147.8509  141.6982  155.0008 C   0  0  0  0  0  0  0  0  0  0  0  0
  148.2533  139.3839  154.4935 C   0  0  2  0  0  0  0  0  0  0  0  0
  147.2369  138.9682  153.4122 C   0  0  0  0  0  0  0  0  0  0  0  0
  147.8858  138.7759  152.1728 O   0  0  0  0  0  0  0  0  0  0  0  0
  147.3738  134.8839  159.9268 S   0  0  0  0  0  0  0  0  0  0  0  0
  147.2795  135.0400  161.6637 C   0  0  0  0  0  0  0  0  0  0  0  0
  146.8347  133.8963  162.5134 C   0  0  0  0  0  0  0  0  0  0  0  0
  148.2065  136.0908  164.1446 H   0  0  0  0  0  0  0  0  0  0  0  0
  146.6993  136.9612  163.8798 H   0  0  0  0  0  0  0  0  0  0  0  0
  148.2408  137.7480  163.5598 H   0  0  0  0  0  0  0  0  0  0  0  0
  149.0349  136.8283  158.1225 H   0  0  0  0  0  0  0  0  0  0  0  0
  148.9459  137.9931  156.5353 H   0  0  0  0  0  0  0  0  0  0  0  0
  146.5240  139.4312  155.8212 H   0  0  0  0  0  0  0  0  0  0  0  0
  147.3780  141.3435  157.1325 H   0  0  0  0  0  0  0  0  0  0  0  0
  149.7383  142.0650  156.9970 H   0  0  0  0  0  0  0  0  0  0  0  0
  149.9025  140.3371  157.2650 H   0  0  0  0  0  0  0  0  0  0  0  0
  150.6468  141.8673  154.8942 H   0  0  0  0  0  0  0  0  0  0  0  0
  150.7884  140.1196  155.0678 H   0  0  0  0  0  0  0  0  0  0  0  0
  149.0235  141.0526  153.2342 H   0  0  0  0  0  0  0  0  0  0  0  0
  146.8425  141.6586  154.5865 H   0  0  0  0  0  0  0  0  0  0  0  0
  148.1698  142.7407  155.0556 H   0  0  0  0  0  0  0  0  0  0  0  0
  149.0575  138.6454  154.5010 H   0  0  0  0  0  0  0  0  0  0  0  0
  146.7531  138.0321  153.6926 H   0  0  0  0  0  0  0  0  0  0  0  0
  146.4502  139.7135  153.2945 H   0  0  0  0  0  0  0  0  0  0  0  0
  148.4621  138.0304  152.2475 H   0  0  0  0  0  0  0  0  0  0  0  0
  146.0462  134.2072  163.1992 H   0  0  0  0  0  0  0  0  0  0  0  0
  147.6645  133.5106  163.1058 H   0  0  0  0  0  0  0  0  0  0  0  0
  146.4455  133.0791  161.9058 H   0  0  0  0  0  0  0  0  0  0  0  0
  1  2  1  0  0  0  0
  1 21  1  0  0  0  0
  1 22  1  0  0  0  0
  1 23  1  0  0  0  0
  2 19  2  0  0  0  0
  2  3  1  0  0  0  0
  3  4  2  0  0  0  0
  4  5  1  0  0  0  0
  4 18  1  0  0  0  0
  5  6  1  0  0  0  0
  5 24  1  0  0  0  0
  6  7  2  0  0  0  0
  6  8  1  0  0  0  0
  8  9  1  0  0  0  0
  8 25  1  0  0  0  0
  9 15  1  0  0  0  0
  9 10  1  0  0  0  0
  9 26  1  0  0  0  0
 10 14  1  0  0  0  0
 10 11  1  0  0  0  0
 10 27  1  0  0  0  0
 11 12  1  0  0  0  0
 11 28  1  0  0  0  0
 11 29  1  0  0  0  0
 12 13  1  0  0  0  0
 12 30  1  0  0  0  0
 12 31  1  0  0  0  0
 13 14  1  0  0  0  0
 13 15  1  0  0  0  0
 13 32  1  0  0  0  0
 14 33  1  0  0  0  0
 14 34  1  0  0  0  0
 15 16  1  0  0  0  0
 15 35  1  0  0  0  0
 16 17  1  0  0  0  0
 16 36  1  0  0  0  0
 16 37  1  0  0  0  0
 17 38  1  0  0  0  0
 18 19  1  0  0  0  0
 19 20  1  0  0  0  0
 20 39  1  0  0  0  0
 20 40  1  0  0  0  0
 20 41  1  0  0  0  0
M  END
> <s_m_source_file>
AV-unprocessed.smi

> <i_m_source_file_index>
794

> <i_lp_mmshare_version>
43012

> <i_f3d_flags>
0

> <s_epik_input>
W0NIM11jMW5jKHNjMVtDSDNdKVtOSF1DKD1PKVtOSF1bQ0BIXShbQ0BASF0yMylbQ0BIXShbQ0gyXVtPSF0pW0NAQEhdKFtDSDJdMylbQ0gyXVtDSDJdMg==

> <s_epik_cmdline>
J2VwaWtfcHl0aG9uJywgJy1waCcsICc3LjAnLCAnLXRuJywgJzgnLCAnLW1hJywgJzIwMCcsICctbWV0YWxfYmluZGluZycsICctaW1hZScsICc8aW5maWxlLm1hZT4nLCAnLW9tYWUnLCAnPG91dGZpbGUubWFlPic=

> <r_lp_tautomer_probability>
0.999

> <r_epik_Ionization_Penalty>
0.000713029

> <r_epik_Ionization_Penalty_Charging>
0

> <r_epik_Ionization_Penalty_Neutral>
0.000713029

> <r_epik_State_Penalty>
0.000177984

> <r_epik_Charging_Adjusted_Penalty>
0.000177984

> <i_epik_Tot_Q>
0

> <i_epik_Tot_abs_Q>
0

> <r_epik_Metal_State_Penalty>
-0

> <b_epik_Metal_Only>
0

> <s_lp_Force_Field>
OPLS_2005

> <r_lp_Energy>
47.7468

> <b_lp_Chiralities_Consistent>
1

> <s_lp_Variant>
AV-unprocessed.smi:794-6

> <Gold.Version>
5.8.1

> <Gold.Id.Protein>
6NUR|6NUR_protein|mol2

> <Gold.PLP.Fitness>
40.4079

> <Gold.PLP.PLP>
-34.1769

> <Gold.PLP.part.hbond>
-4.3624

> <Gold.PLP.part.metal>
0.0000

> <Gold.PLP.part.buried>
-1.8292

> <Gold.PLP.part.nonpolar>
-27.5950

> <Gold.PLP.part.repulsive>
0.1488

> <Gold.PLP.ligand.clash>
0.0000

> <Gold.PLP.ligand.torsion>
0.9154

> <Gold.PLP.Chemscore.Hbond>
2.6816

> <Gold.PLP.Chemscore.CHOScore>
0.0000

> <Gold.PLP.Chemscore.Metal>
0.0000

> <Gold.Chemscore.Hbonds>
donor molecule, donor type, donor heavy atom, donor atom, acceptor molecule, acceptor atom, score
      L1  H    17    38       P1  7948  1.00
      P1  H  6931  6943       L1     3  0.98
      P1  H  6934  6947       L1     3  0.71

> <Gold.PLP.Chemscore.Internal.Correction>
0.0169

> <Gold.Rescore>
     Score         DG    S(hbond)    S(metal)    S(lipo)     H(rot)  DE(clash)    DE(int)     intcor
     15.45     -16.81       1.85        0.00      83.09       1.78       0.47       0.90       ----

> <Gold.Chemscore.Fitness>
15.4452

> <Gold.Chemscore.DG>
-16.8099

> <Gold.Chemscore.ZeroCoef>
-5.4800

> <Gold.Chemscore.Hbond>
1.8458

> <Gold.Chemscore.Metal>
0.0000

> <Gold.Chemscore.Lipo>
83.0853

> <Gold.Chemscore.Internal_Hbond>
0.0000

> <Gold.Chemscore.DEClash>
0.4659

> <Gold.Chemscore.DEInternal>
0.8987

> <Gold.Chemscore.Rot>
1.7798

> <Gold.Chemscore.Internal.Correction>
   9.000000E+99

> <Gold.Chemscore.Hbonds>
donor molecule, donor type, donor heavy atom, donor atom, acceptor molecule, acceptor atom, score
      L1  H    17    38       P1  7948  0.96
      P1  H  6931  6943       L1     3  0.24
      P1  H  6934  6947       L1     3  0.48

> <Gold.Chemscore.Hbond.Weighted>
-6.1651

> <Gold.Chemscore.Metal.Weighted>
-0.0000

> <Gold.Chemscore.Lipo.Weighted>
-9.7210

> <Gold.Chemscore.Internal_Hbond.Weighted>
0.0000

> <Gold.Chemscore.DEClash.Weighted>
0.4659

> <Gold.Chemscore.DEInternal.Weighted>
0.8987

> <Gold.Chemscore.Rot.Weighted>
4.5562

> <Gold.Chemscore.Internal.Correction.Weighted>
   9.000000E+99

> <Gold.Protein.RotatedTorsions>
[ 6907 6896 6895 6894 ] final  154.31 input  -60.11 | X-H torsion
[ 7974 7965 7964 7962 ] final   64.25 input  175.53 | X-H torsion
[ 8008 7997 7996 7995 ] final -132.97 input   59.86 | X-H torsion
[ 10167 10162 10161 10158 ] final  170.93 input  -65.29 | X-H torsion
[ 10718 10713 10712 10709 ] final   33.15 input   66.30 | X-H torsion
[ 10763 10752 10751 10750 ] final   85.72 input  -60.55 | X-H torsion
[ 11005 11000 10999 10996 ] final  143.73 input  -57.11 | X-H torsion

> <Gold.Protein.ActiveResidues>
 VAL166  LYS551  ARG553  GLY616  TRP617  ASP618  TYR619  PRO620  LYS621  CYS622 
 ASP623  PHE694  ASN695  SER759  ASP760  ASP761  ALA762  ILE779  LEU786  VAL792 
 PHE793  MET794  SER795  GLU796  ALA797  LYS798  CYS799  TRP800  GLU811  SER814 

> <Gold.Protein.RotatedAtoms>
  152.0603  133.4059  159.4414 H   0  0  0  0  0  0  0  0  0  0  0  0  # atno 6907 bound_to 6896
  150.6866  134.3208  159.4795 H   0  0  0  0  0  0  0  0  0  0  0  0  # atno 6908 bound_to 6896
  152.1028  134.9329  160.0619 H   0  0  0  0  0  0  0  0  0  0  0  0  # atno 6909 bound_to 6896
  145.8524  139.3262  143.0867 H   0  0  0  0  0  0  0  0  0  0  0  0  # atno 7974 bound_to 7965
  155.3377  140.0470  157.3044 H   0  0  0  0  0  0  0  0  0  0  0  0  # atno 8008 bound_to 7997
  154.5294  140.2252  155.8797 H   0  0  0  0  0  0  0  0  0  0  0  0  # atno 8009 bound_to 7997
  156.1773  140.3082  155.9088 H   0  0  0  0  0  0  0  0  0  0  0  0  # atno 8010 bound_to 7997
  139.5032  144.3541  151.9892 H   0  0  0  0  0  0  0  0  0  0  0  0  # atno 10167 bound_to 10162
  157.2942  130.7318  149.6628 H   0  0  0  0  0  0  0  0  0  0  0  0  # atno 10718 bound_to 10713
  153.1502  135.4607  154.9625 H   0  0  0  0  0  0  0  0  0  0  0  0  # atno 10763 bound_to 10752
  154.7818  135.3191  154.7975 H   0  0  0  0  0  0  0  0  0  0  0  0  # atno 10764 bound_to 10752
  153.8482  135.6924  153.4849 H   0  0  0  0  0  0  0  0  0  0  0  0  # atno 10765 bound_to 10752
  140.0576  134.9222  157.1128 H   0  0  0  0  0  0  0  0  0  0  0  0  # atno 11005 bound_to 11000
  145.9342  140.9026  143.0340 LP  0  0  0  0  0  0  0  0  0  0  0  0  # atno 17320 bound_to 7965
  144.6729  140.1460  143.7433 LP  0  0  0  0  0  0  0  0  0  0  0  0  # atno 17321 bound_to 7965
  140.2978  144.3681  150.6069 LP  0  0  0  0  0  0  0  0  0  0  0  0  # atno 17342 bound_to 10162
  140.5897  143.2168  151.7276 LP  0  0  0  0  0  0  0  0  0  0  0  0  # atno 17343 bound_to 10162
  155.9668  130.4299  150.4855 LP  0  0  0  0  0  0  0  0  0  0  0  0  # atno 17370 bound_to 10713
  157.2824  131.0609  151.2189 LP  0  0  0  0  0  0  0  0  0  0  0  0  # atno 17371 bound_to 10713
  140.3819  134.2277  155.7170 LP  0  0  0  0  0  0  0  0  0  0  0  0  # atno 17394 bound_to 11000
  141.1959  133.8095  157.0695 LP  0  0  0  0  0  0  0  0  0  0  0  0  # atno 17395 bound_to 11000

$$$$
