AV-unprocessed.smi:674|AV-procd|sdf|3301|dock10
  -GOLD-   22720 0263D 1   1.00000     0.00000
 Structure written by MMmdl.
 47 48  0  0  0  0  0  0  0  0  1 V2000
  143.8282  132.3388  149.6664 C   0  0  0  0  0  0  0  0  0  0  0  0
  143.4581  132.5701  151.1360 C   0  0  0  0  0  0  0  0  0  0  0  0
  144.1098  133.8047  151.6918 C   0  0  0  0  0  0  0  0  0  0  0  0
  145.5016  134.0574  151.8636 C   0  0  0  0  0  0  0  0  0  0  0  0
  145.5162  135.3102  152.4133 C   0  0  0  0  0  0  0  0  0  0  0  0
  146.5840  136.0557  152.8041 N   0  0  0  0  0  0  0  0  0  0  0  0
  146.7154  136.8281  153.8967 C   0  0  0  0  0  0  0  0  0  0  0  0
  145.8711  136.9646  154.7824 O   0  0  0  0  0  0  0  0  0  0  0  0
  147.9059  137.4423  153.9140 N   0  0  0  0  0  0  0  0  0  0  0  0
  148.3498  138.3454  154.9702 C   0  0  2  0  0  0  0  0  0  0  0  0
  148.7549  139.7190  154.4408 C   0  0  0  0  0  0  0  0  0  0  0  0
  149.8598  139.7067  155.5132 C   0  0  2  0  0  0  0  0  0  0  0  0
  149.5608  140.3803  156.8619 C   0  0  0  0  0  0  0  0  0  0  0  0
  151.1105  140.1706  155.0027 O   0  0  0  0  0  0  0  0  0  0  0  0
  152.2680  139.8031  155.7427 C   0  0  0  0  0  0  0  0  0  0  0  0
  149.8188  138.1459  155.4216 C   0  0  0  0  0  0  0  0  0  0  0  0
  150.0156  137.3700  156.7278 C   0  0  0  0  0  0  0  0  0  0  0  0
  150.7764  137.4990  154.4005 C   0  0  0  0  0  0  0  0  0  0  0  0
  144.2169  135.7507  152.5501 N   0  0  0  0  0  0  0  0  0  0  0  0
  143.7005  136.9980  153.0799 C   0  0  0  0  0  0  0  0  0  0  0  0
  143.3521  134.8166  152.1008 N   0  0  0  0  0  0  0  0  0  0  0  0
  143.3459  131.4406  149.2808 H   0  0  0  0  0  0  0  0  0  0  0  0
  144.9050  132.2157  149.5453 H   0  0  0  0  0  0  0  0  0  0  0  0
  143.5151  133.1786  149.0451 H   0  0  0  0  0  0  0  0  0  0  0  0
  142.3745  132.6509  151.2263 H   0  0  0  0  0  0  0  0  0  0  0  0
  143.7456  131.6980  151.7247 H   0  0  0  0  0  0  0  0  0  0  0  0
  146.3318  133.4104  151.6238 H   0  0  0  0  0  0  0  0  0  0  0  0
  147.3796  136.0247  152.1838 H   0  0  0  0  0  0  0  0  0  0  0  0
  148.5475  137.2743  153.1531 H   0  0  0  0  0  0  0  0  0  0  0  0
  147.6521  138.4255  155.8073 H   0  0  0  0  0  0  0  0  0  0  0  0
  149.1354  139.7012  153.4177 H   0  0  0  0  0  0  0  0  0  0  0  0
  147.9992  140.4938  154.5718 H   0  0  0  0  0  0  0  0  0  0  0  0
  148.6862  139.9477  157.3474 H   0  0  0  0  0  0  0  0  0  0  0  0
  149.3516  141.4436  156.7482 H   0  0  0  0  0  0  0  0  0  0  0  0
  150.3997  140.2788  157.5506 H   0  0  0  0  0  0  0  0  0  0  0  0
  153.1381  140.2974  155.3112 H   0  0  0  0  0  0  0  0  0  0  0  0
  152.4533  138.7300  155.7027 H   0  0  0  0  0  0  0  0  0  0  0  0
  152.2002  140.1091  156.7868 H   0  0  0  0  0  0  0  0  0  0  0  0
  151.0140  137.5261  157.1373 H   0  0  0  0  0  0  0  0  0  0  0  0
  149.8833  136.2976  156.5802 H   0  0  0  0  0  0  0  0  0  0  0  0
  149.2995  137.6686  157.4929 H   0  0  0  0  0  0  0  0  0  0  0  0
  151.8143  137.5702  154.7276 H   0  0  0  0  0  0  0  0  0  0  0  0
  150.7191  137.9722  153.4202 H   0  0  0  0  0  0  0  0  0  0  0  0
  150.5564  136.4407  154.2563 H   0  0  0  0  0  0  0  0  0  0  0  0
  144.5140  137.6828  153.3191 H   0  0  0  0  0  0  0  0  0  0  0  0
  143.1265  136.8009  153.9857 H   0  0  0  0  0  0  0  0  0  0  0  0
  143.0510  137.4698  152.3422 H   0  0  0  0  0  0  0  0  0  0  0  0
  1  2  1  0  0  0  0
  1 22  1  0  0  0  0
  1 23  1  0  0  0  0
  1 24  1  0  0  0  0
  2  3  1  0  0  0  0
  2 25  1  0  0  0  0
  2 26  1  0  0  0  0
  3 21  2  0  0  0  0
  3  4  1  0  0  0  0
  4  5  2  0  0  0  0
  4 27  1  0  0  0  0
  5  6  1  0  0  0  0
  5 19  1  0  0  0  0
  6  7  1  0  0  0  0
  6 28  1  0  0  0  0
  7  8  2  0  0  0  0
  7  9  1  0  0  0  0
  9 10  1  0  0  0  0
  9 29  1  0  0  0  0
 10 16  1  0  0  0  0
 10 11  1  0  0  0  0
 10 30  1  0  0  0  0
 11 12  1  0  0  0  0
 11 31  1  0  0  0  0
 11 32  1  0  0  0  0
 12 13  1  0  0  0  0
 12 14  1  0  0  0  0
 12 16  1  0  0  0  0
 13 33  1  0  0  0  0
 13 34  1  0  0  0  0
 13 35  1  0  0  0  0
 14 15  1  0  0  0  0
 15 36  1  0  0  0  0
 15 37  1  0  0  0  0
 15 38  1  0  0  0  0
 16 17  1  0  0  0  0
 16 18  1  0  0  0  0
 17 39  1  0  0  0  0
 17 40  1  0  0  0  0
 17 41  1  0  0  0  0
 18 42  1  0  0  0  0
 18 43  1  0  0  0  0
 18 44  1  0  0  0  0
 19 20  1  0  0  0  0
 19 21  1  0  0  0  0
 20 45  1  0  0  0  0
 20 46  1  0  0  0  0
 20 47  1  0  0  0  0
M  END
> <s_m_source_file>
AV-unprocessed.smi

> <i_m_source_file_index>
674

> <i_lp_mmshare_version>
43012

> <i_f3d_flags>
0

> <s_epik_input>
W0NIM11bQ0gyXWMxW2NIXWMobihuMSlbQ0gzXSlbTkhdQyg9TylbTkhdW0NAQEhdKEMyKFtDSDNdKVtDSDNdKVtDSDJdW0NAQF0yKFtDSDNdKU9bQ0gzXQ==

> <s_epik_cmdline>
J2VwaWtfcHl0aG9uJywgJy1waCcsICc3LjAnLCAnLXRuJywgJzgnLCAnLW1hJywgJzIwMCcsICctbWV0YWxfYmluZGluZycsICctaW1hZScsICc8aW5maWxlLm1hZT4nLCAnLW9tYWUnLCAnPG91dGZpbGUubWFlPic=

> <r_lp_tautomer_probability>
1

> <r_epik_Ionization_Penalty>
0.000101626

> <r_epik_Ionization_Penalty_Charging>
0

> <r_epik_Ionization_Penalty_Neutral>
0.000101626

> <r_epik_State_Penalty>
-0

> <r_epik_Charging_Adjusted_Penalty>
0

> <i_epik_Tot_Q>
0

> <i_epik_Tot_abs_Q>
0

> <r_epik_Metal_State_Penalty>
-0

> <b_epik_Metal_Only>
0

> <s_lp_Force_Field>
OPLS_2005

> <r_lp_Energy>
22.7641

> <b_lp_Chiralities_Consistent>
1

> <s_lp_Variant>
AV-unprocessed.smi:674-3

> <Gold.Version>
5.8.1

> <Gold.Id.Protein>
6NUR|6NUR_protein|mol2

> <Gold.PLP.Fitness>
38.8365

> <Gold.PLP.PLP>
-30.7936

> <Gold.PLP.part.hbond>
-3.0000

> <Gold.PLP.part.metal>
0.0000

> <Gold.PLP.part.buried>
-3.8712

> <Gold.PLP.part.nonpolar>
-24.9763

> <Gold.PLP.part.repulsive>
0.3377

> <Gold.PLP.ligand.clash>
0.0000

> <Gold.PLP.ligand.torsion>
0.5566

> <Gold.PLP.Chemscore.Hbond>
2.9280

> <Gold.PLP.Chemscore.CHOScore>
0.0000

> <Gold.PLP.Chemscore.Metal>
0.0000

> <Gold.Chemscore.Hbonds>
donor molecule, donor type, donor heavy atom, donor atom, acceptor molecule, acceptor atom, score
      L1  H     6    28       P1  7948  1.00
      L1  H     9    29       P1  7948  0.93
      P1  H  7989  7998       L1    14  1.00

> <Gold.PLP.Chemscore.Internal.Correction>
0.3721

> <Gold.Rescore>
     Score         DG    S(hbond)    S(metal)    S(lipo)     H(rot)  DE(clash)    DE(int)     intcor
     17.62     -19.76       2.86        0.00      70.38       1.37       0.33       1.81       ----

> <Gold.Chemscore.Fitness>
17.6188

> <Gold.Chemscore.DG>
-19.7573

> <Gold.Chemscore.ZeroCoef>
-5.4800

> <Gold.Chemscore.Hbond>
2.8560

> <Gold.Chemscore.Metal>
0.0000

> <Gold.Chemscore.Lipo>
70.3803

> <Gold.Chemscore.Internal_Hbond>
0.0000

> <Gold.Chemscore.DEClash>
0.3307

> <Gold.Chemscore.DEInternal>
1.8078

> <Gold.Chemscore.Rot>
1.3658

> <Gold.Chemscore.Internal.Correction>
   9.000000E+99

> <Gold.Chemscore.Hbonds>
donor molecule, donor type, donor heavy atom, donor atom, acceptor molecule, acceptor atom, score
      L1  H     6    28       P1  7948  0.96
      L1  H     9    29       P1  7948  0.90
      P1  H  7989  7998       L1    14  0.65

> <Gold.Chemscore.Hbond.Weighted>
-9.5391

> <Gold.Chemscore.Metal.Weighted>
-0.0000

> <Gold.Chemscore.Lipo.Weighted>
-8.2345

> <Gold.Chemscore.Internal_Hbond.Weighted>
0.0000

> <Gold.Chemscore.DEClash.Weighted>
0.3307

> <Gold.Chemscore.DEInternal.Weighted>
1.8078

> <Gold.Chemscore.Rot.Weighted>
3.4963

> <Gold.Chemscore.Internal.Correction.Weighted>
   9.000000E+99

> <Gold.Protein.RotatedTorsions>
[ 6907 6896 6895 6894 ] final  -50.59 input  -60.11 | X-H torsion
[ 7974 7965 7964 7962 ] final -133.22 input  175.53 | X-H torsion
[ 8008 7997 7996 7995 ] final   -8.63 input   59.86 | X-H torsion
[ 10167 10162 10161 10158 ] final   69.74 input  -65.29 | X-H torsion
[ 10718 10713 10712 10709 ] final  140.03 input   66.30 | X-H torsion
[ 10763 10752 10751 10750 ] final  140.44 input  -60.55 | X-H torsion
[ 11005 11000 10999 10996 ] final  -10.30 input  -57.11 | X-H torsion

> <Gold.Protein.ActiveResidues>
 VAL166  LYS551  ARG553  GLY616  TRP617  ASP618  TYR619  PRO620  LYS621  CYS622 
 ASP623  PHE694  ASN695  SER759  ASP760  ASP761  ALA762  ILE779  LEU786  VAL792 
 PHE793  MET794  SER795  GLU796  ALA797  LYS798  CYS799  TRP800  GLU811  SER814 

> <Gold.Protein.RotatedAtoms>
  150.8693  134.8063  159.7142 H   0  0  0  0  0  0  0  0  0  0  0  0  # atno 6907 bound_to 6896
  152.4703  134.4973  159.9723 H   0  0  0  0  0  0  0  0  0  0  0  0  # atno 6908 bound_to 6896
  151.5064  133.3455  159.2913 H   0  0  0  0  0  0  0  0  0  0  0  0  # atno 6909 bound_to 6896
  144.9213  140.7017  143.4963 H   0  0  0  0  0  0  0  0  0  0  0  0  # atno 7974 bound_to 7965
  154.5723  140.2376  155.8174 H   0  0  0  0  0  0  0  0  0  0  0  0  # atno 8008 bound_to 7997
  156.2116  140.3024  155.9703 H   0  0  0  0  0  0  0  0  0  0  0  0  # atno 8009 bound_to 7997
  155.2690  140.0417  157.2995 H   0  0  0  0  0  0  0  0  0  0  0  0  # atno 8010 bound_to 7997
  140.0645  144.5205  150.7271 H   0  0  0  0  0  0  0  0  0  0  0  0  # atno 10167 bound_to 10162
  157.4078  131.1024  151.0486 H   0  0  0  0  0  0  0  0  0  0  0  0  # atno 10718 bound_to 10713
  153.9227  135.2999  155.3447 H   0  0  0  0  0  0  0  0  0  0  0  0  # atno 10763 bound_to 10752
  154.7567  135.4954  153.9391 H   0  0  0  0  0  0  0  0  0  0  0  0  # atno 10764 bound_to 10752
  153.1133  135.6764  153.9565 H   0  0  0  0  0  0  0  0  0  0  0  0  # atno 10765 bound_to 10752
  140.7432  133.8653  155.8985 H   0  0  0  0  0  0  0  0  0  0  0  0  # atno 11005 bound_to 11000
  145.3292  139.1765  143.4546 LP  0  0  0  0  0  0  0  0  0  0  0  0  # atno 17320 bound_to 7965
  146.3206  140.3319  142.8641 LP  0  0  0  0  0  0  0  0  0  0  0  0  # atno 17321 bound_to 7965
  140.7156  143.2541  151.4445 LP  0  0  0  0  0  0  0  0  0  0  0  0  # atno 17342 bound_to 10162
  139.5873  144.1575  152.2045 LP  0  0  0  0  0  0  0  0  0  0  0  0  # atno 17343 bound_to 10162
  157.1461  130.6164  149.5569 LP  0  0  0  0  0  0  0  0  0  0  0  0  # atno 17370 bound_to 10713
  155.9841  130.4865  150.6968 LP  0  0  0  0  0  0  0  0  0  0  0  0  # atno 17371 bound_to 10713
  140.9817  134.1396  157.4488 LP  0  0  0  0  0  0  0  0  0  0  0  0  # atno 17394 bound_to 11000
  139.8802  135.0013  156.6058 LP  0  0  0  0  0  0  0  0  0  0  0  0  # atno 17395 bound_to 11000

$$$$
