AV-unprocessed.smi:2627|AV-procd|sdf|10239|dock5
  -GOLD-   2272014243D 1   1.00000     0.00000
 Structure written by MMmdl.
 39 41  0  0  0  0  0  0  0  0  1 V2000
  151.7282  139.0248  155.0812 C   0  0  0  0  0  0  0  0  0  0  0  0
  150.5679  139.9510  155.4687 C   0  0  2  0  0  0  0  0  0  0  0  0
  150.0544  140.5314  154.2863 O   0  0  0  0  0  0  0  0  0  0  0  0
  150.9897  140.9844  156.4779 C   0  0  0  0  0  0  0  0  0  0  0  0
  150.9548  142.2928  156.2140 N   0  0  0  0  0  0  0  0  0  0  0  0
  151.4238  142.8555  157.3844 C   0  0  0  0  0  0  0  0  0  0  0  0
  151.6140  144.2097  157.7406 C   0  0  0  0  0  0  0  0  0  0  0  0
  152.1100  144.5493  159.0164 C   0  0  0  0  0  0  0  0  0  0  0  0
  152.4225  143.5418  159.9518 C   0  0  0  0  0  0  0  0  0  0  0  0
  152.2420  142.1861  159.6161 C   0  0  0  0  0  0  0  0  0  0  0  0
  151.7469  141.8528  158.3411 C   0  0  0  0  0  0  0  0  0  0  0  0
  151.4607  140.6483  157.7066 N   0  0  0  0  0  0  0  0  0  0  0  0
  151.6345  139.3216  158.2768 C   0  0  0  0  0  0  0  0  0  0  0  0
  152.9687  138.6974  157.8514 C   0  0  0  0  0  0  0  0  0  0  0  0
  154.0210  139.3874  158.5096 O   0  0  0  0  0  0  0  0  0  0  0  0
  154.2771  139.0787  159.8284 C   0  0  0  0  0  0  0  0  0  0  0  0
  154.8355  140.0983  160.6271 C   0  0  0  0  0  0  0  0  0  0  0  0
  155.1301  139.8709  161.9852 C   0  0  0  0  0  0  0  0  0  0  0  0
  154.8662  138.6146  162.5612 C   0  0  0  0  0  0  0  0  0  0  0  0
  154.3079  137.5883  161.7767 C   0  0  0  0  0  0  0  0  0  0  0  0
  154.0141  137.8157  160.4179 C   0  0  0  0  0  0  0  0  0  0  0  0
  152.1273  138.5106  155.9558 H   0  0  0  0  0  0  0  0  0  0  0  0
  152.5452  139.5835  154.6229 H   0  0  0  0  0  0  0  0  0  0  0  0
  151.4048  138.2637  154.3705 H   0  0  0  0  0  0  0  0  0  0  0  0
  149.7578  139.3519  155.8826 H   0  0  0  0  0  0  0  0  0  0  0  0
  149.4898  141.2497  154.5271 H   0  0  0  0  0  0  0  0  0  0  0  0
  151.3760  144.9886  157.0314 H   0  0  0  0  0  0  0  0  0  0  0  0
  152.2501  145.5877  159.2787 H   0  0  0  0  0  0  0  0  0  0  0  0
  152.8005  143.8104  160.9275 H   0  0  0  0  0  0  0  0  0  0  0  0
  152.4799  141.4123  160.3310 H   0  0  0  0  0  0  0  0  0  0  0  0
  151.5615  139.3806  159.3626 H   0  0  0  0  0  0  0  0  0  0  0  0
  150.8066  138.6905  157.9525 H   0  0  0  0  0  0  0  0  0  0  0  0
  152.9810  137.6402  158.1209 H   0  0  0  0  0  0  0  0  0  0  0  0
  153.0890  138.7747  156.7697 H   0  0  0  0  0  0  0  0  0  0  0  0
  155.0418  141.0660  160.1936 H   0  0  0  0  0  0  0  0  0  0  0  0
  155.5585  140.6609  162.5842 H   0  0  0  0  0  0  0  0  0  0  0  0
  155.0914  138.4386  163.6026 H   0  0  0  0  0  0  0  0  0  0  0  0
  154.1040  136.6236  162.2178 H   0  0  0  0  0  0  0  0  0  0  0  0
  153.5860  137.0039  159.8496 H   0  0  0  0  0  0  0  0  0  0  0  0
  1  2  1  0  0  0  0
  1 22  1  0  0  0  0
  1 23  1  0  0  0  0
  1 24  1  0  0  0  0
  2  3  1  0  0  0  0
  2  4  1  0  0  0  0
  2 25  1  0  0  0  0
  3 26  1  0  0  0  0
  4 12  1  0  0  0  0
  4  5  2  0  0  0  0
  5  6  1  0  0  0  0
  6 11  2  0  0  0  0
  6  7  1  0  0  0  0
  7  8  2  0  0  0  0
  7 27  1  0  0  0  0
  8  9  1  0  0  0  0
  8 28  1  0  0  0  0
  9 10  2  0  0  0  0
  9 29  1  0  0  0  0
 10 11  1  0  0  0  0
 10 30  1  0  0  0  0
 11 12  1  0  0  0  0
 12 13  1  0  0  0  0
 13 14  1  0  0  0  0
 13 31  1  0  0  0  0
 13 32  1  0  0  0  0
 14 15  1  0  0  0  0
 14 33  1  0  0  0  0
 14 34  1  0  0  0  0
 15 16  1  0  0  0  0
 16 21  1  0  0  0  0
 16 17  2  0  0  0  0
 17 18  1  0  0  0  0
 17 35  1  0  0  0  0
 18 19  2  0  0  0  0
 18 36  1  0  0  0  0
 19 20  1  0  0  0  0
 19 37  1  0  0  0  0
 20 21  2  0  0  0  0
 20 38  1  0  0  0  0
 21 39  1  0  0  0  0
M  END
> <s_m_source_file>
AV-unprocessed.smi

> <i_m_source_file_index>
2627

> <i_lp_mmshare_version>
43012

> <i_f3d_flags>
0

> <s_epik_input>
W2NIXTFbY0hdW2NIXVtjSF1jKGMxMiluKGMobjIpW0NASF0oW0NIM10pW09IXSlbQ0gyXVtDSDJdT2MzW2NIXVtjSF1bY0hdW2NIXVtjSF0z

> <s_epik_cmdline>
J2VwaWtfcHl0aG9uJywgJy1waCcsICc3LjAnLCAnLXRuJywgJzgnLCAnLW1hJywgJzIwMCcsICctbWV0YWxfYmluZGluZycsICctaW1hZScsICc8aW5maWxlLm1hZT4nLCAnLW9tYWUnLCAnPG91dGZpbGUubWFlPic=

> <r_lp_tautomer_probability>
1

> <r_epik_Ionization_Penalty>
0.0472514

> <r_epik_Ionization_Penalty_Charging>
0

> <r_epik_Ionization_Penalty_Neutral>
0.0472514

> <r_epik_State_Penalty>
0.040225

> <r_epik_Charging_Adjusted_Penalty>
0.040225

> <i_epik_Tot_Q>
0

> <i_epik_Tot_abs_Q>
0

> <r_epik_Metal_State_Penalty>
4.16204e-05

> <b_epik_Metal_Only>
0

> <s_lp_Force_Field>
OPLS_2005

> <r_lp_Energy>
15.0565

> <b_lp_Chiralities_Consistent>
1

> <s_lp_Variant>
AV-unprocessed.smi:2627-1

> <Gold.Version>
5.8.1

> <Gold.Id.Protein>
6NUR|6NUR_protein|mol2

> <Gold.PLP.Fitness>
49.9869

> <Gold.PLP.PLP>
-46.0974

> <Gold.PLP.part.hbond>
-2.5196

> <Gold.PLP.part.metal>
0.0000

> <Gold.PLP.part.buried>
-3.8879

> <Gold.PLP.part.nonpolar>
-39.5695

> <Gold.PLP.part.repulsive>
0.1024

> <Gold.PLP.ligand.clash>
0.0000

> <Gold.PLP.ligand.torsion>
0.8335

> <Gold.PLP.Chemscore.Hbond>
1.8320

> <Gold.PLP.Chemscore.CHOScore>
0.0000

> <Gold.PLP.Chemscore.Metal>
0.0000

> <Gold.Chemscore.Hbonds>
donor molecule, donor type, donor heavy atom, donor atom, acceptor molecule, acceptor atom, score
      P1  H  7989  7998       L1     3  0.73
      P1  H  7997  8008       L1    15  1.00

> <Gold.PLP.Chemscore.Internal.Correction>
0.0606

> <Gold.Rescore>
     Score         DG    S(hbond)    S(metal)    S(lipo)     H(rot)  DE(clash)    DE(int)     intcor
     18.19     -19.12       1.16        0.00     128.54       2.06       0.09       0.84       ----

> <Gold.Chemscore.Fitness>
18.1901

> <Gold.Chemscore.DG>
-19.1227

> <Gold.Chemscore.ZeroCoef>
-5.4800

> <Gold.Chemscore.Hbond>
1.1591

> <Gold.Chemscore.Metal>
0.0000

> <Gold.Chemscore.Lipo>
128.5405

> <Gold.Chemscore.Internal_Hbond>
0.0000

> <Gold.Chemscore.DEClash>
0.0945

> <Gold.Chemscore.DEInternal>
0.8381

> <Gold.Chemscore.Rot>
2.0577

> <Gold.Chemscore.Internal.Correction>
   9.000000E+99

> <Gold.Chemscore.Hbonds>
donor molecule, donor type, donor heavy atom, donor atom, acceptor molecule, acceptor atom, score
      P1  H  7989  7998       L1     3  0.14
      P1  H  7997  8008       L1    15  0.25

> <Gold.Chemscore.Hbond.Weighted>
-3.8713

> <Gold.Chemscore.Metal.Weighted>
-0.0000

> <Gold.Chemscore.Lipo.Weighted>
-15.0392

> <Gold.Chemscore.Internal_Hbond.Weighted>
0.0000

> <Gold.Chemscore.DEClash.Weighted>
0.0945

> <Gold.Chemscore.DEInternal.Weighted>
0.8381

> <Gold.Chemscore.Rot.Weighted>
5.2678

> <Gold.Chemscore.Internal.Correction.Weighted>
   9.000000E+99

> <Gold.Protein.RotatedTorsions>
[ 6907 6896 6895 6894 ] final  130.19 input  -60.11 | X-H torsion
[ 7974 7965 7964 7962 ] final  164.17 input  175.53 | X-H torsion
[ 8008 7997 7996 7995 ] final -101.06 input   59.86 | X-H torsion
[ 10167 10162 10161 10158 ] final -123.85 input  -65.29 | X-H torsion
[ 10718 10713 10712 10709 ] final -140.53 input   66.30 | X-H torsion
[ 10763 10752 10751 10750 ] final  174.95 input  -60.55 | X-H torsion
[ 11005 11000 10999 10996 ] final   46.40 input  -57.11 | X-H torsion

> <Gold.Protein.ActiveResidues>
 VAL166  LYS551  ARG553  GLY616  TRP617  ASP618  TYR619  PRO620  LYS621  CYS622 
 ASP623  PHE694  ASN695  SER759  ASP760  ASP761  ALA762  ILE779  LEU786  VAL792 
 PHE793  MET794  SER795  GLU796  ALA797  LYS798  CYS799  TRP800  GLU811  SER814 

> <Gold.Protein.RotatedAtoms>
  152.3550  133.6226  159.5972 H   0  0  0  0  0  0  0  0  0  0  0  0  # atno 6907 bound_to 6896
  150.7562  133.9514  159.3496 H   0  0  0  0  0  0  0  0  0  0  0  0  # atno 6908 bound_to 6896
  151.7361  135.0865  160.0359 H   0  0  0  0  0  0  0  0  0  0  0  0  # atno 6909 bound_to 6896
  144.7557  139.8287  143.6351 H   0  0  0  0  0  0  0  0  0  0  0  0  # atno 7974 bound_to 7965
  154.8374  140.0437  157.1518 H   0  0  0  0  0  0  0  0  0  0  0  0  # atno 8008 bound_to 7997
  154.9085  140.3010  155.5258 H   0  0  0  0  0  0  0  0  0  0  0  0  # atno 8009 bound_to 7997
  156.2990  140.2362  156.4122 H   0  0  0  0  0  0  0  0  0  0  0  0  # atno 8010 bound_to 7997
  139.9991  143.5560  152.2311 H   0  0  0  0  0  0  0  0  0  0  0  0  # atno 10167 bound_to 10162
  156.3234  130.7547  151.1649 H   0  0  0  0  0  0  0  0  0  0  0  0  # atno 10718 bound_to 10713
  154.4609  135.2767  155.1713 H   0  0  0  0  0  0  0  0  0  0  0  0  # atno 10763 bound_to 10752
  154.3501  135.6152  153.5642 H   0  0  0  0  0  0  0  0  0  0  0  0  # atno 10764 bound_to 10752
  152.9855  135.5809  154.4972 H   0  0  0  0  0  0  0  0  0  0  0  0  # atno 10765 bound_to 10752
  140.1372  134.4629  155.8476 H   0  0  0  0  0  0  0  0  0  0  0  0  # atno 11005 bound_to 11000
  146.1563  139.4663  143.0016 LP  0  0  0  0  0  0  0  0  0  0  0  0  # atno 17320 bound_to 7965
  145.6788  141.0196  143.1617 LP  0  0  0  0  0  0  0  0  0  0  0  0  # atno 17321 bound_to 7965
  139.6285  144.7641  151.2587 LP  0  0  0  0  0  0  0  0  0  0  0  0  # atno 17342 bound_to 10162
  140.7426  143.6522  150.8239 LP  0  0  0  0  0  0  0  0  0  0  0  0  # atno 17343 bound_to 10162
  157.7416  131.0501  150.5083 LP  0  0  0  0  0  0  0  0  0  0  0  0  # atno 17370 bound_to 10713
  156.5238  130.4168  149.6236 LP  0  0  0  0  0  0  0  0  0  0  0  0  # atno 17371 bound_to 10713
  141.2180  133.6819  156.7179 LP  0  0  0  0  0  0  0  0  0  0  0  0  # atno 17394 bound_to 11000
  140.2767  134.8349  157.3897 LP  0  0  0  0  0  0  0  0  0  0  0  0  # atno 17395 bound_to 11000

$$$$
