AV-unprocessed.smi:58|AV-procd|sdf|583|dock6
  -GOLD-   2262016483D 1   1.00000     0.00000
 Structure written by MMmdl.
 32 33  0  0  0  0  0  0  0  0  1 V2000
  151.7333  145.0092  158.9109 C   0  0  0  0  0  0  0  0  0  0  0  0
  152.1725  143.6341  159.0090 N   0  0  0  0  0  0  0  0  0  0  0  0
  152.8758  143.0257  160.0252 C   0  0  0  0  0  0  0  0  0  0  0  0
  153.0526  141.7177  159.6733 C   0  0  0  0  0  0  0  0  0  0  0  0
  153.7164  140.7418  160.4459 N   0  0  0  0  0  0  0  0  0  0  0  0
  152.4300  141.6229  158.3891 C   0  0  0  0  0  0  0  0  0  0  0  0
  152.3589  140.3143  157.6516 C   0  0  0  0  0  0  0  0  0  0  0  0
  153.1494  139.4155  157.9419 O   0  0  0  0  0  0  0  0  0  0  0  0
  151.4503  140.1985  156.6543 N   0  0  0  0  0  0  0  0  0  0  0  0
  150.4642  141.2123  156.2708 C   0  0  0  0  0  0  0  0  0  0  0  0
  149.7622  140.6726  155.0267 C   0  0  0  0  0  0  0  0  0  0  0  0
  149.9325  139.1652  155.1380 C   0  0  0  0  0  0  0  0  0  0  0  0
  151.2862  138.9873  155.8390 C   0  0  1  0  0  0  0  0  0  0  0  0
  152.4519  138.8251  154.8375 C   0  0  0  0  0  0  0  0  0  0  0  0
  152.2794  137.6532  154.0692 O   0  0  0  0  0  0  0  0  0  0  0  0
  151.8850  142.7727  158.0127 N   0  0  0  0  0  0  0  0  0  0  0  0
  152.0617  145.5699  159.7864 H   0  0  0  0  0  0  0  0  0  0  0  0
  150.6451  145.0459  158.8542 H   0  0  0  0  0  0  0  0  0  0  0  0
  152.1555  145.4689  158.0167 H   0  0  0  0  0  0  0  0  0  0  0  0
  153.1837  143.5669  160.9081 H   0  0  0  0  0  0  0  0  0  0  0  0
  154.1182  140.9636  161.3458 H   0  0  0  0  0  0  0  0  0  0  0  0
  153.9489  139.8340  160.0694 H   0  0  0  0  0  0  0  0  0  0  0  0
  149.7406  141.3327  157.0780 H   0  0  0  0  0  0  0  0  0  0  0  0
  150.9251  142.1815  156.0747 H   0  0  0  0  0  0  0  0  0  0  0  0
  148.7172  140.9771  154.9648 H   0  0  0  0  0  0  0  0  0  0  0  0
  150.2696  141.0346  154.1316 H   0  0  0  0  0  0  0  0  0  0  0  0
  149.1413  138.7592  155.7698 H   0  0  0  0  0  0  0  0  0  0  0  0
  149.8696  138.6615  154.1729 H   0  0  0  0  0  0  0  0  0  0  0  0
  151.2456  138.1126  156.4914 H   0  0  0  0  0  0  0  0  0  0  0  0
  152.5246  139.6880  154.1747 H   0  0  0  0  0  0  0  0  0  0  0  0
  153.4079  138.7391  155.3537 H   0  0  0  0  0  0  0  0  0  0  0  0
  152.0746  137.9036  153.1811 H   0  0  0  0  0  0  0  0  0  0  0  0
  1  2  1  0  0  0  0
  1 17  1  0  0  0  0
  1 18  1  0  0  0  0
  1 19  1  0  0  0  0
  2 16  1  0  0  0  0
  2  3  1  0  0  0  0
  3  4  2  0  0  0  0
  3 20  1  0  0  0  0
  4  5  1  0  0  0  0
  4  6  1  0  0  0  0
  5 21  1  0  0  0  0
  5 22  1  0  0  0  0
  6  7  1  0  0  0  0
  6 16  2  0  0  0  0
  7  8  2  0  0  0  0
  7  9  1  0  0  0  0
  9 13  1  0  0  0  0
  9 10  1  0  0  0  0
 10 11  1  0  0  0  0
 10 23  1  0  0  0  0
 10 24  1  0  0  0  0
 11 12  1  0  0  0  0
 11 25  1  0  0  0  0
 11 26  1  0  0  0  0
 12 13  1  0  0  0  0
 12 27  1  0  0  0  0
 12 28  1  0  0  0  0
 13 14  1  0  0  0  0
 13 29  1  0  0  0  0
 14 15  1  0  0  0  0
 14 30  1  0  0  0  0
 14 31  1  0  0  0  0
 15 32  1  0  0  0  0
M  END
> <s_m_source_file>
AV-unprocessed.smi

> <i_m_source_file_index>
58

> <i_lp_mmshare_version>
43012

> <i_f3d_flags>
0

> <s_epik_input>
W0NIM11uMVtjSF1jKFtOSDJdKWMobjEpQyg9TylOMltDSDJdW0NIMl1bQ0gyXVtDQEhdMltDSDJdW09IXQ==

> <s_epik_cmdline>
J2VwaWtfcHl0aG9uJywgJy1waCcsICc3LjAnLCAnLXRuJywgJzgnLCAnLW1hJywgJzIwMCcsICctbWV0YWxfYmluZGluZycsICctaW1hZScsICc8aW5maWxlLm1hZT4nLCAnLW9tYWUnLCAnPG91dGZpbGUubWFlPic=

> <r_lp_tautomer_probability>
1

> <r_epik_Ionization_Penalty>
5.64206e-05

> <r_epik_Ionization_Penalty_Charging>
0

> <r_epik_Ionization_Penalty_Neutral>
5.64206e-05

> <r_epik_State_Penalty>
-0

> <r_epik_Charging_Adjusted_Penalty>
0

> <i_epik_Tot_Q>
0

> <i_epik_Tot_abs_Q>
0

> <r_epik_Metal_State_Penalty>
-0

> <b_epik_Metal_Only>
0

> <s_lp_Force_Field>
OPLS_2005

> <r_lp_Energy>
40.444

> <b_lp_Chiralities_Consistent>
1

> <s_lp_Variant>
AV-unprocessed.smi:58-1

> <Gold.Version>
5.8.1

> <Gold.Id.Protein>
6NUR|6NUR_protein|mol2

> <Gold.PLP.Fitness>
40.5869

> <Gold.PLP.PLP>
-35.7286

> <Gold.PLP.part.hbond>
-2.1601

> <Gold.PLP.part.metal>
0.0000

> <Gold.PLP.part.buried>
-2.9583

> <Gold.PLP.part.nonpolar>
-30.3862

> <Gold.PLP.part.repulsive>
0.1003

> <Gold.PLP.ligand.clash>
0.4936

> <Gold.PLP.ligand.torsion>
0.1434

> <Gold.PLP.Chemscore.Hbond>
1.7840

> <Gold.PLP.Chemscore.CHOScore>
0.0000

> <Gold.PLP.Chemscore.Metal>
0.0000

> <Gold.Chemscore.Hbonds>
donor molecule, donor type, donor heavy atom, donor atom, acceptor molecule, acceptor atom, score
      P1  H  7997  8010       L1     8  0.99
      P1  H 10752 10765       L1    15  0.70

> <Gold.PLP.Chemscore.Internal.Correction>
0.2868

> <Gold.Rescore>
     Score         DG    S(hbond)    S(metal)    S(lipo)     H(rot)  DE(clash)    DE(int)     intcor
     11.09     -14.05       1.18        0.00      72.29       1.49       0.08       2.88       ----

> <Gold.Chemscore.Fitness>
11.0899

> <Gold.Chemscore.DG>
-14.0492

> <Gold.Chemscore.ZeroCoef>
-5.4800

> <Gold.Chemscore.Hbond>
1.1760

> <Gold.Chemscore.Metal>
0.0000

> <Gold.Chemscore.Lipo>
72.2887

> <Gold.Chemscore.Internal_Hbond>
0.0000

> <Gold.Chemscore.DEClash>
0.0814

> <Gold.Chemscore.DEInternal>
2.8779

> <Gold.Chemscore.Rot>
1.4907

> <Gold.Chemscore.Internal.Correction>
   9.000000E+99

> <Gold.Chemscore.Hbonds>
donor molecule, donor type, donor heavy atom, donor atom, acceptor molecule, acceptor atom, score
      P1  H  7997  8010       L1     8  0.37
      P1  H 10752 10765       L1    15  0.53

> <Gold.Chemscore.Hbond.Weighted>
-3.9277

> <Gold.Chemscore.Metal.Weighted>
-0.0000

> <Gold.Chemscore.Lipo.Weighted>
-8.4578

> <Gold.Chemscore.Internal_Hbond.Weighted>
0.0000

> <Gold.Chemscore.DEClash.Weighted>
0.0814

> <Gold.Chemscore.DEInternal.Weighted>
2.8779

> <Gold.Chemscore.Rot.Weighted>
3.8163

> <Gold.Chemscore.Internal.Correction.Weighted>
   9.000000E+99

> <Gold.Protein.RotatedTorsions>
[ 6907 6896 6895 6894 ] final  133.49 input  -60.11 | X-H torsion
[ 7974 7965 7964 7962 ] final  109.89 input  175.53 | X-H torsion
[ 8008 7997 7996 7995 ] final   19.12 input   59.86 | X-H torsion
[ 10167 10162 10161 10158 ] final   54.35 input  -65.29 | X-H torsion
[ 10718 10713 10712 10709 ] final -169.32 input   66.30 | X-H torsion
[ 10763 10752 10751 10750 ] final  153.09 input  -60.55 | X-H torsion
[ 11005 11000 10999 10996 ] final  -18.47 input  -57.11 | X-H torsion

> <Gold.Protein.ActiveResidues>
 VAL166  LYS551  ARG553  GLY616  TRP617  ASP618  TYR619  PRO620  LYS621  CYS622 
 ASP623  PHE694  ASN695  SER759  ASP760  ASP761  ALA762  ILE779  LEU786  VAL792 
 PHE793  MET794  SER795  GLU796  ALA797  LYS798  CYS799  TRP800  GLU811  SER814 

> <Gold.Protein.RotatedAtoms>
  152.3214  133.5857  159.5746 H   0  0  0  0  0  0  0  0  0  0  0  0  # atno 6907 bound_to 6896
  150.7373  134.0006  159.3646 H   0  0  0  0  0  0  0  0  0  0  0  0  # atno 6908 bound_to 6896
  151.7890  135.0741  160.0435 H   0  0  0  0  0  0  0  0  0  0  0  0  # atno 6909 bound_to 6896
  145.2620  139.2699  143.4012 H   0  0  0  0  0  0  0  0  0  0  0  0  # atno 7974 bound_to 7965
  154.9160  140.3020  155.5241 H   0  0  0  0  0  0  0  0  0  0  0  0  # atno 8008 bound_to 7997
  156.3012  140.2380  156.4140 H   0  0  0  0  0  0  0  0  0  0  0  0  # atno 8009 bound_to 7997
  154.8378  140.0415  157.1509 H   0  0  0  0  0  0  0  0  0  0  0  0  # atno 8010 bound_to 7997
  140.2310  144.3686  150.6414 H   0  0  0  0  0  0  0  0  0  0  0  0  # atno 10167 bound_to 10162
  156.7098  130.9229  151.3088 H   0  0  0  0  0  0  0  0  0  0  0  0  # atno 10718 bound_to 10713
  154.1305  135.2827  155.3186 H   0  0  0  0  0  0  0  0  0  0  0  0  # atno 10763 bound_to 10752
  154.6359  135.5419  153.7736 H   0  0  0  0  0  0  0  0  0  0  0  0  # atno 10764 bound_to 10752
  153.0283  135.6474  154.1456 H   0  0  0  0  0  0  0  0  0  0  0  0  # atno 10765 bound_to 10752
  140.8271  133.8024  155.9720 H   0  0  0  0  0  0  0  0  0  0  0  0  # atno 11005 bound_to 11000
  146.3272  140.3040  142.8622 LP  0  0  0  0  0  0  0  0  0  0  0  0  # atno 17320 bound_to 7965
  144.9410  140.8078  143.5631 LP  0  0  0  0  0  0  0  0  0  0  0  0  # atno 17321 bound_to 7965
  140.6185  143.2174  151.6743 LP  0  0  0  0  0  0  0  0  0  0  0  0  # atno 17342 bound_to 10162
  139.5110  144.3524  152.0639 LP  0  0  0  0  0  0  0  0  0  0  0  0  # atno 17343 bound_to 10162
  157.6940  130.9263  150.0593 LP  0  0  0  0  0  0  0  0  0  0  0  0  # atno 17370 bound_to 10713
  156.1669  130.3645  149.9220 LP  0  0  0  0  0  0  0  0  0  0  0  0  # atno 17371 bound_to 10713
  140.9037  134.2346  157.5026 LP  0  0  0  0  0  0  0  0  0  0  0  0  # atno 17394 bound_to 11000
  139.8706  134.9718  156.4752 LP  0  0  0  0  0  0  0  0  0  0  0  0  # atno 17395 bound_to 11000

$$$$
