AV-unprocessed.smi:581|AV-procd|sdf|2991|dock2
  -GOLD-   2262023493D 1   1.00000     0.00000
 Structure written by MMmdl.
 35 36  0  0  0  0  0  0  0  0  2 V2000
  152.0860  137.9906  158.7623 C   0  0  0  0  0  0  0  0  0  0  0  0
  151.6973  139.2628  158.0301 C   0  0  0  0  0  0  0  0  0  0  0  0
  151.8490  140.4503  158.7571 N   0  0  0  0  0  0  0  0  0  0  0  0
  151.5487  141.5900  158.2178 C   0  0  0  0  0  0  0  0  0  0  0  0
  151.6469  142.8389  158.8362 N   0  0  0  0  0  0  0  0  0  0  0  0
  151.5816  144.0858  158.0694 C   0  0  0  0  0  0  0  0  0  0  0  0
  151.1578  145.2675  158.9576 C   0  0  0  0  0  0  0  0  0  0  0  0
  152.0385  145.3736  160.0675 O   0  0  0  0  0  0  0  0  0  0  0  0
  151.9956  144.2057  160.8756 C   0  0  0  0  0  0  0  0  0  0  0  0
  152.4471  142.9882  160.0517 C   0  0  0  0  0  0  0  0  0  0  0  0
  151.0611  141.6392  156.9073 N   0  0  0  0  0  0  0  0  0  0  0  0
  150.8808  140.5531  156.1235 C   0  0  0  0  0  0  0  0  0  0  0  0
  150.4526  140.6783  154.9773 O   0  0  0  0  0  0  0  0  0  0  0  0
  151.2336  139.2681  156.7489 C   0  0  0  0  0  0  0  0  0  0  0  0
  151.0357  137.9970  155.9270 C   0  0  0  0  0  0  0  0  0  0  0  0
  151.8363  138.0273  154.6080 C   0  0  0  0  0  0  0  0  0  0  0  0
  153.2887  138.4880  154.7901 C   0  0  0  0  0  0  0  0  0  0  0  0
  154.0701  137.7717  155.4552 O   0  0  0  0  0  0  0  0  0  0  0  0
  153.5953  139.5725  154.2492 O   0  5  0  0  0  0  0  0  0  0  0  0
  150.8276  142.5386  156.5138 H   0  0  0  0  0  0  0  0  0  0  0  0
  152.7834  137.4007  158.1670 H   0  0  0  0  0  0  0  0  0  0  0  0
  151.2030  137.3842  158.9651 H   0  0  0  0  0  0  0  0  0  0  0  0
  152.5674  138.2131  159.7153 H   0  0  0  0  0  0  0  0  0  0  0  0
  152.5655  144.2808  157.6405 H   0  0  0  0  0  0  0  0  0  0  0  0
  150.8865  144.0121  157.2331 H   0  0  0  0  0  0  0  0  0  0  0  0
  151.1934  146.1959  158.3877 H   0  0  0  0  0  0  0  0  0  0  0  0
  150.1297  145.1453  159.3025 H   0  0  0  0  0  0  0  0  0  0  0  0
  152.6544  144.3434  161.7328 H   0  0  0  0  0  0  0  0  0  0  0  0
  150.9886  144.0568  161.2689 H   0  0  0  0  0  0  0  0  0  0  0  0
  152.3725  142.0938  160.6719 H   0  0  0  0  0  0  0  0  0  0  0  0
  153.4961  143.0949  159.7725 H   0  0  0  0  0  0  0  0  0  0  0  0
  151.3248  137.1274  156.5173 H   0  0  0  0  0  0  0  0  0  0  0  0
  149.9721  137.8625  155.7224 H   0  0  0  0  0  0  0  0  0  0  0  0
  151.8460  137.0356  154.1544 H   0  0  0  0  0  0  0  0  0  0  0  0
  151.3517  138.6947  153.8946 H   0  0  0  0  0  0  0  0  0  0  0  0
  1  2  1  0  0  0  0
  1 21  1  0  0  0  0
  1 22  1  0  0  0  0
  1 23  1  0  0  0  0
  2 14  2  0  0  0  0
  2  3  1  0  0  0  0
  3  4  2  0  0  0  0
  4  5  1  0  0  0  0
  4 11  1  0  0  0  0
  5 10  1  0  0  0  0
  5  6  1  0  0  0  0
  6  7  1  0  0  0  0
  6 24  1  0  0  0  0
  6 25  1  0  0  0  0
  7  8  1  0  0  0  0
  7 26  1  0  0  0  0
  7 27  1  0  0  0  0
  8  9  1  0  0  0  0
  9 10  1  0  0  0  0
  9 28  1  0  0  0  0
  9 29  1  0  0  0  0
 10 30  1  0  0  0  0
 10 31  1  0  0  0  0
 11 20  1  0  0  0  0
 11 12  1  0  0  0  0
 12 13  2  0  0  0  0
 12 14  1  0  0  0  0
 14 15  1  0  0  0  0
 15 16  1  0  0  0  0
 15 32  1  0  0  0  0
 15 33  1  0  0  0  0
 16 17  1  0  0  0  0
 16 34  1  0  0  0  0
 16 35  1  0  0  0  0
 17 18  2  0  0  0  0
 17 19  1  0  0  0  0
M  CHG  1  19  -1
M  END
> <s_m_source_file>
AV-unprocessed.smi

> <i_m_source_file_index>
581

> <i_lp_mmshare_version>
43012

> <i_f3d_flags>
0

> <s_epik_input>
W0NIMl0xW0NIMl1PW0NIMl1bQ0gyXU4xYyhuYzJbQ0gzXSlbbkhdYyg9TyljMltDSDJdW0NIMl1DKD1PKVtPSF0=

> <s_epik_cmdline>
J2VwaWtfcHl0aG9uJywgJy1waCcsICc3LjAnLCAnLXRuJywgJzgnLCAnLW1hJywgJzIwMCcsICctbWV0YWxfYmluZGluZycsICctaW1hZScsICc8aW5maWxlLm1hZT4nLCAnLW9tYWUnLCAnPG91dGZpbGUubWFlPic=

> <r_lp_tautomer_probability>
0.878553

> <r_epik_Ionization_Penalty>
0.00211884

> <r_epik_Ionization_Penalty_Charging>
0.00208365

> <r_epik_Ionization_Penalty_Neutral>
3.51846e-05

> <r_epik_State_Penalty>
0.0663044

> <r_epik_Charging_Adjusted_Penalty>
0.0683881

> <i_epik_Tot_Q>
-1

> <i_epik_Tot_abs_Q>
1

> <r_epik_Metal_State_Penalty>
0.312881

> <b_epik_Metal_Only>
0

> <s_lp_Force_Field>
OPLS_2005

> <r_lp_Energy>
24.7506

> <b_lp_Chiralities_Consistent>
1

> <s_lp_Variant>
AV-unprocessed.smi:581-1

> <Gold.Version>
5.8.1

> <Gold.Id.Protein>
6NUR|6NUR_protein|mol2

> <Gold.PLP.Fitness>
45.6689

> <Gold.PLP.PLP>
-36.7351

> <Gold.PLP.part.hbond>
-4.2278

> <Gold.PLP.part.metal>
0.0000

> <Gold.PLP.part.buried>
-2.6616

> <Gold.PLP.part.nonpolar>
-30.1861

> <Gold.PLP.part.repulsive>
0.3334

> <Gold.PLP.ligand.clash>
0.0000

> <Gold.PLP.ligand.torsion>
0.1883

> <Gold.PLP.Chemscore.Hbond>
3.0317

> <Gold.PLP.Chemscore.CHOScore>
0.0000

> <Gold.PLP.Chemscore.Metal>
0.0000

> <Gold.Chemscore.Hbonds>
donor molecule, donor type, donor heavy atom, donor atom, acceptor molecule, acceptor atom, score
      P1  H  7989  7998       L1    13  0.90
      P1  H  7997  8009       L1    19  1.80

> <Gold.PLP.Chemscore.Internal.Correction>
0.2152

> <Gold.Rescore>
     Score         DG    S(hbond)    S(metal)    S(lipo)     H(rot)  DE(clash)    DE(int)     intcor
     15.45     -16.22       2.13        0.00      72.40       1.89       0.03       0.73       ----

> <Gold.Chemscore.Fitness>
15.4514

> <Gold.Chemscore.DG>
-16.2195

> <Gold.Chemscore.ZeroCoef>
-5.4800

> <Gold.Chemscore.Hbond>
2.1270

> <Gold.Chemscore.Metal>
0.0000

> <Gold.Chemscore.Lipo>
72.4025

> <Gold.Chemscore.Internal_Hbond>
0.0000

> <Gold.Chemscore.DEClash>
0.0348

> <Gold.Chemscore.DEInternal>
0.7333

> <Gold.Chemscore.Rot>
1.8890

> <Gold.Chemscore.Internal.Correction>
   9.000000E+99

> <Gold.Chemscore.Hbonds>
donor molecule, donor type, donor heavy atom, donor atom, acceptor molecule, acceptor atom, score
      P1  H  7989  7998       L1    13  0.87
      P1  H  7997  8009       L1    19  0.18
      P1  H 10752 10765       L1    18  0.01

> <Gold.Chemscore.Hbond.Weighted>
-7.1041

> <Gold.Chemscore.Metal.Weighted>
-0.0000

> <Gold.Chemscore.Lipo.Weighted>
-8.4711

> <Gold.Chemscore.Internal_Hbond.Weighted>
0.0000

> <Gold.Chemscore.DEClash.Weighted>
0.0348

> <Gold.Chemscore.DEInternal.Weighted>
0.7333

> <Gold.Chemscore.Rot.Weighted>
4.8357

> <Gold.Chemscore.Internal.Correction.Weighted>
   9.000000E+99

> <Gold.Protein.RotatedTorsions>
[ 6907 6896 6895 6894 ] final  -96.68 input  -60.11 | X-H torsion
[ 7974 7965 7964 7962 ] final  -66.97 input  175.53 | X-H torsion
[ 8008 7997 7996 7995 ] final -115.50 input   59.86 | X-H torsion
[ 10167 10162 10161 10158 ] final  -63.65 input  -65.29 | X-H torsion
[ 10718 10713 10712 10709 ] final  -62.53 input   66.30 | X-H torsion
[ 10763 10752 10751 10750 ] final -116.22 input  -60.55 | X-H torsion
[ 11005 11000 10999 10996 ] final  -84.43 input  -57.11 | X-H torsion

> <Gold.Protein.ActiveResidues>
 VAL166  LYS551  ARG553  GLY616  TRP617  ASP618  TYR619  PRO620  LYS621  CYS622 
 ASP623  PHE694  ASN695  SER759  ASP760  ASP761  ALA762  ILE779  LEU786  VAL792 
 PHE793  MET794  SER795  GLU796  ALA797  LYS798  CYS799  TRP800  GLU811  SER814 

> <Gold.Protein.RotatedAtoms>
  150.6995  134.1466  159.4124 H   0  0  0  0  0  0  0  0  0  0  0  0  # atno 6907 bound_to 6896
  151.9450  135.0193  160.0547 H   0  0  0  0  0  0  0  0  0  0  0  0  # atno 6908 bound_to 6896
  152.2061  133.4841  159.5121 H   0  0  0  0  0  0  0  0  0  0  0  0  # atno 6909 bound_to 6896
  145.7350  140.8980  143.0560 H   0  0  0  0  0  0  0  0  0  0  0  0  # atno 7974 bound_to 7965
  155.0531  140.0393  157.2550 H   0  0  0  0  0  0  0  0  0  0  0  0  # atno 8008 bound_to 7997
  154.7121  140.2695  155.6595 H   0  0  0  0  0  0  0  0  0  0  0  0  # atno 8009 bound_to 7997
  156.2792  140.2719  156.1766 H   0  0  0  0  0  0  0  0  0  0  0  0  # atno 8010 bound_to 7997
  140.5856  143.2333  151.6250 H   0  0  0  0  0  0  0  0  0  0  0  0  # atno 10167 bound_to 10162
  156.0849  130.4210  150.1148 H   0  0  0  0  0  0  0  0  0  0  0  0  # atno 10718 bound_to 10713
  154.8511  135.4353  154.1786 H   0  0  0  0  0  0  0  0  0  0  0  0  # atno 10763 bound_to 10752
  153.2882  135.6959  153.7325 H   0  0  0  0  0  0  0  0  0  0  0  0  # atno 10764 bound_to 10752
  153.6502  135.3452  155.3072 H   0  0  0  0  0  0  0  0  0  0  0  0  # atno 10765 bound_to 10752
  141.1650  133.7346  156.8867 H   0  0  0  0  0  0  0  0  0  0  0  0  # atno 11005 bound_to 11000
  144.6884  139.9383  143.7474 LP  0  0  0  0  0  0  0  0  0  0  0  0  # atno 17320 bound_to 7965
  146.0502  139.3503  143.0644 LP  0  0  0  0  0  0  0  0  0  0  0  0  # atno 17321 bound_to 7965
  139.5196  144.3250  152.0877 LP  0  0  0  0  0  0  0  0  0  0  0  0  # atno 17342 bound_to 10162
  140.2406  144.4273  150.6261 LP  0  0  0  0  0  0  0  0  0  0  0  0  # atno 17343 bound_to 10162
  156.9171  130.9670  151.3554 LP  0  0  0  0  0  0  0  0  0  0  0  0  # atno 17370 bound_to 10713
  157.5980  130.8492  149.8759 LP  0  0  0  0  0  0  0  0  0  0  0  0  # atno 17371 bound_to 10713
  140.1677  134.9121  157.2795 LP  0  0  0  0  0  0  0  0  0  0  0  0  # atno 17394 bound_to 11000
  140.2538  134.3652  155.7432 LP  0  0  0  0  0  0  0  0  0  0  0  0  # atno 17395 bound_to 11000

$$$$
