AV-unprocessed.smi:3187|AV-procd|sdf|12176|dock8
  -GOLD-   2272018 13D 1   1.00000     0.00000
 Structure written by MMmdl.
 41 42  0  0  0  0  0  0  0  0  2 V2000
  152.1695  144.6823  157.9145 C   0  0  0  0  0  0  0  0  0  0  0  0
  152.2985  143.8893  159.2050 C   0  0  0  0  0  0  0  0  0  0  0  0
  152.0645  144.4934  160.3857 C   0  0  0  0  0  0  0  0  0  0  0  0
  152.2370  143.8288  161.7317 C   0  0  0  0  0  0  0  0  0  0  0  0
  153.1654  142.6166  161.6292 C   0  0  0  0  0  0  0  0  0  0  0  0
  152.7456  141.6832  160.4816 C   0  0  2  0  0  0  0  0  0  0  0  0
  153.6526  140.4373  160.4781 C   0  0  0  0  0  0  0  0  0  0  0  0
  152.7244  142.4101  159.1010 C   0  0  1  0  0  0  0  0  0  0  0  0
  151.8634  141.6055  158.0911 C   0  0  0  0  0  0  0  0  0  0  0  0
  150.4545  142.0470  158.0564 N   0  3  0  0  0  0  0  0  0  0  0  0
  149.5954  141.2628  157.1466 C   0  0  0  0  0  0  0  0  0  0  0  0
  149.6510  141.8062  155.7103 C   0  0  0  0  0  0  0  0  0  0  0  0
  148.5844  141.2745  154.8833 N   0  0  0  0  0  0  0  0  0  0  0  0
  147.5219  141.9789  154.3322 C   0  0  0  0  0  0  0  0  0  0  0  0
  146.7644  141.0653  153.6346 C   0  0  0  0  0  0  0  0  0  0  0  0
  147.3397  139.8010  153.7413 N   0  0  0  0  0  0  0  0  0  0  0  0
  148.4158  140.0043  154.4896 C   0  0  0  0  0  0  0  0  0  0  0  0
  153.0620  144.5611  157.3002 H   0  0  0  0  0  0  0  0  0  0  0  0
  152.0502  145.7476  158.1152 H   0  0  0  0  0  0  0  0  0  0  0  0
  151.2982  144.3606  157.3447 H   0  0  0  0  0  0  0  0  0  0  0  0
  151.7462  145.5257  160.4103 H   0  0  0  0  0  0  0  0  0  0  0  0
  152.6505  144.5507  162.4368 H   0  0  0  0  0  0  0  0  0  0  0  0
  151.2557  143.5379  162.1080 H   0  0  0  0  0  0  0  0  0  0  0  0
  154.1897  142.9560  161.4675 H   0  0  0  0  0  0  0  0  0  0  0  0
  153.1653  142.0803  162.5790 H   0  0  0  0  0  0  0  0  0  0  0  0
  151.7298  141.3512  160.7035 H   0  0  0  0  0  0  0  0  0  0  0  0
  154.6863  140.7017  160.2523 H   0  0  0  0  0  0  0  0  0  0  0  0
  153.3358  139.6923  159.7502 H   0  0  0  0  0  0  0  0  0  0  0  0
  153.6458  139.9479  161.4526 H   0  0  0  0  0  0  0  0  0  0  0  0
  153.7518  142.4310  158.7334 H   0  0  0  0  0  0  0  0  0  0  0  0
  152.2508  141.7063  157.0786 H   0  0  0  0  0  0  0  0  0  0  0  0
  151.9093  140.5423  158.3317 H   0  0  0  0  0  0  0  0  0  0  0  0
  150.0773  141.9796  158.9911 H   0  0  0  0  0  0  0  0  0  0  0  0
  149.9009  140.2157  157.1665 H   0  0  0  0  0  0  0  0  0  0  0  0
  148.5679  141.3024  157.5099 H   0  0  0  0  0  0  0  0  0  0  0  0
  149.5627  142.8932  155.7198 H   0  0  0  0  0  0  0  0  0  0  0  0
  150.6114  141.5732  155.2476 H   0  0  0  0  0  0  0  0  0  0  0  0
  147.3945  143.0417  154.4779 H   0  0  0  0  0  0  0  0  0  0  0  0
  145.8574  141.2195  153.0685 H   0  0  0  0  0  0  0  0  0  0  0  0
  149.0931  139.2083  154.7636 H   0  0  0  0  0  0  0  0  0  0  0  0
  150.4297  143.0147  157.7673 H   0  0  0  0  0  0  0  0  0  0  0  0
  1  2  1  0  0  0  0
  1 18  1  0  0  0  0
  1 19  1  0  0  0  0
  1 20  1  0  0  0  0
  2  8  1  0  0  0  0
  2  3  2  0  0  0  0
  3  4  1  0  0  0  0
  3 21  1  0  0  0  0
  4  5  1  0  0  0  0
  4 22  1  0  0  0  0
  4 23  1  0  0  0  0
  5  6  1  0  0  0  0
  5 24  1  0  0  0  0
  5 25  1  0  0  0  0
  6  7  1  0  0  0  0
  6  8  1  0  0  0  0
  6 26  1  0  0  0  0
  7 27  1  0  0  0  0
  7 28  1  0  0  0  0
  7 29  1  0  0  0  0
  8  9  1  0  0  0  0
  8 30  1  0  0  0  0
  9 10  1  0  0  0  0
  9 31  1  0  0  0  0
  9 32  1  0  0  0  0
 10 11  1  0  0  0  0
 10 33  1  0  0  0  0
 10 41  1  0  0  0  0
 11 12  1  0  0  0  0
 11 34  1  0  0  0  0
 11 35  1  0  0  0  0
 12 13  1  0  0  0  0
 12 36  1  0  0  0  0
 12 37  1  0  0  0  0
 13 17  1  0  0  0  0
 13 14  1  0  0  0  0
 14 15  2  0  0  0  0
 14 38  1  0  0  0  0
 15 16  1  0  0  0  0
 15 39  1  0  0  0  0
 16 17  2  0  0  0  0
 17 40  1  0  0  0  0
M  CHG  1  10   1
M  END
> <s_m_source_file>
AV-unprocessed.smi

> <i_m_source_file_index>
3187

> <i_lp_mmshare_version>
43012

> <i_f3d_flags>
0

> <s_epik_input>
W0NIM11DMT1bQ0hdW0NIMl1bQ0gyXVtDQEBIXShbQ0gzXSlbQ0BIXTFbQ0gyXVtOSF1bQ0gyXVtDSDJdbjJbY0hdW2NIXW5bY0hdMg==

> <s_epik_cmdline>
J2VwaWtfcHl0aG9uJywgJy1waCcsICc3LjAnLCAnLXRuJywgJzgnLCAnLW1hJywgJzIwMCcsICctbWV0YWxfYmluZGluZycsICctaW1hZScsICc8aW5maWxlLm1hZT4nLCAnLW9tYWUnLCAnPG91dGZpbGUubWFlPic=

> <r_lp_tautomer_probability>
1

> <r_epik_Ionization_Penalty>
0.0501625

> <r_epik_Ionization_Penalty_Charging>
0.0501625

> <r_epik_Ionization_Penalty_Neutral>
0

> <r_epik_State_Penalty>
0.0972392

> <r_epik_Charging_Adjusted_Penalty>
0.147402

> <i_epik_Tot_Q>
1

> <i_epik_Tot_abs_Q>
1

> <r_epik_Metal_State_Penalty>
0.000104376

> <b_epik_Metal_Only>
0

> <s_lp_Force_Field>
OPLS_2005

> <r_lp_Energy>
17.5131

> <b_lp_Chiralities_Consistent>
1

> <s_lp_Variant>
AV-unprocessed.smi:3187-2

> <Gold.Version>
5.8.1

> <Gold.Id.Protein>
6NUR|6NUR_protein|mol2

> <Gold.PLP.Fitness>
51.0285

> <Gold.PLP.PLP>
-46.7147

> <Gold.PLP.part.hbond>
0.0000

> <Gold.PLP.part.metal>
0.0000

> <Gold.PLP.part.buried>
-5.3373

> <Gold.PLP.part.nonpolar>
-42.4351

> <Gold.PLP.part.repulsive>
0.5351

> <Gold.PLP.ligand.clash>
0.0000

> <Gold.PLP.ligand.torsion>
0.5980

> <Gold.PLP.Chemscore.Hbond>
0.0000

> <Gold.PLP.Chemscore.CHOScore>
1.8105

> <Gold.PLP.Chemscore.Metal>
0.0000

> <Gold.Chemscore.Hbonds>
donor molecule, donor type, donor heavy atom, donor atom, acceptor molecule, acceptor atom, score
      L1  C    14    38       P1  8028  1.00
      L1  C    15    39       P1 10175  0.90

> <Gold.PLP.Chemscore.Internal.Correction>
0.0783

> <Gold.Rescore>
     Score         DG    S(hbond)    S(metal)    S(lipo)     H(rot)  DE(clash)    DE(int)     intcor
     15.35     -16.06       0.00        0.00     131.69       1.89       0.15       0.57       ----

> <Gold.Chemscore.Fitness>
15.3499

> <Gold.Chemscore.DG>
-16.0619

> <Gold.Chemscore.ZeroCoef>
-5.4800

> <Gold.Chemscore.Hbond>
0.0000

> <Gold.Chemscore.Metal>
0.0000

> <Gold.Chemscore.Lipo>
131.6932

> <Gold.Chemscore.Internal_Hbond>
0.0000

> <Gold.Chemscore.DEClash>
0.1460

> <Gold.Chemscore.DEInternal>
0.5660

> <Gold.Chemscore.Rot>
1.8853

> <Gold.Chemscore.Internal.Correction>
   9.000000E+99

> <Gold.Chemscore.Hbond.Weighted>
-0.0000

> <Gold.Chemscore.Metal.Weighted>
-0.0000

> <Gold.Chemscore.Lipo.Weighted>
-15.4081

> <Gold.Chemscore.Internal_Hbond.Weighted>
0.0000

> <Gold.Chemscore.DEClash.Weighted>
0.1460

> <Gold.Chemscore.DEInternal.Weighted>
0.5660

> <Gold.Chemscore.Rot.Weighted>
4.8263

> <Gold.Chemscore.Internal.Correction.Weighted>
   9.000000E+99

> <Gold.Protein.RotatedTorsions>
[ 6907 6896 6895 6894 ] final  153.06 input  -60.11 | X-H torsion
[ 7974 7965 7964 7962 ] final   88.27 input  175.53 | X-H torsion
[ 8008 7997 7996 7995 ] final  -28.87 input   59.86 | X-H torsion
[ 10167 10162 10161 10158 ] final  -51.07 input  -65.29 | X-H torsion
[ 10718 10713 10712 10709 ] final -127.99 input   66.30 | X-H torsion
[ 10763 10752 10751 10750 ] final   54.92 input  -60.55 | X-H torsion
[ 11005 11000 10999 10996 ] final   92.77 input  -57.11 | X-H torsion

> <Gold.Protein.ActiveResidues>
 VAL166  LYS551  ARG553  GLY616  TRP617  ASP618  TYR619  PRO620  LYS621  CYS622 
 ASP623  PHE694  ASN695  SER759  ASP760  ASP761  ALA762  ILE779  LEU786  VAL792 
 PHE793  MET794  SER795  GLU796  ALA797  LYS798  CYS799  TRP800  GLU811  SER814 

> <Gold.Protein.RotatedAtoms>
  152.0781  133.4139  159.4488 H   0  0  0  0  0  0  0  0  0  0  0  0  # atno 6907 bound_to 6896
  150.6862  134.3014  159.4717 H   0  0  0  0  0  0  0  0  0  0  0  0  # atno 6908 bound_to 6896
  152.0853  134.9443  160.0623 H   0  0  0  0  0  0  0  0  0  0  0  0  # atno 6909 bound_to 6896
  145.5479  139.2293  143.2529 H   0  0  0  0  0  0  0  0  0  0  0  0  # atno 7974 bound_to 7965
  154.4313  140.1833  156.1159 H   0  0  0  0  0  0  0  0  0  0  0  0  # atno 8008 bound_to 7997
  156.0181  140.3343  155.6985 H   0  0  0  0  0  0  0  0  0  0  0  0  # atno 8009 bound_to 7997
  155.6015  140.0641  157.2722 H   0  0  0  0  0  0  0  0  0  0  0  0  # atno 8010 bound_to 7997
  140.6606  143.2633  151.4451 H   0  0  0  0  0  0  0  0  0  0  0  0  # atno 10167 bound_to 10162
  156.1908  130.6794  151.0422 H   0  0  0  0  0  0  0  0  0  0  0  0  # atno 10718 bound_to 10713
  152.9810  135.5728  154.4983 H   0  0  0  0  0  0  0  0  0  0  0  0  # atno 10763 bound_to 10752
  154.4507  135.2778  155.1785 H   0  0  0  0  0  0  0  0  0  0  0  0  # atno 10764 bound_to 10752
  154.3414  135.6228  153.5652 H   0  0  0  0  0  0  0  0  0  0  0  0  # atno 10765 bound_to 10752
  139.8819  134.8752  156.3621 H   0  0  0  0  0  0  0  0  0  0  0  0  # atno 11005 bound_to 11000
  146.1936  140.6301  142.9134 LP  0  0  0  0  0  0  0  0  0  0  0  0  # atno 17320 bound_to 7965
  144.7544  140.5270  143.6779 LP  0  0  0  0  0  0  0  0  0  0  0  0  # atno 17321 bound_to 7965
  139.5839  144.1647  152.2004 LP  0  0  0  0  0  0  0  0  0  0  0  0  # atno 17342 bound_to 10162
  140.0981  144.5563  150.7008 LP  0  0  0  0  0  0  0  0  0  0  0  0  # atno 17343 bound_to 10162
  157.6928  131.0804  150.7058 LP  0  0  0  0  0  0  0  0  0  0  0  0  # atno 17370 bound_to 10713
  156.7114  130.4653  149.5546 LP  0  0  0  0  0  0  0  0  0  0  0  0  # atno 17371 bound_to 10713
  140.9522  133.7443  156.0287 LP  0  0  0  0  0  0  0  0  0  0  0  0  # atno 17394 bound_to 11000
  140.8092  134.3419  157.5417 LP  0  0  0  0  0  0  0  0  0  0  0  0  # atno 17395 bound_to 11000

$$$$
