AV-unprocessed.smi:215|AV-procd|sdf|1654|dock10
  -GOLD-   2262020 43D 1   1.00000     0.00000
 Structure written by MMmdl.
 59 62  0  0  0  0  0  0  0  0  2 V2000
  149.6511  138.7946  155.9964 C   0  0  0  0  0  0  0  0  0  0  0  0
  148.8686  139.4131  154.8203 C   0  0  2  0  0  0  0  0  0  0  0  0
  149.0610  140.9269  154.6069 C   0  0  2  0  0  0  0  0  0  0  0  0
  149.3264  141.7168  155.8517 N   0  3  1  0  0  0  0  0  0  0  0  0
  148.2850  141.4797  156.8820 C   0  0  0  0  0  0  0  0  0  0  0  0
  150.7126  141.6180  156.3934 C   0  0  0  0  0  0  0  0  0  0  0  0
  150.9545  142.5235  157.6145 C   0  0  0  0  0  0  0  0  0  0  0  0
  150.8532  143.8828  157.2466 O   0  0  0  0  0  0  0  0  0  0  0  0
  147.7940  141.3394  153.8413 C   0  0  0  0  0  0  0  0  0  0  0  0
  146.7284  140.3032  154.2220 C   0  0  0  0  0  0  0  0  0  0  0  0
  147.4231  139.2016  154.8796 N   0  0  0  0  0  0  0  0  0  0  0  0
  146.8724  137.9678  154.7353 C   0  0  0  0  0  0  0  0  0  0  0  0
  146.8228  137.1180  155.7951 N   0  0  0  0  0  0  0  0  0  0  0  0
  146.2916  135.8994  155.6627 C   0  0  0  0  0  0  0  0  0  0  0  0
  145.7557  135.3373  154.5785 N   0  0  0  0  0  0  0  0  0  0  0  0
  145.7948  136.1853  153.5114 C   0  0  0  0  0  0  0  0  0  0  0  0
  146.3375  137.5018  153.5003 C   0  0  0  0  0  0  0  0  0  0  0  0
  146.2077  138.0539  152.2310 N   0  0  0  0  0  0  0  0  0  0  0  0
  145.6299  137.1152  151.5316 C   0  0  0  0  0  0  0  0  0  0  0  0
  145.3181  135.9706  152.2302 N   0  0  0  0  0  0  0  0  0  0  0  0
  144.7118  134.7807  151.7092 C   0  0  0  0  0  0  0  0  0  0  0  0
  145.3375  133.4021  151.9350 C   0  0  0  0  0  0  0  0  0  0  0  0
  144.8097  132.9436  150.5574 C   0  0  0  0  0  0  0  0  0  0  0  0
  145.7897  132.0951  149.7304 C   0  0  0  0  0  0  0  0  0  0  0  0
  147.1313  132.4059  150.0476 O   0  0  0  0  0  0  0  0  0  0  0  0
  143.4321  132.2506  150.5787 C   0  0  0  0  0  0  0  0  0  0  0  0
  142.9762  131.9655  149.2715 O   0  0  0  0  0  0  0  0  0  0  0  0
  144.7829  134.4506  150.2166 C   0  0  0  0  0  0  0  0  0  0  0  0
  149.2181  138.9301  153.9062 H   0  0  0  0  0  0  0  0  0  0  0  0
  149.9308  141.0506  153.9598 H   0  0  0  0  0  0  0  0  0  0  0  0
  150.7092  139.0502  155.9359 H   0  0  0  0  0  0  0  0  0  0  0  0
  149.5837  137.7073  155.9979 H   0  0  0  0  0  0  0  0  0  0  0  0
  149.2770  139.1397  156.9592 H   0  0  0  0  0  0  0  0  0  0  0  0
  148.3497  140.4670  157.2808 H   0  0  0  0  0  0  0  0  0  0  0  0
  147.2862  141.6166  156.4665 H   0  0  0  0  0  0  0  0  0  0  0  0
  148.3722  142.1783  157.7124 H   0  0  0  0  0  0  0  0  0  0  0  0
  150.9304  140.5824  156.6565 H   0  0  0  0  0  0  0  0  0  0  0  0
  151.4388  141.8996  155.6330 H   0  0  0  0  0  0  0  0  0  0  0  0
  150.2708  142.3093  158.4347 H   0  0  0  0  0  0  0  0  0  0  0  0
  151.9604  142.3523  157.9991 H   0  0  0  0  0  0  0  0  0  0  0  0
  150.0944  143.9900  156.6926 H   0  0  0  0  0  0  0  0  0  0  0  0
  147.4741  142.3650  154.0259 H   0  0  0  0  0  0  0  0  0  0  0  0
  147.9888  141.2583  152.7713 H   0  0  0  0  0  0  0  0  0  0  0  0
  146.0137  140.7370  154.9218 H   0  0  0  0  0  0  0  0  0  0  0  0
  146.1743  139.9701  153.3430 H   0  0  0  0  0  0  0  0  0  0  0  0
  146.2944  135.2882  156.5532 H   0  0  0  0  0  0  0  0  0  0  0  0
  145.4060  137.2386  150.4818 H   0  0  0  0  0  0  0  0  0  0  0  0
  143.6759  134.7959  152.0515 H   0  0  0  0  0  0  0  0  0  0  0  0
  146.4279  133.4387  151.9786 H   0  0  0  0  0  0  0  0  0  0  0  0
  144.9314  132.8556  152.7868 H   0  0  0  0  0  0  0  0  0  0  0  0
  145.6264  131.0281  149.8828 H   0  0  0  0  0  0  0  0  0  0  0  0
  145.6517  132.2748  148.6640 H   0  0  0  0  0  0  0  0  0  0  0  0
  147.6335  131.6052  150.0423 H   0  0  0  0  0  0  0  0  0  0  0  0
  143.4606  131.3225  151.1499 H   0  0  0  0  0  0  0  0  0  0  0  0
  142.6825  132.8778  151.0614 H   0  0  0  0  0  0  0  0  0  0  0  0
  142.3518  132.6289  149.0205 H   0  0  0  0  0  0  0  0  0  0  0  0
  143.9169  134.7812  149.6424 H   0  0  0  0  0  0  0  0  0  0  0  0
  145.7090  134.8020  149.7579 H   0  0  0  0  0  0  0  0  0  0  0  0
  149.2160  142.6819  155.5736 H   0  0  0  0  0  0  0  0  0  0  0  0
  1  2  1  0  0  0  0
  1 31  1  0  0  0  0
  1 32  1  0  0  0  0
  1 33  1  0  0  0  0
  2 29  1  0  0  0  0
  2 11  1  0  0  0  0
  2  3  1  0  0  0  0
  3 30  1  0  0  0  0
  3  4  1  0  0  0  0
  3  9  1  0  0  0  0
  4  5  1  0  0  0  0
  4  6  1  0  0  0  0
  4 59  1  0  0  0  0
  5 34  1  0  0  0  0
  5 35  1  0  0  0  0
  5 36  1  0  0  0  0
  6  7  1  0  0  0  0
  6 37  1  0  0  0  0
  6 38  1  0  0  0  0
  7  8  1  0  0  0  0
  7 39  1  0  0  0  0
  7 40  1  0  0  0  0
  8 41  1  0  0  0  0
  9 10  1  0  0  0  0
  9 42  1  0  0  0  0
  9 43  1  0  0  0  0
 10 11  1  0  0  0  0
 10 44  1  0  0  0  0
 10 45  1  0  0  0  0
 11 12  1  0  0  0  0
 12 17  1  0  0  0  0
 12 13  2  0  0  0  0
 13 14  1  0  0  0  0
 14 15  2  0  0  0  0
 14 46  1  0  0  0  0
 15 16  1  0  0  0  0
 16 20  1  0  0  0  0
 16 17  2  0  0  0  0
 17 18  1  0  0  0  0
 18 19  2  0  0  0  0
 19 20  1  0  0  0  0
 19 47  1  0  0  0  0
 20 21  1  0  0  0  0
 21 28  1  0  0  0  0
 21 22  1  0  0  0  0
 21 48  1  0  0  0  0
 22 23  1  0  0  0  0
 22 49  1  0  0  0  0
 22 50  1  0  0  0  0
 23 24  1  0  0  0  0
 23 26  1  0  0  0  0
 23 28  1  0  0  0  0
 24 25  1  0  0  0  0
 24 51  1  0  0  0  0
 24 52  1  0  0  0  0
 25 53  1  0  0  0  0
 26 27  1  0  0  0  0
 26 54  1  0  0  0  0
 26 55  1  0  0  0  0
 27 56  1  0  0  0  0
 28 57  1  0  0  0  0
 28 58  1  0  0  0  0
M  CHG  1   4   1
M  END
> <s_m_source_file>
AV-unprocessed.smi

> <i_m_source_file_index>
215

> <i_lp_mmshare_version>
43012

> <i_f3d_flags>
0

> <s_epik_input>
W09IXVtDSDJdW0NIMl1OKFtDSDNdKVtDQEBIXShbQ0BIXTFbQ0gzXSlbQ0gyXVtDSDJdTjFjKG5bY0hdbjIpYyhjMjMpbltjSF1uM1tDSF0oW0NIMl00KVtDSDJdQzQoW0NIMl1bT0hdKVtDSDJdW09IXQ==

> <s_epik_cmdline>
J2VwaWtfcHl0aG9uJywgJy1waCcsICc3LjAnLCAnLXRuJywgJzgnLCAnLW1hJywgJzIwMCcsICctbWV0YWxfYmluZGluZycsICctaW1hZScsICc8aW5maWxlLm1hZT4nLCAnLW9tYWUnLCAnPG91dGZpbGUubWFlPic=

> <r_lp_tautomer_probability>
1

> <r_epik_Ionization_Penalty>
0.0036237

> <r_epik_Ionization_Penalty_Charging>
0.0032725

> <r_epik_Ionization_Penalty_Neutral>
0.000351196

> <r_epik_State_Penalty>
-0

> <r_epik_Charging_Adjusted_Penalty>
0.0032725

> <i_epik_Tot_Q>
1

> <i_epik_Tot_abs_Q>
1

> <r_epik_Metal_State_Penalty>
-0

> <b_epik_Metal_Only>
0

> <s_lp_Force_Field>
OPLS_2005

> <r_lp_Energy>
70.2974

> <b_lp_Chiralities_Consistent>
1

> <s_lp_Variant>
AV-unprocessed.smi:215-5

> <Gold.Version>
5.8.1

> <Gold.Id.Protein>
6NUR|6NUR_protein|mol2

> <Gold.PLP.Fitness>
60.6812

> <Gold.PLP.PLP>
-43.1452

> <Gold.PLP.part.hbond>
-6.9549

> <Gold.PLP.part.metal>
0.0000

> <Gold.PLP.part.buried>
-4.9469

> <Gold.PLP.part.nonpolar>
-31.9911

> <Gold.PLP.part.repulsive>
0.5706

> <Gold.PLP.ligand.clash>
0.0000

> <Gold.PLP.ligand.torsion>
1.6026

> <Gold.PLP.Chemscore.Hbond>
5.6088

> <Gold.PLP.Chemscore.CHOScore>
0.9785

> <Gold.PLP.Chemscore.Metal>
0.0000

> <Gold.Chemscore.Hbonds>
donor molecule, donor type, donor heavy atom, donor atom, acceptor molecule, acceptor atom, score
      L1  H     4    59       P1  8028  1.85
      L1  H     8    41       P1  8028  1.00
      L1  H    25    53       P1 10747  1.00
      L1  H    27    56       P1 10186  0.36
      P1  H 10785 10796       L1    27  1.00
      L1  C    19    47       P1 10171  0.85

> <Gold.PLP.Chemscore.Internal.Correction>
0.9797

> <Gold.Rescore>
     Score         DG    S(hbond)    S(metal)    S(lipo)     H(rot)  DE(clash)    DE(int)     intcor
     15.97     -19.65       4.53        0.00      97.02       4.81       1.25       2.42       ----

> <Gold.Chemscore.Fitness>
15.9701

> <Gold.Chemscore.DG>
-19.6471

> <Gold.Chemscore.ZeroCoef>
-5.4800

> <Gold.Chemscore.Hbond>
4.5295

> <Gold.Chemscore.Metal>
0.0000

> <Gold.Chemscore.Lipo>
97.0227

> <Gold.Chemscore.Internal_Hbond>
0.0000

> <Gold.Chemscore.DEClash>
1.2544

> <Gold.Chemscore.DEInternal>
2.4225

> <Gold.Chemscore.Rot>
4.8098

> <Gold.Chemscore.Internal.Correction>
   9.000000E+99

> <Gold.Chemscore.Hbonds>
donor molecule, donor type, donor heavy atom, donor atom, acceptor molecule, acceptor atom, score
      L1  H     4    59       P1  8028  0.88
      L1  H     8    41       P1  8028  0.99
      L1  H    25    53       P1 10747  0.89
      L1  H    27    56       P1 10186  0.33
      P1  H 10785 10796       L1    27  0.90

> <Gold.Chemscore.Hbond.Weighted>
-15.1284

> <Gold.Chemscore.Metal.Weighted>
-0.0000

> <Gold.Chemscore.Lipo.Weighted>
-11.3517

> <Gold.Chemscore.Internal_Hbond.Weighted>
0.0000

> <Gold.Chemscore.DEClash.Weighted>
1.2544

> <Gold.Chemscore.DEInternal.Weighted>
2.4225

> <Gold.Chemscore.Rot.Weighted>
12.3130

> <Gold.Chemscore.Internal.Correction.Weighted>
   9.000000E+99

> <Gold.Protein.RotatedTorsions>
[ 6907 6896 6895 6894 ] final  -98.68 input  -60.11 | X-H torsion
[ 7974 7965 7964 7962 ] final   25.36 input  175.53 | X-H torsion
[ 8008 7997 7996 7995 ] final  147.59 input   59.86 | X-H torsion
[ 10167 10162 10161 10158 ] final  -71.67 input  -65.29 | X-H torsion
[ 10718 10713 10712 10709 ] final  148.56 input   66.30 | X-H torsion
[ 10763 10752 10751 10750 ] final   19.50 input  -60.55 | X-H torsion
[ 11005 11000 10999 10996 ] final -106.14 input  -57.11 | X-H torsion

> <Gold.Protein.ActiveResidues>
 VAL166  LYS551  ARG553  GLY616  TRP617  ASP618  TYR619  PRO620  LYS621  CYS622 
 ASP623  PHE694  ASN695  SER759  ASP760  ASP761  ALA762  ILE779  LEU786  VAL792 
 PHE793  MET794  SER795  GLU796  ALA797  LYS798  CYS799  TRP800  GLU811  SER814 

> <Gold.Protein.RotatedAtoms>
  150.7054  134.1157  159.4016 H   0  0  0  0  0  0  0  0  0  0  0  0  # atno 6907 bound_to 6896
  151.9144  135.0323  160.0526 H   0  0  0  0  0  0  0  0  0  0  0  0  # atno 6908 bound_to 6896
  152.2309  133.5022  159.5252 H   0  0  0  0  0  0  0  0  0  0  0  0  # atno 6909 bound_to 6896
  146.1892  139.7476  142.8844 H   0  0  0  0  0  0  0  0  0  0  0  0  # atno 7974 bound_to 7965
  156.2820  140.2151  156.5562 H   0  0  0  0  0  0  0  0  0  0  0  0  # atno 8008 bound_to 7997
  154.7251  140.0500  157.0697 H   0  0  0  0  0  0  0  0  0  0  0  0  # atno 8009 bound_to 7997
  155.0428  140.3147  155.4722 H   0  0  0  0  0  0  0  0  0  0  0  0  # atno 8010 bound_to 7997
  140.5254  143.2327  151.7357 H   0  0  0  0  0  0  0  0  0  0  0  0  # atno 10167 bound_to 10162
  157.3071  131.0881  151.1345 H   0  0  0  0  0  0  0  0  0  0  0  0  # atno 10718 bound_to 10713
  153.1157  135.6707  153.9422 H   0  0  0  0  0  0  0  0  0  0  0  0  # atno 10763 bound_to 10752
  153.8953  135.3042  155.3449 H   0  0  0  0  0  0  0  0  0  0  0  0  # atno 10764 bound_to 10752
  154.7573  135.5005  153.9477 H   0  0  0  0  0  0  0  0  0  0  0  0  # atno 10765 bound_to 10752
  141.1019  133.8868  157.1820 H   0  0  0  0  0  0  0  0  0  0  0  0  # atno 11005 bound_to 11000
  145.3845  141.0363  143.3159 LP  0  0  0  0  0  0  0  0  0  0  0  0  # atno 17320 bound_to 7965
  144.8454  139.5405  143.6881 LP  0  0  0  0  0  0  0  0  0  0  0  0  # atno 17321 bound_to 7965
  139.4936  144.4194  151.9995 LP  0  0  0  0  0  0  0  0  0  0  0  0  # atno 17342 bound_to 10162
  140.3292  144.3336  150.5991 LP  0  0  0  0  0  0  0  0  0  0  0  0  # atno 17343 bound_to 10162
  157.2682  130.6691  149.6006 LP  0  0  0  0  0  0  0  0  0  0  0  0  # atno 17370 bound_to 10713
  155.9675  130.4487  150.5631 LP  0  0  0  0  0  0  0  0  0  0  0  0  # atno 17371 bound_to 10713
  139.9874  135.0077  156.9894 LP  0  0  0  0  0  0  0  0  0  0  0  0  # atno 17394 bound_to 11000
  140.5000  134.1106  155.7249 LP  0  0  0  0  0  0  0  0  0  0  0  0  # atno 17395 bound_to 11000

$$$$
