AV-unprocessed.smi:199|AV-procd|sdf|1560|dock2
  -GOLD-   2262019433D 1   1.00000     0.00000
 Structure written by MMmdl.
 51 55  0  0  0  0  0  0  0  0  1 V2000
  146.9407  133.4859  162.2573 C   0  0  0  0  0  0  0  0  0  0  0  0
  146.4473  134.9081  162.5660 C   0  0  2  0  0  0  0  0  0  0  0  0
  145.0410  134.8382  162.7890 O   0  0  0  0  0  0  0  0  0  0  0  0
  144.4499  136.0582  162.3778 C   0  0  0  0  0  0  0  0  0  0  0  0
  145.2158  136.3774  161.1036 C   0  0  0  0  0  0  0  0  0  0  0  0
  146.6463  135.9760  161.4529 C   0  0  1  0  0  0  0  0  0  0  0  0
  147.2790  137.0986  162.0456 O   0  0  0  0  0  0  0  0  0  0  0  0
  147.4880  135.5448  160.2224 C   0  0  0  0  0  0  0  0  0  0  0  0
  147.7130  136.6215  159.2690 N   0  0  0  0  0  0  0  0  0  0  0  0
  146.7514  137.3915  158.6559 C   0  0  0  0  0  0  0  0  0  0  0  0
  147.2045  138.2929  157.8291 N   0  0  0  0  0  0  0  0  0  0  0  0
  148.5859  138.1467  157.8832 C   0  0  0  0  0  0  0  0  0  0  0  0
  149.6830  138.7919  157.2418 C   0  0  0  0  0  0  0  0  0  0  0  0
  149.5408  139.8034  156.3425 N   0  0  0  0  0  0  0  0  0  0  0  0
  150.3668  140.9949  156.4453 C   0  0  1  0  0  0  0  0  0  0  0  0
  151.7473  140.5384  155.9336 C   0  0  0  0  0  0  0  0  0  0  0  0
  151.3472  139.5356  154.8403 C   0  0  0  0  0  0  0  0  0  0  0  0
  149.8064  139.5964  154.9247 C   0  0  2  0  0  0  0  0  0  0  0  0
  149.3289  140.9229  154.2930 C   0  0  1  0  0  0  0  0  0  0  0  0
  147.8225  140.9446  153.9754 C   0  0  0  0  0  0  0  0  0  0  0  0
  147.5536  140.1804  152.8193 O   0  0  0  0  0  0  0  0  0  0  0  0
  149.7209  141.9217  155.4016 C   0  0  0  0  0  0  0  0  0  0  0  0
  150.9297  138.3339  157.5332 N   0  0  0  0  0  0  0  0  0  0  0  0
  151.1004  137.3409  158.4099 C   0  0  0  0  0  0  0  0  0  0  0  0
  150.1764  136.6624  159.0910 N   0  0  0  0  0  0  0  0  0  0  0  0
  148.9203  137.0968  158.7867 C   0  0  0  0  0  0  0  0  0  0  0  0
  148.0173  133.4644  162.0888 H   0  0  0  0  0  0  0  0  0  0  0  0
  146.4470  133.0734  161.3772 H   0  0  0  0  0  0  0  0  0  0  0  0
  146.7293  132.8172  163.0922 H   0  0  0  0  0  0  0  0  0  0  0  0
  146.9120  135.2373  163.4975 H   0  0  0  0  0  0  0  0  0  0  0  0
  143.3778  135.9520  162.2118 H   0  0  0  0  0  0  0  0  0  0  0  0
  144.6102  136.8242  163.1380 H   0  0  0  0  0  0  0  0  0  0  0  0
  144.8330  135.7439  160.3031 H   0  0  0  0  0  0  0  0  0  0  0  0
  145.1122  137.4157  160.7852 H   0  0  0  0  0  0  0  0  0  0  0  0
  146.8598  137.2771  162.8733 H   0  0  0  0  0  0  0  0  0  0  0  0
  148.4605  135.1672  160.5405 H   0  0  0  0  0  0  0  0  0  0  0  0
  146.9988  134.7280  159.6908 H   0  0  0  0  0  0  0  0  0  0  0  0
  145.6947  137.2566  158.8358 H   0  0  0  0  0  0  0  0  0  0  0  0
  150.4092  141.4577  157.4297 H   0  0  0  0  0  0  0  0  0  0  0  0
  152.3491  141.3645  155.5528 H   0  0  0  0  0  0  0  0  0  0  0  0
  152.3129  140.0417  156.7231 H   0  0  0  0  0  0  0  0  0  0  0  0
  151.7284  139.8066  153.8552 H   0  0  0  0  0  0  0  0  0  0  0  0
  151.7191  138.5386  155.0793 H   0  0  0  0  0  0  0  0  0  0  0  0
  149.3201  138.7216  154.4913 H   0  0  0  0  0  0  0  0  0  0  0  0
  149.8822  141.1380  153.3773 H   0  0  0  0  0  0  0  0  0  0  0  0
  147.2382  140.5551  154.8097 H   0  0  0  0  0  0  0  0  0  0  0  0
  147.4885  141.9668  153.7957 H   0  0  0  0  0  0  0  0  0  0  0  0
  148.2528  140.3186  152.1987 H   0  0  0  0  0  0  0  0  0  0  0  0
  148.8425  142.4130  155.8228 H   0  0  0  0  0  0  0  0  0  0  0  0
  150.4014  142.6979  155.0503 H   0  0  0  0  0  0  0  0  0  0  0  0
  152.1240  137.0474  158.5901 H   0  0  0  0  0  0  0  0  0  0  0  0
  1  2  1  0  0  0  0
  1 27  1  0  0  0  0
  1 28  1  0  0  0  0
  1 29  1  0  0  0  0
  2  6  1  0  0  0  0
  2  3  1  0  0  0  0
  2 30  1  0  0  0  0
  3  4  1  0  0  0  0
  4  5  1  0  0  0  0
  4 31  1  0  0  0  0
  4 32  1  0  0  0  0
  5  6  1  0  0  0  0
  5 33  1  0  0  0  0
  5 34  1  0  0  0  0
  6  7  1  0  0  0  0
  6  8  1  0  0  0  0
  7 35  1  0  0  0  0
  8  9  1  0  0  0  0
  8 36  1  0  0  0  0
  8 37  1  0  0  0  0
  9 26  1  0  0  0  0
  9 10  1  0  0  0  0
 10 11  2  0  0  0  0
 10 38  1  0  0  0  0
 11 12  1  0  0  0  0
 12 26  2  0  0  0  0
 12 13  1  0  0  0  0
 13 14  1  0  0  0  0
 13 23  2  0  0  0  0
 14 18  1  0  0  0  0
 14 15  1  0  0  0  0
 15 22  1  0  0  0  0
 15 16  1  0  0  0  0
 15 39  1  0  0  0  0
 16 17  1  0  0  0  0
 16 40  1  0  0  0  0
 16 41  1  0  0  0  0
 17 18  1  0  0  0  0
 17 42  1  0  0  0  0
 17 43  1  0  0  0  0
 18 19  1  0  0  0  0
 18 44  1  0  0  0  0
 19 20  1  0  0  0  0
 19 22  1  0  0  0  0
 19 45  1  0  0  0  0
 20 21  1  0  0  0  0
 20 46  1  0  0  0  0
 20 47  1  0  0  0  0
 21 48  1  0  0  0  0
 22 49  1  0  0  0  0
 22 50  1  0  0  0  0
 23 24  1  0  0  0  0
 24 25  2  0  0  0  0
 24 51  1  0  0  0  0
 25 26  1  0  0  0  0
M  END
> <s_m_source_file>
AV-unprocessed.smi

> <i_m_source_file_index>
199

> <i_lp_mmshare_version>
43012

> <i_f3d_flags>
0

> <s_epik_input>
W0NIMl0xW0NIMl1PW0NAQEhdKFtDSDNdKVtDQEBdMShbT0hdKVtDSDJdbihbY0hdbjIpYyhjMjMpbltjSF1uYzNOKFtDQEBIXTQ1KVtDQEhdKFtDSDJdW0NIMl00KVtDQEhdKFtDSDJdNSlbQ0gyXVtPSF0=

> <s_epik_cmdline>
J2VwaWtfcHl0aG9uJywgJy1waCcsICc3LjAnLCAnLXRuJywgJzgnLCAnLW1hJywgJzIwMCcsICctbWV0YWxfYmluZGluZycsICctaW1hZScsICc8aW5maWxlLm1hZT4nLCAnLW9tYWUnLCAnPG91dGZpbGUubWFlPic=

> <r_lp_tautomer_probability>
1

> <r_epik_Ionization_Penalty>
0.00583903

> <r_epik_Ionization_Penalty_Charging>
0

> <r_epik_Ionization_Penalty_Neutral>
0.00583903

> <r_epik_State_Penalty>
-0

> <r_epik_Charging_Adjusted_Penalty>
0

> <i_epik_Tot_Q>
0

> <i_epik_Tot_abs_Q>
0

> <r_epik_Metal_State_Penalty>
-0

> <b_epik_Metal_Only>
0

> <s_lp_Force_Field>
OPLS_2005

> <r_lp_Energy>
83.6751

> <b_lp_Chiralities_Consistent>
1

> <s_lp_Variant>
AV-unprocessed.smi:199-1

> <Gold.Version>
5.8.1

> <Gold.Id.Protein>
6NUR|6NUR_protein|mol2

> <Gold.PLP.Fitness>
49.8187

> <Gold.PLP.PLP>
-40.5714

> <Gold.PLP.part.hbond>
-3.8867

> <Gold.PLP.part.metal>
0.0000

> <Gold.PLP.part.buried>
-0.7348

> <Gold.PLP.part.nonpolar>
-35.0725

> <Gold.PLP.part.repulsive>
0.0238

> <Gold.PLP.ligand.clash>
0.0000

> <Gold.PLP.ligand.torsion>
0.3724

> <Gold.PLP.Chemscore.Hbond>
3.3168

> <Gold.PLP.Chemscore.CHOScore>
0.0000

> <Gold.PLP.Chemscore.Metal>
0.0000

> <Gold.Chemscore.Hbonds>
donor molecule, donor type, donor heavy atom, donor atom, acceptor molecule, acceptor atom, score
      L1  H    21    48       P1  7957  1.00
      P1  H  6896  6909       L1    25  1.00
      P1  H  6931  6943       L1     7  0.76
      P1  H  6934  6947       L1     7  0.40

> <Gold.PLP.Chemscore.Internal.Correction>
0.0417

> <Gold.Rescore>
     Score         DG    S(hbond)    S(metal)    S(lipo)     H(rot)  DE(clash)    DE(int)     intcor
     12.40     -17.90       2.82        0.00      92.90       3.07       1.35       4.15       ----

> <Gold.Chemscore.Fitness>
12.3954

> <Gold.Chemscore.DG>
-17.8975

> <Gold.Chemscore.ZeroCoef>
-5.4800

> <Gold.Chemscore.Hbond>
2.8188

> <Gold.Chemscore.Metal>
0.0000

> <Gold.Chemscore.Lipo>
92.9020

> <Gold.Chemscore.Internal_Hbond>
0.0000

> <Gold.Chemscore.DEClash>
1.3539

> <Gold.Chemscore.DEInternal>
4.1482

> <Gold.Chemscore.Rot>
3.0729

> <Gold.Chemscore.Internal.Correction>
   9.000000E+99

> <Gold.Chemscore.Hbonds>
donor molecule, donor type, donor heavy atom, donor atom, acceptor molecule, acceptor atom, score
      L1  H    21    48       P1  7957  1.00
      P1  H  6896  6909       L1    25  0.68
      P1  H  6931  6943       L1     7  0.47
      P1  H  6934  6947       L1     7  0.18

> <Gold.Chemscore.Hbond.Weighted>
-9.4146

> <Gold.Chemscore.Metal.Weighted>
-0.0000

> <Gold.Chemscore.Lipo.Weighted>
-10.8695

> <Gold.Chemscore.Internal_Hbond.Weighted>
0.0000

> <Gold.Chemscore.DEClash.Weighted>
1.3539

> <Gold.Chemscore.DEInternal.Weighted>
4.1482

> <Gold.Chemscore.Rot.Weighted>
7.8667

> <Gold.Chemscore.Internal.Correction.Weighted>
   9.000000E+99

> <Gold.Protein.RotatedTorsions>
[ 6907 6896 6895 6894 ] final   81.58 input  -60.11 | X-H torsion
[ 7974 7965 7964 7962 ] final  170.50 input  175.53 | X-H torsion
[ 8008 7997 7996 7995 ] final   38.94 input   59.86 | X-H torsion
[ 10167 10162 10161 10158 ] final -147.57 input  -65.29 | X-H torsion
[ 10718 10713 10712 10709 ] final   20.46 input   66.30 | X-H torsion
[ 10763 10752 10751 10750 ] final  -19.75 input  -60.55 | X-H torsion
[ 11005 11000 10999 10996 ] final  109.96 input  -57.11 | X-H torsion

> <Gold.Protein.ActiveResidues>
 VAL166  LYS551  ARG553  GLY616  TRP617  ASP618  TYR619  PRO620  LYS621  CYS622 
 ASP623  PHE694  ASN695  SER759  ASP760  ASP761  ALA762  ILE779  LEU786  VAL792 
 PHE793  MET794  SER795  GLU796  ALA797  LYS798  CYS799  TRP800  GLU811  SER814 

> <Gold.Protein.RotatedAtoms>
  152.5273  134.3182  159.9138 H   0  0  0  0  0  0  0  0  0  0  0  0  # atno 6907 bound_to 6896
  151.3131  133.4065  159.2656 H   0  0  0  0  0  0  0  0  0  0  0  0  # atno 6908 bound_to 6896
  151.0022  134.9347  159.8017 H   0  0  0  0  0  0  0  0  0  0  0  0  # atno 6909 bound_to 6896
  144.7322  139.9211  143.6420 H   0  0  0  0  0  0  0  0  0  0  0  0  # atno 7974 bound_to 7965
  155.2284  140.3336  155.4306 H   0  0  0  0  0  0  0  0  0  0  0  0  # atno 8008 bound_to 7997
  156.2305  140.1848  156.7302 H   0  0  0  0  0  0  0  0  0  0  0  0  # atno 8009 bound_to 7997
  154.5969  140.0629  156.9301 H   0  0  0  0  0  0  0  0  0  0  0  0  # atno 8010 bound_to 7997
  139.7610  143.8377  152.2607 H   0  0  0  0  0  0  0  0  0  0  0  0  # atno 10167 bound_to 10162
  157.1248  130.6565  149.5934 H   0  0  0  0  0  0  0  0  0  0  0  0  # atno 10718 bound_to 10713
  153.6096  135.6996  153.5352 H   0  0  0  0  0  0  0  0  0  0  0  0  # atno 10763 bound_to 10752
  153.3028  135.4124  155.1267 H   0  0  0  0  0  0  0  0  0  0  0  0  # atno 10764 bound_to 10752
  154.8566  135.3653  154.5634 H   0  0  0  0  0  0  0  0  0  0  0  0  # atno 10765 bound_to 10752
  139.8872  134.9472  156.6206 H   0  0  0  0  0  0  0  0  0  0  0  0  # atno 11005 bound_to 11000
  146.0929  139.3919  143.0395 LP  0  0  0  0  0  0  0  0  0  0  0  0  # atno 17320 bound_to 7965
  145.7686  140.9906  143.1161 LP  0  0  0  0  0  0  0  0  0  0  0  0  # atno 17321 bound_to 7965
  139.8383  144.7222  150.9363 LP  0  0  0  0  0  0  0  0  0  0  0  0  # atno 17342 bound_to 10162
  140.7807  143.4006  151.1155 LP  0  0  0  0  0  0  0  0  0  0  0  0  # atno 17343 bound_to 10162
  155.9820  130.4832  150.6861 LP  0  0  0  0  0  0  0  0  0  0  0  0  # atno 17370 bound_to 10713
  157.4445  131.0865  151.0910 LP  0  0  0  0  0  0  0  0  0  0  0  0  # atno 17371 bound_to 10713
  140.7742  133.8713  155.8516 LP  0  0  0  0  0  0  0  0  0  0  0  0  # atno 17394 bound_to 11000
  140.9816  134.1398  157.4489 LP  0  0  0  0  0  0  0  0  0  0  0  0  # atno 17395 bound_to 11000

$$$$
