AV-unprocessed.smi:36|AV-procd|sdf|293|dock9
  -GOLD-   2262016 83D 1   1.00000     0.00000
 Structure written by MMmdl.
 64 67  0  0  0  0  0  0  0  0  1 V2000
  146.0271  136.5945  161.4923 C   0  0  0  0  0  0  0  0  0  0  0  0
  146.7469  136.2670  160.1735 C   0  0  0  0  0  0  0  0  0  0  0  0
  146.1553  137.1105  159.0318 C   0  0  0  0  0  0  0  0  0  0  0  0
  148.2499  136.5623  160.3113 C   0  0  0  0  0  0  0  0  0  0  0  0
  146.5130  134.4150  159.7664 Si  0  0  0  0  0  0  0  0  0  0  0  0
  147.0196  133.3248  161.2391 C   0  0  0  0  0  0  0  0  0  0  0  0
  144.7115  134.0408  159.2918 C   0  0  0  0  0  0  0  0  0  0  0  0
  147.4958  134.0395  158.4388 O   0  0  0  0  0  0  0  0  0  0  0  0
  147.2994  134.5606  157.1392 C   0  0  0  0  0  0  0  0  0  0  0  0
  148.4553  134.1092  156.2229 C   0  0  2  0  0  0  0  0  0  0  0  0
  149.6158  134.8558  156.5972 O   0  0  0  0  0  0  0  0  0  0  0  0
  149.9393  135.7938  155.6122 C   0  0  2  0  0  0  0  0  0  0  0  0
  150.1513  137.1249  156.2539 N   0  0  0  0  0  0  0  0  0  0  0  0
  149.4471  138.2584  156.0668 C   0  0  0  0  0  0  0  0  0  0  0  0
  149.8678  139.3104  156.7657 N   0  0  0  0  0  0  0  0  0  0  0  0
  150.9515  138.7954  157.4700 C   0  0  0  0  0  0  0  0  0  0  0  0
  151.8683  139.4466  158.4311 C   0  0  0  0  0  0  0  0  0  0  0  0
  151.6711  140.7020  158.6988 N   0  0  0  0  0  0  0  0  0  0  0  0
  152.4977  141.3608  159.6004 C   0  0  0  0  0  0  0  0  0  0  0  0
  153.4330  140.9066  160.2655 O   0  0  0  0  0  0  0  0  0  0  0  0
  152.2172  142.8253  159.7004 C   0  0  0  0  0  0  0  0  0  0  0  0
  151.9936  143.5866  158.5332 C   0  0  0  0  0  0  0  0  0  0  0  0
  151.7308  144.9671  158.6296 C   0  0  0  0  0  0  0  0  0  0  0  0
  151.6898  145.5905  159.8916 C   0  0  0  0  0  0  0  0  0  0  0  0
  151.9142  144.8339  161.0582 C   0  0  0  0  0  0  0  0  0  0  0  0
  152.1790  143.4536  160.9633 C   0  0  0  0  0  0  0  0  0  0  0  0
  152.8186  138.5212  158.8827 N   0  0  0  0  0  0  0  0  0  0  0  0
  152.9069  137.1750  158.4953 C   0  0  0  0  0  0  0  0  0  0  0  0
  152.1040  136.5869  157.6491 N   0  0  0  0  0  0  0  0  0  0  0  0
  151.1401  137.4632  157.1711 C   0  0  0  0  0  0  0  0  0  0  0  0
  148.7607  135.8555  154.6467 C   0  0  0  0  0  0  0  0  0  0  0  0
  148.2717  134.4287  154.7298 C   0  0  2  0  0  0  0  0  0  0  0  0
  146.9480  134.2928  154.2537 O   0  0  0  0  0  0  0  0  0  0  0  0
  146.1389  137.6476  161.7530 H   0  0  0  0  0  0  0  0  0  0  0  0
  146.4266  136.0078  162.3197 H   0  0  0  0  0  0  0  0  0  0  0  0
  144.9591  136.3848  161.4258 H   0  0  0  0  0  0  0  0  0  0  0  0
  145.0882  136.9235  158.9111 H   0  0  0  0  0  0  0  0  0  0  0  0
  146.6388  136.8843  158.0808 H   0  0  0  0  0  0  0  0  0  0  0  0
  146.2815  138.1773  159.2202 H   0  0  0  0  0  0  0  0  0  0  0  0
  148.4290  137.6166  160.5246 H   0  0  0  0  0  0  0  0  0  0  0  0
  148.7875  136.3149  159.3953 H   0  0  0  0  0  0  0  0  0  0  0  0
  148.6969  135.9843  161.1206 H   0  0  0  0  0  0  0  0  0  0  0  0
  146.4076  133.5302  162.1170 H   0  0  0  0  0  0  0  0  0  0  0  0
  148.0588  133.4888  161.5224 H   0  0  0  0  0  0  0  0  0  0  0  0
  146.9092  132.2654  161.0085 H   0  0  0  0  0  0  0  0  0  0  0  0
  144.0252  134.2777  160.1043 H   0  0  0  0  0  0  0  0  0  0  0  0
  144.5731  132.9875  159.0485 H   0  0  0  0  0  0  0  0  0  0  0  0
  144.3983  134.6174  158.4218 H   0  0  0  0  0  0  0  0  0  0  0  0
  146.3412  134.2013  156.7637 H   0  0  0  0  0  0  0  0  0  0  0  0
  147.2312  135.6473  157.1895 H   0  0  0  0  0  0  0  0  0  0  0  0
  148.6376  133.0429  156.3542 H   0  0  0  0  0  0  0  0  0  0  0  0
  150.8873  135.5375  155.1374 H   0  0  0  0  0  0  0  0  0  0  0  0
  148.6017  138.3174  155.3973 H   0  0  0  0  0  0  0  0  0  0  0  0
  152.0236  143.1155  157.5614 H   0  0  0  0  0  0  0  0  0  0  0  0
  151.5607  145.5477  157.7350 H   0  0  0  0  0  0  0  0  0  0  0  0
  151.4878  146.6488  159.9646 H   0  0  0  0  0  0  0  0  0  0  0  0
  151.8827  145.3122  162.0260 H   0  0  0  0  0  0  0  0  0  0  0  0
  152.3506  142.8803  161.8631 H   0  0  0  0  0  0  0  0  0  0  0  0
  153.7249  136.6303  158.9685 H   0  0  0  0  0  0  0  0  0  0  0  0
  148.0093  136.5544  155.0190 H   0  0  0  0  0  0  0  0  0  0  0  0
  149.0787  136.1623  153.6498 H   0  0  0  0  0  0  0  0  0  0  0  0
  148.9270  133.7881  154.1373 H   0  0  0  0  0  0  0  0  0  0  0  0
  146.8013  133.3867  154.0287 H   0  0  0  0  0  0  0  0  0  0  0  0
  153.5024  138.8547  159.5468 H   0  0  0  0  0  0  0  0  0  0  0  0
  1  2  1  0  0  0  0
  1 34  1  0  0  0  0
  1 35  1  0  0  0  0
  1 36  1  0  0  0  0
  2  3  1  0  0  0  0
  2  4  1  0  0  0  0
  2  5  1  0  0  0  0
  3 37  1  0  0  0  0
  3 38  1  0  0  0  0
  3 39  1  0  0  0  0
  4 40  1  0  0  0  0
  4 41  1  0  0  0  0
  4 42  1  0  0  0  0
  5  6  1  0  0  0  0
  5  7  1  0  0  0  0
  5  8  1  0  0  0  0
  6 43  1  0  0  0  0
  6 44  1  0  0  0  0
  6 45  1  0  0  0  0
  7 46  1  0  0  0  0
  7 47  1  0  0  0  0
  7 48  1  0  0  0  0
  8  9  1  0  0  0  0
  9 10  1  0  0  0  0
  9 49  1  0  0  0  0
  9 50  1  0  0  0  0
 10 32  1  0  0  0  0
 10 11  1  0  0  0  0
 10 51  1  0  0  0  0
 11 12  1  0  0  0  0
 12 13  1  0  0  0  0
 12 31  1  0  0  0  0
 12 52  1  0  0  0  0
 13 30  1  0  0  0  0
 13 14  1  0  0  0  0
 14 15  2  0  0  0  0
 14 53  1  0  0  0  0
 15 16  1  0  0  0  0
 16 30  2  0  0  0  0
 16 17  1  0  0  0  0
 17 18  2  0  0  0  0
 17 27  1  0  0  0  0
 18 19  1  0  0  0  0
 19 20  2  0  0  0  0
 19 21  1  0  0  0  0
 21 26  1  0  0  0  0
 21 22  2  0  0  0  0
 22 23  1  0  0  0  0
 22 54  1  0  0  0  0
 23 24  2  0  0  0  0
 23 55  1  0  0  0  0
 24 25  1  0  0  0  0
 24 56  1  0  0  0  0
 25 26  2  0  0  0  0
 25 57  1  0  0  0  0
 26 58  1  0  0  0  0
 27 28  1  0  0  0  0
 27 64  1  0  0  0  0
 28 29  2  0  0  0  0
 28 59  1  0  0  0  0
 29 30  1  0  0  0  0
 31 32  1  0  0  0  0
 31 60  1  0  0  0  0
 31 61  1  0  0  0  0
 32 33  1  0  0  0  0
 32 62  1  0  0  0  0
 33 63  1  0  0  0  0
M  END
> <s_m_source_file>
AV-unprocessed.smi

> <i_m_source_file_index>
36

> <i_lp_mmshare_version>
43012

> <i_f3d_flags>
0

> <s_epik_input>
W0NIM11DKFtDSDNdKShbQ0gzXSlbU2ldKFtDSDNdKShbQ0gzXSlPW0NIMl1bQ0BASF0xT1tDQEhdKFtDSDJdW0NASF0xW09IXSluKFtjSF1uMiljKGMyMyluW2NIXW5jM1tOSF1DKD1PKWM0W2NIXVtjSF1bY0hdW2NIXVtjSF00

> <s_epik_cmdline>
J2VwaWtfcHl0aG9uJywgJy1waCcsICc3LjAnLCAnLXRuJywgJzgnLCAnLW1hJywgJzIwMCcsICctbWV0YWxfYmluZGluZycsICctaW1hZScsICc8aW5maWxlLm1hZT4nLCAnLW9tYWUnLCAnPG91dGZpbGUubWFlPic=

> <r_epik_Ionization_Penalty>
0.0850405

> <r_epik_Ionization_Penalty_Charging>
0.0850403

> <r_epik_Ionization_Penalty_Neutral>
1.47497e-07

> <r_epik_State_Penalty>
2.6133

> <r_epik_Charging_Adjusted_Penalty>
2.69834

> <i_epik_Tot_Q>
0

> <i_epik_Tot_abs_Q>
0

> <r_epik_Metal_State_Penalty>
2.92945

> <b_epik_Metal_Only>
0

> <s_epik_Chemistry_Notes>
This compound contains an acetal/aminal-like group ( X-CH(R)-Y where X, Y are N, S, or O) that may be acid/base labile, releasing an aldehyde.

> <s_lp_Force_Field>
OPLS_2005

> <r_lp_Energy>
48.5801

> <b_lp_Chiralities_Consistent>
1

> <s_lp_Variant>
AV-unprocessed.smi:36-15

> <Gold.Version>
5.8.1

> <Gold.Id.Protein>
6NUR|6NUR_protein|mol2

> <Gold.PLP.Fitness>
52.8127

> <Gold.PLP.PLP>
-51.0970

> <Gold.PLP.part.hbond>
-1.9748

> <Gold.PLP.part.metal>
0.0000

> <Gold.PLP.part.buried>
-6.1332

> <Gold.PLP.part.nonpolar>
-43.6842

> <Gold.PLP.part.repulsive>
0.0723

> <Gold.PLP.ligand.clash>
0.0000

> <Gold.PLP.ligand.torsion>
1.0210

> <Gold.PLP.Chemscore.Hbond>
1.1668

> <Gold.PLP.Chemscore.CHOScore>
0.0000

> <Gold.PLP.Chemscore.Metal>
0.0000

> <Gold.PLP.Chemscore.Internal.Correction>
0.2575

> <Gold.Rescore>
     Score         DG    S(hbond)    S(metal)    S(lipo)     H(rot)  DE(clash)    DE(int)     intcor
     14.18     -15.18       0.79        0.00     119.51       2.70       0.44       0.56       ----

> <Gold.Chemscore.Fitness>
14.1753

> <Gold.Chemscore.DG>
-15.1798

> <Gold.Chemscore.ZeroCoef>
-5.4800

> <Gold.Chemscore.Hbond>
0.7903

> <Gold.Chemscore.Metal>
0.0000

> <Gold.Chemscore.Lipo>
119.5095

> <Gold.Chemscore.Internal_Hbond>
0.0000

> <Gold.Chemscore.DEClash>
0.4435

> <Gold.Chemscore.DEInternal>
0.5610

> <Gold.Chemscore.Rot>
2.7041

> <Gold.Chemscore.Internal.Correction>
   9.000000E+99

> <Gold.Chemscore.Hbond.Weighted>
-2.6397

> <Gold.Chemscore.Metal.Weighted>
-0.0000

> <Gold.Chemscore.Lipo.Weighted>
-13.9826

> <Gold.Chemscore.Internal_Hbond.Weighted>
0.0000

> <Gold.Chemscore.DEClash.Weighted>
0.4435

> <Gold.Chemscore.DEInternal.Weighted>
0.5610

> <Gold.Chemscore.Rot.Weighted>
6.9225

> <Gold.Chemscore.Internal.Correction.Weighted>
   9.000000E+99

> <Gold.Protein.RotatedTorsions>
[ 6907 6896 6895 6894 ] final  139.84 input  -60.11 | X-H torsion
[ 7974 7965 7964 7962 ] final  -97.60 input  175.53 | X-H torsion
[ 8008 7997 7996 7995 ] final -171.02 input   59.86 | X-H torsion
[ 10167 10162 10161 10158 ] final  133.61 input  -65.29 | X-H torsion
[ 10718 10713 10712 10709 ] final   34.23 input   66.30 | X-H torsion
[ 10763 10752 10751 10750 ] final  112.45 input  -60.55 | X-H torsion
[ 11005 11000 10999 10996 ] final  -11.86 input  -57.11 | X-H torsion

> <Gold.Protein.ActiveResidues>
 VAL166  LYS551  ARG553  GLY616  TRP617  ASP618  TYR619  PRO620  LYS621  CYS622 
 ASP623  PHE694  ASN695  SER759  ASP760  ASP761  ALA762  ILE779  LEU786  VAL792 
 PHE793  MET794  SER795  GLU796  ALA797  LYS798  CYS799  TRP800  GLU811  SER814 

> <Gold.Protein.RotatedAtoms>
  152.2502  133.5208  159.5320 H   0  0  0  0  0  0  0  0  0  0  0  0  # atno 6907 bound_to 6896
  150.7091  134.0971  159.3961 H   0  0  0  0  0  0  0  0  0  0  0  0  # atno 6908 bound_to 6896
  151.8890  135.0424  160.0547 H   0  0  0  0  0  0  0  0  0  0  0  0  # atno 6909 bound_to 6896
  145.3316  140.9442  143.2658 H   0  0  0  0  0  0  0  0  0  0  0  0  # atno 7974 bound_to 7965
  155.9260  140.1082  157.1169 H   0  0  0  0  0  0  0  0  0  0  0  0  # atno 8008 bound_to 7997
  154.4062  140.1246  156.4807 H   0  0  0  0  0  0  0  0  0  0  0  0  # atno 8009 bound_to 7997
  155.7138  140.3470  155.4987 H   0  0  0  0  0  0  0  0  0  0  0  0  # atno 8010 bound_to 7997
  139.5290  144.6608  151.5020 H   0  0  0  0  0  0  0  0  0  0  0  0  # atno 10167 bound_to 10162
  157.3078  130.7383  149.6706 H   0  0  0  0  0  0  0  0  0  0  0  0  # atno 10718 bound_to 10713
  153.4780  135.3686  155.2426 H   0  0  0  0  0  0  0  0  0  0  0  0  # atno 10763 bound_to 10752
  154.8756  135.3947  154.3734 H   0  0  0  0  0  0  0  0  0  0  0  0  # atno 10764 bound_to 10752
  153.4333  135.7083  153.6281 H   0  0  0  0  0  0  0  0  0  0  0  0  # atno 10765 bound_to 10752
  140.7597  133.8525  155.9114 H   0  0  0  0  0  0  0  0  0  0  0  0  # atno 11005 bound_to 11000
  144.8860  139.4839  143.6700 LP  0  0  0  0  0  0  0  0  0  0  0  0  # atno 17320 bound_to 7965
  146.3043  139.7529  142.9068 LP  0  0  0  0  0  0  0  0  0  0  0  0  # atno 17321 bound_to 7965
  140.6455  143.8804  150.6733 LP  0  0  0  0  0  0  0  0  0  0  0  0  # atno 17342 bound_to 10162
  140.2152  143.3852  152.1687 LP  0  0  0  0  0  0  0  0  0  0  0  0  # atno 17343 bound_to 10162
  155.9675  130.4260  150.4681 LP  0  0  0  0  0  0  0  0  0  0  0  0  # atno 17370 bound_to 10713
  157.2674  131.0580  151.2282 LP  0  0  0  0  0  0  0  0  0  0  0  0  # atno 17371 bound_to 10713
  140.9674  134.1575  157.4604 LP  0  0  0  0  0  0  0  0  0  0  0  0  # atno 17394 bound_to 11000
  139.8773  134.9966  156.5806 LP  0  0  0  0  0  0  0  0  0  0  0  0  # atno 17395 bound_to 11000

$$$$
