AV-unprocessed.smi:3311|AV-procd|sdf|12726|dock5
  -GOLD-   2272019 73D 1   1.00000     0.00000
 Structure written by MMmdl.
 43 44  0  0  0  0  0  0  0  0  1 V2000
  151.0068  139.0834  157.6115 C   0  0  0  0  0  0  0  0  0  0  0  0
  151.4079  140.4619  157.0590 C   0  0  1  0  0  0  0  0  0  0  0  0
  152.7269  140.8118  157.5997 N   0  0  0  0  0  0  0  0  0  0  0  0
  152.9438  140.4954  159.0143 C   0  0  0  0  0  0  0  0  0  0  0  0
  153.1915  141.7568  159.8731 C   0  0  0  0  0  0  0  0  0  0  0  0
  154.4977  142.2140  159.5707 O   0  0  0  0  0  0  0  0  0  0  0  0
  152.2004  142.8675  159.4499 C   0  0  0  0  0  0  0  0  0  0  0  0
  152.3089  144.1379  160.3128 C   0  0  0  0  0  0  0  0  0  0  0  0
  152.1485  143.8131  161.8042 C   0  0  0  0  0  0  0  0  0  0  0  0
  153.1704  142.7572  162.2475 C   0  0  0  0  0  0  0  0  0  0  0  0
  153.0693  141.4804  161.3937 C   0  0  0  0  0  0  0  0  0  0  0  0
  151.3398  140.4842  155.5023 C   0  0  1  0  0  0  0  0  0  0  0  0
  152.1265  139.3753  154.7832 C   0  0  0  0  0  0  0  0  0  0  0  0
  149.9753  140.5773  154.9907 N   0  0  0  0  0  0  0  0  0  0  0  0
  149.0740  141.6178  155.1066 C   0  0  0  0  0  0  0  0  0  0  0  0
  147.9329  141.2475  154.4551 C   0  0  0  0  0  0  0  0  0  0  0  0
  148.2328  139.9471  153.9635 C   0  0  0  0  0  0  0  0  0  0  0  0
  149.4532  139.5498  154.2837 N   0  0  0  0  0  0  0  0  0  0  0  0
  150.0212  138.7875  157.2518 H   0  0  0  0  0  0  0  0  0  0  0  0
  150.9651  139.0959  158.7011 H   0  0  0  0  0  0  0  0  0  0  0  0
  151.7140  138.3066  157.3189 H   0  0  0  0  0  0  0  0  0  0  0  0
  150.6707  141.1706  157.4387 H   0  0  0  0  0  0  0  0  0  0  0  0
  153.4489  140.3622  157.0460 H   0  0  0  0  0  0  0  0  0  0  0  0
  152.1095  139.9372  159.4305 H   0  0  0  0  0  0  0  0  0  0  0  0
  153.8114  139.8398  159.0973 H   0  0  0  0  0  0  0  0  0  0  0  0
  154.6290  143.0460  159.9987 H   0  0  0  0  0  0  0  0  0  0  0  0
  152.3464  143.1247  158.3998 H   0  0  0  0  0  0  0  0  0  0  0  0
  151.1811  142.4862  159.5255 H   0  0  0  0  0  0  0  0  0  0  0  0
  153.2717  144.6211  160.1435 H   0  0  0  0  0  0  0  0  0  0  0  0
  151.5485  144.8575  160.0076 H   0  0  0  0  0  0  0  0  0  0  0  0
  152.2684  144.7198  162.3981 H   0  0  0  0  0  0  0  0  0  0  0  0
  151.1380  143.4488  161.9946 H   0  0  0  0  0  0  0  0  0  0  0  0
  154.1775  143.1699  162.1768 H   0  0  0  0  0  0  0  0  0  0  0  0
  153.0143  142.5106  163.2979 H   0  0  0  0  0  0  0  0  0  0  0  0
  152.1104  141.0004  161.5937 H   0  0  0  0  0  0  0  0  0  0  0  0
  153.8347  140.7757  161.7208 H   0  0  0  0  0  0  0  0  0  0  0  0
  151.8449  141.4068  155.2093 H   0  0  0  0  0  0  0  0  0  0  0  0
  153.1260  139.2631  155.2036 H   0  0  0  0  0  0  0  0  0  0  0  0
  152.2413  139.6126  153.7252 H   0  0  0  0  0  0  0  0  0  0  0  0
  151.6211  138.4117  154.8365 H   0  0  0  0  0  0  0  0  0  0  0  0
  149.3182  142.5275  155.6357 H   0  0  0  0  0  0  0  0  0  0  0  0
  147.0237  141.8194  154.3454 H   0  0  0  0  0  0  0  0  0  0  0  0
  147.6046  139.2847  153.3863 H   0  0  0  0  0  0  0  0  0  0  0  0
  1  2  1  0  0  0  0
  1 19  1  0  0  0  0
  1 20  1  0  0  0  0
  1 21  1  0  0  0  0
  2  3  1  0  0  0  0
  2 12  1  0  0  0  0
  2 22  1  0  0  0  0
  3  4  1  0  0  0  0
  3 23  1  0  0  0  0
  4  5  1  0  0  0  0
  4 24  1  0  0  0  0
  4 25  1  0  0  0  0
  5 11  1  0  0  0  0
  5  6  1  0  0  0  0
  5  7  1  0  0  0  0
  6 26  1  0  0  0  0
  7  8  1  0  0  0  0
  7 27  1  0  0  0  0
  7 28  1  0  0  0  0
  8  9  1  0  0  0  0
  8 29  1  0  0  0  0
  8 30  1  0  0  0  0
  9 10  1  0  0  0  0
  9 31  1  0  0  0  0
  9 32  1  0  0  0  0
 10 11  1  0  0  0  0
 10 33  1  0  0  0  0
 10 34  1  0  0  0  0
 11 35  1  0  0  0  0
 11 36  1  0  0  0  0
 12 13  1  0  0  0  0
 12 14  1  0  0  0  0
 12 37  1  0  0  0  0
 13 38  1  0  0  0  0
 13 39  1  0  0  0  0
 13 40  1  0  0  0  0
 14 18  1  0  0  0  0
 14 15  1  0  0  0  0
 15 16  2  0  0  0  0
 15 41  1  0  0  0  0
 16 17  1  0  0  0  0
 16 42  1  0  0  0  0
 17 18  2  0  0  0  0
 17 43  1  0  0  0  0
M  END
> <s_m_source_file>
AV-unprocessed.smi

> <i_m_source_file_index>
3311

> <i_lp_mmshare_version>
43012

> <i_f3d_flags>
0

> <s_epik_input>
bjFbY0hdW2NIXVtjSF1uMVtDQEBIXShbQ0gzXSlbQ0BIXShbQ0gzXSlbTkhdW0NIMl1DMihbT0hdKVtDSDJdW0NIMl1bQ0gyXVtDSDJdW0NIMl0y

> <s_epik_cmdline>
J2VwaWtfcHl0aG9uJywgJy1waCcsICc3LjAnLCAnLXRuJywgJzgnLCAnLW1hJywgJzIwMCcsICctbWV0YWxfYmluZGluZycsICctaW1hZScsICc8aW5maWxlLm1hZT4nLCAnLW9tYWUnLCAnPG91dGZpbGUubWFlPic=

> <r_lp_tautomer_probability>
1

> <r_epik_Ionization_Penalty>
2.222

> <r_epik_Ionization_Penalty_Charging>
0

> <r_epik_Ionization_Penalty_Neutral>
2.222

> <r_epik_State_Penalty>
2.36562

> <r_epik_Charging_Adjusted_Penalty>
2.36562

> <i_epik_Tot_Q>
0

> <i_epik_Tot_abs_Q>
0

> <r_epik_Metal_State_Penalty>
2.36435

> <b_epik_Metal_Only>
0

> <s_lp_Force_Field>
OPLS_2005

> <r_lp_Energy>
31.437

> <b_lp_Chiralities_Consistent>
1

> <s_lp_Variant>
AV-unprocessed.smi:3311-8

> <Gold.Version>
5.8.1

> <Gold.Id.Protein>
6NUR|6NUR_protein|mol2

> <Gold.PLP.Fitness>
41.9810

> <Gold.PLP.PLP>
-40.9788

> <Gold.PLP.part.hbond>
-0.9152

> <Gold.PLP.part.metal>
0.0000

> <Gold.PLP.part.buried>
-0.3259

> <Gold.PLP.part.nonpolar>
-38.4330

> <Gold.PLP.part.repulsive>
0.1422

> <Gold.PLP.ligand.clash>
0.0000

> <Gold.PLP.ligand.torsion>
1.1277

> <Gold.PLP.Chemscore.Hbond>
0.0000

> <Gold.PLP.Chemscore.CHOScore>
1.0000

> <Gold.PLP.Chemscore.Metal>
0.0000

> <Gold.Chemscore.Hbonds>
donor molecule, donor type, donor heavy atom, donor atom, acceptor molecule, acceptor atom, score
      L1  C    15    41       P1  8028  1.00

> <Gold.PLP.Chemscore.Internal.Correction>
0.2575

> <Gold.Rescore>
     Score         DG    S(hbond)    S(metal)    S(lipo)     H(rot)  DE(clash)    DE(int)     intcor
     12.89     -13.98       0.00        0.00     117.89       2.07       0.21       0.88       ----

> <Gold.Chemscore.Fitness>
12.8873

> <Gold.Chemscore.DG>
-13.9769

> <Gold.Chemscore.ZeroCoef>
-5.4800

> <Gold.Chemscore.Hbond>
0.0000

> <Gold.Chemscore.Metal>
0.0000

> <Gold.Chemscore.Lipo>
117.8858

> <Gold.Chemscore.Internal_Hbond>
0.0000

> <Gold.Chemscore.DEClash>
0.2142

> <Gold.Chemscore.DEInternal>
0.8755

> <Gold.Chemscore.Rot>
2.0686

> <Gold.Chemscore.Internal.Correction>
   9.000000E+99

> <Gold.Chemscore.Hbond.Weighted>
-0.0000

> <Gold.Chemscore.Metal.Weighted>
-0.0000

> <Gold.Chemscore.Lipo.Weighted>
-13.7926

> <Gold.Chemscore.Internal_Hbond.Weighted>
0.0000

> <Gold.Chemscore.DEClash.Weighted>
0.2142

> <Gold.Chemscore.DEInternal.Weighted>
0.8755

> <Gold.Chemscore.Rot.Weighted>
5.2957

> <Gold.Chemscore.Internal.Correction.Weighted>
   9.000000E+99

> <Gold.Protein.RotatedTorsions>
[ 6907 6896 6895 6894 ] final    2.70 input  -60.11 | X-H torsion
[ 7974 7965 7964 7962 ] final -179.94 input  175.53 | X-H torsion
[ 8008 7997 7996 7995 ] final   71.24 input   59.86 | X-H torsion
[ 10167 10162 10161 10158 ] final  -99.00 input  -65.29 | X-H torsion
[ 10718 10713 10712 10709 ] final  102.32 input   66.30 | X-H torsion
[ 10763 10752 10751 10750 ] final  178.53 input  -60.55 | X-H torsion
[ 11005 11000 10999 10996 ] final -123.77 input  -57.11 | X-H torsion

> <Gold.Protein.ActiveResidues>
 VAL166  LYS551  ARG553  GLY616  TRP617  ASP618  TYR619  PRO620  LYS621  CYS622 
 ASP623  PHE694  ASN695  SER759  ASP760  ASP761  ALA762  ILE779  LEU786  VAL792 
 PHE793  MET794  SER795  GLU796  ALA797  LYS798  CYS799  TRP800  GLU811  SER814 

> <Gold.Protein.RotatedAtoms>
  151.6132  135.1038  160.0085 H   0  0  0  0  0  0  0  0  0  0  0  0  # atno 6907 bound_to 6896
  152.4197  133.7092  159.6480 H   0  0  0  0  0  0  0  0  0  0  0  0  # atno 6908 bound_to 6896
  150.8085  133.8392  159.3215 H   0  0  0  0  0  0  0  0  0  0  0  0  # atno 6909 bound_to 6896
  144.7140  140.0642  143.6431 H   0  0  0  0  0  0  0  0  0  0  0  0  # atno 7974 bound_to 7965
  155.7508  140.3488  155.5149 H   0  0  0  0  0  0  0  0  0  0  0  0  # atno 8008 bound_to 7997
  155.9006  140.1033  157.1374 H   0  0  0  0  0  0  0  0  0  0  0  0  # atno 8009 bound_to 7997
  154.4043  140.1287  156.4418 H   0  0  0  0  0  0  0  0  0  0  0  0  # atno 8010 bound_to 7997
  140.2670  143.3369  152.0571 H   0  0  0  0  0  0  0  0  0  0  0  0  # atno 10167 bound_to 10162
  157.6805  131.0750  150.5386 H   0  0  0  0  0  0  0  0  0  0  0  0  # atno 10718 bound_to 10713
  154.5089  135.2787  155.1359 H   0  0  0  0  0  0  0  0  0  0  0  0  # atno 10763 bound_to 10752
  154.2963  135.6257  153.5409 H   0  0  0  0  0  0  0  0  0  0  0  0  # atno 10764 bound_to 10752
  152.9915  135.5686  154.5549 H   0  0  0  0  0  0  0  0  0  0  0  0  # atno 10765 bound_to 10752
  140.9893  134.0562  157.3673 H   0  0  0  0  0  0  0  0  0  0  0  0  # atno 11005 bound_to 11000
  145.9838  139.2962  143.1026 LP  0  0  0  0  0  0  0  0  0  0  0  0  # atno 17320 bound_to 7965
  145.8980  140.9261  143.0517 LP  0  0  0  0  0  0  0  0  0  0  0  0  # atno 17321 bound_to 7965
  139.5000  144.6681  151.6307 LP  0  0  0  0  0  0  0  0  0  0  0  0  # atno 17342 bound_to 10162
  140.5920  143.9762  150.6331 LP  0  0  0  0  0  0  0  0  0  0  0  0  # atno 17343 bound_to 10162
  156.5694  130.4276  149.6026 LP  0  0  0  0  0  0  0  0  0  0  0  0  # atno 17370 bound_to 10713
  156.2754  130.7040  151.1850 LP  0  0  0  0  0  0  0  0  0  0  0  0  # atno 17371 bound_to 10713
  139.8985  135.0155  156.7151 LP  0  0  0  0  0  0  0  0  0  0  0  0  # atno 17394 bound_to 11000
  140.7065  133.9261  155.8057 LP  0  0  0  0  0  0  0  0  0  0  0  0  # atno 17395 bound_to 11000

$$$$
