AV-unprocessed.smi:1954|AV-procd|sdf|7896|dock5
  -GOLD-   2272010 53D 1   1.00000     0.00000
 Structure written by MMmdl.
 45 47  0  0  0  0  0  0  0  0  2 V2000
  146.0331  139.3614  153.7363 O   0  0  0  0  0  0  0  0  0  0  0  0
  146.7942  138.5046  153.2873 C   0  0  0  0  0  0  0  0  0  0  0  0
  146.3863  137.4778  152.5277 N   0  0  0  0  0  0  0  0  0  0  0  0
  145.0029  137.2089  152.1338 C   0  0  0  0  0  0  0  0  0  0  0  0
  144.3716  135.9806  152.8651 C   0  0  1  0  0  0  0  0  0  0  0  0
  144.9930  134.7148  152.3231 N   0  3  0  0  0  0  0  0  0  0  0  0
  144.7680  134.4986  150.8658 C   0  0  0  0  0  0  0  0  0  0  0  0
  145.2580  133.1089  150.4343 C   0  0  0  0  0  0  0  0  0  0  0  0
  146.6406  132.9919  150.7330 O   0  0  0  0  0  0  0  0  0  0  0  0
  146.8790  133.0866  152.1293 C   0  0  0  0  0  0  0  0  0  0  0  0
  146.4218  134.4576  152.6599 C   0  0  0  0  0  0  0  0  0  0  0  0
  144.5602  136.1280  154.3945 C   0  0  0  0  0  0  0  0  0  0  0  0
  143.6356  137.2446  154.9016 C   0  0  0  0  0  0  0  0  0  0  0  0
  142.1872  137.3105  153.8175 S   0  0  0  0  0  0  0  0  0  0  0  0
  142.8267  136.0266  152.7144 C   0  0  0  0  0  0  0  0  0  0  0  0
  148.1218  138.4589  153.4941 N   0  0  0  0  0  0  0  0  0  0  0  0
  148.9212  139.3372  154.2729 C   0  0  0  0  0  0  0  0  0  0  0  0
  150.1608  138.9029  154.8096 C   0  0  0  0  0  0  0  0  0  0  0  0
  150.9192  139.7888  155.5991 C   0  0  0  0  0  0  0  0  0  0  0  0
  150.4177  141.0792  155.8440 C   0  0  0  0  0  0  0  0  0  0  0  0
  149.1708  141.4217  155.2903 C   0  0  0  0  0  0  0  0  0  0  0  0
  148.4401  140.5746  154.5343 N   0  0  0  0  0  0  0  0  0  0  0  0
  147.0821  136.8123  152.2240 H   0  0  0  0  0  0  0  0  0  0  0  0
  144.4345  138.1115  152.3557 H   0  0  0  0  0  0  0  0  0  0  0  0
  144.9361  137.1121  151.0496 H   0  0  0  0  0  0  0  0  0  0  0  0
  143.7124  134.5866  150.6147 H   0  0  0  0  0  0  0  0  0  0  0  0
  145.2989  135.2554  150.2871 H   0  0  0  0  0  0  0  0  0  0  0  0
  144.6901  132.3196  150.9298 H   0  0  0  0  0  0  0  0  0  0  0  0
  145.1172  132.9778  149.3613 H   0  0  0  0  0  0  0  0  0  0  0  0
  146.3632  132.2784  152.6508 H   0  0  0  0  0  0  0  0  0  0  0  0
  147.9449  132.9510  152.3138 H   0  0  0  0  0  0  0  0  0  0  0  0
  147.0520  135.2485  152.2517 H   0  0  0  0  0  0  0  0  0  0  0  0
  146.5726  134.4329  153.7378 H   0  0  0  0  0  0  0  0  0  0  0  0
  144.2825  135.1982  154.8922 H   0  0  0  0  0  0  0  0  0  0  0  0
  145.5944  136.3347  154.6718 H   0  0  0  0  0  0  0  0  0  0  0  0
  143.3372  137.0830  155.9378 H   0  0  0  0  0  0  0  0  0  0  0  0
  144.1412  138.2094  154.8526 H   0  0  0  0  0  0  0  0  0  0  0  0
  142.4869  136.1713  151.6899 H   0  0  0  0  0  0  0  0  0  0  0  0
  142.3499  135.1227  153.0877 H   0  0  0  0  0  0  0  0  0  0  0  0
  148.5984  137.6388  153.1493 H   0  0  0  0  0  0  0  0  0  0  0  0
  150.5367  137.9054  154.6394 H   0  0  0  0  0  0  0  0  0  0  0  0
  151.8671  139.4799  156.0143 H   0  0  0  0  0  0  0  0  0  0  0  0
  150.9707  141.7855  156.4454 H   0  0  0  0  0  0  0  0  0  0  0  0
  148.7467  142.4000  155.4607 H   0  0  0  0  0  0  0  0  0  0  0  0
  144.4904  133.9721  152.7879 H   0  0  0  0  0  0  0  0  0  0  0  0
  1  2  2  0  0  0  0
  2  3  1  0  0  0  0
  2 16  1  0  0  0  0
  3  4  1  0  0  0  0
  3 23  1  0  0  0  0
  4  5  1  0  0  0  0
  4 24  1  0  0  0  0
  4 25  1  0  0  0  0
  5 15  1  0  0  0  0
  5  6  1  0  0  0  0
  5 12  1  0  0  0  0
  6 11  1  0  0  0  0
  6  7  1  0  0  0  0
  6 45  1  0  0  0  0
  7  8  1  0  0  0  0
  7 26  1  0  0  0  0
  7 27  1  0  0  0  0
  8  9  1  0  0  0  0
  8 28  1  0  0  0  0
  8 29  1  0  0  0  0
  9 10  1  0  0  0  0
 10 11  1  0  0  0  0
 10 30  1  0  0  0  0
 10 31  1  0  0  0  0
 11 32  1  0  0  0  0
 11 33  1  0  0  0  0
 12 13  1  0  0  0  0
 12 34  1  0  0  0  0
 12 35  1  0  0  0  0
 13 14  1  0  0  0  0
 13 36  1  0  0  0  0
 13 37  1  0  0  0  0
 14 15  1  0  0  0  0
 15 38  1  0  0  0  0
 15 39  1  0  0  0  0
 16 17  1  0  0  0  0
 16 40  1  0  0  0  0
 17 22  1  0  0  0  0
 17 18  2  0  0  0  0
 18 19  1  0  0  0  0
 18 41  1  0  0  0  0
 19 20  2  0  0  0  0
 19 42  1  0  0  0  0
 20 21  1  0  0  0  0
 20 43  1  0  0  0  0
 21 22  2  0  0  0  0
 21 44  1  0  0  0  0
M  CHG  1   6   1
M  END
> <s_m_source_file>
AV-unprocessed.smi

> <i_m_source_file_index>
1954

> <i_lp_mmshare_version>
43012

> <i_f3d_flags>
0

> <s_epik_input>
bjFbY0hdW2NIXVtjSF1bY0hdYzFbTkhdQyg9TylbTkhdW0NIMl1bQ0BdMihbQ0gyXVtDSDJdU1tDSDJdMilOM1tDSDJdW0NIMl1PW0NIMl1bQ0gyXTM=

> <s_epik_cmdline>
J2VwaWtfcHl0aG9uJywgJy1waCcsICc3LjAnLCAnLXRuJywgJzgnLCAnLW1hJywgJzIwMCcsICctbWV0YWxfYmluZGluZycsICctaW1hZScsICc8aW5maWxlLm1hZT4nLCAnLW9tYWUnLCAnPG91dGZpbGUubWFlPic=

> <r_epik_Ionization_Penalty>
2.03222

> <r_epik_Ionization_Penalty_Charging>
2.03219

> <r_epik_Ionization_Penalty_Neutral>
3.25833e-05

> <r_epik_State_Penalty>
2.16328

> <r_epik_Charging_Adjusted_Penalty>
4.19546

> <i_epik_Tot_Q>
1

> <i_epik_Tot_abs_Q>
1

> <r_epik_Metal_State_Penalty>
2.16328

> <b_epik_Metal_Only>
0

> <s_lp_Force_Field>
OPLS_2005

> <r_lp_Energy>
49.2696

> <b_lp_Chiralities_Consistent>
1

> <s_lp_Variant>
AV-unprocessed.smi:1954-3

> <Gold.Version>
5.8.1

> <Gold.Id.Protein>
6NUR|6NUR_protein|mol2

> <Gold.PLP.Fitness>
39.7691

> <Gold.PLP.PLP>
-31.4029

> <Gold.PLP.part.hbond>
-2.9250

> <Gold.PLP.part.metal>
0.0000

> <Gold.PLP.part.buried>
-1.7593

> <Gold.PLP.part.nonpolar>
-27.2743

> <Gold.PLP.part.repulsive>
0.6853

> <Gold.PLP.ligand.clash>
0.0000

> <Gold.PLP.ligand.torsion>
0.3735

> <Gold.PLP.Chemscore.Hbond>
1.9920

> <Gold.PLP.Chemscore.CHOScore>
1.0000

> <Gold.PLP.Chemscore.Metal>
0.0000

> <Gold.Chemscore.Hbonds>
donor molecule, donor type, donor heavy atom, donor atom, acceptor molecule, acceptor atom, score
      L1  H     3    23       P1  7948  1.00
      L1  H    16    40       P1  7948  1.00
      L1  C    21    44       P1  8028  1.00

> <Gold.PLP.Chemscore.Internal.Correction>
0.1372

> <Gold.Rescore>
     Score         DG    S(hbond)    S(metal)    S(lipo)     H(rot)  DE(clash)    DE(int)     intcor
     14.06     -16.00       1.94        0.00      68.22       1.54       0.06       1.88       ----

> <Gold.Chemscore.Fitness>
14.0627

> <Gold.Chemscore.DG>
-16.0009

> <Gold.Chemscore.ZeroCoef>
-5.4800

> <Gold.Chemscore.Hbond>
1.9371

> <Gold.Chemscore.Metal>
0.0000

> <Gold.Chemscore.Lipo>
68.2210

> <Gold.Chemscore.Internal_Hbond>
0.0000

> <Gold.Chemscore.DEClash>
0.0589

> <Gold.Chemscore.DEInternal>
1.8794

> <Gold.Chemscore.Rot>
1.5355

> <Gold.Chemscore.Internal.Correction>
   9.000000E+99

> <Gold.Chemscore.Hbonds>
donor molecule, donor type, donor heavy atom, donor atom, acceptor molecule, acceptor atom, score
      L1  H     3    23       P1  7948  0.95
      L1  H    16    40       P1  7948  0.98

> <Gold.Chemscore.Hbond.Weighted>
-6.4700

> <Gold.Chemscore.Metal.Weighted>
-0.0000

> <Gold.Chemscore.Lipo.Weighted>
-7.9819

> <Gold.Chemscore.Internal_Hbond.Weighted>
0.0000

> <Gold.Chemscore.DEClash.Weighted>
0.0589

> <Gold.Chemscore.DEInternal.Weighted>
1.8794

> <Gold.Chemscore.Rot.Weighted>
3.9309

> <Gold.Chemscore.Internal.Correction.Weighted>
   9.000000E+99

> <Gold.Protein.RotatedTorsions>
[ 6907 6896 6895 6894 ] final   64.67 input  -60.11 | X-H torsion
[ 7974 7965 7964 7962 ] final  -64.86 input  175.53 | X-H torsion
[ 8008 7997 7996 7995 ] final -134.64 input   59.86 | X-H torsion
[ 10167 10162 10161 10158 ] final  120.33 input  -65.29 | X-H torsion
[ 10718 10713 10712 10709 ] final  153.39 input   66.30 | X-H torsion
[ 10763 10752 10751 10750 ] final -129.94 input  -60.55 | X-H torsion
[ 11005 11000 10999 10996 ] final -124.47 input  -57.11 | X-H torsion

> <Gold.Protein.ActiveResidues>
 VAL166  LYS551  ARG553  GLY616  TRP617  ASP618  TYR619  PRO620  LYS621  CYS622 
 ASP623  PHE694  ASN695  SER759  ASP760  ASP761  ALA762  ILE779  LEU786  VAL792 
 PHE793  MET794  SER795  GLU796  ALA797  LYS798  CYS799  TRP800  GLU811  SER814 

> <Gold.Protein.RotatedAtoms>
  152.4349  134.5705  159.9919 H   0  0  0  0  0  0  0  0  0  0  0  0  # atno 6907 bound_to 6896
  151.5818  133.3371  159.3018 H   0  0  0  0  0  0  0  0  0  0  0  0  # atno 6908 bound_to 6896
  150.8246  134.7506  159.6867 H   0  0  0  0  0  0  0  0  0  0  0  0  # atno 6909 bound_to 6896
  145.7615  140.8859  143.0427 H   0  0  0  0  0  0  0  0  0  0  0  0  # atno 7974 bound_to 7965
  155.3654  140.0485  157.3046 H   0  0  0  0  0  0  0  0  0  0  0  0  # atno 8008 bound_to 7997
  154.5156  140.2207  155.9035 H   0  0  0  0  0  0  0  0  0  0  0  0  # atno 8009 bound_to 7997
  156.1633  140.3112  155.8850 H   0  0  0  0  0  0  0  0  0  0  0  0  # atno 8010 bound_to 7997
  139.5989  144.7050  151.3109 H   0  0  0  0  0  0  0  0  0  0  0  0  # atno 10167 bound_to 10162
  157.2454  131.0768  151.1765 H   0  0  0  0  0  0  0  0  0  0  0  0  # atno 10718 bound_to 10713
  154.8756  135.3879  154.4003 H   0  0  0  0  0  0  0  0  0  0  0  0  # atno 10763 bound_to 10752
  153.4728  135.7030  153.5988 H   0  0  0  0  0  0  0  0  0  0  0  0  # atno 10764 bound_to 10752
  153.4438  135.3850  155.2212 H   0  0  0  0  0  0  0  0  0  0  0  0  # atno 10765 bound_to 10752
  140.9838  134.0635  157.3734 H   0  0  0  0  0  0  0  0  0  0  0  0  # atno 11005 bound_to 11000
  144.6829  139.9729  143.7482 LP  0  0  0  0  0  0  0  0  0  0  0  0  # atno 17320 bound_to 7965
  146.0260  139.3292  143.0784 LP  0  0  0  0  0  0  0  0  0  0  0  0  # atno 17321 bound_to 7965
  140.7234  143.7072  150.7798 LP  0  0  0  0  0  0  0  0  0  0  0  0  # atno 17342 bound_to 10162
  140.0644  143.5123  152.2611 LP  0  0  0  0  0  0  0  0  0  0  0  0  # atno 17343 bound_to 10162
  157.3335  130.6997  149.6338 LP  0  0  0  0  0  0  0  0  0  0  0  0  # atno 17370 bound_to 10713
  155.9668  130.4300  150.4860 LP  0  0  0  0  0  0  0  0  0  0  0  0  # atno 17371 bound_to 10713
  139.8962  135.0144  156.7038 LP  0  0  0  0  0  0  0  0  0  0  0  0  # atno 17394 bound_to 11000
  140.7145  133.9194  155.8106 LP  0  0  0  0  0  0  0  0  0  0  0  0  # atno 17395 bound_to 11000

$$$$
