AV-unprocessed.smi:2822|AV-procd|sdf|10860|dock5
  -GOLD-   2272015303D 1   1.00000     0.00000
 Structure written by MMmdl.
 41 43  0  0  0  0  0  0  0  0  3 V2000
  146.3808  142.7619  157.3941 Cl  0  0  0  0  0  0  0  0  0  0  0  0
  146.8471  142.1345  155.8519 C   0  0  0  0  0  0  0  0  0  0  0  0
  145.8486  141.7995  154.9142 C   0  0  0  0  0  0  0  0  0  0  0  0
  146.1947  141.3083  153.7055 N   0  3  0  0  0  0  0  0  0  0  0  0
  147.4788  141.1150  153.3376 C   0  0  0  0  0  0  0  0  0  0  0  0
  148.5219  141.4307  154.2318 C   0  0  0  0  0  0  0  0  0  0  0  0
  148.2107  141.9507  155.5134 C   0  0  0  0  0  0  0  0  0  0  0  0
  149.2012  142.2899  156.4483 N   0  0  0  0  0  0  0  0  0  0  0  0
  150.6158  142.1585  156.1329 C   0  0  0  0  0  0  0  0  0  0  0  0
  151.4991  142.6067  157.3065 C   0  0  2  0  0  0  0  0  0  0  0  0
  151.8715  141.4267  158.2232 C   0  0  0  0  0  0  0  0  0  0  0  0
  152.6630  141.8969  159.3840 N   0  3  2  0  0  0  0  0  0  0  0  0
  153.0781  140.7842  160.2756 C   0  0  0  0  0  0  0  0  0  0  0  0
  153.9750  141.2934  161.4156 C   0  0  0  0  0  0  0  0  0  0  0  0
  153.2739  142.4040  162.2081 C   0  0  0  0  0  0  0  0  0  0  0  0
  152.8306  143.5267  161.2605 C   0  0  0  0  0  0  0  0  0  0  0  0
  151.9527  142.9800  160.1171 C   0  0  1  0  0  0  0  0  0  0  0  0
  151.5453  144.0989  159.1384 C   0  0  0  0  0  0  0  0  0  0  0  0
  150.7701  143.5562  158.0770 O   0  0  0  0  0  0  0  0  0  0  0  0
  144.7892  141.9094  155.0941 H   0  0  0  0  0  0  0  0  0  0  0  0
  147.6329  140.7168  152.3452 H   0  0  0  0  0  0  0  0  0  0  0  0
  149.5425  141.2706  153.9177 H   0  0  0  0  0  0  0  0  0  0  0  0
  148.9347  142.4358  157.4123 H   0  0  0  0  0  0  0  0  0  0  0  0
  150.8409  141.1253  155.8652 H   0  0  0  0  0  0  0  0  0  0  0  0
  150.8343  142.7765  155.2612 H   0  0  0  0  0  0  0  0  0  0  0  0
  152.4099  143.0657  156.9158 H   0  0  0  0  0  0  0  0  0  0  0  0
  150.9694  140.9242  158.5762 H   0  0  0  0  0  0  0  0  0  0  0  0
  152.4503  140.6902  157.6642 H   0  0  0  0  0  0  0  0  0  0  0  0
  152.1934  140.2952  160.6862 H   0  0  0  0  0  0  0  0  0  0  0  0
  153.6161  140.0328  159.6964 H   0  0  0  0  0  0  0  0  0  0  0  0
  154.2370  140.4697  162.0805 H   0  0  0  0  0  0  0  0  0  0  0  0
  154.9127  141.6707  161.0051 H   0  0  0  0  0  0  0  0  0  0  0  0
  152.4066  141.9953  162.7283 H   0  0  0  0  0  0  0  0  0  0  0  0
  153.9407  142.7991  162.9752 H   0  0  0  0  0  0  0  0  0  0  0  0
  152.2849  144.2863  161.8216 H   0  0  0  0  0  0  0  0  0  0  0  0
  153.7109  144.0214  160.8475 H   0  0  0  0  0  0  0  0  0  0  0  0
  151.0438  142.5556  160.5479 H   0  0  0  0  0  0  0  0  0  0  0  0
  150.9490  144.8514  159.6551 H   0  0  0  0  0  0  0  0  0  0  0  0
  152.4218  144.6104  158.7366 H   0  0  0  0  0  0  0  0  0  0  0  0
  153.5100  142.3042  159.0135 H   0  0  0  0  0  0  0  0  0  0  0  0
  145.4549  141.0736  153.0430 H   0  0  0  0  0  0  0  0  0  0  0  0
  1  2  1  0  0  0  0
  2  7  1  0  0  0  0
  2  3  2  0  0  0  0
  3  4  1  0  0  0  0
  3 20  1  0  0  0  0
  4  5  2  0  0  0  0
  4 41  1  0  0  0  0
  5  6  1  0  0  0  0
  5 21  1  0  0  0  0
  6  7  2  0  0  0  0
  6 22  1  0  0  0  0
  7  8  1  0  0  0  0
  8  9  1  0  0  0  0
  8 23  1  0  0  0  0
  9 10  1  0  0  0  0
  9 24  1  0  0  0  0
  9 25  1  0  0  0  0
 10 19  1  0  0  0  0
 10 11  1  0  0  0  0
 10 26  1  0  0  0  0
 11 12  1  0  0  0  0
 11 27  1  0  0  0  0
 11 28  1  0  0  0  0
 12 17  1  0  0  0  0
 12 13  1  0  0  0  0
 12 40  1  0  0  0  0
 13 14  1  0  0  0  0
 13 29  1  0  0  0  0
 13 30  1  0  0  0  0
 14 15  1  0  0  0  0
 14 31  1  0  0  0  0
 14 32  1  0  0  0  0
 15 16  1  0  0  0  0
 15 33  1  0  0  0  0
 15 34  1  0  0  0  0
 16 17  1  0  0  0  0
 16 35  1  0  0  0  0
 16 36  1  0  0  0  0
 17 18  1  0  0  0  0
 17 37  1  0  0  0  0
 18 19  1  0  0  0  0
 18 38  1  0  0  0  0
 18 39  1  0  0  0  0
M  CHG  1   4   1
M  CHG  1  12   1
M  END
> <s_m_source_file>
AV-unprocessed.smi

> <i_m_source_file_index>
2822

> <i_lp_mmshare_version>
43012

> <i_f3d_flags>
0

> <s_epik_input>
Q2xjMVtjSF1uW2NIXVtjSF1jMVtOSF1bQ0gyXVtDQEhdKFtDSDJdMilPW0NIMl1bQ0BASF0oTjIzKVtDSDJdW0NIMl1bQ0gyXVtDSDJdMw==

> <s_epik_cmdline>
J2VwaWtfcHl0aG9uJywgJy1waCcsICc3LjAnLCAnLXRuJywgJzgnLCAnLW1hJywgJzIwMCcsICctbWV0YWxfYmluZGluZycsICctaW1hZScsICc8aW5maWxlLm1hZT4nLCAnLW9tYWUnLCAnPG91dGZpbGUubWFlPic=

> <r_lp_tautomer_probability>
1

> <r_epik_Ionization_Penalty>
0.254999

> <r_epik_Ionization_Penalty_Charging>
0.254956

> <r_epik_Ionization_Penalty_Neutral>
4.33524e-05

> <r_epik_State_Penalty>
0.230978

> <r_epik_Charging_Adjusted_Penalty>
0.485934

> <i_epik_Tot_Q>
2

> <i_epik_Tot_abs_Q>
2

> <r_epik_Metal_State_Penalty>
3.47007

> <b_epik_Metal_Only>
0

> <s_lp_Force_Field>
OPLS_2005

> <r_lp_Energy>
36.8988

> <b_lp_Chiralities_Consistent>
1

> <s_lp_Variant>
AV-unprocessed.smi:2822-1

> <Gold.Version>
5.8.1

> <Gold.Id.Protein>
6NUR|6NUR_protein|mol2

> <Gold.PLP.Fitness>
43.9581

> <Gold.PLP.PLP>
-38.8307

> <Gold.PLP.part.hbond>
-2.0000

> <Gold.PLP.part.metal>
0.0000

> <Gold.PLP.part.buried>
-4.4148

> <Gold.PLP.part.nonpolar>
-32.3593

> <Gold.PLP.part.repulsive>
0.2874

> <Gold.PLP.ligand.clash>
0.0000

> <Gold.PLP.ligand.torsion>
0.4367

> <Gold.PLP.Chemscore.Hbond>
2.0000

> <Gold.PLP.Chemscore.CHOScore>
0.0000

> <Gold.PLP.Chemscore.Metal>
0.0000

> <Gold.Chemscore.Hbonds>
donor molecule, donor type, donor heavy atom, donor atom, acceptor molecule, acceptor atom, score
      L1  H     4    41       P1 10175  2.00

> <Gold.PLP.Chemscore.Internal.Correction>
0.0008

> <Gold.Rescore>
     Score         DG    S(hbond)    S(metal)    S(lipo)     H(rot)  DE(clash)    DE(int)     intcor
     18.45     -19.00       0.98        0.00     113.72       1.20       0.27       0.28       ----

> <Gold.Chemscore.Fitness>
18.4506

> <Gold.Chemscore.DG>
-19.0004

> <Gold.Chemscore.ZeroCoef>
-5.4800

> <Gold.Chemscore.Hbond>
0.9814

> <Gold.Chemscore.Metal>
0.0000

> <Gold.Chemscore.Lipo>
113.7155

> <Gold.Chemscore.Internal_Hbond>
0.0000

> <Gold.Chemscore.DEClash>
0.2748

> <Gold.Chemscore.DEInternal>
0.2750

> <Gold.Chemscore.Rot>
1.1962

> <Gold.Chemscore.Internal.Correction>
   9.000000E+99

> <Gold.Chemscore.Hbonds>
donor molecule, donor type, donor heavy atom, donor atom, acceptor molecule, acceptor atom, score
      L1  H     4    41       P1 10175  0.25

> <Gold.Chemscore.Hbond.Weighted>
-3.2780

> <Gold.Chemscore.Metal.Weighted>
-0.0000

> <Gold.Chemscore.Lipo.Weighted>
-13.3047

> <Gold.Chemscore.Internal_Hbond.Weighted>
0.0000

> <Gold.Chemscore.DEClash.Weighted>
0.2748

> <Gold.Chemscore.DEInternal.Weighted>
0.2750

> <Gold.Chemscore.Rot.Weighted>
3.0623

> <Gold.Chemscore.Internal.Correction.Weighted>
   9.000000E+99

> <Gold.Protein.RotatedTorsions>
[ 6907 6896 6895 6894 ] final   88.57 input  -60.11 | X-H torsion
[ 7974 7965 7964 7962 ] final -167.95 input  175.53 | X-H torsion
[ 8008 7997 7996 7995 ] final  128.74 input   59.86 | X-H torsion
[ 10167 10162 10161 10158 ] final  115.45 input  -65.29 | X-H torsion
[ 10718 10713 10712 10709 ] final  -47.65 input   66.30 | X-H torsion
[ 10763 10752 10751 10750 ] final  -76.79 input  -60.55 | X-H torsion
[ 11005 11000 10999 10996 ] final  105.54 input  -57.11 | X-H torsion

> <Gold.Protein.ActiveResidues>
 VAL166  LYS551  ARG553  GLY616  TRP617  ASP618  TYR619  PRO620  LYS621  CYS622 
 ASP623  PHE694  ASN695  SER759  ASP760  ASP761  ALA762  ILE779  LEU786  VAL792 
 PHE793  MET794  SER795  GLU796  ALA797  LYS798  CYS799  TRP800  GLU811  SER814 

> <Gold.Protein.RotatedAtoms>
  152.5426  134.2101  159.8746 H   0  0  0  0  0  0  0  0  0  0  0  0  # atno 6907 bound_to 6896
  151.2084  133.4563  159.2605 H   0  0  0  0  0  0  0  0  0  0  0  0  # atno 6908 bound_to 6896
  151.0921  134.9935  159.8463 H   0  0  0  0  0  0  0  0  0  0  0  0  # atno 6909 bound_to 6896
  144.7212  140.2443  143.6287 H   0  0  0  0  0  0  0  0  0  0  0  0  # atno 7974 bound_to 7965
  156.2921  140.2637  156.2486 H   0  0  0  0  0  0  0  0  0  0  0  0  # atno 8008 bound_to 7997
  154.9906  140.0388  157.2336 H   0  0  0  0  0  0  0  0  0  0  0  0  # atno 8009 bound_to 7997
  154.7690  140.2774  155.6158 H   0  0  0  0  0  0  0  0  0  0  0  0  # atno 8010 bound_to 7997
  139.6316  144.7115  151.2420 H   0  0  0  0  0  0  0  0  0  0  0  0  # atno 10167 bound_to 10162
  156.2064  130.4158  149.9172 H   0  0  0  0  0  0  0  0  0  0  0  0  # atno 10718 bound_to 10713
  154.5044  135.5786  153.6556 H   0  0  0  0  0  0  0  0  0  0  0  0  # atno 10763 bound_to 10752
  152.9885  135.6143  154.2960 H   0  0  0  0  0  0  0  0  0  0  0  0  # atno 10764 bound_to 10752
  154.2870  135.2849  155.2651 H   0  0  0  0  0  0  0  0  0  0  0  0  # atno 10765 bound_to 10752
  139.8803  134.9339  156.5530 H   0  0  0  0  0  0  0  0  0  0  0  0  # atno 11005 bound_to 11000
  145.8290  139.2077  143.1894 LP  0  0  0  0  0  0  0  0  0  0  0  0  # atno 17320 bound_to 7965
  146.0448  140.8129  142.9811 LP  0  0  0  0  0  0  0  0  0  0  0  0  # atno 17321 bound_to 7965
  140.7442  143.6470  150.8283 LP  0  0  0  0  0  0  0  0  0  0  0  0  # atno 17342 bound_to 10162
  140.0096  143.5657  152.2844 LP  0  0  0  0  0  0  0  0  0  0  0  0  # atno 17343 bound_to 10162
  156.6865  130.8879  151.3583 LP  0  0  0  0  0  0  0  0  0  0  0  0  # atno 17370 bound_to 10713
  157.7014  130.9338  150.0798 LP  0  0  0  0  0  0  0  0  0  0  0  0  # atno 17371 bound_to 10713
  140.8226  133.8342  155.8909 LP  0  0  0  0  0  0  0  0  0  0  0  0  # atno 17394 bound_to 11000
  140.9404  134.1908  157.4801 LP  0  0  0  0  0  0  0  0  0  0  0  0  # atno 17395 bound_to 11000

$$$$
