AV-unprocessed.smi:1795|AV-procd|sdf|7250|dock8
  -GOLD-   22720 8503D 1   1.00000     0.00000
 Structure written by MMmdl.
 48 49  0  0  0  0  0  0  0  0  2 V2000
  148.3741  133.6046  153.7180 C   0  0  0  0  0  0  0  0  0  0  0  0
  148.1749  134.3294  155.0612 C   0  0  1  0  0  0  0  0  0  0  0  0
  149.3669  135.2160  155.4669 C   0  0  0  0  0  0  0  0  0  0  0  0
  149.4461  136.4460  154.6333 N   0  3  2  0  0  0  0  0  0  0  0  0
  150.6774  137.2526  154.9215 C   0  0  1  0  0  0  0  0  0  0  0  0
  150.7129  138.4888  153.9946 C   0  0  0  0  0  0  0  0  0  0  0  0
  150.8233  137.6708  156.4116 C   0  0  0  0  0  0  0  0  0  0  0  0
  151.5627  138.9193  156.5797 N   0  0  0  0  0  0  0  0  0  0  0  0
  151.5895  139.6660  157.6945 C   0  0  0  0  0  0  0  0  0  0  0  0
  150.9952  139.3589  158.7285 O   0  0  0  0  0  0  0  0  0  0  0  0
  152.4218  140.9533  157.6268 C   0  0  0  0  0  0  0  0  0  0  0  0
  152.7523  141.4880  158.9580 N   0  0  0  0  0  0  0  0  0  0  0  0
  152.3531  142.8099  159.2392 C   0  0  0  0  0  0  0  0  0  0  0  0
  152.6056  143.3909  160.4226 C   0  0  0  0  0  0  0  0  0  0  0  0
  153.3061  142.6232  161.4246 C   0  0  0  0  0  0  0  0  0  0  0  0
  153.6961  141.3593  161.1647 C   0  0  0  0  0  0  0  0  0  0  0  0
  153.4261  140.7216  159.8710 C   0  0  0  0  0  0  0  0  0  0  0  0
  153.7841  139.5696  159.6221 O   0  0  0  0  0  0  0  0  0  0  0  0
  148.1501  137.1727  154.7054 C   0  0  0  0  0  0  0  0  0  0  0  0
  146.9827  136.2588  154.2874 C   0  0  2  0  0  0  0  0  0  0  0  0
  145.6256  136.9539  154.4442 C   0  0  0  0  0  0  0  0  0  0  0  0
  146.9696  135.0895  155.0987 O   0  0  0  0  0  0  0  0  0  0  0  0
  149.2216  132.9211  153.7707 H   0  0  0  0  0  0  0  0  0  0  0  0
  148.5675  134.2954  152.8977 H   0  0  0  0  0  0  0  0  0  0  0  0
  147.4933  133.0161  153.4598 H   0  0  0  0  0  0  0  0  0  0  0  0
  148.0640  133.5558  155.8217 H   0  0  0  0  0  0  0  0  0  0  0  0
  149.2593  135.5060  156.5136 H   0  0  0  0  0  0  0  0  0  0  0  0
  150.2826  134.6303  155.4043 H   0  0  0  0  0  0  0  0  0  0  0  0
  151.5415  136.6284  154.6875 H   0  0  0  0  0  0  0  0  0  0  0  0
  151.6498  139.0373  154.0877 H   0  0  0  0  0  0  0  0  0  0  0  0
  149.9021  139.1785  154.2311 H   0  0  0  0  0  0  0  0  0  0  0  0
  150.6236  138.2286  152.9416 H   0  0  0  0  0  0  0  0  0  0  0  0
  149.8435  137.7333  156.8885 H   0  0  0  0  0  0  0  0  0  0  0  0
  151.3918  136.9228  156.9643 H   0  0  0  0  0  0  0  0  0  0  0  0
  152.0866  139.2482  155.7812 H   0  0  0  0  0  0  0  0  0  0  0  0
  153.3279  140.7402  157.0585 H   0  0  0  0  0  0  0  0  0  0  0  0
  151.8912  141.7102  157.0460 H   0  0  0  0  0  0  0  0  0  0  0  0
  151.8397  143.3179  158.4358 H   0  0  0  0  0  0  0  0  0  0  0  0
  152.2958  144.4068  160.6191 H   0  0  0  0  0  0  0  0  0  0  0  0
  153.5194  143.0647  162.3870 H   0  0  0  0  0  0  0  0  0  0  0  0
  154.2194  140.8003  161.9264 H   0  0  0  0  0  0  0  0  0  0  0  0
  147.9979  137.5501  155.7180 H   0  0  0  0  0  0  0  0  0  0  0  0
  148.1455  138.0284  154.0311 H   0  0  0  0  0  0  0  0  0  0  0  0
  147.0960  135.9780  153.2402 H   0  0  0  0  0  0  0  0  0  0  0  0
  145.5699  137.8519  153.8285 H   0  0  0  0  0  0  0  0  0  0  0  0
  145.4480  137.2462  155.4795 H   0  0  0  0  0  0  0  0  0  0  0  0
  144.8125  136.2939  154.1408 H   0  0  0  0  0  0  0  0  0  0  0  0
  149.5334  136.1449  153.6730 H   0  0  0  0  0  0  0  0  0  0  0  0
  1  2  1  0  0  0  0
  1 23  1  0  0  0  0
  1 24  1  0  0  0  0
  1 25  1  0  0  0  0
  2 22  1  0  0  0  0
  2  3  1  0  0  0  0
  2 26  1  0  0  0  0
  3  4  1  0  0  0  0
  3 27  1  0  0  0  0
  3 28  1  0  0  0  0
  4  5  1  0  0  0  0
  4 19  1  0  0  0  0
  4 48  1  0  0  0  0
  5  6  1  0  0  0  0
  5  7  1  0  0  0  0
  5 29  1  0  0  0  0
  6 30  1  0  0  0  0
  6 31  1  0  0  0  0
  6 32  1  0  0  0  0
  7  8  1  0  0  0  0
  7 33  1  0  0  0  0
  7 34  1  0  0  0  0
  8  9  1  0  0  0  0
  8 35  1  0  0  0  0
  9 10  2  0  0  0  0
  9 11  1  0  0  0  0
 11 12  1  0  0  0  0
 11 36  1  0  0  0  0
 11 37  1  0  0  0  0
 12 17  1  0  0  0  0
 12 13  1  0  0  0  0
 13 14  2  0  0  0  0
 13 38  1  0  0  0  0
 14 15  1  0  0  0  0
 14 39  1  0  0  0  0
 15 16  2  0  0  0  0
 15 40  1  0  0  0  0
 16 17  1  0  0  0  0
 16 41  1  0  0  0  0
 17 18  2  0  0  0  0
 19 20  1  0  0  0  0
 19 42  1  0  0  0  0
 19 43  1  0  0  0  0
 20 21  1  0  0  0  0
 20 22  1  0  0  0  0
 20 44  1  0  0  0  0
 21 45  1  0  0  0  0
 21 46  1  0  0  0  0
 21 47  1  0  0  0  0
M  CHG  1   4   1
M  END
> <s_m_source_file>
AV-unprocessed.smi

> <i_m_source_file_index>
1795

> <i_lp_mmshare_version>
43012

> <i_f3d_flags>
0

> <s_epik_input>
W0NIM11bQ0BASF0xW0NIMl1OKFtDSDJdW0NASF0oTzEpW0NIM10pW0NASF0oW0NIM10pW0NIMl1bTkhdQyg9TylbQ0gyXW4yW2NIXVtjSF1bY0hdW2NIXWMyPU8=

> <s_epik_cmdline>
J2VwaWtfcHl0aG9uJywgJy1waCcsICc3LjAnLCAnLXRuJywgJzgnLCAnLW1hJywgJzIwMCcsICctbWV0YWxfYmluZGluZycsICctaW1hZScsICc8aW5maWxlLm1hZT4nLCAnLW9tYWUnLCAnPG91dGZpbGUubWFlPic=

> <r_lp_tautomer_probability>
1

> <r_epik_Ionization_Penalty>
0.656654

> <r_epik_Ionization_Penalty_Charging>
0.656654

> <r_epik_Ionization_Penalty_Neutral>
8.90321e-08

> <r_epik_State_Penalty>
0.675641

> <r_epik_Charging_Adjusted_Penalty>
1.33229

> <i_epik_Tot_Q>
1

> <i_epik_Tot_abs_Q>
1

> <r_epik_Metal_State_Penalty>
0.675691

> <b_epik_Metal_Only>
0

> <s_lp_Force_Field>
OPLS_2005

> <r_lp_Energy>
30.8259

> <b_lp_Chiralities_Consistent>
1

> <s_lp_Variant>
AV-unprocessed.smi:1795-14

> <Gold.Version>
5.8.1

> <Gold.Id.Protein>
6NUR|6NUR_protein|mol2

> <Gold.PLP.Fitness>
45.0743

> <Gold.PLP.PLP>
-37.5435

> <Gold.PLP.part.hbond>
-2.0000

> <Gold.PLP.part.metal>
0.0000

> <Gold.PLP.part.buried>
-4.9493

> <Gold.PLP.part.nonpolar>
-30.0101

> <Gold.PLP.part.repulsive>
0.1648

> <Gold.PLP.ligand.clash>
0.0000

> <Gold.PLP.ligand.torsion>
0.7759

> <Gold.PLP.Chemscore.Hbond>
3.0000

> <Gold.PLP.Chemscore.CHOScore>
0.0000

> <Gold.PLP.Chemscore.Metal>
0.0000

> <Gold.Chemscore.Hbonds>
donor molecule, donor type, donor heavy atom, donor atom, acceptor molecule, acceptor atom, score
      L1  H     4    48       P1  7948  2.00

> <Gold.PLP.Chemscore.Internal.Correction>
0.0825

> <Gold.Rescore>
     Score         DG    S(hbond)    S(metal)    S(lipo)     H(rot)  DE(clash)    DE(int)     intcor
     15.74     -16.80       1.95        0.00      82.31       1.89       0.03       1.03       ----

> <Gold.Chemscore.Fitness>
15.7394

> <Gold.Chemscore.DG>
-16.7983

> <Gold.Chemscore.ZeroCoef>
-5.4800

> <Gold.Chemscore.Hbond>
1.9517

> <Gold.Chemscore.Metal>
0.0000

> <Gold.Chemscore.Lipo>
82.3104

> <Gold.Chemscore.Internal_Hbond>
0.0000

> <Gold.Chemscore.DEClash>
0.0329

> <Gold.Chemscore.DEInternal>
1.0260

> <Gold.Chemscore.Rot>
1.8870

> <Gold.Chemscore.Internal.Correction>
   9.000000E+99

> <Gold.Chemscore.Hbonds>
donor molecule, donor type, donor heavy atom, donor atom, acceptor molecule, acceptor atom, score
      L1  H     4    48       P1  7948  0.53

> <Gold.Chemscore.Hbond.Weighted>
-6.5187

> <Gold.Chemscore.Metal.Weighted>
-0.0000

> <Gold.Chemscore.Lipo.Weighted>
-9.6303

> <Gold.Chemscore.Internal_Hbond.Weighted>
0.0000

> <Gold.Chemscore.DEClash.Weighted>
0.0329

> <Gold.Chemscore.DEInternal.Weighted>
1.0260

> <Gold.Chemscore.Rot.Weighted>
4.8308

> <Gold.Chemscore.Internal.Correction.Weighted>
   9.000000E+99

> <Gold.Protein.RotatedTorsions>
[ 6907 6896 6895 6894 ] final -178.30 input  -60.11 | X-H torsion
[ 7974 7965 7964 7962 ] final  120.19 input  175.53 | X-H torsion
[ 8008 7997 7996 7995 ] final  129.26 input   59.86 | X-H torsion
[ 10167 10162 10161 10158 ] final    4.42 input  -65.29 | X-H torsion
[ 10718 10713 10712 10709 ] final  -52.35 input   66.30 | X-H torsion
[ 10763 10752 10751 10750 ] final  100.64 input  -60.55 | X-H torsion
[ 11005 11000 10999 10996 ] final   93.38 input  -57.11 | X-H torsion

> <Gold.Protein.ActiveResidues>
 VAL166  LYS551  ARG553  GLY616  TRP617  ASP618  TYR619  PRO620  LYS621  CYS622 
 ASP623  PHE694  ASN695  SER759  ASP760  ASP761  ALA762  ILE779  LEU786  VAL792 
 PHE793  MET794  SER795  GLU796  ALA797  LYS798  CYS799  TRP800  GLU811  SER814 

> <Gold.Protein.RotatedAtoms>
  151.6350  133.3329  159.3117 H   0  0  0  0  0  0  0  0  0  0  0  0  # atno 6907 bound_to 6896
  150.8037  134.7152  159.6636 H   0  0  0  0  0  0  0  0  0  0  0  0  # atno 6908 bound_to 6896
  152.4131  134.6094  160.0073 H   0  0  0  0  0  0  0  0  0  0  0  0  # atno 6909 bound_to 6896
  145.1341  139.3309  143.4650 H   0  0  0  0  0  0  0  0  0  0  0  0  # atno 7974 bound_to 7965
  156.2932  140.2625  156.2570 H   0  0  0  0  0  0  0  0  0  0  0  0  # atno 8008 bound_to 7997
  154.9826  140.0389  157.2303 H   0  0  0  0  0  0  0  0  0  0  0  0  # atno 8009 bound_to 7997
  154.7758  140.2786  155.6107 H   0  0  0  0  0  0  0  0  0  0  0  0  # atno 8010 bound_to 7997
  140.6535  143.7485  150.7615 H   0  0  0  0  0  0  0  0  0  0  0  0  # atno 10167 bound_to 10162
  156.1629  130.4149  149.9765 H   0  0  0  0  0  0  0  0  0  0  0  0  # atno 10718 bound_to 10713
  153.3165  135.4072  155.1381 H   0  0  0  0  0  0  0  0  0  0  0  0  # atno 10763 bound_to 10752
  154.8590  135.3577  154.5653 H   0  0  0  0  0  0  0  0  0  0  0  0  # atno 10764 bound_to 10752
  153.6084  135.7068  153.5415 H   0  0  0  0  0  0  0  0  0  0  0  0  # atno 10765 bound_to 10752
  139.8811  134.8787  156.3710 H   0  0  0  0  0  0  0  0  0  0  0  0  # atno 11005 bound_to 11000
  146.3511  140.1351  142.8596 LP  0  0  0  0  0  0  0  0  0  0  0  0  # atno 17320 bound_to 7965
  145.0603  140.9083  143.4942 LP  0  0  0  0  0  0  0  0  0  0  0  0  # atno 17321 bound_to 7965
  140.1140  143.4673  152.2353 LP  0  0  0  0  0  0  0  0  0  0  0  0  # atno 17342 bound_to 10162
  139.5754  144.7484  151.3779 LP  0  0  0  0  0  0  0  0  0  0  0  0  # atno 17343 bound_to 10162
  156.7589  130.9143  151.3640 LP  0  0  0  0  0  0  0  0  0  0  0  0  # atno 17370 bound_to 10713
  157.6746  130.9082  150.0120 LP  0  0  0  0  0  0  0  0  0  0  0  0  # atno 17371 bound_to 10713
  140.9464  133.7480  156.0214 LP  0  0  0  0  0  0  0  0  0  0  0  0  # atno 17394 bound_to 11000
  140.8158  134.3346  157.5397 LP  0  0  0  0  0  0  0  0  0  0  0  0  # atno 17395 bound_to 11000

$$$$
