AV-unprocessed.smi:1740|AV-procd|sdf|7012|dock10
  -GOLD-   22720 8223D 1   1.00000     0.00000
 Structure written by MMmdl.
 51 53  0  0  0  0  0  0  0  0  3 V2000
  145.4521  138.4318  152.5207 N   0  5  0  0  0  0  0  0  0  0  0  0
  146.4210  138.5283  151.5879 C   0  0  0  0  0  0  0  0  0  0  0  0
  146.8745  137.6366  150.8745 O   0  0  0  0  0  0  0  0  0  0  0  0
  146.9716  139.9533  151.4644 C   0  0  0  0  0  0  0  0  0  0  0  0
  147.6677  140.3580  152.7126 N   0  3  2  0  0  0  0  0  0  0  0  0
  148.5857  139.3067  153.2185 C   0  0  0  0  0  0  0  0  0  0  0  0
  149.4027  139.8143  154.4189 C   0  0  0  0  0  0  0  0  0  0  0  0
  148.4858  140.3184  155.5453 C   0  0  1  0  0  0  0  0  0  0  0  0
  149.2901  140.8761  156.6287 N   0  0  0  0  0  0  0  0  0  0  0  0
  150.4182  140.3346  157.1102 C   0  0  0  0  0  0  0  0  0  0  0  0
  150.9203  139.3026  156.6652 O   0  0  0  0  0  0  0  0  0  0  0  0
  150.9200  141.0713  158.1155 N   0  0  0  0  0  0  0  0  0  0  0  0
  152.0911  140.8293  158.8894 C   0  0  0  0  0  0  0  0  0  0  0  0
  152.7736  139.5887  158.8411 C   0  0  0  0  0  0  0  0  0  0  0  0
  153.8837  139.3781  159.6770 C   0  0  0  0  0  0  0  0  0  0  0  0
  154.2654  140.4117  160.5481 C   0  0  0  0  0  0  0  0  0  0  0  0
  153.6192  141.5923  160.6166 N   0  0  0  0  0  0  0  0  0  0  0  0
  152.5556  141.8158  159.8059 C   0  0  0  0  0  0  0  0  0  0  0  0
  151.9283  143.0784  159.9063 N   0  0  0  0  0  0  0  0  0  0  0  0
  151.8206  143.8779  158.6893 C   0  0  0  0  0  0  0  0  0  0  0  0
  152.0394  145.3355  159.1079 C   0  0  0  0  0  0  0  0  0  0  0  0
  151.7174  145.3340  160.5989 C   0  0  0  0  0  0  0  0  0  0  0  0
  152.2127  143.9583  161.0353 C   0  0  0  0  0  0  0  0  0  0  0  0
  147.5166  141.3761  154.9853 C   0  0  0  0  0  0  0  0  0  0  0  0
  146.7410  140.8349  153.7736 C   0  0  0  0  0  0  0  0  0  0  0  0
  144.7332  139.1643  152.5605 H   0  0  0  0  0  0  0  0  0  0  0  0
  147.6443  140.0346  150.6090 H   0  0  0  0  0  0  0  0  0  0  0  0
  146.1307  140.6191  151.2631 H   0  0  0  0  0  0  0  0  0  0  0  0
  148.0100  138.4229  153.4981 H   0  0  0  0  0  0  0  0  0  0  0  0
  149.2693  139.0034  152.4246 H   0  0  0  0  0  0  0  0  0  0  0  0
  150.0468  139.0159  154.7894 H   0  0  0  0  0  0  0  0  0  0  0  0
  150.0640  140.6178  154.0904 H   0  0  0  0  0  0  0  0  0  0  0  0
  147.9107  139.4711  155.9242 H   0  0  0  0  0  0  0  0  0  0  0  0
  148.9556  141.7294  157.0522 H   0  0  0  0  0  0  0  0  0  0  0  0
  150.4538  141.9469  158.3035 H   0  0  0  0  0  0  0  0  0  0  0  0
  152.4514  138.7861  158.1957 H   0  0  0  0  0  0  0  0  0  0  0  0
  154.4212  138.4415  159.6594 H   0  0  0  0  0  0  0  0  0  0  0  0
  155.1077  140.2862  161.2121 H   0  0  0  0  0  0  0  0  0  0  0  0
  152.5390  143.5699  157.9280 H   0  0  0  0  0  0  0  0  0  0  0  0
  150.8186  143.7560  158.2771 H   0  0  0  0  0  0  0  0  0  0  0  0
  153.0860  145.6061  158.9617 H   0  0  0  0  0  0  0  0  0  0  0  0
  151.4280  146.0366  158.5393 H   0  0  0  0  0  0  0  0  0  0  0  0
  152.1942  146.1504  161.1417 H   0  0  0  0  0  0  0  0  0  0  0  0
  150.6392  145.4083  160.7480 H   0  0  0  0  0  0  0  0  0  0  0  0
  151.7119  143.6161  161.9413 H   0  0  0  0  0  0  0  0  0  0  0  0
  153.2842  144.0071  161.2330 H   0  0  0  0  0  0  0  0  0  0  0  0
  146.8134  141.6907  155.7572 H   0  0  0  0  0  0  0  0  0  0  0  0
  148.0705  142.2687  154.6902 H   0  0  0  0  0  0  0  0  0  0  0  0
  146.0954  141.6226  153.3842 H   0  0  0  0  0  0  0  0  0  0  0  0
  146.0884  140.0168  154.0822 H   0  0  0  0  0  0  0  0  0  0  0  0
  148.2475  141.1428  152.4488 H   0  0  0  0  0  0  0  0  0  0  0  0
  1  2  1  0  0  0  0
  1 26  1  0  0  0  0
  2  3  2  0  0  0  0
  2  4  1  0  0  0  0
  4  5  1  0  0  0  0
  4 27  1  0  0  0  0
  4 28  1  0  0  0  0
  5 25  1  0  0  0  0
  5  6  1  0  0  0  0
  5 51  1  0  0  0  0
  6  7  1  0  0  0  0
  6 29  1  0  0  0  0
  6 30  1  0  0  0  0
  7  8  1  0  0  0  0
  7 31  1  0  0  0  0
  7 32  1  0  0  0  0
  8  9  1  0  0  0  0
  8 24  1  0  0  0  0
  8 33  1  0  0  0  0
  9 10  1  0  0  0  0
  9 34  1  0  0  0  0
 10 11  2  0  0  0  0
 10 12  1  0  0  0  0
 12 13  1  0  0  0  0
 12 35  1  0  0  0  0
 13 18  1  0  0  0  0
 13 14  2  0  0  0  0
 14 15  1  0  0  0  0
 14 36  1  0  0  0  0
 15 16  2  0  0  0  0
 15 37  1  0  0  0  0
 16 17  1  0  0  0  0
 16 38  1  0  0  0  0
 17 18  2  0  0  0  0
 18 19  1  0  0  0  0
 19 23  1  0  0  0  0
 19 20  1  0  0  0  0
 20 21  1  0  0  0  0
 20 39  1  0  0  0  0
 20 40  1  0  0  0  0
 21 22  1  0  0  0  0
 21 41  1  0  0  0  0
 21 42  1  0  0  0  0
 22 23  1  0  0  0  0
 22 43  1  0  0  0  0
 22 44  1  0  0  0  0
 23 45  1  0  0  0  0
 23 46  1  0  0  0  0
 24 25  1  0  0  0  0
 24 47  1  0  0  0  0
 24 48  1  0  0  0  0
 25 49  1  0  0  0  0
 25 50  1  0  0  0  0
M  CHG  1   1  -1
M  CHG  1   5   1
M  END
> <s_m_source_file>
AV-unprocessed.smi

> <i_m_source_file_index>
1740

> <i_lp_mmshare_version>
43012

> <i_f3d_flags>
0

> <s_epik_input>
W05IMl1DKD1PKVtDSDJdTjFbQ0gyXVtDSDJdW0NIXShbQ0gyXVtDSDJdMSlbTkhdQyg9TylbTkhdYzJbY0hdW2NIXVtjSF1uYzJOM1tDSDJdW0NIMl1bQ0gyXVtDSDJdMw==

> <s_epik_cmdline>
J2VwaWtfcHl0aG9uJywgJy1waCcsICc3LjAnLCAnLXRuJywgJzgnLCAnLW1hJywgJzIwMCcsICctbWV0YWxfYmluZGluZycsICctaW1hZScsICc8aW5maWxlLm1hZT4nLCAnLW9tYWUnLCAnPG91dGZpbGUubWFlPic=

> <r_lp_tautomer_probability>
1

> <r_epik_Ionization_Penalty>
5.80652

> <r_epik_Ionization_Penalty_Charging>
5.7288

> <r_epik_Ionization_Penalty_Neutral>
0.0777157

> <r_epik_State_Penalty>
6.60246

> <r_epik_Charging_Adjusted_Penalty>
12.3313

> <i_epik_Tot_Q>
0

> <i_epik_Tot_abs_Q>
2

> <r_epik_Metal_State_Penalty>
2.64988

> <b_epik_Metal_Only>
1

> <s_lp_Force_Field>
OPLS_2005

> <r_lp_Energy>
35.8158

> <b_lp_Chiralities_Consistent>
1

> <s_lp_Variant>
AV-unprocessed.smi:1740-7

> <Gold.Version>
5.8.1

> <Gold.Id.Protein>
6NUR|6NUR_protein|mol2

> <Gold.PLP.Fitness>
46.3505

> <Gold.PLP.PLP>
-41.2205

> <Gold.PLP.part.hbond>
-3.4414

> <Gold.PLP.part.metal>
0.0000

> <Gold.PLP.part.buried>
-0.0353

> <Gold.PLP.part.nonpolar>
-41.5922

> <Gold.PLP.part.repulsive>
3.3739

> <Gold.PLP.ligand.clash>
0.0000

> <Gold.PLP.ligand.torsion>
0.6159

> <Gold.PLP.Chemscore.Hbond>
2.0114

> <Gold.PLP.Chemscore.CHOScore>
0.0000

> <Gold.PLP.Chemscore.Metal>
0.0000

> <Gold.Chemscore.Hbonds>
donor molecule, donor type, donor heavy atom, donor atom, acceptor molecule, acceptor atom, score
      L1  H     1    26       P1 10175  1.00
      P1  H  7954  7966       L1     3  1.00

> <Gold.PLP.Chemscore.Internal.Correction>
0.3274

> <Gold.Rescore>
     Score         DG    S(hbond)    S(metal)    S(lipo)     H(rot)  DE(clash)    DE(int)     intcor
     13.33     -20.91       2.00        0.00     121.98       2.16       4.06       3.52       ----

> <Gold.Chemscore.Fitness>
13.3258

> <Gold.Chemscore.DG>
-20.9073

> <Gold.Chemscore.ZeroCoef>
-5.4800

> <Gold.Chemscore.Hbond>
1.9987

> <Gold.Chemscore.Metal>
0.0000

> <Gold.Chemscore.Lipo>
121.9765

> <Gold.Chemscore.Internal_Hbond>
0.0000

> <Gold.Chemscore.DEClash>
4.0569

> <Gold.Chemscore.DEInternal>
3.5246

> <Gold.Chemscore.Rot>
2.1562

> <Gold.Chemscore.Internal.Correction>
   9.000000E+99

> <Gold.Chemscore.Hbonds>
donor molecule, donor type, donor heavy atom, donor atom, acceptor molecule, acceptor atom, score
      L1  H     1    26       P1 10175  1.00
      L1  H     5    51       P1  7957  0.02
      P1  H  7954  7966       L1     3  0.99

> <Gold.Chemscore.Hbond.Weighted>
-6.6758

> <Gold.Chemscore.Metal.Weighted>
-0.0000

> <Gold.Chemscore.Lipo.Weighted>
-14.2713

> <Gold.Chemscore.Internal_Hbond.Weighted>
0.0000

> <Gold.Chemscore.DEClash.Weighted>
4.0569

> <Gold.Chemscore.DEInternal.Weighted>
3.5246

> <Gold.Chemscore.Rot.Weighted>
5.5198

> <Gold.Chemscore.Internal.Correction.Weighted>
   9.000000E+99

> <Gold.Protein.RotatedTorsions>
[ 6907 6896 6895 6894 ] final    1.47 input  -60.11 | X-H torsion
[ 7974 7965 7964 7962 ] final   24.49 input  175.53 | X-H torsion
[ 8008 7997 7996 7995 ] final -177.01 input   59.86 | X-H torsion
[ 10167 10162 10161 10158 ] final  145.37 input  -65.29 | X-H torsion
[ 10718 10713 10712 10709 ] final  -66.71 input   66.30 | X-H torsion
[ 10763 10752 10751 10750 ] final    8.99 input  -60.55 | X-H torsion
[ 11005 11000 10999 10996 ] final -152.04 input  -57.11 | X-H torsion

> <Gold.Protein.ActiveResidues>
 VAL166  LYS551  ARG553  GLY616  TRP617  ASP618  TYR619  PRO620  LYS621  CYS622 
 ASP623  PHE694  ASN695  SER759  ASP760  ASP761  ALA762  ILE779  LEU786  VAL792 
 PHE793  MET794  SER795  GLU796  ALA797  LYS798  CYS799  TRP800  GLU811  SER814 

> <Gold.Protein.RotatedAtoms>
  151.5931  135.1052  160.0043 H   0  0  0  0  0  0  0  0  0  0  0  0  # atno 6907 bound_to 6896
  152.4296  133.7250  159.6566 H   0  0  0  0  0  0  0  0  0  0  0  0  # atno 6908 bound_to 6896
  150.8187  133.8219  159.3171 H   0  0  0  0  0  0  0  0  0  0  0  0  # atno 6909 bound_to 6896
  146.1935  139.7597  142.8814 H   0  0  0  0  0  0  0  0  0  0  0  0  # atno 7974 bound_to 7965
  156.0018  140.1222  157.0540 H   0  0  0  0  0  0  0  0  0  0  0  0  # atno 8008 bound_to 7997
  154.4245  140.1105  156.5776 H   0  0  0  0  0  0  0  0  0  0  0  0  # atno 8009 bound_to 7997
  155.6202  140.3472  155.4651 H   0  0  0  0  0  0  0  0  0  0  0  0  # atno 8010 bound_to 7997
  139.4927  144.5906  151.6687 H   0  0  0  0  0  0  0  0  0  0  0  0  # atno 10167 bound_to 10162
  156.0597  130.4266  150.1749 H   0  0  0  0  0  0  0  0  0  0  0  0  # atno 10718 bound_to 10713
  153.2189  135.6878  153.8024 H   0  0  0  0  0  0  0  0  0  0  0  0  # atno 10763 bound_to 10752
  153.7230  135.3264  155.3271 H   0  0  0  0  0  0  0  0  0  0  0  0  # atno 10764 bound_to 10752
  154.8259  135.4617  154.1028 H   0  0  0  0  0  0  0  0  0  0  0  0  # atno 10765 bound_to 10752
  140.7231  134.3705  157.5180 H   0  0  0  0  0  0  0  0  0  0  0  0  # atno 11005 bound_to 11000
  145.3718  141.0344  143.3227 LP  0  0  0  0  0  0  0  0  0  0  0  0  # atno 17320 bound_to 7965
  144.8533  139.5288  143.6846 LP  0  0  0  0  0  0  0  0  0  0  0  0  # atno 17321 bound_to 7965
  140.5533  144.0390  150.6136 LP  0  0  0  0  0  0  0  0  0  0  0  0  # atno 17342 bound_to 10162
  140.3451  143.2996  152.0546 LP  0  0  0  0  0  0  0  0  0  0  0  0  # atno 17343 bound_to 10162
  156.9819  130.9867  151.3435 LP  0  0  0  0  0  0  0  0  0  0  0  0  # atno 17370 bound_to 10713
  157.5596  130.8237  149.8248 LP  0  0  0  0  0  0  0  0  0  0  0  0  # atno 17371 bound_to 10713
  139.8843  134.8968  156.2709 LP  0  0  0  0  0  0  0  0  0  0  0  0  # atno 17394 bound_to 11000
  140.9986  133.7165  156.0925 LP  0  0  0  0  0  0  0  0  0  0  0  0  # atno 17395 bound_to 11000

$$$$
