AV-unprocessed.smi:193|AV-procd|sdf|1518|dock2
  -GOLD-   2262019353D 1   1.00000     0.00000
 Structure written by MMmdl.
 61 65  0  0  0  0  0  0  0  0  1 V2000
  153.9699  137.6192  160.4573 C   0  0  0  0  0  0  0  0  0  0  0  0
  153.1431  138.7546  159.8337 C   0  0  2  0  0  0  0  0  0  0  0  0
  153.2755  138.7015  158.2961 C   0  0  0  0  0  0  0  0  0  0  0  0
  152.2209  139.4164  157.5736 N   0  0  0  0  0  0  0  0  0  0  0  0
  151.6764  138.8012  156.4897 C   0  0  0  0  0  0  0  0  0  0  0  0
  151.2485  139.5571  155.4431 N   0  0  0  0  0  0  0  0  0  0  0  0
  150.6954  138.9822  154.3717 C   0  0  0  0  0  0  0  0  0  0  0  0
  150.4802  137.6869  154.1384 N   0  0  0  0  0  0  0  0  0  0  0  0
  150.9166  136.9183  155.1761 C   0  0  0  0  0  0  0  0  0  0  0  0
  151.5188  137.3880  156.3786 C   0  0  0  0  0  0  0  0  0  0  0  0
  151.8361  136.3080  157.1955 N   0  0  0  0  0  0  0  0  0  0  0  0
  151.4349  135.2656  156.5218 C   0  0  0  0  0  0  0  0  0  0  0  0
  150.8817  135.5390  155.2916 N   0  0  0  0  0  0  0  0  0  0  0  0
  150.3612  134.5707  154.3370 C   0  0  0  0  0  0  0  0  0  0  0  0
  148.8627  134.2172  154.5436 C   0  0  0  0  0  0  0  0  0  0  0  0
  148.1079  135.3884  154.2929 O   0  0  0  0  0  0  0  0  0  0  0  0
  148.3851  133.1439  153.5452 C   0  0  0  0  0  0  0  0  0  0  0  0
  148.9012  131.7443  153.9255 C   0  0  0  0  0  0  0  0  0  0  0  0
  148.5060  131.4223  155.2547 O   0  0  0  0  0  0  0  0  0  0  0  0
  149.0390  132.3146  156.2270 C   0  0  0  0  0  0  0  0  0  0  0  0
  148.5183  133.7400  155.9707 C   0  0  0  0  0  0  0  0  0  0  0  0
  151.5009  140.5321  158.1874 C   0  0  0  0  0  0  0  0  0  0  0  0
  152.4337  141.5404  158.8737 C   0  0  0  0  0  0  0  0  0  0  0  0
  152.6348  141.1835  160.2749 N   0  0  0  0  0  0  0  0  0  0  0  0
  153.1558  142.3478  160.9759 C   0  0  1  0  0  0  0  0  0  0  0  0
  152.2178  143.5154  161.1836 C   0  0  0  0  0  0  0  0  0  0  0  0
  152.6034  142.6420  162.3546 C   0  0  2  0  0  0  0  0  0  0  0  0
  153.5041  143.1742  163.4479 C   0  0  0  0  0  0  0  0  0  0  0  0
  153.6158  140.1077  160.4106 C   0  0  0  0  0  0  0  0  0  0  0  0
  155.0296  137.7258  160.2230 H   0  0  0  0  0  0  0  0  0  0  0  0
  153.6438  136.6454  160.0906 H   0  0  0  0  0  0  0  0  0  0  0  0
  153.8681  137.6065  161.5429 H   0  0  0  0  0  0  0  0  0  0  0  0
  152.1052  138.5753  160.1196 H   0  0  0  0  0  0  0  0  0  0  0  0
  154.2469  139.0869  157.9845 H   0  0  0  0  0  0  0  0  0  0  0  0
  153.2532  137.6527  157.9974 H   0  0  0  0  0  0  0  0  0  0  0  0
  150.3793  139.6573  153.5900 H   0  0  0  0  0  0  0  0  0  0  0  0
  151.5392  134.2602  156.9036 H   0  0  0  0  0  0  0  0  0  0  0  0
  150.5140  134.9744  153.3349 H   0  0  0  0  0  0  0  0  0  0  0  0
  150.9821  133.6769  154.3929 H   0  0  0  0  0  0  0  0  0  0  0  0
  148.4712  135.8212  153.5357 H   0  0  0  0  0  0  0  0  0  0  0  0
  147.2943  133.1129  153.5345 H   0  0  0  0  0  0  0  0  0  0  0  0
  148.6924  133.3974  152.5298 H   0  0  0  0  0  0  0  0  0  0  0  0
  148.4830  130.9989  153.2489 H   0  0  0  0  0  0  0  0  0  0  0  0
  149.9855  131.6796  153.8298 H   0  0  0  0  0  0  0  0  0  0  0  0
  148.7301  131.9785  157.2169 H   0  0  0  0  0  0  0  0  0  0  0  0
  150.1283  132.2777  156.2089 H   0  0  0  0  0  0  0  0  0  0  0  0
  148.9012  134.4270  156.7252 H   0  0  0  0  0  0  0  0  0  0  0  0
  147.4348  133.7313  156.0991 H   0  0  0  0  0  0  0  0  0  0  0  0
  150.9689  141.0721  157.4030 H   0  0  0  0  0  0  0  0  0  0  0  0
  150.7392  140.1620  158.8751 H   0  0  0  0  0  0  0  0  0  0  0  0
  153.3771  141.6658  158.3393 H   0  0  0  0  0  0  0  0  0  0  0  0
  151.9322  142.5088  158.8442 H   0  0  0  0  0  0  0  0  0  0  0  0
  154.2001  142.6172  160.8246 H   0  0  0  0  0  0  0  0  0  0  0  0
  152.6455  144.5146  161.1318 H   0  0  0  0  0  0  0  0  0  0  0  0
  151.2010  143.4259  160.8053 H   0  0  0  0  0  0  0  0  0  0  0  0
  151.8288  141.9694  162.7187 H   0  0  0  0  0  0  0  0  0  0  0  0
  154.2605  143.8433  163.0361 H   0  0  0  0  0  0  0  0  0  0  0  0
  154.0077  142.3490  163.9516 H   0  0  0  0  0  0  0  0  0  0  0  0
  152.9161  143.7245  164.1826 H   0  0  0  0  0  0  0  0  0  0  0  0
  153.8037  139.9764  161.4773 H   0  0  0  0  0  0  0  0  0  0  0  0
  154.5696  140.4004  159.9681 H   0  0  0  0  0  0  0  0  0  0  0  0
  1  2  1  0  0  0  0
  1 30  1  0  0  0  0
  1 31  1  0  0  0  0
  1 32  1  0  0  0  0
  2 29  1  0  0  0  0
  2  3  1  0  0  0  0
  2 33  1  0  0  0  0
  3  4  1  0  0  0  0
  3 34  1  0  0  0  0
  3 35  1  0  0  0  0
  4  5  1  0  0  0  0
  4 22  1  0  0  0  0
  5 10  1  0  0  0  0
  5  6  2  0  0  0  0
  6  7  1  0  0  0  0
  7  8  2  0  0  0  0
  7 36  1  0  0  0  0
  8  9  1  0  0  0  0
  9 13  1  0  0  0  0
  9 10  2  0  0  0  0
 10 11  1  0  0  0  0
 11 12  2  0  0  0  0
 12 13  1  0  0  0  0
 12 37  1  0  0  0  0
 13 14  1  0  0  0  0
 14 15  1  0  0  0  0
 14 38  1  0  0  0  0
 14 39  1  0  0  0  0
 15 21  1  0  0  0  0
 15 16  1  0  0  0  0
 15 17  1  0  0  0  0
 16 40  1  0  0  0  0
 17 18  1  0  0  0  0
 17 41  1  0  0  0  0
 17 42  1  0  0  0  0
 18 19  1  0  0  0  0
 18 43  1  0  0  0  0
 18 44  1  0  0  0  0
 19 20  1  0  0  0  0
 20 21  1  0  0  0  0
 20 45  1  0  0  0  0
 20 46  1  0  0  0  0
 21 47  1  0  0  0  0
 21 48  1  0  0  0  0
 22 23  1  0  0  0  0
 22 49  1  0  0  0  0
 22 50  1  0  0  0  0
 23 24  1  0  0  0  0
 23 51  1  0  0  0  0
 23 52  1  0  0  0  0
 24 25  1  0  0  0  0
 24 29  1  0  0  0  0
 25 27  1  0  0  0  0
 25 26  1  0  0  0  0
 25 53  1  0  0  0  0
 26 27  1  0  0  0  0
 26 54  1  0  0  0  0
 26 55  1  0  0  0  0
 27 28  1  0  0  0  0
 27 56  1  0  0  0  0
 28 57  1  0  0  0  0
 28 58  1  0  0  0  0
 28 59  1  0  0  0  0
 29 60  1  0  0  0  0
 29 61  1  0  0  0  0
M  END
> <s_m_source_file>
AV-unprocessed.smi

> <i_m_source_file_index>
193

> <i_lp_mmshare_version>
43012

> <i_f3d_flags>
0

> <s_epik_input>
W0NIM11bQ0BASF0xW0NIMl1bQ0BIXTFOKFtDSDJdMilbQ0gyXVtDSDJdTihbQ0gyXVtDQEhdMltDSDNdKWMobltjSF1uMyljKGMzNCluW2NIXW40W0NIMl1DNShbT0hdKVtDSDJdW0NIMl1PW0NIMl1bQ0gyXTU=

> <s_epik_cmdline>
J2VwaWtfcHl0aG9uJywgJy1waCcsICc3LjAnLCAnLXRuJywgJzgnLCAnLW1hJywgJzIwMCcsICctbWV0YWxfYmluZGluZycsICctaW1hZScsICc8aW5maWxlLm1hZT4nLCAnLW9tYWUnLCAnPG91dGZpbGUubWFlPic=

> <r_lp_tautomer_probability>
1

> <r_epik_Ionization_Penalty>
1.45227

> <r_epik_Ionization_Penalty_Charging>
0

> <r_epik_Ionization_Penalty_Neutral>
1.45227

> <r_epik_State_Penalty>
2.02377

> <r_epik_Charging_Adjusted_Penalty>
2.02377

> <i_epik_Tot_Q>
0

> <i_epik_Tot_abs_Q>
0

> <r_epik_Metal_State_Penalty>
2.01937

> <b_epik_Metal_Only>
0

> <s_lp_Force_Field>
OPLS_2005

> <r_lp_Energy>
49.0818

> <b_lp_Chiralities_Consistent>
1

> <s_lp_Variant>
AV-unprocessed.smi:193-23

> <Gold.Version>
5.8.1

> <Gold.Id.Protein>
6NUR|6NUR_protein|mol2

> <Gold.PLP.Fitness>
49.6552

> <Gold.PLP.PLP>
-45.8961

> <Gold.PLP.part.hbond>
-1.0281

> <Gold.PLP.part.metal>
0.0000

> <Gold.PLP.part.buried>
-6.3399

> <Gold.PLP.part.nonpolar>
-39.0490

> <Gold.PLP.part.repulsive>
0.7704

> <Gold.PLP.ligand.clash>
0.0000

> <Gold.PLP.ligand.torsion>
1.6887

> <Gold.PLP.Chemscore.Hbond>
1.0000

> <Gold.PLP.Chemscore.CHOScore>
0.9590

> <Gold.PLP.Chemscore.Metal>
0.0000

> <Gold.Chemscore.Hbonds>
donor molecule, donor type, donor heavy atom, donor atom, acceptor molecule, acceptor atom, score
      L1  H    16    40       P1  7948  1.00
      L1  C     7    36       P1  7957  0.90

> <Gold.PLP.Chemscore.Internal.Correction>
1.2593

> <Gold.Rescore>
     Score         DG    S(hbond)    S(metal)    S(lipo)     H(rot)  DE(clash)    DE(int)     intcor
     14.38     -17.94       0.97        0.00     120.38       1.91       0.93       2.64       ----

> <Gold.Chemscore.Fitness>
14.3757

> <Gold.Chemscore.DG>
-17.9373

> <Gold.Chemscore.ZeroCoef>
-5.4800

> <Gold.Chemscore.Hbond>
0.9742

> <Gold.Chemscore.Metal>
0.0000

> <Gold.Chemscore.Lipo>
120.3842

> <Gold.Chemscore.Internal_Hbond>
0.0000

> <Gold.Chemscore.DEClash>
0.9253

> <Gold.Chemscore.DEInternal>
2.6362

> <Gold.Chemscore.Rot>
1.9068

> <Gold.Chemscore.Internal.Correction>
   9.000000E+99

> <Gold.Chemscore.Hbonds>
donor molecule, donor type, donor heavy atom, donor atom, acceptor molecule, acceptor atom, score
      L1  H    16    40       P1  7948  1.00

> <Gold.Chemscore.Hbond.Weighted>
-3.2537

> <Gold.Chemscore.Metal.Weighted>
-0.0000

> <Gold.Chemscore.Lipo.Weighted>
-14.0850

> <Gold.Chemscore.Internal_Hbond.Weighted>
0.0000

> <Gold.Chemscore.DEClash.Weighted>
0.9253

> <Gold.Chemscore.DEInternal.Weighted>
2.6362

> <Gold.Chemscore.Rot.Weighted>
4.8814

> <Gold.Chemscore.Internal.Correction.Weighted>
   9.000000E+99

> <Gold.Protein.RotatedTorsions>
[ 6907 6896 6895 6894 ] final  -91.10 input  -60.11 | X-H torsion
[ 7974 7965 7964 7962 ] final  140.51 input  175.53 | X-H torsion
[ 8008 7997 7996 7995 ] final  -23.31 input   59.86 | X-H torsion
[ 10167 10162 10161 10158 ] final -134.27 input  -65.29 | X-H torsion
[ 10718 10713 10712 10709 ] final -162.21 input   66.30 | X-H torsion
[ 10763 10752 10751 10750 ] final   24.12 input  -60.55 | X-H torsion
[ 11005 11000 10999 10996 ] final -168.67 input  -57.11 | X-H torsion

> <Gold.Protein.ActiveResidues>
 VAL166  LYS551  ARG553  GLY616  TRP617  ASP618  TYR619  PRO620  LYS621  CYS622 
 ASP623  PHE694  ASN695  SER759  ASP760  ASP761  ALA762  ILE779  LEU786  VAL792 
 PHE793  MET794  SER795  GLU796  ALA797  LYS798  CYS799  TRP800  GLU811  SER814 

> <Gold.Protein.RotatedAtoms>
  150.6888  134.2330  159.4441 H   0  0  0  0  0  0  0  0  0  0  0  0  # atno 6907 bound_to 6896
  152.0279  134.9782  160.0581 H   0  0  0  0  0  0  0  0  0  0  0  0  # atno 6908 bound_to 6896
  152.1333  133.4386  159.4768 H   0  0  0  0  0  0  0  0  0  0  0  0  # atno 6909 bound_to 6896
  144.9180  139.5205  143.5677 H   0  0  0  0  0  0  0  0  0  0  0  0  # atno 7974 bound_to 7965
  154.4593  140.1984  156.0291 H   0  0  0  0  0  0  0  0  0  0  0  0  # atno 8008 bound_to 7997
  156.0808  140.3272  155.7663 H   0  0  0  0  0  0  0  0  0  0  0  0  # atno 8009 bound_to 7997
  155.5115  140.0562  157.2913 H   0  0  0  0  0  0  0  0  0  0  0  0  # atno 8010 bound_to 7997
  139.8898  143.6736  152.2614 H   0  0  0  0  0  0  0  0  0  0  0  0  # atno 10167 bound_to 10162
  156.6072  130.8835  151.2928 H   0  0  0  0  0  0  0  0  0  0  0  0  # atno 10718 bound_to 10713
  153.0787  135.6612  154.0091 H   0  0  0  0  0  0  0  0  0  0  0  0  # atno 10763 bound_to 10752
  153.9718  135.2964  155.3428 H   0  0  0  0  0  0  0  0  0  0  0  0  # atno 10764 bound_to 10752
  154.7182  135.5176  153.8841 H   0  0  0  0  0  0  0  0  0  0  0  0  # atno 10765 bound_to 10752
  140.5394  134.5537  157.5096 H   0  0  0  0  0  0  0  0  0  0  0  0  # atno 11005 bound_to 11000
  146.3191  139.8037  142.8960 LP  0  0  0  0  0  0  0  0  0  0  0  0  # atno 17320 bound_to 7965
  145.3343  141.0274  143.3428 LP  0  0  0  0  0  0  0  0  0  0  0  0  # atno 17321 bound_to 7965
  139.7120  144.7618  151.1096 LP  0  0  0  0  0  0  0  0  0  0  0  0  # atno 17342 bound_to 10162
  140.7729  143.5318  150.9414 LP  0  0  0  0  0  0  0  0  0  0  0  0  # atno 17343 bound_to 10162
  157.7264  130.9629  150.1654 LP  0  0  0  0  0  0  0  0  0  0  0  0  # atno 17370 bound_to 10713
  156.2420  130.3692  149.8327 LP  0  0  0  0  0  0  0  0  0  0  0  0  # atno 17371 bound_to 10713
  139.9512  134.7614  156.0444 LP  0  0  0  0  0  0  0  0  0  0  0  0  # atno 17394 bound_to 11000
  141.1236  133.6605  156.3278 LP  0  0  0  0  0  0  0  0  0  0  0  0  # atno 17395 bound_to 11000

$$$$
