AV-unprocessed.smi:1710|AV-procd|sdf|6899|dock1
  -GOLD-   22720 8103D 1   1.00000     0.00000
 Structure written by MMmdl.
 36 37  0  0  0  0  0  0  0  0  1 V2000
  150.9641  142.4315  156.7906 C   0  0  0  0  0  0  0  0  0  0  0  0
  150.6233  140.6688  156.3911 S   0  0  0  0  0  0  0  0  0  0  0  0
  151.5698  140.2437  155.3483 O   0  0  0  0  0  0  0  0  0  0  0  0
  150.5450  139.9190  157.6541 O   0  0  0  0  0  0  0  0  0  0  0  0
  149.0318  140.6938  155.6872 N   0  0  0  0  0  0  0  0  0  0  0  0
  148.8548  141.0955  154.2769 C   0  0  0  0  0  0  0  0  0  0  0  0
  148.6517  139.8781  153.3576 C   0  0  0  0  0  0  0  0  0  0  0  0
  147.5026  138.9857  153.8553 C   0  0  0  0  0  0  0  0  0  0  0  0
  147.3653  137.8002  153.0138 N   0  0  0  0  0  0  0  0  0  0  0  0
  146.2022  137.2216  152.6823 C   0  0  0  0  0  0  0  0  0  0  0  0
  145.1052  137.6318  153.0619 O   0  0  0  0  0  0  0  0  0  0  0  0
  146.3947  136.1561  151.8873 N   0  0  0  0  0  0  0  0  0  0  0  0
  145.4051  135.2940  151.3507 C   0  0  0  0  0  0  0  0  0  0  0  0
  145.5834  133.9035  151.1155 C   0  0  0  0  0  0  0  0  0  0  0  0
  144.4871  133.3535  150.6128 N   0  0  0  0  0  0  0  0  0  0  0  0
  143.6100  134.3789  150.5275 N   0  0  0  0  0  0  0  0  0  0  0  0
  144.1247  135.5788  150.9665 C   0  0  0  0  0  0  0  0  0  0  0  0
  147.7770  138.5702  155.3075 C   0  0  0  0  0  0  0  0  0  0  0  0
  147.9799  139.7994  156.2110 C   0  0  0  0  0  0  0  0  0  0  0  0
  142.6733  134.2455  150.1734 H   0  0  0  0  0  0  0  0  0  0  0  0
  151.9487  142.5069  157.2514 H   0  0  0  0  0  0  0  0  0  0  0  0
  150.2177  142.8052  157.4889 H   0  0  0  0  0  0  0  0  0  0  0  0
  150.9549  143.0265  155.8791 H   0  0  0  0  0  0  0  0  0  0  0  0
  147.9836  141.7482  154.2127 H   0  0  0  0  0  0  0  0  0  0  0  0
  149.7059  141.6863  153.9400 H   0  0  0  0  0  0  0  0  0  0  0  0
  148.4457  140.2231  152.3437 H   0  0  0  0  0  0  0  0  0  0  0  0
  149.5727  139.2987  153.2990 H   0  0  0  0  0  0  0  0  0  0  0  0
  146.5712  139.5551  153.8323 H   0  0  0  0  0  0  0  0  0  0  0  0
  148.2177  137.3952  152.6551 H   0  0  0  0  0  0  0  0  0  0  0  0
  147.3485  135.9397  151.6375 H   0  0  0  0  0  0  0  0  0  0  0  0
  146.4537  133.2879  151.2886 H   0  0  0  0  0  0  0  0  0  0  0  0
  143.5467  136.4908  150.9647 H   0  0  0  0  0  0  0  0  0  0  0  0
  146.9459  137.9747  155.6874 H   0  0  0  0  0  0  0  0  0  0  0  0
  148.6560  137.9278  155.3510 H   0  0  0  0  0  0  0  0  0  0  0  0
  148.2166  139.4884  157.2281 H   0  0  0  0  0  0  0  0  0  0  0  0
  147.0488  140.3639  156.2717 H   0  0  0  0  0  0  0  0  0  0  0  0
  1  2  1  0  0  0  0
  1 21  1  0  0  0  0
  1 22  1  0  0  0  0
  1 23  1  0  0  0  0
  2  3  2  0  0  0  0
  2  4  2  0  0  0  0
  2  5  1  0  0  0  0
  5 19  1  0  0  0  0
  5  6  1  0  0  0  0
  6  7  1  0  0  0  0
  6 24  1  0  0  0  0
  6 25  1  0  0  0  0
  7  8  1  0  0  0  0
  7 26  1  0  0  0  0
  7 27  1  0  0  0  0
  8  9  1  0  0  0  0
  8 18  1  0  0  0  0
  8 28  1  0  0  0  0
  9 10  1  0  0  0  0
  9 29  1  0  0  0  0
 10 11  2  0  0  0  0
 10 12  1  0  0  0  0
 12 13  1  0  0  0  0
 12 30  1  0  0  0  0
 13 17  2  0  0  0  0
 13 14  1  0  0  0  0
 14 15  2  0  0  0  0
 14 31  1  0  0  0  0
 15 16  1  0  0  0  0
 16 20  1  0  0  0  0
 16 17  1  0  0  0  0
 17 32  1  0  0  0  0
 18 19  1  0  0  0  0
 18 33  1  0  0  0  0
 18 34  1  0  0  0  0
 19 35  1  0  0  0  0
 19 36  1  0  0  0  0
M  END
> <s_m_source_file>
AV-unprocessed.smi

> <i_m_source_file_index>
1710

> <i_lp_mmshare_version>
43012

> <i_f3d_flags>
0

> <s_epik_input>
W0NIM11TKD1PKSg9TylOMVtDSDJdW0NIMl1bQ0hdKFtDSDJdW0NIMl0xKVtOSF1DKD1PKVtOSF1jMltjSF1uW25IXVtjSF0y

> <s_epik_cmdline>
J2VwaWtfcHl0aG9uJywgJy1waCcsICc3LjAnLCAnLXRuJywgJzgnLCAnLW1hJywgJzIwMCcsICctbWV0YWxfYmluZGluZycsICctaW1hZScsICc8aW5maWxlLm1hZT4nLCAnLW9tYWUnLCAnPG91dGZpbGUubWFlPic=

> <r_lp_tautomer_probability>
1

> <r_epik_Ionization_Penalty>
5.00334e-05

> <r_epik_Ionization_Penalty_Charging>
0

> <r_epik_Ionization_Penalty_Neutral>
5.00334e-05

> <r_epik_State_Penalty>
-0

> <r_epik_Charging_Adjusted_Penalty>
0

> <i_epik_Tot_Q>
0

> <i_epik_Tot_abs_Q>
0

> <r_epik_Metal_State_Penalty>
-0

> <b_epik_Metal_Only>
0

> <s_lp_Force_Field>
OPLS_2005

> <r_lp_Energy>
2.71919

> <b_lp_Chiralities_Consistent>
1

> <s_lp_Variant>
AV-unprocessed.smi:1710-1

> <Gold.Version>
5.8.1

> <Gold.Id.Protein>
6NUR|6NUR_protein|mol2

> <Gold.PLP.Fitness>
36.1039

> <Gold.PLP.PLP>
-22.5396

> <Gold.PLP.part.hbond>
-3.8977

> <Gold.PLP.part.metal>
0.0000

> <Gold.PLP.part.buried>
0.0944

> <Gold.PLP.part.nonpolar>
-20.0850

> <Gold.PLP.part.repulsive>
0.4727

> <Gold.PLP.ligand.clash>
0.0000

> <Gold.PLP.ligand.torsion>
1.6194

> <Gold.PLP.Chemscore.Hbond>
3.9200

> <Gold.PLP.Chemscore.CHOScore>
0.9960

> <Gold.PLP.Chemscore.Metal>
0.0000

> <Gold.Chemscore.Hbonds>
donor molecule, donor type, donor heavy atom, donor atom, acceptor molecule, acceptor atom, score
      L1  H     9    29       P1  7948  1.00
      L1  H    12    30       P1  7948  1.00
      L1  H    16    20       P1 10186  1.00
      P1  H  7989  7998       L1     3  0.93
      L1  C    17    32       P1 10171  1.00

> <Gold.PLP.Chemscore.Internal.Correction>
2.0553

> <Gold.Rescore>
     Score         DG    S(hbond)    S(metal)    S(lipo)     H(rot)  DE(clash)    DE(int)     intcor
     18.06     -21.50       3.84        0.00      49.15       1.00       1.77       1.68       ----

> <Gold.Chemscore.Fitness>
18.0582

> <Gold.Chemscore.DG>
-21.5042

> <Gold.Chemscore.ZeroCoef>
-5.4800

> <Gold.Chemscore.Hbond>
3.8425

> <Gold.Chemscore.Metal>
0.0000

> <Gold.Chemscore.Lipo>
49.1460

> <Gold.Chemscore.Internal_Hbond>
0.0000

> <Gold.Chemscore.DEClash>
1.7691

> <Gold.Chemscore.DEInternal>
1.6769

> <Gold.Chemscore.Rot>
1.0000

> <Gold.Chemscore.Internal.Correction>
   9.000000E+99

> <Gold.Chemscore.Hbonds>
donor molecule, donor type, donor heavy atom, donor atom, acceptor molecule, acceptor atom, score
      L1  H     9    29       P1  7948  0.92
      L1  H    12    30       P1  7948  0.93
      L1  H    16    20       P1 10186  0.91
      P1  H  7989  7998       L1     3  0.89

> <Gold.Chemscore.Hbond.Weighted>
-12.8341

> <Gold.Chemscore.Metal.Weighted>
-0.0000

> <Gold.Chemscore.Lipo.Weighted>
-5.7501

> <Gold.Chemscore.Internal_Hbond.Weighted>
0.0000

> <Gold.Chemscore.DEClash.Weighted>
1.7691

> <Gold.Chemscore.DEInternal.Weighted>
1.6769

> <Gold.Chemscore.Rot.Weighted>
2.5600

> <Gold.Chemscore.Internal.Correction.Weighted>
   9.000000E+99

> <Gold.Protein.RotatedTorsions>
[ 6907 6896 6895 6894 ] final   -6.95 input  -60.11 | X-H torsion
[ 7974 7965 7964 7962 ] final  -54.68 input  175.53 | X-H torsion
[ 8008 7997 7996 7995 ] final  -18.46 input   59.86 | X-H torsion
[ 10167 10162 10161 10158 ] final  137.55 input  -65.29 | X-H torsion
[ 10718 10713 10712 10709 ] final -128.93 input   66.30 | X-H torsion
[ 10763 10752 10751 10750 ] final  160.54 input  -60.55 | X-H torsion
[ 11005 11000 10999 10996 ] final  162.29 input  -57.11 | X-H torsion

> <Gold.Protein.ActiveResidues>
 VAL166  LYS551  ARG553  GLY616  TRP617  ASP618  TYR619  PRO620  LYS621  CYS622 
 ASP623  PHE694  ASN695  SER759  ASP760  ASP761  ALA762  ILE779  LEU786  VAL792 
 PHE793  MET794  SER795  GLU796  ALA797  LYS798  CYS799  TRP800  GLU811  SER814 

> <Gold.Protein.RotatedAtoms>
  151.4574  135.1035  159.9714 H   0  0  0  0  0  0  0  0  0  0  0  0  # atno 6907 bound_to 6896
  152.4866  133.8384  159.7150 H   0  0  0  0  0  0  0  0  0  0  0  0  # atno 6908 bound_to 6896
  150.8981  133.7095  159.2913 H   0  0  0  0  0  0  0  0  0  0  0  0  # atno 6909 bound_to 6896
  145.8828  140.8131  142.9831 H   0  0  0  0  0  0  0  0  0  0  0  0  # atno 7974 bound_to 7965
  154.4905  140.2115  155.9560 H   0  0  0  0  0  0  0  0  0  0  0  0  # atno 8008 bound_to 7997
  156.1298  140.3199  155.8300 H   0  0  0  0  0  0  0  0  0  0  0  0  # atno 8009 bound_to 7997
  155.4317  140.0504  157.3008 H   0  0  0  0  0  0  0  0  0  0  0  0  # atno 8010 bound_to 7997
  139.5140  144.6403  151.5585 H   0  0  0  0  0  0  0  0  0  0  0  0  # atno 10167 bound_to 10162
  156.1998  130.6849  151.0525 H   0  0  0  0  0  0  0  0  0  0  0  0  # atno 10718 bound_to 10713
  154.2490  135.2772  155.2824 H   0  0  0  0  0  0  0  0  0  0  0  0  # atno 10763 bound_to 10752
  154.5481  135.5683  153.6901 H   0  0  0  0  0  0  0  0  0  0  0  0  # atno 10764 bound_to 10752
  152.9984  135.6267  154.2636 H   0  0  0  0  0  0  0  0  0  0  0  0  # atno 10765 bound_to 10752
  140.2243  134.8172  157.3252 H   0  0  0  0  0  0  0  0  0  0  0  0  # atno 11005 bound_to 11000
  144.6727  140.1410  143.7437 LP  0  0  0  0  0  0  0  0  0  0  0  0  # atno 17320 bound_to 7965
  145.9003  139.2426  143.1498 LP  0  0  0  0  0  0  0  0  0  0  0  0  # atno 17321 bound_to 7965
  140.6168  143.9334  150.6495 LP  0  0  0  0  0  0  0  0  0  0  0  0  # atno 17342 bound_to 10162
  140.2594  143.3535  152.1336 LP  0  0  0  0  0  0  0  0  0  0  0  0  # atno 17343 bound_to 10162
  157.6979  131.0787  150.6913 LP  0  0  0  0  0  0  0  0  0  0  0  0  # atno 17370 bound_to 10713
  156.6970  130.4612  149.5583 LP  0  0  0  0  0  0  0  0  0  0  0  0  # atno 17371 bound_to 10713
  140.1817  134.4482  155.7768 LP  0  0  0  0  0  0  0  0  0  0  0  0  # atno 17394 bound_to 11000
  141.2221  133.6986  156.7879 LP  0  0  0  0  0  0  0  0  0  0  0  0  # atno 17395 bound_to 11000

$$$$
