AV-unprocessed.smi:699|AV-procd|sdf|3404|dock3
  -GOLD-   22720 0383D 1   1.00000     0.00000
 Structure written by MMmdl.
 35 36  0  0  0  0  0  0  0  0  2 V2000
  157.9761  140.9005  160.3259 N   0  0  0  0  0  0  0  0  0  0  0  0
  157.1571  139.9760  159.8183 C   0  0  0  0  0  0  0  0  0  0  0  0
  156.9645  139.8733  158.6078 O   0  0  0  0  0  0  0  0  0  0  0  0
  156.4663  139.0275  160.8224 C   0  0  1  0  0  0  0  0  0  0  0  0
  157.5048  138.2776  161.6696 C   0  0  0  0  0  0  0  0  0  0  0  0
  157.7842  139.1765  162.8768 C   0  0  0  0  0  0  0  0  0  0  0  0
  156.4947  139.9726  163.1133 C   0  0  0  0  0  0  0  0  0  0  0  0
  155.5853  139.7252  161.8941 C   0  0  1  0  0  0  0  0  0  0  0  0
  154.9425  140.9648  161.4527 N   0  0  0  0  0  0  0  0  0  0  0  0
  154.0252  141.0502  160.4787 C   0  0  0  0  0  0  0  0  0  0  0  0
  153.6098  140.0754  159.8527 O   0  0  0  0  0  0  0  0  0  0  0  0
  153.6282  142.3212  160.2948 N   0  0  0  0  0  0  0  0  0  0  0  0
  152.6960  142.8362  159.3528 C   0  0  0  0  0  0  0  0  0  0  0  0
  151.8255  141.9149  158.7289 C   0  0  0  0  0  0  0  0  0  0  0  0
  150.8732  142.3771  157.7978 C   0  0  0  0  0  0  0  0  0  0  0  0
  150.7936  143.6949  157.5156 N   0  3  0  0  0  0  0  0  0  0  0  0
  151.5941  144.6148  158.0954 C   0  0  0  0  0  0  0  0  0  0  0  0
  152.5652  144.2124  159.0347 C   0  0  0  0  0  0  0  0  0  0  0  0
  158.4439  141.5485  159.7089 H   0  0  0  0  0  0  0  0  0  0  0  0
  158.1191  140.9546  161.3242 H   0  0  0  0  0  0  0  0  0  0  0  0
  155.8628  138.3145  160.2580 H   0  0  0  0  0  0  0  0  0  0  0  0
  157.0759  137.3340  162.0092 H   0  0  0  0  0  0  0  0  0  0  0  0
  158.4166  138.0344  161.1216 H   0  0  0  0  0  0  0  0  0  0  0  0
  158.0805  138.6002  163.7537 H   0  0  0  0  0  0  0  0  0  0  0  0
  158.6020  139.8610  162.6482 H   0  0  0  0  0  0  0  0  0  0  0  0
  155.9976  139.6479  164.0279 H   0  0  0  0  0  0  0  0  0  0  0  0
  156.7327  141.0301  163.2377 H   0  0  0  0  0  0  0  0  0  0  0  0
  154.8084  139.0219  162.2006 H   0  0  0  0  0  0  0  0  0  0  0  0
  155.2315  141.8142  161.9159 H   0  0  0  0  0  0  0  0  0  0  0  0
  154.0085  142.9982  160.9401 H   0  0  0  0  0  0  0  0  0  0  0  0
  151.8872  140.8602  158.9559 H   0  0  0  0  0  0  0  0  0  0  0  0
  150.1768  141.7370  157.2759 H   0  0  0  0  0  0  0  0  0  0  0  0
  151.4313  145.6402  157.7971 H   0  0  0  0  0  0  0  0  0  0  0  0
  153.1791  144.9689  159.4984 H   0  0  0  0  0  0  0  0  0  0  0  0
  150.0966  144.0097  156.8401 H   0  0  0  0  0  0  0  0  0  0  0  0
  1  2  1  0  0  0  0
  1 19  1  0  0  0  0
  1 20  1  0  0  0  0
  2  3  2  0  0  0  0
  2  4  1  0  0  0  0
  4  8  1  0  0  0  0
  4  5  1  0  0  0  0
  4 21  1  0  0  0  0
  5  6  1  0  0  0  0
  5 22  1  0  0  0  0
  5 23  1  0  0  0  0
  6  7  1  0  0  0  0
  6 24  1  0  0  0  0
  6 25  1  0  0  0  0
  7  8  1  0  0  0  0
  7 26  1  0  0  0  0
  7 27  1  0  0  0  0
  8  9  1  0  0  0  0
  8 28  1  0  0  0  0
  9 10  1  0  0  0  0
  9 29  1  0  0  0  0
 10 11  2  0  0  0  0
 10 12  1  0  0  0  0
 12 13  1  0  0  0  0
 12 30  1  0  0  0  0
 13 18  1  0  0  0  0
 13 14  2  0  0  0  0
 14 15  1  0  0  0  0
 14 31  1  0  0  0  0
 15 16  2  0  0  0  0
 15 32  1  0  0  0  0
 16 17  1  0  0  0  0
 16 35  1  0  0  0  0
 17 18  2  0  0  0  0
 17 33  1  0  0  0  0
 18 34  1  0  0  0  0
M  CHG  1  16   1
M  END
> <s_m_source_file>
AV-unprocessed.smi

> <i_m_source_file_index>
699

> <i_lp_mmshare_version>
43012

> <i_f3d_flags>
0

> <s_epik_input>
W05IMl1DKD1PKVtDQEBIXTFbQ0gyXVtDSDJdW0NIMl1bQ0BIXTFbTkhdQyg9TylbTkhdYzJbY0hdW2NIXW5bY0hdW2NIXTI=

> <s_epik_cmdline>
J2VwaWtfcHl0aG9uJywgJy1waCcsICc3LjAnLCAnLXRuJywgJzgnLCAnLW1hJywgJzIwMCcsICctbWV0YWxfYmluZGluZycsICctaW1hZScsICc8aW5maWxlLm1hZT4nLCAnLW9tYWUnLCAnPG91dGZpbGUubWFlPic=

> <r_epik_Ionization_Penalty>
1.0332

> <r_epik_Ionization_Penalty_Charging>
1.03318

> <r_epik_Ionization_Penalty_Neutral>
1.91967e-05

> <r_epik_State_Penalty>
1.08452

> <r_epik_Charging_Adjusted_Penalty>
2.11769

> <i_epik_Tot_Q>
1

> <i_epik_Tot_abs_Q>
1

> <r_epik_Metal_State_Penalty>
1.18144

> <b_epik_Metal_Only>
0

> <s_lp_Force_Field>
OPLS_2005

> <r_lp_Energy>
24.8241

> <b_lp_Chiralities_Consistent>
1

> <s_lp_Variant>
AV-unprocessed.smi:699-6

> <Gold.Version>
5.8.1

> <Gold.Id.Protein>
6NUR|6NUR_protein|mol2

> <Gold.PLP.Fitness>
40.5803

> <Gold.PLP.PLP>
-31.7286

> <Gold.PLP.part.hbond>
-4.0000

> <Gold.PLP.part.metal>
0.0000

> <Gold.PLP.part.buried>
-5.6385

> <Gold.PLP.part.nonpolar>
-22.5868

> <Gold.PLP.part.repulsive>
0.1211

> <Gold.PLP.ligand.clash>
0.0000

> <Gold.PLP.ligand.torsion>
0.0819

> <Gold.PLP.Chemscore.Hbond>
3.0000

> <Gold.PLP.Chemscore.CHOScore>
0.0000

> <Gold.PLP.Chemscore.Metal>
0.0000

> <Gold.Chemscore.Hbonds>
donor molecule, donor type, donor heavy atom, donor atom, acceptor molecule, acceptor atom, score
      L1  H    16    35       P1  8028  2.00
      P1  H  7997  8009       L1     3  1.00

> <Gold.PLP.Chemscore.Internal.Correction>
0.0155

> <Gold.Rescore>
     Score         DG    S(hbond)    S(metal)    S(lipo)     H(rot)  DE(clash)    DE(int)     intcor
     14.80     -17.14       2.00        0.00      75.54       1.50       0.24       2.10       ----

> <Gold.Chemscore.Fitness>
14.8042

> <Gold.Chemscore.DG>
-17.1439

> <Gold.Chemscore.ZeroCoef>
-5.4800

> <Gold.Chemscore.Hbond>
1.9987

> <Gold.Chemscore.Metal>
0.0000

> <Gold.Chemscore.Lipo>
75.5373

> <Gold.Chemscore.Internal_Hbond>
0.0000

> <Gold.Chemscore.DEClash>
0.2429

> <Gold.Chemscore.DEInternal>
2.0968

> <Gold.Chemscore.Rot>
1.5038

> <Gold.Chemscore.Internal.Correction>
   9.000000E+99

> <Gold.Chemscore.Hbonds>
donor molecule, donor type, donor heavy atom, donor atom, acceptor molecule, acceptor atom, score
      L1  H    16    35       P1  8028  0.98
      P1  H  7997  8009       L1     3  1.00

> <Gold.Chemscore.Hbond.Weighted>
-6.6757

> <Gold.Chemscore.Metal.Weighted>
-0.0000

> <Gold.Chemscore.Lipo.Weighted>
-8.8379

> <Gold.Chemscore.Internal_Hbond.Weighted>
0.0000

> <Gold.Chemscore.DEClash.Weighted>
0.2429

> <Gold.Chemscore.DEInternal.Weighted>
2.0968

> <Gold.Chemscore.Rot.Weighted>
3.8496

> <Gold.Chemscore.Internal.Correction.Weighted>
   9.000000E+99

> <Gold.Protein.RotatedTorsions>
[ 6907 6896 6895 6894 ] final   -5.37 input  -60.11 | X-H torsion
[ 7974 7965 7964 7962 ] final  115.97 input  175.53 | X-H torsion
[ 8008 7997 7996 7995 ] final   71.72 input   59.86 | X-H torsion
[ 10167 10162 10161 10158 ] final   -1.46 input  -65.29 | X-H torsion
[ 10718 10713 10712 10709 ] final   46.92 input   66.30 | X-H torsion
[ 10763 10752 10751 10750 ] final  120.34 input  -60.55 | X-H torsion
[ 11005 11000 10999 10996 ] final  145.48 input  -57.11 | X-H torsion

> <Gold.Protein.ActiveResidues>
 VAL166  LYS551  ARG553  GLY616  TRP617  ASP618  TYR619  PRO620  LYS621  CYS622 
 ASP623  PHE694  ASN695  SER759  ASP760  ASP761  ALA762  ILE779  LEU786  VAL792 
 PHE793  MET794  SER795  GLU796  ALA797  LYS798  CYS799  TRP800  GLU811  SER814 

> <Gold.Protein.RotatedAtoms>
  151.4827  135.1053  159.9781 H   0  0  0  0  0  0  0  0  0  0  0  0  # atno 6907 bound_to 6896
  152.4773  133.8164  159.7041 H   0  0  0  0  0  0  0  0  0  0  0  0  # atno 6908 bound_to 6896
  150.8819  133.7299  159.2956 H   0  0  0  0  0  0  0  0  0  0  0  0  # atno 6909 bound_to 6896
  145.1854  139.3028  143.4396 H   0  0  0  0  0  0  0  0  0  0  0  0  # atno 7974 bound_to 7965
  155.7581  140.3487  155.5184 H   0  0  0  0  0  0  0  0  0  0  0  0  # atno 8008 bound_to 7997
  155.8940  140.1022  157.1419 H   0  0  0  0  0  0  0  0  0  0  0  0  # atno 8009 bound_to 7997
  154.4036  140.1299  156.4339 H   0  0  0  0  0  0  0  0  0  0  0  0  # atno 8010 bound_to 7997
  140.6811  143.6772  150.8135 H   0  0  0  0  0  0  0  0  0  0  0  0  # atno 10167 bound_to 10162
  157.4532  130.8151  149.7809 H   0  0  0  0  0  0  0  0  0  0  0  0  # atno 10718 bound_to 10713
  153.5969  135.3455  155.2931 H   0  0  0  0  0  0  0  0  0  0  0  0  # atno 10763 bound_to 10752
  154.8643  135.4218  154.2455 H   0  0  0  0  0  0  0  0  0  0  0  0  # atno 10764 bound_to 10752
  153.3275  135.7042  153.7048 H   0  0  0  0  0  0  0  0  0  0  0  0  # atno 10765 bound_to 10752
  140.0716  134.9148  157.1354 H   0  0  0  0  0  0  0  0  0  0  0  0  # atno 11005 bound_to 11000
  146.3446  140.2049  142.8589 LP  0  0  0  0  0  0  0  0  0  0  0  0  # atno 17320 bound_to 7965
  145.0094  140.8701  143.5233 LP  0  0  0  0  0  0  0  0  0  0  0  0  # atno 17321 bound_to 7965
  140.0473  143.5285  152.2690 LP  0  0  0  0  0  0  0  0  0  0  0  0  # atno 17342 bound_to 10162
  139.6134  144.7614  151.2900 LP  0  0  0  0  0  0  0  0  0  0  0  0  # atno 17343 bound_to 10162
  155.9996  130.3888  150.2659 LP  0  0  0  0  0  0  0  0  0  0  0  0  # atno 17370 bound_to 10713
  157.0832  131.0149  151.3149 LP  0  0  0  0  0  0  0  0  0  0  0  0  # atno 17371 bound_to 10713
  140.3619  134.2485  155.7186 LP  0  0  0  0  0  0  0  0  0  0  0  0  # atno 17394 bound_to 11000
  141.2014  133.7964  157.0443 LP  0  0  0  0  0  0  0  0  0  0  0  0  # atno 17395 bound_to 11000

$$$$
