AV-unprocessed.smi:246|AV-procd|sdf|1886|dock7
  -GOLD-   2262020543D 1   1.00000     0.00000
 Structure written by MMmdl.
 57 60  0  0  0  0  0  0  0  0  1 V2000
  151.9706  145.0356  158.6750 C   0  0  0  0  0  0  0  0  0  0  0  0
  151.9171  144.6668  160.1637 C   0  0  0  0  0  0  0  0  0  0  0  0
  151.4263  143.3479  160.3558 O   0  0  0  0  0  0  0  0  0  0  0  0
  152.0554  142.3681  159.5430 C   0  0  0  0  0  0  0  0  0  0  0  0
  151.0524  141.8873  158.4912 C   0  0  0  0  0  0  0  0  0  0  0  0
  151.3476  140.5373  158.1682 O   0  0  0  0  0  0  0  0  0  0  0  0
  152.0855  140.3799  156.9641 C   0  0  1  0  0  0  0  0  0  0  0  0
  152.2815  138.8950  156.6382 C   0  0  0  0  0  0  0  0  0  0  0  0
  150.9899  138.5229  155.9163 C   0  0  0  0  0  0  0  0  0  0  0  0
  150.6191  139.7239  155.1822 N   0  0  0  0  0  0  0  0  0  0  0  0
  149.4238  139.8155  154.5421 C   0  0  0  0  0  0  0  0  0  0  0  0
  149.0575  141.0103  154.0058 N   0  0  0  0  0  0  0  0  0  0  0  0
  147.8926  141.1398  153.3653 C   0  0  0  0  0  0  0  0  0  0  0  0
  146.9524  140.2189  153.1503 N   0  0  0  0  0  0  0  0  0  0  0  0
  147.3042  139.0187  153.6933 C   0  0  0  0  0  0  0  0  0  0  0  0
  148.5044  138.7328  154.4066 C   0  0  0  0  0  0  0  0  0  0  0  0
  148.4895  137.4078  154.8303 N   0  0  0  0  0  0  0  0  0  0  0  0
  147.3575  136.9381  154.3841 C   0  0  0  0  0  0  0  0  0  0  0  0
  146.5896  137.8334  153.6757 N   0  0  0  0  0  0  0  0  0  0  0  0
  145.2940  137.5776  153.0663 C   0  0  0  0  0  0  0  0  0  0  0  0
  145.3608  136.9298  151.6635 C   0  0  1  0  0  0  0  0  0  0  0  0
  146.4715  137.4079  150.9295 O   0  0  0  0  0  0  0  0  0  0  0  0
  145.3281  135.3840  151.6466 C   0  0  1  0  0  0  0  0  0  0  0  0
  144.1142  134.7350  152.3184 C   0  0  0  0  0  0  0  0  0  0  0  0
  144.0796  133.3842  151.6391 C   0  0  0  0  0  0  0  0  0  0  0  0
  144.4755  133.7492  150.2117 C   0  0  0  0  0  0  0  0  0  0  0  0
  145.3865  134.8371  150.3311 O   0  0  0  0  0  0  0  0  0  0  0  0
  151.2104  140.8970  155.8137 C   0  0  0  0  0  0  0  0  0  0  0  0
  153.0285  140.9275  157.0133 H   0  0  0  0  0  0  0  0  0  0  0  0
  152.2671  146.0767  158.5472 H   0  0  0  0  0  0  0  0  0  0  0  0
  150.9941  144.9079  158.2073 H   0  0  0  0  0  0  0  0  0  0  0  0
  152.6867  144.4222  158.1290 H   0  0  0  0  0  0  0  0  0  0  0  0
  152.8907  144.7981  160.6385 H   0  0  0  0  0  0  0  0  0  0  0  0
  151.2321  145.3480  160.6692 H   0  0  0  0  0  0  0  0  0  0  0  0
  152.9519  142.7556  159.0583 H   0  0  0  0  0  0  0  0  0  0  0  0
  152.3584  141.5274  160.1686 H   0  0  0  0  0  0  0  0  0  0  0  0
  150.0413  141.9387  158.8973 H   0  0  0  0  0  0  0  0  0  0  0  0
  151.0850  142.5334  157.6134 H   0  0  0  0  0  0  0  0  0  0  0  0
  153.1240  138.7817  155.9548 H   0  0  0  0  0  0  0  0  0  0  0  0
  152.4736  138.2694  157.5096 H   0  0  0  0  0  0  0  0  0  0  0  0
  151.1309  137.6701  155.2513 H   0  0  0  0  0  0  0  0  0  0  0  0
  150.2098  138.2754  156.6381 H   0  0  0  0  0  0  0  0  0  0  0  0
  147.6854  142.1219  152.9668 H   0  0  0  0  0  0  0  0  0  0  0  0
  147.0553  135.9141  154.5489 H   0  0  0  0  0  0  0  0  0  0  0  0
  144.7178  136.9416  153.7394 H   0  0  0  0  0  0  0  0  0  0  0  0
  144.7551  138.5242  153.0111 H   0  0  0  0  0  0  0  0  0  0  0  0
  144.4798  137.2713  151.1190 H   0  0  0  0  0  0  0  0  0  0  0  0
  147.2338  136.9066  151.1763 H   0  0  0  0  0  0  0  0  0  0  0  0
  146.2205  135.0200  152.1584 H   0  0  0  0  0  0  0  0  0  0  0  0
  144.2141  134.6667  153.4020 H   0  0  0  0  0  0  0  0  0  0  0  0
  143.1953  135.2783  152.0952 H   0  0  0  0  0  0  0  0  0  0  0  0
  144.8254  132.7219  152.0807 H   0  0  0  0  0  0  0  0  0  0  0  0
  143.1065  132.8961  151.7007 H   0  0  0  0  0  0  0  0  0  0  0  0
  144.9198  132.9125  149.6723 H   0  0  0  0  0  0  0  0  0  0  0  0
  143.6035  134.0890  149.6515 H   0  0  0  0  0  0  0  0  0  0  0  0
  150.4561  141.5978  156.1741 H   0  0  0  0  0  0  0  0  0  0  0  0
  151.8249  141.4118  155.0746 H   0  0  0  0  0  0  0  0  0  0  0  0
  1  2  1  0  0  0  0
  1 30  1  0  0  0  0
  1 31  1  0  0  0  0
  1 32  1  0  0  0  0
  2  3  1  0  0  0  0
  2 33  1  0  0  0  0
  2 34  1  0  0  0  0
  3  4  1  0  0  0  0
  4  5  1  0  0  0  0
  4 35  1  0  0  0  0
  4 36  1  0  0  0  0
  5  6  1  0  0  0  0
  5 37  1  0  0  0  0
  5 38  1  0  0  0  0
  6  7  1  0  0  0  0
  7 29  1  0  0  0  0
  7 28  1  0  0  0  0
  7  8  1  0  0  0  0
  8  9  1  0  0  0  0
  8 39  1  0  0  0  0
  8 40  1  0  0  0  0
  9 10  1  0  0  0  0
  9 41  1  0  0  0  0
  9 42  1  0  0  0  0
 10 11  1  0  0  0  0
 10 28  1  0  0  0  0
 11 16  1  0  0  0  0
 11 12  2  0  0  0  0
 12 13  1  0  0  0  0
 13 14  2  0  0  0  0
 13 43  1  0  0  0  0
 14 15  1  0  0  0  0
 15 19  1  0  0  0  0
 15 16  2  0  0  0  0
 16 17  1  0  0  0  0
 17 18  2  0  0  0  0
 18 19  1  0  0  0  0
 18 44  1  0  0  0  0
 19 20  1  0  0  0  0
 20 21  1  0  0  0  0
 20 45  1  0  0  0  0
 20 46  1  0  0  0  0
 21 22  1  0  0  0  0
 21 23  1  0  0  0  0
 21 47  1  0  0  0  0
 22 48  1  0  0  0  0
 23 27  1  0  0  0  0
 23 24  1  0  0  0  0
 23 49  1  0  0  0  0
 24 25  1  0  0  0  0
 24 50  1  0  0  0  0
 24 51  1  0  0  0  0
 25 26  1  0  0  0  0
 25 52  1  0  0  0  0
 25 53  1  0  0  0  0
 26 27  1  0  0  0  0
 26 54  1  0  0  0  0
 26 55  1  0  0  0  0
 28 56  1  0  0  0  0
 28 57  1  0  0  0  0
M  END
> <s_m_source_file>
AV-unprocessed.smi

> <i_m_source_file_index>
246

> <i_lp_mmshare_version>
43012

> <i_f3d_flags>
0

> <s_epik_input>
W0NIM11bQ0gyXU9bQ0gyXVtDSDJdT1tDQEhdMVtDSDJdW0NIMl1OKFtDSDJdMSljKG5bY0hdbjIpYyhjMjMpbltjSF1uM1tDSDJdW0NASF0oW09IXSlbQ0BASF00W0NIMl1bQ0gyXVtDSDJdTzQ=

> <s_epik_cmdline>
J2VwaWtfcHl0aG9uJywgJy1waCcsICc3LjAnLCAnLXRuJywgJzgnLCAnLW1hJywgJzIwMCcsICctbWV0YWxfYmluZGluZycsICctaW1hZScsICc8aW5maWxlLm1hZT4nLCAnLW9tYWUnLCAnPG91dGZpbGUubWFlPic=

> <r_lp_tautomer_probability>
1

> <r_epik_Ionization_Penalty>
0.0024631

> <r_epik_Ionization_Penalty_Charging>
0

> <r_epik_Ionization_Penalty_Neutral>
0.0024631

> <r_epik_State_Penalty>
0.00162428

> <r_epik_Charging_Adjusted_Penalty>
0.00162428

> <i_epik_Tot_Q>
0

> <i_epik_Tot_abs_Q>
0

> <r_epik_Metal_State_Penalty>
-0

> <b_epik_Metal_Only>
0

> <s_lp_Force_Field>
OPLS_2005

> <r_lp_Energy>
53.5717

> <b_lp_Chiralities_Consistent>
1

> <s_lp_Variant>
AV-unprocessed.smi:246-7

> <Gold.Version>
5.8.1

> <Gold.Id.Protein>
6NUR|6NUR_protein|mol2

> <Gold.PLP.Fitness>
45.6425

> <Gold.PLP.PLP>
-45.2611

> <Gold.PLP.part.hbond>
-3.1769

> <Gold.PLP.part.metal>
0.0000

> <Gold.PLP.part.buried>
-5.2550

> <Gold.PLP.part.nonpolar>
-37.3491

> <Gold.PLP.part.repulsive>
1.6928

> <Gold.PLP.ligand.clash>
0.0000

> <Gold.PLP.ligand.torsion>
1.7153

> <Gold.PLP.Chemscore.Hbond>
1.0007

> <Gold.PLP.Chemscore.CHOScore>
0.0000

> <Gold.PLP.Chemscore.Metal>
0.0000

> <Gold.Chemscore.Hbonds>
donor molecule, donor type, donor heavy atom, donor atom, acceptor molecule, acceptor atom, score
      L1  H    22    48       P1  7948  1.00
      P1  H  8011  8017       L1    12  0.04

> <Gold.PLP.Chemscore.Internal.Correction>
0.8099

> <Gold.Rescore>
     Score         DG    S(hbond)    S(metal)    S(lipo)     H(rot)  DE(clash)    DE(int)     intcor
      9.86     -12.59       1.00        0.00     100.11       3.10       0.05       2.68       ----

> <Gold.Chemscore.Fitness>
9.8585

> <Gold.Chemscore.DG>
-12.5900

> <Gold.Chemscore.ZeroCoef>
-5.4800

> <Gold.Chemscore.Hbond>
0.9999

> <Gold.Chemscore.Metal>
0.0000

> <Gold.Chemscore.Lipo>
100.1116

> <Gold.Chemscore.Internal_Hbond>
0.0000

> <Gold.Chemscore.DEClash>
0.0522

> <Gold.Chemscore.DEInternal>
2.6793

> <Gold.Chemscore.Rot>
3.1026

> <Gold.Chemscore.Internal.Correction>
   9.000000E+99

> <Gold.Chemscore.Hbonds>
donor molecule, donor type, donor heavy atom, donor atom, acceptor molecule, acceptor atom, score
      L1  H    22    48       P1  7948  1.00

> <Gold.Chemscore.Hbond.Weighted>
-3.3396

> <Gold.Chemscore.Metal.Weighted>
-0.0000

> <Gold.Chemscore.Lipo.Weighted>
-11.7131

> <Gold.Chemscore.Internal_Hbond.Weighted>
0.0000

> <Gold.Chemscore.DEClash.Weighted>
0.0522

> <Gold.Chemscore.DEInternal.Weighted>
2.6793

> <Gold.Chemscore.Rot.Weighted>
7.9426

> <Gold.Chemscore.Internal.Correction.Weighted>
   9.000000E+99

> <Gold.Protein.RotatedTorsions>
[ 6907 6896 6895 6894 ] final  -69.75 input  -60.11 | X-H torsion
[ 7974 7965 7964 7962 ] final   48.76 input  175.53 | X-H torsion
[ 8008 7997 7996 7995 ] final   -6.21 input   59.86 | X-H torsion
[ 10167 10162 10161 10158 ] final    3.97 input  -65.29 | X-H torsion
[ 10718 10713 10712 10709 ] final -117.38 input   66.30 | X-H torsion
[ 10763 10752 10751 10750 ] final  146.43 input  -60.55 | X-H torsion
[ 11005 11000 10999 10996 ] final  160.80 input  -57.11 | X-H torsion

> <Gold.Protein.ActiveResidues>
 VAL166  LYS551  ARG553  GLY616  TRP617  ASP618  TYR619  PRO620  LYS621  CYS622 
 ASP623  PHE694  ASN695  SER759  ASP760  ASP761  ALA762  ILE779  LEU786  VAL792 
 PHE793  MET794  SER795  GLU796  ALA797  LYS798  CYS799  TRP800  GLU811  SER814 

> <Gold.Protein.RotatedAtoms>
  150.7290  134.5551  159.5813 H   0  0  0  0  0  0  0  0  0  0  0  0  # atno 6907 bound_to 6896
  152.3029  134.7587  160.0363 H   0  0  0  0  0  0  0  0  0  0  0  0  # atno 6908 bound_to 6896
  151.8162  133.3353  159.3607 H   0  0  0  0  0  0  0  0  0  0  0  0  # atno 6909 bound_to 6896
  146.0173  139.4611  142.9919 H   0  0  0  0  0  0  0  0  0  0  0  0  # atno 7974 bound_to 7965
  154.5961  140.2439  155.7855 H   0  0  0  0  0  0  0  0  0  0  0  0  # atno 8008 bound_to 7997
  156.2280  140.2976  156.0069 H   0  0  0  0  0  0  0  0  0  0  0  0  # atno 8009 bound_to 7997
  155.2291  140.0403  157.2950 H   0  0  0  0  0  0  0  0  0  0  0  0  # atno 8010 bound_to 7997
  140.6559  143.7429  150.7652 H   0  0  0  0  0  0  0  0  0  0  0  0  # atno 10167 bound_to 10162
  156.1030  130.6187  150.9157 H   0  0  0  0  0  0  0  0  0  0  0  0  # atno 10718 bound_to 10713
  154.0217  135.2905  155.3380 H   0  0  0  0  0  0  0  0  0  0  0  0  # atno 10763 bound_to 10752
  154.7042  135.5176  153.8574 H   0  0  0  0  0  0  0  0  0  0  0  0  # atno 10764 bound_to 10752
  153.0678  135.6637  154.0438 H   0  0  0  0  0  0  0  0  0  0  0  0  # atno 10765 bound_to 10752
  140.2095  134.8278  157.3105 H   0  0  0  0  0  0  0  0  0  0  0  0  # atno 11005 bound_to 11000
  145.7248  141.0063  143.1383 LP  0  0  0  0  0  0  0  0  0  0  0  0  # atno 17320 bound_to 7965
  144.6976  139.8914  143.7453 LP  0  0  0  0  0  0  0  0  0  0  0  0  # atno 17321 bound_to 7965
  140.1088  143.4718  152.2382 LP  0  0  0  0  0  0  0  0  0  0  0  0  # atno 17342 bound_to 10162
  139.5781  144.7497  151.3711 LP  0  0  0  0  0  0  0  0  0  0  0  0  # atno 17343 bound_to 10162
  157.6203  131.0930  150.8635 LP  0  0  0  0  0  0  0  0  0  0  0  0  # atno 17370 bound_to 10713
  156.8759  130.5162  149.5294 LP  0  0  0  0  0  0  0  0  0  0  0  0  # atno 17371 bound_to 10713
  140.1966  134.4306  155.7685 LP  0  0  0  0  0  0  0  0  0  0  0  0  # atno 17394 bound_to 11000
  141.2226  133.7052  156.8115 LP  0  0  0  0  0  0  0  0  0  0  0  0  # atno 17395 bound_to 11000

$$$$
