AV-unprocessed.smi:1732|AV-procd|sdf|6977|dock6
  -GOLD-   22720 8193D 1   1.00000     0.00000
 Structure written by MMmdl.
 35 36  0  0  0  0  0  0  0  0  2 V2000
  151.8929  137.1325  159.8131 O   0  0  0  0  0  0  0  0  0  0  0  0
  151.1266  137.6881  159.0268 C   0  0  0  0  0  0  0  0  0  0  0  0
  151.6202  138.8923  158.2296 C   0  0  0  0  0  0  0  0  0  0  0  0
  152.7575  139.4304  158.8868 O   0  0  0  0  0  0  0  0  0  0  0  0
  152.5234  140.6945  159.4896 C   0  0  0  0  0  0  0  0  0  0  0  0
  152.2244  141.7471  158.4232 C   0  0  0  0  0  0  0  0  0  0  0  0
  152.5533  143.0877  159.0893 C   0  0  0  0  0  0  0  0  0  0  0  0
  153.5443  142.7740  160.2217 C   0  0  0  0  0  0  0  0  0  0  0  0
  153.7581  141.2562  160.1998 C   0  0  0  0  0  0  0  0  0  0  0  0
  149.8574  137.3128  158.7742 N   0  0  0  0  0  0  0  0  0  0  0  0
  149.1046  136.2747  159.3486 C   0  0  0  0  0  0  0  0  0  0  0  0
  148.8495  136.1482  160.6804 C   0  0  0  0  0  0  0  0  0  0  0  0
  148.0464  135.0584  161.2207 C   0  0  0  0  0  0  0  0  0  0  0  0
  147.8161  134.8323  162.7044 C   0  0  0  0  0  0  0  0  0  0  0  0
  148.3739  135.8039  163.4271 F   0  0  0  0  0  0  0  0  0  0  0  0
  146.5140  134.7917  162.9876 F   0  0  0  0  0  0  0  0  0  0  0  0
  148.3597  133.6744  163.0768 F   0  0  0  0  0  0  0  0  0  0  0  0
  147.6025  134.1964  160.2368 C   0  0  0  0  0  0  0  0  0  0  0  0
  147.7865  134.2642  158.8999 N   0  5  0  0  0  0  0  0  0  0  0  0
  148.5355  135.2899  158.4051 C   0  0  0  0  0  0  0  0  0  0  0  0
  148.7453  135.4105  157.1975 O   0  0  0  0  0  0  0  0  0  0  0  0
  151.8781  138.5833  157.2152 H   0  0  0  0  0  0  0  0  0  0  0  0
  150.8205  139.6308  158.1574 H   0  0  0  0  0  0  0  0  0  0  0  0
  151.6804  140.6449  160.1817 H   0  0  0  0  0  0  0  0  0  0  0  0
  152.8829  141.5990  157.5659 H   0  0  0  0  0  0  0  0  0  0  0  0
  151.1967  141.6977  158.0621 H   0  0  0  0  0  0  0  0  0  0  0  0
  152.9645  143.7981  158.3713 H   0  0  0  0  0  0  0  0  0  0  0  0
  151.6479  143.5317  159.5049 H   0  0  0  0  0  0  0  0  0  0  0  0
  154.4866  143.3084  160.0981 H   0  0  0  0  0  0  0  0  0  0  0  0
  153.1194  143.0803  161.1782 H   0  0  0  0  0  0  0  0  0  0  0  0
  153.8976  140.8406  161.1980 H   0  0  0  0  0  0  0  0  0  0  0  0
  154.6514  141.0249  159.6175 H   0  0  0  0  0  0  0  0  0  0  0  0
  149.3791  137.8182  158.0423 H   0  0  0  0  0  0  0  0  0  0  0  0
  149.2210  136.8750  161.3839 H   0  0  0  0  0  0  0  0  0  0  0  0
  147.0117  133.3188  160.5763 H   0  0  0  0  0  0  0  0  0  0  0  0
  1  2  2  0  0  0  0
  2  3  1  0  0  0  0
  2 10  1  0  0  0  0
  3  4  1  0  0  0  0
  3 22  1  0  0  0  0
  3 23  1  0  0  0  0
  4  5  1  0  0  0  0
  5  9  1  0  0  0  0
  5  6  1  0  0  0  0
  5 24  1  0  0  0  0
  6  7  1  0  0  0  0
  6 25  1  0  0  0  0
  6 26  1  0  0  0  0
  7  8  1  0  0  0  0
  7 27  1  0  0  0  0
  7 28  1  0  0  0  0
  8  9  1  0  0  0  0
  8 29  1  0  0  0  0
  8 30  1  0  0  0  0
  9 31  1  0  0  0  0
  9 32  1  0  0  0  0
 10 11  1  0  0  0  0
 10 33  1  0  0  0  0
 11 20  1  0  0  0  0
 11 12  2  0  0  0  0
 12 13  1  0  0  0  0
 12 34  1  0  0  0  0
 13 14  1  0  0  0  0
 13 18  2  0  0  0  0
 14 15  1  0  0  0  0
 14 16  1  0  0  0  0
 14 17  1  0  0  0  0
 18 19  1  0  0  0  0
 18 35  1  0  0  0  0
 19 20  1  0  0  0  0
 20 21  2  0  0  0  0
M  CHG  1  19  -1
M  END
> <s_m_source_file>
AV-unprocessed.smi

> <i_m_source_file_index>
1732

> <i_lp_mmshare_version>
43012

> <i_f3d_flags>
0

> <s_epik_input>
W0NIMl0xW0NIMl1bQ0gyXVtDSDJdW0NIXTFPW0NIMl1DKD1PKVtOSF1jMltjSF1jKEMoRikoRilGKVtjSF1bbkhdYzI9Tw==

> <s_epik_cmdline>
J2VwaWtfcHl0aG9uJywgJy1waCcsICc3LjAnLCAnLXRuJywgJzgnLCAnLW1hJywgJzIwMCcsICctbWV0YWxfYmluZGluZycsICctaW1hZScsICc8aW5maWxlLm1hZT4nLCAnLW9tYWUnLCAnPG91dGZpbGUubWFlPic=

> <r_epik_Ionization_Penalty>
2.40879

> <r_epik_Ionization_Penalty_Charging>
0.039975

> <r_epik_Ionization_Penalty_Neutral>
2.36882

> <r_epik_State_Penalty>
2.52443

> <r_epik_Charging_Adjusted_Penalty>
2.5644

> <i_epik_Tot_Q>
-1

> <i_epik_Tot_abs_Q>
1

> <r_epik_Metal_State_Penalty>
0.506326

> <b_epik_Metal_Only>
0

> <s_lp_Force_Field>
OPLS_2005

> <r_lp_Energy>
39.1091

> <b_lp_Chiralities_Consistent>
1

> <s_lp_Variant>
AV-unprocessed.smi:1732-2

> <Gold.Version>
5.8.1

> <Gold.Id.Protein>
6NUR|6NUR_protein|mol2

> <Gold.PLP.Fitness>
41.6340

> <Gold.PLP.PLP>
-40.9512

> <Gold.PLP.part.hbond>
-1.0000

> <Gold.PLP.part.metal>
0.0000

> <Gold.PLP.part.buried>
-5.7938

> <Gold.PLP.part.nonpolar>
-34.3142

> <Gold.PLP.part.repulsive>
0.1502

> <Gold.PLP.ligand.clash>
0.0000

> <Gold.PLP.ligand.torsion>
1.1801

> <Gold.PLP.Chemscore.Hbond>
0.9913

> <Gold.PLP.Chemscore.CHOScore>
0.0000

> <Gold.PLP.Chemscore.Metal>
0.0000

> <Gold.Chemscore.Hbonds>
donor molecule, donor type, donor heavy atom, donor atom, acceptor molecule, acceptor atom, score
      P1  H  6896  6908       L1     1  0.96

> <Gold.PLP.Chemscore.Internal.Correction>
0.0693

> <Gold.Rescore>
     Score         DG    S(hbond)    S(metal)    S(lipo)     H(rot)  DE(clash)    DE(int)     intcor
     12.96     -13.91       0.97        0.00      79.00       1.58       0.00       0.95       ----

> <Gold.Chemscore.Fitness>
12.9607

> <Gold.Chemscore.DG>
-13.9146

> <Gold.Chemscore.ZeroCoef>
-5.4800

> <Gold.Chemscore.Hbond>
0.9675

> <Gold.Chemscore.Metal>
0.0000

> <Gold.Chemscore.Lipo>
78.9994

> <Gold.Chemscore.Internal_Hbond>
0.0000

> <Gold.Chemscore.DEClash>
0.0000

> <Gold.Chemscore.DEInternal>
0.9539

> <Gold.Chemscore.Rot>
1.5781

> <Gold.Chemscore.Internal.Correction>
   9.000000E+99

> <Gold.Chemscore.Hbonds>
donor molecule, donor type, donor heavy atom, donor atom, acceptor molecule, acceptor atom, score
      P1  H  6896  6908       L1     1  0.58

> <Gold.Chemscore.Hbond.Weighted>
-3.2316

> <Gold.Chemscore.Metal.Weighted>
-0.0000

> <Gold.Chemscore.Lipo.Weighted>
-9.2429

> <Gold.Chemscore.Internal_Hbond.Weighted>
0.0000

> <Gold.Chemscore.DEClash.Weighted>
0.0000

> <Gold.Chemscore.DEInternal.Weighted>
0.9539

> <Gold.Chemscore.Rot.Weighted>
4.0399

> <Gold.Chemscore.Internal.Correction.Weighted>
   9.000000E+99

> <Gold.Protein.RotatedTorsions>
[ 6907 6896 6895 6894 ] final -133.77 input  -60.11 | X-H torsion
[ 7974 7965 7964 7962 ] final    0.49 input  175.53 | X-H torsion
[ 8008 7997 7996 7995 ] final  -97.58 input   59.86 | X-H torsion
[ 10167 10162 10161 10158 ] final   42.38 input  -65.29 | X-H torsion
[ 10718 10713 10712 10709 ] final   27.48 input   66.30 | X-H torsion
[ 10763 10752 10751 10750 ] final  -72.04 input  -60.55 | X-H torsion
[ 11005 11000 10999 10996 ] final   50.11 input  -57.11 | X-H torsion

> <Gold.Protein.ActiveResidues>
 VAL166  LYS551  ARG553  GLY616  TRP617  ASP618  TYR619  PRO620  LYS621  CYS622 
 ASP623  PHE694  ASN695  SER759  ASP760  ASP761  ALA762  ILE779  LEU786  VAL792 
 PHE793  MET794  SER795  GLU796  ALA797  LYS798  CYS799  TRP800  GLU811  SER814 

> <Gold.Protein.RotatedAtoms>
  150.9779  133.6275  159.2727 H   0  0  0  0  0  0  0  0  0  0  0  0  # atno 6907 bound_to 6896
  151.3541  135.0889  159.9422 H   0  0  0  0  0  0  0  0  0  0  0  0  # atno 6908 bound_to 6896
  152.5206  133.9366  159.7661 H   0  0  0  0  0  0  0  0  0  0  0  0  # atno 6909 bound_to 6896
  146.2434  140.1130  142.8343 H   0  0  0  0  0  0  0  0  0  0  0  0  # atno 7974 bound_to 7965
  154.7897  140.0462  157.1191 H   0  0  0  0  0  0  0  0  0  0  0  0  # atno 8008 bound_to 7997
  154.9606  140.3077  155.5013 H   0  0  0  0  0  0  0  0  0  0  0  0  # atno 8009 bound_to 7997
  156.2948  140.2271  156.4691 H   0  0  0  0  0  0  0  0  0  0  0  0  # atno 8010 bound_to 7997
  140.3550  144.2302  150.6142 H   0  0  0  0  0  0  0  0  0  0  0  0  # atno 10167 bound_to 10162
  157.2207  130.6977  149.6269 H   0  0  0  0  0  0  0  0  0  0  0  0  # atno 10718 bound_to 10713
  154.4401  135.5943  153.6124 H   0  0  0  0  0  0  0  0  0  0  0  0  # atno 10763 bound_to 10752
  152.9805  135.5996  154.3732 H   0  0  0  0  0  0  0  0  0  0  0  0  # atno 10764 bound_to 10752
  154.3581  135.2841  155.2314 H   0  0  0  0  0  0  0  0  0  0  0  0  # atno 10765 bound_to 10752
  140.1046  134.5036  155.8732 H   0  0  0  0  0  0  0  0  0  0  0  0  # atno 11005 bound_to 11000
  145.0471  140.8990  143.5017 LP  0  0  0  0  0  0  0  0  0  0  0  0  # atno 17320 bound_to 7965
  145.1221  139.2687  143.5583 LP  0  0  0  0  0  0  0  0  0  0  0  0  # atno 17321 bound_to 7965
  140.5182  143.2272  151.8429 LP  0  0  0  0  0  0  0  0  0  0  0  0  # atno 17342 bound_to 10162
  139.4821  144.4868  151.9236 LP  0  0  0  0  0  0  0  0  0  0  0  0  # atno 17343 bound_to 10162
  155.9682  130.4521  150.5760 LP  0  0  0  0  0  0  0  0  0  0  0  0  # atno 17370 bound_to 10713
  157.3579  131.0745  151.1660 LP  0  0  0  0  0  0  0  0  0  0  0  0  # atno 17371 bound_to 10713
  141.2114  133.6707  156.6585 LP  0  0  0  0  0  0  0  0  0  0  0  0  # atno 17394 bound_to 11000
  140.3174  134.8036  157.4225 LP  0  0  0  0  0  0  0  0  0  0  0  0  # atno 17395 bound_to 11000

$$$$
