AV-unprocessed.smi:72|AV-procd|sdf|664|dock8
  -GOLD-   2262016563D 1   1.00000     0.00000
 Structure written by MMmdl.
 29 30  0  0  0  0  0  0  0  0  1 V2000
  152.0539  137.0093  159.2610 N   0  0  0  0  0  0  0  0  0  0  0  0
  151.5466  137.6185  158.2495 C   0  0  0  0  0  0  0  0  0  0  0  0
  150.1777  137.8490  158.0455 N   0  0  0  0  0  0  0  0  0  0  0  0
  149.8050  138.4800  156.9749 C   0  0  0  0  0  0  0  0  0  0  0  0
  150.7591  138.9517  155.9810 N   0  0  0  0  0  0  0  0  0  0  0  0
  150.3245  139.6920  154.7297 C   0  0  1  0  0  0  0  0  0  0  0  0
  149.2492  139.0210  154.1333 O   0  0  0  0  0  0  0  0  0  0  0  0
  148.0783  139.8251  154.2147 C   0  0  2  0  0  0  0  0  0  0  0  0
  147.0554  139.4103  153.1418 C   0  0  0  0  0  0  0  0  0  0  0  0
  147.6712  138.8005  152.0262 O   0  0  0  0  0  0  0  0  0  0  0  0
  148.6138  141.2561  154.1573 C   0  0  1  0  0  0  0  0  0  0  0  0
  147.6883  142.2170  154.6302 O   0  0  0  0  0  0  0  0  0  0  0  0
  149.8787  141.1515  155.0049 C   0  0  1  0  0  0  0  0  0  0  0  0
  149.6309  141.4196  156.3774 O   0  0  0  0  0  0  0  0  0  0  0  0
  152.1442  138.7351  156.1775 C   0  0  0  0  0  0  0  0  0  0  0  0
  152.9929  139.1326  155.3796 O   0  0  0  0  0  0  0  0  0  0  0  0
  152.4777  138.0695  157.3043 N   0  0  0  0  0  0  0  0  0  0  0  0
  151.1666  139.6264  154.0386 H   0  0  0  0  0  0  0  0  0  0  0  0
  147.6372  139.6491  155.1974 H   0  0  0  0  0  0  0  0  0  0  0  0
  148.9008  141.5147  153.1377 H   0  0  0  0  0  0  0  0  0  0  0  0
  150.6492  141.8401  154.6569 H   0  0  0  0  0  0  0  0  0  0  0  0
  153.0595  136.9684  159.1831 H   0  0  0  0  0  0  0  0  0  0  0  0
  148.7587  138.6948  156.7590 H   0  0  0  0  0  0  0  0  0  0  0  0
  146.3107  138.7352  153.5640 H   0  0  0  0  0  0  0  0  0  0  0  0
  146.5205  140.2911  152.7857 H   0  0  0  0  0  0  0  0  0  0  0  0
  148.2500  139.4285  151.6213 H   0  0  0  0  0  0  0  0  0  0  0  0
  148.1552  143.0181  154.8118 H   0  0  0  0  0  0  0  0  0  0  0  0
  150.1621  140.8360  156.8969 H   0  0  0  0  0  0  0  0  0  0  0  0
  153.4584  137.8974  157.4696 H   0  0  0  0  0  0  0  0  0  0  0  0
  1  2  2  0  0  0  0
  1 22  1  0  0  0  0
  2 17  1  0  0  0  0
  2  3  1  0  0  0  0
  3  4  2  0  0  0  0
  4  5  1  0  0  0  0
  4 23  1  0  0  0  0
  5  6  1  0  0  0  0
  5 15  1  0  0  0  0
  6 18  1  0  0  0  0
  6 13  1  0  0  0  0
  6  7  1  0  0  0  0
  7  8  1  0  0  0  0
  8 19  1  0  0  0  0
  8  9  1  0  0  0  0
  8 11  1  0  0  0  0
  9 10  1  0  0  0  0
  9 24  1  0  0  0  0
  9 25  1  0  0  0  0
 10 26  1  0  0  0  0
 11 20  1  0  0  0  0
 11 12  1  0  0  0  0
 11 13  1  0  0  0  0
 12 27  1  0  0  0  0
 13 21  1  0  0  0  0
 13 14  1  0  0  0  0
 14 28  1  0  0  0  0
 15 16  2  0  0  0  0
 15 17  1  0  0  0  0
 17 29  1  0  0  0  0
M  END
> <s_m_source_file>
AV-unprocessed.smi

> <i_m_source_file_index>
72

> <i_lp_mmshare_version>
43012

> <i_f3d_flags>
0

> <s_epik_input>
W05IMl1jMW5bY0hdbihjKD1PKW4xKVtDQEBIXTJPW0NASF0oW0NIMl1bT0hdKVtDQEBIXShbT0hdKVtDQEhdMltPSF0=

> <s_epik_cmdline>
J2VwaWtfcHl0aG9uJywgJy1waCcsICc3LjAnLCAnLXRuJywgJzgnLCAnLW1hJywgJzIwMCcsICctbWV0YWxfYmluZGluZycsICctaW1hZScsICc8aW5maWxlLm1hZT4nLCAnLW9tYWUnLCAnPG91dGZpbGUubWFlPic=

> <r_lp_tautomer_probability>
7.17554e-07

> <r_epik_Ionization_Penalty>
0.0066451

> <r_epik_Ionization_Penalty_Charging>
0.00663793

> <r_epik_Ionization_Penalty_Neutral>
7.17052e-06

> <r_epik_State_Penalty>
0.419231

> <r_epik_Charging_Adjusted_Penalty>
0.425868

> <i_epik_Tot_Q>
0

> <i_epik_Tot_abs_Q>
0

> <r_epik_Metal_State_Penalty>
1.44144

> <b_epik_Metal_Only>
0

> <s_epik_Chemistry_Notes>
This compound contains an acetal/aminal-like group ( X-CH(R)-Y where X, Y are N, S, or O) that may be acid/base labile, releasing an aldehyde.

> <s_lp_Force_Field>
OPLS_2005

> <r_lp_Energy>
49.4302

> <b_lp_Chiralities_Consistent>
1

> <s_lp_Variant>
AV-unprocessed.smi:72-2

> <Gold.Version>
5.8.1

> <Gold.Id.Protein>
6NUR|6NUR_protein|mol2

> <Gold.PLP.Fitness>
34.4005

> <Gold.PLP.PLP>
-23.9327

> <Gold.PLP.part.hbond>
-4.9690

> <Gold.PLP.part.metal>
0.0000

> <Gold.PLP.part.buried>
-2.9707

> <Gold.PLP.part.nonpolar>
-15.5236

> <Gold.PLP.part.repulsive>
0.3011

> <Gold.PLP.ligand.clash>
0.0000

> <Gold.PLP.ligand.torsion>
0.7903

> <Gold.PLP.Chemscore.Hbond>
4.0000

> <Gold.PLP.Chemscore.CHOScore>
0.0000

> <Gold.PLP.Chemscore.Metal>
0.0000

> <Gold.Chemscore.Hbonds>
donor molecule, donor type, donor heavy atom, donor atom, acceptor molecule, acceptor atom, score
      L1  H    10    26       P1  7957  0.99
      L1  H    12    27       P1  8028  1.00
      P1  H  6896  6907       L1     1  1.00
      P1  H  7997  8010       L1    16  1.00

> <Gold.PLP.Chemscore.Internal.Correction>
0.0484

> <Gold.Rescore>
     Score         DG    S(hbond)    S(metal)    S(lipo)     H(rot)  DE(clash)    DE(int)     intcor
      9.04     -10.78       3.84        0.00      24.59       4.06       0.00       1.73       ----

> <Gold.Chemscore.Fitness>
9.0402

> <Gold.Chemscore.DG>
-10.7750

> <Gold.Chemscore.ZeroCoef>
-5.4800

> <Gold.Chemscore.Hbond>
3.8357

> <Gold.Chemscore.Metal>
0.0000

> <Gold.Chemscore.Lipo>
24.5944

> <Gold.Chemscore.Internal_Hbond>
0.0000

> <Gold.Chemscore.DEClash>
0.0004

> <Gold.Chemscore.DEInternal>
1.7344

> <Gold.Chemscore.Rot>
4.0600

> <Gold.Chemscore.Internal.Correction>
   9.000000E+99

> <Gold.Chemscore.Hbonds>
donor molecule, donor type, donor heavy atom, donor atom, acceptor molecule, acceptor atom, score
      L1  H    10    26       P1  7957  0.91
      L1  H    12    27       P1  8028  0.93
      P1  H  6896  6907       L1     1  0.27
      P1  H  7997  8010       L1    16  0.98

> <Gold.Chemscore.Hbond.Weighted>
-12.8111

> <Gold.Chemscore.Metal.Weighted>
-0.0000

> <Gold.Chemscore.Lipo.Weighted>
-2.8775

> <Gold.Chemscore.Internal_Hbond.Weighted>
0.0000

> <Gold.Chemscore.DEClash.Weighted>
0.0004

> <Gold.Chemscore.DEInternal.Weighted>
1.7344

> <Gold.Chemscore.Rot.Weighted>
10.3936

> <Gold.Chemscore.Internal.Correction.Weighted>
   9.000000E+99

> <Gold.Protein.RotatedTorsions>
[ 6907 6896 6895 6894 ] final    4.20 input  -60.11 | X-H torsion
[ 7974 7965 7964 7962 ] final  178.05 input  175.53 | X-H torsion
[ 8008 7997 7996 7995 ] final  101.32 input   59.86 | X-H torsion
[ 10167 10162 10161 10158 ] final  -15.43 input  -65.29 | X-H torsion
[ 10718 10713 10712 10709 ] final   49.29 input   66.30 | X-H torsion
[ 10763 10752 10751 10750 ] final   78.31 input  -60.55 | X-H torsion
[ 11005 11000 10999 10996 ] final  -74.44 input  -57.11 | X-H torsion

> <Gold.Protein.ActiveResidues>
 VAL166  LYS551  ARG553  GLY616  TRP617  ASP618  TYR619  PRO620  LYS621  CYS622 
 ASP623  PHE694  ASN695  SER759  ASP760  ASP761  ALA762  ILE779  LEU786  VAL792 
 PHE793  MET794  SER795  GLU796  ALA797  LYS798  CYS799  TRP800  GLU811  SER814 

> <Gold.Protein.RotatedAtoms>
  151.6375  135.1016  160.0134 H   0  0  0  0  0  0  0  0  0  0  0  0  # atno 6907 bound_to 6896
  152.4073  133.6904  159.6375 H   0  0  0  0  0  0  0  0  0  0  0  0  # atno 6908 bound_to 6896
  150.7966  133.8604  159.3271 H   0  0  0  0  0  0  0  0  0  0  0  0  # atno 6909 bound_to 6896
  144.7161  140.0339  143.6438 H   0  0  0  0  0  0  0  0  0  0  0  0  # atno 7974 bound_to 7965
  156.1288  140.3199  155.8317 H   0  0  0  0  0  0  0  0  0  0  0  0  # atno 8008 bound_to 7997
  155.4371  140.0523  157.3031 H   0  0  0  0  0  0  0  0  0  0  0  0  # atno 8009 bound_to 7997
  154.4883  140.2082  155.9619 H   0  0  0  0  0  0  0  0  0  0  0  0  # atno 8010 bound_to 7997
  140.7218  143.5219  150.9623 H   0  0  0  0  0  0  0  0  0  0  0  0  # atno 10167 bound_to 10162
  157.4771  130.8292  149.8052 H   0  0  0  0  0  0  0  0  0  0  0  0  # atno 10718 bound_to 10713
  153.0865  135.4882  154.8606 H   0  0  0  0  0  0  0  0  0  0  0  0  # atno 10763 bound_to 10752
  154.7216  135.3040  154.9040 H   0  0  0  0  0  0  0  0  0  0  0  0  # atno 10764 bound_to 10752
  153.9702  135.6802  153.4800 H   0  0  0  0  0  0  0  0  0  0  0  0  # atno 10765 bound_to 10752
  141.1635  133.6911  156.7364 H   0  0  0  0  0  0  0  0  0  0  0  0  # atno 11005 bound_to 11000
  146.0080  139.3146  143.0887 LP  0  0  0  0  0  0  0  0  0  0  0  0  # atno 17320 bound_to 7965
  145.8715  140.9417  143.0648 LP  0  0  0  0  0  0  0  0  0  0  0  0  # atno 17321 bound_to 7965
  139.8937  143.6922  152.3141 LP  0  0  0  0  0  0  0  0  0  0  0  0  # atno 17342 bound_to 10162
  139.7246  144.7595  151.0899 LP  0  0  0  0  0  0  0  0  0  0  0  0  # atno 17343 bound_to 10162
  156.0102  130.3836  150.2289 LP  0  0  0  0  0  0  0  0  0  0  0  0  # atno 17370 bound_to 10713
  157.0474  131.0053  151.3264 LP  0  0  0  0  0  0  0  0  0  0  0  0  # atno 17371 bound_to 10713
  140.2707  134.8394  157.3844 LP  0  0  0  0  0  0  0  0  0  0  0  0  # atno 17394 bound_to 11000
  140.1524  134.4832  155.7952 LP  0  0  0  0  0  0  0  0  0  0  0  0  # atno 17395 bound_to 11000

$$$$
