AV-unprocessed.smi:645|AV-procd|sdf|3162|dock2
  -GOLD-   22720 0 83D 1   1.00000     0.00000
 Structure written by MMmdl.
 22 23  0  0  0  0  0  0  0  0  2 V2000
  151.6389  139.3741  158.4805 C   0  0  0  0  0  0  0  0  0  0  0  0
  151.2292  138.6429  157.1847 C   0  0  2  0  0  0  0  0  0  0  0  0
  150.6407  139.6030  156.1360 C   0  0  0  0  0  0  0  0  0  0  0  0
  150.5095  140.9930  156.3767 C   0  0  0  0  0  0  0  0  0  0  0  0
  149.9671  141.8132  155.3677 C   0  0  0  0  0  0  0  0  0  0  0  0
  149.5619  141.3476  154.1680 N   0  0  0  0  0  0  0  0  0  0  0  0
  149.6862  140.0246  153.9359 C   0  0  0  0  0  0  0  0  0  0  0  0
  150.2166  139.1196  154.8759 C   0  0  0  0  0  0  0  0  0  0  0  0
  150.3451  137.5433  157.5209 N   0  0  0  0  0  0  0  0  0  0  0  0
  150.8631  136.3690  157.1661 C   0  0  0  0  0  0  0  0  0  0  0  0
  150.2581  135.3148  157.3470 O   0  0  0  0  0  0  0  0  0  0  0  0
  152.0802  136.5457  156.6178 N   0  5  0  0  0  0  0  0  0  0  0  0
  152.4088  137.8560  156.5915 C   0  0  0  0  0  0  0  0  0  0  0  0
  153.4411  138.4014  156.2014 O   0  0  0  0  0  0  0  0  0  0  0  0
  152.3942  140.1386  158.2969 H   0  0  0  0  0  0  0  0  0  0  0  0
  152.0539  138.6831  159.2158 H   0  0  0  0  0  0  0  0  0  0  0  0
  150.7802  139.8637  158.9403 H   0  0  0  0  0  0  0  0  0  0  0  0
  150.8100  141.4403  157.3121 H   0  0  0  0  0  0  0  0  0  0  0  0
  149.8561  142.8752  155.5300 H   0  0  0  0  0  0  0  0  0  0  0  0
  149.3522  139.6745  152.9703 H   0  0  0  0  0  0  0  0  0  0  0  0
  150.2849  138.0701  154.6312 H   0  0  0  0  0  0  0  0  0  0  0  0
  149.4393  137.6691  157.9476 H   0  0  0  0  0  0  0  0  0  0  0  0
  1  2  1  0  0  0  0
  1 15  1  0  0  0  0
  1 16  1  0  0  0  0
  1 17  1  0  0  0  0
  2 13  1  0  0  0  0
  2  3  1  0  0  0  0
  2  9  1  0  0  0  0
  3  8  1  0  0  0  0
  3  4  2  0  0  0  0
  4  5  1  0  0  0  0
  4 18  1  0  0  0  0
  5  6  2  0  0  0  0
  5 19  1  0  0  0  0
  6  7  1  0  0  0  0
  7  8  2  0  0  0  0
  7 20  1  0  0  0  0
  8 21  1  0  0  0  0
  9 10  1  0  0  0  0
  9 22  1  0  0  0  0
 10 11  2  0  0  0  0
 10 12  1  0  0  0  0
 12 13  1  0  0  0  0
 13 14  2  0  0  0  0
M  CHG  1  12  -1
M  END
> <s_m_source_file>
AV-unprocessed.smi

> <i_m_source_file_index>
645

> <i_lp_mmshare_version>
43012

> <i_f3d_flags>
0

> <s_epik_input>
Tz1DMVtOSF1DKD1PKVtOSF1bQ0BAXTEoW0NIM10pYzJbY0hdW2NIXW5bY0hdW2NIXTI=

> <s_epik_cmdline>
J2VwaWtfcHl0aG9uJywgJy1waCcsICc3LjAnLCAnLXRuJywgJzgnLCAnLW1hJywgJzIwMCcsICctbWV0YWxfYmluZGluZycsICctaW1hZScsICc8aW5maWxlLm1hZT4nLCAnLW9tYWUnLCAnPG91dGZpbGUubWFlPic=

> <r_epik_Ionization_Penalty>
1.83307

> <r_epik_Ionization_Penalty_Charging>
1.82122

> <r_epik_Ionization_Penalty_Neutral>
0.0118514

> <r_epik_State_Penalty>
1.93645

> <r_epik_Charging_Adjusted_Penalty>
3.75767

> <i_epik_Tot_Q>
-1

> <i_epik_Tot_abs_Q>
1

> <r_epik_Metal_State_Penalty>
0.53507

> <b_epik_Metal_Only>
0

> <s_lp_Force_Field>
OPLS_2005

> <r_lp_Energy>
9.09868

> <b_lp_Chiralities_Consistent>
1

> <s_lp_Variant>
AV-unprocessed.smi:645-4

> <Gold.Version>
5.8.1

> <Gold.Id.Protein>
6NUR|6NUR_protein|mol2

> <Gold.PLP.Fitness>
33.9159

> <Gold.PLP.PLP>
-17.7086

> <Gold.PLP.part.hbond>
-5.0000

> <Gold.PLP.part.metal>
0.0000

> <Gold.PLP.part.buried>
1.7024

> <Gold.PLP.part.nonpolar>
-14.0964

> <Gold.PLP.part.repulsive>
0.2144

> <Gold.PLP.ligand.clash>
0.0000

> <Gold.PLP.ligand.torsion>
0.0418

> <Gold.PLP.Chemscore.Hbond>
3.4532

> <Gold.PLP.Chemscore.CHOScore>
1.9497

> <Gold.PLP.Chemscore.Metal>
0.0000

> <Gold.Chemscore.Hbonds>
donor molecule, donor type, donor heavy atom, donor atom, acceptor molecule, acceptor atom, score
      P1  H  6896  6907       L1    11  0.17
      P1  H  7997  8009       L1    14  0.78
      P1  H  8011  8017       L1     6  0.51
      P1  H 10752 10763       L1    12  1.20
      L1  C     5    19       P1  8028  1.00
      L1  C     7    20       P1  7957  0.58

> <Gold.PLP.Chemscore.Internal.Correction>
0.0820

> <Gold.Rescore>
     Score         DG    S(hbond)    S(metal)    S(lipo)     H(rot)  DE(clash)    DE(int)     intcor
     14.49     -15.10       2.13        0.00      43.26       1.00       0.49       0.12       ----

> <Gold.Chemscore.Fitness>
14.4919

> <Gold.Chemscore.DG>
-15.0990

> <Gold.Chemscore.ZeroCoef>
-5.4800

> <Gold.Chemscore.Hbond>
2.1312

> <Gold.Chemscore.Metal>
0.0000

> <Gold.Chemscore.Lipo>
43.2555

> <Gold.Chemscore.Internal_Hbond>
0.0000

> <Gold.Chemscore.DEClash>
0.4911

> <Gold.Chemscore.DEInternal>
0.1160

> <Gold.Chemscore.Rot>
1.0000

> <Gold.Chemscore.Internal.Correction>
   9.000000E+99

> <Gold.Chemscore.Hbonds>
donor molecule, donor type, donor heavy atom, donor atom, acceptor molecule, acceptor atom, score
      P1  H  6896  6907       L1    11  0.13
      P1  H  7997  8009       L1    14  0.77
      P1  H  8011  8017       L1     6  0.39
      P1  H 10752 10763       L1    12  0.45

> <Gold.Chemscore.Hbond.Weighted>
-7.1181

> <Gold.Chemscore.Metal.Weighted>
-0.0000

> <Gold.Chemscore.Lipo.Weighted>
-5.0609

> <Gold.Chemscore.Internal_Hbond.Weighted>
0.0000

> <Gold.Chemscore.DEClash.Weighted>
0.4911

> <Gold.Chemscore.DEInternal.Weighted>
0.1160

> <Gold.Chemscore.Rot.Weighted>
2.5600

> <Gold.Chemscore.Internal.Correction.Weighted>
   9.000000E+99

> <Gold.Protein.RotatedTorsions>
[ 6907 6896 6895 6894 ] final  -75.81 input  -60.11 | X-H torsion
[ 7974 7965 7964 7962 ] final  106.20 input  175.53 | X-H torsion
[ 8008 7997 7996 7995 ] final -155.73 input   59.86 | X-H torsion
[ 10167 10162 10161 10158 ] final   53.82 input  -65.29 | X-H torsion
[ 10718 10713 10712 10709 ] final -133.16 input   66.30 | X-H torsion
[ 10763 10752 10751 10750 ] final  107.50 input  -60.55 | X-H torsion
[ 11005 11000 10999 10996 ] final  170.19 input  -57.11 | X-H torsion

> <Gold.Protein.ActiveResidues>
 VAL166  LYS551  ARG553  GLY616  TRP617  ASP618  TYR619  PRO620  LYS621  CYS622 
 ASP623  PHE694  ASN695  SER759  ASP760  ASP761  ALA762  ILE779  LEU786  VAL792 
 PHE793  MET794  SER795  GLU796  ALA797  LYS798  CYS799  TRP800  GLU811  SER814 

> <Gold.Protein.RotatedAtoms>
  150.7047  134.4665  159.5404 H   0  0  0  0  0  0  0  0  0  0  0  0  # atno 6907 bound_to 6896
  152.2329  134.8301  160.0480 H   0  0  0  0  0  0  0  0  0  0  0  0  # atno 6908 bound_to 6896
  151.9110  133.3526  159.3900 H   0  0  0  0  0  0  0  0  0  0  0  0  # atno 6909 bound_to 6896
  145.3097  139.2544  143.3769 H   0  0  0  0  0  0  0  0  0  0  0  0  # atno 7974 bound_to 7965
  155.7063  140.0773  157.2389 H   0  0  0  0  0  0  0  0  0  0  0  0  # atno 8008 bound_to 7997
  154.4065  140.1638  156.2300 H   0  0  0  0  0  0  0  0  0  0  0  0  # atno 8009 bound_to 7997
  155.9323  140.3390  155.6262 H   0  0  0  0  0  0  0  0  0  0  0  0  # atno 8010 bound_to 7997
  140.2367  144.3628  150.6395 H   0  0  0  0  0  0  0  0  0  0  0  0  # atno 10167 bound_to 10162
  156.2421  130.7102  151.0967 H   0  0  0  0  0  0  0  0  0  0  0  0  # atno 10718 bound_to 10713
  153.4076  135.3842  155.2029 H   0  0  0  0  0  0  0  0  0  0  0  0  # atno 10763 bound_to 10752
  154.8735  135.3786  154.4541 H   0  0  0  0  0  0  0  0  0  0  0  0  # atno 10764 bound_to 10752
  153.5045  135.7088  153.5876 H   0  0  0  0  0  0  0  0  0  0  0  0  # atno 10765 bound_to 10752
  140.3057  134.7558  157.3952 H   0  0  0  0  0  0  0  0  0  0  0  0  # atno 11005 bound_to 11000
  146.3122  140.3630  142.8666 LP  0  0  0  0  0  0  0  0  0  0  0  0  # atno 17320 bound_to 7965
  144.9026  140.7661  143.5857 LP  0  0  0  0  0  0  0  0  0  0  0  0  # atno 17321 bound_to 7965
  140.6145  143.2171  151.6820 LP  0  0  0  0  0  0  0  0  0  0  0  0  # atno 17342 bound_to 10162
  139.5091  144.3588  152.0582 LP  0  0  0  0  0  0  0  0  0  0  0  0  # atno 17343 bound_to 10162
  157.7179  131.0699  150.6253 LP  0  0  0  0  0  0  0  0  0  0  0  0  # atno 17370 bound_to 10713
  156.6326  130.4436  149.5781 LP  0  0  0  0  0  0  0  0  0  0  0  0  # atno 17371 bound_to 10713
  140.1069  134.5398  155.8301 LP  0  0  0  0  0  0  0  0  0  0  0  0  # atno 17394 bound_to 11000
  141.2119  133.6712  156.6615 LP  0  0  0  0  0  0  0  0  0  0  0  0  # atno 17395 bound_to 11000

$$$$
