AV-unprocessed.smi:2136|AV-procd|sdf|8705|dock7
  -GOLD-   2272011463D 1   1.00000     0.00000
 Structure written by MMmdl.
 43 44  0  0  0  0  0  0  0  0  2 V2000
  154.0372  139.3171  161.4119 C   0  0  0  0  0  0  0  0  0  0  0  0
  153.3461  139.7438  159.7604 S   0  0  0  0  0  0  0  0  0  0  0  0
  154.4662  139.8667  158.8158 O   0  0  0  0  0  0  0  0  0  0  0  0
  152.2618  138.7960  159.4604 O   0  0  0  0  0  0  0  0  0  0  0  0
  152.6237  141.3199  160.0318 N   0  0  0  0  0  0  0  0  0  0  0  0
  153.3507  142.1568  161.0189 C   0  0  0  0  0  0  0  0  0  0  0  0
  152.5802  143.4144  161.4378 C   0  0  0  0  0  0  0  0  0  0  0  0
  152.2088  144.2458  160.2166 C   0  0  0  0  0  0  0  0  0  0  0  0
  151.3383  143.3847  159.3077 C   0  0  0  0  0  0  0  0  0  0  0  0
  152.0414  142.0749  158.8734 C   0  0  2  0  0  0  0  0  0  0  0  0
  151.0649  141.3048  157.9722 C   0  0  0  0  0  0  0  0  0  0  0  0
  150.0170  140.8613  158.4417 O   0  0  0  0  0  0  0  0  0  0  0  0
  151.4163  141.1526  156.6847 N   0  0  0  0  0  0  0  0  0  0  0  0
  150.6090  140.4855  155.6717 C   0  0  0  0  0  0  0  0  0  0  0  0
  149.3946  141.3351  155.2631 C   0  0  0  0  0  0  0  0  0  0  0  0
  148.4718  140.5921  154.3174 C   0  0  0  0  0  0  0  0  0  0  0  0
  147.3709  141.2457  153.7205 C   0  0  0  0  0  0  0  0  0  0  0  0
  146.5294  140.5249  152.8476 C   0  0  0  0  0  0  0  0  0  0  0  0
  146.8070  139.1662  152.5926 C   0  0  0  0  0  0  0  0  0  0  0  0
  147.8685  138.5742  153.1834 N   0  3  0  0  0  0  0  0  0  0  0  0
  148.6984  139.2298  154.0241 C   0  0  0  0  0  0  0  0  0  0  0  0
  154.4854  138.3248  161.3674 H   0  0  0  0  0  0  0  0  0  0  0  0
  153.2432  139.3187  162.1576 H   0  0  0  0  0  0  0  0  0  0  0  0
  154.8019  140.0419  161.6892 H   0  0  0  0  0  0  0  0  0  0  0  0
  153.5627  141.5716  161.9133 H   0  0  0  0  0  0  0  0  0  0  0  0
  154.3143  142.4417  160.5960 H   0  0  0  0  0  0  0  0  0  0  0  0
  151.6813  143.1342  161.9890 H   0  0  0  0  0  0  0  0  0  0  0  0
  153.1884  144.0093  162.1197 H   0  0  0  0  0  0  0  0  0  0  0  0
  151.6690  145.1438  160.5180 H   0  0  0  0  0  0  0  0  0  0  0  0
  153.1057  144.5729  159.6890 H   0  0  0  0  0  0  0  0  0  0  0  0
  150.4072  143.1571  159.8296 H   0  0  0  0  0  0  0  0  0  0  0  0
  151.0571  143.9672  158.4288 H   0  0  0  0  0  0  0  0  0  0  0  0
  152.8832  142.3639  158.2423 H   0  0  0  0  0  0  0  0  0  0  0  0
  152.2913  141.5570  156.3827 H   0  0  0  0  0  0  0  0  0  0  0  0
  151.2274  140.2542  154.8024 H   0  0  0  0  0  0  0  0  0  0  0  0
  150.2763  139.5301  156.0785 H   0  0  0  0  0  0  0  0  0  0  0  0
  148.8347  141.6387  156.1489 H   0  0  0  0  0  0  0  0  0  0  0  0
  149.7208  142.2554  154.7767 H   0  0  0  0  0  0  0  0  0  0  0  0
  147.1713  142.2869  153.9290 H   0  0  0  0  0  0  0  0  0  0  0  0
  145.6831  141.0076  152.3814 H   0  0  0  0  0  0  0  0  0  0  0  0
  146.2167  138.5397  151.9398 H   0  0  0  0  0  0  0  0  0  0  0  0
  149.5113  138.6485  154.4353 H   0  0  0  0  0  0  0  0  0  0  0  0
  148.0509  137.5896  152.9868 H   0  0  0  0  0  0  0  0  0  0  0  0
  1  2  1  0  0  0  0
  1 22  1  0  0  0  0
  1 23  1  0  0  0  0
  1 24  1  0  0  0  0
  2  3  2  0  0  0  0
  2  4  2  0  0  0  0
  2  5  1  0  0  0  0
  5 10  1  0  0  0  0
  5  6  1  0  0  0  0
  6  7  1  0  0  0  0
  6 25  1  0  0  0  0
  6 26  1  0  0  0  0
  7  8  1  0  0  0  0
  7 27  1  0  0  0  0
  7 28  1  0  0  0  0
  8  9  1  0  0  0  0
  8 29  1  0  0  0  0
  8 30  1  0  0  0  0
  9 10  1  0  0  0  0
  9 31  1  0  0  0  0
  9 32  1  0  0  0  0
 10 11  1  0  0  0  0
 10 33  1  0  0  0  0
 11 12  2  0  0  0  0
 11 13  1  0  0  0  0
 13 14  1  0  0  0  0
 13 34  1  0  0  0  0
 14 15  1  0  0  0  0
 14 35  1  0  0  0  0
 14 36  1  0  0  0  0
 15 16  1  0  0  0  0
 15 37  1  0  0  0  0
 15 38  1  0  0  0  0
 16 21  1  0  0  0  0
 16 17  2  0  0  0  0
 17 18  1  0  0  0  0
 17 39  1  0  0  0  0
 18 19  2  0  0  0  0
 18 40  1  0  0  0  0
 19 20  1  0  0  0  0
 19 41  1  0  0  0  0
 20 21  2  0  0  0  0
 20 43  1  0  0  0  0
 21 42  1  0  0  0  0
M  CHG  1  20   1
M  END
> <s_m_source_file>
AV-unprocessed.smi

> <i_m_source_file_index>
2136

> <i_lp_mmshare_version>
43012

> <i_f3d_flags>
0

> <s_epik_input>
W0NIM11TKD1PKSg9TylOMVtDSDJdW0NIMl1bQ0gyXVtDSDJdW0NASF0xQyg9TylbTkhdW0NIMl1bQ0gyXWMyW2NIXVtjSF1bY0hdbltjSF0y

> <s_epik_cmdline>
J2VwaWtfcHl0aG9uJywgJy1waCcsICc3LjAnLCAnLXRuJywgJzgnLCAnLW1hJywgJzIwMCcsICctbWV0YWxfYmluZGluZycsICctaW1hZScsICc8aW5maWxlLm1hZT4nLCAnLW9tYWUnLCAnPG91dGZpbGUubWFlPic=

> <r_epik_Ionization_Penalty>
2.2835

> <r_epik_Ionization_Penalty_Charging>
2.2835

> <r_epik_Ionization_Penalty_Neutral>
1.35461e-07

> <r_epik_State_Penalty>
2.43297

> <r_epik_Charging_Adjusted_Penalty>
4.71647

> <i_epik_Tot_Q>
1

> <i_epik_Tot_abs_Q>
1

> <r_epik_Metal_State_Penalty>
2.44557

> <b_epik_Metal_Only>
0

> <s_lp_Force_Field>
OPLS_2005

> <r_lp_Energy>
10.903

> <b_lp_Chiralities_Consistent>
1

> <s_lp_Variant>
AV-unprocessed.smi:2136-4

> <Gold.Version>
5.8.1

> <Gold.Id.Protein>
6NUR|6NUR_protein|mol2

> <Gold.PLP.Fitness>
48.2124

> <Gold.PLP.PLP>
-39.9450

> <Gold.PLP.part.hbond>
-3.0000

> <Gold.PLP.part.metal>
0.0000

> <Gold.PLP.part.buried>
1.5557

> <Gold.PLP.part.nonpolar>
-38.1925

> <Gold.PLP.part.repulsive>
0.1721

> <Gold.PLP.ligand.clash>
0.0000

> <Gold.PLP.ligand.torsion>
0.7432

> <Gold.PLP.Chemscore.Hbond>
3.0000

> <Gold.PLP.Chemscore.CHOScore>
0.0000

> <Gold.PLP.Chemscore.Metal>
0.0000

> <Gold.Chemscore.Hbonds>
donor molecule, donor type, donor heavy atom, donor atom, acceptor molecule, acceptor atom, score
      L1  H    20    43       P1  7948  1.89
      P1  H  7997  8009       L1     3  1.00

> <Gold.PLP.Chemscore.Internal.Correction>
0.7538

> <Gold.Rescore>
     Score         DG    S(hbond)    S(metal)    S(lipo)     H(rot)  DE(clash)    DE(int)     intcor
     18.90     -20.33       1.90        0.00     115.30       1.95       0.51       0.92       ----

> <Gold.Chemscore.Fitness>
18.8977

> <Gold.Chemscore.DG>
-20.3298

> <Gold.Chemscore.ZeroCoef>
-5.4800

> <Gold.Chemscore.Hbond>
1.8991

> <Gold.Chemscore.Metal>
0.0000

> <Gold.Chemscore.Lipo>
115.3003

> <Gold.Chemscore.Internal_Hbond>
0.0000

> <Gold.Chemscore.DEClash>
0.5091

> <Gold.Chemscore.DEInternal>
0.9230

> <Gold.Chemscore.Rot>
1.9466

> <Gold.Chemscore.Internal.Correction>
   9.000000E+99

> <Gold.Chemscore.Hbonds>
donor molecule, donor type, donor heavy atom, donor atom, acceptor molecule, acceptor atom, score
      L1  H    20    43       P1  7948  0.89
      P1  H  7997  8009       L1     3  0.98

> <Gold.Chemscore.Hbond.Weighted>
-6.3429

> <Gold.Chemscore.Metal.Weighted>
-0.0000

> <Gold.Chemscore.Lipo.Weighted>
-13.4901

> <Gold.Chemscore.Internal_Hbond.Weighted>
0.0000

> <Gold.Chemscore.DEClash.Weighted>
0.5091

> <Gold.Chemscore.DEInternal.Weighted>
0.9230

> <Gold.Chemscore.Rot.Weighted>
4.9832

> <Gold.Chemscore.Internal.Correction.Weighted>
   9.000000E+99

> <Gold.Protein.RotatedTorsions>
[ 6907 6896 6895 6894 ] final  140.82 input  -60.11 | X-H torsion
[ 7974 7965 7964 7962 ] final -104.68 input  175.53 | X-H torsion
[ 8008 7997 7996 7995 ] final  128.13 input   59.86 | X-H torsion
[ 10167 10162 10161 10158 ] final -169.02 input  -65.29 | X-H torsion
[ 10718 10713 10712 10709 ] final  -29.14 input   66.30 | X-H torsion
[ 10763 10752 10751 10750 ] final  173.82 input  -60.55 | X-H torsion
[ 11005 11000 10999 10996 ] final   65.03 input  -57.11 | X-H torsion

> <Gold.Protein.ActiveResidues>
 VAL166  LYS551  ARG553  GLY616  TRP617  ASP618  TYR619  PRO620  LYS621  CYS622 
 ASP623  PHE694  ASN695  SER759  ASP760  ASP761  ALA762  ILE779  LEU786  VAL792 
 PHE793  MET794  SER795  GLU796  ALA797  LYS798  CYS799  TRP800  GLU811  SER814 

> <Gold.Protein.RotatedAtoms>
  152.2385  133.5115  159.5255 H   0  0  0  0  0  0  0  0  0  0  0  0  # atno 6907 bound_to 6896
  150.7057  134.1121  159.4013 H   0  0  0  0  0  0  0  0  0  0  0  0  # atno 6908 bound_to 6896
  151.9042  135.0365  160.0560 H   0  0  0  0  0  0  0  0  0  0  0  0  # atno 6909 bound_to 6896
  145.2401  140.9202  143.3155 H   0  0  0  0  0  0  0  0  0  0  0  0  # atno 7974 bound_to 7965
  156.2907  140.2652  156.2385 H   0  0  0  0  0  0  0  0  0  0  0  0  # atno 8008 bound_to 7997
  155.0001  140.0388  157.2374 H   0  0  0  0  0  0  0  0  0  0  0  0  # atno 8009 bound_to 7997
  154.7609  140.2760  155.6219 H   0  0  0  0  0  0  0  0  0  0  0  0  # atno 8010 bound_to 7997
  139.5949  144.1134  152.1677 H   0  0  0  0  0  0  0  0  0  0  0  0  # atno 10167 bound_to 10162
  156.4162  130.4417  149.7216 H   0  0  0  0  0  0  0  0  0  0  0  0  # atno 10718 bound_to 10713
  154.4454  135.2763  155.1819 H   0  0  0  0  0  0  0  0  0  0  0  0  # atno 10763 bound_to 10752
  154.3668  135.6117  153.5722 H   0  0  0  0  0  0  0  0  0  0  0  0  # atno 10764 bound_to 10752
  152.9843  135.5847  154.4789 H   0  0  0  0  0  0  0  0  0  0  0  0  # atno 10765 bound_to 10752
  139.9920  134.6576  156.0074 H   0  0  0  0  0  0  0  0  0  0  0  0  # atno 11005 bound_to 11000
  144.9597  139.3993  143.6362 LP  0  0  0  0  0  0  0  0  0  0  0  0  # atno 17320 bound_to 7965
  146.3331  139.8644  142.8850 LP  0  0  0  0  0  0  0  0  0  0  0  0  # atno 17321 bound_to 7965
  140.0717  144.5774  150.7187 LP  0  0  0  0  0  0  0  0  0  0  0  0  # atno 17342 bound_to 10162
  140.7203  143.2583  151.4299 LP  0  0  0  0  0  0  0  0  0  0  0  0  # atno 17343 bound_to 10162
  156.4175  130.7752  151.2768 LP  0  0  0  0  0  0  0  0  0  0  0  0  # atno 17370 bound_to 10713
  157.7508  131.0193  150.3660 LP  0  0  0  0  0  0  0  0  0  0  0  0  # atno 17371 bound_to 10713
  141.1574  133.6541  156.4206 LP  0  0  0  0  0  0  0  0  0  0  0  0  # atno 17394 bound_to 11000
  140.4889  134.6594  157.5202 LP  0  0  0  0  0  0  0  0  0  0  0  0  # atno 17395 bound_to 11000

$$$$
