AV-unprocessed.smi:2772|AV-procd|sdf|10664|dock6
  -GOLD-   2272015113D 1   1.00000     0.00000
 Structure written by MMmdl.
 55 57  0  0  0  0  0  0  0  0  3 V2000
  153.0732  143.0919  160.3531 C   0  0  0  0  0  0  0  0  0  0  0  0
  152.2442  142.4751  159.2459 C   0  0  0  0  0  0  0  0  0  0  0  0
  152.0106  141.0853  159.2064 C   0  0  0  0  0  0  0  0  0  0  0  0
  151.2359  140.5621  158.1532 C   0  0  0  0  0  0  0  0  0  0  0  0
  150.7290  141.4474  157.1711 C   0  0  0  0  0  0  0  0  0  0  0  0
  149.9223  141.0495  156.0702 N   0  0  0  0  0  0  0  0  0  0  0  0
  149.0114  140.0630  156.0093 C   0  0  0  0  0  0  0  0  0  0  0  0
  148.7282  139.2941  156.9275 O   0  0  0  0  0  0  0  0  0  0  0  0
  148.4467  139.9989  154.7946 N   0  0  0  0  0  0  0  0  0  0  0  0
  147.4204  139.0393  154.3972 C   0  0  2  0  0  0  0  0  0  0  0  0
  147.8398  137.6036  154.7485 C   0  0  0  0  0  0  0  0  0  0  0  0
  146.7941  136.5910  154.2566 C   0  0  0  0  0  0  0  0  0  0  0  0
  146.5686  136.6936  152.7856 N   0  3  1  0  0  0  0  0  0  0  0  0
  145.6830  135.5951  152.2739 C   0  0  2  0  0  0  0  0  0  0  0  0
  146.3689  134.2173  152.4356 C   0  0  0  0  0  0  0  0  0  0  0  0
  145.4874  133.0660  151.9219 C   0  0  0  0  0  0  0  0  0  0  0  0
  145.1159  133.2705  150.5022 N   0  3  1  0  0  0  0  0  0  0  0  0
  144.3617  132.1264  149.9454 C   0  0  0  0  0  0  0  0  0  0  0  0
  144.4141  134.5603  150.3030 C   0  0  0  0  0  0  0  0  0  0  0  0
  145.2724  135.7426  150.7863 C   0  0  0  0  0  0  0  0  0  0  0  0
  146.1523  138.0785  152.4159 C   0  0  0  0  0  0  0  0  0  0  0  0
  147.1737  139.1294  152.8860 C   0  0  0  0  0  0  0  0  0  0  0  0
  151.0146  142.8216  157.3165 C   0  0  0  0  0  0  0  0  0  0  0  0
  151.7566  143.3313  158.3225 N   0  0  0  0  0  0  0  0  0  0  0  0
  153.2165  142.3892  161.1743 H   0  0  0  0  0  0  0  0  0  0  0  0
  152.5834  143.9813  160.7507 H   0  0  0  0  0  0  0  0  0  0  0  0
  154.0540  143.3796  159.9737 H   0  0  0  0  0  0  0  0  0  0  0  0
  152.4106  140.4315  159.9672 H   0  0  0  0  0  0  0  0  0  0  0  0
  151.0386  139.5020  158.1305 H   0  0  0  0  0  0  0  0  0  0  0  0
  150.0964  141.5464  155.2089 H   0  0  0  0  0  0  0  0  0  0  0  0
  148.7433  140.6670  154.0982 H   0  0  0  0  0  0  0  0  0  0  0  0
  146.4887  139.2791  154.9141 H   0  0  0  0  0  0  0  0  0  0  0  0
  148.8090  137.3754  154.3017 H   0  0  0  0  0  0  0  0  0  0  0  0
  147.9652  137.5007  155.8271 H   0  0  0  0  0  0  0  0  0  0  0  0
  147.1339  135.5947  154.5325 H   0  0  0  0  0  0  0  0  0  0  0  0
  145.8502  136.7519  154.7804 H   0  0  0  0  0  0  0  0  0  0  0  0
  144.7647  135.6053  152.8641 H   0  0  0  0  0  0  0  0  0  0  0  0
  147.3177  134.2143  151.8967 H   0  0  0  0  0  0  0  0  0  0  0  0
  146.6121  134.0135  153.4771 H   0  0  0  0  0  0  0  0  0  0  0  0
  146.0258  132.1229  152.0246 H   0  0  0  0  0  0  0  0  0  0  0  0
  144.5846  132.9835  152.5296 H   0  0  0  0  0  0  0  0  0  0  0  0
  143.4088  131.9970  150.4605 H   0  0  0  0  0  0  0  0  0  0  0  0
  144.9330  131.2027  150.0450 H   0  0  0  0  0  0  0  0  0  0  0  0
  144.1591  132.2781  148.8847 H   0  0  0  0  0  0  0  0  0  0  0  0
  144.1822  134.6886  149.2448 H   0  0  0  0  0  0  0  0  0  0  0  0
  143.4617  134.5452  150.8360 H   0  0  0  0  0  0  0  0  0  0  0  0
  144.6894  136.6511  150.6331 H   0  0  0  0  0  0  0  0  0  0  0  0
  146.1613  135.8245  150.1588 H   0  0  0  0  0  0  0  0  0  0  0  0
  146.0713  138.1845  151.3350 H   0  0  0  0  0  0  0  0  0  0  0  0
  145.1687  138.2908  152.8381 H   0  0  0  0  0  0  0  0  0  0  0  0
  146.8191  140.1274  152.6254 H   0  0  0  0  0  0  0  0  0  0  0  0
  148.1122  138.9859  152.3481 H   0  0  0  0  0  0  0  0  0  0  0  0
  150.6396  143.5376  156.5997 H   0  0  0  0  0  0  0  0  0  0  0  0
  147.4668  136.5557  152.3443 H   0  0  0  0  0  0  0  0  0  0  0  0
  145.9788  133.3235  149.9794 H   0  0  0  0  0  0  0  0  0  0  0  0
  1  2  1  0  0  0  0
  1 25  1  0  0  0  0
  1 26  1  0  0  0  0
  1 27  1  0  0  0  0
  2 24  1  0  0  0  0
  2  3  2  0  0  0  0
  3  4  1  0  0  0  0
  3 28  1  0  0  0  0
  4  5  2  0  0  0  0
  4 29  1  0  0  0  0
  5  6  1  0  0  0  0
  5 23  1  0  0  0  0
  6  7  1  0  0  0  0
  6 30  1  0  0  0  0
  7  8  2  0  0  0  0
  7  9  1  0  0  0  0
  9 10  1  0  0  0  0
  9 31  1  0  0  0  0
 10 22  1  0  0  0  0
 10 11  1  0  0  0  0
 10 32  1  0  0  0  0
 11 12  1  0  0  0  0
 11 33  1  0  0  0  0
 11 34  1  0  0  0  0
 12 13  1  0  0  0  0
 12 35  1  0  0  0  0
 12 36  1  0  0  0  0
 13 14  1  0  0  0  0
 13 21  1  0  0  0  0
 13 54  1  0  0  0  0
 14 20  1  0  0  0  0
 14 15  1  0  0  0  0
 14 37  1  0  0  0  0
 15 16  1  0  0  0  0
 15 38  1  0  0  0  0
 15 39  1  0  0  0  0
 16 17  1  0  0  0  0
 16 40  1  0  0  0  0
 16 41  1  0  0  0  0
 17 18  1  0  0  0  0
 17 19  1  0  0  0  0
 17 55  1  0  0  0  0
 18 42  1  0  0  0  0
 18 43  1  0  0  0  0
 18 44  1  0  0  0  0
 19 20  1  0  0  0  0
 19 45  1  0  0  0  0
 19 46  1  0  0  0  0
 20 47  1  0  0  0  0
 20 48  1  0  0  0  0
 21 22  1  0  0  0  0
 21 49  1  0  0  0  0
 21 50  1  0  0  0  0
 22 51  1  0  0  0  0
 22 52  1  0  0  0  0
 23 24  2  0  0  0  0
 23 53  1  0  0  0  0
M  CHG  1  13   1
M  CHG  1  17   1
M  END
> <s_m_source_file>
AV-unprocessed.smi

> <i_m_source_file_index>
2772

> <i_lp_mmshare_version>
43012

> <i_f3d_flags>
0

> <s_epik_input>
W0NIM11jMVtjSF1bY0hdYyhbY0hdbjEpW05IXUMoPU8pW05IXVtDSF0yW0NIMl1bQ0gyXU4oW0NIMl1bQ0gyXTIpW0NIXTNbQ0gyXVtDSDJdTihbQ0gzXSlbQ0gyXVtDSDJdMw==

> <s_epik_cmdline>
J2VwaWtfcHl0aG9uJywgJy1waCcsICc3LjAnLCAnLXRuJywgJzgnLCAnLW1hJywgJzIwMCcsICctbWV0YWxfYmluZGluZycsICctaW1hZScsICc8aW5maWxlLm1hZT4nLCAnLW9tYWUnLCAnPG91dGZpbGUubWFlPic=

> <r_epik_Ionization_Penalty>
0.196786

> <r_epik_Ionization_Penalty_Charging>
0.180787

> <r_epik_Ionization_Penalty_Neutral>
0.0159988

> <r_epik_State_Penalty>
0.163322

> <r_epik_Charging_Adjusted_Penalty>
0.344109

> <i_epik_Tot_Q>
2

> <i_epik_Tot_abs_Q>
2

> <r_epik_Metal_State_Penalty>
0.163596

> <b_epik_Metal_Only>
0

> <s_lp_Force_Field>
OPLS_2005

> <r_lp_Energy>
43.2769

> <b_lp_Chiralities_Consistent>
1

> <s_lp_Variant>
AV-unprocessed.smi:2772-1

> <Gold.Version>
5.8.1

> <Gold.Id.Protein>
6NUR|6NUR_protein|mol2

> <Gold.PLP.Fitness>
46.2569

> <Gold.PLP.PLP>
-38.0804

> <Gold.PLP.part.hbond>
-1.0000

> <Gold.PLP.part.metal>
0.0000

> <Gold.PLP.part.buried>
-5.1445

> <Gold.PLP.part.nonpolar>
-32.9885

> <Gold.PLP.part.repulsive>
0.2521

> <Gold.PLP.ligand.clash>
0.0000

> <Gold.PLP.ligand.torsion>
0.4282

> <Gold.PLP.Chemscore.Hbond>
2.0000

> <Gold.PLP.Chemscore.CHOScore>
1.0000

> <Gold.PLP.Chemscore.Metal>
0.0000

> <Gold.Chemscore.Hbonds>
donor molecule, donor type, donor heavy atom, donor atom, acceptor molecule, acceptor atom, score
      L1  H    13    54       P1  7948  2.00
      L1  C    23    53       P1  8028  1.00

> <Gold.PLP.Chemscore.Internal.Correction>
0.0330

> <Gold.Rescore>
     Score         DG    S(hbond)    S(metal)    S(lipo)     H(rot)  DE(clash)    DE(int)     intcor
     16.68     -18.29       1.00        0.00     107.56       1.21       0.08       1.53       ----

> <Gold.Chemscore.Fitness>
16.6812

> <Gold.Chemscore.DG>
-18.2935

> <Gold.Chemscore.ZeroCoef>
-5.4800

> <Gold.Chemscore.Hbond>
0.9953

> <Gold.Chemscore.Metal>
0.0000

> <Gold.Chemscore.Lipo>
107.5601

> <Gold.Chemscore.Internal_Hbond>
0.0000

> <Gold.Chemscore.DEClash>
0.0820

> <Gold.Chemscore.DEInternal>
1.5303

> <Gold.Chemscore.Rot>
1.2092

> <Gold.Chemscore.Internal.Correction>
   9.000000E+99

> <Gold.Chemscore.Hbonds>
donor molecule, donor type, donor heavy atom, donor atom, acceptor molecule, acceptor atom, score
      L1  H    13    54       P1  7948  0.98

> <Gold.Chemscore.Hbond.Weighted>
-3.3244

> <Gold.Chemscore.Metal.Weighted>
-0.0000

> <Gold.Chemscore.Lipo.Weighted>
-12.5845

> <Gold.Chemscore.Internal_Hbond.Weighted>
0.0000

> <Gold.Chemscore.DEClash.Weighted>
0.0820

> <Gold.Chemscore.DEInternal.Weighted>
1.5303

> <Gold.Chemscore.Rot.Weighted>
3.0955

> <Gold.Chemscore.Internal.Correction.Weighted>
   9.000000E+99

> <Gold.Protein.RotatedTorsions>
[ 6907 6896 6895 6894 ] final  -92.25 input  -60.11 | X-H torsion
[ 7974 7965 7964 7962 ] final -141.72 input  175.53 | X-H torsion
[ 8008 7997 7996 7995 ] final  167.20 input   59.86 | X-H torsion
[ 10167 10162 10161 10158 ] final  -11.24 input  -65.29 | X-H torsion
[ 10718 10713 10712 10709 ] final  -86.88 input   66.30 | X-H torsion
[ 10763 10752 10751 10750 ] final  103.88 input  -60.55 | X-H torsion
[ 11005 11000 10999 10996 ] final   48.17 input  -57.11 | X-H torsion

> <Gold.Protein.ActiveResidues>
 VAL166  LYS551  ARG553  GLY616  TRP617  ASP618  TYR619  PRO620  LYS621  CYS622 
 ASP623  PHE694  ASN695  SER759  ASP760  ASP761  ALA762  ILE779  LEU786  VAL792 
 PHE793  MET794  SER795  GLU796  ALA797  LYS798  CYS799  TRP800  GLU811  SER814 

> <Gold.Protein.RotatedAtoms>
  150.6903  134.2151  159.4374 H   0  0  0  0  0  0  0  0  0  0  0  0  # atno 6907 bound_to 6896
  152.0110  134.9873  160.0577 H   0  0  0  0  0  0  0  0  0  0  0  0  # atno 6908 bound_to 6896
  152.1488  133.4474  159.4840 H   0  0  0  0  0  0  0  0  0  0  0  0  # atno 6909 bound_to 6896
  144.8498  140.6046  143.5397 H   0  0  0  0  0  0  0  0  0  0  0  0  # atno 7974 bound_to 7965
  156.1654  140.1623  156.8541 H   0  0  0  0  0  0  0  0  0  0  0  0  # atno 8008 bound_to 7997
  154.5202  140.0780  156.8192 H   0  0  0  0  0  0  0  0  0  0  0  0  # atno 8009 bound_to 7997
  155.3623  140.3396  155.4243 H   0  0  0  0  0  0  0  0  0  0  0  0  # atno 8010 bound_to 7997
  140.7134  143.5660  150.9143 H   0  0  0  0  0  0  0  0  0  0  0  0  # atno 10167 bound_to 10162
  155.9987  130.4780  150.4782 H   0  0  0  0  0  0  0  0  0  0  0  0  # atno 10718 bound_to 10713
  153.3586  135.3962  155.1701 H   0  0  0  0  0  0  0  0  0  0  0  0  # atno 10763 bound_to 10752
  154.8675  135.3674  154.5129 H   0  0  0  0  0  0  0  0  0  0  0  0  # atno 10764 bound_to 10752
  153.5586  135.7081  153.5618 H   0  0  0  0  0  0  0  0  0  0  0  0  # atno 10765 bound_to 10752
  140.1214  134.4825  155.8595 H   0  0  0  0  0  0  0  0  0  0  0  0  # atno 11005 bound_to 11000
  145.4523  139.1522  143.3911 LP  0  0  0  0  0  0  0  0  0  0  0  0  # atno 17320 bound_to 7965
  146.2775  140.4649  142.8789 LP  0  0  0  0  0  0  0  0  0  0  0  0  # atno 17321 bound_to 7965
  139.9386  143.6408  152.3059 LP  0  0  0  0  0  0  0  0  0  0  0  0  # atno 17342 bound_to 10162
  139.6885  144.7649  151.1481 LP  0  0  0  0  0  0  0  0  0  0  0  0  # atno 17343 bound_to 10162
  157.2790  131.0603  151.2210 LP  0  0  0  0  0  0  0  0  0  0  0  0  # atno 17370 bound_to 10713
  157.3263  130.6962  149.6298 LP  0  0  0  0  0  0  0  0  0  0  0  0  # atno 17371 bound_to 10713
  141.2152  133.6762  156.6895 LP  0  0  0  0  0  0  0  0  0  0  0  0  # atno 17394 bound_to 11000
  140.2960  134.8202  157.4058 LP  0  0  0  0  0  0  0  0  0  0  0  0  # atno 17395 bound_to 11000

$$$$
