AV-unprocessed.smi:19|AV-procd|sdf|112|dock7
  -GOLD-   2262015273D 1   1.00000     0.00000
 Structure written by MMmdl.
 57 60  0  0  0  0  0  0  0  0  1 V2000
  152.6541  142.7672  159.1414 C   0  0  0  0  0  0  0  0  0  0  0  0
  152.4486  141.5588  158.4310 O   0  0  0  0  0  0  0  0  0  0  0  0
  151.4500  141.6792  157.4302 C   0  0  0  0  0  0  0  0  0  0  0  0
  151.2037  140.3188  156.7630 C   0  0  1  0  0  0  0  0  0  0  0  0
  149.9145  140.2849  155.9216 C   0  0  0  0  0  0  0  0  0  0  0  0
  149.7935  139.0010  155.2413 N   0  0  0  0  0  0  0  0  0  0  0  0
  148.5659  138.7416  154.7222 C   0  0  0  0  0  0  0  0  0  0  0  0
  147.8202  139.7532  154.2016 N   0  0  0  0  0  0  0  0  0  0  0  0
  146.6056  139.5097  153.7014 C   0  0  0  0  0  0  0  0  0  0  0  0
  145.9562  138.3478  153.6174 N   0  0  0  0  0  0  0  0  0  0  0  0
  146.7024  137.3246  154.1225 C   0  0  0  0  0  0  0  0  0  0  0  0
  148.0033  137.4337  154.6918 C   0  0  0  0  0  0  0  0  0  0  0  0
  148.4467  136.1804  155.0966 N   0  0  0  0  0  0  0  0  0  0  0  0
  147.4605  135.3806  154.7974 C   0  0  0  0  0  0  0  0  0  0  0  0
  146.3777  135.9800  154.1932 N   0  0  0  0  0  0  0  0  0  0  0  0
  145.1495  135.3259  153.7605 C   0  0  0  0  0  0  0  0  0  0  0  0
  145.2132  134.6703  152.3484 C   0  0  0  0  0  0  0  0  0  0  0  0
  145.4820  135.7448  151.2560 C   0  0  0  0  0  0  0  0  0  0  0  0
  144.7686  136.9414  151.4948 O   0  0  0  0  0  0  0  0  0  0  0  0
  146.3360  133.6018  152.3101 C   0  0  0  0  0  0  0  0  0  0  0  0
  146.2577  132.6840  151.0753 C   0  0  0  0  0  0  0  0  0  0  0  0
  144.9775  132.0714  150.9975 O   0  0  0  0  0  0  0  0  0  0  0  0
  143.9240  133.0154  150.8566 C   0  0  0  0  0  0  0  0  0  0  0  0
  143.8761  133.9286  152.0940 C   0  0  0  0  0  0  0  0  0  0  0  0
  150.9646  138.6740  154.4315 C   0  0  0  0  0  0  0  0  0  0  0  0
  152.2528  138.7438  155.2748 C   0  0  2  0  0  0  0  0  0  0  0  0
  152.4181  137.5550  156.2378 C   0  0  0  0  0  0  0  0  0  0  0  0
  152.3342  140.0000  155.9518 O   0  0  0  0  0  0  0  0  0  0  0  0
  153.4316  142.6240  159.8917 H   0  0  0  0  0  0  0  0  0  0  0  0
  151.7449  143.0821  159.6552 H   0  0  0  0  0  0  0  0  0  0  0  0
  152.9747  143.5679  158.4735 H   0  0  0  0  0  0  0  0  0  0  0  0
  150.5214  142.0532  157.8645 H   0  0  0  0  0  0  0  0  0  0  0  0
  151.7717  142.4028  156.6795 H   0  0  0  0  0  0  0  0  0  0  0  0
  151.1250  139.5796  157.5603 H   0  0  0  0  0  0  0  0  0  0  0  0
  149.0575  140.4818  156.5642 H   0  0  0  0  0  0  0  0  0  0  0  0
  149.9315  141.0742  155.1689 H   0  0  0  0  0  0  0  0  0  0  0  0
  146.0784  140.3687  153.3133 H   0  0  0  0  0  0  0  0  0  0  0  0
  147.4993  134.3212  155.0053 H   0  0  0  0  0  0  0  0  0  0  0  0
  144.9012  134.5728  154.5096 H   0  0  0  0  0  0  0  0  0  0  0  0
  144.3405  136.0561  153.8041 H   0  0  0  0  0  0  0  0  0  0  0  0
  146.5444  135.9810  151.1961 H   0  0  0  0  0  0  0  0  0  0  0  0
  145.1993  135.3926  150.2656 H   0  0  0  0  0  0  0  0  0  0  0  0
  144.5819  137.3513  150.6641 H   0  0  0  0  0  0  0  0  0  0  0  0
  147.3181  134.0743  152.3421 H   0  0  0  0  0  0  0  0  0  0  0  0
  146.2699  132.9756  153.2010 H   0  0  0  0  0  0  0  0  0  0  0  0
  146.4710  133.2282  150.1550 H   0  0  0  0  0  0  0  0  0  0  0  0
  147.0113  131.9000  151.1506 H   0  0  0  0  0  0  0  0  0  0  0  0
  144.0466  133.5888  149.9372 H   0  0  0  0  0  0  0  0  0  0  0  0
  142.9832  132.4732  150.7612 H   0  0  0  0  0  0  0  0  0  0  0  0
  143.6351  133.3075  152.9579 H   0  0  0  0  0  0  0  0  0  0  0  0
  143.0509  134.6352  152.0014 H   0  0  0  0  0  0  0  0  0  0  0  0
  150.8614  137.6795  153.9951 H   0  0  0  0  0  0  0  0  0  0  0  0
  151.0313  139.3831  153.6052 H   0  0  0  0  0  0  0  0  0  0  0  0
  153.1000  138.7136  154.5892 H   0  0  0  0  0  0  0  0  0  0  0  0
  152.4925  136.6184  155.6846 H   0  0  0  0  0  0  0  0  0  0  0  0
  151.5771  137.4583  156.9236 H   0  0  0  0  0  0  0  0  0  0  0  0
  153.3259  137.6595  156.8322 H   0  0  0  0  0  0  0  0  0  0  0  0
  1  2  1  0  0  0  0
  1 29  1  0  0  0  0
  1 30  1  0  0  0  0
  1 31  1  0  0  0  0
  2  3  1  0  0  0  0
  3  4  1  0  0  0  0
  3 32  1  0  0  0  0
  3 33  1  0  0  0  0
  4 28  1  0  0  0  0
  4  5  1  0  0  0  0
  4 34  1  0  0  0  0
  5  6  1  0  0  0  0
  5 35  1  0  0  0  0
  5 36  1  0  0  0  0
  6  7  1  0  0  0  0
  6 25  1  0  0  0  0
  7 12  1  0  0  0  0
  7  8  2  0  0  0  0
  8  9  1  0  0  0  0
  9 10  2  0  0  0  0
  9 37  1  0  0  0  0
 10 11  1  0  0  0  0
 11 15  1  0  0  0  0
 11 12  2  0  0  0  0
 12 13  1  0  0  0  0
 13 14  2  0  0  0  0
 14 15  1  0  0  0  0
 14 38  1  0  0  0  0
 15 16  1  0  0  0  0
 16 17  1  0  0  0  0
 16 39  1  0  0  0  0
 16 40  1  0  0  0  0
 17 24  1  0  0  0  0
 17 18  1  0  0  0  0
 17 20  1  0  0  0  0
 18 19  1  0  0  0  0
 18 41  1  0  0  0  0
 18 42  1  0  0  0  0
 19 43  1  0  0  0  0
 20 21  1  0  0  0  0
 20 44  1  0  0  0  0
 20 45  1  0  0  0  0
 21 22  1  0  0  0  0
 21 46  1  0  0  0  0
 21 47  1  0  0  0  0
 22 23  1  0  0  0  0
 23 24  1  0  0  0  0
 23 48  1  0  0  0  0
 23 49  1  0  0  0  0
 24 50  1  0  0  0  0
 24 51  1  0  0  0  0
 25 26  1  0  0  0  0
 25 52  1  0  0  0  0
 25 53  1  0  0  0  0
 26 27  1  0  0  0  0
 26 28  1  0  0  0  0
 26 54  1  0  0  0  0
 27 55  1  0  0  0  0
 27 56  1  0  0  0  0
 27 57  1  0  0  0  0
M  END
> <s_m_source_file>
AV-unprocessed.smi

> <i_m_source_file_index>
19

> <i_lp_mmshare_version>
43012

> <i_f3d_flags>
0

> <s_epik_input>
W0NIM11PW0NIMl1bQ0BASF0xW0NIMl1OKFtDSDJdW0NASF0oTzEpW0NIM10pYyhuW2NIXW4yKWMoYzIzKW5bY0hdbjNbQ0gyXUM0KFtDSDJdW09IXSlbQ0gyXVtDSDJdT1tDSDJdW0NIMl00

> <s_epik_cmdline>
J2VwaWtfcHl0aG9uJywgJy1waCcsICc3LjAnLCAnLXRuJywgJzgnLCAnLW1hJywgJzIwMCcsICctbWV0YWxfYmluZGluZycsICctaW1hZScsICc8aW5maWxlLm1hZT4nLCAnLW9tYWUnLCAnPG91dGZpbGUubWFlPic=

> <r_lp_tautomer_probability>
1

> <r_epik_Ionization_Penalty>
6.20357e-05

> <r_epik_Ionization_Penalty_Charging>
0

> <r_epik_Ionization_Penalty_Neutral>
6.20357e-05

> <r_epik_State_Penalty>
-0

> <r_epik_Charging_Adjusted_Penalty>
0

> <i_epik_Tot_Q>
0

> <i_epik_Tot_abs_Q>
0

> <r_epik_Metal_State_Penalty>
-0

> <b_epik_Metal_Only>
0

> <s_lp_Force_Field>
OPLS_2005

> <r_lp_Energy>
39.077

> <b_lp_Chiralities_Consistent>
1

> <s_lp_Variant>
AV-unprocessed.smi:19-4

> <Gold.Version>
5.8.1

> <Gold.Id.Protein>
6NUR|6NUR_protein|mol2

> <Gold.PLP.Fitness>
41.8650

> <Gold.PLP.PLP>
-35.3154

> <Gold.PLP.part.hbond>
-1.8180

> <Gold.PLP.part.metal>
0.0000

> <Gold.PLP.part.buried>
-6.0183

> <Gold.PLP.part.nonpolar>
-28.8455

> <Gold.PLP.part.repulsive>
0.6260

> <Gold.PLP.ligand.clash>
0.0000

> <Gold.PLP.ligand.torsion>
1.2932

> <Gold.PLP.Chemscore.Hbond>
2.0000

> <Gold.PLP.Chemscore.CHOScore>
0.9367

> <Gold.PLP.Chemscore.Metal>
0.0000

> <Gold.Chemscore.Hbonds>
donor molecule, donor type, donor heavy atom, donor atom, acceptor molecule, acceptor atom, score
      L1  H    19    43       P1 10171  0.99
      P1  H  7997  8010       L1    28  0.99
      L1  C     9    37       P1 10175  0.95

> <Gold.PLP.Chemscore.Internal.Correction>
0.3261

> <Gold.Rescore>
     Score         DG    S(hbond)    S(metal)    S(lipo)     H(rot)  DE(clash)    DE(int)     intcor
     12.84     -14.26       1.78        0.00      87.26       2.87       0.08       1.35       ----

> <Gold.Chemscore.Fitness>
12.8364

> <Gold.Chemscore.DG>
-14.2644

> <Gold.Chemscore.ZeroCoef>
-5.4800

> <Gold.Chemscore.Hbond>
1.7752

> <Gold.Chemscore.Metal>
0.0000

> <Gold.Chemscore.Lipo>
87.2643

> <Gold.Chemscore.Internal_Hbond>
0.0000

> <Gold.Chemscore.DEClash>
0.0752

> <Gold.Chemscore.DEInternal>
1.3527

> <Gold.Chemscore.Rot>
2.8729

> <Gold.Chemscore.Internal.Correction>
   9.000000E+99

> <Gold.Chemscore.Hbonds>
donor molecule, donor type, donor heavy atom, donor atom, acceptor molecule, acceptor atom, score
      L1  H    19    43       P1 10171  0.94
      P1  H  7997  8010       L1    28  0.28

> <Gold.Chemscore.Hbond.Weighted>
-5.9291

> <Gold.Chemscore.Metal.Weighted>
-0.0000

> <Gold.Chemscore.Lipo.Weighted>
-10.2099

> <Gold.Chemscore.Internal_Hbond.Weighted>
0.0000

> <Gold.Chemscore.DEClash.Weighted>
0.0752

> <Gold.Chemscore.DEInternal.Weighted>
1.3527

> <Gold.Chemscore.Rot.Weighted>
7.3546

> <Gold.Chemscore.Internal.Correction.Weighted>
   9.000000E+99

> <Gold.Protein.RotatedTorsions>
[ 6907 6896 6895 6894 ] final  -90.29 input  -60.11 | X-H torsion
[ 7974 7965 7964 7962 ] final  -17.39 input  175.53 | X-H torsion
[ 8008 7997 7996 7995 ] final   80.94 input   59.86 | X-H torsion
[ 10167 10162 10161 10158 ] final -137.24 input  -65.29 | X-H torsion
[ 10718 10713 10712 10709 ] final -156.16 input   66.30 | X-H torsion
[ 10763 10752 10751 10750 ] final -173.26 input  -60.55 | X-H torsion
[ 11005 11000 10999 10996 ] final -153.14 input  -57.11 | X-H torsion

> <Gold.Protein.ActiveResidues>
 VAL166  LYS551  ARG553  GLY616  TRP617  ASP618  TYR619  PRO620  LYS621  CYS622 
 ASP623  PHE694  ASN695  SER759  ASP760  ASP761  ALA762  ILE779  LEU786  VAL792 
 PHE793  MET794  SER795  GLU796  ALA797  LYS798  CYS799  TRP800  GLU811  SER814 

> <Gold.Protein.RotatedAtoms>
  150.6880  134.2454  159.4489 H   0  0  0  0  0  0  0  0  0  0  0  0  # atno 6907 bound_to 6896
  152.0395  134.9717  160.0583 H   0  0  0  0  0  0  0  0  0  0  0  0  # atno 6908 bound_to 6896
  152.1224  133.4326  159.4719 H   0  0  0  0  0  0  0  0  0  0  0  0  # atno 6909 bound_to 6896
  146.1943  140.3772  142.8446 H   0  0  0  0  0  0  0  0  0  0  0  0  # atno 7974 bound_to 7965
  155.8903  140.3439  155.5951 H   0  0  0  0  0  0  0  0  0  0  0  0  # atno 8008 bound_to 7997
  155.7618  140.0833  157.2170 H   0  0  0  0  0  0  0  0  0  0  0  0  # atno 8009 bound_to 7997
  154.4033  140.1534  156.2828 H   0  0  0  0  0  0  0  0  0  0  0  0  # atno 8010 bound_to 7997
  139.8597  143.7093  152.2651 H   0  0  0  0  0  0  0  0  0  0  0  0  # atno 10167 bound_to 10162
  156.5227  130.8485  151.2688 H   0  0  0  0  0  0  0  0  0  0  0  0  # atno 10718 bound_to 10713
  154.6099  135.2863  155.0444 H   0  0  0  0  0  0  0  0  0  0  0  0  # atno 10763 bound_to 10752
  154.1677  135.6477  153.5005 H   0  0  0  0  0  0  0  0  0  0  0  0  # atno 10764 bound_to 10752
  153.0191  135.5393  154.6849 H   0  0  0  0  0  0  0  0  0  0  0  0  # atno 10765 bound_to 10752
  140.7113  134.3829  157.5197 H   0  0  0  0  0  0  0  0  0  0  0  0  # atno 11005 bound_to 11000
  144.8549  140.7056  143.6144 LP  0  0  0  0  0  0  0  0  0  0  0  0  # atno 17320 bound_to 7965
  145.3693  139.1662  143.4341 LP  0  0  0  0  0  0  0  0  0  0  0  0  # atno 17321 bound_to 7965
  139.7385  144.7565  151.0689 LP  0  0  0  0  0  0  0  0  0  0  0  0  # atno 17342 bound_to 10162
  140.7776  143.5001  150.9783 LP  0  0  0  0  0  0  0  0  0  0  0  0  # atno 17343 bound_to 10162
  157.7434  130.9912  150.2592 LP  0  0  0  0  0  0  0  0  0  0  0  0  # atno 17370 bound_to 10713
  156.3134  130.3775  149.7640 LP  0  0  0  0  0  0  0  0  0  0  0  0  # atno 17371 bound_to 10713
  139.8871  134.8892  156.2548 LP  0  0  0  0  0  0  0  0  0  0  0  0  # atno 17394 bound_to 11000
  141.0082  133.7111  156.1068 LP  0  0  0  0  0  0  0  0  0  0  0  0  # atno 17395 bound_to 11000

$$$$
