AV-unprocessed.smi:3161|AV-procd|sdf|12056|dock3
  -GOLD-   2272017483D 1   1.00000     0.00000
 Structure written by MMmdl.
 41 42  0  0  0  0  0  0  0  0  2 V2000
  152.9881  138.4697  157.7288 C   0  0  0  0  0  0  0  0  0  0  0  0
  152.1980  138.9065  156.5289 C   0  0  0  0  0  0  0  0  0  0  0  0
  152.6543  139.0551  155.1882 C   0  0  0  0  0  0  0  0  0  0  0  0
  151.7027  139.4610  154.3629 N   0  0  0  0  0  0  0  0  0  0  0  0
  150.6082  139.5800  155.1436 N   0  0  0  0  0  0  0  0  0  0  0  0
  149.3531  140.0200  154.5613 C   0  0  0  0  0  0  0  0  0  0  0  0
  149.2126  141.5600  154.5157 C   0  0  1  0  0  0  0  0  0  0  0  0
  147.8138  142.0110  154.0611 C   0  0  0  0  0  0  0  0  0  0  0  0
  149.5130  142.1648  155.8326 N   0  3  0  0  0  0  0  0  0  0  0  0
  150.9465  142.2486  156.1849 C   0  0  0  0  0  0  0  0  0  0  0  0
  151.1294  142.8120  157.6014 C   0  0  2  0  0  0  0  0  0  0  0  0
  151.6313  144.2694  157.5822 C   0  0  0  0  0  0  0  0  0  0  0  0
  151.8897  144.7693  159.0083 C   0  0  0  0  0  0  0  0  0  0  0  0
  152.8206  143.7944  159.7369 C   0  0  0  0  0  0  0  0  0  0  0  0
  152.2724  142.3618  159.6431 C   0  0  0  0  0  0  0  0  0  0  0  0
  152.0885  142.0013  158.2773 O   0  0  0  0  0  0  0  0  0  0  0  0
  150.8801  139.2589  156.4567 C   0  0  0  0  0  0  0  0  0  0  0  0
  153.8445  137.8563  157.4479 H   0  0  0  0  0  0  0  0  0  0  0  0
  152.3840  137.8789  158.4177 H   0  0  0  0  0  0  0  0  0  0  0  0
  153.3724  139.3228  158.2881 H   0  0  0  0  0  0  0  0  0  0  0  0
  153.6444  138.8818  154.7928 H   0  0  0  0  0  0  0  0  0  0  0  0
  149.2814  139.6073  153.5540 H   0  0  0  0  0  0  0  0  0  0  0  0
  148.5460  139.5701  155.1397 H   0  0  0  0  0  0  0  0  0  0  0  0
  149.9301  141.9583  153.7964 H   0  0  0  0  0  0  0  0  0  0  0  0
  147.5900  141.6724  153.0492 H   0  0  0  0  0  0  0  0  0  0  0  0
  147.7344  143.0987  154.0590 H   0  0  0  0  0  0  0  0  0  0  0  0
  147.0379  141.6221  154.7214 H   0  0  0  0  0  0  0  0  0  0  0  0
  149.1510  143.1075  155.8233 H   0  0  0  0  0  0  0  0  0  0  0  0
  151.4144  141.2666  156.1147 H   0  0  0  0  0  0  0  0  0  0  0  0
  151.4470  142.8972  155.4648 H   0  0  0  0  0  0  0  0  0  0  0  0
  150.1752  142.7645  158.1298 H   0  0  0  0  0  0  0  0  0  0  0  0
  152.5528  144.3347  157.0018 H   0  0  0  0  0  0  0  0  0  0  0  0
  150.9045  144.9148  157.0881 H   0  0  0  0  0  0  0  0  0  0  0  0
  152.3245  145.7690  158.9893 H   0  0  0  0  0  0  0  0  0  0  0  0
  150.9450  144.8475  159.5477 H   0  0  0  0  0  0  0  0  0  0  0  0
  153.8149  143.8341  159.2903 H   0  0  0  0  0  0  0  0  0  0  0  0
  152.9342  144.0881  160.7809 H   0  0  0  0  0  0  0  0  0  0  0  0
  152.9718  141.6624  160.1014 H   0  0  0  0  0  0  0  0  0  0  0  0
  151.3297  142.2692  160.1847 H   0  0  0  0  0  0  0  0  0  0  0  0
  150.1208  139.3043  157.2237 H   0  0  0  0  0  0  0  0  0  0  0  0
  149.0282  141.6451  156.5506 H   0  0  0  0  0  0  0  0  0  0  0  0
  1  2  1  0  0  0  0
  1 18  1  0  0  0  0
  1 19  1  0  0  0  0
  1 20  1  0  0  0  0
  2 17  2  0  0  0  0
  2  3  1  0  0  0  0
  3  4  2  0  0  0  0
  3 21  1  0  0  0  0
  4  5  1  0  0  0  0
  5  6  1  0  0  0  0
  5 17  1  0  0  0  0
  6  7  1  0  0  0  0
  6 22  1  0  0  0  0
  6 23  1  0  0  0  0
  7  8  1  0  0  0  0
  7  9  1  0  0  0  0
  7 24  1  0  0  0  0
  8 25  1  0  0  0  0
  8 26  1  0  0  0  0
  8 27  1  0  0  0  0
  9 10  1  0  0  0  0
  9 28  1  0  0  0  0
  9 41  1  0  0  0  0
 10 11  1  0  0  0  0
 10 29  1  0  0  0  0
 10 30  1  0  0  0  0
 11 16  1  0  0  0  0
 11 12  1  0  0  0  0
 11 31  1  0  0  0  0
 12 13  1  0  0  0  0
 12 32  1  0  0  0  0
 12 33  1  0  0  0  0
 13 14  1  0  0  0  0
 13 34  1  0  0  0  0
 13 35  1  0  0  0  0
 14 15  1  0  0  0  0
 14 36  1  0  0  0  0
 14 37  1  0  0  0  0
 15 16  1  0  0  0  0
 15 38  1  0  0  0  0
 15 39  1  0  0  0  0
 17 40  1  0  0  0  0
M  CHG  1   9   1
M  END
> <s_m_source_file>
AV-unprocessed.smi

> <i_m_source_file_index>
3161

> <i_lp_mmshare_version>
43012

> <i_f3d_flags>
0

> <s_epik_input>
W0NIM11jMVtjSF1ubihbY0hdMSlbQ0gyXVtDQEhdKFtDSDNdKVtOSF1bQ0gyXVtDQEBIXTJbQ0gyXVtDSDJdW0NIMl1bQ0gyXU8y

> <s_epik_cmdline>
J2VwaWtfcHl0aG9uJywgJy1waCcsICc3LjAnLCAnLXRuJywgJzgnLCAnLW1hJywgJzIwMCcsICctbWV0YWxfYmluZGluZycsICctaW1hZScsICc8aW5maWxlLm1hZT4nLCAnLW9tYWUnLCAnPG91dGZpbGUubWFlPic=

> <r_lp_tautomer_probability>
1

> <r_epik_Ionization_Penalty>
0.00849661

> <r_epik_Ionization_Penalty_Charging>
0.00848754

> <r_epik_Ionization_Penalty_Neutral>
9.06711e-06

> <r_epik_State_Penalty>
0.00639836

> <r_epik_Charging_Adjusted_Penalty>
0.0148859

> <i_epik_Tot_Q>
1

> <i_epik_Tot_abs_Q>
1

> <r_epik_Metal_State_Penalty>
0.00639921

> <b_epik_Metal_Only>
0

> <s_lp_Force_Field>
OPLS_2005

> <r_lp_Energy>
12.4763

> <b_lp_Chiralities_Consistent>
1

> <s_lp_Variant>
AV-unprocessed.smi:3161-2

> <Gold.Version>
5.8.1

> <Gold.Id.Protein>
6NUR|6NUR_protein|mol2

> <Gold.PLP.Fitness>
46.7482

> <Gold.PLP.PLP>
-40.1233

> <Gold.PLP.part.hbond>
-2.0000

> <Gold.PLP.part.metal>
0.0000

> <Gold.PLP.part.buried>
-2.3097

> <Gold.PLP.part.nonpolar>
-35.5842

> <Gold.PLP.part.repulsive>
0.2338

> <Gold.PLP.ligand.clash>
0.0000

> <Gold.PLP.ligand.torsion>
1.2261

> <Gold.PLP.Chemscore.Hbond>
3.0000

> <Gold.PLP.Chemscore.CHOScore>
0.0000

> <Gold.PLP.Chemscore.Metal>
0.0000

> <Gold.Chemscore.Hbonds>
donor molecule, donor type, donor heavy atom, donor atom, acceptor molecule, acceptor atom, score
      L1  H     9    28       P1  8028  2.00
      P1  H  7989  7998       L1     4  1.00

> <Gold.PLP.Chemscore.Internal.Correction>
0.0772

> <Gold.Rescore>
     Score         DG    S(hbond)    S(metal)    S(lipo)     H(rot)  DE(clash)    DE(int)     intcor
     19.84     -20.93       1.97        0.00     110.09       1.57       0.20       0.89       ----

> <Gold.Chemscore.Fitness>
19.8432

> <Gold.Chemscore.DG>
-20.9333

> <Gold.Chemscore.ZeroCoef>
-5.4800

> <Gold.Chemscore.Hbond>
1.9747

> <Gold.Chemscore.Metal>
0.0000

> <Gold.Chemscore.Lipo>
110.0893

> <Gold.Chemscore.Internal_Hbond>
0.0000

> <Gold.Chemscore.DEClash>
0.2014

> <Gold.Chemscore.DEInternal>
0.8886

> <Gold.Chemscore.Rot>
1.5714

> <Gold.Chemscore.Internal.Correction>
   9.000000E+99

> <Gold.Chemscore.Hbonds>
donor molecule, donor type, donor heavy atom, donor atom, acceptor molecule, acceptor atom, score
      L1  H     9    28       P1  8028  1.00
      P1  H  7989  7998       L1     4  0.38

> <Gold.Chemscore.Hbond.Weighted>
-6.5956

> <Gold.Chemscore.Metal.Weighted>
-0.0000

> <Gold.Chemscore.Lipo.Weighted>
-12.8804

> <Gold.Chemscore.Internal_Hbond.Weighted>
0.0000

> <Gold.Chemscore.DEClash.Weighted>
0.2014

> <Gold.Chemscore.DEInternal.Weighted>
0.8886

> <Gold.Chemscore.Rot.Weighted>
4.0228

> <Gold.Chemscore.Internal.Correction.Weighted>
   9.000000E+99

> <Gold.Protein.RotatedTorsions>
[ 6907 6896 6895 6894 ] final  -91.53 input  -60.11 | X-H torsion
[ 7974 7965 7964 7962 ] final   -4.46 input  175.53 | X-H torsion
[ 8008 7997 7996 7995 ] final  -35.80 input   59.86 | X-H torsion
[ 10167 10162 10161 10158 ] final  -86.85 input  -65.29 | X-H torsion
[ 10718 10713 10712 10709 ] final  -64.07 input   66.30 | X-H torsion
[ 10763 10752 10751 10750 ] final  -69.49 input  -60.55 | X-H torsion
[ 11005 11000 10999 10996 ] final -100.37 input  -57.11 | X-H torsion

> <Gold.Protein.ActiveResidues>
 VAL166  LYS551  ARG553  GLY616  TRP617  ASP618  TYR619  PRO620  LYS621  CYS622 
 ASP623  PHE694  ASN695  SER759  ASP760  ASP761  ALA762  ILE779  LEU786  VAL792 
 PHE793  MET794  SER795  GLU796  ALA797  LYS798  CYS799  TRP800  GLU811  SER814 

> <Gold.Protein.RotatedAtoms>
  150.6894  134.2263  159.4416 H   0  0  0  0  0  0  0  0  0  0  0  0  # atno 6907 bound_to 6896
  152.0217  134.9816  160.0580 H   0  0  0  0  0  0  0  0  0  0  0  0  # atno 6908 bound_to 6896
  152.1391  133.4418  159.4795 H   0  0  0  0  0  0  0  0  0  0  0  0  # atno 6909 bound_to 6896
  146.2372  140.1874  142.8332 H   0  0  0  0  0  0  0  0  0  0  0  0  # atno 7974 bound_to 7965
  154.4087  140.1648  156.2270 H   0  0  0  0  0  0  0  0  0  0  0  0  # atno 8008 bound_to 7997
  155.9315  140.3414  155.6230 H   0  0  0  0  0  0  0  0  0  0  0  0  # atno 8009 bound_to 7997
  155.7100  140.0755  157.2365 H   0  0  0  0  0  0  0  0  0  0  0  0  # atno 8010 bound_to 7997
  140.3901  143.2708  151.9275 H   0  0  0  0  0  0  0  0  0  0  0  0  # atno 10167 bound_to 10162
  156.0752  130.4228  150.1367 H   0  0  0  0  0  0  0  0  0  0  0  0  # atno 10718 bound_to 10713
  154.4042  135.6024  153.5915 H   0  0  0  0  0  0  0  0  0  0  0  0  # atno 10763 bound_to 10752
  152.9789  135.5914  154.4148 H   0  0  0  0  0  0  0  0  0  0  0  0  # atno 10764 bound_to 10752
  154.3951  135.2842  155.2109 H   0  0  0  0  0  0  0  0  0  0  0  0  # atno 10765 bound_to 10752
  141.1273  133.8394  157.1094 H   0  0  0  0  0  0  0  0  0  0  0  0  # atno 11005 bound_to 11000
  144.9885  140.8525  143.5354 LP  0  0  0  0  0  0  0  0  0  0  0  0  # atno 17320 bound_to 7965
  145.1877  139.2318  143.5259 LP  0  0  0  0  0  0  0  0  0  0  0  0  # atno 17321 bound_to 7965
  139.4789  144.5735  151.8049 LP  0  0  0  0  0  0  0  0  0  0  0  0  # atno 17342 bound_to 10162
  140.4848  144.1396  150.5939 LP  0  0  0  0  0  0  0  0  0  0  0  0  # atno 17343 bound_to 10162
  156.9410  130.9744  151.3516 LP  0  0  0  0  0  0  0  0  0  0  0  0  # atno 17370 bound_to 10713
  157.5843  130.8399  149.8567 LP  0  0  0  0  0  0  0  0  0  0  0  0  # atno 17371 bound_to 10713
  140.0284  134.9913  157.0732 LP  0  0  0  0  0  0  0  0  0  0  0  0  # atno 17394 bound_to 11000
  140.4325  134.1766  155.7169 LP  0  0  0  0  0  0  0  0  0  0  0  0  # atno 17395 bound_to 11000

$$$$
