AV-unprocessed.smi:653|AV-procd|sdf|3204|dock9
  -GOLD-   22720 0143D 1   1.00000     0.00000
 Structure written by MMmdl.
 44 45  0  0  0  0  0  0  0  0  1 V2000
  144.8644  131.3934  150.7783 C   0  0  0  0  0  0  0  0  0  0  0  0
  145.0715  132.8726  151.0278 C   0  0  0  0  0  0  0  0  0  0  0  0
  144.1157  133.8181  150.6003 C   0  0  0  0  0  0  0  0  0  0  0  0
  144.3621  135.1813  150.8527 C   0  0  0  0  0  0  0  0  0  0  0  0
  145.5504  135.5461  151.5192 C   0  0  0  0  0  0  0  0  0  0  0  0
  145.8662  137.0039  151.8119 C   0  0  0  0  0  0  0  0  0  0  0  0
  146.0332  137.2750  153.3119 C   0  0  0  0  0  0  0  0  0  0  0  0
  145.0567  137.3545  154.0591 O   0  0  0  0  0  0  0  0  0  0  0  0
  147.2964  137.4168  153.7404 N   0  0  0  0  0  0  0  0  0  0  0  0
  147.6864  137.7027  155.1168 C   0  0  0  0  0  0  0  0  0  0  0  0
  148.5719  138.9608  155.2123 C   0  0  2  0  0  0  0  0  0  0  0  0
  147.9565  140.2053  154.6017 C   0  0  0  0  0  0  0  0  0  0  0  0
  149.1802  141.0931  154.4084 C   0  0  0  0  0  0  0  0  0  0  0  0
  150.2508  140.2059  154.1026 O   0  0  0  0  0  0  0  0  0  0  0  0
  149.8870  138.8640  154.4239 C   0  0  1  0  0  0  0  0  0  0  0  0
  151.0486  138.1232  155.1261 C   0  0  0  0  0  0  0  0  0  0  0  0
  152.4287  138.4228  154.5124 C   0  0  0  0  0  0  0  0  0  0  0  0
  150.7907  136.6086  155.1573 C   0  0  0  0  0  0  0  0  0  0  0  0
  146.4401  134.5213  151.9058 C   0  0  0  0  0  0  0  0  0  0  0  0
  146.2127  133.2119  151.6670 N   0  0  0  0  0  0  0  0  0  0  0  0
  143.8239  131.1784  150.5335 H   0  0  0  0  0  0  0  0  0  0  0  0
  145.1311  130.8127  151.6621 H   0  0  0  0  0  0  0  0  0  0  0  0
  145.4874  131.0615  149.9476 H   0  0  0  0  0  0  0  0  0  0  0  0
  143.2147  133.5092  150.0909 H   0  0  0  0  0  0  0  0  0  0  0  0
  143.6508  135.9320  150.5412 H   0  0  0  0  0  0  0  0  0  0  0  0
  146.7809  137.2936  151.2936 H   0  0  0  0  0  0  0  0  0  0  0  0
  145.0654  137.6295  151.4150 H   0  0  0  0  0  0  0  0  0  0  0  0
  148.0404  137.3322  153.0630 H   0  0  0  0  0  0  0  0  0  0  0  0
  146.7964  137.8162  155.7378 H   0  0  0  0  0  0  0  0  0  0  0  0
  148.2208  136.8348  155.5044 H   0  0  0  0  0  0  0  0  0  0  0  0
  148.7825  139.1755  156.2594 H   0  0  0  0  0  0  0  0  0  0  0  0
  147.5043  139.9761  153.6355 H   0  0  0  0  0  0  0  0  0  0  0  0
  147.1976  140.6648  155.2357 H   0  0  0  0  0  0  0  0  0  0  0  0
  149.0392  141.8365  153.6236 H   0  0  0  0  0  0  0  0  0  0  0  0
  149.4186  141.6171  155.3348 H   0  0  0  0  0  0  0  0  0  0  0  0
  149.6731  138.3697  153.4744 H   0  0  0  0  0  0  0  0  0  0  0  0
  151.0738  138.4587  156.1632 H   0  0  0  0  0  0  0  0  0  0  0  0
  152.4662  138.1453  153.4587 H   0  0  0  0  0  0  0  0  0  0  0  0
  153.2114  137.8639  155.0262 H   0  0  0  0  0  0  0  0  0  0  0  0
  152.6917  139.4769  154.5899 H   0  0  0  0  0  0  0  0  0  0  0  0
  150.7489  136.1924  154.1504 H   0  0  0  0  0  0  0  0  0  0  0  0
  149.8464  136.3792  155.6515 H   0  0  0  0  0  0  0  0  0  0  0  0
  151.5788  136.0860  155.7001 H   0  0  0  0  0  0  0  0  0  0  0  0
  147.3602  134.7573  152.4199 H   0  0  0  0  0  0  0  0  0  0  0  0
  1  2  1  0  0  0  0
  1 21  1  0  0  0  0
  1 22  1  0  0  0  0
  1 23  1  0  0  0  0
  2 20  1  0  0  0  0
  2  3  2  0  0  0  0
  3  4  1  0  0  0  0
  3 24  1  0  0  0  0
  4  5  2  0  0  0  0
  4 25  1  0  0  0  0
  5  6  1  0  0  0  0
  5 19  1  0  0  0  0
  6  7  1  0  0  0  0
  6 26  1  0  0  0  0
  6 27  1  0  0  0  0
  7  8  2  0  0  0  0
  7  9  1  0  0  0  0
  9 10  1  0  0  0  0
  9 28  1  0  0  0  0
 10 11  1  0  0  0  0
 10 29  1  0  0  0  0
 10 30  1  0  0  0  0
 11 15  1  0  0  0  0
 11 12  1  0  0  0  0
 11 31  1  0  0  0  0
 12 13  1  0  0  0  0
 12 32  1  0  0  0  0
 12 33  1  0  0  0  0
 13 14  1  0  0  0  0
 13 34  1  0  0  0  0
 13 35  1  0  0  0  0
 14 15  1  0  0  0  0
 15 16  1  0  0  0  0
 15 36  1  0  0  0  0
 16 17  1  0  0  0  0
 16 18  1  0  0  0  0
 16 37  1  0  0  0  0
 17 38  1  0  0  0  0
 17 39  1  0  0  0  0
 17 40  1  0  0  0  0
 18 41  1  0  0  0  0
 18 42  1  0  0  0  0
 18 43  1  0  0  0  0
 19 20  2  0  0  0  0
 19 44  1  0  0  0  0
M  END
> <s_m_source_file>
AV-unprocessed.smi

> <i_m_source_file_index>
653

> <i_lp_mmshare_version>
43012

> <i_f3d_flags>
0

> <s_epik_input>
W0NIM11jMVtjSF1bY0hdYyhbY0hdbjEpW0NIMl1DKD1PKVtOSF1bQ0gyXVtDQEBIXTJbQ0gyXVtDSDJdT1tDQEhdMltDSF0oW0NIM10pW0NIM10=

> <s_epik_cmdline>
J2VwaWtfcHl0aG9uJywgJy1waCcsICc3LjAnLCAnLXRuJywgJzgnLCAnLW1hJywgJzIwMCcsICctbWV0YWxfYmluZGluZycsICctaW1hZScsICc8aW5maWxlLm1hZT4nLCAnLW9tYWUnLCAnPG91dGZpbGUubWFlPic=

> <r_epik_Ionization_Penalty>
0.0166429

> <r_epik_Ionization_Penalty_Charging>
0

> <r_epik_Ionization_Penalty_Neutral>
0.0166429

> <r_epik_State_Penalty>
0.0131478

> <r_epik_Charging_Adjusted_Penalty>
0.0131478

> <i_epik_Tot_Q>
0

> <i_epik_Tot_abs_Q>
0

> <r_epik_Metal_State_Penalty>
0.012786

> <b_epik_Metal_Only>
0

> <s_lp_Force_Field>
OPLS_2005

> <r_lp_Energy>
19.6488

> <b_lp_Chiralities_Consistent>
1

> <s_lp_Variant>
AV-unprocessed.smi:653-1

> <Gold.Version>
5.8.1

> <Gold.Id.Protein>
6NUR|6NUR_protein|mol2

> <Gold.PLP.Fitness>
41.0907

> <Gold.PLP.PLP>
-33.2623

> <Gold.PLP.part.hbond>
-2.0000

> <Gold.PLP.part.metal>
0.0000

> <Gold.PLP.part.buried>
-4.1584

> <Gold.PLP.part.nonpolar>
-28.5340

> <Gold.PLP.part.repulsive>
1.1263

> <Gold.PLP.ligand.clash>
0.0000

> <Gold.PLP.ligand.torsion>
0.4834

> <Gold.PLP.Chemscore.Hbond>
1.9520

> <Gold.PLP.Chemscore.CHOScore>
0.9687

> <Gold.PLP.Chemscore.Metal>
0.0000

> <Gold.Chemscore.Hbonds>
donor molecule, donor type, donor heavy atom, donor atom, acceptor molecule, acceptor atom, score
      L1  H     9    28       P1  7948  0.96
      P1  H  7989  7998       L1    14  0.96
      L1  C    19    44       P1  7948  0.97

> <Gold.PLP.Chemscore.Internal.Correction>
0.0332

> <Gold.Rescore>
     Score         DG    S(hbond)    S(metal)    S(lipo)     H(rot)  DE(clash)    DE(int)     intcor
     17.88     -18.16       1.87        0.00      87.62       1.48       0.03       0.25       ----

> <Gold.Chemscore.Fitness>
17.8803

> <Gold.Chemscore.DG>
-18.1607

> <Gold.Chemscore.ZeroCoef>
-5.4800

> <Gold.Chemscore.Hbond>
1.8655

> <Gold.Chemscore.Metal>
0.0000

> <Gold.Chemscore.Lipo>
87.6197

> <Gold.Chemscore.Internal_Hbond>
0.0000

> <Gold.Chemscore.DEClash>
0.0285

> <Gold.Chemscore.DEInternal>
0.2520

> <Gold.Chemscore.Rot>
1.4850

> <Gold.Chemscore.Internal.Correction>
   9.000000E+99

> <Gold.Chemscore.Hbonds>
donor molecule, donor type, donor heavy atom, donor atom, acceptor molecule, acceptor atom, score
      L1  H     9    28       P1  7948  0.92
      P1  H  7989  7998       L1    14  0.87

> <Gold.Chemscore.Hbond.Weighted>
-6.2307

> <Gold.Chemscore.Metal.Weighted>
-0.0000

> <Gold.Chemscore.Lipo.Weighted>
-10.2515

> <Gold.Chemscore.Internal_Hbond.Weighted>
0.0000

> <Gold.Chemscore.DEClash.Weighted>
0.0285

> <Gold.Chemscore.DEInternal.Weighted>
0.2520

> <Gold.Chemscore.Rot.Weighted>
3.8015

> <Gold.Chemscore.Internal.Correction.Weighted>
   9.000000E+99

> <Gold.Protein.RotatedTorsions>
[ 6907 6896 6895 6894 ] final  -31.98 input  -60.11 | X-H torsion
[ 7974 7965 7964 7962 ] final -168.87 input  175.53 | X-H torsion
[ 8008 7997 7996 7995 ] final  -55.59 input   59.86 | X-H torsion
[ 10167 10162 10161 10158 ] final  -70.05 input  -65.29 | X-H torsion
[ 10718 10713 10712 10709 ] final -124.72 input   66.30 | X-H torsion
[ 10763 10752 10751 10750 ] final  -38.81 input  -60.55 | X-H torsion
[ 11005 11000 10999 10996 ] final  -70.73 input  -57.11 | X-H torsion

> <Gold.Protein.ActiveResidues>
 VAL166  LYS551  ARG553  GLY616  TRP617  ASP618  TYR619  PRO620  LYS621  CYS622 
 ASP623  PHE694  ASN695  SER759  ASP760  ASP761  ALA762  ILE779  LEU786  VAL792 
 PHE793  MET794  SER795  GLU796  ALA797  LYS798  CYS799  TRP800  GLU811  SER814 

> <Gold.Protein.RotatedAtoms>
  151.0849  134.9881  159.8373 H   0  0  0  0  0  0  0  0  0  0  0  0  # atno 6907 bound_to 6896
  152.5423  134.2137  159.8770 H   0  0  0  0  0  0  0  0  0  0  0  0  # atno 6908 bound_to 6896
  151.2169  133.4480  159.2633 H   0  0  0  0  0  0  0  0  0  0  0  0  # atno 6909 bound_to 6896
  144.7195  140.2305  143.6304 H   0  0  0  0  0  0  0  0  0  0  0  0  # atno 7974 bound_to 7965
  154.4200  140.1149  156.5500 H   0  0  0  0  0  0  0  0  0  0  0  0  # atno 8008 bound_to 7997
  155.6419  140.3496  155.4699 H   0  0  0  0  0  0  0  0  0  0  0  0  # atno 8009 bound_to 7997
  155.9863  140.1170  157.0669 H   0  0  0  0  0  0  0  0  0  0  0  0  # atno 8010 bound_to 7997
  140.5383  143.2316  151.7137 H   0  0  0  0  0  0  0  0  0  0  0  0  # atno 10167 bound_to 10162
  156.1613  130.6603  151.0053 H   0  0  0  0  0  0  0  0  0  0  0  0  # atno 10718 bound_to 10713
  153.9189  135.6784  153.4748 H   0  0  0  0  0  0  0  0  0  0  0  0  # atno 10763 bound_to 10752
  153.1039  135.4815  154.8913 H   0  0  0  0  0  0  0  0  0  0  0  0  # atno 10764 bound_to 10752
  154.7488  135.3179  154.8552 H   0  0  0  0  0  0  0  0  0  0  0  0  # atno 10765 bound_to 10752
  141.1579  133.6798  156.6797 H   0  0  0  0  0  0  0  0  0  0  0  0  # atno 11005 bound_to 11000
  145.8415  139.2132  143.1825 LP  0  0  0  0  0  0  0  0  0  0  0  0  # atno 17320 bound_to 7965
  146.0342  140.8228  142.9861 LP  0  0  0  0  0  0  0  0  0  0  0  0  # atno 17321 bound_to 7965
  139.4979  144.4009  152.0182 LP  0  0  0  0  0  0  0  0  0  0  0  0  # atno 17342 bound_to 10162
  140.3116  144.3531  150.6032 LP  0  0  0  0  0  0  0  0  0  0  0  0  # atno 17343 bound_to 10162
  157.6734  131.0856  150.7555 LP  0  0  0  0  0  0  0  0  0  0  0  0  # atno 17370 bound_to 10713
  156.7618  130.4801  149.5435 LP  0  0  0  0  0  0  0  0  0  0  0  0  # atno 17371 bound_to 10713
  140.3112  134.8084  157.4177 LP  0  0  0  0  0  0  0  0  0  0  0  0  # atno 17394 bound_to 11000
  140.1177  134.5261  155.8210 LP  0  0  0  0  0  0  0  0  0  0  0  0  # atno 17395 bound_to 11000

$$$$
