AV-unprocessed.smi:21|AV-procd|sdf|140|dock4
  -GOLD-   2262015343D 1   1.00000     0.00000
 Structure written by MMmdl.
 62 65  0  0  0  0  0  0  0  0  2 V2000
  143.7201  132.6220  148.1698 C   0  0  0  0  0  0  0  0  0  0  0  0
  144.0699  131.8957  149.3368 O   0  0  0  0  0  0  0  0  0  0  0  0
  144.6765  132.6960  150.3402 C   0  0  2  0  0  0  0  0  0  0  0  0
  145.5238  131.8371  151.2679 C   0  0  0  0  0  0  0  0  0  0  0  0
  145.6231  132.6938  152.5336 C   0  0  2  0  0  0  0  0  0  0  0  0
  145.9478  131.8942  153.8113 C   0  0  0  0  0  0  0  0  0  0  0  0
  147.2834  131.2914  153.7739 N   0  0  0  0  0  0  0  0  0  0  0  0
  147.3943  129.9262  153.2741 C   0  0  0  0  0  0  0  0  0  0  0  0
  148.3402  131.8784  154.4110 C   0  0  0  0  0  0  0  0  0  0  0  0
  149.4305  131.1135  154.6893 N   0  0  0  0  0  0  0  0  0  0  0  0
  150.4958  131.6276  155.3082 C   0  0  0  0  0  0  0  0  0  0  0  0
  150.6861  132.8735  155.7385 N   0  0  0  0  0  0  0  0  0  0  0  0
  149.6025  133.6554  155.4718 C   0  0  0  0  0  0  0  0  0  0  0  0
  148.4010  133.2490  154.8186 C   0  0  0  0  0  0  0  0  0  0  0  0
  147.5420  134.3412  154.7255 N   0  0  0  0  0  0  0  0  0  0  0  0
  148.1898  135.3222  155.2900 C   0  0  0  0  0  0  0  0  0  0  0  0
  149.4340  134.9946  155.7738 N   0  0  0  0  0  0  0  0  0  0  0  0
  150.3703  135.8785  156.4447 C   0  0  0  0  0  0  0  0  0  0  0  0
  150.2536  137.3602  155.9921 C   0  0  2  0  0  0  0  0  0  0  0  0
  150.6600  137.5657  154.5124 C   0  0  0  0  0  0  0  0  0  0  0  0
  151.8395  136.8618  154.1825 O   0  0  0  0  0  0  0  0  0  0  0  0
  151.0347  138.3460  156.9018 C   0  0  2  0  0  0  0  0  0  0  0  0
  150.9065  139.8246  156.5829 C   0  0  0  0  0  0  0  0  0  0  0  0
  152.0456  140.4090  157.4119 C   0  0  0  0  0  0  0  0  0  0  0  0
  153.0726  139.4209  157.4058 O   0  0  0  0  0  0  0  0  0  0  0  0
  152.5562  138.1726  156.9493 C   0  0  0  0  0  0  0  0  0  0  0  0
  144.3088  133.3718  152.6357 N   0  3  1  0  0  0  0  0  0  0  0  0
  144.3684  134.7238  153.2331 C   0  0  0  0  0  0  0  0  0  0  0  0
  143.6654  133.3361  151.3003 C   0  0  0  0  0  0  0  0  0  0  0  0
  145.3128  133.4636  149.8951 H   0  0  0  0  0  0  0  0  0  0  0  0
  146.3890  133.4539  152.3673 H   0  0  0  0  0  0  0  0  0  0  0  0
  143.2800  131.9448  147.4377 H   0  0  0  0  0  0  0  0  0  0  0  0
  144.5977  133.0827  147.7145 H   0  0  0  0  0  0  0  0  0  0  0  0
  142.9881  133.4008  148.3858 H   0  0  0  0  0  0  0  0  0  0  0  0
  145.0010  130.9040  151.4831 H   0  0  0  0  0  0  0  0  0  0  0  0
  146.4971  131.5879  150.8441 H   0  0  0  0  0  0  0  0  0  0  0  0
  145.9205  132.5668  154.6690 H   0  0  0  0  0  0  0  0  0  0  0  0
  145.1667  131.1607  154.0106 H   0  0  0  0  0  0  0  0  0  0  0  0
  147.5278  129.2235  154.0970 H   0  0  0  0  0  0  0  0  0  0  0  0
  148.2350  129.8326  152.5862 H   0  0  0  0  0  0  0  0  0  0  0  0
  146.4947  129.6335  152.7322 H   0  0  0  0  0  0  0  0  0  0  0  0
  151.3118  130.9422  155.4846 H   0  0  0  0  0  0  0  0  0  0  0  0
  147.7721  136.3148  155.3761 H   0  0  0  0  0  0  0  0  0  0  0  0
  150.1922  135.7755  157.5135 H   0  0  0  0  0  0  0  0  0  0  0  0
  151.3777  135.5028  156.2648 H   0  0  0  0  0  0  0  0  0  0  0  0
  149.2064  137.6545  156.0801 H   0  0  0  0  0  0  0  0  0  0  0  0
  149.8803  137.1981  153.8450 H   0  0  0  0  0  0  0  0  0  0  0  0
  150.7917  138.6249  154.2887 H   0  0  0  0  0  0  0  0  0  0  0  0
  151.8841  136.7722  153.2428 H   0  0  0  0  0  0  0  0  0  0  0  0
  150.6846  138.2042  157.9260 H   0  0  0  0  0  0  0  0  0  0  0  0
  151.0897  140.0237  155.5273 H   0  0  0  0  0  0  0  0  0  0  0  0
  149.9339  140.2402  156.8478 H   0  0  0  0  0  0  0  0  0  0  0  0
  152.4038  141.3608  157.0187 H   0  0  0  0  0  0  0  0  0  0  0  0
  151.7227  140.5685  158.4415 H   0  0  0  0  0  0  0  0  0  0  0  0
  152.8568  137.3581  157.6086 H   0  0  0  0  0  0  0  0  0  0  0  0
  152.9821  137.9770  155.9669 H   0  0  0  0  0  0  0  0  0  0  0  0
  144.9548  135.4028  152.6125 H   0  0  0  0  0  0  0  0  0  0  0  0
  144.8209  134.6882  154.2245 H   0  0  0  0  0  0  0  0  0  0  0  0
  143.3647  135.1372  153.3383 H   0  0  0  0  0  0  0  0  0  0  0  0
  143.3482  134.3204  150.9524 H   0  0  0  0  0  0  0  0  0  0  0  0
  142.7730  132.7143  151.3814 H   0  0  0  0  0  0  0  0  0  0  0  0
  143.7336  132.8014  153.2392 H   0  0  0  0  0  0  0  0  0  0  0  0
  1  2  1  0  0  0  0
  1 32  1  0  0  0  0
  1 33  1  0  0  0  0
  1 34  1  0  0  0  0
  2  3  1  0  0  0  0
  3 30  1  0  0  0  0
  3 29  1  0  0  0  0
  3  4  1  0  0  0  0
  4  5  1  0  0  0  0
  4 35  1  0  0  0  0
  4 36  1  0  0  0  0
  5 31  1  0  0  0  0
  5  6  1  0  0  0  0
  5 27  1  0  0  0  0
  6  7  1  0  0  0  0
  6 37  1  0  0  0  0
  6 38  1  0  0  0  0
  7  8  1  0  0  0  0
  7  9  1  0  0  0  0
  8 39  1  0  0  0  0
  8 40  1  0  0  0  0
  8 41  1  0  0  0  0
  9 14  1  0  0  0  0
  9 10  2  0  0  0  0
 10 11  1  0  0  0  0
 11 12  2  0  0  0  0
 11 42  1  0  0  0  0
 12 13  1  0  0  0  0
 13 17  1  0  0  0  0
 13 14  2  0  0  0  0
 14 15  1  0  0  0  0
 15 16  2  0  0  0  0
 16 17  1  0  0  0  0
 16 43  1  0  0  0  0
 17 18  1  0  0  0  0
 18 19  1  0  0  0  0
 18 44  1  0  0  0  0
 18 45  1  0  0  0  0
 19 20  1  0  0  0  0
 19 22  1  0  0  0  0
 19 46  1  0  0  0  0
 20 21  1  0  0  0  0
 20 47  1  0  0  0  0
 20 48  1  0  0  0  0
 21 49  1  0  0  0  0
 22 26  1  0  0  0  0
 22 23  1  0  0  0  0
 22 50  1  0  0  0  0
 23 24  1  0  0  0  0
 23 51  1  0  0  0  0
 23 52  1  0  0  0  0
 24 25  1  0  0  0  0
 24 53  1  0  0  0  0
 24 54  1  0  0  0  0
 25 26  1  0  0  0  0
 26 55  1  0  0  0  0
 26 56  1  0  0  0  0
 27 28  1  0  0  0  0
 27 29  1  0  0  0  0
 27 62  1  0  0  0  0
 28 57  1  0  0  0  0
 28 58  1  0  0  0  0
 28 59  1  0  0  0  0
 29 60  1  0  0  0  0
 29 61  1  0  0  0  0
M  CHG  1  27   1
M  END
> <s_m_source_file>
AV-unprocessed.smi

> <i_m_source_file_index>
21

> <i_lp_mmshare_version>
43012

> <i_f3d_flags>
0

> <s_epik_input>
W0NIM11PW0NASF0xW0NIMl1bQ0BIXShOKFtDSDNdKVtDSDJdMSlbQ0gyXU4oW0NIM10pYyhuW2NIXW4yKWMoYzIzKW5bY0hdbjNbQ0gyXVtDQEhdKFtDSDJdW09IXSlbQ0BASF00W0NIMl1bQ0gyXU9bQ0gyXTQ=

> <s_epik_cmdline>
J2VwaWtfcHl0aG9uJywgJy1waCcsICc3LjAnLCAnLXRuJywgJzgnLCAnLW1hJywgJzIwMCcsICctbWV0YWxfYmluZGluZycsICctaW1hZScsICc8aW5maWxlLm1hZT4nLCAnLW9tYWUnLCAnPG91dGZpbGUubWFlPic=

> <r_lp_tautomer_probability>
1

> <r_epik_Ionization_Penalty>
0.0157465

> <r_epik_Ionization_Penalty_Charging>
0.015354

> <r_epik_Ionization_Penalty_Neutral>
0.000392529

> <r_epik_State_Penalty>
0.0120612

> <r_epik_Charging_Adjusted_Penalty>
0.0274152

> <i_epik_Tot_Q>
1

> <i_epik_Tot_abs_Q>
1

> <r_epik_Metal_State_Penalty>
0.0121253

> <b_epik_Metal_Only>
0

> <s_lp_Force_Field>
OPLS_2005

> <r_lp_Energy>
59.0143

> <b_lp_Chiralities_Consistent>
1

> <s_lp_Variant>
AV-unprocessed.smi:21-20

> <Gold.Version>
5.8.1

> <Gold.Id.Protein>
6NUR|6NUR_protein|mol2

> <Gold.PLP.Fitness>
55.3583

> <Gold.PLP.PLP>
-40.3057

> <Gold.PLP.part.hbond>
-4.9952

> <Gold.PLP.part.metal>
0.0000

> <Gold.PLP.part.buried>
-7.8189

> <Gold.PLP.part.nonpolar>
-30.1454

> <Gold.PLP.part.repulsive>
0.3293

> <Gold.PLP.ligand.clash>
0.0000

> <Gold.PLP.ligand.torsion>
1.3542

> <Gold.PLP.Chemscore.Hbond>
5.7041

> <Gold.PLP.Chemscore.CHOScore>
0.0000

> <Gold.PLP.Chemscore.Metal>
0.0000

> <Gold.Chemscore.Hbonds>
donor molecule, donor type, donor heavy atom, donor atom, acceptor molecule, acceptor atom, score
      L1  H    21    49       P1  7949  0.98
      L1  H    27    62       P1 10957  1.50
      P1  H  7997  8010       L1    25  1.00
      P1  H 10752 10765       L1    21  0.70
      P1  H 10785 10796       L1     2  0.54

> <Gold.PLP.Chemscore.Internal.Correction>
0.6488

> <Gold.Rescore>
     Score         DG    S(hbond)    S(metal)    S(lipo)     H(rot)  DE(clash)    DE(int)     intcor
     16.48     -18.67       3.04        0.00      93.37       3.08       0.14       2.05       ----

> <Gold.Chemscore.Fitness>
16.4775

> <Gold.Chemscore.DG>
-18.6742

> <Gold.Chemscore.ZeroCoef>
-5.4800

> <Gold.Chemscore.Hbond>
3.0371

> <Gold.Chemscore.Metal>
0.0000

> <Gold.Chemscore.Lipo>
93.3702

> <Gold.Chemscore.Internal_Hbond>
0.0000

> <Gold.Chemscore.DEClash>
0.1447

> <Gold.Chemscore.DEInternal>
2.0520

> <Gold.Chemscore.Rot>
3.0758

> <Gold.Chemscore.Internal.Correction>
   9.000000E+99

> <Gold.Chemscore.Hbonds>
donor molecule, donor type, donor heavy atom, donor atom, acceptor molecule, acceptor atom, score
      L1  H    21    49       P1  7949  0.87
      L1  H    27    62       P1 10957  0.36
      P1  H  7997  8010       L1    25  0.69
      P1  H 10752 10765       L1    21  0.07
      P1  H 10785 10796       L1     2  0.07

> <Gold.Chemscore.Hbond.Weighted>
-10.1440

> <Gold.Chemscore.Metal.Weighted>
-0.0000

> <Gold.Chemscore.Lipo.Weighted>
-10.9243

> <Gold.Chemscore.Internal_Hbond.Weighted>
0.0000

> <Gold.Chemscore.DEClash.Weighted>
0.1447

> <Gold.Chemscore.DEInternal.Weighted>
2.0520

> <Gold.Chemscore.Rot.Weighted>
7.8741

> <Gold.Chemscore.Internal.Correction.Weighted>
   9.000000E+99

> <Gold.Protein.RotatedTorsions>
[ 6907 6896 6895 6894 ] final -144.77 input  -60.11 | X-H torsion
[ 7974 7965 7964 7962 ] final  -42.96 input  175.53 | X-H torsion
[ 8008 7997 7996 7995 ] final   51.42 input   59.86 | X-H torsion
[ 10167 10162 10161 10158 ] final  173.26 input  -65.29 | X-H torsion
[ 10718 10713 10712 10709 ] final  131.43 input   66.30 | X-H torsion
[ 10763 10752 10751 10750 ] final  173.24 input  -60.55 | X-H torsion
[ 11005 11000 10999 10996 ] final  168.44 input  -57.11 | X-H torsion

> <Gold.Protein.ActiveResidues>
 VAL166  LYS551  ARG553  GLY616  TRP617  ASP618  TYR619  PRO620  LYS621  CYS622 
 ASP623  PHE694  ASN695  SER759  ASP760  ASP761  ALA762  ILE779  LEU786  VAL792 
 PHE793  MET794  SER795  GLU796  ALA797  LYS798  CYS799  TRP800  GLU811  SER814 

> <Gold.Protein.RotatedAtoms>
  151.1186  133.5121  159.2602 H   0  0  0  0  0  0  0  0  0  0  0  0  # atno 6907 bound_to 6896
  151.1887  135.0392  159.8833 H   0  0  0  0  0  0  0  0  0  0  0  0  # atno 6908 bound_to 6896
  152.5454  134.1029  159.8379 H   0  0  0  0  0  0  0  0  0  0  0  0  # atno 6909 bound_to 6896
  146.0065  140.7014  142.9245 H   0  0  0  0  0  0  0  0  0  0  0  0  # atno 7974 bound_to 7965
  155.4349  140.3452  155.4284 H   0  0  0  0  0  0  0  0  0  0  0  0  # atno 8008 bound_to 7997
  156.1314  140.1515  156.9090 H   0  0  0  0  0  0  0  0  0  0  0  0  # atno 8009 bound_to 7997
  154.4897  140.0844  156.7547 H   0  0  0  0  0  0  0  0  0  0  0  0  # atno 8010 bound_to 7997
  139.5102  144.3281  152.0138 H   0  0  0  0  0  0  0  0  0  0  0  0  # atno 10167 bound_to 10162
  157.4968  131.1093  150.9481 H   0  0  0  0  0  0  0  0  0  0  0  0  # atno 10718 bound_to 10713
  154.4373  135.2761  155.1871 H   0  0  0  0  0  0  0  0  0  0  0  0  # atno 10763 bound_to 10752
  154.3752  135.6100  153.5765 H   0  0  0  0  0  0  0  0  0  0  0  0  # atno 10764 bound_to 10752
  152.9839  135.5867  154.4695 H   0  0  0  0  0  0  0  0  0  0  0  0  # atno 10765 bound_to 10752
  140.2872  134.7702  157.3808 H   0  0  0  0  0  0  0  0  0  0  0  0  # atno 11005 bound_to 11000
  144.6937  140.3324  143.7213 LP  0  0  0  0  0  0  0  0  0  0  0  0  # atno 17320 bound_to 7965
  145.7407  139.1763  143.2377 LP  0  0  0  0  0  0  0  0  0  0  0  0  # atno 17321 bound_to 7965
  140.2721  144.3953  150.6148 LP  0  0  0  0  0  0  0  0  0  0  0  0  # atno 17342 bound_to 10162
  140.6081  143.2168  151.6941 LP  0  0  0  0  0  0  0  0  0  0  0  0  # atno 17343 bound_to 10162
  157.0165  130.5657  149.5326 LP  0  0  0  0  0  0  0  0  0  0  0  0  # atno 17370 bound_to 10713
  156.0205  130.5300  150.8262 LP  0  0  0  0  0  0  0  0  0  0  0  0  # atno 17371 bound_to 10713
  140.1228  134.5197  155.8169 LP  0  0  0  0  0  0  0  0  0  0  0  0  # atno 17394 bound_to 11000
  141.2152  133.6762  156.6898 LP  0  0  0  0  0  0  0  0  0  0  0  0  # atno 17395 bound_to 11000

$$$$
