AV-unprocessed.smi:738|AV-procd|sdf|3539|dock6
  -GOLD-   22720 0533D 1   1.00000     0.00000
 Structure written by MMmdl.
 35 37  0  0  0  0  0  0  0  0  1 V2000
  150.3033  138.3821  153.4315 N   0  0  0  0  0  0  0  0  0  0  0  0
  150.9133  137.7114  154.4135 C   0  0  0  0  0  0  0  0  0  0  0  0
  151.2508  136.5349  154.2972 O   0  0  0  0  0  0  0  0  0  0  0  0
  151.2300  138.4943  155.6548 C   0  0  0  0  0  0  0  0  0  0  0  0
  151.2915  139.9046  155.6181 C   0  0  0  0  0  0  0  0  0  0  0  0
  151.5898  140.6663  156.6918 N   0  0  0  0  0  0  0  0  0  0  0  0
  151.8567  140.0505  157.8685 C   0  0  0  0  0  0  0  0  0  0  0  0
  152.1631  140.8555  158.9783 N   0  0  0  0  0  0  0  0  0  0  0  0
  153.4869  140.5779  159.5377 C   0  0  0  0  0  0  0  0  0  0  0  0
  153.7622  141.4521  160.7861 C   0  0  0  0  0  0  0  0  0  0  0  0
  153.5431  142.8383  160.5042 O   0  0  0  0  0  0  0  0  0  0  0  0
  152.2097  143.0376  160.0553 C   0  0  1  0  0  0  0  0  0  0  0  0
  151.8231  144.4641  159.6749 C   0  0  0  0  0  0  0  0  0  0  0  0
  150.6578  144.2819  158.6786 C   0  0  0  0  0  0  0  0  0  0  0  0
  150.6522  142.7926  158.2751 C   0  0  0  0  0  0  0  0  0  0  0  0
  152.0169  142.2865  158.7466 C   0  0  2  0  0  0  0  0  0  0  0  0
  151.8338  138.6433  158.0076 C   0  0  0  0  0  0  0  0  0  0  0  0
  152.1782  137.8776  159.5189 Cl  0  0  0  0  0  0  0  0  0  0  0  0
  151.5197  137.8570  156.8821 C   0  0  0  0  0  0  0  0  0  0  0  0
  150.0715  137.9069  152.5712 H   0  0  0  0  0  0  0  0  0  0  0  0
  150.0809  139.3598  153.5477 H   0  0  0  0  0  0  0  0  0  0  0  0
  151.0913  140.4454  154.7046 H   0  0  0  0  0  0  0  0  0  0  0  0
  153.5617  139.5213  159.7979 H   0  0  0  0  0  0  0  0  0  0  0  0
  154.2512  140.7758  158.7847 H   0  0  0  0  0  0  0  0  0  0  0  0
  153.1238  141.1420  161.6149 H   0  0  0  0  0  0  0  0  0  0  0  0
  154.7917  141.3167  161.1176 H   0  0  0  0  0  0  0  0  0  0  0  0
  151.5075  142.6763  160.8108 H   0  0  0  0  0  0  0  0  0  0  0  0
  151.5491  145.0667  160.5412 H   0  0  0  0  0  0  0  0  0  0  0  0
  152.6600  144.9560  159.1772 H   0  0  0  0  0  0  0  0  0  0  0  0
  149.7047  144.5548  159.1329 H   0  0  0  0  0  0  0  0  0  0  0  0
  150.7997  144.9245  157.8091 H   0  0  0  0  0  0  0  0  0  0  0  0
  149.8521  142.2703  158.8021 H   0  0  0  0  0  0  0  0  0  0  0  0
  150.4989  142.6480  157.2053 H   0  0  0  0  0  0  0  0  0  0  0  0
  152.7781  142.6129  158.0347 H   0  0  0  0  0  0  0  0  0  0  0  0
  151.5070  136.7805  156.9694 H   0  0  0  0  0  0  0  0  0  0  0  0
  1  2  1  0  0  0  0
  1 20  1  0  0  0  0
  1 21  1  0  0  0  0
  2  3  2  0  0  0  0
  2  4  1  0  0  0  0
  4 19  1  0  0  0  0
  4  5  2  0  0  0  0
  5  6  1  0  0  0  0
  5 22  1  0  0  0  0
  6  7  2  0  0  0  0
  7  8  1  0  0  0  0
  7 17  1  0  0  0  0
  8 16  1  0  0  0  0
  8  9  1  0  0  0  0
  9 10  1  0  0  0  0
  9 23  1  0  0  0  0
  9 24  1  0  0  0  0
 10 11  1  0  0  0  0
 10 25  1  0  0  0  0
 10 26  1  0  0  0  0
 11 12  1  0  0  0  0
 12 16  1  0  0  0  0
 12 13  1  0  0  0  0
 12 27  1  0  0  0  0
 13 14  1  0  0  0  0
 13 28  1  0  0  0  0
 13 29  1  0  0  0  0
 14 15  1  0  0  0  0
 14 30  1  0  0  0  0
 14 31  1  0  0  0  0
 15 16  1  0  0  0  0
 15 32  1  0  0  0  0
 15 33  1  0  0  0  0
 16 34  1  0  0  0  0
 17 18  1  0  0  0  0
 17 19  2  0  0  0  0
 19 35  1  0  0  0  0
M  END
> <s_m_source_file>
AV-unprocessed.smi

> <i_m_source_file_index>
738

> <i_lp_mmshare_version>
43012

> <i_f3d_flags>
0

> <s_epik_input>
W05IMl1DKD1PKWMxW2NIXW5jKGMoQ2wpW2NIXTEpTihbQ0gyXVtDSDJdTzIpW0NASF0oW0NASF0yMylbQ0gyXVtDSDJdW0NIMl0z

> <s_epik_cmdline>
J2VwaWtfcHl0aG9uJywgJy1waCcsICc3LjAnLCAnLXRuJywgJzgnLCAnLW1hJywgJzIwMCcsICctbWV0YWxfYmluZGluZycsICctaW1hZScsICc8aW5maWxlLm1hZT4nLCAnLW9tYWUnLCAnPG91dGZpbGUubWFlPic=

> <r_lp_tautomer_probability>
1

> <r_epik_Ionization_Penalty>
6.75978e-06

> <r_epik_Ionization_Penalty_Charging>
0

> <r_epik_Ionization_Penalty_Neutral>
6.75978e-06

> <r_epik_State_Penalty>
-0

> <r_epik_Charging_Adjusted_Penalty>
0

> <i_epik_Tot_Q>
0

> <i_epik_Tot_abs_Q>
0

> <r_epik_Metal_State_Penalty>
-0

> <b_epik_Metal_Only>
0

> <s_lp_Force_Field>
OPLS_2005

> <r_lp_Energy>
40.6009

> <b_lp_Chiralities_Consistent>
1

> <s_lp_Variant>
AV-unprocessed.smi:738-2

> <Gold.Version>
5.8.1

> <Gold.Id.Protein>
6NUR|6NUR_protein|mol2

> <Gold.PLP.Fitness>
39.8312

> <Gold.PLP.PLP>
-34.3465

> <Gold.PLP.part.hbond>
-3.2817

> <Gold.PLP.part.metal>
0.0000

> <Gold.PLP.part.buried>
-4.9503

> <Gold.PLP.part.nonpolar>
-28.4684

> <Gold.PLP.part.repulsive>
1.4310

> <Gold.PLP.ligand.clash>
0.0000

> <Gold.PLP.ligand.torsion>
0.2218

> <Gold.PLP.Chemscore.Hbond>
1.9600

> <Gold.PLP.Chemscore.CHOScore>
0.0000

> <Gold.PLP.Chemscore.Metal>
0.0000

> <Gold.Chemscore.Hbonds>
donor molecule, donor type, donor heavy atom, donor atom, acceptor molecule, acceptor atom, score
      L1  H     1    20       P1  7948  0.57
      P1  H 10752 10765       L1     3  1.00

> <Gold.PLP.Chemscore.Internal.Correction>
0.0482

> <Gold.Rescore>
     Score         DG    S(hbond)    S(metal)    S(lipo)     H(rot)  DE(clash)    DE(int)     intcor
     18.33     -20.60       1.98        0.00      94.50       1.00       0.16       2.11       ----

> <Gold.Chemscore.Fitness>
18.3268

> <Gold.Chemscore.DG>
-20.5996

> <Gold.Chemscore.ZeroCoef>
-5.4800

> <Gold.Chemscore.Hbond>
1.9829

> <Gold.Chemscore.Metal>
0.0000

> <Gold.Chemscore.Lipo>
94.5016

> <Gold.Chemscore.Internal_Hbond>
0.0000

> <Gold.Chemscore.DEClash>
0.1580

> <Gold.Chemscore.DEInternal>
2.1147

> <Gold.Chemscore.Rot>
1.0000

> <Gold.Chemscore.Internal.Correction>
   9.000000E+99

> <Gold.Chemscore.Hbonds>
donor molecule, donor type, donor heavy atom, donor atom, acceptor molecule, acceptor atom, score
      L1  H     1    20       P1  7948  0.07
      P1  H 10752 10765       L1     3  1.00

> <Gold.Chemscore.Hbond.Weighted>
-6.6229

> <Gold.Chemscore.Metal.Weighted>
-0.0000

> <Gold.Chemscore.Lipo.Weighted>
-11.0567

> <Gold.Chemscore.Internal_Hbond.Weighted>
0.0000

> <Gold.Chemscore.DEClash.Weighted>
0.1580

> <Gold.Chemscore.DEInternal.Weighted>
2.1147

> <Gold.Chemscore.Rot.Weighted>
2.5600

> <Gold.Chemscore.Internal.Correction.Weighted>
   9.000000E+99

> <Gold.Protein.RotatedTorsions>
[ 6907 6896 6895 6894 ] final  -22.14 input  -60.11 | X-H torsion
[ 7974 7965 7964 7962 ] final -148.73 input  175.53 | X-H torsion
[ 8008 7997 7996 7995 ] final  127.32 input   59.86 | X-H torsion
[ 10167 10162 10161 10158 ] final -151.61 input  -65.29 | X-H torsion
[ 10718 10713 10712 10709 ] final   27.74 input   66.30 | X-H torsion
[ 10763 10752 10751 10750 ] final  156.80 input  -60.55 | X-H torsion
[ 11005 11000 10999 10996 ] final  102.86 input  -57.11 | X-H torsion

> <Gold.Protein.ActiveResidues>
 VAL166  LYS551  ARG553  GLY616  TRP617  ASP618  TYR619  PRO620  LYS621  CYS622 
 ASP623  PHE694  ASN695  SER759  ASP760  ASP761  ALA762  ILE779  LEU786  VAL792 
 PHE793  MET794  SER795  GLU796  ALA797  LYS798  CYS799  TRP800  GLU811  SER814 

> <Gold.Protein.RotatedAtoms>
  151.2230  135.0525  159.8956 H   0  0  0  0  0  0  0  0  0  0  0  0  # atno 6907 bound_to 6896
  152.5413  134.0620  159.8166 H   0  0  0  0  0  0  0  0  0  0  0  0  # atno 6908 bound_to 6896
  151.0789  133.5358  159.2653 H   0  0  0  0  0  0  0  0  0  0  0  0  # atno 6909 bound_to 6896
  144.8011  140.5158  143.5706 H   0  0  0  0  0  0  0  0  0  0  0  0  # atno 7974 bound_to 7965
  156.2888  140.2671  156.2254 H   0  0  0  0  0  0  0  0  0  0  0  0  # atno 8008 bound_to 7997
  155.0125  140.0387  157.2423 H   0  0  0  0  0  0  0  0  0  0  0  0  # atno 8009 bound_to 7997
  154.7505  140.2742  155.6301 H   0  0  0  0  0  0  0  0  0  0  0  0  # atno 8010 bound_to 7997
  139.7252  143.8894  152.2517 H   0  0  0  0  0  0  0  0  0  0  0  0  # atno 10167 bound_to 10162
  157.2242  130.6993  149.6284 H   0  0  0  0  0  0  0  0  0  0  0  0  # atno 10718 bound_to 10713
  154.1901  135.2795  155.3024 H   0  0  0  0  0  0  0  0  0  0  0  0  # atno 10763 bound_to 10752
  154.5935  135.5552  153.7305 H   0  0  0  0  0  0  0  0  0  0  0  0  # atno 10764 bound_to 10752
  153.0114  135.6374  154.2040 H   0  0  0  0  0  0  0  0  0  0  0  0  # atno 10765 bound_to 10752
  139.8780  134.9240  156.5122 H   0  0  0  0  0  0  0  0  0  0  0  0  # atno 11005 bound_to 11000
  145.5551  139.1477  143.3372 LP  0  0  0  0  0  0  0  0  0  0  0  0  # atno 17320 bound_to 7965
  146.2292  140.5688  142.8982 LP  0  0  0  0  0  0  0  0  0  0  0  0  # atno 17321 bound_to 7965
  139.8801  144.7022  150.8887 LP  0  0  0  0  0  0  0  0  0  0  0  0  # atno 17342 bound_to 10162
  140.7761  143.3668  151.1724 LP  0  0  0  0  0  0  0  0  0  0  0  0  # atno 17343 bound_to 10162
  155.9680  130.4510  150.5718 LP  0  0  0  0  0  0  0  0  0  0  0  0  # atno 17370 bound_to 10713
  157.3545  131.0739  151.1687 LP  0  0  0  0  0  0  0  0  0  0  0  0  # atno 17371 bound_to 10713
  140.8512  133.8130  155.9170 LP  0  0  0  0  0  0  0  0  0  0  0  0  # atno 17394 bound_to 11000
  140.9142  134.2222  157.4967 LP  0  0  0  0  0  0  0  0  0  0  0  0  # atno 17395 bound_to 11000

$$$$
