AV-unprocessed.smi:2750|AV-procd|sdf|10593|dock6
  -GOLD-   2272015 43D 1   1.00000     0.00000
 Structure written by MMmdl.
 24 25  0  0  0  0  0  0  0  0  3 V2000
  153.4961  137.7253  154.7154 O   0  0  0  0  0  0  0  0  0  0  0  0
  152.6247  138.6224  154.7016 C   0  0  0  0  0  0  0  0  0  0  0  0
  152.8417  139.8508  154.7958 O   0  5  0  0  0  0  0  0  0  0  0  0
  151.1698  138.1813  154.5407 C   0  0  0  0  0  0  0  0  0  0  0  0
  150.4890  138.0589  155.8169 N   0  0  0  0  0  0  0  0  0  0  0  0
  150.8781  137.3490  156.9342 C   0  0  0  0  0  0  0  0  0  0  0  0
  149.8787  137.5950  157.8324 C   0  0  0  0  0  0  0  0  0  0  0  0
  149.7350  137.0996  159.2423 C   0  0  0  0  0  0  0  0  0  0  0  0
  148.3043  136.6255  159.5835 C   0  0  2  0  0  0  0  0  0  0  0  0
  147.8332  137.1715  160.8459 N   0  5  0  0  0  0  0  0  0  0  0  0
  147.5265  136.1447  161.6722 C   0  0  0  0  0  0  0  0  0  0  0  0
  147.0876  136.2072  162.8184 O   0  0  0  0  0  0  0  0  0  0  0  0
  147.7681  134.9716  161.0783 N   0  0  0  0  0  0  0  0  0  0  0  0
  148.2435  135.1329  159.8475 C   0  0  0  0  0  0  0  0  0  0  0  0
  148.5762  134.2528  159.0545 O   0  0  0  0  0  0  0  0  0  0  0  0
  148.9361  138.4305  157.2325 N   0  0  0  0  0  0  0  0  0  0  0  0
  149.3116  138.6976  156.0210 N   0  0  0  0  0  0  0  0  0  0  0  0
  150.6332  138.9069  153.9281 H   0  0  0  0  0  0  0  0  0  0  0  0
  151.1245  137.2271  154.0130 H   0  0  0  0  0  0  0  0  0  0  0  0
  151.7827  136.7618  156.9854 H   0  0  0  0  0  0  0  0  0  0  0  0
  150.4332  136.2754  159.3948 H   0  0  0  0  0  0  0  0  0  0  0  0
  150.0487  137.8755  159.9429 H   0  0  0  0  0  0  0  0  0  0  0  0
  147.6320  136.8489  158.7537 H   0  0  0  0  0  0  0  0  0  0  0  0
  147.6175  134.0749  161.5156 H   0  0  0  0  0  0  0  0  0  0  0  0
  1  2  2  0  0  0  0
  2  3  1  0  0  0  0
  2  4  1  0  0  0  0
  4  5  1  0  0  0  0
  4 18  1  0  0  0  0
  4 19  1  0  0  0  0
  5 17  1  0  0  0  0
  5  6  1  0  0  0  0
  6  7  2  0  0  0  0
  6 20  1  0  0  0  0
  7  8  1  0  0  0  0
  7 16  1  0  0  0  0
  8  9  1  0  0  0  0
  8 21  1  0  0  0  0
  8 22  1  0  0  0  0
  9 14  1  0  0  0  0
  9 10  1  0  0  0  0
  9 23  1  0  0  0  0
 10 11  1  0  0  0  0
 11 12  2  0  0  0  0
 11 13  1  0  0  0  0
 13 14  1  0  0  0  0
 13 24  1  0  0  0  0
 14 15  2  0  0  0  0
 16 17  2  0  0  0  0
M  CHG  1   3  -1
M  CHG  1  10  -1
M  END
> <s_m_source_file>
AV-unprocessed.smi

> <i_m_source_file_index>
2750

> <i_lp_mmshare_version>
43012

> <i_f3d_flags>
0

> <s_epik_input>
Tz1DKFtPSF0pW0NIMl1uMVtjSF1jKG5uMSlbQ0gyXVtDQEBIXTJbTkhdQyg9TylbTkhdQzI9Tw==

> <s_epik_cmdline>
J2VwaWtfcHl0aG9uJywgJy1waCcsICc3LjAnLCAnLXRuJywgJzgnLCAnLW1hJywgJzIwMCcsICctbWV0YWxfYmluZGluZycsICctaW1hZScsICc8aW5maWxlLm1hZT4nLCAnLW9tYWUnLCAnPG91dGZpbGUubWFlPic=

> <r_lp_tautomer_probability>
1

> <r_epik_Ionization_Penalty>
5.10791

> <r_epik_Ionization_Penalty_Charging>
5.10788

> <r_epik_Ionization_Penalty_Neutral>
2.55687e-05

> <r_epik_State_Penalty>
5.12334

> <r_epik_Charging_Adjusted_Penalty>
10.2312

> <i_epik_Tot_Q>
-2

> <i_epik_Tot_abs_Q>
2

> <r_epik_Metal_State_Penalty>
1.50935

> <b_epik_Metal_Only>
1

> <s_lp_Force_Field>
OPLS_2005

> <r_lp_Energy>
16.0951

> <b_lp_Chiralities_Consistent>
1

> <s_lp_Variant>
AV-unprocessed.smi:2750-5

> <Gold.Version>
5.8.1

> <Gold.Id.Protein>
6NUR|6NUR_protein|mol2

> <Gold.PLP.Fitness>
42.2826

> <Gold.PLP.PLP>
-24.0468

> <Gold.PLP.part.hbond>
-6.0000

> <Gold.PLP.part.metal>
0.0000

> <Gold.PLP.part.buried>
-4.1576

> <Gold.PLP.part.nonpolar>
-14.0041

> <Gold.PLP.part.repulsive>
0.1478

> <Gold.PLP.ligand.clash>
0.0000

> <Gold.PLP.ligand.torsion>
1.3159

> <Gold.PLP.Chemscore.Hbond>
6.9520

> <Gold.PLP.Chemscore.CHOScore>
0.0000

> <Gold.PLP.Chemscore.Metal>
0.0000

> <Gold.Chemscore.Hbonds>
donor molecule, donor type, donor heavy atom, donor atom, acceptor molecule, acceptor atom, score
      P1  H  6896  6907       L1    15  0.88
      P1  H  6931  6943       L1    10  1.76
      P1  H  6934  6947       L1    10  1.70
      P1  H  7989  7998       L1     3  0.42
      P1  H  7997  8008       L1     3  2.00

> <Gold.PLP.Chemscore.Internal.Correction>
0.0117

> <Gold.Rescore>
     Score         DG    S(hbond)    S(metal)    S(lipo)     H(rot)  DE(clash)    DE(int)     intcor
      9.56     -10.93       3.00        0.00      22.28       2.80       0.03       1.34       ----

> <Gold.Chemscore.Fitness>
9.5581

> <Gold.Chemscore.DG>
-10.9317

> <Gold.Chemscore.ZeroCoef>
-5.4800

> <Gold.Chemscore.Hbond>
2.9958

> <Gold.Chemscore.Metal>
0.0000

> <Gold.Chemscore.Lipo>
22.2811

> <Gold.Chemscore.Internal_Hbond>
0.0000

> <Gold.Chemscore.DEClash>
0.0300

> <Gold.Chemscore.DEInternal>
1.3436

> <Gold.Chemscore.Rot>
2.7973

> <Gold.Chemscore.Internal.Correction>
   9.000000E+99

> <Gold.Chemscore.Hbonds>
donor molecule, donor type, donor heavy atom, donor atom, acceptor molecule, acceptor atom, score
      P1  H  6896  6907       L1    15  0.22
      P1  H  6931  6943       L1    10  0.37
      P1  H  6934  6947       L1    10  0.80
      P1  H  7989  7998       L1     3  0.31
      P1  H  7997  8008       L1     3  0.72
      P1  H 10752 10763       L1     1  0.02

> <Gold.Chemscore.Hbond.Weighted>
-10.0060

> <Gold.Chemscore.Metal.Weighted>
-0.0000

> <Gold.Chemscore.Lipo.Weighted>
-2.6069

> <Gold.Chemscore.Internal_Hbond.Weighted>
0.0000

> <Gold.Chemscore.DEClash.Weighted>
0.0300

> <Gold.Chemscore.DEInternal.Weighted>
1.3436

> <Gold.Chemscore.Rot.Weighted>
7.1611

> <Gold.Chemscore.Internal.Correction.Weighted>
   9.000000E+99

> <Gold.Protein.RotatedTorsions>
[ 6907 6896 6895 6894 ] final  -94.29 input  -60.11 | X-H torsion
[ 7974 7965 7964 7962 ] final   29.93 input  175.53 | X-H torsion
[ 8008 7997 7996 7995 ] final  -22.56 input   59.86 | X-H torsion
[ 10167 10162 10161 10158 ] final  127.10 input  -65.29 | X-H torsion
[ 10718 10713 10712 10709 ] final   58.76 input   66.30 | X-H torsion
[ 10763 10752 10751 10750 ] final   82.76 input  -60.55 | X-H torsion
[ 11005 11000 10999 10996 ] final  -84.26 input  -57.11 | X-H torsion

> <Gold.Protein.ActiveResidues>
 VAL166  LYS551  ARG553  GLY616  TRP617  ASP618  TYR619  PRO620  LYS621  CYS622 
 ASP623  PHE694  ASN695  SER759  ASP760  ASP761  ALA762  ILE779  LEU786  VAL792 
 PHE793  MET794  SER795  GLU796  ALA797  LYS798  CYS799  TRP800  GLU811  SER814 

> <Gold.Protein.RotatedAtoms>
  150.6939  134.1835  159.4257 H   0  0  0  0  0  0  0  0  0  0  0  0  # atno 6907 bound_to 6896
  151.9808  135.0027  160.0566 H   0  0  0  0  0  0  0  0  0  0  0  0  # atno 6908 bound_to 6896
  152.1756  133.4638  159.4968 H   0  0  0  0  0  0  0  0  0  0  0  0  # atno 6909 bound_to 6896
  146.1642  139.6855  142.9012 H   0  0  0  0  0  0  0  0  0  0  0  0  # atno 7974 bound_to 7965
  154.4637  140.2004  156.0176 H   0  0  0  0  0  0  0  0  0  0  0  0  # atno 8008 bound_to 7997
  156.0887  140.3261  155.7759 H   0  0  0  0  0  0  0  0  0  0  0  0  # atno 8009 bound_to 7997
  155.4992  140.0552  157.2932 H   0  0  0  0  0  0  0  0  0  0  0  0  # atno 8010 bound_to 7997
  139.5596  144.6872  151.4082 H   0  0  0  0  0  0  0  0  0  0  0  0  # atno 10167 bound_to 10162
  157.5622  130.8844  149.9129 H   0  0  0  0  0  0  0  0  0  0  0  0  # atno 10718 bound_to 10713
  153.1231  135.4716  154.9228 H   0  0  0  0  0  0  0  0  0  0  0  0  # atno 10763 bound_to 10752
  154.7595  135.3127  154.8409 H   0  0  0  0  0  0  0  0  0  0  0  0  # atno 10764 bound_to 10752
  153.8968  135.6879  153.4811 H   0  0  0  0  0  0  0  0  0  0  0  0  # atno 10765 bound_to 10752
  141.1652  133.7337  156.8842 H   0  0  0  0  0  0  0  0  0  0  0  0  # atno 11005 bound_to 11000
  145.4510  141.0428  143.2804 LP  0  0  0  0  0  0  0  0  0  0  0  0  # atno 17320 bound_to 7965
  144.8069  139.6035  143.7047 LP  0  0  0  0  0  0  0  0  0  0  0  0  # atno 17321 bound_to 7965
  140.6874  143.7942  150.7205 LP  0  0  0  0  0  0  0  0  0  0  0  0  # atno 17342 bound_to 10162
  140.1414  143.4438  152.2191 LP  0  0  0  0  0  0  0  0  0  0  0  0  # atno 17343 bound_to 10162
  156.0673  130.3690  150.0850 LP  0  0  0  0  0  0  0  0  0  0  0  0  # atno 17370 bound_to 10713
  156.9013  130.9621  151.3576 LP  0  0  0  0  0  0  0  0  0  0  0  0  # atno 17371 bound_to 10713
  140.1694  134.9111  157.2814 LP  0  0  0  0  0  0  0  0  0  0  0  0  # atno 17394 bound_to 11000
  140.2520  134.3672  155.7439 LP  0  0  0  0  0  0  0  0  0  0  0  0  # atno 17395 bound_to 11000

$$$$
