AV-unprocessed.smi:2003|AV-procd|sdf|8118|dock8
  -GOLD-   2272010353D 1   1.00000     0.00000
 Structure written by MMmdl.
 43 44  0  0  0  0  0  0  0  0  1 V2000
  153.6929  141.8714  161.0498 C   0  0  0  0  0  0  0  0  0  0  0  0
  152.8027  142.4548  159.9918 C   0  0  0  0  0  0  0  0  0  0  0  0
  152.1744  141.7805  158.9049 C   0  0  0  0  0  0  0  0  0  0  0  0
  151.4921  142.7877  158.2783 C   0  0  0  0  0  0  0  0  0  0  0  0
  150.7051  142.7233  157.1713 N   0  0  0  0  0  0  0  0  0  0  0  0
  150.5040  141.6855  156.3408 C   0  0  0  0  0  0  0  0  0  0  0  0
  151.0293  140.5766  156.4417 O   0  0  0  0  0  0  0  0  0  0  0  0
  149.6380  142.0050  155.3682 N   0  0  0  0  0  0  0  0  0  0  0  0
  149.1830  141.0941  154.3211 C   0  0  0  0  0  0  0  0  0  0  0  0
  147.8401  141.5302  153.6651 C   0  0  1  0  0  0  0  0  0  0  0  0
  147.0793  140.2625  153.1993 C   0  0  0  0  0  0  0  0  0  0  0  0
  147.0182  142.4052  154.5332 N   0  0  0  0  0  0  0  0  0  0  0  0
  146.5124  141.7026  155.7187 C   0  0  0  0  0  0  0  0  0  0  0  0
  145.6297  142.5912  156.6120 C   0  0  0  0  0  0  0  0  0  0  0  0
  144.5452  143.1057  155.8522 O   0  0  0  0  0  0  0  0  0  0  0  0
  144.9907  143.8636  154.7363 C   0  0  0  0  0  0  0  0  0  0  0  0
  145.8683  142.9845  153.8284 C   0  0  0  0  0  0  0  0  0  0  0  0
  151.7156  143.9658  158.9584 N   0  0  0  0  0  0  0  0  0  0  0  0
  151.2197  145.3042  158.7004 C   0  0  0  0  0  0  0  0  0  0  0  0
  152.5253  143.7533  160.0179 N   0  0  0  0  0  0  0  0  0  0  0  0
  153.9979  140.8573  160.7912 H   0  0  0  0  0  0  0  0  0  0  0  0
  153.1815  141.8291  162.0116 H   0  0  0  0  0  0  0  0  0  0  0  0
  154.5977  142.4660  161.1779 H   0  0  0  0  0  0  0  0  0  0  0  0
  152.2284  140.7332  158.6487 H   0  0  0  0  0  0  0  0  0  0  0  0
  150.1971  143.5687  156.9566 H   0  0  0  0  0  0  0  0  0  0  0  0
  149.2546  142.9388  155.3564 H   0  0  0  0  0  0  0  0  0  0  0  0
  149.9637  141.0317  153.5623 H   0  0  0  0  0  0  0  0  0  0  0  0
  149.1178  140.1066  154.7758 H   0  0  0  0  0  0  0  0  0  0  0  0
  148.0901  142.0967  152.7669 H   0  0  0  0  0  0  0  0  0  0  0  0
  147.7040  139.5952  152.6066 H   0  0  0  0  0  0  0  0  0  0  0  0
  146.2335  140.5017  152.5564 H   0  0  0  0  0  0  0  0  0  0  0  0
  146.7065  139.6918  154.0503 H   0  0  0  0  0  0  0  0  0  0  0  0
  145.9455  140.8219  155.4129 H   0  0  0  0  0  0  0  0  0  0  0  0
  147.3361  141.3501  156.3368 H   0  0  0  0  0  0  0  0  0  0  0  0
  145.2352  142.0132  157.4477 H   0  0  0  0  0  0  0  0  0  0  0  0
  146.2103  143.4120  157.0357 H   0  0  0  0  0  0  0  0  0  0  0  0
  144.1237  144.2290  154.1859 H   0  0  0  0  0  0  0  0  0  0  0  0
  145.5444  144.7392  155.0788 H   0  0  0  0  0  0  0  0  0  0  0  0
  146.1969  143.6155  153.0054 H   0  0  0  0  0  0  0  0  0  0  0  0
  145.2595  142.1889  153.3962 H   0  0  0  0  0  0  0  0  0  0  0  0
  150.6867  145.3418  157.7506 H   0  0  0  0  0  0  0  0  0  0  0  0
  152.0536  146.0058  158.6607 H   0  0  0  0  0  0  0  0  0  0  0  0
  150.5398  145.6026  159.4990 H   0  0  0  0  0  0  0  0  0  0  0  0
  1  2  1  0  0  0  0
  1 21  1  0  0  0  0
  1 22  1  0  0  0  0
  1 23  1  0  0  0  0
  2 20  2  0  0  0  0
  2  3  1  0  0  0  0
  3  4  2  0  0  0  0
  3 24  1  0  0  0  0
  4  5  1  0  0  0  0
  4 18  1  0  0  0  0
  5  6  1  0  0  0  0
  5 25  1  0  0  0  0
  6  7  2  0  0  0  0
  6  8  1  0  0  0  0
  8  9  1  0  0  0  0
  8 26  1  0  0  0  0
  9 10  1  0  0  0  0
  9 27  1  0  0  0  0
  9 28  1  0  0  0  0
 10 11  1  0  0  0  0
 10 12  1  0  0  0  0
 10 29  1  0  0  0  0
 11 30  1  0  0  0  0
 11 31  1  0  0  0  0
 11 32  1  0  0  0  0
 12 17  1  0  0  0  0
 12 13  1  0  0  0  0
 13 14  1  0  0  0  0
 13 33  1  0  0  0  0
 13 34  1  0  0  0  0
 14 15  1  0  0  0  0
 14 35  1  0  0  0  0
 14 36  1  0  0  0  0
 15 16  1  0  0  0  0
 16 17  1  0  0  0  0
 16 37  1  0  0  0  0
 16 38  1  0  0  0  0
 17 39  1  0  0  0  0
 17 40  1  0  0  0  0
 18 19  1  0  0  0  0
 18 20  1  0  0  0  0
 19 41  1  0  0  0  0
 19 42  1  0  0  0  0
 19 43  1  0  0  0  0
M  END
> <s_m_source_file>
AV-unprocessed.smi

> <i_m_source_file_index>
2003

> <i_lp_mmshare_version>
43012

> <i_f3d_flags>
0

> <s_epik_input>
W0NIM11jMVtjSF1jKG4objEpW0NIM10pW05IXUMoPU8pW05IXVtDSDJdW0NASF0oW0NIM10pTjJbQ0gyXVtDSDJdT1tDSDJdW0NIMl0y

> <s_epik_cmdline>
J2VwaWtfcHl0aG9uJywgJy1waCcsICc3LjAnLCAnLXRuJywgJzgnLCAnLW1hJywgJzIwMCcsICctbWV0YWxfYmluZGluZycsICctaW1hZScsICc8aW5maWxlLm1hZT4nLCAnLW9tYWUnLCAnPG91dGZpbGUubWFlPic=

> <r_lp_tautomer_probability>
1

> <r_epik_Ionization_Penalty>
0.233974

> <r_epik_Ionization_Penalty_Charging>
0

> <r_epik_Ionization_Penalty_Neutral>
0.233974

> <r_epik_State_Penalty>
0.224627

> <r_epik_Charging_Adjusted_Penalty>
0.224627

> <i_epik_Tot_Q>
0

> <i_epik_Tot_abs_Q>
0

> <r_epik_Metal_State_Penalty>
0.224624

> <b_epik_Metal_Only>
0

> <s_lp_Force_Field>
OPLS_2005

> <r_lp_Energy>
29.1269

> <b_lp_Chiralities_Consistent>
1

> <s_lp_Variant>
AV-unprocessed.smi:2003-2

> <Gold.Version>
5.8.1

> <Gold.Id.Protein>
6NUR|6NUR_protein|mol2

> <Gold.PLP.Fitness>
47.1120

> <Gold.PLP.PLP>
-43.3178

> <Gold.PLP.part.hbond>
-1.8108

> <Gold.PLP.part.metal>
0.0000

> <Gold.PLP.part.buried>
-6.0135

> <Gold.PLP.part.nonpolar>
-34.6717

> <Gold.PLP.part.repulsive>
0.5062

> <Gold.PLP.ligand.clash>
0.0000

> <Gold.PLP.ligand.torsion>
0.6441

> <Gold.PLP.Chemscore.Hbond>
1.6825

> <Gold.PLP.Chemscore.CHOScore>
0.0000

> <Gold.PLP.Chemscore.Metal>
0.0000

> <Gold.Chemscore.Hbonds>
donor molecule, donor type, donor heavy atom, donor atom, acceptor molecule, acceptor atom, score
      L1  H     5    25       P1  8028  0.67
      L1  H     8    26       P1  8028  1.00

> <Gold.PLP.Chemscore.Internal.Correction>
0.0349

> <Gold.Rescore>
     Score         DG    S(hbond)    S(metal)    S(lipo)     H(rot)  DE(clash)    DE(int)     intcor
     16.08     -18.11       1.97        0.00      84.48       1.49       0.24       1.79       ----

> <Gold.Chemscore.Fitness>
16.0831

> <Gold.Chemscore.DG>
-18.1098

> <Gold.Chemscore.ZeroCoef>
-5.4800

> <Gold.Chemscore.Hbond>
1.9669

> <Gold.Chemscore.Metal>
0.0000

> <Gold.Chemscore.Lipo>
84.4824

> <Gold.Chemscore.Internal_Hbond>
0.0000

> <Gold.Chemscore.DEClash>
0.2386

> <Gold.Chemscore.DEInternal>
1.7881

> <Gold.Chemscore.Rot>
1.4938

> <Gold.Chemscore.Internal.Correction>
   9.000000E+99

> <Gold.Chemscore.Hbonds>
donor molecule, donor type, donor heavy atom, donor atom, acceptor molecule, acceptor atom, score
      L1  H     5    25       P1  8028  0.64
      L1  H     8    26       P1  8028  1.00

> <Gold.Chemscore.Hbond.Weighted>
-6.5696

> <Gold.Chemscore.Metal.Weighted>
-0.0000

> <Gold.Chemscore.Lipo.Weighted>
-9.8844

> <Gold.Chemscore.Internal_Hbond.Weighted>
0.0000

> <Gold.Chemscore.DEClash.Weighted>
0.2386

> <Gold.Chemscore.DEInternal.Weighted>
1.7881

> <Gold.Chemscore.Rot.Weighted>
3.8242

> <Gold.Chemscore.Internal.Correction.Weighted>
   9.000000E+99

> <Gold.Protein.RotatedTorsions>
[ 6907 6896 6895 6894 ] final  125.07 input  -60.11 | X-H torsion
[ 7974 7965 7964 7962 ] final  167.37 input  175.53 | X-H torsion
[ 8008 7997 7996 7995 ] final  -29.81 input   59.86 | X-H torsion
[ 10167 10162 10161 10158 ] final  155.31 input  -65.29 | X-H torsion
[ 10718 10713 10712 10709 ] final    7.41 input   66.30 | X-H torsion
[ 10763 10752 10751 10750 ] final  119.73 input  -60.55 | X-H torsion
[ 11005 11000 10999 10996 ] final  -67.07 input  -57.11 | X-H torsion

> <Gold.Protein.ActiveResidues>
 VAL166  LYS551  ARG553  GLY616  TRP617  ASP618  TYR619  PRO620  LYS621  CYS622 
 ASP623  PHE694  ASN695  SER759  ASP760  ASP761  ALA762  ILE779  LEU786  VAL792 
 PHE793  MET794  SER795  GLU796  ALA797  LYS798  CYS799  TRP800  GLU811  SER814 

> <Gold.Protein.RotatedAtoms>
  152.4024  133.6837  159.6327 H   0  0  0  0  0  0  0  0  0  0  0  0  # atno 6907 bound_to 6896
  150.7913  133.8769  159.3283 H   0  0  0  0  0  0  0  0  0  0  0  0  # atno 6908 bound_to 6896
  151.6531  135.1000  160.0216 H   0  0  0  0  0  0  0  0  0  0  0  0  # atno 6909 bound_to 6896
  144.7427  139.8751  143.6392 H   0  0  0  0  0  0  0  0  0  0  0  0  # atno 7974 bound_to 7965
  154.4275  140.1808  156.1307 H   0  0  0  0  0  0  0  0  0  0  0  0  # atno 8008 bound_to 7997
  156.0070  140.3354  155.6877 H   0  0  0  0  0  0  0  0  0  0  0  0  # atno 8009 bound_to 7997
  155.6164  140.0655  157.2682 H   0  0  0  0  0  0  0  0  0  0  0  0  # atno 8010 bound_to 7997
  139.4821  144.5110  151.8024 H   0  0  0  0  0  0  0  0  0  0  0  0  # atno 10167 bound_to 10162
  156.9365  130.5845  149.5651 H   0  0  0  0  0  0  0  0  0  0  0  0  # atno 10718 bound_to 10713
  153.5875  135.3472  155.2898 H   0  0  0  0  0  0  0  0  0  0  0  0  # atno 10763 bound_to 10752
  154.8658  135.4197  154.2552 H   0  0  0  0  0  0  0  0  0  0  0  0  # atno 10764 bound_to 10752
  153.3352  135.7046  153.6984 H   0  0  0  0  0  0  0  0  0  0  0  0  # atno 10765 bound_to 10752
  141.1499  133.6712  156.6236 H   0  0  0  0  0  0  0  0  0  0  0  0  # atno 11005 bound_to 11000
  146.1252  139.4277  143.0203 LP  0  0  0  0  0  0  0  0  0  0  0  0  # atno 17320 bound_to 7965
  145.7245  141.0063  143.1384 LP  0  0  0  0  0  0  0  0  0  0  0  0  # atno 17321 bound_to 7965
  140.4613  144.1718  150.5906 LP  0  0  0  0  0  0  0  0  0  0  0  0  # atno 17342 bound_to 10162
  140.4481  143.2498  151.9384 LP  0  0  0  0  0  0  0  0  0  0  0  0  # atno 17343 bound_to 10162
  156.0423  130.5504  150.8801 LP  0  0  0  0  0  0  0  0  0  0  0  0  # atno 17370 bound_to 10713
  157.5813  131.0946  150.9267 LP  0  0  0  0  0  0  0  0  0  0  0  0  # atno 17371 bound_to 10713
  140.3521  134.7760  157.4474 LP  0  0  0  0  0  0  0  0  0  0  0  0  # atno 17394 bound_to 11000
  140.0852  134.5676  155.8499 LP  0  0  0  0  0  0  0  0  0  0  0  0  # atno 17395 bound_to 11000

$$$$
