AV-unprocessed.smi:610|AV-procd|sdf|3057|dock5
  -GOLD-   2262023583D 1   1.00000     0.00000
 Structure written by MMmdl.
 38 39  0  0  0  0  0  0  0  0  2 V2000
  150.1281  131.7315  151.6611 C   0  0  0  0  0  0  0  0  0  0  0  0
  149.1806  132.7133  152.3629 C   0  0  2  0  0  0  0  0  0  0  0  0
  148.0148  133.1246  151.4372 C   0  0  0  0  0  0  0  0  0  0  0  0
  146.7846  133.4441  152.1692 N   0  0  0  0  0  0  0  0  0  0  0  0
  146.2720  134.6890  152.4323 C   0  0  0  0  0  0  0  0  0  0  0  0
  145.1255  134.4939  153.1582 C   0  0  0  0  0  0  0  0  0  0  0  0
  144.9827  133.1396  153.3006 N   0  3  0  0  0  0  0  0  0  0  0  0
  145.9895  132.5028  152.6942 C   0  0  0  0  0  0  0  0  0  0  0  0
  149.9452  133.8827  152.7940 N   0  0  0  0  0  0  0  0  0  0  0  0
  150.9548  133.8847  153.6835 C   0  0  0  0  0  0  0  0  0  0  0  0
  151.3533  132.8528  154.2264 O   0  0  0  0  0  0  0  0  0  0  0  0
  151.6102  135.2415  154.0459 C   0  0  0  0  0  0  0  0  0  0  0  0
  150.6350  136.3233  154.0986 N   0  0  0  0  0  0  0  0  0  0  0  0
  152.3470  135.1589  155.4107 C   0  0  0  0  0  0  0  0  0  0  0  0
  153.8247  135.4696  155.1436 C   0  0  0  0  0  0  0  0  0  0  0  0
  154.0311  135.1872  153.6596 C   0  0  0  0  0  0  0  0  0  0  0  0
  152.7091  135.6118  153.0216 C   0  0  0  0  0  0  0  0  0  0  0  0
  149.5994  130.8294  151.3518 H   0  0  0  0  0  0  0  0  0  0  0  0
  150.9382  131.4255  152.3241 H   0  0  0  0  0  0  0  0  0  0  0  0
  150.5755  132.1764  150.7714 H   0  0  0  0  0  0  0  0  0  0  0  0
  148.7748  132.1976  153.2350 H   0  0  0  0  0  0  0  0  0  0  0  0
  148.2861  133.9930  150.8350 H   0  0  0  0  0  0  0  0  0  0  0  0
  147.7792  132.3187  150.7406 H   0  0  0  0  0  0  0  0  0  0  0  0
  146.7536  135.5974  152.1005 H   0  0  0  0  0  0  0  0  0  0  0  0
  144.4198  135.1984  153.5734 H   0  0  0  0  0  0  0  0  0  0  0  0
  146.1381  131.4386  152.6490 H   0  0  0  0  0  0  0  0  0  0  0  0
  149.6887  134.7707  152.3861 H   0  0  0  0  0  0  0  0  0  0  0  0
  151.0867  137.1926  153.8537 H   0  0  0  0  0  0  0  0  0  0  0  0
  149.9271  136.1662  153.3956 H   0  0  0  0  0  0  0  0  0  0  0  0
  151.9425  135.8464  156.1553 H   0  0  0  0  0  0  0  0  0  0  0  0
  152.2668  134.1628  155.8501 H   0  0  0  0  0  0  0  0  0  0  0  0
  154.0157  136.5255  155.3404 H   0  0  0  0  0  0  0  0  0  0  0  0
  154.4961  134.8896  155.7773 H   0  0  0  0  0  0  0  0  0  0  0  0
  154.8872  135.7204  153.2457 H   0  0  0  0  0  0  0  0  0  0  0  0
  154.1954  134.1203  153.5042 H   0  0  0  0  0  0  0  0  0  0  0  0
  152.5679  135.1441  152.0457 H   0  0  0  0  0  0  0  0  0  0  0  0
  152.7342  136.6894  152.8486 H   0  0  0  0  0  0  0  0  0  0  0  0
  144.2262  132.6832  153.7950 H   0  0  0  0  0  0  0  0  0  0  0  0
  1  2  1  0  0  0  0
  1 18  1  0  0  0  0
  1 19  1  0  0  0  0
  1 20  1  0  0  0  0
  2  3  1  0  0  0  0
  2  9  1  0  0  0  0
  2 21  1  0  0  0  0
  3  4  1  0  0  0  0
  3 22  1  0  0  0  0
  3 23  1  0  0  0  0
  4  8  1  0  0  0  0
  4  5  1  0  0  0  0
  5  6  2  0  0  0  0
  5 24  1  0  0  0  0
  6  7  1  0  0  0  0
  6 25  1  0  0  0  0
  7  8  2  0  0  0  0
  7 38  1  0  0  0  0
  8 26  1  0  0  0  0
  9 10  1  0  0  0  0
  9 27  1  0  0  0  0
 10 11  2  0  0  0  0
 10 12  1  0  0  0  0
 12 17  1  0  0  0  0
 12 13  1  0  0  0  0
 12 14  1  0  0  0  0
 13 28  1  0  0  0  0
 13 29  1  0  0  0  0
 14 15  1  0  0  0  0
 14 30  1  0  0  0  0
 14 31  1  0  0  0  0
 15 16  1  0  0  0  0
 15 32  1  0  0  0  0
 15 33  1  0  0  0  0
 16 17  1  0  0  0  0
 16 34  1  0  0  0  0
 16 35  1  0  0  0  0
 17 36  1  0  0  0  0
 17 37  1  0  0  0  0
M  CHG  1   7   1
M  END
> <s_m_source_file>
AV-unprocessed.smi

> <i_m_source_file_index>
610

> <i_lp_mmshare_version>
43012

> <i_f3d_flags>
0

> <s_epik_input>
W2NIXTFuW2NIXVtjSF1uMVtDSDJdW0NAQEhdKFtDSDNdKVtOSF1DKD1PKUMyKFtOSDJdKVtDSDJdW0NIMl1bQ0gyXVtDSDJdMg==

> <s_epik_cmdline>
J2VwaWtfcHl0aG9uJywgJy1waCcsICc3LjAnLCAnLXRuJywgJzgnLCAnLW1hJywgJzIwMCcsICctbWV0YWxfYmluZGluZycsICctaW1hZScsICc8aW5maWxlLm1hZT4nLCAnLW9tYWUnLCAnPG91dGZpbGUubWFlPic=

> <r_epik_Ionization_Penalty>
1.50287

> <r_epik_Ionization_Penalty_Charging>
0

> <r_epik_Ionization_Penalty_Neutral>
1.50287

> <r_epik_State_Penalty>
1.57152

> <r_epik_Charging_Adjusted_Penalty>
1.57152

> <i_epik_Tot_Q>
1

> <i_epik_Tot_abs_Q>
1

> <r_epik_Metal_State_Penalty>
1.8522

> <b_epik_Metal_Only>
0

> <s_lp_Force_Field>
OPLS_2005

> <r_lp_Energy>
22.5232

> <b_lp_Chiralities_Consistent>
1

> <s_lp_Variant>
AV-unprocessed.smi:610-5

> <Gold.Version>
5.8.1

> <Gold.Id.Protein>
6NUR|6NUR_protein|mol2

> <Gold.PLP.Fitness>
-192.1653

> <Gold.PLP.PLP>
199.6946

> <Gold.PLP.part.hbond>
-4.8841

> <Gold.PLP.part.metal>
0.0000

> <Gold.PLP.part.buried>
120.2913

> <Gold.PLP.part.nonpolar>
100.0697

> <Gold.PLP.part.repulsive>
0.0902

> <Gold.PLP.ligand.clash>
0.0000

> <Gold.PLP.ligand.torsion>
1.5546

> <Gold.PLP.Chemscore.Hbond>
2.5350

> <Gold.PLP.Chemscore.CHOScore>
1.0000

> <Gold.PLP.Chemscore.Metal>
0.0000

> <Gold.Chemscore.Hbonds>
donor molecule, donor type, donor heavy atom, donor atom, acceptor molecule, acceptor atom, score
      L1  H     7    38       P1 10957  1.89
      L1  H    13    29       P1  7948  0.65
      L1  C     5    24       P1  7948  1.00

> <Gold.PLP.Chemscore.Internal.Correction>
0.0336

> <Gold.Rescore>
     Score         DG    S(hbond)    S(metal)    S(lipo)     H(rot)  DE(clash)    DE(int)     intcor
     17.96     -19.61       3.87        0.00      54.46       2.02       0.02       1.63       ----

> <Gold.Chemscore.Fitness>
17.9633

> <Gold.Chemscore.DG>
-19.6095

> <Gold.Chemscore.ZeroCoef>
-5.4800

> <Gold.Chemscore.Hbond>
3.8674

> <Gold.Chemscore.Metal>
0.0000

> <Gold.Chemscore.Lipo>
54.4571

> <Gold.Chemscore.Internal_Hbond>
0.0000

> <Gold.Chemscore.DEClash>
0.0202

> <Gold.Chemscore.DEInternal>
1.6260

> <Gold.Chemscore.Rot>
2.0152

> <Gold.Chemscore.Internal.Correction>
   9.000000E+99

> <Gold.Chemscore.Hbonds>
donor molecule, donor type, donor heavy atom, donor atom, acceptor molecule, acceptor atom, score
      L1  H     7    38       P1 10957  0.59
      L1  H    13    29       P1  7948  0.06

> <Gold.Chemscore.Hbond.Weighted>
-12.9170

> <Gold.Chemscore.Metal.Weighted>
-0.0000

> <Gold.Chemscore.Lipo.Weighted>
-6.3715

> <Gold.Chemscore.Internal_Hbond.Weighted>
0.0000

> <Gold.Chemscore.DEClash.Weighted>
0.0202

> <Gold.Chemscore.DEInternal.Weighted>
1.6260

> <Gold.Chemscore.Rot.Weighted>
5.1589

> <Gold.Chemscore.Internal.Correction.Weighted>
   9.000000E+99

> <Gold.Protein.RotatedTorsions>
[ 6907 6896 6895 6894 ] final  118.48 input  -60.11 | X-H torsion
[ 7974 7965 7964 7962 ] final  -86.04 input  175.53 | X-H torsion
[ 8008 7997 7996 7995 ] final  161.11 input   59.86 | X-H torsion
[ 10167 10162 10161 10158 ] final  -79.35 input  -65.29 | X-H torsion
[ 10718 10713 10712 10709 ] final -105.27 input   66.30 | X-H torsion
[ 10763 10752 10751 10750 ] final    4.13 input  -60.55 | X-H torsion
[ 11005 11000 10999 10996 ] final -121.80 input  -57.11 | X-H torsion

> <Gold.Protein.ActiveResidues>
 VAL166  LYS551  ARG553  GLY616  TRP617  ASP618  TYR619  PRO620  LYS621  CYS622 
 ASP623  PHE694  ASN695  SER759  ASP760  ASP761  ALA762  ILE779  LEU786  VAL792 
 PHE793  MET794  SER795  GLU796  ALA797  LYS798  CYS799  TRP800  GLU811  SER814 

> <Gold.Protein.RotatedAtoms>
  152.4540  133.7685  159.6785 H   0  0  0  0  0  0  0  0  0  0  0  0  # atno 6907 bound_to 6896
  150.8460  133.7850  159.3049 H   0  0  0  0  0  0  0  0  0  0  0  0  # atno 6908 bound_to 6896
  151.5461  135.1071  159.9990 H   0  0  0  0  0  0  0  0  0  0  0  0  # atno 6909 bound_to 6896
  145.4853  140.9555  143.1842 H   0  0  0  0  0  0  0  0  0  0  0  0  # atno 7974 bound_to 7965
  156.2126  140.1786  156.7661 H   0  0  0  0  0  0  0  0  0  0  0  0  # atno 8008 bound_to 7997
  154.5744  140.0677  156.9042 H   0  0  0  0  0  0  0  0  0  0  0  0  # atno 8009 bound_to 7997
  155.2614  140.3336  155.4275 H   0  0  0  0  0  0  0  0  0  0  0  0  # atno 8010 bound_to 7997
  140.4601  143.2456  151.8362 H   0  0  0  0  0  0  0  0  0  0  0  0  # atno 10167 bound_to 10162
  156.0339  130.5555  150.7515 H   0  0  0  0  0  0  0  0  0  0  0  0  # atno 10718 bound_to 10713
  153.2749  135.6935  153.7443 H   0  0  0  0  0  0  0  0  0  0  0  0  # atno 10763 bound_to 10752
  153.6452  135.3386  155.3084 H   0  0  0  0  0  0  0  0  0  0  0  0  # atno 10764 bound_to 10752
  154.8476  135.4441  154.1784 H   0  0  0  0  0  0  0  0  0  0  0  0  # atno 10765 bound_to 10752
  141.0043  134.0357  157.3497 H   0  0  0  0  0  0  0  0  0  0  0  0  # atno 11005 bound_to 11000
  144.7865  139.6416  143.7132 LP  0  0  0  0  0  0  0  0  0  0  0  0  # atno 17320 bound_to 7965
  146.2317  139.5826  142.9551 LP  0  0  0  0  0  0  0  0  0  0  0  0  # atno 17321 bound_to 7965
  139.4805  144.5018  151.9050 LP  0  0  0  0  0  0  0  0  0  0  0  0  # atno 17342 bound_to 10162
  140.4104  144.2376  150.5889 LP  0  0  0  0  0  0  0  0  0  0  0  0  # atno 17343 bound_to 10162
  157.5058  131.0922  151.0259 LP  0  0  0  0  0  0  0  0  0  0  0  0  # atno 17370 bound_to 10713
  157.0628  130.5832  149.5388 LP  0  0  0  0  0  0  0  0  0  0  0  0  # atno 17371 bound_to 10713
  139.9055  135.0178  156.7466 LP  0  0  0  0  0  0  0  0  0  0  0  0  # atno 17394 bound_to 11000
  140.6838  133.9451  155.7926 LP  0  0  0  0  0  0  0  0  0  0  0  0  # atno 17395 bound_to 11000

$$$$
