AV-unprocessed.smi:2124|AV-procd|sdf|8670|dock2
  -GOLD-   2272011423D 1   1.00000     0.00000
 Structure written by MMmdl.
 46 48  0  0  0  0  0  0  0  0  2 V2000
  144.8330  136.5638  156.8551 C   0  0  0  0  0  0  0  0  0  0  0  0
  145.8123  137.5875  156.3221 C   0  0  0  0  0  0  0  0  0  0  0  0
  146.9072  137.1887  155.7960 N   0  0  0  0  0  0  0  0  0  0  0  0
  147.8236  138.1339  155.3045 C   0  0  0  0  0  0  0  0  0  0  0  0
  149.0993  137.5692  154.7042 C   0  0  0  0  0  0  0  0  0  0  0  0
  147.5652  139.4709  155.3790 C   0  0  0  0  0  0  0  0  0  0  0  0
  148.5223  140.5462  154.8667 C   0  0  0  0  0  0  0  0  0  0  0  0
  149.8962  140.5933  155.5399 C   0  0  0  0  0  0  0  0  0  0  0  0
  150.7993  139.8408  155.1735 O   0  0  0  0  0  0  0  0  0  0  0  0
  150.0376  141.4885  156.5293 N   0  0  0  0  0  0  0  0  0  0  0  0
  151.2604  141.7308  157.2924 C   0  0  2  0  0  0  0  0  0  0  0  0
  151.7132  140.4128  157.9484 C   0  0  0  0  0  0  0  0  0  0  0  0
  151.0053  142.8582  158.3236 C   0  0  2  0  0  0  0  0  0  0  0  0
  150.7192  144.2384  157.6784 C   0  0  0  0  0  0  0  0  0  0  0  0
  151.7321  145.1700  158.3660 C   0  0  1  0  0  0  0  0  0  0  0  0
  151.3433  145.3549  159.8440 C   0  0  0  0  0  0  0  0  0  0  0  0
  151.7013  143.9897  160.4600 C   0  0  0  0  0  0  0  0  0  0  0  0
  152.2078  143.1896  159.2443 C   0  0  2  0  0  0  0  0  0  0  0  0
  152.9544  144.2680  158.4657 C   0  0  0  0  0  0  0  0  0  0  0  0
  146.2878  139.8888  155.9826 C   0  0  0  0  0  0  0  0  0  0  0  0
  145.9985  141.0828  156.0540 O   0  0  0  0  0  0  0  0  0  0  0  0
  145.4559  138.9119  156.4442 N   0  5  0  0  0  0  0  0  0  0  0  0
  145.0746  135.5642  156.4916 H   0  0  0  0  0  0  0  0  0  0  0  0
  143.8175  136.8038  156.5383 H   0  0  0  0  0  0  0  0  0  0  0  0
  144.8617  136.5493  157.9447 H   0  0  0  0  0  0  0  0  0  0  0  0
  149.9620  137.8531  155.3069 H   0  0  0  0  0  0  0  0  0  0  0  0
  149.2461  137.9406  153.6902 H   0  0  0  0  0  0  0  0  0  0  0  0
  149.0655  136.4802  154.6584 H   0  0  0  0  0  0  0  0  0  0  0  0
  148.6444  140.4409  153.7876 H   0  0  0  0  0  0  0  0  0  0  0  0
  148.0654  141.5270  154.9954 H   0  0  0  0  0  0  0  0  0  0  0  0
  149.2403  142.0650  156.7569 H   0  0  0  0  0  0  0  0  0  0  0  0
  152.0416  142.0609  156.6058 H   0  0  0  0  0  0  0  0  0  0  0  0
  152.6667  140.5218  158.4632 H   0  0  0  0  0  0  0  0  0  0  0  0
  151.8461  139.6278  157.2032 H   0  0  0  0  0  0  0  0  0  0  0  0
  150.9806  140.0585  158.6740 H   0  0  0  0  0  0  0  0  0  0  0  0
  150.1516  142.5625  158.9359 H   0  0  0  0  0  0  0  0  0  0  0  0
  150.9055  144.2258  156.6033 H   0  0  0  0  0  0  0  0  0  0  0  0
  149.6884  144.5610  157.8285 H   0  0  0  0  0  0  0  0  0  0  0  0
  151.8933  146.1081  157.8343 H   0  0  0  0  0  0  0  0  0  0  0  0
  151.9299  146.1499  160.3065 H   0  0  0  0  0  0  0  0  0  0  0  0
  150.2880  145.6027  159.9640 H   0  0  0  0  0  0  0  0  0  0  0  0
  152.4913  144.1027  161.2037 H   0  0  0  0  0  0  0  0  0  0  0  0
  150.8503  143.5151  160.9500 H   0  0  0  0  0  0  0  0  0  0  0  0
  152.8165  142.3332  159.5309 H   0  0  0  0  0  0  0  0  0  0  0  0
  153.3251  143.9309  157.4964 H   0  0  0  0  0  0  0  0  0  0  0  0
  153.7771  144.7156  159.0261 H   0  0  0  0  0  0  0  0  0  0  0  0
  1  2  1  0  0  0  0
  1 23  1  0  0  0  0
  1 24  1  0  0  0  0
  1 25  1  0  0  0  0
  2 22  1  0  0  0  0
  2  3  2  0  0  0  0
  3  4  1  0  0  0  0
  4  5  1  0  0  0  0
  4  6  2  0  0  0  0
  5 26  1  0  0  0  0
  5 27  1  0  0  0  0
  5 28  1  0  0  0  0
  6  7  1  0  0  0  0
  6 20  1  0  0  0  0
  7  8  1  0  0  0  0
  7 29  1  0  0  0  0
  7 30  1  0  0  0  0
  8  9  2  0  0  0  0
  8 10  1  0  0  0  0
 10 11  1  0  0  0  0
 10 31  1  0  0  0  0
 11 12  1  0  0  0  0
 11 13  1  0  0  0  0
 11 32  1  0  0  0  0
 12 33  1  0  0  0  0
 12 34  1  0  0  0  0
 12 35  1  0  0  0  0
 13 18  1  0  0  0  0
 13 14  1  0  0  0  0
 13 36  1  0  0  0  0
 14 15  1  0  0  0  0
 14 37  1  0  0  0  0
 14 38  1  0  0  0  0
 15 19  1  0  0  0  0
 15 16  1  0  0  0  0
 15 39  1  0  0  0  0
 16 17  1  0  0  0  0
 16 40  1  0  0  0  0
 16 41  1  0  0  0  0
 17 18  1  0  0  0  0
 17 42  1  0  0  0  0
 17 43  1  0  0  0  0
 18 19  1  0  0  0  0
 18 44  1  0  0  0  0
 19 45  1  0  0  0  0
 19 46  1  0  0  0  0
 20 21  2  0  0  0  0
 20 22  1  0  0  0  0
M  CHG  1  22  -1
M  END
> <s_m_source_file>
AV-unprocessed.smi

> <i_m_source_file_index>
2124

> <i_lp_mmshare_version>
43012

> <i_f3d_flags>
0

> <s_epik_input>
W0NIM11jMW5jKFtDSDNdKWMoYyg9TylbbkhdMSlbQ0gyXUMoPU8pW05IXVtDQEhdKFtDSDNdKVtDQEhdKFtDSDJdW0NASF0yMylbQ0BIXShbQ0gyXTMpW0NIMl1bQ0gyXTI=

> <s_epik_cmdline>
J2VwaWtfcHl0aG9uJywgJy1waCcsICc3LjAnLCAnLXRuJywgJzgnLCAnLW1hJywgJzIwMCcsICctbWV0YWxfYmluZGluZycsICctaW1hZScsICc8aW5maWxlLm1hZT4nLCAnLW9tYWUnLCAnPG91dGZpbGUubWFlPic=

> <r_lp_tautomer_probability>
0.839158

> <r_epik_Ionization_Penalty>
6.63797

> <r_epik_Ionization_Penalty_Charging>
7.48558e-08

> <r_epik_Ionization_Penalty_Neutral>
6.63797

> <r_epik_State_Penalty>
4.49496

> <r_epik_Charging_Adjusted_Penalty>
4.49496

> <i_epik_Tot_Q>
-1

> <i_epik_Tot_abs_Q>
1

> <r_epik_Metal_State_Penalty>
0.841241

> <b_epik_Metal_Only>
1

> <s_lp_Force_Field>
OPLS_2005

> <r_lp_Energy>
56.157

> <b_lp_Chiralities_Consistent>
1

> <s_lp_Variant>
AV-unprocessed.smi:2124-21

> <Gold.Version>
5.8.1

> <Gold.Id.Protein>
6NUR|6NUR_protein|mol2

> <Gold.PLP.Fitness>
46.2795

> <Gold.PLP.PLP>
-42.2656

> <Gold.PLP.part.hbond>
-2.0000

> <Gold.PLP.part.metal>
0.0000

> <Gold.PLP.part.buried>
-4.8677

> <Gold.PLP.part.nonpolar>
-35.3543

> <Gold.PLP.part.repulsive>
0.5187

> <Gold.PLP.ligand.clash>
0.0000

> <Gold.PLP.ligand.torsion>
0.3617

> <Gold.PLP.Chemscore.Hbond>
1.5616

> <Gold.PLP.Chemscore.CHOScore>
0.0000

> <Gold.PLP.Chemscore.Metal>
0.0000

> <Gold.Chemscore.Hbonds>
donor molecule, donor type, donor heavy atom, donor atom, acceptor molecule, acceptor atom, score
      P1  H  7989  7998       L1     9  0.73

> <Gold.PLP.Chemscore.Internal.Correction>
0.0524

> <Gold.Rescore>
     Score         DG    S(hbond)    S(metal)    S(lipo)     H(rot)  DE(clash)    DE(int)     intcor
     17.26     -20.26       1.41        0.00     121.28       1.61       0.23       2.78       ----

> <Gold.Chemscore.Fitness>
17.2575

> <Gold.Chemscore.DG>
-20.2609

> <Gold.Chemscore.ZeroCoef>
-5.4800

> <Gold.Chemscore.Hbond>
1.4073

> <Gold.Chemscore.Metal>
0.0000

> <Gold.Chemscore.Lipo>
121.2769

> <Gold.Chemscore.Internal_Hbond>
0.0000

> <Gold.Chemscore.DEClash>
0.2276

> <Gold.Chemscore.DEInternal>
2.7758

> <Gold.Chemscore.Rot>
1.6051

> <Gold.Chemscore.Internal.Correction>
   9.000000E+99

> <Gold.Chemscore.Hbonds>
donor molecule, donor type, donor heavy atom, donor atom, acceptor molecule, acceptor atom, score
      P1  H  7989  7998       L1     9  0.29

> <Gold.Chemscore.Hbond.Weighted>
-4.7005

> <Gold.Chemscore.Metal.Weighted>
-0.0000

> <Gold.Chemscore.Lipo.Weighted>
-14.1894

> <Gold.Chemscore.Internal_Hbond.Weighted>
0.0000

> <Gold.Chemscore.DEClash.Weighted>
0.2276

> <Gold.Chemscore.DEInternal.Weighted>
2.7758

> <Gold.Chemscore.Rot.Weighted>
4.1090

> <Gold.Chemscore.Internal.Correction.Weighted>
   9.000000E+99

> <Gold.Protein.RotatedTorsions>
[ 6907 6896 6895 6894 ] final   -1.36 input  -60.11 | X-H torsion
[ 7974 7965 7964 7962 ] final   50.84 input  175.53 | X-H torsion
[ 8008 7997 7996 7995 ] final  -85.06 input   59.86 | X-H torsion
[ 10167 10162 10161 10158 ] final -112.97 input  -65.29 | X-H torsion
[ 10718 10713 10712 10709 ] final   96.24 input   66.30 | X-H torsion
[ 10763 10752 10751 10750 ] final -170.10 input  -60.55 | X-H torsion
[ 11005 11000 10999 10996 ] final   98.46 input  -57.11 | X-H torsion

> <Gold.Protein.ActiveResidues>
 VAL166  LYS551  ARG553  GLY616  TRP617  ASP618  TYR619  PRO620  LYS621  CYS622 
 ASP623  PHE694  ASN695  SER759  ASP760  ASP761  ALA762  ILE779  LEU786  VAL792 
 PHE793  MET794  SER795  GLU796  ALA797  LYS798  CYS799  TRP800  GLU811  SER814 

> <Gold.Protein.RotatedAtoms>
  151.5473  135.1068  159.9940 H   0  0  0  0  0  0  0  0  0  0  0  0  # atno 6907 bound_to 6896
  152.4508  133.7621  159.6763 H   0  0  0  0  0  0  0  0  0  0  0  0  # atno 6908 bound_to 6896
  150.8435  133.7831  159.3076 H   0  0  0  0  0  0  0  0  0  0  0  0  # atno 6909 bound_to 6896
  145.9973  139.4401  143.0037 H   0  0  0  0  0  0  0  0  0  0  0  0  # atno 7974 bound_to 7965
  154.6366  140.0596  156.9795 H   0  0  0  0  0  0  0  0  0  0  0  0  # atno 8008 bound_to 7997
  155.1583  140.3280  155.4398 H   0  0  0  0  0  0  0  0  0  0  0  0  # atno 8009 bound_to 7997
  156.2510  140.1935  156.6691 H   0  0  0  0  0  0  0  0  0  0  0  0  # atno 8010 bound_to 7997
  140.1169  143.4478  152.1716 H   0  0  0  0  0  0  0  0  0  0  0  0  # atno 10167 bound_to 10162
  157.6929  131.0571  150.4461 H   0  0  0  0  0  0  0  0  0  0  0  0  # atno 10718 bound_to 10713
  154.6452  135.2904  155.0055 H   0  0  0  0  0  0  0  0  0  0  0  0  # atno 10763 bound_to 10752
  154.1167  135.6554  153.4899 H   0  0  0  0  0  0  0  0  0  0  0  0  # atno 10764 bound_to 10752
  153.0347  135.5278  154.7336 H   0  0  0  0  0  0  0  0  0  0  0  0  # atno 10765 bound_to 10752
  139.8772  134.9050  156.4460 H   0  0  0  0  0  0  0  0  0  0  0  0  # atno 11005 bound_to 11000
  145.7541  140.9961  143.1235 LP  0  0  0  0  0  0  0  0  0  0  0  0  # atno 17320 bound_to 7965
  144.6908  139.9250  143.7469 LP  0  0  0  0  0  0  0  0  0  0  0  0  # atno 17321 bound_to 7965
  139.5589  144.7392  151.4212 LP  0  0  0  0  0  0  0  0  0  0  0  0  # atno 17342 bound_to 10162
  140.6894  143.7897  150.7233 LP  0  0  0  0  0  0  0  0  0  0  0  0  # atno 17343 bound_to 10162
  156.4816  130.4075  149.6458 LP  0  0  0  0  0  0  0  0  0  0  0  0  # atno 17370 bound_to 10713
  156.3502  130.7428  151.2386 LP  0  0  0  0  0  0  0  0  0  0  0  0  # atno 17371 bound_to 10713
  140.8966  133.7810  155.9632 LP  0  0  0  0  0  0  0  0  0  0  0  0  # atno 17394 bound_to 11000
  140.8697  134.2742  157.5197 LP  0  0  0  0  0  0  0  0  0  0  0  0  # atno 17395 bound_to 11000

$$$$
