AV-unprocessed.smi:2171|AV-procd|sdf|8827|dock2
  -GOLD-   2272012 23D 1   1.00000     0.00000
 Structure written by MMmdl.
 39 41  0  0  0  0  0  0  0  0  2 V2000
  152.9394  139.8424  157.2077 O   0  0  0  0  0  0  0  0  0  0  0  0
  152.1208  140.6676  157.6119 C   0  0  0  0  0  0  0  0  0  0  0  0
  152.3165  141.3457  158.9671 C   0  0  0  0  0  0  0  0  0  0  0  0
  152.0410  142.7681  158.8686 N   0  0  0  0  0  0  0  0  0  0  0  0
  152.8192  143.8219  159.3005 C   0  0  0  0  0  0  0  0  0  0  0  0
  152.1624  144.9731  158.9725 C   0  0  0  0  0  0  0  0  0  0  0  0
  150.9762  144.5158  158.3330 C   0  0  0  0  0  0  0  0  0  0  0  0
  150.9070  143.1959  158.2700 N   0  0  0  0  0  0  0  0  0  0  0  0
  151.0468  141.0513  156.9055 N   0  0  0  0  0  0  0  0  0  0  0  0
  150.7531  140.6300  155.5400 C   0  0  1  0  0  0  0  0  0  0  0  0
  150.4791  139.1250  155.4150 C   0  0  0  0  0  0  0  0  0  0  0  0
  149.4491  138.9970  154.2782 C   0  0  0  0  0  0  0  0  0  0  0  0
  149.1610  140.3765  153.8258 N   0  3  1  0  0  0  0  0  0  0  0  0
  147.8441  140.5994  153.1760 C   0  0  0  0  0  0  0  0  0  0  0  0
  146.6918  140.7043  154.1891 C   0  0  0  0  0  0  0  0  0  0  0  0
  146.9997  141.7648  155.2511 C   0  0  0  0  0  0  0  0  0  0  0  0
  148.3170  141.4219  155.9546 C   0  0  0  0  0  0  0  0  0  0  0  0
  149.4904  141.2815  154.9492 C   0  0  1  0  0  0  0  0  0  0  0  0
  151.6608  140.8969  159.7151 H   0  0  0  0  0  0  0  0  0  0  0  0
  153.3422  141.2073  159.3116 H   0  0  0  0  0  0  0  0  0  0  0  0
  153.7660  143.6654  159.7964 H   0  0  0  0  0  0  0  0  0  0  0  0
  152.4809  145.9877  159.1604 H   0  0  0  0  0  0  0  0  0  0  0  0
  150.1698  145.1001  157.9146 H   0  0  0  0  0  0  0  0  0  0  0  0
  150.4290  141.7350  157.3199 H   0  0  0  0  0  0  0  0  0  0  0  0
  151.6035  140.8700  154.8982 H   0  0  0  0  0  0  0  0  0  0  0  0
  151.3928  138.5672  155.2064 H   0  0  0  0  0  0  0  0  0  0  0  0
  150.0565  138.7266  156.3387 H   0  0  0  0  0  0  0  0  0  0  0  0
  149.8298  138.4037  153.4465 H   0  0  0  0  0  0  0  0  0  0  0  0
  148.5462  138.5106  154.6485 H   0  0  0  0  0  0  0  0  0  0  0  0
  147.9057  141.5291  152.6091 H   0  0  0  0  0  0  0  0  0  0  0  0
  147.6508  139.8079  152.4512 H   0  0  0  0  0  0  0  0  0  0  0  0
  145.7661  140.9563  153.6707 H   0  0  0  0  0  0  0  0  0  0  0  0
  146.5210  139.7397  154.6683 H   0  0  0  0  0  0  0  0  0  0  0  0
  147.0685  142.7500  154.7879 H   0  0  0  0  0  0  0  0  0  0  0  0
  146.1887  141.8156  155.9782 H   0  0  0  0  0  0  0  0  0  0  0  0
  148.5426  142.1939  156.6912 H   0  0  0  0  0  0  0  0  0  0  0  0
  148.1872  140.4954  156.5154 H   0  0  0  0  0  0  0  0  0  0  0  0
  149.7259  142.2682  154.5477 H   0  0  0  0  0  0  0  0  0  0  0  0
  149.8579  140.5645  153.1191 H   0  0  0  0  0  0  0  0  0  0  0  0
  1  2  2  0  0  0  0
  2  3  1  0  0  0  0
  2  9  1  0  0  0  0
  3  4  1  0  0  0  0
  3 19  1  0  0  0  0
  3 20  1  0  0  0  0
  4  8  1  0  0  0  0
  4  5  1  0  0  0  0
  5  6  2  0  0  0  0
  5 21  1  0  0  0  0
  6  7  1  0  0  0  0
  6 22  1  0  0  0  0
  7  8  2  0  0  0  0
  7 23  1  0  0  0  0
  9 10  1  0  0  0  0
  9 24  1  0  0  0  0
 10 18  1  0  0  0  0
 10 11  1  0  0  0  0
 10 25  1  0  0  0  0
 11 12  1  0  0  0  0
 11 26  1  0  0  0  0
 11 27  1  0  0  0  0
 12 13  1  0  0  0  0
 12 28  1  0  0  0  0
 12 29  1  0  0  0  0
 13 18  1  0  0  0  0
 13 14  1  0  0  0  0
 13 39  1  0  0  0  0
 14 15  1  0  0  0  0
 14 30  1  0  0  0  0
 14 31  1  0  0  0  0
 15 16  1  0  0  0  0
 15 32  1  0  0  0  0
 15 33  1  0  0  0  0
 16 17  1  0  0  0  0
 16 34  1  0  0  0  0
 16 35  1  0  0  0  0
 17 18  1  0  0  0  0
 17 36  1  0  0  0  0
 17 37  1  0  0  0  0
 18 38  1  0  0  0  0
M  CHG  1  13   1
M  END
> <s_m_source_file>
AV-unprocessed.smi

> <i_m_source_file_index>
2171

> <i_lp_mmshare_version>
43012

> <i_f3d_flags>
0

> <s_epik_input>
bjFbY0hdW2NIXVtjSF1uMVtDSDJdQyg9TylbTkhdW0NASF0oW0NIMl1bQ0gyXTIpW0NAQEhdKE4yMylbQ0gyXVtDSDJdW0NIMl1bQ0gyXTM=

> <s_epik_cmdline>
J2VwaWtfcHl0aG9uJywgJy1waCcsICc3LjAnLCAnLXRuJywgJzgnLCAnLW1hJywgJzIwMCcsICctbWV0YWxfYmluZGluZycsICctaW1hZScsICc8aW5maWxlLm1hZT4nLCAnLW9tYWUnLCAnPG91dGZpbGUubWFlPic=

> <r_lp_tautomer_probability>
1

> <r_epik_Ionization_Penalty>
0.00204179

> <r_epik_Ionization_Penalty_Charging>
0.00203239

> <r_epik_Ionization_Penalty_Neutral>
9.40205e-06

> <r_epik_State_Penalty>
0.00138983

> <r_epik_Charging_Adjusted_Penalty>
0.00342221

> <i_epik_Tot_Q>
1

> <i_epik_Tot_abs_Q>
1

> <r_epik_Metal_State_Penalty>
-0

> <b_epik_Metal_Only>
0

> <s_lp_Force_Field>
OPLS_2005

> <r_lp_Energy>
35.3096

> <b_lp_Chiralities_Consistent>
1

> <s_lp_Variant>
AV-unprocessed.smi:2171-2

> <Gold.Version>
5.8.1

> <Gold.Id.Protein>
6NUR|6NUR_protein|mol2

> <Gold.PLP.Fitness>
42.6184

> <Gold.PLP.PLP>
-36.0717

> <Gold.PLP.part.hbond>
-2.0000

> <Gold.PLP.part.metal>
0.0000

> <Gold.PLP.part.buried>
-1.6833

> <Gold.PLP.part.nonpolar>
-33.7616

> <Gold.PLP.part.repulsive>
0.3536

> <Gold.PLP.ligand.clash>
0.0000

> <Gold.PLP.ligand.torsion>
0.3471

> <Gold.PLP.Chemscore.Hbond>
1.4524

> <Gold.PLP.Chemscore.CHOScore>
0.9588

> <Gold.PLP.Chemscore.Metal>
0.0000

> <Gold.Chemscore.Hbonds>
donor molecule, donor type, donor heavy atom, donor atom, acceptor molecule, acceptor atom, score
      L1  H    13    39       P1  7957  0.46
      P1  H  7997  8010       L1     1  1.00
      L1  C     7    23       P1  8028  0.36
      L1  C     7    23       P1  8029  0.60

> <Gold.PLP.Chemscore.Internal.Correction>
0.0073

> <Gold.Rescore>
     Score         DG    S(hbond)    S(metal)    S(lipo)     H(rot)  DE(clash)    DE(int)     intcor
     18.33     -18.58       1.74        0.00      93.76       1.44       0.04       0.22       ----

> <Gold.Chemscore.Fitness>
18.3253

> <Gold.Chemscore.DG>
-18.5827

> <Gold.Chemscore.ZeroCoef>
-5.4800

> <Gold.Chemscore.Hbond>
1.7429

> <Gold.Chemscore.Metal>
0.0000

> <Gold.Chemscore.Lipo>
93.7641

> <Gold.Chemscore.Internal_Hbond>
0.0000

> <Gold.Chemscore.DEClash>
0.0382

> <Gold.Chemscore.DEInternal>
0.2193

> <Gold.Chemscore.Rot>
1.4410

> <Gold.Chemscore.Internal.Correction>
   9.000000E+99

> <Gold.Chemscore.Hbonds>
donor molecule, donor type, donor heavy atom, donor atom, acceptor molecule, acceptor atom, score
      L1  H    13    39       P1  7957  0.43
      P1  H  7997  8010       L1     1  0.96

> <Gold.Chemscore.Hbond.Weighted>
-5.8213

> <Gold.Chemscore.Metal.Weighted>
-0.0000

> <Gold.Chemscore.Lipo.Weighted>
-10.9704

> <Gold.Chemscore.Internal_Hbond.Weighted>
0.0000

> <Gold.Chemscore.DEClash.Weighted>
0.0382

> <Gold.Chemscore.DEInternal.Weighted>
0.2193

> <Gold.Chemscore.Rot.Weighted>
3.6889

> <Gold.Chemscore.Internal.Correction.Weighted>
   9.000000E+99

> <Gold.Protein.RotatedTorsions>
[ 6907 6896 6895 6894 ] final  -15.00 input  -60.11 | X-H torsion
[ 7974 7965 7964 7962 ] final  176.19 input  175.53 | X-H torsion
[ 8008 7997 7996 7995 ] final   44.32 input   59.86 | X-H torsion
[ 10167 10162 10161 10158 ] final   18.10 input  -65.29 | X-H torsion
[ 10718 10713 10712 10709 ] final  161.32 input   66.30 | X-H torsion
[ 10763 10752 10751 10750 ] final   72.66 input  -60.55 | X-H torsion
[ 11005 11000 10999 10996 ] final  -80.33 input  -57.11 | X-H torsion

> <Gold.Protein.ActiveResidues>
 VAL166  LYS551  ARG553  GLY616  TRP617  ASP618  TYR619  PRO620  LYS621  CYS622 
 ASP623  PHE694  ASN695  SER759  ASP760  ASP761  ALA762  ILE779  LEU786  VAL792 
 PHE793  MET794  SER795  GLU796  ALA797  LYS798  CYS799  TRP800  GLU811  SER814 

> <Gold.Protein.RotatedAtoms>
  151.3308  135.0841  159.9337 H   0  0  0  0  0  0  0  0  0  0  0  0  # atno 6907 bound_to 6896
  152.5235  133.9545  159.7698 H   0  0  0  0  0  0  0  0  0  0  0  0  # atno 6908 bound_to 6896
  150.9883  133.6122  159.2742 H   0  0  0  0  0  0  0  0  0  0  0  0  # atno 6909 bound_to 6896
  144.7188  140.0059  143.6440 H   0  0  0  0  0  0  0  0  0  0  0  0  # atno 7974 bound_to 7965
  155.3173  140.3394  155.4242 H   0  0  0  0  0  0  0  0  0  0  0  0  # atno 8008 bound_to 7997
  156.1926  140.1703  156.8099 H   0  0  0  0  0  0  0  0  0  0  0  0  # atno 8009 bound_to 7997
  154.5460  140.0715  156.8574 H   0  0  0  0  0  0  0  0  0  0  0  0  # atno 8010 bound_to 7997
  140.5678  143.9218  150.6690 H   0  0  0  0  0  0  0  0  0  0  0  0  # atno 10167 bound_to 10162
  157.1381  131.0533  151.2340 H   0  0  0  0  0  0  0  0  0  0  0  0  # atno 10718 bound_to 10713
  153.0472  135.5092  154.7777 H   0  0  0  0  0  0  0  0  0  0  0  0  # atno 10763 bound_to 10752
  154.6667  135.2947  154.9798 H   0  0  0  0  0  0  0  0  0  0  0  0  # atno 10764 bound_to 10752
  154.0630  135.6688  153.4867 H   0  0  0  0  0  0  0  0  0  0  0  0  # atno 10765 bound_to 10752
  141.1668  133.7145  156.8256 H   0  0  0  0  0  0  0  0  0  0  0  0  # atno 11005 bound_to 11000
  146.0298  139.3324  143.0762 LP  0  0  0  0  0  0  0  0  0  0  0  0  # atno 17320 bound_to 7965
  145.8467  140.9551  143.0771 LP  0  0  0  0  0  0  0  0  0  0  0  0  # atno 17321 bound_to 7965
  140.2686  143.3472  152.1259 LP  0  0  0  0  0  0  0  0  0  0  0  0  # atno 17342 bound_to 10162
  139.5102  144.6880  151.5837 LP  0  0  0  0  0  0  0  0  0  0  0  0  # atno 17343 bound_to 10162
  157.4332  130.7502  149.7007 LP  0  0  0  0  0  0  0  0  0  0  0  0  # atno 17370 bound_to 10713
  155.9794  130.4040  150.3589 LP  0  0  0  0  0  0  0  0  0  0  0  0  # atno 17371 bound_to 10713
  140.2088  134.8843  157.3251 LP  0  0  0  0  0  0  0  0  0  0  0  0  # atno 17394 bound_to 11000
  140.2109  134.4140  155.7613 LP  0  0  0  0  0  0  0  0  0  0  0  0  # atno 17395 bound_to 11000

$$$$
