AV-unprocessed.smi:1669|AV-procd|sdf|6692|dock1
  -GOLD-   22720 7423D 1   1.00000     0.00000
 Structure written by MMmdl.
 49 51  0  0  0  0  0  0  0  0  3 V2000
  149.6759  134.5104  154.5689 C   0  0  0  0  0  0  0  0  0  0  0  0
  148.6117  135.5120  154.8145 N   0  3  2  0  0  0  0  0  0  0  0  0
  148.9674  136.4716  155.8916 C   0  0  0  0  0  0  0  0  0  0  0  0
  149.9506  137.5226  155.4095 C   0  0  0  0  0  0  0  0  0  0  0  0
  151.1958  137.1280  154.8757 C   0  0  0  0  0  0  0  0  0  0  0  0
  152.1132  138.0985  154.4280 C   0  0  0  0  0  0  0  0  0  0  0  0
  151.7884  139.4663  154.5110 C   0  0  0  0  0  0  0  0  0  0  0  0
  150.5457  139.8637  155.0409 C   0  0  0  0  0  0  0  0  0  0  0  0
  149.6273  138.8940  155.4882 C   0  0  0  0  0  0  0  0  0  0  0  0
  147.2839  134.8781  155.0164 C   0  0  0  0  0  0  0  0  0  0  0  0
  146.4401  134.8672  153.7261 C   0  0  1  0  0  0  0  0  0  0  0  0
  147.3096  134.7407  152.6179 O   0  0  0  0  0  0  0  0  0  0  0  0
  145.4283  133.7041  153.7166 C   0  0  0  0  0  0  0  0  0  0  0  0
  144.5634  133.7028  152.5263 N   0  0  0  0  0  0  0  0  0  0  0  0
  143.3233  134.2392  152.3329 C   0  0  0  0  0  0  0  0  0  0  0  0
  142.5103  134.9918  153.3384 C   0  0  0  0  0  0  0  0  0  0  0  0
  142.1268  134.2045  154.4460 O   0  0  0  0  0  0  0  0  0  0  0  0
  142.9633  133.9618  151.0467 N   0  3  0  0  0  0  0  0  0  0  0  0
  143.9808  133.2495  150.4116 C   0  0  0  0  0  0  0  0  0  0  0  0
  144.0742  132.7524  149.1154 C   0  0  0  0  0  0  0  0  0  0  0  0
  145.2623  132.0683  148.7843 C   0  0  0  0  0  0  0  0  0  0  0  0
  146.2994  131.9004  149.7250 C   0  0  0  0  0  0  0  0  0  0  0  0
  146.1927  132.4080  151.0370 C   0  0  0  0  0  0  0  0  0  0  0  0
  145.0142  133.0822  151.3558 C   0  0  0  0  0  0  0  0  0  0  0  0
  149.8210  133.8726  155.4418 H   0  0  0  0  0  0  0  0  0  0  0  0
  150.6253  134.9912  154.3340 H   0  0  0  0  0  0  0  0  0  0  0  0
  149.4192  133.8750  153.7206 H   0  0  0  0  0  0  0  0  0  0  0  0
  148.0813  136.9946  156.2508 H   0  0  0  0  0  0  0  0  0  0  0  0
  149.3708  135.9357  156.7524 H   0  0  0  0  0  0  0  0  0  0  0  0
  151.4517  136.0804  154.8100 H   0  0  0  0  0  0  0  0  0  0  0  0
  153.0662  137.7944  154.0204 H   0  0  0  0  0  0  0  0  0  0  0  0
  152.4922  140.2105  154.1680 H   0  0  0  0  0  0  0  0  0  0  0  0
  150.2968  140.9129  155.1037 H   0  0  0  0  0  0  0  0  0  0  0  0
  148.6762  139.2074  155.8934 H   0  0  0  0  0  0  0  0  0  0  0  0
  147.4070  133.8481  155.3560 H   0  0  0  0  0  0  0  0  0  0  0  0
  146.7571  135.3986  155.8179 H   0  0  0  0  0  0  0  0  0  0  0  0
  145.8985  135.8062  153.6179 H   0  0  0  0  0  0  0  0  0  0  0  0
  148.0351  135.3355  152.7352 H   0  0  0  0  0  0  0  0  0  0  0  0
  145.9505  132.7469  153.7484 H   0  0  0  0  0  0  0  0  0  0  0  0
  144.7921  133.7342  154.6022 H   0  0  0  0  0  0  0  0  0  0  0  0
  143.0829  135.8470  153.6976 H   0  0  0  0  0  0  0  0  0  0  0  0
  141.6147  135.3810  152.8538 H   0  0  0  0  0  0  0  0  0  0  0  0
  142.4416  133.3230  154.3129 H   0  0  0  0  0  0  0  0  0  0  0  0
  143.2815  132.8812  148.3928 H   0  0  0  0  0  0  0  0  0  0  0  0
  145.3810  131.6659  147.7885 H   0  0  0  0  0  0  0  0  0  0  0  0
  147.1961  131.3723  149.4337 H   0  0  0  0  0  0  0  0  0  0  0  0
  146.9938  132.2747  151.7486 H   0  0  0  0  0  0  0  0  0  0  0  0
  148.5299  136.0476  153.9617 H   0  0  0  0  0  0  0  0  0  0  0  0
  142.0818  134.2455  150.6381 H   0  0  0  0  0  0  0  0  0  0  0  0
  1  2  1  0  0  0  0
  1 25  1  0  0  0  0
  1 26  1  0  0  0  0
  1 27  1  0  0  0  0
  2  3  1  0  0  0  0
  2 10  1  0  0  0  0
  2 48  1  0  0  0  0
  3  4  1  0  0  0  0
  3 28  1  0  0  0  0
  3 29  1  0  0  0  0
  4  9  1  0  0  0  0
  4  5  2  0  0  0  0
  5  6  1  0  0  0  0
  5 30  1  0  0  0  0
  6  7  2  0  0  0  0
  6 31  1  0  0  0  0
  7  8  1  0  0  0  0
  7 32  1  0  0  0  0
  8  9  2  0  0  0  0
  8 33  1  0  0  0  0
  9 34  1  0  0  0  0
 10 11  1  0  0  0  0
 10 35  1  0  0  0  0
 10 36  1  0  0  0  0
 11 12  1  0  0  0  0
 11 13  1  0  0  0  0
 11 37  1  0  0  0  0
 12 38  1  0  0  0  0
 13 14  1  0  0  0  0
 13 39  1  0  0  0  0
 13 40  1  0  0  0  0
 14 24  1  0  0  0  0
 14 15  1  0  0  0  0
 15 16  1  0  0  0  0
 15 18  2  0  0  0  0
 16 17  1  0  0  0  0
 16 41  1  0  0  0  0
 16 42  1  0  0  0  0
 17 43  1  0  0  0  0
 18 19  1  0  0  0  0
 18 49  1  0  0  0  0
 19 24  2  0  0  0  0
 19 20  1  0  0  0  0
 20 21  2  0  0  0  0
 20 44  1  0  0  0  0
 21 22  1  0  0  0  0
 21 45  1  0  0  0  0
 22 23  2  0  0  0  0
 22 46  1  0  0  0  0
 23 24  1  0  0  0  0
 23 47  1  0  0  0  0
M  CHG  1   2   1
M  CHG  1  18   1
M  END
> <s_m_source_file>
AV-unprocessed.smi

> <i_m_source_file_index>
1669

> <i_lp_mmshare_version>
43012

> <i_f3d_flags>
0

> <s_epik_input>
W2NIXTFbY0hdW2NIXVtjSF1bY0hdYzFbQ0gyXU4oW0NIM10pW0NIMl1bQ0BIXShbT0hdKVtDSDJdbihjKG4yKVtDSDJdW09IXSljKGMyMylbY0hdW2NIXVtjSF1bY0hdMw==

> <s_epik_cmdline>
J2VwaWtfcHl0aG9uJywgJy1waCcsICc3LjAnLCAnLXRuJywgJzgnLCAnLW1hJywgJzIwMCcsICctbWV0YWxfYmluZGluZycsICctaW1hZScsICc8aW5maWxlLm1hZT4nLCAnLW9tYWUnLCAnPG91dGZpbGUubWFlPic=

> <r_epik_Ionization_Penalty>
1.57484

> <r_epik_Ionization_Penalty_Charging>
1.57398

> <r_epik_Ionization_Penalty_Neutral>
0.000858917

> <r_epik_State_Penalty>
1.64997

> <r_epik_Charging_Adjusted_Penalty>
3.22395

> <i_epik_Tot_Q>
2

> <i_epik_Tot_abs_Q>
2

> <r_epik_Metal_State_Penalty>
5.70481

> <b_epik_Metal_Only>
0

> <s_lp_Force_Field>
OPLS_2005

> <r_lp_Energy>
22.4556

> <b_lp_Chiralities_Consistent>
1

> <s_lp_Variant>
AV-unprocessed.smi:1669-10

> <Gold.Version>
5.8.1

> <Gold.Id.Protein>
6NUR|6NUR_protein|mol2

> <Gold.PLP.Fitness>
52.4855

> <Gold.PLP.PLP>
-36.3666

> <Gold.PLP.part.hbond>
-4.1568

> <Gold.PLP.part.metal>
0.0000

> <Gold.PLP.part.buried>
5.7565

> <Gold.PLP.part.nonpolar>
-36.2006

> <Gold.PLP.part.repulsive>
0.0000

> <Gold.PLP.ligand.clash>
0.0000

> <Gold.PLP.ligand.torsion>
1.4931

> <Gold.PLP.Chemscore.Hbond>
6.1773

> <Gold.PLP.Chemscore.CHOScore>
0.0000

> <Gold.PLP.Chemscore.Metal>
0.0000

> <Gold.Chemscore.Hbonds>
donor molecule, donor type, donor heavy atom, donor atom, acceptor molecule, acceptor atom, score
      L1  H     2    48       P1  7948  1.40
      L1  H    12    38       P1  7948  0.75
      L1  H    17    43       P1 10957  1.00
      L1  H    18    49       P1 10186  1.98
      P1  H 11000 11005       L1    17  0.98

> <Gold.PLP.Chemscore.Internal.Correction>
0.5732

> <Gold.Rescore>
     Score         DG    S(hbond)    S(metal)    S(lipo)     H(rot)  DE(clash)    DE(int)     intcor
     17.18     -24.09       3.76        0.00     123.28       3.27       3.50       3.41       ----

> <Gold.Chemscore.Fitness>
17.1823

> <Gold.Chemscore.DG>
-24.0885

> <Gold.Chemscore.ZeroCoef>
-5.4800

> <Gold.Chemscore.Hbond>
3.7608

> <Gold.Chemscore.Metal>
0.0000

> <Gold.Chemscore.Lipo>
123.2759

> <Gold.Chemscore.Internal_Hbond>
0.0000

> <Gold.Chemscore.DEClash>
3.4969

> <Gold.Chemscore.DEInternal>
3.4093

> <Gold.Chemscore.Rot>
3.2718

> <Gold.Chemscore.Internal.Correction>
   9.000000E+99

> <Gold.Chemscore.Hbonds>
donor molecule, donor type, donor heavy atom, donor atom, acceptor molecule, acceptor atom, score
      L1  H     2    48       P1  7948  0.67
      L1  H    12    38       P1  7948  0.68
      L1  H    17    43       P1 10957  0.96
      L1  H    18    49       P1 10186  0.23
      P1  H 11000 11005       L1    17  0.36

> <Gold.Chemscore.Hbond.Weighted>
-12.5611

> <Gold.Chemscore.Metal.Weighted>
-0.0000

> <Gold.Chemscore.Lipo.Weighted>
-14.4233

> <Gold.Chemscore.Internal_Hbond.Weighted>
0.0000

> <Gold.Chemscore.DEClash.Weighted>
3.4969

> <Gold.Chemscore.DEInternal.Weighted>
3.4093

> <Gold.Chemscore.Rot.Weighted>
8.3759

> <Gold.Chemscore.Internal.Correction.Weighted>
   9.000000E+99

> <Gold.Protein.RotatedTorsions>
[ 6907 6896 6895 6894 ] final  -26.35 input  -60.11 | X-H torsion
[ 7974 7965 7964 7962 ] final -121.12 input  175.53 | X-H torsion
[ 8008 7997 7996 7995 ] final   55.75 input   59.86 | X-H torsion
[ 10167 10162 10161 10158 ] final -176.24 input  -65.29 | X-H torsion
[ 10718 10713 10712 10709 ] final  102.41 input   66.30 | X-H torsion
[ 10763 10752 10751 10750 ] final   80.73 input  -60.55 | X-H torsion
[ 11005 11000 10999 10996 ] final   -1.25 input  -57.11 | X-H torsion

> <Gold.Protein.ActiveResidues>
 VAL166  LYS551  ARG553  GLY616  TRP617  ASP618  TYR619  PRO620  LYS621  CYS622 
 ASP623  PHE694  ASN695  SER759  ASP760  ASP761  ALA762  ILE779  LEU786  VAL792 
 PHE793  MET794  SER795  GLU796  ALA797  LYS798  CYS799  TRP800  GLU811  SER814 

> <Gold.Protein.RotatedAtoms>
  151.1623  135.0279  159.8715 H   0  0  0  0  0  0  0  0  0  0  0  0  # atno 6907 bound_to 6896
  152.5451  134.1266  159.8431 H   0  0  0  0  0  0  0  0  0  0  0  0  # atno 6908 bound_to 6896
  151.1362  133.4956  159.2630 H   0  0  0  0  0  0  0  0  0  0  0  0  # atno 6909 bound_to 6896
  145.0438  140.8165  143.4250 H   0  0  0  0  0  0  0  0  0  0  0  0  # atno 7974 bound_to 7965
  155.5063  140.3476  155.4380 H   0  0  0  0  0  0  0  0  0  0  0  0  # atno 8008 bound_to 7997
  156.0880  140.1403  156.9656 H   0  0  0  0  0  0  0  0  0  0  0  0  # atno 8009 bound_to 7997
  154.4618  140.0932  156.6890 H   0  0  0  0  0  0  0  0  0  0  0  0  # atno 8010 bound_to 7997
  139.5540  144.2037  152.1126 H   0  0  0  0  0  0  0  0  0  0  0  0  # atno 10167 bound_to 10162
  157.6803  131.0752  150.5399 H   0  0  0  0  0  0  0  0  0  0  0  0  # atno 10718 bound_to 10713
  153.1057  135.4792  154.8947 H   0  0  0  0  0  0  0  0  0  0  0  0  # atno 10763 bound_to 10752
  154.7428  135.3086  154.8701 H   0  0  0  0  0  0  0  0  0  0  0  0  # atno 10764 bound_to 10752
  153.9304  135.6845  153.4799 H   0  0  0  0  0  0  0  0  0  0  0  0  # atno 10765 bound_to 10752
  140.6453  133.9453  155.8349 H   0  0  0  0  0  0  0  0  0  0  0  0  # atno 11005 bound_to 11000
  145.1613  139.2456  143.5390 LP  0  0  0  0  0  0  0  0  0  0  0  0  # atno 17320 bound_to 7965
  146.3512  140.1341  142.8596 LP  0  0  0  0  0  0  0  0  0  0  0  0  # atno 17321 bound_to 7965
  140.1538  144.5090  150.6672 LP  0  0  0  0  0  0  0  0  0  0  0  0  # atno 17342 bound_to 10162
  140.6808  143.2326  151.5388 LP  0  0  0  0  0  0  0  0  0  0  0  0  # atno 17343 bound_to 10162
  156.5707  130.4279  149.6021 LP  0  0  0  0  0  0  0  0  0  0  0  0  # atno 17370 bound_to 10713
  156.2743  130.7035  151.1841 LP  0  0  0  0  0  0  0  0  0  0  0  0  # atno 17371 bound_to 10713
  141.0577  134.0392  157.3701 LP  0  0  0  0  0  0  0  0  0  0  0  0  # atno 17394 bound_to 11000
  139.9065  135.0180  156.7509 LP  0  0  0  0  0  0  0  0  0  0  0  0  # atno 17395 bound_to 11000

$$$$
