AV-unprocessed.smi:2159|AV-procd|sdf|8795|dock2
  -GOLD-   2272011573D 1   1.00000     0.00000
 Structure written by MMmdl.
 48 50  0  0  0  0  0  0  0  0  2 V2000
  151.4816  136.0722  155.8248 O   0  0  0  0  0  0  0  0  0  0  0  0
  150.8202  136.5634  154.9106 C   0  0  0  0  0  0  0  0  0  0  0  0
  151.1962  137.9296  154.3359 C   0  0  0  0  0  0  0  0  0  0  0  0
  152.4006  138.5484  155.0736 C   0  0  0  0  0  0  0  0  0  0  0  0
  151.9678  139.4683  156.1295 N   0  0  0  0  0  0  0  0  0  0  0  0
  151.1143  140.4826  155.9314 C   0  0  0  0  0  0  0  0  0  0  0  0
  150.5924  140.7928  154.8596 O   0  0  0  0  0  0  0  0  0  0  0  0
  150.8384  141.2311  157.2328 C   0  0  2  0  0  0  0  0  0  0  0  0
  151.1638  142.7355  157.1231 C   0  0  0  0  0  0  0  0  0  0  0  0
  151.2161  143.3944  158.5122 C   0  0  0  0  0  0  0  0  0  0  0  0
  152.1433  142.6611  159.5072 C   0  0  0  0  0  0  0  0  0  0  0  0
  152.7750  141.3802  158.9334 C   0  0  0  0  0  0  0  0  0  0  0  0
  151.7203  140.4810  158.2546 C   0  0  2  0  0  0  0  0  0  0  0  0
  152.3649  139.3867  157.4068 C   0  0  0  0  0  0  0  0  0  0  0  0
  153.1401  138.5525  157.8741 O   0  0  0  0  0  0  0  0  0  0  0  0
  149.7737  135.9455  154.3422 N   0  0  0  0  0  0  0  0  0  0  0  0
  149.3238  134.5920  154.6536 C   0  0  0  0  0  0  0  0  0  0  0  0
  149.7374  133.5597  153.5828 C   0  0  0  0  0  0  0  0  0  0  0  0
  148.5728  133.0360  152.7587 C   0  0  0  0  0  0  0  0  0  0  0  0
  148.0891  131.7165  152.8981 C   0  0  0  0  0  0  0  0  0  0  0  0
  147.0221  131.2829  152.0847 C   0  0  0  0  0  0  0  0  0  0  0  0
  146.4575  132.1787  151.1535 C   0  0  0  0  0  0  0  0  0  0  0  0
  146.9754  133.4867  151.0593 C   0  0  0  0  0  0  0  0  0  0  0  0
  148.0014  133.8635  151.8541 N   0  3  0  0  0  0  0  0  0  0  0  0
  151.4284  137.8126  153.2757 H   0  0  0  0  0  0  0  0  0  0  0  0
  150.3351  138.5962  154.3919 H   0  0  0  0  0  0  0  0  0  0  0  0
  153.0267  137.7577  155.4906 H   0  0  0  0  0  0  0  0  0  0  0  0
  153.0445  139.0859  154.3747 H   0  0  0  0  0  0  0  0  0  0  0  0
  149.7872  141.1024  157.4947 H   0  0  0  0  0  0  0  0  0  0  0  0
  152.1206  142.8826  156.6187 H   0  0  0  0  0  0  0  0  0  0  0  0
  150.4161  143.2361  156.5069 H   0  0  0  0  0  0  0  0  0  0  0  0
  151.5274  144.4345  158.4129 H   0  0  0  0  0  0  0  0  0  0  0  0
  150.2074  143.4237  158.9261 H   0  0  0  0  0  0  0  0  0  0  0  0
  152.9331  143.3344  159.8416 H   0  0  0  0  0  0  0  0  0  0  0  0
  151.5714  142.4071  160.4005 H   0  0  0  0  0  0  0  0  0  0  0  0
  153.5514  141.6551  158.2172 H   0  0  0  0  0  0  0  0  0  0  0  0
  153.2804  140.8319  159.7294 H   0  0  0  0  0  0  0  0  0  0  0  0
  151.0900  140.0155  159.0136 H   0  0  0  0  0  0  0  0  0  0  0  0
  149.2825  136.4314  153.6056 H   0  0  0  0  0  0  0  0  0  0  0  0
  149.6851  134.2891  155.6376 H   0  0  0  0  0  0  0  0  0  0  0  0
  148.2361  134.6244  154.7218 H   0  0  0  0  0  0  0  0  0  0  0  0
  150.4677  134.0064  152.9071 H   0  0  0  0  0  0  0  0  0  0  0  0
  150.2462  132.7202  154.0576 H   0  0  0  0  0  0  0  0  0  0  0  0
  148.5367  131.0400  153.6118 H   0  0  0  0  0  0  0  0  0  0  0  0
  146.6441  130.2748  152.1726 H   0  0  0  0  0  0  0  0  0  0  0  0
  145.6398  131.8660  150.5207 H   0  0  0  0  0  0  0  0  0  0  0  0
  146.6047  134.2364  150.3755 H   0  0  0  0  0  0  0  0  0  0  0  0
  148.3621  134.8138  151.7660 H   0  0  0  0  0  0  0  0  0  0  0  0
  1  2  2  0  0  0  0
  2  3  1  0  0  0  0
  2 16  1  0  0  0  0
  3  4  1  0  0  0  0
  3 25  1  0  0  0  0
  3 26  1  0  0  0  0
  4  5  1  0  0  0  0
  4 27  1  0  0  0  0
  4 28  1  0  0  0  0
  5 14  1  0  0  0  0
  5  6  1  0  0  0  0
  6  7  2  0  0  0  0
  6  8  1  0  0  0  0
  8 13  1  0  0  0  0
  8  9  1  0  0  0  0
  8 29  1  0  0  0  0
  9 10  1  0  0  0  0
  9 30  1  0  0  0  0
  9 31  1  0  0  0  0
 10 11  1  0  0  0  0
 10 32  1  0  0  0  0
 10 33  1  0  0  0  0
 11 12  1  0  0  0  0
 11 34  1  0  0  0  0
 11 35  1  0  0  0  0
 12 13  1  0  0  0  0
 12 36  1  0  0  0  0
 12 37  1  0  0  0  0
 13 14  1  0  0  0  0
 13 38  1  0  0  0  0
 14 15  2  0  0  0  0
 16 17  1  0  0  0  0
 16 39  1  0  0  0  0
 17 18  1  0  0  0  0
 17 40  1  0  0  0  0
 17 41  1  0  0  0  0
 18 19  1  0  0  0  0
 18 42  1  0  0  0  0
 18 43  1  0  0  0  0
 19 24  1  0  0  0  0
 19 20  2  0  0  0  0
 20 21  1  0  0  0  0
 20 44  1  0  0  0  0
 21 22  2  0  0  0  0
 21 45  1  0  0  0  0
 22 23  1  0  0  0  0
 22 46  1  0  0  0  0
 23 24  2  0  0  0  0
 23 47  1  0  0  0  0
 24 48  1  0  0  0  0
M  CHG  1  24   1
M  END
> <s_m_source_file>
AV-unprocessed.smi

> <i_m_source_file_index>
2159

> <i_lp_mmshare_version>
43012

> <i_f3d_flags>
0

> <s_epik_input>
bjFbY0hdW2NIXVtjSF1bY0hdYzFbQ0gyXVtDSDJdW05IXUMoPU8pW0NIMl1bQ0gyXU4oQzI9TylDKD1PKVtDQEhdKFtDQEBIXTIzKVtDSDJdW0NIMl1bQ0gyXVtDSDJdMw==

> <s_epik_cmdline>
J2VwaWtfcHl0aG9uJywgJy1waCcsICc3LjAnLCAnLXRuJywgJzgnLCAnLW1hJywgJzIwMCcsICctbWV0YWxfYmluZGluZycsICctaW1hZScsICc8aW5maWxlLm1hZT4nLCAnLW9tYWUnLCAnPG91dGZpbGUubWFlPic=

> <r_lp_tautomer_probability>
1

> <r_epik_Ionization_Penalty>
1.85146

> <r_epik_Ionization_Penalty_Charging>
1.85146

> <r_epik_Ionization_Penalty_Neutral>
2.95922e-08

> <r_epik_State_Penalty>
1.96899

> <r_epik_Charging_Adjusted_Penalty>
3.82044

> <i_epik_Tot_Q>
1

> <i_epik_Tot_abs_Q>
1

> <r_epik_Metal_State_Penalty>
1.99467

> <b_epik_Metal_Only>
0

> <s_lp_Force_Field>
OPLS_2005

> <r_lp_Energy>
31.2596

> <b_lp_Chiralities_Consistent>
1

> <s_lp_Variant>
AV-unprocessed.smi:2159-5

> <Gold.Version>
5.8.1

> <Gold.Id.Protein>
6NUR|6NUR_protein|mol2

> <Gold.PLP.Fitness>
61.5019

> <Gold.PLP.PLP>
-47.9597

> <Gold.PLP.part.hbond>
-5.0000

> <Gold.PLP.part.metal>
0.0000

> <Gold.PLP.part.buried>
-3.8225

> <Gold.PLP.part.nonpolar>
-39.3161

> <Gold.PLP.part.repulsive>
0.2037

> <Gold.PLP.ligand.clash>
0.0000

> <Gold.PLP.ligand.torsion>
0.8694

> <Gold.PLP.Chemscore.Hbond>
5.0260

> <Gold.PLP.Chemscore.CHOScore>
0.0000

> <Gold.PLP.Chemscore.Metal>
0.0000

> <Gold.Chemscore.Hbonds>
donor molecule, donor type, donor heavy atom, donor atom, acceptor molecule, acceptor atom, score
      L1  H    16    39       P1  7948  0.75
      L1  H    24    48       P1  7948  0.68
      P1  H  7989  7998       L1     7  0.85
      P1  H  7997  8008       L1    15  0.07
      P1  H 10752 10765       L1     1  0.60

> <Gold.PLP.Chemscore.Internal.Correction>
0.2030

> <Gold.Rescore>
     Score         DG    S(hbond)    S(metal)    S(lipo)     H(rot)  DE(clash)    DE(int)     intcor
     18.50     -19.72       2.27        0.00     102.69       2.10       0.20       1.02       ----

> <Gold.Chemscore.Fitness>
18.5024

> <Gold.Chemscore.DG>
-19.7173

> <Gold.Chemscore.ZeroCoef>
-5.4800

> <Gold.Chemscore.Hbond>
2.2717

> <Gold.Chemscore.Metal>
0.0000

> <Gold.Chemscore.Lipo>
102.6946

> <Gold.Chemscore.Internal_Hbond>
0.0000

> <Gold.Chemscore.DEClash>
0.1953

> <Gold.Chemscore.DEInternal>
1.0196

> <Gold.Chemscore.Rot>
2.0959

> <Gold.Chemscore.Internal.Correction>
   9.000000E+99

> <Gold.Chemscore.Hbonds>
donor molecule, donor type, donor heavy atom, donor atom, acceptor molecule, acceptor atom, score
      L1  H    16    39       P1  7948  0.67
      L1  H    24    48       P1  7948  0.01
      P1  H  7989  7998       L1     7  0.78
      P1  H 10752 10765       L1     1  0.04

> <Gold.Chemscore.Hbond.Weighted>
-7.5875

> <Gold.Chemscore.Metal.Weighted>
-0.0000

> <Gold.Chemscore.Lipo.Weighted>
-12.0153

> <Gold.Chemscore.Internal_Hbond.Weighted>
0.0000

> <Gold.Chemscore.DEClash.Weighted>
0.1953

> <Gold.Chemscore.DEInternal.Weighted>
1.0196

> <Gold.Chemscore.Rot.Weighted>
5.3655

> <Gold.Chemscore.Internal.Correction.Weighted>
   9.000000E+99

> <Gold.Protein.RotatedTorsions>
[ 6907 6896 6895 6894 ] final  132.10 input  -60.11 | X-H torsion
[ 7974 7965 7964 7962 ] final   12.36 input  175.53 | X-H torsion
[ 8008 7997 7996 7995 ] final  -97.47 input   59.86 | X-H torsion
[ 10167 10162 10161 10158 ] final  -54.29 input  -65.29 | X-H torsion
[ 10718 10713 10712 10709 ] final  177.04 input   66.30 | X-H torsion
[ 10763 10752 10751 10750 ] final  178.20 input  -60.55 | X-H torsion
[ 11005 11000 10999 10996 ] final -141.67 input  -57.11 | X-H torsion

> <Gold.Protein.ActiveResidues>
 VAL166  LYS551  ARG553  GLY616  TRP617  ASP618  TYR619  PRO620  LYS621  CYS622 
 ASP623  PHE694  ASN695  SER759  ASP760  ASP761  ALA762  ILE779  LEU786  VAL792 
 PHE793  MET794  SER795  GLU796  ALA797  LYS798  CYS799  TRP800  GLU811  SER814 

> <Gold.Protein.RotatedAtoms>
  152.3358  133.6010  159.5841 H   0  0  0  0  0  0  0  0  0  0  0  0  # atno 6907 bound_to 6896
  150.7449  133.9798  159.3581 H   0  0  0  0  0  0  0  0  0  0  0  0  # atno 6908 bound_to 6896
  151.7667  135.0797  160.0405 H   0  0  0  0  0  0  0  0  0  0  0  0  # atno 6909 bound_to 6896
  146.2353  139.9348  142.8491 H   0  0  0  0  0  0  0  0  0  0  0  0  # atno 7974 bound_to 7965
  154.7883  140.0463  157.1181 H   0  0  0  0  0  0  0  0  0  0  0  0  # atno 8008 bound_to 7997
  154.9622  140.3079  155.5006 H   0  0  0  0  0  0  0  0  0  0  0  0  # atno 8009 bound_to 7997
  156.2946  140.2268  156.4708 H   0  0  0  0  0  0  0  0  0  0  0  0  # atno 8010 bound_to 7997
  140.6438  143.2523  151.4915 H   0  0  0  0  0  0  0  0  0  0  0  0  # atno 10167 bound_to 10162
  156.9113  130.9910  151.3020 H   0  0  0  0  0  0  0  0  0  0  0  0  # atno 10718 bound_to 10713
  154.5045  135.2785  155.1393 H   0  0  0  0  0  0  0  0  0  0  0  0  # atno 10763 bound_to 10752
  154.3013  135.6247  153.5429 H   0  0  0  0  0  0  0  0  0  0  0  0  # atno 10764 bound_to 10752
  152.9908  135.5697  154.5496 H   0  0  0  0  0  0  0  0  0  0  0  0  # atno 10765 bound_to 10752
  140.8301  134.2527  157.4861 H   0  0  0  0  0  0  0  0  0  0  0  0  # atno 11005 bound_to 11000
  145.2009  140.9854  143.4156 LP  0  0  0  0  0  0  0  0  0  0  0  0  # atno 17320 bound_to 7965
  144.9774  139.3818  143.6279 LP  0  0  0  0  0  0  0  0  0  0  0  0  # atno 17321 bound_to 7965
  139.5648  144.2068  152.1748 LP  0  0  0  0  0  0  0  0  0  0  0  0  # atno 17342 bound_to 10162
  140.1347  144.5257  150.6781 LP  0  0  0  0  0  0  0  0  0  0  0  0  # atno 17343 bound_to 10162
  157.5966  130.8482  149.8738 LP  0  0  0  0  0  0  0  0  0  0  0  0  # atno 17370 bound_to 10713
  156.0535  130.3713  150.1146 LP  0  0  0  0  0  0  0  0  0  0  0  0  # atno 17371 bound_to 10713
  139.8705  134.9581  156.4291 LP  0  0  0  0  0  0  0  0  0  0  0  0  # atno 17394 bound_to 11000
  140.9007  133.7781  155.9677 LP  0  0  0  0  0  0  0  0  0  0  0  0  # atno 17395 bound_to 11000

$$$$
