AV-unprocessed.smi:1159|AV-procd|sdf|4914|dock8
  -GOLD-   22720 3493D 1   1.00000     0.00000
 Structure written by MMmdl.
 41 42  0  0  0  0  0  0  0  0  1 V2000
  147.0077  138.5435  155.3702 O   0  0  0  0  0  0  0  0  0  0  0  0
  147.8218  138.0316  154.6028 C   0  0  0  0  0  0  0  0  0  0  0  0
  149.1332  138.3227  154.5443 N   0  0  0  0  0  0  0  0  0  0  0  0
  149.8778  139.2778  155.2906 C   0  0  0  0  0  0  0  0  0  0  0  0
  151.2915  139.3549  155.3223 C   0  0  0  0  0  0  0  0  0  0  0  0
  151.9017  140.3436  156.1180 C   0  0  0  0  0  0  0  0  0  0  0  0
  151.0878  141.2200  156.8622 C   0  0  0  0  0  0  0  0  0  0  0  0
  151.6955  142.1832  157.6407 O   0  0  0  0  0  0  0  0  0  0  0  0
  150.8739  143.1400  158.3047 C   0  0  0  0  0  0  0  0  0  0  0  0
  151.7655  144.1814  158.9916 C   0  0  0  0  0  0  0  0  0  0  0  0
  152.5650  144.7430  158.0855 F   0  0  0  0  0  0  0  0  0  0  0  0
  151.0172  145.1330  159.5491 F   0  0  0  0  0  0  0  0  0  0  0  0
  152.5185  143.6001  159.9250 F   0  0  0  0  0  0  0  0  0  0  0  0
  149.7342  141.1473  156.8442 N   0  0  0  0  0  0  0  0  0  0  0  0
  149.1556  140.1978  156.0789 C   0  0  0  0  0  0  0  0  0  0  0  0
  147.4991  137.0838  153.7098 N   0  0  0  0  0  0  0  0  0  0  0  0
  146.1525  136.5526  153.4834 C   0  0  2  0  0  0  0  0  0  0  0  0
  146.2859  135.0312  153.2432 C   0  0  0  0  0  0  0  0  0  0  0  0
  144.9927  134.2431  153.5147 C   0  0  0  0  0  0  0  0  0  0  0  0
  143.8259  134.5668  152.5695 C   0  0  0  0  0  0  0  0  0  0  0  0
  143.3434  136.0243  152.6603 C   0  0  0  0  0  0  0  0  0  0  0  0
  144.2272  136.9398  151.9506 N   0  0  0  0  0  0  0  0  0  0  0  0
  145.5095  137.2099  152.2393 C   0  0  0  0  0  0  0  0  0  0  0  0
  146.1619  137.9659  151.5195 O   0  0  0  0  0  0  0  0  0  0  0  0
  149.6754  137.7718  153.8951 H   0  0  0  0  0  0  0  0  0  0  0  0
  151.9221  138.6779  154.7689 H   0  0  0  0  0  0  0  0  0  0  0  0
  152.9780  140.4243  156.1602 H   0  0  0  0  0  0  0  0  0  0  0  0
  150.2162  143.6353  157.5884 H   0  0  0  0  0  0  0  0  0  0  0  0
  150.2466  142.6471  159.0495 H   0  0  0  0  0  0  0  0  0  0  0  0
  148.0757  140.1739  156.0972 H   0  0  0  0  0  0  0  0  0  0  0  0
  148.2322  136.7200  153.1192 H   0  0  0  0  0  0  0  0  0  0  0  0
  145.5398  136.7413  154.3667 H   0  0  0  0  0  0  0  0  0  0  0  0
  146.6495  134.8242  152.2352 H   0  0  0  0  0  0  0  0  0  0  0  0
  147.0478  134.6318  153.9148 H   0  0  0  0  0  0  0  0  0  0  0  0
  145.2135  133.1781  153.4379 H   0  0  0  0  0  0  0  0  0  0  0  0
  144.6794  134.4058  154.5466 H   0  0  0  0  0  0  0  0  0  0  0  0
  144.0945  134.3221  151.5410 H   0  0  0  0  0  0  0  0  0  0  0  0
  142.9924  133.9114  152.8240 H   0  0  0  0  0  0  0  0  0  0  0  0
  142.3601  136.1053  152.1965 H   0  0  0  0  0  0  0  0  0  0  0  0
  143.2199  136.3375  153.6979 H   0  0  0  0  0  0  0  0  0  0  0  0
  143.8360  137.3942  151.1379 H   0  0  0  0  0  0  0  0  0  0  0  0
  1  2  2  0  0  0  0
  2  3  1  0  0  0  0
  2 16  1  0  0  0  0
  3  4  1  0  0  0  0
  3 25  1  0  0  0  0
  4 15  1  0  0  0  0
  4  5  2  0  0  0  0
  5  6  1  0  0  0  0
  5 26  1  0  0  0  0
  6  7  2  0  0  0  0
  6 27  1  0  0  0  0
  7  8  1  0  0  0  0
  7 14  1  0  0  0  0
  8  9  1  0  0  0  0
  9 10  1  0  0  0  0
  9 28  1  0  0  0  0
  9 29  1  0  0  0  0
 10 11  1  0  0  0  0
 10 12  1  0  0  0  0
 10 13  1  0  0  0  0
 14 15  2  0  0  0  0
 15 30  1  0  0  0  0
 16 17  1  0  0  0  0
 16 31  1  0  0  0  0
 17 23  1  0  0  0  0
 17 18  1  0  0  0  0
 17 32  1  0  0  0  0
 18 19  1  0  0  0  0
 18 33  1  0  0  0  0
 18 34  1  0  0  0  0
 19 20  1  0  0  0  0
 19 35  1  0  0  0  0
 19 36  1  0  0  0  0
 20 21  1  0  0  0  0
 20 37  1  0  0  0  0
 20 38  1  0  0  0  0
 21 22  1  0  0  0  0
 21 39  1  0  0  0  0
 21 40  1  0  0  0  0
 22 23  1  0  0  0  0
 22 41  1  0  0  0  0
 23 24  2  0  0  0  0
M  END
> <s_m_source_file>
AV-unprocessed.smi

> <i_m_source_file_index>
1159

> <i_lp_mmshare_version>
43012

> <i_f3d_flags>
0

> <s_epik_input>
Tz1DMVtOSF1bQ0gyXVtDSDJdW0NIMl1bQ0gyXVtDQEhdMVtOSF1DKD1PKVtOSF1jMltjSF1bY0hdYyhuW2NIXTIpT1tDSDJdQyhGKShGKUY=

> <s_epik_cmdline>
J2VwaWtfcHl0aG9uJywgJy1waCcsICc3LjAnLCAnLXRuJywgJzgnLCAnLW1hJywgJzIwMCcsICctbWV0YWxfYmluZGluZycsICctaW1hZScsICc8aW5maWxlLm1hZT4nLCAnLW9tYWUnLCAnPG91dGZpbGUubWFlPic=

> <r_lp_tautomer_probability>
1

> <r_epik_Ionization_Penalty>
3.53205e-05

> <r_epik_Ionization_Penalty_Charging>
0

> <r_epik_Ionization_Penalty_Neutral>
3.53205e-05

> <r_epik_State_Penalty>
-0

> <r_epik_Charging_Adjusted_Penalty>
0

> <i_epik_Tot_Q>
0

> <i_epik_Tot_abs_Q>
0

> <r_epik_Metal_State_Penalty>
-0

> <b_epik_Metal_Only>
0

> <s_lp_Force_Field>
OPLS_2005

> <r_lp_Energy>
13.2476

> <b_lp_Chiralities_Consistent>
1

> <s_lp_Variant>
AV-unprocessed.smi:1159-1

> <Gold.Version>
5.8.1

> <Gold.Id.Protein>
6NUR|6NUR_protein|mol2

> <Gold.PLP.Fitness>
43.7169

> <Gold.PLP.PLP>
-38.4142

> <Gold.PLP.part.hbond>
-1.9090

> <Gold.PLP.part.metal>
0.0000

> <Gold.PLP.part.buried>
-5.7081

> <Gold.PLP.part.nonpolar>
-32.4607

> <Gold.PLP.part.repulsive>
1.6575

> <Gold.PLP.ligand.clash>
0.0000

> <Gold.PLP.ligand.torsion>
0.3607

> <Gold.PLP.Chemscore.Hbond>
2.0000

> <Gold.PLP.Chemscore.CHOScore>
0.0000

> <Gold.PLP.Chemscore.Metal>
0.0000

> <Gold.Chemscore.Hbonds>
donor molecule, donor type, donor heavy atom, donor atom, acceptor molecule, acceptor atom, score
      L1  H    16    31       P1  7948  0.99
      L1  H    22    41       P1 10171  1.00

> <Gold.PLP.Chemscore.Internal.Correction>
0.0241

> <Gold.Rescore>
     Score         DG    S(hbond)    S(metal)    S(lipo)     H(rot)  DE(clash)    DE(int)     intcor
     12.08     -14.07       1.94        0.00      57.62       1.81       0.27       1.73       ----

> <Gold.Chemscore.Fitness>
12.0783

> <Gold.Chemscore.DG>
-14.0704

> <Gold.Chemscore.ZeroCoef>
-5.4800

> <Gold.Chemscore.Hbond>
1.9378

> <Gold.Chemscore.Metal>
0.0000

> <Gold.Chemscore.Lipo>
57.6238

> <Gold.Chemscore.Internal_Hbond>
0.0000

> <Gold.Chemscore.DEClash>
0.2669

> <Gold.Chemscore.DEInternal>
1.7253

> <Gold.Chemscore.Rot>
1.8062

> <Gold.Chemscore.Internal.Correction>
   9.000000E+99

> <Gold.Chemscore.Hbonds>
donor molecule, donor type, donor heavy atom, donor atom, acceptor molecule, acceptor atom, score
      L1  H    16    31       P1  7948  0.92
      L1  H    22    41       P1 10171  0.98

> <Gold.Chemscore.Hbond.Weighted>
-6.4722

> <Gold.Chemscore.Metal.Weighted>
-0.0000

> <Gold.Chemscore.Lipo.Weighted>
-6.7420

> <Gold.Chemscore.Internal_Hbond.Weighted>
0.0000

> <Gold.Chemscore.DEClash.Weighted>
0.2669

> <Gold.Chemscore.DEInternal.Weighted>
1.7253

> <Gold.Chemscore.Rot.Weighted>
4.6238

> <Gold.Chemscore.Internal.Correction.Weighted>
   9.000000E+99

> <Gold.Protein.RotatedTorsions>
[ 6907 6896 6895 6894 ] final   19.31 input  -60.11 | X-H torsion
[ 7974 7965 7964 7962 ] final  -40.49 input  175.53 | X-H torsion
[ 8008 7997 7996 7995 ] final   20.34 input   59.86 | X-H torsion
[ 10167 10162 10161 10158 ] final  174.18 input  -65.29 | X-H torsion
[ 10718 10713 10712 10709 ] final -131.72 input   66.30 | X-H torsion
[ 10763 10752 10751 10750 ] final  147.57 input  -60.55 | X-H torsion
[ 11005 11000 10999 10996 ] final  105.89 input  -57.11 | X-H torsion

> <Gold.Protein.ActiveResidues>
 VAL166  LYS551  ARG553  GLY616  TRP617  ASP618  TYR619  PRO620  LYS621  CYS622 
 ASP623  PHE694  ASN695  SER759  ASP760  ASP761  ALA762  ILE779  LEU786  VAL792 
 PHE793  MET794  SER795  GLU796  ALA797  LYS798  CYS799  TRP800  GLU811  SER814 

> <Gold.Protein.RotatedAtoms>
  151.8789  135.0461  160.0486 H   0  0  0  0  0  0  0  0  0  0  0  0  # atno 6907 bound_to 6896
  152.2528  133.5225  159.5344 H   0  0  0  0  0  0  0  0  0  0  0  0  # atno 6908 bound_to 6896
  150.7090  134.0852  159.3954 H   0  0  0  0  0  0  0  0  0  0  0  0  # atno 6909 bound_to 6896
  146.0300  140.6743  142.9137 H   0  0  0  0  0  0  0  0  0  0  0  0  # atno 7974 bound_to 7965
  154.9342  140.3044  155.5152 H   0  0  0  0  0  0  0  0  0  0  0  0  # atno 8008 bound_to 7997
  156.3001  140.2348  156.4342 H   0  0  0  0  0  0  0  0  0  0  0  0  # atno 8009 bound_to 7997
  154.8208  140.0423  157.1398 H   0  0  0  0  0  0  0  0  0  0  0  0  # atno 8010 bound_to 7997
  139.5133  144.3177  152.0232 H   0  0  0  0  0  0  0  0  0  0  0  0  # atno 10167 bound_to 10162
  156.2273  130.7015  151.0820 H   0  0  0  0  0  0  0  0  0  0  0  0  # atno 10718 bound_to 10713
  154.0405  135.2890  155.3355 H   0  0  0  0  0  0  0  0  0  0  0  0  # atno 10763 bound_to 10752
  154.6932  135.5218  153.8424 H   0  0  0  0  0  0  0  0  0  0  0  0  # atno 10764 bound_to 10752
  153.0602  135.6610  154.0610 H   0  0  0  0  0  0  0  0  0  0  0  0  # atno 10765 bound_to 10752
  139.8807  134.9351  156.5583 H   0  0  0  0  0  0  0  0  0  0  0  0  # atno 11005 bound_to 11000
  144.7026  140.3718  143.7144 LP  0  0  0  0  0  0  0  0  0  0  0  0  # atno 17320 bound_to 7965
  145.7056  139.1672  143.2568 LP  0  0  0  0  0  0  0  0  0  0  0  0  # atno 17321 bound_to 7965
  140.2619  144.4058  150.6182 LP  0  0  0  0  0  0  0  0  0  0  0  0  # atno 17342 bound_to 10162
  140.6151  143.2172  151.6808 LP  0  0  0  0  0  0  0  0  0  0  0  0  # atno 17343 bound_to 10162
  157.7116  131.0731  150.6479 LP  0  0  0  0  0  0  0  0  0  0  0  0  # atno 17370 bound_to 10713
  156.6545  130.4494  149.5708 LP  0  0  0  0  0  0  0  0  0  0  0  0  # atno 17371 bound_to 10713
  140.8189  133.8370  155.8877 LP  0  0  0  0  0  0  0  0  0  0  0  0  # atno 17394 bound_to 11000
  140.9437  134.1868  157.4779 LP  0  0  0  0  0  0  0  0  0  0  0  0  # atno 17395 bound_to 11000

$$$$
