AV-unprocessed.smi:3332|AV-procd|sdf|12829|dock4
  -GOLD-   2272019203D 1   1.00000     0.00000
 Structure written by MMmdl.
 41 42  0  0  0  0  0  0  0  0  1 V2000
  143.3730  146.8203  156.1295 C   0  0  0  0  0  0  0  0  0  0  0  0
  142.9751  145.8237  155.0354 C   0  0  0  0  0  0  0  0  0  0  0  0
  144.0707  144.8436  154.7350 C   0  0  0  0  0  0  0  0  0  0  0  0
  144.5394  144.0063  155.7521 N   0  0  0  0  0  0  0  0  0  0  0  0
  145.5117  143.1903  155.3407 C   0  0  0  0  0  0  0  0  0  0  0  0
  146.1627  142.1744  156.2175 C   0  0  0  0  0  0  0  0  0  0  0  0
  147.2393  141.3664  155.4765 C   0  0  0  0  0  0  0  0  0  0  0  0
  148.5734  141.6576  155.9875 N   0  0  0  0  0  0  0  0  0  0  0  0
  149.7120  141.5119  155.2927 C   0  0  0  0  0  0  0  0  0  0  0  0
  149.7461  141.1125  154.1287 O   0  0  0  0  0  0  0  0  0  0  0  0
  151.0097  141.8799  156.0213 C   0  0  0  0  0  0  0  0  0  0  0  0
  150.7836  142.5740  157.3826 C   0  0  2  0  0  0  0  0  0  0  0  0
  151.4159  143.9417  157.4775 C   0  0  0  0  0  0  0  0  0  0  0  0
  152.2099  144.0688  158.5382 C   0  0  0  0  0  0  0  0  0  0  0  0
  152.2706  142.8153  159.3656 C   0  0  0  0  0  0  0  0  0  0  0  0
  151.4135  141.8041  158.5720 C   0  0  0  0  0  0  0  0  0  0  0  0
  145.8996  143.3811  153.6370 S   0  0  0  0  0  0  0  0  0  0  0  0
  144.6935  144.6373  153.5259 C   0  0  0  0  0  0  0  0  0  0  0  0
  144.4381  145.3385  152.2332 C   0  0  0  0  0  0  0  0  0  0  0  0
  142.5620  147.5201  156.3318 H   0  0  0  0  0  0  0  0  0  0  0  0
  144.2480  147.4004  155.8349 H   0  0  0  0  0  0  0  0  0  0  0  0
  143.6098  146.3056  157.0611 H   0  0  0  0  0  0  0  0  0  0  0  0
  142.0694  145.2987  155.3401 H   0  0  0  0  0  0  0  0  0  0  0  0
  142.7080  146.3726  154.1316 H   0  0  0  0  0  0  0  0  0  0  0  0
  146.5975  142.6903  157.0744 H   0  0  0  0  0  0  0  0  0  0  0  0
  145.3952  141.5068  156.6114 H   0  0  0  0  0  0  0  0  0  0  0  0
  147.0540  140.2990  155.6009 H   0  0  0  0  0  0  0  0  0  0  0  0
  147.1964  141.5657  154.4041 H   0  0  0  0  0  0  0  0  0  0  0  0
  148.6358  141.9932  156.9379 H   0  0  0  0  0  0  0  0  0  0  0  0
  151.5812  140.9629  156.1694 H   0  0  0  0  0  0  0  0  0  0  0  0
  151.6182  142.5202  155.3804 H   0  0  0  0  0  0  0  0  0  0  0  0
  149.7141  142.6954  157.5618 H   0  0  0  0  0  0  0  0  0  0  0  0
  151.2167  144.7221  156.7578 H   0  0  0  0  0  0  0  0  0  0  0  0
  152.7524  144.9633  158.8066 H   0  0  0  0  0  0  0  0  0  0  0  0
  153.3011  142.4762  159.4745 H   0  0  0  0  0  0  0  0  0  0  0  0
  151.8580  143.0045  160.3570 H   0  0  0  0  0  0  0  0  0  0  0  0
  150.6444  141.3578  159.2035 H   0  0  0  0  0  0  0  0  0  0  0  0
  152.0449  140.9880  158.2183 H   0  0  0  0  0  0  0  0  0  0  0  0
  143.3763  145.3219  151.9871 H   0  0  0  0  0  0  0  0  0  0  0  0
  144.9790  144.8660  151.4129 H   0  0  0  0  0  0  0  0  0  0  0  0
  144.7561  146.3794  152.2903 H   0  0  0  0  0  0  0  0  0  0  0  0
  1  2  1  0  0  0  0
  1 20  1  0  0  0  0
  1 21  1  0  0  0  0
  1 22  1  0  0  0  0
  2  3  1  0  0  0  0
  2 23  1  0  0  0  0
  2 24  1  0  0  0  0
  3 18  2  0  0  0  0
  3  4  1  0  0  0  0
  4  5  2  0  0  0  0
  5  6  1  0  0  0  0
  5 17  1  0  0  0  0
  6  7  1  0  0  0  0
  6 25  1  0  0  0  0
  6 26  1  0  0  0  0
  7  8  1  0  0  0  0
  7 27  1  0  0  0  0
  7 28  1  0  0  0  0
  8  9  1  0  0  0  0
  8 29  1  0  0  0  0
  9 10  2  0  0  0  0
  9 11  1  0  0  0  0
 11 12  1  0  0  0  0
 11 30  1  0  0  0  0
 11 31  1  0  0  0  0
 12 16  1  0  0  0  0
 12 13  1  0  0  0  0
 12 32  1  0  0  0  0
 13 14  2  0  0  0  0
 13 33  1  0  0  0  0
 14 15  1  0  0  0  0
 14 34  1  0  0  0  0
 15 16  1  0  0  0  0
 15 35  1  0  0  0  0
 15 36  1  0  0  0  0
 16 37  1  0  0  0  0
 16 38  1  0  0  0  0
 17 18  1  0  0  0  0
 18 19  1  0  0  0  0
 19 39  1  0  0  0  0
 19 40  1  0  0  0  0
 19 41  1  0  0  0  0
M  END
> <s_m_source_file>
AV-unprocessed.smi

> <i_m_source_file_index>
3332

> <i_lp_mmshare_version>
43012

> <i_f3d_flags>
0

> <s_epik_input>
W0NIM11bQ0gyXWMxbmMoc2MxW0NIM10pW0NIMl1bQ0gyXVtOSF1DKD1PKVtDSDJdW0NAQEhdMltDSF09W0NIXVtDSDJdW0NIMl0y

> <s_epik_cmdline>
J2VwaWtfcHl0aG9uJywgJy1waCcsICc3LjAnLCAnLXRuJywgJzgnLCAnLW1hJywgJzIwMCcsICctbWV0YWxfYmluZGluZycsICctaW1hZScsICc8aW5maWxlLm1hZT4nLCAnLW9tYWUnLCAnPG91dGZpbGUubWFlPic=

> <r_epik_Ionization_Penalty>
0.00221844

> <r_epik_Ionization_Penalty_Charging>
0

> <r_epik_Ionization_Penalty_Neutral>
0.00221844

> <r_epik_State_Penalty>
0.00152607

> <r_epik_Charging_Adjusted_Penalty>
0.00152607

> <i_epik_Tot_Q>
0

> <i_epik_Tot_abs_Q>
0

> <r_epik_Metal_State_Penalty>
-0

> <b_epik_Metal_Only>
0

> <s_lp_Force_Field>
OPLS_2005

> <r_lp_Energy>
6.78745

> <b_lp_Chiralities_Consistent>
1

> <s_lp_Variant>
AV-unprocessed.smi:3332-1

> <Gold.Version>
5.8.1

> <Gold.Id.Protein>
6NUR|6NUR_protein|mol2

> <Gold.PLP.Fitness>
41.6263

> <Gold.PLP.PLP>
-41.8816

> <Gold.PLP.part.hbond>
-2.7675

> <Gold.PLP.part.metal>
0.0000

> <Gold.PLP.part.buried>
-0.3652

> <Gold.PLP.part.nonpolar>
-38.4111

> <Gold.PLP.part.repulsive>
0.3508

> <Gold.PLP.ligand.clash>
0.0000

> <Gold.PLP.ligand.torsion>
1.3700

> <Gold.PLP.Chemscore.Hbond>
0.8080

> <Gold.PLP.Chemscore.CHOScore>
0.0000

> <Gold.PLP.Chemscore.Metal>
0.0000

> <Gold.Chemscore.Hbonds>
donor molecule, donor type, donor heavy atom, donor atom, acceptor molecule, acceptor atom, score
      P1  H  7989  7998       L1    10  0.43
      P1  H  8011  8017       L1    10  0.41

> <Gold.PLP.Chemscore.Internal.Correction>
0.0607

> <Gold.Rescore>
     Score         DG    S(hbond)    S(metal)    S(lipo)     H(rot)  DE(clash)    DE(int)     intcor
     15.26     -18.30       0.72        0.00     122.12       1.51       1.63       1.41       ----

> <Gold.Chemscore.Fitness>
15.2577

> <Gold.Chemscore.DG>
-18.2958

> <Gold.Chemscore.ZeroCoef>
-5.4800

> <Gold.Chemscore.Hbond>
0.7168

> <Gold.Chemscore.Metal>
0.0000

> <Gold.Chemscore.Lipo>
122.1186

> <Gold.Chemscore.Internal_Hbond>
0.0000

> <Gold.Chemscore.DEClash>
1.6269

> <Gold.Chemscore.DEInternal>
1.4111

> <Gold.Chemscore.Rot>
1.5103

> <Gold.Chemscore.Internal.Correction>
   9.000000E+99

> <Gold.Chemscore.Hbonds>
donor molecule, donor type, donor heavy atom, donor atom, acceptor molecule, acceptor atom, score
      P1  H  7989  7998       L1    10  0.35
      P1  H  8011  8017       L1    10  0.42

> <Gold.Chemscore.Hbond.Weighted>
-2.3942

> <Gold.Chemscore.Metal.Weighted>
-0.0000

> <Gold.Chemscore.Lipo.Weighted>
-14.2879

> <Gold.Chemscore.Internal_Hbond.Weighted>
0.0000

> <Gold.Chemscore.DEClash.Weighted>
1.6269

> <Gold.Chemscore.DEInternal.Weighted>
1.4111

> <Gold.Chemscore.Rot.Weighted>
3.8664

> <Gold.Chemscore.Internal.Correction.Weighted>
   9.000000E+99

> <Gold.Protein.RotatedTorsions>
[ 6907 6896 6895 6894 ] final   60.62 input  -60.11 | X-H torsion
[ 7974 7965 7964 7962 ] final    1.28 input  175.53 | X-H torsion
[ 8008 7997 7996 7995 ] final  118.04 input   59.86 | X-H torsion
[ 10167 10162 10161 10158 ] final -165.34 input  -65.29 | X-H torsion
[ 10718 10713 10712 10709 ] final  -85.35 input   66.30 | X-H torsion
[ 10763 10752 10751 10750 ] final  -67.33 input  -60.55 | X-H torsion
[ 11005 11000 10999 10996 ] final   34.57 input  -57.11 | X-H torsion

> <Gold.Protein.ActiveResidues>
 VAL166  LYS551  ARG553  GLY616  TRP617  ASP618  TYR619  PRO620  LYS621  CYS622 
 ASP623  PHE694  ASN695  SER759  ASP760  ASP761  ALA762  ILE779  LEU786  VAL792 
 PHE793  MET794  SER795  GLU796  ALA797  LYS798  CYS799  TRP800  GLU811  SER814 

> <Gold.Protein.RotatedAtoms>
  152.4019  134.6272  160.0065 H   0  0  0  0  0  0  0  0  0  0  0  0  # atno 6907 bound_to 6896
  151.6475  133.3317  159.3152 H   0  0  0  0  0  0  0  0  0  0  0  0  # atno 6908 bound_to 6896
  150.7918  134.6990  159.6584 H   0  0  0  0  0  0  0  0  0  0  0  0  # atno 6909 bound_to 6896
  146.2439  140.1011  142.8347 H   0  0  0  0  0  0  0  0  0  0  0  0  # atno 7974 bound_to 7965
  156.2526  140.2883  156.0772 H   0  0  0  0  0  0  0  0  0  0  0  0  # atno 8008 bound_to 7997
  155.1606  140.0399  157.2859 H   0  0  0  0  0  0  0  0  0  0  0  0  # atno 8009 bound_to 7997
  154.6396  140.2519  155.7345 H   0  0  0  0  0  0  0  0  0  0  0  0  # atno 8010 bound_to 7997
  139.6188  144.0665  152.1914 H   0  0  0  0  0  0  0  0  0  0  0  0  # atno 10167 bound_to 10162
  155.9997  130.4728  150.4548 H   0  0  0  0  0  0  0  0  0  0  0  0  # atno 10718 bound_to 10713
  154.3729  135.6091  153.5749 H   0  0  0  0  0  0  0  0  0  0  0  0  # atno 10763 bound_to 10752
  152.9790  135.5842  154.4501 H   0  0  0  0  0  0  0  0  0  0  0  0  # atno 10764 bound_to 10752
  154.4258  135.2847  155.1923 H   0  0  0  0  0  0  0  0  0  0  0  0  # atno 10765 bound_to 10752
  140.2515  134.3298  155.7889 H   0  0  0  0  0  0  0  0  0  0  0  0  # atno 11005 bound_to 11000
  145.0568  140.9058  143.4963 LP  0  0  0  0  0  0  0  0  0  0  0  0  # atno 17320 bound_to 7965
  145.1119  139.2751  143.5633 LP  0  0  0  0  0  0  0  0  0  0  0  0  # atno 17321 bound_to 7965
  140.0302  144.6087  150.7494 LP  0  0  0  0  0  0  0  0  0  0  0  0  # atno 17342 bound_to 10162
  140.7369  143.2758  151.3745 LP  0  0  0  0  0  0  0  0  0  0  0  0  # atno 17343 bound_to 10162
  157.2578  131.0560  151.2339 LP  0  0  0  0  0  0  0  0  0  0  0  0  # atno 17370 bound_to 10713
  157.3465  130.7060  149.6414 LP  0  0  0  0  0  0  0  0  0  0  0  0  # atno 17371 bound_to 10713
  141.2201  133.7356  156.9044 LP  0  0  0  0  0  0  0  0  0  0  0  0  # atno 17394 bound_to 11000
  140.1553  134.9202  157.2646 LP  0  0  0  0  0  0  0  0  0  0  0  0  # atno 17395 bound_to 11000

$$$$
