AV-unprocessed.smi:438|AV-procd|sdf|2570|dock2
  -GOLD-   2262022543D 1   1.00000     0.00000
 Structure written by MMmdl.
 48 49  0  0  0  0  0  0  0  0  1 V2000
  148.4426  133.2397  153.5518 C   0  0  0  0  0  0  0  0  0  0  0  0
  149.4602  133.8123  154.5232 C   0  0  0  0  0  0  0  0  0  0  0  0
  149.8173  135.1241  154.2682 N   0  0  0  0  0  0  0  0  0  0  0  0
  150.7468  135.7400  155.0917 C   0  0  0  0  0  0  0  0  0  0  0  0
  151.0513  137.4387  154.5244 S   0  0  0  0  0  0  0  0  0  0  0  0
  150.3377  138.4108  155.8854 C   0  0  0  0  0  0  0  0  0  0  0  0
  150.9633  139.7968  156.0451 C   0  0  0  0  0  0  0  0  0  0  0  0
  151.2467  140.4772  155.0589 O   0  0  0  0  0  0  0  0  0  0  0  0
  151.1695  140.2059  157.3064 N   0  0  0  0  0  0  0  0  0  0  0  0
  151.7793  141.4751  157.6978 C   0  0  1  0  0  0  0  0  0  0  0  0
  150.9420  142.6515  157.1526 C   0  0  0  0  0  0  0  0  0  0  0  0
  151.5176  144.0068  157.5882 C   0  0  0  0  0  0  0  0  0  0  0  0
  151.6436  144.0872  159.1157 C   0  0  0  0  0  0  0  0  0  0  0  0
  152.4870  142.9250  159.6609 C   0  0  0  0  0  0  0  0  0  0  0  0
  151.9183  141.5550  159.2389 C   0  0  2  0  0  0  0  0  0  0  0  0
  152.7746  140.4135  159.8161 C   0  0  0  0  0  0  0  0  0  0  0  0
  151.3028  135.1565  156.1121 N   0  0  0  0  0  0  0  0  0  0  0  0
  150.9752  133.8291  156.4271 C   0  0  0  0  0  0  0  0  0  0  0  0
  151.4889  133.2741  157.3974 O   0  0  0  0  0  0  0  0  0  0  0  0
  150.0032  133.1286  155.5601 C   0  0  0  0  0  0  0  0  0  0  0  0
  149.6440  131.6803  155.8928 C   0  0  0  0  0  0  0  0  0  0  0  0
  149.9493  130.6989  154.7477 C   0  0  0  0  0  0  0  0  0  0  0  0
  149.6225  129.3764  155.1199 O   0  0  0  0  0  0  0  0  0  0  0  0
  148.8371  132.3458  153.0684 H   0  0  0  0  0  0  0  0  0  0  0  0
  148.1856  133.9557  152.7699 H   0  0  0  0  0  0  0  0  0  0  0  0
  147.5246  132.9734  154.0759 H   0  0  0  0  0  0  0  0  0  0  0  0
  150.4612  137.8524  156.8145 H   0  0  0  0  0  0  0  0  0  0  0  0
  149.2669  138.5268  155.7161 H   0  0  0  0  0  0  0  0  0  0  0  0
  150.8982  139.5840  158.0543 H   0  0  0  0  0  0  0  0  0  0  0  0
  152.7808  141.5317  157.2664 H   0  0  0  0  0  0  0  0  0  0  0  0
  150.8982  142.6109  156.0634 H   0  0  0  0  0  0  0  0  0  0  0  0
  149.9130  142.5665  157.5050 H   0  0  0  0  0  0  0  0  0  0  0  0
  152.4974  144.1515  157.1312 H   0  0  0  0  0  0  0  0  0  0  0  0
  150.8832  144.8152  157.2238 H   0  0  0  0  0  0  0  0  0  0  0  0
  152.0932  145.0385  159.4020 H   0  0  0  0  0  0  0  0  0  0  0  0
  150.6515  144.0646  159.5684 H   0  0  0  0  0  0  0  0  0  0  0  0
  153.5129  143.0231  159.3032 H   0  0  0  0  0  0  0  0  0  0  0  0
  152.5338  142.9907  160.7485 H   0  0  0  0  0  0  0  0  0  0  0  0
  150.9212  141.4654  159.6732 H   0  0  0  0  0  0  0  0  0  0  0  0
  153.7816  140.4252  159.3983 H   0  0  0  0  0  0  0  0  0  0  0  0
  152.3389  139.4363  159.6080 H   0  0  0  0  0  0  0  0  0  0  0  0
  152.8638  140.5014  160.8992 H   0  0  0  0  0  0  0  0  0  0  0  0
  149.3895  135.5890  153.4804 H   0  0  0  0  0  0  0  0  0  0  0  0
  148.5934  131.5972  156.1687 H   0  0  0  0  0  0  0  0  0  0  0  0
  150.1952  131.3796  156.7849 H   0  0  0  0  0  0  0  0  0  0  0  0
  149.4005  130.9640  153.8439 H   0  0  0  0  0  0  0  0  0  0  0  0
  151.0097  130.7359  154.4977 H   0  0  0  0  0  0  0  0  0  0  0  0
  150.1339  128.7808  154.5936 H   0  0  0  0  0  0  0  0  0  0  0  0
  1 24  1  0  0  0  0
  1 25  1  0  0  0  0
  1 26  1  0  0  0  0
  1  2  1  0  0  0  0
  2 20  2  0  0  0  0
  2  3  1  0  0  0  0
  3  4  1  0  0  0  0
  3 43  1  0  0  0  0
  4  5  1  0  0  0  0
  4 17  2  0  0  0  0
  5  6  1  0  0  0  0
  6  7  1  0  0  0  0
  6 27  1  0  0  0  0
  6 28  1  0  0  0  0
  7  8  2  0  0  0  0
  7  9  1  0  0  0  0
  9 10  1  0  0  0  0
  9 29  1  0  0  0  0
 10 15  1  0  0  0  0
 10 11  1  0  0  0  0
 10 30  1  0  0  0  0
 11 12  1  0  0  0  0
 11 31  1  0  0  0  0
 11 32  1  0  0  0  0
 12 13  1  0  0  0  0
 12 33  1  0  0  0  0
 12 34  1  0  0  0  0
 13 14  1  0  0  0  0
 13 35  1  0  0  0  0
 13 36  1  0  0  0  0
 14 15  1  0  0  0  0
 14 37  1  0  0  0  0
 14 38  1  0  0  0  0
 15 16  1  0  0  0  0
 15 39  1  0  0  0  0
 16 40  1  0  0  0  0
 16 41  1  0  0  0  0
 16 42  1  0  0  0  0
 17 18  1  0  0  0  0
 18 19  2  0  0  0  0
 18 20  1  0  0  0  0
 20 21  1  0  0  0  0
 21 22  1  0  0  0  0
 21 44  1  0  0  0  0
 21 45  1  0  0  0  0
 22 23  1  0  0  0  0
 22 46  1  0  0  0  0
 22 47  1  0  0  0  0
 23 48  1  0  0  0  0
M  END
> <s_m_source_file>
AV-unprocessed.smi

> <i_m_source_file_index>
438

> <i_lp_mmshare_version>
43012

> <i_f3d_flags>
0

> <s_epik_input>
W09IXVtDSDJdW0NIMl1jMWMoW09IXSluYyhuYzFbQ0gzXSlTW0NIMl1DKD1PKVtOSF1bQ0BASF0yW0NIMl1bQ0gyXVtDSDJdW0NIMl1bQ0BIXTJbQ0gzXQ==

> <s_epik_cmdline>
J2VwaWtfcHl0aG9uJywgJy1waCcsICc3LjAnLCAnLXRuJywgJzgnLCAnLW1hJywgJzIwMCcsICctbWV0YWxfYmluZGluZycsICctaW1hZScsICc8aW5maWxlLm1hZT4nLCAnLW9tYWUnLCAnPG91dGZpbGUubWFlPic=

> <r_lp_tautomer_probability>
0.273662

> <r_epik_Ionization_Penalty>
0.0875285

> <r_epik_Ionization_Penalty_Charging>
0.0875254

> <r_epik_Ionization_Penalty_Neutral>
3.01536e-06

> <r_epik_State_Penalty>
0.985796

> <r_epik_Charging_Adjusted_Penalty>
1.07332

> <i_epik_Tot_Q>
0

> <i_epik_Tot_abs_Q>
0

> <r_epik_Metal_State_Penalty>
1.58101

> <b_epik_Metal_Only>
0

> <s_lp_Force_Field>
OPLS_2005

> <r_lp_Energy>
20.5505

> <b_lp_Chiralities_Consistent>
1

> <s_lp_Variant>
AV-unprocessed.smi:438-8

> <Gold.Version>
5.8.1

> <Gold.Id.Protein>
6NUR|6NUR_protein|mol2

> <Gold.PLP.Fitness>
53.6845

> <Gold.PLP.PLP>
-44.7982

> <Gold.PLP.part.hbond>
-4.6109

> <Gold.PLP.part.metal>
0.0000

> <Gold.PLP.part.buried>
-3.2489

> <Gold.PLP.part.nonpolar>
-36.6174

> <Gold.PLP.part.repulsive>
0.1884

> <Gold.PLP.ligand.clash>
0.0000

> <Gold.PLP.ligand.torsion>
0.4941

> <Gold.PLP.Chemscore.Hbond>
3.2608

> <Gold.PLP.Chemscore.CHOScore>
0.0000

> <Gold.PLP.Chemscore.Metal>
0.0000

> <Gold.Chemscore.Hbonds>
donor molecule, donor type, donor heavy atom, donor atom, acceptor molecule, acceptor atom, score
      L1  H     3    43       P1  7948  1.00
      P1  H  6896  6909       L1    19  0.70
      P1  H  7989  7998       L1     8  0.98
      P1  H 10752 10765       L1    17  0.24

> <Gold.PLP.Chemscore.Internal.Correction>
0.0921

> <Gold.Rescore>
     Score         DG    S(hbond)    S(metal)    S(lipo)     H(rot)  DE(clash)    DE(int)     intcor
     18.51     -19.13       2.70        0.00     102.19       2.86       0.11       0.51       ----

> <Gold.Chemscore.Fitness>
18.5123

> <Gold.Chemscore.DG>
-19.1329

> <Gold.Chemscore.ZeroCoef>
-5.4800

> <Gold.Chemscore.Hbond>
2.7034

> <Gold.Chemscore.Metal>
0.0000

> <Gold.Chemscore.Lipo>
102.1925

> <Gold.Chemscore.Internal_Hbond>
0.0000

> <Gold.Chemscore.DEClash>
0.1074

> <Gold.Chemscore.DEInternal>
0.5132

> <Gold.Chemscore.Rot>
2.8645

> <Gold.Chemscore.Internal.Correction>
   9.000000E+99

> <Gold.Chemscore.Hbonds>
donor molecule, donor type, donor heavy atom, donor atom, acceptor molecule, acceptor atom, score
      L1  H     3    43       P1  7948  0.30
      P1  H  6896  6909       L1    19  0.70
      P1  H  7989  7998       L1     8  0.93

> <Gold.Chemscore.Hbond.Weighted>
-9.0295

> <Gold.Chemscore.Metal.Weighted>
-0.0000

> <Gold.Chemscore.Lipo.Weighted>
-11.9565

> <Gold.Chemscore.Internal_Hbond.Weighted>
0.0000

> <Gold.Chemscore.DEClash.Weighted>
0.1074

> <Gold.Chemscore.DEInternal.Weighted>
0.5132

> <Gold.Chemscore.Rot.Weighted>
7.3331

> <Gold.Chemscore.Internal.Correction.Weighted>
   9.000000E+99

> <Gold.Protein.RotatedTorsions>
[ 6907 6896 6895 6894 ] final  -42.07 input  -60.11 | X-H torsion
[ 7974 7965 7964 7962 ] final  -14.30 input  175.53 | X-H torsion
[ 8008 7997 7996 7995 ] final  -41.79 input   59.86 | X-H torsion
[ 10167 10162 10161 10158 ] final  163.28 input  -65.29 | X-H torsion
[ 10718 10713 10712 10709 ] final -111.87 input   66.30 | X-H torsion
[ 10763 10752 10751 10750 ] final -144.73 input  -60.55 | X-H torsion
[ 11005 11000 10999 10996 ] final   32.87 input  -57.11 | X-H torsion

> <Gold.Protein.ActiveResidues>
 VAL166  LYS551  ARG553  GLY616  TRP617  ASP618  TYR619  PRO620  LYS621  CYS622 
 ASP623  PHE694  ASN695  SER759  ASP760  ASP761  ALA762  ILE779  LEU786  VAL792 
 PHE793  MET794  SER795  GLU796  ALA797  LYS798  CYS799  TRP800  GLU811  SER814 

> <Gold.Protein.RotatedAtoms>
  150.9594  134.8984  159.7720 H   0  0  0  0  0  0  0  0  0  0  0  0  # atno 6907 bound_to 6896
  152.5150  134.3694  159.9322 H   0  0  0  0  0  0  0  0  0  0  0  0  # atno 6908 bound_to 6896
  151.3707  133.3815  159.2734 H   0  0  0  0  0  0  0  0  0  0  0  0  # atno 6909 bound_to 6896
  146.2079  140.3329  142.8400 H   0  0  0  0  0  0  0  0  0  0  0  0  # atno 7974 bound_to 7965
  154.4002  140.1490  156.3248 H   0  0  0  0  0  0  0  0  0  0  0  0  # atno 8008 bound_to 7997
  155.8497  140.3458  155.5664 H   0  0  0  0  0  0  0  0  0  0  0  0  # atno 8009 bound_to 7997
  155.7998  140.0868  157.1954 H   0  0  0  0  0  0  0  0  0  0  0  0  # atno 8010 bound_to 7997
  139.4872  144.4353  151.9020 H   0  0  0  0  0  0  0  0  0  0  0  0  # atno 10167 bound_to 10162
  156.0672  130.5890  150.8432 H   0  0  0  0  0  0  0  0  0  0  0  0  # atno 10718 bound_to 10713
  154.8415  135.3432  154.6392 H   0  0  0  0  0  0  0  0  0  0  0  0  # atno 10763 bound_to 10752
  153.7003  135.6970  153.5069 H   0  0  0  0  0  0  0  0  0  0  0  0  # atno 10764 bound_to 10752
  153.2528  135.4348  155.0769 H   0  0  0  0  0  0  0  0  0  0  0  0  # atno 10765 bound_to 10752
  140.2690  134.3104  155.7834 H   0  0  0  0  0  0  0  0  0  0  0  0  # atno 11005 bound_to 11000
  144.8839  140.7437  143.5969 LP  0  0  0  0  0  0  0  0  0  0  0  0  # atno 17320 bound_to 7965
  145.3250  139.1777  143.4567 LP  0  0  0  0  0  0  0  0  0  0  0  0  # atno 17321 bound_to 7965
  140.3802  144.2746  150.5909 LP  0  0  0  0  0  0  0  0  0  0  0  0  # atno 17342 bound_to 10162
  140.5240  143.2259  151.8344 LP  0  0  0  0  0  0  0  0  0  0  0  0  # atno 17343 bound_to 10162
  157.5721  131.0946  150.9401 LP  0  0  0  0  0  0  0  0  0  0  0  0  # atno 17370 bound_to 10713
  156.9615  130.5457  149.5286 LP  0  0  0  0  0  0  0  0  0  0  0  0  # atno 17371 bound_to 10713
  141.2180  133.7455  156.9304 LP  0  0  0  0  0  0  0  0  0  0  0  0  # atno 17394 bound_to 11000
  140.1392  134.9305  157.2443 LP  0  0  0  0  0  0  0  0  0  0  0  0  # atno 17395 bound_to 11000

$$$$
