AV-unprocessed.smi:2889|AV-procd|sdf|11109|dock2
  -GOLD-   2272015573D 1   1.00000     0.00000
 Structure written by MMmdl.
 36 37  0  0  0  0  0  0  0  0  1 V2000
  152.5214  142.9081  161.0568 C   0  0  0  0  0  0  0  0  0  0  0  0
  152.6385  143.3317  159.2976 S   0  0  0  0  0  0  0  0  0  0  0  0
  151.3268  142.2859  158.5856 C   0  0  1  0  0  0  0  0  0  0  0  0
  151.1351  142.6010  157.0899 C   0  0  0  0  0  0  0  0  0  0  0  0
  150.0201  141.7495  156.4660 C   0  0  0  0  0  0  0  0  0  0  0  0
  150.2958  140.2525  156.6603 C   0  0  0  0  0  0  0  0  0  0  0  0
  150.4740  139.9047  158.1469 C   0  0  0  0  0  0  0  0  0  0  0  0
  151.5508  140.7727  158.8329 C   0  0  1  0  0  0  0  0  0  0  0  0
  152.8999  140.3613  158.4200 N   0  0  0  0  0  0  0  0  0  0  0  0
  153.8864  139.4499  159.5066 S   0  0  0  0  0  0  0  0  0  0  0  0
  155.0785  139.0019  158.7693 O   0  0  0  0  0  0  0  0  0  0  0  0
  154.0284  140.2490  160.7332 O   0  0  0  0  0  0  0  0  0  0  0  0
  152.8206  137.9879  159.8717 C   0  0  0  0  0  0  0  0  0  0  0  0
  153.5078  137.0748  160.8475 C   0  0  0  0  0  0  0  0  0  0  0  0
  153.8655  137.3382  162.1986 C   0  0  0  0  0  0  0  0  0  0  0  0
  154.4478  136.1736  162.6076 C   0  0  0  0  0  0  0  0  0  0  0  0
  154.4622  135.2694  161.5962 O   0  0  0  0  0  0  0  0  0  0  0  0
  153.8648  135.8558  160.4747 N   0  0  0  0  0  0  0  0  0  0  0  0
  153.1851  143.5487  161.6372 H   0  0  0  0  0  0  0  0  0  0  0  0
  152.8180  141.8734  161.2270 H   0  0  0  0  0  0  0  0  0  0  0  0
  151.5028  143.0478  161.4186 H   0  0  0  0  0  0  0  0  0  0  0  0
  150.4039  142.5698  159.0934 H   0  0  0  0  0  0  0  0  0  0  0  0
  150.9004  143.6582  156.9615 H   0  0  0  0  0  0  0  0  0  0  0  0
  152.0686  142.4268  156.5532 H   0  0  0  0  0  0  0  0  0  0  0  0
  149.0625  142.0088  156.9190 H   0  0  0  0  0  0  0  0  0  0  0  0
  149.9317  141.9756  155.4031 H   0  0  0  0  0  0  0  0  0  0  0  0
  149.4781  139.6670  156.2396 H   0  0  0  0  0  0  0  0  0  0  0  0
  151.1925  139.9694  156.1075 H   0  0  0  0  0  0  0  0  0  0  0  0
  149.5227  140.0634  158.6562 H   0  0  0  0  0  0  0  0  0  0  0  0
  150.6968  138.8437  158.2620 H   0  0  0  0  0  0  0  0  0  0  0  0
  151.4692  140.5992  159.9052 H   0  0  0  0  0  0  0  0  0  0  0  0
  152.8878  139.9399  157.4915 H   0  0  0  0  0  0  0  0  0  0  0  0
  151.8797  138.3540  160.2829 H   0  0  0  0  0  0  0  0  0  0  0  0
  152.5938  137.4779  158.9359 H   0  0  0  0  0  0  0  0  0  0  0  0
  153.7110  138.2360  162.7782 H   0  0  0  0  0  0  0  0  0  0  0  0
  154.8814  135.8490  163.5419 H   0  0  0  0  0  0  0  0  0  0  0  0
  1  2  1  0  0  0  0
  1 19  1  0  0  0  0
  1 20  1  0  0  0  0
  1 21  1  0  0  0  0
  2  3  1  0  0  0  0
  3  8  1  0  0  0  0
  3  4  1  0  0  0  0
  3 22  1  0  0  0  0
  4  5  1  0  0  0  0
  4 23  1  0  0  0  0
  4 24  1  0  0  0  0
  5  6  1  0  0  0  0
  5 25  1  0  0  0  0
  5 26  1  0  0  0  0
  6  7  1  0  0  0  0
  6 27  1  0  0  0  0
  6 28  1  0  0  0  0
  7  8  1  0  0  0  0
  7 29  1  0  0  0  0
  7 30  1  0  0  0  0
  8  9  1  0  0  0  0
  8 31  1  0  0  0  0
  9 10  1  0  0  0  0
  9 32  1  0  0  0  0
 10 11  2  0  0  0  0
 10 12  2  0  0  0  0
 10 13  1  0  0  0  0
 13 14  1  0  0  0  0
 13 33  1  0  0  0  0
 13 34  1  0  0  0  0
 14 18  2  0  0  0  0
 14 15  1  0  0  0  0
 15 16  2  0  0  0  0
 15 35  1  0  0  0  0
 16 17  1  0  0  0  0
 16 36  1  0  0  0  0
 17 18  1  0  0  0  0
M  END
> <s_m_source_file>
AV-unprocessed.smi

> <i_m_source_file_index>
2889

> <i_lp_mmshare_version>
43012

> <i_f3d_flags>
0

> <s_epik_input>
W0NIM11TW0NAQEhdMVtDSDJdW0NIMl1bQ0gyXVtDSDJdW0NASF0xW05IXVMoPU8pKD1PKVtDSDJdYzJbY0hdW2NIXW9uMg==

> <s_epik_cmdline>
J2VwaWtfcHl0aG9uJywgJy1waCcsICc3LjAnLCAnLXRuJywgJzgnLCAnLW1hJywgJzIwMCcsICctbWV0YWxfYmluZGluZycsICctaW1hZScsICc8aW5maWxlLm1hZT4nLCAnLW9tYWUnLCAnPG91dGZpbGUubWFlPic=

> <r_lp_tautomer_probability>
1

> <r_epik_Ionization_Penalty>
0.000229547

> <r_epik_Ionization_Penalty_Charging>
0

> <r_epik_Ionization_Penalty_Neutral>
0.000229547

> <r_epik_State_Penalty>
-0

> <r_epik_Charging_Adjusted_Penalty>
0

> <i_epik_Tot_Q>
0

> <i_epik_Tot_abs_Q>
0

> <r_epik_Metal_State_Penalty>
0.145979

> <b_epik_Metal_Only>
0

> <s_lp_Force_Field>
OPLS_2005

> <r_lp_Energy>
4.05076

> <b_lp_Chiralities_Consistent>
1

> <s_lp_Variant>
AV-unprocessed.smi:2889-2

> <Gold.Version>
5.8.1

> <Gold.Id.Protein>
6NUR|6NUR_protein|mol2

> <Gold.PLP.Fitness>
37.3263

> <Gold.PLP.PLP>
-32.7352

> <Gold.PLP.part.hbond>
-2.9937

> <Gold.PLP.part.metal>
0.0000

> <Gold.PLP.part.buried>
-4.4498

> <Gold.PLP.part.nonpolar>
-25.3404

> <Gold.PLP.part.repulsive>
0.0000

> <Gold.PLP.ligand.clash>
0.0000

> <Gold.PLP.ligand.torsion>
0.7871

> <Gold.PLP.Chemscore.Hbond>
2.0000

> <Gold.PLP.Chemscore.CHOScore>
0.0000

> <Gold.PLP.Chemscore.Metal>
0.0000

> <Gold.Chemscore.Hbonds>
donor molecule, donor type, donor heavy atom, donor atom, acceptor molecule, acceptor atom, score
      P1  H  6896  6909       L1    18  1.00
      P1  H  7997  8010       L1    11  1.00

> <Gold.PLP.Chemscore.Internal.Correction>
0.1652

> <Gold.Rescore>
     Score         DG    S(hbond)    S(metal)    S(lipo)     H(rot)  DE(clash)    DE(int)     intcor
     16.21     -17.05       1.87        0.00      85.05       1.81       0.00       0.84       ----

> <Gold.Chemscore.Fitness>
16.2149

> <Gold.Chemscore.DG>
-17.0502

> <Gold.Chemscore.ZeroCoef>
-5.4800

> <Gold.Chemscore.Hbond>
1.8689

> <Gold.Chemscore.Metal>
0.0000

> <Gold.Chemscore.Lipo>
85.0508

> <Gold.Chemscore.Internal_Hbond>
0.0000

> <Gold.Chemscore.DEClash>
0.0000

> <Gold.Chemscore.DEInternal>
0.8353

> <Gold.Chemscore.Rot>
1.8058

> <Gold.Chemscore.Internal.Correction>
   9.000000E+99

> <Gold.Chemscore.Hbonds>
donor molecule, donor type, donor heavy atom, donor atom, acceptor molecule, acceptor atom, score
      P1  H  6896  6909       L1    18  0.41
      P1  H  7997  8010       L1    11  0.65

> <Gold.Chemscore.Hbond.Weighted>
-6.2421

> <Gold.Chemscore.Metal.Weighted>
-0.0000

> <Gold.Chemscore.Lipo.Weighted>
-9.9509

> <Gold.Chemscore.Internal_Hbond.Weighted>
0.0000

> <Gold.Chemscore.DEClash.Weighted>
0.0000

> <Gold.Chemscore.DEInternal.Weighted>
0.8353

> <Gold.Chemscore.Rot.Weighted>
4.6228

> <Gold.Chemscore.Internal.Correction.Weighted>
   9.000000E+99

> <Gold.Protein.RotatedTorsions>
[ 6907 6896 6895 6894 ] final -179.93 input  -60.11 | X-H torsion
[ 7974 7965 7964 7962 ] final -105.28 input  175.53 | X-H torsion
[ 8008 7997 7996 7995 ] final   -7.38 input   59.86 | X-H torsion
[ 10167 10162 10161 10158 ] final  -57.00 input  -65.29 | X-H torsion
[ 10718 10713 10712 10709 ] final   95.26 input   66.30 | X-H torsion
[ 10763 10752 10751 10750 ] final   67.81 input  -60.55 | X-H torsion
[ 11005 11000 10999 10996 ] final   31.93 input  -57.11 | X-H torsion

> <Gold.Protein.ActiveResidues>
 VAL166  LYS551  ARG553  GLY616  TRP617  ASP618  TYR619  PRO620  LYS621  CYS622 
 ASP623  PHE694  ASN695  SER759  ASP760  ASP761  ALA762  ILE779  LEU786  VAL792 
 PHE793  MET794  SER795  GLU796  ALA797  LYS798  CYS799  TRP800  GLU811  SER814 

> <Gold.Protein.RotatedAtoms>
  151.6614  133.3317  159.3174 H   0  0  0  0  0  0  0  0  0  0  0  0  # atno 6907 bound_to 6896
  150.7911  134.6940  159.6522 H   0  0  0  0  0  0  0  0  0  0  0  0  # atno 6908 bound_to 6896
  152.3991  134.6320  160.0129 H   0  0  0  0  0  0  0  0  0  0  0  0  # atno 6909 bound_to 6896
  145.2325  140.9176  143.3196 H   0  0  0  0  0  0  0  0  0  0  0  0  # atno 7974 bound_to 7965
  154.5843  140.2408  155.8009 H   0  0  0  0  0  0  0  0  0  0  0  0  # atno 8008 bound_to 7997
  156.2202  140.3000  155.9890 H   0  0  0  0  0  0  0  0  0  0  0  0  # atno 8009 bound_to 7997
  155.2485  140.0410  157.2974 H   0  0  0  0  0  0  0  0  0  0  0  0  # atno 8010 bound_to 7997
  140.6284  143.2448  151.5305 H   0  0  0  0  0  0  0  0  0  0  0  0  # atno 10167 bound_to 10162
  157.6940  131.0540  150.4312 H   0  0  0  0  0  0  0  0  0  0  0  0  # atno 10718 bound_to 10713
  153.0204  135.5270  154.7038 H   0  0  0  0  0  0  0  0  0  0  0  0  # atno 10763 bound_to 10752
  154.6139  135.2881  155.0404 H   0  0  0  0  0  0  0  0  0  0  0  0  # atno 10764 bound_to 10752
  154.1415  135.6577  153.4996 H   0  0  0  0  0  0  0  0  0  0  0  0  # atno 10765 bound_to 10752
  140.2787  134.2997  155.7806 H   0  0  0  0  0  0  0  0  0  0  0  0  # atno 11005 bound_to 11000
  144.9663  139.3926  143.6331 LP  0  0  0  0  0  0  0  0  0  0  0  0  # atno 17320 bound_to 7965
  146.3349  139.8740  142.8835 LP  0  0  0  0  0  0  0  0  0  0  0  0  # atno 17321 bound_to 7965
  139.5501  144.2418  152.1514 LP  0  0  0  0  0  0  0  0  0  0  0  0  # atno 17342 bound_to 10162
  140.1655  144.4985  150.6608 LP  0  0  0  0  0  0  0  0  0  0  0  0  # atno 17343 bound_to 10162
  156.4678  130.4046  149.6536 LP  0  0  0  0  0  0  0  0  0  0  0  0  # atno 17370 bound_to 10713
  156.3628  130.7490  151.2464 LP  0  0  0  0  0  0  0  0  0  0  0  0  # atno 17371 bound_to 10713
  141.2166  133.7512  156.9448 LP  0  0  0  0  0  0  0  0  0  0  0  0  # atno 17394 bound_to 11000
  140.1303  134.9360  157.2328 LP  0  0  0  0  0  0  0  0  0  0  0  0  # atno 17395 bound_to 11000

$$$$
