AV-unprocessed.smi:15|AV-procd|sdf|83|dock8
  -GOLD-   2262015213D 1   1.00000     0.00000
 Structure written by MMmdl.
 53 56  0  0  0  0  0  0  0  0  1 V2000
  148.9165  141.4879  154.8101 C   0  0  0  0  0  0  0  0  0  0  0  0
  149.9434  141.6531  155.9385 C   0  0  0  0  0  0  0  0  0  0  0  0
  150.2102  140.4058  156.6606 N   0  0  0  0  0  0  0  0  0  0  0  0
  150.7906  140.4622  158.0050 C   0  0  0  0  0  0  0  0  0  0  0  0
  151.5907  141.7504  158.2699 C   0  0  2  0  0  0  0  0  0  0  0  0
  152.1992  141.8054  159.6677 C   0  0  0  0  0  0  0  0  0  0  0  0
  152.4225  143.2917  159.8848 C   0  0  0  0  0  0  0  0  0  0  0  0
  151.4405  143.9552  158.9140 C   0  0  0  0  0  0  0  0  0  0  0  0
  150.7422  142.8875  158.2851 O   0  0  0  0  0  0  0  0  0  0  0  0
  150.6075  139.3397  155.9173 C   0  0  0  0  0  0  0  0  0  0  0  0
  150.9638  139.5203  154.6167 N   0  0  0  0  0  0  0  0  0  0  0  0
  151.3808  138.4871  153.8795 C   0  0  0  0  0  0  0  0  0  0  0  0
  151.5144  137.2085  154.2360 N   0  0  0  0  0  0  0  0  0  0  0  0
  151.1488  137.0173  155.5357 C   0  0  0  0  0  0  0  0  0  0  0  0
  150.6902  138.0174  156.4393 C   0  0  0  0  0  0  0  0  0  0  0  0
  150.4102  137.4430  157.6739 N   0  0  0  0  0  0  0  0  0  0  0  0
  150.6978  136.1806  157.5127 C   0  0  0  0  0  0  0  0  0  0  0  0
  151.1341  135.8341  156.2539 N   0  0  0  0  0  0  0  0  0  0  0  0
  151.5229  134.5082  155.7995 C   0  0  0  0  0  0  0  0  0  0  0  0
  150.4659  133.7746  154.9333 C   0  0  1  0  0  0  0  0  0  0  0  0
  149.3154  133.6384  155.7505 O   0  0  0  0  0  0  0  0  0  0  0  0
  150.0659  134.4954  153.6536 C   0  0  0  0  0  0  0  0  0  0  0  0
  149.4282  133.3805  152.8303 C   0  0  0  0  0  0  0  0  0  0  0  0
  150.1371  132.1964  153.1788 O   0  0  0  0  0  0  0  0  0  0  0  0
  150.8916  132.3993  154.3724 C   0  0  2  0  0  0  0  0  0  0  0  0
  150.7632  131.2009  155.3256 C   0  0  0  0  0  0  0  0  0  0  0  0
  148.8194  142.4136  154.2433 H   0  0  0  0  0  0  0  0  0  0  0  0
  147.9278  141.2408  155.1964 H   0  0  0  0  0  0  0  0  0  0  0  0
  149.2164  140.7032  154.1151 H   0  0  0  0  0  0  0  0  0  0  0  0
  150.8719  142.0173  155.4960 H   0  0  0  0  0  0  0  0  0  0  0  0
  149.6104  142.4200  156.6382 H   0  0  0  0  0  0  0  0  0  0  0  0
  150.0074  140.3471  158.7539 H   0  0  0  0  0  0  0  0  0  0  0  0
  151.4486  139.6075  158.1541 H   0  0  0  0  0  0  0  0  0  0  0  0
  152.3772  141.8888  157.5257 H   0  0  0  0  0  0  0  0  0  0  0  0
  151.4859  141.4299  160.4032 H   0  0  0  0  0  0  0  0  0  0  0  0
  153.1150  141.2199  159.7551 H   0  0  0  0  0  0  0  0  0  0  0  0
  152.2400  143.5790  160.9207 H   0  0  0  0  0  0  0  0  0  0  0  0
  153.4467  143.5699  159.6334 H   0  0  0  0  0  0  0  0  0  0  0  0
  150.7411  144.6201  159.4210 H   0  0  0  0  0  0  0  0  0  0  0  0
  151.9757  144.5345  158.1607 H   0  0  0  0  0  0  0  0  0  0  0  0
  151.6467  138.7183  152.8585 H   0  0  0  0  0  0  0  0  0  0  0  0
  150.5914  135.4608  158.3115 H   0  0  0  0  0  0  0  0  0  0  0  0
  152.4557  134.6062  155.2424 H   0  0  0  0  0  0  0  0  0  0  0  0
  151.7601  133.9094  156.6800 H   0  0  0  0  0  0  0  0  0  0  0  0
  149.4320  132.8836  156.3073 H   0  0  0  0  0  0  0  0  0  0  0  0
  149.3987  135.3426  153.8174 H   0  0  0  0  0  0  0  0  0  0  0  0
  150.9426  134.8600  153.1197 H   0  0  0  0  0  0  0  0  0  0  0  0
  148.3804  133.2537  153.1051 H   0  0  0  0  0  0  0  0  0  0  0  0
  149.4757  133.5729  151.7584 H   0  0  0  0  0  0  0  0  0  0  0  0
  151.9249  132.4541  154.0329 H   0  0  0  0  0  0  0  0  0  0  0  0
  151.3355  131.3638  156.2390 H   0  0  0  0  0  0  0  0  0  0  0  0
  151.1428  130.2938  154.8552 H   0  0  0  0  0  0  0  0  0  0  0  0
  149.7257  131.0150  155.6040 H   0  0  0  0  0  0  0  0  0  0  0  0
  1  2  1  0  0  0  0
  1 27  1  0  0  0  0
  1 28  1  0  0  0  0
  1 29  1  0  0  0  0
  2  3  1  0  0  0  0
  2 30  1  0  0  0  0
  2 31  1  0  0  0  0
  3  4  1  0  0  0  0
  3 10  1  0  0  0  0
  4  5  1  0  0  0  0
  4 32  1  0  0  0  0
  4 33  1  0  0  0  0
  5  9  1  0  0  0  0
  5  6  1  0  0  0  0
  5 34  1  0  0  0  0
  6  7  1  0  0  0  0
  6 35  1  0  0  0  0
  6 36  1  0  0  0  0
  7  8  1  0  0  0  0
  7 37  1  0  0  0  0
  7 38  1  0  0  0  0
  8  9  1  0  0  0  0
  8 39  1  0  0  0  0
  8 40  1  0  0  0  0
 10 15  1  0  0  0  0
 10 11  2  0  0  0  0
 11 12  1  0  0  0  0
 12 13  2  0  0  0  0
 12 41  1  0  0  0  0
 13 14  1  0  0  0  0
 14 18  1  0  0  0  0
 14 15  2  0  0  0  0
 15 16  1  0  0  0  0
 16 17  2  0  0  0  0
 17 18  1  0  0  0  0
 17 42  1  0  0  0  0
 18 19  1  0  0  0  0
 19 20  1  0  0  0  0
 19 43  1  0  0  0  0
 19 44  1  0  0  0  0
 20 25  1  0  0  0  0
 20 21  1  0  0  0  0
 20 22  1  0  0  0  0
 21 45  1  0  0  0  0
 22 23  1  0  0  0  0
 22 46  1  0  0  0  0
 22 47  1  0  0  0  0
 23 24  1  0  0  0  0
 23 48  1  0  0  0  0
 23 49  1  0  0  0  0
 24 25  1  0  0  0  0
 25 26  1  0  0  0  0
 25 50  1  0  0  0  0
 26 51  1  0  0  0  0
 26 52  1  0  0  0  0
 26 53  1  0  0  0  0
M  END
> <s_m_source_file>
AV-unprocessed.smi

> <i_m_source_file_index>
15

> <i_lp_mmshare_version>
43012

> <i_f3d_flags>
0

> <s_epik_input>
TzFbQ0gyXVtDSDJdW0NIMl1bQ0BIXTFbQ0gyXU4oW0NIMl1bQ0gzXSljKG5bY0hdbjIpYyhjMjMpbltjSF1uM1tDSDJdW0NAQF00KFtPSF0pW0NIMl1bQ0gyXU9bQ0BIXTRbQ0gzXQ==

> <s_epik_cmdline>
J2VwaWtfcHl0aG9uJywgJy1waCcsICc3LjAnLCAnLXRuJywgJzgnLCAnLW1hJywgJzIwMCcsICctbWV0YWxfYmluZGluZycsICctaW1hZScsICc8aW5maWxlLm1hZT4nLCAnLW9tYWUnLCAnPG91dGZpbGUubWFlPic=

> <r_lp_tautomer_probability>
1

> <r_epik_Ionization_Penalty>
0.00360814

> <r_epik_Ionization_Penalty_Charging>
0

> <r_epik_Ionization_Penalty_Neutral>
0.00360814

> <r_epik_State_Penalty>
0.00237482

> <r_epik_Charging_Adjusted_Penalty>
0.00237482

> <i_epik_Tot_Q>
0

> <i_epik_Tot_abs_Q>
0

> <r_epik_Metal_State_Penalty>
-0

> <b_epik_Metal_Only>
0

> <s_lp_Force_Field>
OPLS_2005

> <r_lp_Energy>
48.2804

> <b_lp_Chiralities_Consistent>
1

> <s_lp_Variant>
AV-unprocessed.smi:15-5

> <Gold.Version>
5.8.1

> <Gold.Id.Protein>
6NUR|6NUR_protein|mol2

> <Gold.PLP.Fitness>
48.8943

> <Gold.PLP.PLP>
-42.1373

> <Gold.PLP.part.hbond>
-2.0000

> <Gold.PLP.part.metal>
0.0000

> <Gold.PLP.part.buried>
-4.9425

> <Gold.PLP.part.nonpolar>
-35.3051

> <Gold.PLP.part.repulsive>
0.4793

> <Gold.PLP.ligand.clash>
0.0000

> <Gold.PLP.ligand.torsion>
0.9845

> <Gold.PLP.Chemscore.Hbond>
2.0000

> <Gold.PLP.Chemscore.CHOScore>
0.6080

> <Gold.PLP.Chemscore.Metal>
0.0000

> <Gold.Chemscore.Hbonds>
donor molecule, donor type, donor heavy atom, donor atom, acceptor molecule, acceptor atom, score
      P1  H  7989  7998       L1    11  0.80
      P1  H 10752 10765       L1    13  0.58

> <Gold.PLP.Chemscore.Internal.Correction>
0.9020

> <Gold.Rescore>
     Score         DG    S(hbond)    S(metal)    S(lipo)     H(rot)  DE(clash)    DE(int)     intcor
     13.82     -16.50       1.73        0.00      98.16       2.44       0.11       2.57       ----

> <Gold.Chemscore.Fitness>
13.8212

> <Gold.Chemscore.DG>
-16.5035

> <Gold.Chemscore.ZeroCoef>
-5.4800

> <Gold.Chemscore.Hbond>
1.7343

> <Gold.Chemscore.Metal>
0.0000

> <Gold.Chemscore.Lipo>
98.1640

> <Gold.Chemscore.Internal_Hbond>
0.0000

> <Gold.Chemscore.DEClash>
0.1132

> <Gold.Chemscore.DEInternal>
2.5691

> <Gold.Chemscore.Rot>
2.4431

> <Gold.Chemscore.Internal.Correction>
   9.000000E+99

> <Gold.Chemscore.Hbonds>
donor molecule, donor type, donor heavy atom, donor atom, acceptor molecule, acceptor atom, score
      P1  H  7989  7998       L1    11  0.12
      P1  H 10752 10765       L1    13  0.06

> <Gold.Chemscore.Hbond.Weighted>
-5.7927

> <Gold.Chemscore.Metal.Weighted>
-0.0000

> <Gold.Chemscore.Lipo.Weighted>
-11.4852

> <Gold.Chemscore.Internal_Hbond.Weighted>
0.0000

> <Gold.Chemscore.DEClash.Weighted>
0.1132

> <Gold.Chemscore.DEInternal.Weighted>
2.5691

> <Gold.Chemscore.Rot.Weighted>
6.2544

> <Gold.Chemscore.Internal.Correction.Weighted>
   9.000000E+99

> <Gold.Protein.RotatedTorsions>
[ 6907 6896 6895 6894 ] final  140.59 input  -60.11 | X-H torsion
[ 7974 7965 7964 7962 ] final  145.68 input  175.53 | X-H torsion
[ 8008 7997 7996 7995 ] final   -6.03 input   59.86 | X-H torsion
[ 10167 10162 10161 10158 ] final  -17.11 input  -65.29 | X-H torsion
[ 10718 10713 10712 10709 ] final   32.00 input   66.30 | X-H torsion
[ 10763 10752 10751 10750 ] final  160.22 input  -60.55 | X-H torsion
[ 11005 11000 10999 10996 ] final  154.32 input  -57.11 | X-H torsion

> <Gold.Protein.ActiveResidues>
 VAL166  LYS551  ARG553  GLY616  TRP617  ASP618  TYR619  PRO620  LYS621  CYS622 
 ASP623  PHE694  ASN695  SER759  ASP760  ASP761  ALA762  ILE779  LEU786  VAL792 
 PHE793  MET794  SER795  GLU796  ALA797  LYS798  CYS799  TRP800  GLU811  SER814 

> <Gold.Protein.RotatedAtoms>
  152.2412  133.5137  159.5270 H   0  0  0  0  0  0  0  0  0  0  0  0  # atno 6907 bound_to 6896
  150.7065  134.1087  159.4001 H   0  0  0  0  0  0  0  0  0  0  0  0  # atno 6908 bound_to 6896
  151.9007  135.0379  160.0557 H   0  0  0  0  0  0  0  0  0  0  0  0  # atno 6909 bound_to 6896
  144.8733  139.5812  143.5877 H   0  0  0  0  0  0  0  0  0  0  0  0  # atno 7974 bound_to 7965
  154.5979  140.2443  155.7832 H   0  0  0  0  0  0  0  0  0  0  0  0  # atno 8008 bound_to 7997
  156.2291  140.2972  156.0096 H   0  0  0  0  0  0  0  0  0  0  0  0  # atno 8009 bound_to 7997
  155.2261  140.0402  157.2946 H   0  0  0  0  0  0  0  0  0  0  0  0  # atno 8010 bound_to 7997
  140.7243  143.5048  150.9824 H   0  0  0  0  0  0  0  0  0  0  0  0  # atno 10167 bound_to 10162
  157.2796  130.7248  149.6549 H   0  0  0  0  0  0  0  0  0  0  0  0  # atno 10718 bound_to 10713
  154.2440  135.2774  155.2842 H   0  0  0  0  0  0  0  0  0  0  0  0  # atno 10763 bound_to 10752
  154.5521  135.5672  153.6934 H   0  0  0  0  0  0  0  0  0  0  0  0  # atno 10764 bound_to 10752
  152.9994  135.6277  154.2585 H   0  0  0  0  0  0  0  0  0  0  0  0  # atno 10765 bound_to 10752
  140.1478  134.8695  157.2415 H   0  0  0  0  0  0  0  0  0  0  0  0  # atno 11005 bound_to 11000
  146.2945  139.7237  142.9136 LP  0  0  0  0  0  0  0  0  0  0  0  0  # atno 17320 bound_to 7965
  145.4090  141.0394  143.3028 LP  0  0  0  0  0  0  0  0  0  0  0  0  # atno 17321 bound_to 7965
  139.8759  143.7133  152.3162 LP  0  0  0  0  0  0  0  0  0  0  0  0  # atno 17342 bound_to 10162
  139.7398  144.7562  151.0670 LP  0  0  0  0  0  0  0  0  0  0  0  0  # atno 17343 bound_to 10162
  155.9664  130.4342  150.5039 LP  0  0  0  0  0  0  0  0  0  0  0  0  # atno 17370 bound_to 10713
  157.2980  131.0639  151.2088 LP  0  0  0  0  0  0  0  0  0  0  0  0  # atno 17371 bound_to 10713
  140.2642  134.3535  155.7396 LP  0  0  0  0  0  0  0  0  0  0  0  0  # atno 17394 bound_to 11000
  141.2195  133.7386  156.9126 LP  0  0  0  0  0  0  0  0  0  0  0  0  # atno 17395 bound_to 11000

$$$$
