AV-unprocessed.smi:2421|AV-procd|sdf|9555|dock1
  -GOLD-   2272013183D 1   1.00000     0.00000
 Structure written by MMmdl.
 44 46  0  0  0  0  0  0  0  0  1 V2000
  142.2266  137.1468  155.9596 C   0  0  0  0  0  0  0  0  0  0  0  0
  142.5049  136.3706  154.7050 C   0  0  0  0  0  0  0  0  0  0  0  0
  141.8976  135.2137  154.4873 N   0  0  0  0  0  0  0  0  0  0  0  0
  142.3563  134.7508  153.2418 O   0  0  0  0  0  0  0  0  0  0  0  0
  143.2392  135.6514  152.7319 C   0  0  0  0  0  0  0  0  0  0  0  0
  143.8393  135.3457  151.4019 C   0  0  0  0  0  0  0  0  0  0  0  0
  143.3683  136.6753  153.6215 C   0  0  0  0  0  0  0  0  0  0  0  0
  144.1641  137.8296  153.4723 N   0  0  0  0  0  0  0  0  0  0  0  0
  145.3175  138.0357  154.1291 C   0  0  0  0  0  0  0  0  0  0  0  0
  145.8367  137.1999  154.8669 O   0  0  0  0  0  0  0  0  0  0  0  0
  145.8816  139.2374  153.9107 N   0  0  0  0  0  0  0  0  0  0  0  0
  147.1273  139.7671  154.4695 C   0  0  2  0  0  0  0  0  0  0  0  0
  147.3970  141.1660  153.9019 C   0  0  0  0  0  0  0  0  0  0  0  0
  148.7436  141.7014  154.4088 C   0  0  0  0  0  0  0  0  0  0  0  0
  149.7977  140.7938  154.0927 O   0  0  0  0  0  0  0  0  0  0  0  0
  149.6567  139.4621  154.6017 C   0  0  0  0  0  0  0  0  0  0  0  0
  149.8742  139.4069  156.1246 C   0  0  0  0  0  0  0  0  0  0  0  0
  151.3871  139.5443  156.3186 C   0  0  0  0  0  0  0  0  0  0  0  0
  152.0272  139.0393  155.0178 C   0  0  0  0  0  0  0  0  0  0  0  0
  150.8665  138.6747  154.0839 C   0  0  0  0  0  0  0  0  0  0  0  0
  148.3186  138.8556  154.1266 C   0  0  0  0  0  0  0  0  0  0  0  0
  142.8272  138.0554  156.0064 H   0  0  0  0  0  0  0  0  0  0  0  0
  142.4553  136.5540  156.8454 H   0  0  0  0  0  0  0  0  0  0  0  0
  141.1780  137.4402  156.0144 H   0  0  0  0  0  0  0  0  0  0  0  0
  144.5717  136.1025  151.1200 H   0  0  0  0  0  0  0  0  0  0  0  0
  143.0705  135.3143  150.6299 H   0  0  0  0  0  0  0  0  0  0  0  0
  144.3429  134.3793  151.4191 H   0  0  0  0  0  0  0  0  0  0  0  0
  143.8133  138.5604  152.8705 H   0  0  0  0  0  0  0  0  0  0  0  0
  145.4029  139.8435  153.2600 H   0  0  0  0  0  0  0  0  0  0  0  0
  147.0321  139.8556  155.5531 H   0  0  0  0  0  0  0  0  0  0  0  0
  147.4119  141.1303  152.8115 H   0  0  0  0  0  0  0  0  0  0  0  0
  146.5959  141.8511  154.1817 H   0  0  0  0  0  0  0  0  0  0  0  0
  148.9623  142.6585  153.9351 H   0  0  0  0  0  0  0  0  0  0  0  0
  148.7049  141.8942  155.4804 H   0  0  0  0  0  0  0  0  0  0  0  0
  149.3126  140.1502  156.6885 H   0  0  0  0  0  0  0  0  0  0  0  0
  149.5610  138.4309  156.4981 H   0  0  0  0  0  0  0  0  0  0  0  0
  151.6486  140.5917  156.4738 H   0  0  0  0  0  0  0  0  0  0  0  0
  151.7323  138.9881  157.1906 H   0  0  0  0  0  0  0  0  0  0  0  0
  152.6348  139.8291  154.5740 H   0  0  0  0  0  0  0  0  0  0  0  0
  152.6800  138.1830  155.1903 H   0  0  0  0  0  0  0  0  0  0  0  0
  150.6703  137.6043  154.1646 H   0  0  0  0  0  0  0  0  0  0  0  0
  151.0905  138.8843  153.0372 H   0  0  0  0  0  0  0  0  0  0  0  0
  148.1816  137.8634  154.5583 H   0  0  0  0  0  0  0  0  0  0  0  0
  148.3581  138.7125  153.0455 H   0  0  0  0  0  0  0  0  0  0  0  0
  1  2  1  0  0  0  0
  1 22  1  0  0  0  0
  1 23  1  0  0  0  0
  1 24  1  0  0  0  0
  2  7  1  0  0  0  0
  2  3  2  0  0  0  0
  3  4  1  0  0  0  0
  4  5  1  0  0  0  0
  5  6  1  0  0  0  0
  5  7  2  0  0  0  0
  6 25  1  0  0  0  0
  6 26  1  0  0  0  0
  6 27  1  0  0  0  0
  7  8  1  0  0  0  0
  8  9  1  0  0  0  0
  8 28  1  0  0  0  0
  9 10  2  0  0  0  0
  9 11  1  0  0  0  0
 11 12  1  0  0  0  0
 11 29  1  0  0  0  0
 12 21  1  0  0  0  0
 12 13  1  0  0  0  0
 12 30  1  0  0  0  0
 13 14  1  0  0  0  0
 13 31  1  0  0  0  0
 13 32  1  0  0  0  0
 14 15  1  0  0  0  0
 14 33  1  0  0  0  0
 14 34  1  0  0  0  0
 15 16  1  0  0  0  0
 16 20  1  0  0  0  0
 16 17  1  0  0  0  0
 16 21  1  0  0  0  0
 17 18  1  0  0  0  0
 17 35  1  0  0  0  0
 17 36  1  0  0  0  0
 18 19  1  0  0  0  0
 18 37  1  0  0  0  0
 18 38  1  0  0  0  0
 19 20  1  0  0  0  0
 19 39  1  0  0  0  0
 19 40  1  0  0  0  0
 20 41  1  0  0  0  0
 20 42  1  0  0  0  0
 21 43  1  0  0  0  0
 21 44  1  0  0  0  0
M  END
> <s_m_source_file>
AV-unprocessed.smi

> <i_m_source_file_index>
2421

> <i_lp_mmshare_version>
43012

> <i_f3d_flags>
0

> <s_epik_input>
W0NIM11jMW5vYyhbQ0gzXSljMVtOSF1DKD1PKVtOSF1bQ0BASF0oW0NIMl0yKVtDSDJdW0NIMl1PQzIzW0NIMl1bQ0gyXVtDSDJdW0NIMl0z

> <s_epik_cmdline>
J2VwaWtfcHl0aG9uJywgJy1waCcsICc3LjAnLCAnLXRuJywgJzgnLCAnLW1hJywgJzIwMCcsICctbWV0YWxfYmluZGluZycsICctaW1hZScsICc8aW5maWxlLm1hZT4nLCAnLW9tYWUnLCAnPG91dGZpbGUubWFlPic=

> <r_lp_tautomer_probability>
1

> <r_epik_Ionization_Penalty>
3.59808e-05

> <r_epik_Ionization_Penalty_Charging>
0

> <r_epik_Ionization_Penalty_Neutral>
3.59808e-05

> <r_epik_State_Penalty>
-0

> <r_epik_Charging_Adjusted_Penalty>
0

> <i_epik_Tot_Q>
0

> <i_epik_Tot_abs_Q>
0

> <r_epik_Metal_State_Penalty>
-0

> <b_epik_Metal_Only>
0

> <s_lp_Force_Field>
OPLS_2005

> <r_lp_Energy>
43.4187

> <b_lp_Chiralities_Consistent>
1

> <s_lp_Variant>
AV-unprocessed.smi:2421-1

> <Gold.Version>
5.8.1

> <Gold.Id.Protein>
6NUR|6NUR_protein|mol2

> <Gold.PLP.Fitness>
38.9244

> <Gold.PLP.PLP>
-30.8273

> <Gold.PLP.part.hbond>
-4.1836

> <Gold.PLP.part.metal>
0.0000

> <Gold.PLP.part.buried>
-5.4394

> <Gold.PLP.part.nonpolar>
-21.9789

> <Gold.PLP.part.repulsive>
1.1341

> <Gold.PLP.ligand.clash>
0.0000

> <Gold.PLP.ligand.torsion>
0.7063

> <Gold.PLP.Chemscore.Hbond>
3.0024

> <Gold.PLP.Chemscore.CHOScore>
0.0000

> <Gold.PLP.Chemscore.Metal>
0.0000

> <Gold.Chemscore.Hbonds>
donor molecule, donor type, donor heavy atom, donor atom, acceptor molecule, acceptor atom, score
      L1  H     8    28       P1 10175  0.99
      L1  H    11    29       P1 10175  0.98
      P1  H  7989  7998       L1    15  0.58
      P1  H 11000 11005       L1     3  0.46

> <Gold.PLP.Chemscore.Internal.Correction>
0.5025

> <Gold.Rescore>
     Score         DG    S(hbond)    S(metal)    S(lipo)     H(rot)  DE(clash)    DE(int)     intcor
     19.81     -20.71       2.88        0.00      69.90       1.00       0.22       0.68       ----

> <Gold.Chemscore.Fitness>
19.8123

> <Gold.Chemscore.DG>
-20.7097

> <Gold.Chemscore.ZeroCoef>
-5.4800

> <Gold.Chemscore.Hbond>
2.8778

> <Gold.Chemscore.Metal>
0.0000

> <Gold.Chemscore.Lipo>
69.8968

> <Gold.Chemscore.Internal_Hbond>
0.0000

> <Gold.Chemscore.DEClash>
0.2195

> <Gold.Chemscore.DEInternal>
0.6778

> <Gold.Chemscore.Rot>
1.0000

> <Gold.Chemscore.Internal.Correction>
   9.000000E+99

> <Gold.Chemscore.Hbonds>
donor molecule, donor type, donor heavy atom, donor atom, acceptor molecule, acceptor atom, score
      L1  H     8    28       P1 10175  0.94
      L1  H    11    29       P1 10175  0.90
      P1  H  7989  7998       L1    15  0.29
      P1  H 11000 11005       L1     3  0.46

> <Gold.Chemscore.Hbond.Weighted>
-9.6118

> <Gold.Chemscore.Metal.Weighted>
-0.0000

> <Gold.Chemscore.Lipo.Weighted>
-8.1779

> <Gold.Chemscore.Internal_Hbond.Weighted>
0.0000

> <Gold.Chemscore.DEClash.Weighted>
0.2195

> <Gold.Chemscore.DEInternal.Weighted>
0.6778

> <Gold.Chemscore.Rot.Weighted>
2.5600

> <Gold.Chemscore.Internal.Correction.Weighted>
   9.000000E+99

> <Gold.Protein.RotatedTorsions>
[ 6907 6896 6895 6894 ] final  137.77 input  -60.11 | X-H torsion
[ 7974 7965 7964 7962 ] final  -87.15 input  175.53 | X-H torsion
[ 8008 7997 7996 7995 ] final  147.45 input   59.86 | X-H torsion
[ 10167 10162 10161 10158 ] final  -12.19 input  -65.29 | X-H torsion
[ 10718 10713 10712 10709 ] final   62.23 input   66.30 | X-H torsion
[ 10763 10752 10751 10750 ] final  157.57 input  -60.55 | X-H torsion
[ 11005 11000 10999 10996 ] final    9.35 input  -57.11 | X-H torsion

> <Gold.Protein.ActiveResidues>
 VAL166  LYS551  ARG553  GLY616  TRP617  ASP618  TYR619  PRO620  LYS621  CYS622 
 ASP623  PHE694  ASN695  SER759  ASP760  ASP761  ALA762  ILE779  LEU786  VAL792 
 PHE793  MET794  SER795  GLU796  ALA797  LYS798  CYS799  TRP800  GLU811  SER814 

> <Gold.Protein.RotatedAtoms>
  152.2743  133.5411  159.5457 H   0  0  0  0  0  0  0  0  0  0  0  0  # atno 6907 bound_to 6896
  150.7171  134.0654  159.3855 H   0  0  0  0  0  0  0  0  0  0  0  0  # atno 6908 bound_to 6896
  151.8568  135.0538  160.0516 H   0  0  0  0  0  0  0  0  0  0  0  0  # atno 6909 bound_to 6896
  145.4704  140.9560  143.1920 H   0  0  0  0  0  0  0  0  0  0  0  0  # atno 7974 bound_to 7965
  156.2824  140.2155  156.5540 H   0  0  0  0  0  0  0  0  0  0  0  0  # atno 8008 bound_to 7997
  154.7268  140.0499  157.0712 H   0  0  0  0  0  0  0  0  0  0  0  0  # atno 8009 bound_to 7997
  155.0406  140.3145  155.4729 H   0  0  0  0  0  0  0  0  0  0  0  0  # atno 8010 bound_to 7997
  140.7155  143.5559  150.9249 H   0  0  0  0  0  0  0  0  0  0  0  0  # atno 10167 bound_to 10162
  157.5886  130.9039  149.9561 H   0  0  0  0  0  0  0  0  0  0  0  0  # atno 10718 bound_to 10713
  154.2023  135.2790  155.2986 H   0  0  0  0  0  0  0  0  0  0  0  0  # atno 10763 bound_to 10752
  154.5844  135.5579  153.7220 H   0  0  0  0  0  0  0  0  0  0  0  0  # atno 10764 bound_to 10752
  153.0084  135.6353  154.2162 H   0  0  0  0  0  0  0  0  0  0  0  0  # atno 10765 bound_to 10752
  140.5267  134.0506  155.7861 H   0  0  0  0  0  0  0  0  0  0  0  0  # atno 11005 bound_to 11000
  144.7948  139.6255  143.7097 LP  0  0  0  0  0  0  0  0  0  0  0  0  # atno 17320 bound_to 7965
  146.2400  139.5981  142.9498 LP  0  0  0  0  0  0  0  0  0  0  0  0  # atno 17321 bound_to 7965
  139.9284  143.6522  152.3082 LP  0  0  0  0  0  0  0  0  0  0  0  0  # atno 17342 bound_to 10162
  139.6964  144.7641  151.1348 LP  0  0  0  0  0  0  0  0  0  0  0  0  # atno 17343 bound_to 10162
  156.0937  130.3661  150.0346 LP  0  0  0  0  0  0  0  0  0  0  0  0  # atno 17370 bound_to 10713
  156.8473  130.9446  151.3628 LP  0  0  0  0  0  0  0  0  0  0  0  0  # atno 17371 bound_to 10713
  141.1304  133.9312  157.2547 LP  0  0  0  0  0  0  0  0  0  0  0  0  # atno 17394 bound_to 11000
  139.9576  135.0162  156.9172 LP  0  0  0  0  0  0  0  0  0  0  0  0  # atno 17395 bound_to 11000

$$$$
