AV-unprocessed.smi:2226|AV-procd|sdf|9015|dock5
  -GOLD-   2272012223D 1   1.00000     0.00000
 Structure written by MMmdl.
 40 42  0  0  0  0  0  0  0  0  2 V2000
  146.7996  139.1433  152.4201 C   0  0  0  0  0  0  0  0  0  0  0  0
  146.4946  140.2133  153.3997 N   0  3  1  0  0  0  0  0  0  0  0  0
  146.2925  139.7450  154.7914 C   0  0  2  0  0  0  0  0  0  0  0  0
  145.5806  140.8544  155.6004 C   0  0  0  0  0  0  0  0  0  0  0  0
  146.2713  142.2302  155.5230 C   0  0  0  0  0  0  0  0  0  0  0  0
  146.7774  142.5590  154.1057 C   0  0  0  0  0  0  0  0  0  0  0  0
  147.4323  141.3610  153.3804 C   0  0  1  0  0  0  0  0  0  0  0  0
  148.8341  140.9583  153.9042 C   0  0  0  0  0  0  0  0  0  0  0  0
  148.8571  140.1185  155.2098 C   0  0  1  0  0  0  0  0  0  0  0  0
  149.1300  140.9213  156.3997 N   0  0  0  0  0  0  0  0  0  0  0  0
  150.2695  140.9332  157.1081 C   0  0  0  0  0  0  0  0  0  0  0  0
  151.2326  140.2250  156.7976 O   0  0  0  0  0  0  0  0  0  0  0  0
  150.1662  141.8409  158.1519 N   0  0  0  0  0  0  0  0  0  0  0  0
  151.1913  142.0756  158.9129 C   0  0  0  0  0  0  0  0  0  0  0  0
  152.4961  141.5893  158.9260 N   0  0  0  0  0  0  0  0  0  0  0  0
  153.1651  142.1915  159.9547 C   0  0  0  0  0  0  0  0  0  0  0  0
  152.3232  143.0205  160.5640 C   0  0  0  0  0  0  0  0  0  0  0  0
  151.1079  142.9703  159.9498 O   0  0  0  0  0  0  0  0  0  0  0  0
  147.6123  139.2195  155.4100 C   0  0  0  0  0  0  0  0  0  0  0  0
  147.7565  138.6609  152.6187 H   0  0  0  0  0  0  0  0  0  0  0  0
  146.8310  139.5519  151.4098 H   0  0  0  0  0  0  0  0  0  0  0  0
  146.0245  138.3770  152.4412 H   0  0  0  0  0  0  0  0  0  0  0  0
  145.5988  138.9036  154.7581 H   0  0  0  0  0  0  0  0  0  0  0  0
  144.5687  140.9631  155.2077 H   0  0  0  0  0  0  0  0  0  0  0  0
  145.4640  140.5521  156.6416 H   0  0  0  0  0  0  0  0  0  0  0  0
  145.5751  143.0039  155.8483 H   0  0  0  0  0  0  0  0  0  0  0  0
  147.0866  142.2860  156.2360 H   0  0  0  0  0  0  0  0  0  0  0  0
  145.9249  142.8905  153.5111 H   0  0  0  0  0  0  0  0  0  0  0  0
  147.4631  143.4060  154.1403 H   0  0  0  0  0  0  0  0  0  0  0  0
  147.5559  141.6688  152.3409 H   0  0  0  0  0  0  0  0  0  0  0  0
  149.3120  140.3599  153.1279 H   0  0  0  0  0  0  0  0  0  0  0  0
  149.4672  141.8419  153.9927 H   0  0  0  0  0  0  0  0  0  0  0  0
  149.7066  139.4366  155.1324 H   0  0  0  0  0  0  0  0  0  0  0  0
  148.3863  141.5282  156.7138 H   0  0  0  0  0  0  0  0  0  0  0  0
  152.9173  140.9095  158.3095 H   0  0  0  0  0  0  0  0  0  0  0  0
  154.2016  141.9551  160.1454 H   0  0  0  0  0  0  0  0  0  0  0  0
  152.4301  143.6844  161.4091 H   0  0  0  0  0  0  0  0  0  0  0  0
  147.4681  138.9888  156.4667 H   0  0  0  0  0  0  0  0  0  0  0  0
  147.8284  138.2557  154.9482 H   0  0  0  0  0  0  0  0  0  0  0  0
  145.6029  140.5855  153.1056 H   0  0  0  0  0  0  0  0  0  0  0  0
  1  2  1  0  0  0  0
  1 20  1  0  0  0  0
  1 21  1  0  0  0  0
  1 22  1  0  0  0  0
  2  7  1  0  0  0  0
  2  3  1  0  0  0  0
  2 40  1  0  0  0  0
  3 19  1  0  0  0  0
  3  4  1  0  0  0  0
  3 23  1  0  0  0  0
  4  5  1  0  0  0  0
  4 24  1  0  0  0  0
  4 25  1  0  0  0  0
  5  6  1  0  0  0  0
  5 26  1  0  0  0  0
  5 27  1  0  0  0  0
  6  7  1  0  0  0  0
  6 28  1  0  0  0  0
  6 29  1  0  0  0  0
  7  8  1  0  0  0  0
  7 30  1  0  0  0  0
  8  9  1  0  0  0  0
  8 31  1  0  0  0  0
  8 32  1  0  0  0  0
  9 10  1  0  0  0  0
  9 19  1  0  0  0  0
  9 33  1  0  0  0  0
 10 34  1  0  0  0  0
 10 11  1  0  0  0  0
 11 13  1  0  0  0  0
 11 12  2  0  0  0  0
 13 14  2  0  0  0  0
 14 18  1  0  0  0  0
 14 15  1  0  0  0  0
 15 35  1  0  0  0  0
 15 16  1  0  0  0  0
 16 36  1  0  0  0  0
 16 17  2  0  0  0  0
 17 37  1  0  0  0  0
 17 18  1  0  0  0  0
 19 38  1  0  0  0  0
 19 39  1  0  0  0  0
M  CHG  1   2   1
M  END
> <s_m_source_file>
AV-unprocessed.smi

> <i_m_source_file_index>
2226

> <i_lp_mmshare_version>
43012

> <i_f3d_flags>
0

> <s_epik_input>
W0NIMl0xW0NIMl1bQ0gyXVtDQEhdKE4oW0NIM10pW0NIXTEyKVtDSDJdW0NASF0oW0NIMl0yKVtOSF1DKD1PKVtOSF1jM25bY0hdW2NIXW8z

> <s_epik_cmdline>
J2VwaWtfcHl0aG9uJywgJy1waCcsICc3LjAnLCAnLXRuJywgJzgnLCAnLW1hJywgJzIwMCcsICctbWV0YWxfYmluZGluZycsICctaW1hZScsICc8aW5maWxlLm1hZT4nLCAnLW9tYWUnLCAnPG91dGZpbGUubWFlPic=

> <r_lp_tautomer_probability>
0.107061

> <r_epik_Ionization_Penalty>
1.08307

> <r_epik_Ionization_Penalty_Charging>
1.08272

> <r_epik_Ionization_Penalty_Neutral>
0.000345913

> <r_epik_State_Penalty>
2.5744

> <r_epik_Charging_Adjusted_Penalty>
3.65713

> <i_epik_Tot_Q>
1

> <i_epik_Tot_abs_Q>
1

> <r_epik_Metal_State_Penalty>
3.72133

> <b_epik_Metal_Only>
0

> <s_lp_Force_Field>
OPLS_2005

> <r_lp_Energy>
59.8055

> <b_lp_Chiralities_Consistent>
1

> <s_lp_Variant>
AV-unprocessed.smi:2226-15

> <Gold.Version>
5.8.1

> <Gold.Id.Protein>
6NUR|6NUR_protein|mol2

> <Gold.PLP.Fitness>
35.6165

> <Gold.PLP.PLP>
-29.7195

> <Gold.PLP.part.hbond>
-1.9791

> <Gold.PLP.part.metal>
0.0000

> <Gold.PLP.part.buried>
-3.2375

> <Gold.PLP.part.nonpolar>
-24.4568

> <Gold.PLP.part.repulsive>
0.1961

> <Gold.PLP.ligand.clash>
0.0000

> <Gold.PLP.ligand.torsion>
0.0775

> <Gold.PLP.Chemscore.Hbond>
2.0000

> <Gold.PLP.Chemscore.CHOScore>
0.0000

> <Gold.PLP.Chemscore.Metal>
0.0000

> <Gold.Chemscore.Hbonds>
donor molecule, donor type, donor heavy atom, donor atom, acceptor molecule, acceptor atom, score
      L1  H     2    40       P1 10175  2.00

> <Gold.PLP.Chemscore.Internal.Correction>
0.0520

> <Gold.Rescore>
     Score         DG    S(hbond)    S(metal)    S(lipo)     H(rot)  DE(clash)    DE(int)     intcor
     13.73     -13.97       0.98        0.00      66.59       1.00       0.15       0.08       ----

> <Gold.Chemscore.Fitness>
13.7330

> <Gold.Chemscore.DG>
-13.9682

> <Gold.Chemscore.ZeroCoef>
-5.4800

> <Gold.Chemscore.Hbond>
0.9751

> <Gold.Chemscore.Metal>
0.0000

> <Gold.Chemscore.Lipo>
66.5935

> <Gold.Chemscore.Internal_Hbond>
0.0000

> <Gold.Chemscore.DEClash>
0.1536

> <Gold.Chemscore.DEInternal>
0.0815

> <Gold.Chemscore.Rot>
1.0000

> <Gold.Chemscore.Internal.Correction>
   9.000000E+99

> <Gold.Chemscore.Hbonds>
donor molecule, donor type, donor heavy atom, donor atom, acceptor molecule, acceptor atom, score
      L1  H     2    40       P1 10175  0.76

> <Gold.Chemscore.Hbond.Weighted>
-3.2568

> <Gold.Chemscore.Metal.Weighted>
-0.0000

> <Gold.Chemscore.Lipo.Weighted>
-7.7914

> <Gold.Chemscore.Internal_Hbond.Weighted>
0.0000

> <Gold.Chemscore.DEClash.Weighted>
0.1536

> <Gold.Chemscore.DEInternal.Weighted>
0.0815

> <Gold.Chemscore.Rot.Weighted>
2.5600

> <Gold.Chemscore.Internal.Correction.Weighted>
   9.000000E+99

> <Gold.Protein.RotatedTorsions>
[ 6907 6896 6895 6894 ] final   56.72 input  -60.11 | X-H torsion
[ 7974 7965 7964 7962 ] final   23.61 input  175.53 | X-H torsion
[ 8008 7997 7996 7995 ] final  121.31 input   59.86 | X-H torsion
[ 10167 10162 10161 10158 ] final  -21.58 input  -65.29 | X-H torsion
[ 10718 10713 10712 10709 ] final -178.56 input   66.30 | X-H torsion
[ 10763 10752 10751 10750 ] final -115.81 input  -60.55 | X-H torsion
[ 11005 11000 10999 10996 ] final -103.88 input  -57.11 | X-H torsion

> <Gold.Protein.ActiveResidues>
 VAL166  LYS551  ARG553  GLY616  TRP617  ASP618  TYR619  PRO620  LYS621  CYS622 
 ASP623  PHE694  ASN695  SER759  ASP760  ASP761  ALA762  ILE779  LEU786  VAL792 
 PHE793  MET794  SER795  GLU796  ALA797  LYS798  CYS799  TRP800  GLU811  SER814 

> <Gold.Protein.RotatedAtoms>
  152.3663  134.6799  160.0190 H   0  0  0  0  0  0  0  0  0  0  0  0  # atno 6907 bound_to 6896
  151.7106  133.3307  159.3298 H   0  0  0  0  0  0  0  0  0  0  0  0  # atno 6908 bound_to 6896
  150.7641  134.6470  159.6312 H   0  0  0  0  0  0  0  0  0  0  0  0  # atno 6909 bound_to 6896
  146.1976  139.7720  142.8785 H   0  0  0  0  0  0  0  0  0  0  0  0  # atno 7974 bound_to 7965
  156.2681  140.2811  156.1288 H   0  0  0  0  0  0  0  0  0  0  0  0  # atno 8008 bound_to 7997
  155.1077  140.0390  157.2732 H   0  0  0  0  0  0  0  0  0  0  0  0  # atno 8009 bound_to 7997
  154.6767  140.2599  155.6957 H   0  0  0  0  0  0  0  0  0  0  0  0  # atno 8010 bound_to 7997
  140.7282  143.4614  151.0374 H   0  0  0  0  0  0  0  0  0  0  0  0  # atno 10167 bound_to 10162
  156.8461  130.9703  151.3096 H   0  0  0  0  0  0  0  0  0  0  0  0  # atno 10718 bound_to 10713
  154.8495  135.4368  154.1721 H   0  0  0  0  0  0  0  0  0  0  0  0  # atno 10763 bound_to 10752
  153.2832  135.6955  153.7371 H   0  0  0  0  0  0  0  0  0  0  0  0  # atno 10764 bound_to 10752
  153.6567  135.3442  155.3090 H   0  0  0  0  0  0  0  0  0  0  0  0  # atno 10765 bound_to 10752
  141.1126  133.8677  157.1542 H   0  0  0  0  0  0  0  0  0  0  0  0  # atno 11005 bound_to 11000
  145.3591  141.0322  143.3295 LP  0  0  0  0  0  0  0  0  0  0  0  0  # atno 17320 bound_to 7965
  144.8614  139.5172  143.6810 LP  0  0  0  0  0  0  0  0  0  0  0  0  # atno 17321 bound_to 7965
  139.8299  143.7705  152.3179 LP  0  0  0  0  0  0  0  0  0  0  0  0  # atno 17342 bound_to 10162
  139.7817  144.7442  151.0079 LP  0  0  0  0  0  0  0  0  0  0  0  0  # atno 17343 bound_to 10162
  157.6329  130.8743  149.9306 LP  0  0  0  0  0  0  0  0  0  0  0  0  # atno 17370 bound_to 10713
  156.0854  130.3668  150.0498 LP  0  0  0  0  0  0  0  0  0  0  0  0  # atno 17371 bound_to 10713
  140.0028  135.0021  157.0227 LP  0  0  0  0  0  0  0  0  0  0  0  0  # atno 17394 bound_to 11000
  140.4735  134.1362  155.7206 LP  0  0  0  0  0  0  0  0  0  0  0  0  # atno 17395 bound_to 11000

$$$$
