AV-unprocessed.smi:109|AV-procd|sdf|1038|dock2
  -GOLD-   2262018 63D 1   1.00000     0.00000
 Structure written by MMmdl.
 58 61  0  0  0  0  0  0  0  0  1 V2000
  149.9690  136.7788  159.3777 O   0  0  0  0  0  0  0  0  0  0  0  0
  149.4241  136.5548  158.0955 C   0  0  0  0  0  0  0  0  0  0  0  0
  147.9545  137.0098  158.0645 C   0  0  0  0  0  0  0  0  0  0  0  0
  146.9388  135.8829  158.3741 C   0  0  1  0  0  0  0  0  0  0  0  0
  146.9192  134.9300  157.2616 N   0  0  0  0  0  0  0  0  0  0  0  0
  146.3520  135.2244  156.0701 C   0  0  0  0  0  0  0  0  0  0  0  0
  145.5218  136.2895  155.9217 N   0  0  0  0  0  0  0  0  0  0  0  0
  144.9813  136.5579  154.7292 C   0  0  0  0  0  0  0  0  0  0  0  0
  145.1359  135.9033  153.5760 N   0  0  0  0  0  0  0  0  0  0  0  0
  145.9686  134.8324  153.7221 C   0  0  0  0  0  0  0  0  0  0  0  0
  146.6109  134.4286  154.9246 C   0  0  0  0  0  0  0  0  0  0  0  0
  147.3859  133.3007  154.6864 N   0  0  0  0  0  0  0  0  0  0  0  0
  147.2101  133.0587  153.4143 C   0  0  0  0  0  0  0  0  0  0  0  0
  146.3619  133.9282  152.7613 N   0  0  0  0  0  0  0  0  0  0  0  0
  145.9456  133.9540  151.3240 C   0  0  1  0  0  0  0  0  0  0  0  0
  146.5462  132.8772  150.6583 O   0  0  0  0  0  0  0  0  0  0  0  0
  145.5727  132.0056  150.0803 C   0  0  1  0  0  0  0  0  0  0  0  0
  145.3569  130.7937  151.0129 C   0  0  0  0  0  0  0  0  0  0  0  0
  146.6040  130.2368  151.3691 O   0  0  0  0  0  0  0  0  0  0  0  0
  144.3599  132.9310  149.9119 C   0  0  1  0  0  0  0  0  0  0  0  0
  143.1161  132.2791  149.7310 O   0  0  0  0  0  0  0  0  0  0  0  0
  144.4198  133.8287  151.1371 C   0  0  1  0  0  0  0  0  0  0  0  0
  143.7447  133.2716  152.2547 O   0  0  0  0  0  0  0  0  0  0  0  0
  147.2283  135.1235  159.7004 C   0  0  0  0  0  0  0  0  0  0  0  0
  146.1279  134.0695  159.9870 C   0  0  0  0  0  0  0  0  0  0  0  0
  146.3759  133.2975  161.2920 C   0  0  0  0  0  0  0  0  0  0  0  0
  146.4983  134.2516  162.4859 C   0  0  0  0  0  0  0  0  0  0  0  0
  147.5989  135.2890  162.2350 C   0  0  0  0  0  0  0  0  0  0  0  0
  147.3593  136.0612  160.9269 C   0  0  0  0  0  0  0  0  0  0  0  0
  146.3499  134.8899  150.9360 H   0  0  0  0  0  0  0  0  0  0  0  0
  145.9096  131.6597  149.1019 H   0  0  0  0  0  0  0  0  0  0  0  0
  144.5321  133.5512  149.0308 H   0  0  0  0  0  0  0  0  0  0  0  0
  143.9942  134.8126  150.9371 H   0  0  0  0  0  0  0  0  0  0  0  0
  149.7840  137.6701  159.6313 H   0  0  0  0  0  0  0  0  0  0  0  0
  150.0120  137.1039  157.3594 H   0  0  0  0  0  0  0  0  0  0  0  0
  149.5161  135.4938  157.8632 H   0  0  0  0  0  0  0  0  0  0  0  0
  147.8098  137.8375  158.7602 H   0  0  0  0  0  0  0  0  0  0  0  0
  147.7716  137.4087  157.0681 H   0  0  0  0  0  0  0  0  0  0  0  0
  145.9642  136.3537  158.4983 H   0  0  0  0  0  0  0  0  0  0  0  0
  147.4459  134.0815  157.4126 H   0  0  0  0  0  0  0  0  0  0  0  0
  144.3326  137.4206  154.6946 H   0  0  0  0  0  0  0  0  0  0  0  0
  147.7025  132.2345  152.9195 H   0  0  0  0  0  0  0  0  0  0  0  0
  144.7950  131.0545  151.9085 H   0  0  0  0  0  0  0  0  0  0  0  0
  144.7970  130.0100  150.5035 H   0  0  0  0  0  0  0  0  0  0  0  0
  147.2748  130.6385  150.8384 H   0  0  0  0  0  0  0  0  0  0  0  0
  142.4756  132.9229  149.4692 H   0  0  0  0  0  0  0  0  0  0  0  0
  144.0212  133.7366  153.0298 H   0  0  0  0  0  0  0  0  0  0  0  0
  148.1771  134.5966  159.5867 H   0  0  0  0  0  0  0  0  0  0  0  0
  145.1553  134.5614  160.0371 H   0  0  0  0  0  0  0  0  0  0  0  0
  146.0612  133.3492  159.1717 H   0  0  0  0  0  0  0  0  0  0  0  0
  145.5642  132.5901  161.4645 H   0  0  0  0  0  0  0  0  0  0  0  0
  147.2876  132.7062  161.1992 H   0  0  0  0  0  0  0  0  0  0  0  0
  145.5463  134.7571  162.6533 H   0  0  0  0  0  0  0  0  0  0  0  0
  146.7160  133.6883  163.3938 H   0  0  0  0  0  0  0  0  0  0  0  0
  147.6492  135.9856  163.0725 H   0  0  0  0  0  0  0  0  0  0  0  0
  148.5677  134.7896  162.1908 H   0  0  0  0  0  0  0  0  0  0  0  0
  148.1921  136.7509  160.8004 H   0  0  0  0  0  0  0  0  0  0  0  0
  146.4600  136.6713  161.0221 H   0  0  0  0  0  0  0  0  0  0  0  0
  1  2  1  0  0  0  0
  1 34  1  0  0  0  0
  2  3  1  0  0  0  0
  2 35  1  0  0  0  0
  2 36  1  0  0  0  0
  3  4  1  0  0  0  0
  3 37  1  0  0  0  0
  3 38  1  0  0  0  0
  4  5  1  0  0  0  0
  4 24  1  0  0  0  0
  4 39  1  0  0  0  0
  5  6  1  0  0  0  0
  5 40  1  0  0  0  0
  6 11  1  0  0  0  0
  6  7  2  0  0  0  0
  7  8  1  0  0  0  0
  8  9  2  0  0  0  0
  8 41  1  0  0  0  0
  9 10  1  0  0  0  0
 10 14  1  0  0  0  0
 10 11  2  0  0  0  0
 11 12  1  0  0  0  0
 12 13  2  0  0  0  0
 13 14  1  0  0  0  0
 13 42  1  0  0  0  0
 14 15  1  0  0  0  0
 15 30  1  0  0  0  0
 15 22  1  0  0  0  0
 15 16  1  0  0  0  0
 16 17  1  0  0  0  0
 17 31  1  0  0  0  0
 17 18  1  0  0  0  0
 17 20  1  0  0  0  0
 18 19  1  0  0  0  0
 18 43  1  0  0  0  0
 18 44  1  0  0  0  0
 19 45  1  0  0  0  0
 20 32  1  0  0  0  0
 20 21  1  0  0  0  0
 20 22  1  0  0  0  0
 21 46  1  0  0  0  0
 22 33  1  0  0  0  0
 22 23  1  0  0  0  0
 23 47  1  0  0  0  0
 24 29  1  0  0  0  0
 24 25  1  0  0  0  0
 24 48  1  0  0  0  0
 25 26  1  0  0  0  0
 25 49  1  0  0  0  0
 25 50  1  0  0  0  0
 26 27  1  0  0  0  0
 26 51  1  0  0  0  0
 26 52  1  0  0  0  0
 27 28  1  0  0  0  0
 27 53  1  0  0  0  0
 27 54  1  0  0  0  0
 28 29  1  0  0  0  0
 28 55  1  0  0  0  0
 28 56  1  0  0  0  0
 29 57  1  0  0  0  0
 29 58  1  0  0  0  0
M  END
> <s_m_source_file>
AV-unprocessed.smi

> <i_m_source_file_index>
109

> <i_lp_mmshare_version>
43012

> <i_f3d_flags>
0

> <s_epik_input>
W0NIMl0xW0NIMl1bQ0gyXVtDSDJdW0NIMl1bQ0hdMVtDQEhdKFtDSDJdW0NIMl1bT0hdKVtOSF1jKG5bY0hdbjIpYyhjMjMpbltjSF1uM1tDQEBIXTRPW0NASF0oW0NIMl1bT0hdKVtDQEBIXShbT0hdKVtDQEhdNFtPSF0=

> <s_epik_cmdline>
J2VwaWtfcHl0aG9uJywgJy1waCcsICc3LjAnLCAnLXRuJywgJzgnLCAnLW1hJywgJzIwMCcsICctbWV0YWxfYmluZGluZycsICctaW1hZScsICc8aW5maWxlLm1hZT4nLCAnLW9tYWUnLCAnPG91dGZpbGUubWFlPic=

> <r_lp_tautomer_probability>
1

> <r_epik_Ionization_Penalty>
0.000793976

> <r_epik_Ionization_Penalty_Charging>
0

> <r_epik_Ionization_Penalty_Neutral>
0.000793976

> <r_epik_State_Penalty>
-0

> <r_epik_Charging_Adjusted_Penalty>
0

> <i_epik_Tot_Q>
0

> <i_epik_Tot_abs_Q>
0

> <r_epik_Metal_State_Penalty>
-0

> <b_epik_Metal_Only>
0

> <s_epik_Chemistry_Notes>
This compound contains an acetal/aminal-like group ( X-CH(R)-Y where X, Y are N, S, or O) that may be acid/base labile, releasing an aldehyde.

> <s_lp_Force_Field>
OPLS_2005

> <r_lp_Energy>
62.3675

> <b_lp_Chiralities_Consistent>
1

> <s_lp_Variant>
AV-unprocessed.smi:109-8

> <Gold.Version>
5.8.1

> <Gold.Id.Protein>
6NUR|6NUR_protein|mol2

> <Gold.PLP.Fitness>
46.8649

> <Gold.PLP.PLP>
-38.8189

> <Gold.PLP.part.hbond>
-4.5417

> <Gold.PLP.part.metal>
0.0000

> <Gold.PLP.part.buried>
-8.9377

> <Gold.PLP.part.nonpolar>
-25.8155

> <Gold.PLP.part.repulsive>
0.2985

> <Gold.PLP.ligand.clash>
0.0000

> <Gold.PLP.ligand.torsion>
0.6005

> <Gold.PLP.Chemscore.Hbond>
3.0000

> <Gold.PLP.Chemscore.CHOScore>
0.0000

> <Gold.PLP.Chemscore.Metal>
0.0000

> <Gold.Chemscore.Hbonds>
donor molecule, donor type, donor heavy atom, donor atom, acceptor molecule, acceptor atom, score
      L1  H    19    45       P1 10747  1.00
      L1  H    21    46       P1 10186  0.84
      P1  H  6896  6907       L1     1  0.86
      P1  H 10785 10796       L1    21  0.18

> <Gold.PLP.Chemscore.Internal.Correction>
0.2470

> <Gold.Rescore>
     Score         DG    S(hbond)    S(metal)    S(lipo)     H(rot)  DE(clash)    DE(int)     intcor
     11.02     -11.63       3.19        0.00      81.17       5.47       0.01       0.60       ----

> <Gold.Chemscore.Fitness>
11.0222

> <Gold.Chemscore.DG>
-11.6264

> <Gold.Chemscore.ZeroCoef>
-5.4800

> <Gold.Chemscore.Hbond>
3.1867

> <Gold.Chemscore.Metal>
0.0000

> <Gold.Chemscore.Lipo>
81.1662

> <Gold.Chemscore.Internal_Hbond>
0.0000

> <Gold.Chemscore.DEClash>
0.0086

> <Gold.Chemscore.DEInternal>
0.5956

> <Gold.Chemscore.Rot>
5.4662

> <Gold.Chemscore.Internal.Correction>
   9.000000E+99

> <Gold.Chemscore.Hbonds>
donor molecule, donor type, donor heavy atom, donor atom, acceptor molecule, acceptor atom, score
      L1  H    19    45       P1 10747  0.97
      L1  H    21    46       P1 10186  0.82
      P1  H  6896  6907       L1     1  0.38
      P1  H 10785 10796       L1    21  0.18

> <Gold.Chemscore.Hbond.Weighted>
-10.6435

> <Gold.Chemscore.Metal.Weighted>
-0.0000

> <Gold.Chemscore.Lipo.Weighted>
-9.4964

> <Gold.Chemscore.Internal_Hbond.Weighted>
0.0000

> <Gold.Chemscore.DEClash.Weighted>
0.0086

> <Gold.Chemscore.DEInternal.Weighted>
0.5956

> <Gold.Chemscore.Rot.Weighted>
13.9935

> <Gold.Chemscore.Internal.Correction.Weighted>
   9.000000E+99

> <Gold.Protein.RotatedTorsions>
[ 6907 6896 6895 6894 ] final  -35.28 input  -60.11 | X-H torsion
[ 7974 7965 7964 7962 ] final   94.47 input  175.53 | X-H torsion
[ 8008 7997 7996 7995 ] final -170.61 input   59.86 | X-H torsion
[ 10167 10162 10161 10158 ] final -102.94 input  -65.29 | X-H torsion
[ 10718 10713 10712 10709 ] final   69.02 input   66.30 | X-H torsion
[ 10763 10752 10751 10750 ] final  163.35 input  -60.55 | X-H torsion
[ 11005 11000 10999 10996 ] final -163.44 input  -57.11 | X-H torsion

> <Gold.Protein.ActiveResidues>
 VAL166  LYS551  ARG553  GLY616  TRP617  ASP618  TYR619  PRO620  LYS621  CYS622 
 ASP623  PHE694  ASN695  SER759  ASP760  ASP761  ALA762  ILE779  LEU786  VAL792 
 PHE793  MET794  SER795  GLU796  ALA797  LYS798  CYS799  TRP800  GLU811  SER814 

> <Gold.Protein.RotatedAtoms>
  151.0418  134.9612  159.8165 H   0  0  0  0  0  0  0  0  0  0  0  0  # atno 6907 bound_to 6896
  152.5365  134.2648  159.8959 H   0  0  0  0  0  0  0  0  0  0  0  0  # atno 6908 bound_to 6896
  151.2661  133.4235  159.2652 H   0  0  0  0  0  0  0  0  0  0  0  0  # atno 6909 bound_to 6896
  145.4651  139.2285  143.2966 H   0  0  0  0  0  0  0  0  0  0  0  0  # atno 7974 bound_to 7965
  155.9207  140.1073  157.1209 H   0  0  0  0  0  0  0  0  0  0  0  0  # atno 8008 bound_to 7997
  154.4054  140.1256  156.4740 H   0  0  0  0  0  0  0  0  0  0  0  0  # atno 8009 bound_to 7997
  155.7200  140.3470  155.5014 H   0  0  0  0  0  0  0  0  0  0  0  0  # atno 8010 bound_to 7997
  140.2253  143.3646  152.0934 H   0  0  0  0  0  0  0  0  0  0  0  0  # atno 10167 bound_to 10162
  157.6322  130.9404  150.0456 H   0  0  0  0  0  0  0  0  0  0  0  0  # atno 10718 bound_to 10713
  154.2924  135.2760  155.2648 H   0  0  0  0  0  0  0  0  0  0  0  0  # atno 10763 bound_to 10752
  154.5121  135.5779  153.6617 H   0  0  0  0  0  0  0  0  0  0  0  0  # atno 10764 bound_to 10752
  152.9912  135.6184  154.3090 H   0  0  0  0  0  0  0  0  0  0  0  0  # atno 10765 bound_to 10752
  140.5981  134.4976  157.5202 H   0  0  0  0  0  0  0  0  0  0  0  0  # atno 11005 bound_to 11000
  146.2429  140.5423  142.8926 LP  0  0  0  0  0  0  0  0  0  0  0  0  # atno 17320 bound_to 7965
  144.7979  140.6158  143.6497 LP  0  0  0  0  0  0  0  0  0  0  0  0  # atno 17321 bound_to 7965
  139.5129  144.6924  151.5723 LP  0  0  0  0  0  0  0  0  0  0  0  0  # atno 17342 bound_to 10162
  140.6225  143.9232  150.6537 LP  0  0  0  0  0  0  0  0  0  0  0  0  # atno 17343 bound_to 10162
  156.1534  130.3643  149.9404 LP  0  0  0  0  0  0  0  0  0  0  0  0  # atno 17370 bound_to 10713
  156.7419  130.9083  151.3632 LP  0  0  0  0  0  0  0  0  0  0  0  0  # atno 17371 bound_to 10713
  139.9244  134.8084  156.1112 LP  0  0  0  0  0  0  0  0  0  0  0  0  # atno 17394 bound_to 11000
  141.0890  133.6722  156.2500 LP  0  0  0  0  0  0  0  0  0  0  0  0  # atno 17395 bound_to 11000

$$$$
