AV-unprocessed.smi:2964|AV-procd|sdf|11321|dock3
  -GOLD-   2272016223D 1   1.00000     0.00000
 Structure written by MMmdl.
 35 36  0  0  0  0  0  0  0  0  1 V2000
  150.5465  142.3371  159.1511 O   0  0  0  0  0  0  0  0  0  0  0  0
  151.5572  141.7135  158.8235 C   0  0  0  0  0  0  0  0  0  0  0  0
  151.4633  140.2669  158.3168 C   0  0  0  0  0  0  0  0  0  0  0  0
  150.9285  140.1591  156.9486 N   0  0  0  0  0  0  0  0  0  0  0  0
  149.5665  140.4703  156.7656 C   0  0  0  0  0  0  0  0  0  0  0  0
  148.9556  140.4047  155.5665 C   0  0  0  0  0  0  0  0  0  0  0  0
  147.4908  140.7639  155.3736 C   0  0  0  0  0  0  0  0  0  0  0  0
  146.7194  139.9808  156.1275 F   0  0  0  0  0  0  0  0  0  0  0  0
  147.2797  142.0264  155.7436 F   0  0  0  0  0  0  0  0  0  0  0  0
  147.1099  140.6301  154.1024 F   0  0  0  0  0  0  0  0  0  0  0  0
  149.7789  140.0067  154.4430 C   0  0  0  0  0  0  0  0  0  0  0  0
  151.0821  139.7039  154.6009 C   0  0  0  0  0  0  0  0  0  0  0  0
  151.7300  139.7671  155.9131 C   0  0  0  0  0  0  0  0  0  0  0  0
  152.9184  139.4871  156.0712 O   0  0  0  0  0  0  0  0  0  0  0  0
  152.7899  142.2414  158.8640 N   0  0  0  0  0  0  0  0  0  0  0  0
  153.1073  143.5948  159.3116 C   0  0  0  0  0  0  0  0  0  0  0  0
  152.6961  143.8263  160.7807 C   0  0  0  0  0  0  0  0  0  0  0  0
  151.9258  145.1472  160.8011 C   0  0  0  0  0  0  0  0  0  0  0  0
  151.2806  145.2265  159.4216 C   0  0  0  0  0  0  0  0  0  0  0  0
  152.3332  144.6360  158.4824 C   0  0  0  0  0  0  0  0  0  0  0  0
  152.4574  139.8218  158.3748 H   0  0  0  0  0  0  0  0  0  0  0  0
  150.8505  139.6834  159.0067 H   0  0  0  0  0  0  0  0  0  0  0  0
  149.0501  140.7609  157.6690 H   0  0  0  0  0  0  0  0  0  0  0  0
  149.3384  139.9472  153.4585 H   0  0  0  0  0  0  0  0  0  0  0  0
  151.6646  139.4074  153.7410 H   0  0  0  0  0  0  0  0  0  0  0  0
  153.5648  141.6636  158.5720 H   0  0  0  0  0  0  0  0  0  0  0  0
  154.1773  143.7725  159.1879 H   0  0  0  0  0  0  0  0  0  0  0  0
  152.0374  143.0276  161.1261 H   0  0  0  0  0  0  0  0  0  0  0  0
  153.5567  143.8451  161.4502 H   0  0  0  0  0  0  0  0  0  0  0  0
  151.1968  145.1959  161.6103 H   0  0  0  0  0  0  0  0  0  0  0  0
  152.6221  145.9771  160.9287 H   0  0  0  0  0  0  0  0  0  0  0  0
  150.3805  144.6103  159.4018 H   0  0  0  0  0  0  0  0  0  0  0  0
  150.9959  146.2427  159.1480 H   0  0  0  0  0  0  0  0  0  0  0  0
  153.0173  145.4262  158.1701 H   0  0  0  0  0  0  0  0  0  0  0  0
  151.8871  144.2246  157.5759 H   0  0  0  0  0  0  0  0  0  0  0  0
  1  2  2  0  0  0  0
  2  3  1  0  0  0  0
  2 15  1  0  0  0  0
  3  4  1  0  0  0  0
  3 21  1  0  0  0  0
  3 22  1  0  0  0  0
  4 13  1  0  0  0  0
  4  5  1  0  0  0  0
  5  6  2  0  0  0  0
  5 23  1  0  0  0  0
  6  7  1  0  0  0  0
  6 11  1  0  0  0  0
  7  8  1  0  0  0  0
  7  9  1  0  0  0  0
  7 10  1  0  0  0  0
 11 12  2  0  0  0  0
 11 24  1  0  0  0  0
 12 13  1  0  0  0  0
 12 25  1  0  0  0  0
 13 14  2  0  0  0  0
 15 16  1  0  0  0  0
 15 26  1  0  0  0  0
 16 20  1  0  0  0  0
 16 17  1  0  0  0  0
 16 27  1  0  0  0  0
 17 18  1  0  0  0  0
 17 28  1  0  0  0  0
 17 29  1  0  0  0  0
 18 19  1  0  0  0  0
 18 30  1  0  0  0  0
 18 31  1  0  0  0  0
 19 20  1  0  0  0  0
 19 32  1  0  0  0  0
 19 33  1  0  0  0  0
 20 34  1  0  0  0  0
 20 35  1  0  0  0  0
M  END
> <s_m_source_file>
AV-unprocessed.smi

> <i_m_source_file_index>
2964

> <i_lp_mmshare_version>
43012

> <i_f3d_flags>
0

> <s_epik_input>
W0NIMl0xW0NIMl1bQ0gyXVtDSDJdW0NIXTFbTkhdQyg9TylbQ0gyXW4yW2NIXWMoQyhGKShGKUYpW2NIXVtjSF1jMj1P

> <s_epik_cmdline>
J2VwaWtfcHl0aG9uJywgJy1waCcsICc3LjAnLCAnLXRuJywgJzgnLCAnLW1hJywgJzIwMCcsICctbWV0YWxfYmluZGluZycsICctaW1hZScsICc8aW5maWxlLm1hZT4nLCAnLW9tYWUnLCAnPG91dGZpbGUubWFlPic=

> <r_lp_tautomer_probability>
1

> <r_epik_Ionization_Penalty>
3.84201e-08

> <r_epik_Ionization_Penalty_Charging>
1.91184e-08

> <r_epik_Ionization_Penalty_Neutral>
1.93017e-08

> <r_epik_State_Penalty>
-0

> <r_epik_Charging_Adjusted_Penalty>
1.91184e-08

> <i_epik_Tot_Q>
0

> <i_epik_Tot_abs_Q>
0

> <r_epik_Metal_State_Penalty>
-0

> <b_epik_Metal_Only>
0

> <s_lp_Force_Field>
OPLS_2005

> <r_lp_Energy>
29.7678

> <b_lp_Chiralities_Consistent>
1

> <s_lp_Variant>
AV-unprocessed.smi:2964-1

> <Gold.Version>
5.8.1

> <Gold.Id.Protein>
6NUR|6NUR_protein|mol2

> <Gold.PLP.Fitness>
45.3256

> <Gold.PLP.PLP>
-42.8366

> <Gold.PLP.part.hbond>
-1.2506

> <Gold.PLP.part.metal>
0.0000

> <Gold.PLP.part.buried>
-1.9980

> <Gold.PLP.part.nonpolar>
-38.9910

> <Gold.PLP.part.repulsive>
0.1375

> <Gold.PLP.ligand.clash>
0.0000

> <Gold.PLP.ligand.torsion>
0.2633

> <Gold.PLP.Chemscore.Hbond>
1.0000

> <Gold.PLP.Chemscore.CHOScore>
0.0000

> <Gold.PLP.Chemscore.Metal>
0.0000

> <Gold.Chemscore.Hbonds>
donor molecule, donor type, donor heavy atom, donor atom, acceptor molecule, acceptor atom, score
      P1  H  7997  8010       L1    14  1.00

> <Gold.PLP.Chemscore.Internal.Correction>
0.0157

> <Gold.Rescore>
     Score         DG    S(hbond)    S(metal)    S(lipo)     H(rot)  DE(clash)    DE(int)     intcor
     13.01     -16.26       1.00        0.00      97.66       1.56       0.08       3.16       ----

> <Gold.Chemscore.Fitness>
13.0108

> <Gold.Chemscore.DG>
-16.2602

> <Gold.Chemscore.ZeroCoef>
-5.4800

> <Gold.Chemscore.Hbond>
0.9997

> <Gold.Chemscore.Metal>
0.0000

> <Gold.Chemscore.Lipo>
97.6637

> <Gold.Chemscore.Internal_Hbond>
0.0000

> <Gold.Chemscore.DEClash>
0.0845

> <Gold.Chemscore.DEInternal>
3.1649

> <Gold.Chemscore.Rot>
1.5568

> <Gold.Chemscore.Internal.Correction>
   9.000000E+99

> <Gold.Chemscore.Hbonds>
donor molecule, donor type, donor heavy atom, donor atom, acceptor molecule, acceptor atom, score
      P1  H  7997  8010       L1    14  0.97

> <Gold.Chemscore.Hbond.Weighted>
-3.3390

> <Gold.Chemscore.Metal.Weighted>
-0.0000

> <Gold.Chemscore.Lipo.Weighted>
-11.4267

> <Gold.Chemscore.Internal_Hbond.Weighted>
0.0000

> <Gold.Chemscore.DEClash.Weighted>
0.0845

> <Gold.Chemscore.DEInternal.Weighted>
3.1649

> <Gold.Chemscore.Rot.Weighted>
3.9854

> <Gold.Chemscore.Internal.Correction.Weighted>
   9.000000E+99

> <Gold.Protein.RotatedTorsions>
[ 6907 6896 6895 6894 ] final  -34.83 input  -60.11 | X-H torsion
[ 7974 7965 7964 7962 ] final  112.28 input  175.53 | X-H torsion
[ 8008 7997 7996 7995 ] final   85.38 input   59.86 | X-H torsion
[ 10167 10162 10161 10158 ] final   16.51 input  -65.29 | X-H torsion
[ 10718 10713 10712 10709 ] final  159.81 input   66.30 | X-H torsion
[ 10763 10752 10751 10750 ] final  -23.13 input  -60.55 | X-H torsion
[ 11005 11000 10999 10996 ] final   -4.30 input  -57.11 | X-H torsion

> <Gold.Protein.ActiveResidues>
 VAL166  LYS551  ARG553  GLY616  TRP617  ASP618  TYR619  PRO620  LYS621  CYS622 
 ASP623  PHE694  ASN695  SER759  ASP760  ASP761  ALA762  ILE779  LEU786  VAL792 
 PHE793  MET794  SER795  GLU796  ALA797  LYS798  CYS799  TRP800  GLU811  SER814 

> <Gold.Protein.RotatedAtoms>
  151.0475  134.9650  159.8194 H   0  0  0  0  0  0  0  0  0  0  0  0  # atno 6907 bound_to 6896
  152.5375  134.2579  159.8934 H   0  0  0  0  0  0  0  0  0  0  0  0  # atno 6908 bound_to 6896
  151.2593  133.4267  159.2649 H   0  0  0  0  0  0  0  0  0  0  0  0  # atno 6909 bound_to 6896
  145.2316  139.2817  143.4165 H   0  0  0  0  0  0  0  0  0  0  0  0  # atno 7974 bound_to 7965
  155.9493  140.3402  155.6394 H   0  0  0  0  0  0  0  0  0  0  0  0  # atno 8008 bound_to 7997
  155.6941  140.0752  157.2455 H   0  0  0  0  0  0  0  0  0  0  0  0  # atno 8009 bound_to 7997
  154.4118  140.1652  156.2106 H   0  0  0  0  0  0  0  0  0  0  0  0  # atno 8010 bound_to 7997
  140.5792  143.9013  150.6776 H   0  0  0  0  0  0  0  0  0  0  0  0  # atno 10167 bound_to 10162
  157.1591  131.0583  151.2241 H   0  0  0  0  0  0  0  0  0  0  0  0  # atno 10718 bound_to 10713
  153.6629  135.6975  153.5171 H   0  0  0  0  0  0  0  0  0  0  0  0  # atno 10763 bound_to 10752
  153.2617  135.4242  155.0900 H   0  0  0  0  0  0  0  0  0  0  0  0  # atno 10764 bound_to 10752
  154.8447  135.3556  154.6174 H   0  0  0  0  0  0  0  0  0  0  0  0  # atno 10765 bound_to 10752
  140.6787  133.9172  155.8541 H   0  0  0  0  0  0  0  0  0  0  0  0  # atno 11005 bound_to 11000
  146.3351  140.2652  142.8603 LP  0  0  0  0  0  0  0  0  0  0  0  0  # atno 17320 bound_to 7965
  144.9671  140.8333  143.5478 LP  0  0  0  0  0  0  0  0  0  0  0  0  # atno 17321 bound_to 7965
  140.2508  143.3595  152.1407 LP  0  0  0  0  0  0  0  0  0  0  0  0  # atno 17342 bound_to 10162
  139.5160  144.6971  151.5599 LP  0  0  0  0  0  0  0  0  0  0  0  0  # atno 17343 bound_to 10162
  157.4149  130.7405  149.6868 LP  0  0  0  0  0  0  0  0  0  0  0  0  # atno 17370 bound_to 10713
  155.9757  130.4085  150.3832 LP  0  0  0  0  0  0  0  0  0  0  0  0  # atno 17371 bound_to 10713
  141.0334  134.0723  157.3987 LP  0  0  0  0  0  0  0  0  0  0  0  0  # atno 17394 bound_to 11000
  139.8958  135.0143  156.7022 LP  0  0  0  0  0  0  0  0  0  0  0  0  # atno 17395 bound_to 11000

$$$$
