AV-unprocessed.smi:3191|AV-procd|sdf|12197|dock6
  -GOLD-   2272018 33D 1   1.00000     0.00000
 Structure written by MMmdl.
 36 37  0  0  0  0  0  0  0  0  2 V2000
  146.6951  141.9621  153.9247 C   0  0  0  0  0  0  0  0  0  0  0  0
  147.4998  140.7531  153.7343 N   0  0  0  0  0  0  0  0  0  0  0  0
  147.1056  139.7542  152.9347 C   0  0  0  0  0  0  0  0  0  0  0  0
  148.0578  138.8205  152.9850 N   0  3  0  0  0  0  0  0  0  0  0  0
  149.0650  139.2226  153.8183 C   0  0  0  0  0  0  0  0  0  0  0  0
  148.7183  140.4612  154.3041 C   0  0  0  0  0  0  0  0  0  0  0  0
  149.4134  141.3965  155.2457 C   0  0  0  0  0  0  0  0  0  0  0  0
  148.6032  141.6724  156.5254 C   0  0  0  0  0  0  0  0  0  0  0  0
  149.2674  142.6502  157.3792 N   0  0  0  0  0  0  0  0  0  0  0  0
  150.5341  142.5609  157.8133 C   0  0  0  0  0  0  0  0  0  0  0  0
  151.2726  141.6200  157.5196 O   0  0  0  0  0  0  0  0  0  0  0  0
  150.9588  143.7141  158.6696 C   0  0  2  0  0  0  0  0  0  0  0  0
  152.2073  144.4729  158.2690 C   0  0  0  0  0  0  0  0  0  0  0  0
  152.2237  143.6246  159.5211 C   0  0  0  0  0  0  0  0  0  0  0  0
  152.2119  144.2979  160.8823 C   0  0  0  0  0  0  0  0  0  0  0  0
  153.1046  142.3822  159.5705 C   0  0  0  0  0  0  0  0  0  0  0  0
  150.1454  144.3027  159.0919 H   0  0  0  0  0  0  0  0  0  0  0  0
  145.7565  141.8817  153.3746 H   0  0  0  0  0  0  0  0  0  0  0  0
  147.2549  142.8238  153.5605 H   0  0  0  0  0  0  0  0  0  0  0  0
  146.4814  142.0868  154.9864 H   0  0  0  0  0  0  0  0  0  0  0  0
  146.1976  139.7092  152.3598 H   0  0  0  0  0  0  0  0  0  0  0  0
  149.9369  138.6110  153.9996 H   0  0  0  0  0  0  0  0  0  0  0  0
  150.3834  140.9688  155.5015 H   0  0  0  0  0  0  0  0  0  0  0  0
  149.6103  142.3337  154.7237 H   0  0  0  0  0  0  0  0  0  0  0  0
  147.6191  142.0653  156.2686 H   0  0  0  0  0  0  0  0  0  0  0  0
  148.4367  140.7492  157.0833 H   0  0  0  0  0  0  0  0  0  0  0  0
  148.7245  143.4529  157.6644 H   0  0  0  0  0  0  0  0  0  0  0  0
  152.7796  144.1211  157.4124 H   0  0  0  0  0  0  0  0  0  0  0  0
  152.1813  145.5548  158.3823 H   0  0  0  0  0  0  0  0  0  0  0  0
  153.2202  144.6001  161.1668 H   0  0  0  0  0  0  0  0  0  0  0  0
  151.8248  143.6155  161.6395 H   0  0  0  0  0  0  0  0  0  0  0  0
  151.5819  145.1877  160.8692 H   0  0  0  0  0  0  0  0  0  0  0  0
  154.0588  142.6108  160.0459 H   0  0  0  0  0  0  0  0  0  0  0  0
  153.3232  142.0034  158.5729 H   0  0  0  0  0  0  0  0  0  0  0  0
  152.6140  141.5943  160.1426 H   0  0  0  0  0  0  0  0  0  0  0  0
  148.0356  137.9445  152.4778 H   0  0  0  0  0  0  0  0  0  0  0  0
  1  2  1  0  0  0  0
  1 18  1  0  0  0  0
  1 19  1  0  0  0  0
  1 20  1  0  0  0  0
  2  6  1  0  0  0  0
  2  3  1  0  0  0  0
  3  4  2  0  0  0  0
  3 21  1  0  0  0  0
  4  5  1  0  0  0  0
  4 36  1  0  0  0  0
  5  6  2  0  0  0  0
  5 22  1  0  0  0  0
  6  7  1  0  0  0  0
  7  8  1  0  0  0  0
  7 23  1  0  0  0  0
  7 24  1  0  0  0  0
  8  9  1  0  0  0  0
  8 25  1  0  0  0  0
  8 26  1  0  0  0  0
  9 10  1  0  0  0  0
  9 27  1  0  0  0  0
 10 11  2  0  0  0  0
 10 12  1  0  0  0  0
 12 17  1  0  0  0  0
 12 14  1  0  0  0  0
 12 13  1  0  0  0  0
 13 14  1  0  0  0  0
 13 28  1  0  0  0  0
 13 29  1  0  0  0  0
 14 15  1  0  0  0  0
 14 16  1  0  0  0  0
 15 30  1  0  0  0  0
 15 31  1  0  0  0  0
 15 32  1  0  0  0  0
 16 33  1  0  0  0  0
 16 34  1  0  0  0  0
 16 35  1  0  0  0  0
M  CHG  1   4   1
M  END
> <s_m_source_file>
AV-unprocessed.smi

> <i_m_source_file_index>
3191

> <i_lp_mmshare_version>
43012

> <i_f3d_flags>
0

> <s_epik_input>
W0NIM11uMVtjSF1uW2NIXWMxW0NIMl1bQ0gyXVtOSF1DKD1PKVtDQEBIXShbQ0gyXTIpQzIoW0NIM10pW0NIM10=

> <s_epik_cmdline>
J2VwaWtfcHl0aG9uJywgJy1waCcsICc3LjAnLCAnLXRuJywgJzgnLCAnLW1hJywgJzIwMCcsICctbWV0YWxfYmluZGluZycsICctaW1hZScsICc8aW5maWxlLm1hZT4nLCAnLW9tYWUnLCAnPG91dGZpbGUubWFlPic=

> <r_lp_tautomer_probability>
1

> <r_epik_Ionization_Penalty>
0.153817

> <r_epik_Ionization_Penalty_Charging>
0

> <r_epik_Ionization_Penalty_Neutral>
0.153817

> <r_epik_State_Penalty>
0.14311

> <r_epik_Charging_Adjusted_Penalty>
0.14311

> <i_epik_Tot_Q>
1

> <i_epik_Tot_abs_Q>
1

> <r_epik_Metal_State_Penalty>
0.464688

> <b_epik_Metal_Only>
0

> <s_lp_Force_Field>
OPLS_2005

> <r_lp_Energy>
13.3662

> <b_lp_Chiralities_Consistent>
1

> <s_lp_Variant>
AV-unprocessed.smi:3191-2

> <Gold.Version>
5.8.1

> <Gold.Id.Protein>
6NUR|6NUR_protein|mol2

> <Gold.PLP.Fitness>
47.3088

> <Gold.PLP.PLP>
-39.3932

> <Gold.PLP.part.hbond>
-3.0000

> <Gold.PLP.part.metal>
0.0000

> <Gold.PLP.part.buried>
-1.5990

> <Gold.PLP.part.nonpolar>
-35.4358

> <Gold.PLP.part.repulsive>
0.1184

> <Gold.PLP.ligand.clash>
0.0000

> <Gold.PLP.ligand.torsion>
0.2545

> <Gold.PLP.Chemscore.Hbond>
1.9869

> <Gold.PLP.Chemscore.CHOScore>
0.7898

> <Gold.PLP.Chemscore.Metal>
0.0000

> <Gold.Chemscore.Hbonds>
donor molecule, donor type, donor heavy atom, donor atom, acceptor molecule, acceptor atom, score
      L1  H     4    36       P1  7948  2.00
      L1  C     3    21       P1 10175  0.77

> <Gold.PLP.Chemscore.Internal.Correction>
0.0944

> <Gold.Rescore>
     Score         DG    S(hbond)    S(metal)    S(lipo)     H(rot)  DE(clash)    DE(int)     intcor
     12.42     -15.10       1.00        0.00      92.23       1.76       0.06       2.61       ----

> <Gold.Chemscore.Fitness>
12.4240

> <Gold.Chemscore.DG>
-15.1011

> <Gold.Chemscore.ZeroCoef>
-5.4800

> <Gold.Chemscore.Hbond>
0.9957

> <Gold.Chemscore.Metal>
0.0000

> <Gold.Chemscore.Lipo>
92.2302

> <Gold.Chemscore.Internal_Hbond>
0.0000

> <Gold.Chemscore.DEClash>
0.0632

> <Gold.Chemscore.DEInternal>
2.6138

> <Gold.Chemscore.Rot>
1.7561

> <Gold.Chemscore.Internal.Correction>
   9.000000E+99

> <Gold.Chemscore.Hbonds>
donor molecule, donor type, donor heavy atom, donor atom, acceptor molecule, acceptor atom, score
      L1  H     4    36       P1  7948  0.89

> <Gold.Chemscore.Hbond.Weighted>
-3.3257

> <Gold.Chemscore.Metal.Weighted>
-0.0000

> <Gold.Chemscore.Lipo.Weighted>
-10.7909

> <Gold.Chemscore.Internal_Hbond.Weighted>
0.0000

> <Gold.Chemscore.DEClash.Weighted>
0.0632

> <Gold.Chemscore.DEInternal.Weighted>
2.6138

> <Gold.Chemscore.Rot.Weighted>
4.4956

> <Gold.Chemscore.Internal.Correction.Weighted>
   9.000000E+99

> <Gold.Protein.RotatedTorsions>
[ 6907 6896 6895 6894 ] final -171.22 input  -60.11 | X-H torsion
[ 7974 7965 7964 7962 ] final  105.35 input  175.53 | X-H torsion
[ 8008 7997 7996 7995 ] final  -11.10 input   59.86 | X-H torsion
[ 10167 10162 10161 10158 ] final  146.08 input  -65.29 | X-H torsion
[ 10718 10713 10712 10709 ] final   47.13 input   66.30 | X-H torsion
[ 10763 10752 10751 10750 ] final -153.17 input  -60.55 | X-H torsion
[ 11005 11000 10999 10996 ] final   79.78 input  -57.11 | X-H torsion

> <Gold.Protein.ActiveResidues>
 VAL166  LYS551  ARG553  GLY616  TRP617  ASP618  TYR619  PRO620  LYS621  CYS622 
 ASP623  PHE694  ASN695  SER759  ASP760  ASP761  ALA762  ILE779  LEU786  VAL792 
 PHE793  MET794  SER795  GLU796  ALA797  LYS798  CYS799  TRP800  GLU811  SER814 

> <Gold.Protein.RotatedAtoms>
  151.5203  133.3468  159.2899 H   0  0  0  0  0  0  0  0  0  0  0  0  # atno 6907 bound_to 6896
  150.8657  134.8022  159.7127 H   0  0  0  0  0  0  0  0  0  0  0  0  # atno 6908 bound_to 6896
  152.4662  134.5079  159.9796 H   0  0  0  0  0  0  0  0  0  0  0  0  # atno 6909 bound_to 6896
  145.3208  139.2513  143.3713 H   0  0  0  0  0  0  0  0  0  0  0  0  # atno 7974 bound_to 7965
  154.5495  140.2311  155.8508 H   0  0  0  0  0  0  0  0  0  0  0  0  # atno 8008 bound_to 7997
  156.1934  140.3071  155.9338 H   0  0  0  0  0  0  0  0  0  0  0  0  # atno 8009 bound_to 7997
  155.3098  140.0435  157.3025 H   0  0  0  0  0  0  0  0  0  0  0  0  # atno 8010 bound_to 7997
  139.4914  144.5855  151.6786 H   0  0  0  0  0  0  0  0  0  0  0  0  # atno 10167 bound_to 10162
  157.4553  130.8163  149.7830 H   0  0  0  0  0  0  0  0  0  0  0  0  # atno 10718 bound_to 10713
  154.7946  135.3219  154.7698 H   0  0  0  0  0  0  0  0  0  0  0  0  # atno 10763 bound_to 10752
  153.8379  135.6873  153.4811 H   0  0  0  0  0  0  0  0  0  0  0  0  # atno 10764 bound_to 10752
  153.1631  135.4653  154.9741 H   0  0  0  0  0  0  0  0  0  0  0  0  # atno 10765 bound_to 10752
  139.9159  134.7870  156.1824 H   0  0  0  0  0  0  0  0  0  0  0  0  # atno 11005 bound_to 11000
  146.3083  140.3765  142.8679 LP  0  0  0  0  0  0  0  0  0  0  0  0  # atno 17320 bound_to 7965
  144.8941  140.7560  143.5908 LP  0  0  0  0  0  0  0  0  0  0  0  0  # atno 17321 bound_to 7965
  140.5471  144.0486  150.6111 LP  0  0  0  0  0  0  0  0  0  0  0  0  # atno 17342 bound_to 10162
  140.3527  143.2953  152.0469 LP  0  0  0  0  0  0  0  0  0  0  0  0  # atno 17343 bound_to 10162
  156.0005  130.3883  150.2626 LP  0  0  0  0  0  0  0  0  0  0  0  0  # atno 17370 bound_to 10713
  157.0800  131.0141  151.3160 LP  0  0  0  0  0  0  0  0  0  0  0  0  # atno 17371 bound_to 10713
  141.0634  133.6831  156.1997 LP  0  0  0  0  0  0  0  0  0  0  0  0  # atno 17394 bound_to 11000
  140.6624  134.4954  157.5584 LP  0  0  0  0  0  0  0  0  0  0  0  0  # atno 17395 bound_to 11000

$$$$
