AV-unprocessed.smi:3187|AV-procd|sdf|12181|dock1
  -GOLD-   2272018 23D 1   1.00000     0.00000
 Structure written by MMmdl.
 42 43  0  0  0  0  0  0  0  0  3 V2000
  151.9620  139.5545  158.6666 C   0  0  0  0  0  0  0  0  0  0  0  0
  152.2470  140.9487  159.2001 C   0  0  0  0  0  0  0  0  0  0  0  0
  152.8777  141.0960  160.3810 C   0  0  0  0  0  0  0  0  0  0  0  0
  153.2788  142.4272  160.9730 C   0  0  0  0  0  0  0  0  0  0  0  0
  153.3503  143.5091  159.8930 C   0  0  0  0  0  0  0  0  0  0  0  0
  152.0786  143.5246  159.0290 C   0  0  1  0  0  0  0  0  0  0  0  0
  152.1590  144.6882  158.0219 C   0  0  0  0  0  0  0  0  0  0  0  0
  151.8141  142.1516  158.3363 C   0  0  2  0  0  0  0  0  0  0  0  0
  150.3333  142.0617  157.8808 C   0  0  0  0  0  0  0  0  0  0  0  0
  150.1687  142.2014  156.4188 N   0  3  0  0  0  0  0  0  0  0  0  0
  150.0566  140.9167  155.7005 C   0  0  0  0  0  0  0  0  0  0  0  0
  149.5264  141.1238  154.2748 C   0  0  0  0  0  0  0  0  0  0  0  0
  148.0695  141.2770  154.2525 N   0  0  0  0  0  0  0  0  0  0  0  0
  147.3043  142.0682  155.0709 C   0  0  0  0  0  0  0  0  0  0  0  0
  146.0015  141.8869  154.6831 C   0  0  0  0  0  0  0  0  0  0  0  0
  146.0263  140.9943  153.6453 N   0  3  0  0  0  0  0  0  0  0  0  0
  147.2846  140.6244  153.3849 C   0  0  0  0  0  0  0  0  0  0  0  0
  152.3221  139.4561  157.6423 H   0  0  0  0  0  0  0  0  0  0  0  0
  150.8946  139.3372  158.6918 H   0  0  0  0  0  0  0  0  0  0  0  0
  152.4612  138.7919  159.2653 H   0  0  0  0  0  0  0  0  0  0  0  0
  153.1426  140.2256  160.9636 H   0  0  0  0  0  0  0  0  0  0  0  0
  152.5597  142.6970  161.7470 H   0  0  0  0  0  0  0  0  0  0  0  0
  154.2502  142.3262  161.4578 H   0  0  0  0  0  0  0  0  0  0  0  0
  153.5043  144.4802  160.3652 H   0  0  0  0  0  0  0  0  0  0  0  0
  154.2207  143.3341  159.2587 H   0  0  0  0  0  0  0  0  0  0  0  0
  151.2449  143.7286  159.7033 H   0  0  0  0  0  0  0  0  0  0  0  0
  152.9700  144.5380  157.3086 H   0  0  0  0  0  0  0  0  0  0  0  0
  152.3448  145.6333  158.5335 H   0  0  0  0  0  0  0  0  0  0  0  0
  151.2385  144.8140  157.4541 H   0  0  0  0  0  0  0  0  0  0  0  0
  152.4477  142.1127  157.4490 H   0  0  0  0  0  0  0  0  0  0  0  0
  149.9044  141.1138  158.2097 H   0  0  0  0  0  0  0  0  0  0  0  0
  149.7326  142.8438  158.3419 H   0  0  0  0  0  0  0  0  0  0  0  0
  149.3382  142.7484  156.2413 H   0  0  0  0  0  0  0  0  0  0  0  0
  151.0370  140.4389  155.6681 H   0  0  0  0  0  0  0  0  0  0  0  0
  149.3912  140.2528  156.2544 H   0  0  0  0  0  0  0  0  0  0  0  0
  149.9617  142.0183  153.8267 H   0  0  0  0  0  0  0  0  0  0  0  0
  149.7925  140.2811  153.6346 H   0  0  0  0  0  0  0  0  0  0  0  0
  147.7302  142.6860  155.8483 H   0  0  0  0  0  0  0  0  0  0  0  0
  145.0828  142.3153  155.0576 H   0  0  0  0  0  0  0  0  0  0  0  0
  147.6010  139.9348  152.6225 H   0  0  0  0  0  0  0  0  0  0  0  0
  150.9680  142.7031  156.0581 H   0  0  0  0  0  0  0  0  0  0  0  0
  145.2114  140.6622  153.1442 H   0  0  0  0  0  0  0  0  0  0  0  0
  1  2  1  0  0  0  0
  1 18  1  0  0  0  0
  1 19  1  0  0  0  0
  1 20  1  0  0  0  0
  2  8  1  0  0  0  0
  2  3  2  0  0  0  0
  3  4  1  0  0  0  0
  3 21  1  0  0  0  0
  4  5  1  0  0  0  0
  4 22  1  0  0  0  0
  4 23  1  0  0  0  0
  5  6  1  0  0  0  0
  5 24  1  0  0  0  0
  5 25  1  0  0  0  0
  6  7  1  0  0  0  0
  6  8  1  0  0  0  0
  6 26  1  0  0  0  0
  7 27  1  0  0  0  0
  7 28  1  0  0  0  0
  7 29  1  0  0  0  0
  8  9  1  0  0  0  0
  8 30  1  0  0  0  0
  9 10  1  0  0  0  0
  9 31  1  0  0  0  0
  9 32  1  0  0  0  0
 10 11  1  0  0  0  0
 10 33  1  0  0  0  0
 10 41  1  0  0  0  0
 11 12  1  0  0  0  0
 11 34  1  0  0  0  0
 11 35  1  0  0  0  0
 12 13  1  0  0  0  0
 12 36  1  0  0  0  0
 12 37  1  0  0  0  0
 13 17  1  0  0  0  0
 13 14  1  0  0  0  0
 14 15  2  0  0  0  0
 14 38  1  0  0  0  0
 15 16  1  0  0  0  0
 15 39  1  0  0  0  0
 16 17  2  0  0  0  0
 16 42  1  0  0  0  0
 17 40  1  0  0  0  0
M  CHG  1  10   1
M  CHG  1  16   1
M  END
> <s_m_source_file>
AV-unprocessed.smi

> <i_m_source_file_index>
3187

> <i_lp_mmshare_version>
43012

> <i_f3d_flags>
0

> <s_epik_input>
W0NIM11DMT1bQ0hdW0NIMl1bQ0gyXVtDQEBIXShbQ0gzXSlbQ0BIXTFbQ0gyXVtOSF1bQ0gyXVtDSDJdbjJbY0hdW2NIXW5bY0hdMg==

> <s_epik_cmdline>
J2VwaWtfcHl0aG9uJywgJy1waCcsICc3LjAnLCAnLXRuJywgJzgnLCAnLW1hJywgJzIwMCcsICctbWV0YWxfYmluZGluZycsICctaW1hZScsICc8aW5maWxlLm1hZT4nLCAnLW9tYWUnLCAnPG91dGZpbGUubWFlPic=

> <r_lp_tautomer_probability>
1

> <r_epik_Ionization_Penalty>
1.51066

> <r_epik_Ionization_Penalty_Charging>
0.0026721

> <r_epik_Ionization_Penalty_Neutral>
1.50798

> <r_epik_State_Penalty>
1.12593

> <r_epik_Charging_Adjusted_Penalty>
1.12861

> <i_epik_Tot_Q>
2

> <i_epik_Tot_abs_Q>
2

> <r_epik_Metal_State_Penalty>
5.12155

> <b_epik_Metal_Only>
0

> <s_lp_Force_Field>
OPLS_2005

> <r_lp_Energy>
24.2978

> <b_lp_Chiralities_Consistent>
1

> <s_lp_Variant>
AV-unprocessed.smi:3187-7

> <Gold.Version>
5.8.1

> <Gold.Id.Protein>
6NUR|6NUR_protein|mol2

> <Gold.PLP.Fitness>
53.3959

> <Gold.PLP.PLP>
-38.6565

> <Gold.PLP.part.hbond>
-2.0000

> <Gold.PLP.part.metal>
0.0000

> <Gold.PLP.part.buried>
0.3134

> <Gold.PLP.part.nonpolar>
-35.9106

> <Gold.PLP.part.repulsive>
0.0853

> <Gold.PLP.ligand.clash>
0.0000

> <Gold.PLP.ligand.torsion>
1.2601

> <Gold.PLP.Chemscore.Hbond>
3.6960

> <Gold.PLP.Chemscore.CHOScore>
1.9638

> <Gold.PLP.Chemscore.Metal>
0.0000

> <Gold.Chemscore.Hbonds>
donor molecule, donor type, donor heavy atom, donor atom, acceptor molecule, acceptor atom, score
      L1  H    10    33       P1  8028  1.22
      L1  H    16    42       P1 10175  2.00
      L1  C    14    38       P1  8028  0.98
      L1  C    17    40       P1  7957  0.99

> <Gold.PLP.Chemscore.Internal.Correction>
0.2802

> <Gold.Rescore>
     Score         DG    S(hbond)    S(metal)    S(lipo)     H(rot)  DE(clash)    DE(int)     intcor
     17.55     -18.95       1.65        0.00     111.06       1.97       0.18       1.22       ----

> <Gold.Chemscore.Fitness>
17.5469

> <Gold.Chemscore.DG>
-18.9493

> <Gold.Chemscore.ZeroCoef>
-5.4800

> <Gold.Chemscore.Hbond>
1.6546

> <Gold.Chemscore.Metal>
0.0000

> <Gold.Chemscore.Lipo>
111.0618

> <Gold.Chemscore.Internal_Hbond>
0.0000

> <Gold.Chemscore.DEClash>
0.1825

> <Gold.Chemscore.DEInternal>
1.2200

> <Gold.Chemscore.Rot>
1.9732

> <Gold.Chemscore.Internal.Correction>
   9.000000E+99

> <Gold.Chemscore.Hbonds>
donor molecule, donor type, donor heavy atom, donor atom, acceptor molecule, acceptor atom, score
      L1  H    10    33       P1  8028  0.59
      L1  H    16    42       P1 10175  0.82

> <Gold.Chemscore.Hbond.Weighted>
-5.5265

> <Gold.Chemscore.Metal.Weighted>
-0.0000

> <Gold.Chemscore.Lipo.Weighted>
-12.9942

> <Gold.Chemscore.Internal_Hbond.Weighted>
0.0000

> <Gold.Chemscore.DEClash.Weighted>
0.1825

> <Gold.Chemscore.DEInternal.Weighted>
1.2200

> <Gold.Chemscore.Rot.Weighted>
5.0514

> <Gold.Chemscore.Internal.Correction.Weighted>
   9.000000E+99

> <Gold.Protein.RotatedTorsions>
[ 6907 6896 6895 6894 ] final   -2.86 input  -60.11 | X-H torsion
[ 7974 7965 7964 7962 ] final  -51.49 input  175.53 | X-H torsion
[ 8008 7997 7996 7995 ] final   48.01 input   59.86 | X-H torsion
[ 10167 10162 10161 10158 ] final  -24.74 input  -65.29 | X-H torsion
[ 10718 10713 10712 10709 ] final   57.00 input   66.30 | X-H torsion
[ 10763 10752 10751 10750 ] final   35.60 input  -60.55 | X-H torsion
[ 11005 11000 10999 10996 ] final   34.96 input  -57.11 | X-H torsion

> <Gold.Protein.ActiveResidues>
 VAL166  LYS551  ARG553  GLY616  TRP617  ASP618  TYR619  PRO620  LYS621  CYS622 
 ASP623  PHE694  ASN695  SER759  ASP760  ASP761  ALA762  ILE779  LEU786  VAL792 
 PHE793  MET794  SER795  GLU796  ALA797  LYS798  CYS799  TRP800  GLU811  SER814 

> <Gold.Protein.RotatedAtoms>
  151.5231  135.1067  159.9883 H   0  0  0  0  0  0  0  0  0  0  0  0  # atno 6907 bound_to 6896
  152.4612  133.7821  159.6867 H   0  0  0  0  0  0  0  0  0  0  0  0  # atno 6908 bound_to 6896
  150.8575  133.7629  159.3029 H   0  0  0  0  0  0  0  0  0  0  0  0  # atno 6909 bound_to 6896
  145.9184  140.7855  142.9660 H   0  0  0  0  0  0  0  0  0  0  0  0  # atno 7974 bound_to 7965
  155.3785  140.3427  155.4246 H   0  0  0  0  0  0  0  0  0  0  0  0  # atno 8008 bound_to 7997
  156.1623  140.1605  156.8624 H   0  0  0  0  0  0  0  0  0  0  0  0  # atno 8009 bound_to 7997
  154.5152  140.0780  156.8048 H   0  0  0  0  0  0  0  0  0  0  0  0  # atno 8010 bound_to 7997
  140.7288  143.4326  151.0779 H   0  0  0  0  0  0  0  0  0  0  0  0  # atno 10167 bound_to 10162
  157.5478  130.8743  149.8917 H   0  0  0  0  0  0  0  0  0  0  0  0  # atno 10718 bound_to 10713
  153.0112  135.6329  154.1853 H   0  0  0  0  0  0  0  0  0  0  0  0  # atno 10763 bound_to 10752
  154.1594  135.2824  155.3114 H   0  0  0  0  0  0  0  0  0  0  0  0  # atno 10764 bound_to 10752
  154.5993  135.5592  153.7418 H   0  0  0  0  0  0  0  0  0  0  0  0  # atno 10765 bound_to 10752
  140.2475  134.3342  155.7902 H   0  0  0  0  0  0  0  0  0  0  0  0  # atno 11005 bound_to 11000
  144.6750  140.1936  143.7394 LP  0  0  0  0  0  0  0  0  0  0  0  0  # atno 17320 bound_to 7965
  145.8582  139.2209  143.1732 LP  0  0  0  0  0  0  0  0  0  0  0  0  # atno 17321 bound_to 7965
  139.7984  143.8118  152.3160 LP  0  0  0  0  0  0  0  0  0  0  0  0  # atno 17342 bound_to 10162
  139.8126  144.7329  150.9677 LP  0  0  0  0  0  0  0  0  0  0  0  0  # atno 17343 bound_to 10162
  156.0550  130.3710  150.1111 LP  0  0  0  0  0  0  0  0  0  0  0  0  # atno 17370 bound_to 10713
  156.9286  130.9706  151.3536 LP  0  0  0  0  0  0  0  0  0  0  0  0  # atno 17371 bound_to 10713
  141.2205  133.7334  156.8984 LP  0  0  0  0  0  0  0  0  0  0  0  0  # atno 17394 bound_to 11000
  140.1591  134.9178  157.2692 LP  0  0  0  0  0  0  0  0  0  0  0  0  # atno 17395 bound_to 11000

$$$$
