AV-unprocessed.smi:1809|AV-procd|sdf|7313|dock9
  -GOLD-   22720 8573D 1   1.00000     0.00000
 Structure written by MMmdl.
 40 42  0  0  0  0  0  0  0  0  2 V2000
  146.8835  132.9989  161.9612 C   0  0  0  0  0  0  0  0  0  0  0  0
  147.5177  134.2434  161.4413 C   0  0  0  0  0  0  0  0  0  0  0  0
  147.6883  135.3367  162.1946 N   0  0  0  0  0  0  0  0  0  0  0  0
  148.3017  136.3669  161.4956 N   0  0  0  0  0  0  0  0  0  0  0  0
  148.5771  136.0184  160.2312 C   0  0  0  0  0  0  0  0  0  0  0  0
  149.2096  136.8796  159.2957 N   0  0  0  0  0  0  0  0  0  0  0  0
  150.4497  137.3963  159.3469 C   0  0  0  0  0  0  0  0  0  0  0  0
  151.2574  137.2218  160.2597 O   0  0  0  0  0  0  0  0  0  0  0  0
  150.7139  138.1375  158.2611 N   0  0  0  0  0  0  0  0  0  0  0  0
  151.9596  138.8587  158.0149 C   0  0  0  0  0  0  0  0  0  0  0  0
  152.2549  139.9195  159.0928 C   0  0  2  0  0  0  0  0  0  0  0  0
  151.4170  141.2041  158.9430 C   0  0  0  0  0  0  0  0  0  0  0  0
  151.7974  142.2316  159.9450 N   0  3  2  0  0  0  0  0  0  0  0  0
  151.2331  143.5608  159.6232 C   0  0  0  0  0  0  0  0  0  0  0  0
  152.3364  144.3392  158.8833 C   0  0  0  0  0  0  0  0  0  0  0  0
  153.5820  143.4460  158.9358 C   0  0  0  0  0  0  0  0  0  0  0  0
  153.2582  142.4391  160.0397 C   0  0  2  0  0  0  0  0  0  0  0  0
  154.0613  141.1240  160.0139 C   0  0  0  0  0  0  0  0  0  0  0  0
  153.6244  140.2781  158.9605 O   0  0  0  0  0  0  0  0  0  0  0  0
  148.1091  134.3851  159.7901 S   0  0  0  0  0  0  0  0  0  0  0  0
  146.1300  133.2406  162.7113 H   0  0  0  0  0  0  0  0  0  0  0  0
  147.6394  132.3585  162.4157 H   0  0  0  0  0  0  0  0  0  0  0  0
  146.4031  132.4528  161.1492 H   0  0  0  0  0  0  0  0  0  0  0  0
  148.6523  137.1267  158.4912 H   0  0  0  0  0  0  0  0  0  0  0  0
  149.9922  138.2278  157.5606 H   0  0  0  0  0  0  0  0  0  0  0  0
  152.7626  138.1210  158.0077 H   0  0  0  0  0  0  0  0  0  0  0  0
  151.9594  139.3119  157.0220 H   0  0  0  0  0  0  0  0  0  0  0  0
  152.0880  139.4759  160.0763 H   0  0  0  0  0  0  0  0  0  0  0  0
  151.5463  141.6027  157.9352 H   0  0  0  0  0  0  0  0  0  0  0  0
  150.3552  140.9897  159.0647 H   0  0  0  0  0  0  0  0  0  0  0  0
  150.3077  143.4961  159.0486 H   0  0  0  0  0  0  0  0  0  0  0  0
  150.9957  144.0662  160.5601 H   0  0  0  0  0  0  0  0  0  0  0  0
  152.0546  144.5513  157.8514 H   0  0  0  0  0  0  0  0  0  0  0  0
  152.5200  145.2944  159.3767 H   0  0  0  0  0  0  0  0  0  0  0  0
  153.7092  142.9327  157.9814 H   0  0  0  0  0  0  0  0  0  0  0  0
  154.4954  144.0075  159.1351 H   0  0  0  0  0  0  0  0  0  0  0  0
  153.4490  142.9324  160.9946 H   0  0  0  0  0  0  0  0  0  0  0  0
  155.1241  141.3326  159.8890 H   0  0  0  0  0  0  0  0  0  0  0  0
  153.9576  140.5986  160.9647 H   0  0  0  0  0  0  0  0  0  0  0  0
  151.4507  141.9235  160.8423 H   0  0  0  0  0  0  0  0  0  0  0  0
  1  2  1  0  0  0  0
  1 21  1  0  0  0  0
  1 22  1  0  0  0  0
  1 23  1  0  0  0  0
  2 20  1  0  0  0  0
  2  3  2  0  0  0  0
  3  4  1  0  0  0  0
  4  5  2  0  0  0  0
  5  6  1  0  0  0  0
  5 20  1  0  0  0  0
  6  7  1  0  0  0  0
  6 24  1  0  0  0  0
  7  8  2  0  0  0  0
  7  9  1  0  0  0  0
  9 10  1  0  0  0  0
  9 25  1  0  0  0  0
 10 11  1  0  0  0  0
 10 26  1  0  0  0  0
 10 27  1  0  0  0  0
 11 19  1  0  0  0  0
 11 12  1  0  0  0  0
 11 28  1  0  0  0  0
 12 13  1  0  0  0  0
 12 29  1  0  0  0  0
 12 30  1  0  0  0  0
 13 17  1  0  0  0  0
 13 14  1  0  0  0  0
 13 40  1  0  0  0  0
 14 15  1  0  0  0  0
 14 31  1  0  0  0  0
 14 32  1  0  0  0  0
 15 16  1  0  0  0  0
 15 33  1  0  0  0  0
 15 34  1  0  0  0  0
 16 17  1  0  0  0  0
 16 35  1  0  0  0  0
 16 36  1  0  0  0  0
 17 18  1  0  0  0  0
 17 37  1  0  0  0  0
 18 19  1  0  0  0  0
 18 38  1  0  0  0  0
 18 39  1  0  0  0  0
M  CHG  1  13   1
M  END
> <s_m_source_file>
AV-unprocessed.smi

> <i_m_source_file_index>
1809

> <i_lp_mmshare_version>
43012

> <i_f3d_flags>
0

> <s_epik_input>
W0NIM11jMW5uYyhzMSlbTkhdQyg9TylbTkhdW0NIMl1bQ0BIXShbQ0gyXTIpT1tDSDJdW0NAQEhdKE4yMylbQ0gyXVtDSDJdW0NIMl0z

> <s_epik_cmdline>
J2VwaWtfcHl0aG9uJywgJy1waCcsICc3LjAnLCAnLXRuJywgJzgnLCAnLW1hJywgJzIwMCcsICctbWV0YWxfYmluZGluZycsICctaW1hZScsICc8aW5maWxlLm1hZT4nLCAnLW9tYWUnLCAnPG91dGZpbGUubWFlPic=

> <r_lp_tautomer_probability>
1

> <r_epik_Ionization_Penalty>
0.112474

> <r_epik_Ionization_Penalty_Charging>
0.108916

> <r_epik_Ionization_Penalty_Neutral>
0.00355844

> <r_epik_State_Penalty>
0.0565397

> <r_epik_Charging_Adjusted_Penalty>
0.165456

> <i_epik_Tot_Q>
1

> <i_epik_Tot_abs_Q>
1

> <r_epik_Metal_State_Penalty>
0.422831

> <b_epik_Metal_Only>
0

> <s_lp_Force_Field>
OPLS_2005

> <r_lp_Energy>
35.4297

> <b_lp_Chiralities_Consistent>
1

> <s_lp_Variant>
AV-unprocessed.smi:1809-5

> <Gold.Version>
5.8.1

> <Gold.Id.Protein>
6NUR|6NUR_protein|mol2

> <Gold.PLP.Fitness>
39.3131

> <Gold.PLP.PLP>
-32.7542

> <Gold.PLP.part.hbond>
-3.2202

> <Gold.PLP.part.metal>
0.0000

> <Gold.PLP.part.buried>
-5.0464

> <Gold.PLP.part.nonpolar>
-25.3426

> <Gold.PLP.part.repulsive>
0.4252

> <Gold.PLP.ligand.clash>
0.0000

> <Gold.PLP.ligand.torsion>
0.7345

> <Gold.PLP.Chemscore.Hbond>
2.6758

> <Gold.PLP.Chemscore.CHOScore>
0.0000

> <Gold.PLP.Chemscore.Metal>
0.0000

> <Gold.Chemscore.Hbonds>
donor molecule, donor type, donor heavy atom, donor atom, acceptor molecule, acceptor atom, score
      P1  H  6896  6907       L1     8  0.61
      P1  H  6931  6943       L1     4  0.93
      P1  H  7997  8009       L1    19  0.67

> <Gold.PLP.Chemscore.Internal.Correction>
0.0006

> <Gold.Rescore>
     Score         DG    S(hbond)    S(metal)    S(lipo)     H(rot)  DE(clash)    DE(int)     intcor
     19.46     -20.20       2.25        0.00      90.94       1.34       0.07       0.66       ----

> <Gold.Chemscore.Fitness>
19.4627

> <Gold.Chemscore.DG>
-20.1953

> <Gold.Chemscore.ZeroCoef>
-5.4800

> <Gold.Chemscore.Hbond>
2.2466

> <Gold.Chemscore.Metal>
0.0000

> <Gold.Chemscore.Lipo>
90.9387

> <Gold.Chemscore.Internal_Hbond>
0.0000

> <Gold.Chemscore.DEClash>
0.0689

> <Gold.Chemscore.DEInternal>
0.6637

> <Gold.Chemscore.Rot>
1.3391

> <Gold.Chemscore.Internal.Correction>
   9.000000E+99

> <Gold.Chemscore.Hbonds>
donor molecule, donor type, donor heavy atom, donor atom, acceptor molecule, acceptor atom, score
      P1  H  6896  6907       L1     8  0.06
      P1  H  6931  6943       L1     4  0.69
      P1  H  7997  8009       L1    19  0.64

> <Gold.Chemscore.Hbond.Weighted>
-7.5035

> <Gold.Chemscore.Metal.Weighted>
-0.0000

> <Gold.Chemscore.Lipo.Weighted>
-10.6398

> <Gold.Chemscore.Internal_Hbond.Weighted>
0.0000

> <Gold.Chemscore.DEClash.Weighted>
0.0689

> <Gold.Chemscore.DEInternal.Weighted>
0.6637

> <Gold.Chemscore.Rot.Weighted>
3.4281

> <Gold.Chemscore.Internal.Correction.Weighted>
   9.000000E+99

> <Gold.Protein.RotatedTorsions>
[ 6907 6896 6895 6894 ] final  -10.83 input  -60.11 | X-H torsion
[ 7974 7965 7964 7962 ] final -163.55 input  175.53 | X-H torsion
[ 8008 7997 7996 7995 ] final  146.35 input   59.86 | X-H torsion
[ 10167 10162 10161 10158 ] final  -74.04 input  -65.29 | X-H torsion
[ 10718 10713 10712 10709 ] final -107.11 input   66.30 | X-H torsion
[ 10763 10752 10751 10750 ] final  -56.36 input  -60.55 | X-H torsion
[ 11005 11000 10999 10996 ] final   87.61 input  -57.11 | X-H torsion

> <Gold.Protein.ActiveResidues>
 VAL166  LYS551  ARG553  GLY616  TRP617  ASP618  TYR619  PRO620  LYS621  CYS622 
 ASP623  PHE694  ASN695  SER759  ASP760  ASP761  ALA762  ILE779  LEU786  VAL792 
 PHE793  MET794  SER795  GLU796  ALA797  LYS798  CYS799  TRP800  GLU811  SER814 

> <Gold.Protein.RotatedAtoms>
  151.3958  135.0963  159.9540 H   0  0  0  0  0  0  0  0  0  0  0  0  # atno 6907 bound_to 6896
  152.5066  133.8936  159.7416 H   0  0  0  0  0  0  0  0  0  0  0  0  # atno 6908 bound_to 6896
  150.9399  133.6612  159.2821 H   0  0  0  0  0  0  0  0  0  0  0  0  # atno 6909 bound_to 6896
  144.7322  140.3090  143.6191 H   0  0  0  0  0  0  0  0  0  0  0  0  # atno 7974 bound_to 7965
  156.2858  140.2185  156.5363 H   0  0  0  0  0  0  0  0  0  0  0  0  # atno 8008 bound_to 7997
  154.7407  140.0488  157.0831 H   0  0  0  0  0  0  0  0  0  0  0  0  # atno 8009 bound_to 7997
  155.0234  140.3126  155.4788 H   0  0  0  0  0  0  0  0  0  0  0  0  # atno 8010 bound_to 7997
  140.5060  143.2353  151.7673 H   0  0  0  0  0  0  0  0  0  0  0  0  # atno 10167 bound_to 10162
  156.0421  130.5646  150.7775 H   0  0  0  0  0  0  0  0  0  0  0  0  # atno 10718 bound_to 10713
  154.2054  135.6404  153.5099 H   0  0  0  0  0  0  0  0  0  0  0  0  # atno 10763 bound_to 10752
  153.0002  135.5461  154.6271 H   0  0  0  0  0  0  0  0  0  0  0  0  # atno 10764 bound_to 10752
  154.5695  135.2915  155.0815 H   0  0  0  0  0  0  0  0  0  0  0  0  # atno 10765 bound_to 10752
  139.8915  134.8433  156.2884 H   0  0  0  0  0  0  0  0  0  0  0  0  # atno 11005 bound_to 11000
  145.7684  139.1848  143.2227 LP  0  0  0  0  0  0  0  0  0  0  0  0  # atno 17320 bound_to 7965
  146.0931  140.7633  142.9586 LP  0  0  0  0  0  0  0  0  0  0  0  0  # atno 17321 bound_to 7965
  139.4884  144.4457  151.9713 LP  0  0  0  0  0  0  0  0  0  0  0  0  # atno 17342 bound_to 10162
  140.3547  144.3046  150.5943 LP  0  0  0  0  0  0  0  0  0  0  0  0  # atno 17343 bound_to 10162
  157.5252  131.0933  151.0027 LP  0  0  0  0  0  0  0  0  0  0  0  0  # atno 17370 bound_to 10713
  157.0348  130.5725  149.5348 LP  0  0  0  0  0  0  0  0  0  0  0  0  # atno 17371 bound_to 10713
  140.9992  133.7161  156.0934 LP  0  0  0  0  0  0  0  0  0  0  0  0  # atno 17394 bound_to 11000
  140.7520  134.4034  157.5540 LP  0  0  0  0  0  0  0  0  0  0  0  0  # atno 17395 bound_to 11000

$$$$
