AV-unprocessed.smi:1695|AV-procd|sdf|6795|dock3
  -GOLD-   22720 7563D 1   1.00000     0.00000
 Structure written by MMmdl.
 52 54  0  0  0  0  0  0  0  0  3 V2000
  151.8398  144.1585  160.8590 C   0  0  0  0  0  0  0  0  0  0  0  0
  151.7376  143.2066  159.6793 C   0  0  0  0  0  0  0  0  0  0  0  0
  150.8335  143.5169  158.6389 C   0  0  0  0  0  0  0  0  0  0  0  0
  150.7594  142.6255  157.5755 C   0  0  0  0  0  0  0  0  0  0  0  0
  149.9770  142.6477  156.4193 N   0  3  0  0  0  0  0  0  0  0  0  0
  150.2498  141.5482  155.6645 C   0  0  0  0  0  0  0  0  0  0  0  0
  151.2008  140.8260  156.3179 N   0  0  0  0  0  0  0  0  0  0  0  0
  151.8291  139.5530  155.9373 C   0  0  0  0  0  0  0  0  0  0  0  0
  150.8224  138.3894  155.8467 C   0  0  2  0  0  0  0  0  0  0  0  0
  151.1712  137.4452  156.8385 O   0  0  0  0  0  0  0  0  0  0  0  0
  150.8019  137.6837  154.4732 C   0  0  0  0  0  0  0  0  0  0  0  0
  149.7702  136.6169  154.4029 N   0  3  1  0  0  0  0  0  0  0  0  0
  150.2431  135.3039  154.9162 C   0  0  0  0  0  0  0  0  0  0  0  0
  149.1928  134.2077  154.6743 C   0  0  0  0  0  0  0  0  0  0  0  0
  147.8425  134.5764  155.3188 C   0  0  2  0  0  0  0  0  0  0  0  0
  146.7810  133.5094  155.0180 C   0  0  0  0  0  0  0  0  0  0  0  0
  146.4755  133.2956  153.7361 N   0  0  0  0  0  0  0  0  0  0  0  0
  146.2429  132.8854  155.9303 O   0  0  0  0  0  0  0  0  0  0  0  0
  147.4000  135.9603  154.8050 C   0  0  0  0  0  0  0  0  0  0  0  0
  148.4905  137.0186  155.0409 C   0  0  0  0  0  0  0  0  0  0  0  0
  151.5465  141.4581  157.5196 C   0  0  0  0  0  0  0  0  0  0  0  0
  152.4450  141.1396  158.5364 C   0  0  0  0  0  0  0  0  0  0  0  0
  152.5327  142.0325  159.6285 C   0  0  0  0  0  0  0  0  0  0  0  0
  153.4997  141.7070  160.7543 C   0  0  0  0  0  0  0  0  0  0  0  0
  151.1789  145.0172  160.7376 H   0  0  0  0  0  0  0  0  0  0  0  0
  152.8580  144.5344  160.9623 H   0  0  0  0  0  0  0  0  0  0  0  0
  151.5612  143.6525  161.7837 H   0  0  0  0  0  0  0  0  0  0  0  0
  150.2237  144.4083  158.6715 H   0  0  0  0  0  0  0  0  0  0  0  0
  149.7907  141.2936  154.7196 H   0  0  0  0  0  0  0  0  0  0  0  0
  152.3754  139.6788  155.0028 H   0  0  0  0  0  0  0  0  0  0  0  0
  152.5797  139.3333  156.6982 H   0  0  0  0  0  0  0  0  0  0  0  0
  149.8326  138.7750  156.0892 H   0  0  0  0  0  0  0  0  0  0  0  0
  151.3807  136.6243  156.4190 H   0  0  0  0  0  0  0  0  0  0  0  0
  150.6257  138.3959  153.6661 H   0  0  0  0  0  0  0  0  0  0  0  0
  151.7901  137.2584  154.2911 H   0  0  0  0  0  0  0  0  0  0  0  0
  151.1724  135.0151  154.4270 H   0  0  0  0  0  0  0  0  0  0  0  0
  150.4612  135.3847  155.9823 H   0  0  0  0  0  0  0  0  0  0  0  0
  149.0722  134.0586  153.5999 H   0  0  0  0  0  0  0  0  0  0  0  0
  149.5549  133.2611  155.0780 H   0  0  0  0  0  0  0  0  0  0  0  0
  147.9801  134.6376  156.4000 H   0  0  0  0  0  0  0  0  0  0  0  0
  145.7844  132.6030  153.4872 H   0  0  0  0  0  0  0  0  0  0  0  0
  146.9410  133.8299  153.0164 H   0  0  0  0  0  0  0  0  0  0  0  0
  147.1726  135.9137  153.7384 H   0  0  0  0  0  0  0  0  0  0  0  0
  146.4794  136.2682  155.3028 H   0  0  0  0  0  0  0  0  0  0  0  0
  148.6458  137.1716  156.1101 H   0  0  0  0  0  0  0  0  0  0  0  0
  148.1550  137.9710  154.6285 H   0  0  0  0  0  0  0  0  0  0  0  0
  153.0530  140.2480  158.5042 H   0  0  0  0  0  0  0  0  0  0  0  0
  154.0107  140.7595  160.5806 H   0  0  0  0  0  0  0  0  0  0  0  0
  152.9706  141.6289  161.7042 H   0  0  0  0  0  0  0  0  0  0  0  0
  154.2591  142.4841  160.8434 H   0  0  0  0  0  0  0  0  0  0  0  0
  149.5646  136.4925  153.4213 H   0  0  0  0  0  0  0  0  0  0  0  0
  149.3007  143.3568  156.1652 H   0  0  0  0  0  0  0  0  0  0  0  0
  1  2  1  0  0  0  0
  1 25  1  0  0  0  0
  1 26  1  0  0  0  0
  1 27  1  0  0  0  0
  2 23  1  0  0  0  0
  2  3  2  0  0  0  0
  3  4  1  0  0  0  0
  3 28  1  0  0  0  0
  4 21  2  0  0  0  0
  4  5  1  0  0  0  0
  5  6  2  0  0  0  0
  5 52  1  0  0  0  0
  6  7  1  0  0  0  0
  6 29  1  0  0  0  0
  7  8  1  0  0  0  0
  7 21  1  0  0  0  0
  8  9  1  0  0  0  0
  8 30  1  0  0  0  0
  8 31  1  0  0  0  0
  9 10  1  0  0  0  0
  9 11  1  0  0  0  0
  9 32  1  0  0  0  0
 10 33  1  0  0  0  0
 11 12  1  0  0  0  0
 11 34  1  0  0  0  0
 11 35  1  0  0  0  0
 12 20  1  0  0  0  0
 12 13  1  0  0  0  0
 12 51  1  0  0  0  0
 13 14  1  0  0  0  0
 13 36  1  0  0  0  0
 13 37  1  0  0  0  0
 14 15  1  0  0  0  0
 14 38  1  0  0  0  0
 14 39  1  0  0  0  0
 15 16  1  0  0  0  0
 15 19  1  0  0  0  0
 15 40  1  0  0  0  0
 16 17  1  0  0  0  0
 16 18  2  0  0  0  0
 17 41  1  0  0  0  0
 17 42  1  0  0  0  0
 19 20  1  0  0  0  0
 19 43  1  0  0  0  0
 19 44  1  0  0  0  0
 20 45  1  0  0  0  0
 20 46  1  0  0  0  0
 21 22  1  0  0  0  0
 22 23  2  0  0  0  0
 22 47  1  0  0  0  0
 23 24  1  0  0  0  0
 24 48  1  0  0  0  0
 24 49  1  0  0  0  0
 24 50  1  0  0  0  0
M  CHG  1   5   1
M  CHG  1  12   1
M  END
> <s_m_source_file>
AV-unprocessed.smi

> <i_m_source_file_index>
1695

> <i_lp_mmshare_version>
43012

> <i_f3d_flags>
0

> <s_epik_input>
W0NIM11jKFtjSF0xKWMoW0NIM10pW2NIXWMoYzEyKW4oW2NIXW4yKVtDSDJdW0NASF0oW09IXSlbQ0gyXU4zW0NIMl1bQ0gyXVtDSF0oQyg9TylbTkgyXSlbQ0gyXVtDSDJdMw==

> <s_epik_cmdline>
J2VwaWtfcHl0aG9uJywgJy1waCcsICc3LjAnLCAnLXRuJywgJzgnLCAnLW1hJywgJzIwMCcsICctbWV0YWxfYmluZGluZycsICctaW1hZScsICc8aW5maWxlLm1hZT4nLCAnLW9tYWUnLCAnPG91dGZpbGUubWFlPic=

> <r_epik_Ionization_Penalty>
1.20173

> <r_epik_Ionization_Penalty_Charging>
1.20172

> <r_epik_Ionization_Penalty_Neutral>
1.7852e-06

> <r_epik_State_Penalty>
1.28089

> <r_epik_Charging_Adjusted_Penalty>
2.48261

> <i_epik_Tot_Q>
2

> <i_epik_Tot_abs_Q>
2

> <r_epik_Metal_State_Penalty>
1.35652

> <b_epik_Metal_Only>
0

> <s_lp_Force_Field>
OPLS_2005

> <r_lp_Energy>
30.6346

> <b_lp_Chiralities_Consistent>
1

> <s_lp_Variant>
AV-unprocessed.smi:1695-7

> <Gold.Version>
5.8.1

> <Gold.Id.Protein>
6NUR|6NUR_protein|mol2

> <Gold.PLP.Fitness>
52.3239

> <Gold.PLP.PLP>
-42.2630

> <Gold.PLP.part.hbond>
-2.3683

> <Gold.PLP.part.metal>
0.0000

> <Gold.PLP.part.buried>
-4.9277

> <Gold.PLP.part.nonpolar>
-34.8473

> <Gold.PLP.part.repulsive>
0.1936

> <Gold.PLP.ligand.clash>
0.0000

> <Gold.PLP.ligand.torsion>
0.9880

> <Gold.PLP.Chemscore.Hbond>
4.0000

> <Gold.PLP.Chemscore.CHOScore>
0.0000

> <Gold.PLP.Chemscore.Metal>
0.0000

> <Gold.Chemscore.Hbonds>
donor molecule, donor type, donor heavy atom, donor atom, acceptor molecule, acceptor atom, score
      L1  H     5    52       P1  8028  1.92
      L1  H    12    51       P1  7948  2.00

> <Gold.PLP.Chemscore.Internal.Correction>
0.0370

> <Gold.Rescore>
     Score         DG    S(hbond)    S(metal)    S(lipo)     H(rot)  DE(clash)    DE(int)     intcor
     16.59     -17.72       1.93        0.00     113.18       2.91       0.01       1.13       ----

> <Gold.Chemscore.Fitness>
16.5868

> <Gold.Chemscore.DG>
-17.7245

> <Gold.Chemscore.ZeroCoef>
-5.4800

> <Gold.Chemscore.Hbond>
1.9338

> <Gold.Chemscore.Metal>
0.0000

> <Gold.Chemscore.Lipo>
113.1793

> <Gold.Chemscore.Internal_Hbond>
0.0000

> <Gold.Chemscore.DEClash>
0.0063

> <Gold.Chemscore.DEInternal>
1.1314

> <Gold.Chemscore.Rot>
2.9127

> <Gold.Chemscore.Internal.Correction>
   9.000000E+99

> <Gold.Chemscore.Hbonds>
donor molecule, donor type, donor heavy atom, donor atom, acceptor molecule, acceptor atom, score
      L1  H     5    52       P1  8028  0.88
      L1  H    12    51       P1  7948  0.60

> <Gold.Chemscore.Hbond.Weighted>
-6.4590

> <Gold.Chemscore.Metal.Weighted>
-0.0000

> <Gold.Chemscore.Lipo.Weighted>
-13.2420

> <Gold.Chemscore.Internal_Hbond.Weighted>
0.0000

> <Gold.Chemscore.DEClash.Weighted>
0.0063

> <Gold.Chemscore.DEInternal.Weighted>
1.1314

> <Gold.Chemscore.Rot.Weighted>
7.4565

> <Gold.Chemscore.Internal.Correction.Weighted>
   9.000000E+99

> <Gold.Protein.RotatedTorsions>
[ 6907 6896 6895 6894 ] final   -4.82 input  -60.11 | X-H torsion
[ 7974 7965 7964 7962 ] final -127.71 input  175.53 | X-H torsion
[ 8008 7997 7996 7995 ] final  176.24 input   59.86 | X-H torsion
[ 10167 10162 10161 10158 ] final  -53.51 input  -65.29 | X-H torsion
[ 10718 10713 10712 10709 ] final -172.87 input   66.30 | X-H torsion
[ 10763 10752 10751 10750 ] final  111.67 input  -60.55 | X-H torsion
[ 11005 11000 10999 10996 ] final   57.97 input  -57.11 | X-H torsion

> <Gold.Protein.ActiveResidues>
 VAL166  LYS551  ARG553  GLY616  TRP617  ASP618  TYR619  PRO620  LYS621  CYS622 
 ASP623  PHE694  ASN695  SER759  ASP760  ASP761  ALA762  ILE779  LEU786  VAL792 
 PHE793  MET794  SER795  GLU796  ALA797  LYS798  CYS799  TRP800  GLU811  SER814 

> <Gold.Protein.RotatedAtoms>
  151.4916  135.1057  159.9804 H   0  0  0  0  0  0  0  0  0  0  0  0  # atno 6907 bound_to 6896
  152.4739  133.8088  159.7003 H   0  0  0  0  0  0  0  0  0  0  0  0  # atno 6908 bound_to 6896
  150.8764  133.7370  159.2971 H   0  0  0  0  0  0  0  0  0  0  0  0  # atno 6909 bound_to 6896
  144.9744  140.7577  143.4651 H   0  0  0  0  0  0  0  0  0  0  0  0  # atno 7974 bound_to 7965
  156.0786  140.1388  156.9741 H   0  0  0  0  0  0  0  0  0  0  0  0  # atno 8008 bound_to 7997
  154.4572  140.0957  156.6840 H   0  0  0  0  0  0  0  0  0  0  0  0  # atno 8009 bound_to 7997
  155.5113  140.3454  155.4391 H   0  0  0  0  0  0  0  0  0  0  0  0  # atno 8010 bound_to 7997
  140.6481  143.2548  151.4803 H   0  0  0  0  0  0  0  0  0  0  0  0  # atno 10167 bound_to 10162
  156.7619  130.9416  151.3118 H   0  0  0  0  0  0  0  0  0  0  0  0  # atno 10718 bound_to 10713
  153.4667  135.3710  155.2368 H   0  0  0  0  0  0  0  0  0  0  0  0  # atno 10763 bound_to 10752
  154.8757  135.3921  154.3861 H   0  0  0  0  0  0  0  0  0  0  0  0  # atno 10764 bound_to 10752
  153.4443  135.7084  153.6214 H   0  0  0  0  0  0  0  0  0  0  0  0  # atno 10765 bound_to 10752
  140.0412  134.5870  155.9379 H   0  0  0  0  0  0  0  0  0  0  0  0  # atno 11005 bound_to 11000
  145.2512  139.2031  143.4941 LP  0  0  0  0  0  0  0  0  0  0  0  0  # atno 17320 bound_to 7965
  146.3391  140.2426  142.8596 LP  0  0  0  0  0  0  0  0  0  0  0  0  # atno 17321 bound_to 7965
  139.5693  144.1967  152.1812 LP  0  0  0  0  0  0  0  0  0  0  0  0  # atno 17342 bound_to 10162
  140.1258  144.5332  150.6833 LP  0  0  0  0  0  0  0  0  0  0  0  0  # atno 17343 bound_to 10162
  157.6731  130.9069  150.0086 LP  0  0  0  0  0  0  0  0  0  0  0  0  # atno 17370 bound_to 10713
  156.1334  130.3643  149.9696 LP  0  0  0  0  0  0  0  0  0  0  0  0  # atno 17371 bound_to 10713
  141.1884  133.6562  156.5322 LP  0  0  0  0  0  0  0  0  0  0  0  0  # atno 17394 bound_to 11000
  140.4066  134.7309  157.4811 LP  0  0  0  0  0  0  0  0  0  0  0  0  # atno 17395 bound_to 11000

$$$$
