AV-unprocessed.smi:1997|AV-procd|sdf|8087|dock10
  -GOLD-   2272010303D 1   1.00000     0.00000
 Structure written by MMmdl.
 37 39  0  0  0  0  0  0  0  0  1 V2000
  146.6972  137.7006  154.6978 O   0  0  0  0  0  0  0  0  0  0  0  0
  147.1172  137.9940  153.5782 C   0  0  0  0  0  0  0  0  0  0  0  0
  146.6379  137.5157  152.4166 N   0  0  0  0  0  0  0  0  0  0  0  0
  145.5919  136.5769  152.2156 C   0  0  0  0  0  0  0  0  0  0  0  0
  144.2993  136.8387  152.4536 N   0  0  0  0  0  0  0  0  0  0  0  0
  143.4907  135.7439  152.1813 N   0  0  0  0  0  0  0  0  0  0  0  0
  144.1919  134.6893  151.7486 C   0  0  0  0  0  0  0  0  0  0  0  0
  143.5442  133.3910  151.3993 C   0  0  0  0  0  0  0  0  0  0  0  0
  144.3604  132.1225  151.3013 C   0  0  0  0  0  0  0  0  0  0  0  0
  143.7671  132.7302  150.0562 C   0  0  0  0  0  0  0  0  0  0  0  0
  145.9278  134.9578  151.6281 S   0  0  0  0  0  0  0  0  0  0  0  0
  148.1309  138.8480  153.3687 N   0  0  0  0  0  0  0  0  0  0  0  0
  148.8756  139.5555  154.4131 C   0  0  1  0  0  0  0  0  0  0  0  0
  150.3730  139.2179  154.2280 C   0  0  0  0  0  0  0  0  0  0  0  0
  151.2162  139.4137  155.5001 C   0  0  0  0  0  0  0  0  0  0  0  0
  151.3205  140.8651  155.9927 C   0  0  0  0  0  0  0  0  0  0  0  0
  149.9696  141.4796  156.3968 C   0  0  0  0  0  0  0  0  0  0  0  0
  149.1832  141.8846  155.2391 N   0  0  0  0  0  0  0  0  0  0  0  0
  148.6804  141.0847  154.2864 C   0  0  0  0  0  0  0  0  0  0  0  0
  148.0792  141.5644  153.3253 O   0  0  0  0  0  0  0  0  0  0  0  0
  147.0823  137.8540  151.5761 H   0  0  0  0  0  0  0  0  0  0  0  0
  142.5512  133.3257  151.8398 H   0  0  0  0  0  0  0  0  0  0  0  0
  145.4377  132.2025  151.4338 H   0  0  0  0  0  0  0  0  0  0  0  0
  143.9107  131.2063  151.6780 H   0  0  0  0  0  0  0  0  0  0  0  0
  142.9209  132.2189  149.6021 H   0  0  0  0  0  0  0  0  0  0  0  0
  144.4559  133.2005  149.3575 H   0  0  0  0  0  0  0  0  0  0  0  0
  148.4023  139.0371  152.4152 H   0  0  0  0  0  0  0  0  0  0  0  0
  148.5301  139.2128  155.3901 H   0  0  0  0  0  0  0  0  0  0  0  0
  150.4680  138.1686  153.9431 H   0  0  0  0  0  0  0  0  0  0  0  0
  150.8026  139.7838  153.3992 H   0  0  0  0  0  0  0  0  0  0  0  0
  150.8159  138.7877  156.2987 H   0  0  0  0  0  0  0  0  0  0  0  0
  152.2231  139.0410  155.3090 H   0  0  0  0  0  0  0  0  0  0  0  0
  151.9798  140.8804  156.8611 H   0  0  0  0  0  0  0  0  0  0  0  0
  151.8065  141.4858  155.2386 H   0  0  0  0  0  0  0  0  0  0  0  0
  149.3983  140.7989  157.0297 H   0  0  0  0  0  0  0  0  0  0  0  0
  150.1475  142.3752  156.9924 H   0  0  0  0  0  0  0  0  0  0  0  0
  149.0279  142.8767  155.1321 H   0  0  0  0  0  0  0  0  0  0  0  0
  1  2  2  0  0  0  0
  2  3  1  0  0  0  0
  2 12  1  0  0  0  0
  3  4  1  0  0  0  0
  3 21  1  0  0  0  0
  4 11  1  0  0  0  0
  4  5  2  0  0  0  0
  5  6  1  0  0  0  0
  6  7  2  0  0  0  0
  7  8  1  0  0  0  0
  7 11  1  0  0  0  0
  8 10  1  0  0  0  0
  8  9  1  0  0  0  0
  8 22  1  0  0  0  0
  9 10  1  0  0  0  0
  9 23  1  0  0  0  0
  9 24  1  0  0  0  0
 10 25  1  0  0  0  0
 10 26  1  0  0  0  0
 12 13  1  0  0  0  0
 12 27  1  0  0  0  0
 13 19  1  0  0  0  0
 13 14  1  0  0  0  0
 13 28  1  0  0  0  0
 14 15  1  0  0  0  0
 14 29  1  0  0  0  0
 14 30  1  0  0  0  0
 15 16  1  0  0  0  0
 15 31  1  0  0  0  0
 15 32  1  0  0  0  0
 16 17  1  0  0  0  0
 16 33  1  0  0  0  0
 16 34  1  0  0  0  0
 17 18  1  0  0  0  0
 17 35  1  0  0  0  0
 17 36  1  0  0  0  0
 18 19  1  0  0  0  0
 18 37  1  0  0  0  0
 19 20  2  0  0  0  0
M  END
> <s_m_source_file>
AV-unprocessed.smi

> <i_m_source_file_index>
1997

> <i_lp_mmshare_version>
43012

> <i_f3d_flags>
0

> <s_epik_input>
W0NIMl0xW0NIMl1bQ0hdMWMoczIpbm5jMltOSF1DKD1PKVtOSF1bQ0BASF0zW0NIMl1bQ0gyXVtDSDJdW0NIMl1bTkhdQzM9Tw==

> <s_epik_cmdline>
J2VwaWtfcHl0aG9uJywgJy1waCcsICc3LjAnLCAnLXRuJywgJzgnLCAnLW1hJywgJzIwMCcsICctbWV0YWxfYmluZGluZycsICctaW1hZScsICc8aW5maWxlLm1hZT4nLCAnLW9tYWUnLCAnPG91dGZpbGUubWFlPic=

> <r_lp_tautomer_probability>
1

> <r_epik_Ionization_Penalty>
0.000421558

> <r_epik_Ionization_Penalty_Charging>
0

> <r_epik_Ionization_Penalty_Neutral>
0.000421558

> <r_epik_State_Penalty>
-0

> <r_epik_Charging_Adjusted_Penalty>
0

> <i_epik_Tot_Q>
0

> <i_epik_Tot_abs_Q>
0

> <r_epik_Metal_State_Penalty>
0.200761

> <b_epik_Metal_Only>
0

> <s_lp_Force_Field>
OPLS_2005

> <r_lp_Energy>
8.5849

> <b_lp_Chiralities_Consistent>
1

> <s_lp_Variant>
AV-unprocessed.smi:1997-2

> <Gold.Version>
5.8.1

> <Gold.Id.Protein>
6NUR|6NUR_protein|mol2

> <Gold.PLP.Fitness>
38.5743

> <Gold.PLP.PLP>
-32.4848

> <Gold.PLP.part.hbond>
-4.8293

> <Gold.PLP.part.metal>
0.0000

> <Gold.PLP.part.buried>
-2.4599

> <Gold.PLP.part.nonpolar>
-27.5100

> <Gold.PLP.part.repulsive>
2.0468

> <Gold.PLP.ligand.clash>
0.0000

> <Gold.PLP.ligand.torsion>
0.9562

> <Gold.PLP.Chemscore.Hbond>
2.6254

> <Gold.PLP.Chemscore.CHOScore>
0.0000

> <Gold.PLP.Chemscore.Metal>
0.0000

> <Gold.Chemscore.Hbonds>
donor molecule, donor type, donor heavy atom, donor atom, acceptor molecule, acceptor atom, score
      L1  H    12    27       P1  7957  0.98
      L1  H    18    37       P1  8028  1.00
      P1  H  8011  8017       L1    20  0.40

> <Gold.PLP.Chemscore.Internal.Correction>
0.1258

> <Gold.Rescore>
     Score         DG    S(hbond)    S(metal)    S(lipo)     H(rot)  DE(clash)    DE(int)     intcor
     15.25     -16.80       1.94        0.00      69.36       1.29       0.64       0.91       ----

> <Gold.Chemscore.Fitness>
15.2459

> <Gold.Chemscore.DG>
-16.7964

> <Gold.Chemscore.ZeroCoef>
-5.4800

> <Gold.Chemscore.Hbond>
1.9441

> <Gold.Chemscore.Metal>
0.0000

> <Gold.Chemscore.Lipo>
69.3627

> <Gold.Chemscore.Internal_Hbond>
0.0000

> <Gold.Chemscore.DEClash>
0.6384

> <Gold.Chemscore.DEInternal>
0.9121

> <Gold.Chemscore.Rot>
1.2860

> <Gold.Chemscore.Internal.Correction>
   9.000000E+99

> <Gold.Chemscore.Hbonds>
donor molecule, donor type, donor heavy atom, donor atom, acceptor molecule, acceptor atom, score
      L1  H    12    27       P1  7957  0.90
      L1  H    18    37       P1  8028  0.99
      P1  H  8011  8017       L1    20  0.08

> <Gold.Chemscore.Hbond.Weighted>
-6.4932

> <Gold.Chemscore.Metal.Weighted>
-0.0000

> <Gold.Chemscore.Lipo.Weighted>
-8.1154

> <Gold.Chemscore.Internal_Hbond.Weighted>
0.0000

> <Gold.Chemscore.DEClash.Weighted>
0.6384

> <Gold.Chemscore.DEInternal.Weighted>
0.9121

> <Gold.Chemscore.Rot.Weighted>
3.2923

> <Gold.Chemscore.Internal.Correction.Weighted>
   9.000000E+99

> <Gold.Protein.RotatedTorsions>
[ 6907 6896 6895 6894 ] final   71.07 input  -60.11 | X-H torsion
[ 7974 7965 7964 7962 ] final  171.94 input  175.53 | X-H torsion
[ 8008 7997 7996 7995 ] final  -76.06 input   59.86 | X-H torsion
[ 10167 10162 10161 10158 ] final   49.91 input  -65.29 | X-H torsion
[ 10718 10713 10712 10709 ] final   49.54 input   66.30 | X-H torsion
[ 10763 10752 10751 10750 ] final   38.78 input  -60.55 | X-H torsion
[ 11005 11000 10999 10996 ] final -160.32 input  -57.11 | X-H torsion

> <Gold.Protein.ActiveResidues>
 VAL166  LYS551  ARG553  GLY616  TRP617  ASP618  TYR619  PRO620  LYS621  CYS622 
 ASP623  PHE694  ASN695  SER759  ASP760  ASP761  ALA762  ILE779  LEU786  VAL792 
 PHE793  MET794  SER795  GLU796  ALA797  LYS798  CYS799  TRP800  GLU811  SER814 

> <Gold.Protein.RotatedAtoms>
  152.4788  134.4775  159.9654 H   0  0  0  0  0  0  0  0  0  0  0  0  # atno 6907 bound_to 6896
  151.4785  133.3546  159.2842 H   0  0  0  0  0  0  0  0  0  0  0  0  # atno 6908 bound_to 6896
  150.8845  134.8267  159.7310 H   0  0  0  0  0  0  0  0  0  0  0  0  # atno 6909 bound_to 6896
  144.7281  139.9425  143.6429 H   0  0  0  0  0  0  0  0  0  0  0  0  # atno 7974 bound_to 7965
  154.5472  140.0733  156.8608 H   0  0  0  0  0  0  0  0  0  0  0  0  # atno 8008 bound_to 7997
  155.3064  140.3387  155.4227 H   0  0  0  0  0  0  0  0  0  0  0  0  # atno 8009 bound_to 7997
  156.1929  140.1692  156.8043 H   0  0  0  0  0  0  0  0  0  0  0  0  # atno 8010 bound_to 7997
  140.2779  144.3190  150.6272 H   0  0  0  0  0  0  0  0  0  0  0  0  # atno 10167 bound_to 10162
  157.4796  130.8307  149.8078 H   0  0  0  0  0  0  0  0  0  0  0  0  # atno 10718 bound_to 10713
  152.9989  135.6239  154.2360 H   0  0  0  0  0  0  0  0  0  0  0  0  # atno 10763 bound_to 10752
  154.2102  135.2800  155.2963 H   0  0  0  0  0  0  0  0  0  0  0  0  # atno 10764 bound_to 10752
  154.5613  135.5704  153.7069 H   0  0  0  0  0  0  0  0  0  0  0  0  # atno 10765 bound_to 10752
  140.6328  134.4633  157.5230 H   0  0  0  0  0  0  0  0  0  0  0  0  # atno 11005 bound_to 11000
  146.0774  139.3762  143.0485 LP  0  0  0  0  0  0  0  0  0  0  0  0  # atno 17320 bound_to 7965
  145.7887  140.9824  143.1060 LP  0  0  0  0  0  0  0  0  0  0  0  0  # atno 17321 bound_to 7965
  140.5836  143.2171  151.7384 LP  0  0  0  0  0  0  0  0  0  0  0  0  # atno 17342 bound_to 10162
  139.4970  144.4044  152.0147 LP  0  0  0  0  0  0  0  0  0  0  0  0  # atno 17343 bound_to 10162
  156.0115  130.3831  150.2250 LP  0  0  0  0  0  0  0  0  0  0  0  0  # atno 17370 bound_to 10713
  157.0436  131.0042  151.3276 LP  0  0  0  0  0  0  0  0  0  0  0  0  # atno 17371 bound_to 10713
  139.9109  134.8346  156.1531 LP  0  0  0  0  0  0  0  0  0  0  0  0  # atno 17394 bound_to 11000
  141.0663  133.6817  156.2051 LP  0  0  0  0  0  0  0  0  0  0  0  0  # atno 17395 bound_to 11000

$$$$
