AV-unprocessed.smi:2083|AV-procd|sdf|8507|dock5
  -GOLD-   2272011223D 1   1.00000     0.00000
 Structure written by MMmdl.
 44 45  0  0  0  0  0  0  0  0  3 V2000
  152.4117  142.8675  159.6295 C   0  0  0  0  0  0  0  0  0  0  0  0
  152.5624  141.5926  158.8727 C   0  0  0  0  0  0  0  0  0  0  0  0
  151.8442  141.0222  157.8601 C   0  0  0  0  0  0  0  0  0  0  0  0
  152.5401  139.8083  157.6164 C   0  0  0  0  0  0  0  0  0  0  0  0
  152.0954  138.9091  156.6116 N   0  0  0  0  0  0  0  0  0  0  0  0
  152.3106  137.5848  156.5094 C   0  0  0  0  0  0  0  0  0  0  0  0
  152.9743  136.9912  157.3679 O   0  0  0  0  0  0  0  0  0  0  0  0
  151.7276  137.0547  155.3996 N   0  5  0  0  0  0  0  0  0  0  0  0
  150.3692  136.5159  155.3545 C   0  0  0  0  0  0  0  0  0  0  0  0
  150.3849  135.0409  154.8384 C   0  0  1  0  0  0  0  0  0  0  0  0
  150.8329  134.0199  155.9116 C   0  0  0  0  0  0  0  0  0  0  0  0
  149.1184  134.5692  154.1793 N   0  3  1  0  0  0  0  0  0  0  0  0
  149.1395  133.2204  153.5383 C   0  0  0  0  0  0  0  0  0  0  0  0
  147.9184  133.0390  152.6237 C   0  0  0  0  0  0  0  0  0  0  0  0
  146.6129  133.2629  153.3986 C   0  0  0  0  0  0  0  0  0  0  0  0
  146.6204  134.6440  154.0772 C   0  0  1  0  0  0  0  0  0  0  0  0
  145.3308  134.8836  154.8750 C   0  0  0  0  0  0  0  0  0  0  0  0
  147.8716  134.7965  154.9656 C   0  0  0  0  0  0  0  0  0  0  0  0
  153.5892  139.6526  158.4106 N   0  0  0  0  0  0  0  0  0  0  0  0
  153.6085  140.7949  159.2196 O   0  0  0  0  0  0  0  0  0  0  0  0
  151.7217  143.5419  159.1223 H   0  0  0  0  0  0  0  0  0  0  0  0
  153.3707  143.3765  159.7271 H   0  0  0  0  0  0  0  0  0  0  0  0
  152.0250  142.6775  160.6308 H   0  0  0  0  0  0  0  0  0  0  0  0
  150.9626  141.4119  157.3731 H   0  0  0  0  0  0  0  0  0  0  0  0
  151.5469  139.3208  155.8714 H   0  0  0  0  0  0  0  0  0  0  0  0
  149.8818  136.5442  156.3300 H   0  0  0  0  0  0  0  0  0  0  0  0
  149.7394  137.1130  154.6947 H   0  0  0  0  0  0  0  0  0  0  0  0
  151.1464  134.9887  154.0584 H   0  0  0  0  0  0  0  0  0  0  0  0
  151.8515  134.2079  156.2563 H   0  0  0  0  0  0  0  0  0  0  0  0
  150.8269  133.0084  155.5049 H   0  0  0  0  0  0  0  0  0  0  0  0
  150.1886  134.0184  156.7921 H   0  0  0  0  0  0  0  0  0  0  0  0
  150.0453  133.0904  152.9471 H   0  0  0  0  0  0  0  0  0  0  0  0
  149.1410  132.4376  154.2983 H   0  0  0  0  0  0  0  0  0  0  0  0
  147.9767  133.7410  151.7910 H   0  0  0  0  0  0  0  0  0  0  0  0
  147.9259  132.0398  152.1872 H   0  0  0  0  0  0  0  0  0  0  0  0
  145.7619  133.1781  152.7218 H   0  0  0  0  0  0  0  0  0  0  0  0
  146.4936  132.4800  154.1491 H   0  0  0  0  0  0  0  0  0  0  0  0
  146.6680  135.4035  153.2951 H   0  0  0  0  0  0  0  0  0  0  0  0
  145.2226  134.1576  155.6816 H   0  0  0  0  0  0  0  0  0  0  0  0
  144.4519  134.8024  154.2345 H   0  0  0  0  0  0  0  0  0  0  0  0
  145.3225  135.8792  155.3195 H   0  0  0  0  0  0  0  0  0  0  0  0
  147.8217  134.0956  155.8001 H   0  0  0  0  0  0  0  0  0  0  0  0
  147.8852  135.7993  155.3948 H   0  0  0  0  0  0  0  0  0  0  0  0
  149.0241  135.2066  153.4023 H   0  0  0  0  0  0  0  0  0  0  0  0
  1  2  1  0  0  0  0
  1 21  1  0  0  0  0
  1 22  1  0  0  0  0
  1 23  1  0  0  0  0
  2 20  1  0  0  0  0
  2  3  2  0  0  0  0
  3  4  1  0  0  0  0
  3 24  1  0  0  0  0
  4  5  1  0  0  0  0
  4 19  2  0  0  0  0
  5  6  1  0  0  0  0
  5 25  1  0  0  0  0
  6  7  2  0  0  0  0
  6  8  1  0  0  0  0
  8  9  1  0  0  0  0
  9 10  1  0  0  0  0
  9 26  1  0  0  0  0
  9 27  1  0  0  0  0
 10 11  1  0  0  0  0
 10 12  1  0  0  0  0
 10 28  1  0  0  0  0
 11 29  1  0  0  0  0
 11 30  1  0  0  0  0
 11 31  1  0  0  0  0
 12 18  1  0  0  0  0
 12 13  1  0  0  0  0
 12 44  1  0  0  0  0
 13 14  1  0  0  0  0
 13 32  1  0  0  0  0
 13 33  1  0  0  0  0
 14 15  1  0  0  0  0
 14 34  1  0  0  0  0
 14 35  1  0  0  0  0
 15 16  1  0  0  0  0
 15 36  1  0  0  0  0
 15 37  1  0  0  0  0
 16 17  1  0  0  0  0
 16 18  1  0  0  0  0
 16 38  1  0  0  0  0
 17 39  1  0  0  0  0
 17 40  1  0  0  0  0
 17 41  1  0  0  0  0
 18 42  1  0  0  0  0
 18 43  1  0  0  0  0
 19 20  1  0  0  0  0
M  CHG  1   8  -1
M  CHG  1  12   1
M  END
> <s_m_source_file>
AV-unprocessed.smi

> <i_m_source_file_index>
2083

> <i_lp_mmshare_version>
43012

> <i_f3d_flags>
0

> <s_epik_input>
W0NIM11jMVtjSF1jKG5vMSlbTkhdQyg9TylbTkhdW0NIMl1bQ0BIXShbQ0gzXSlOMltDSDJdW0NIMl1bQ0gyXVtDQEBIXShbQ0gzXSlbQ0gyXTI=

> <s_epik_cmdline>
J2VwaWtfcHl0aG9uJywgJy1waCcsICc3LjAnLCAnLXRuJywgJzgnLCAnLW1hJywgJzIwMCcsICctbWV0YWxfYmluZGluZycsICctaW1hZScsICc8aW5maWxlLm1hZT4nLCAnLW9tYWUnLCAnPG91dGZpbGUubWFlPic=

> <r_epik_Ionization_Penalty>
6.76934

> <r_epik_Ionization_Penalty_Charging>
6.76934

> <r_epik_Ionization_Penalty_Neutral>
5.77849e-06

> <r_epik_State_Penalty>
6.79457

> <r_epik_Charging_Adjusted_Penalty>
13.5639

> <i_epik_Tot_Q>
0

> <i_epik_Tot_abs_Q>
2

> <r_epik_Metal_State_Penalty>
2.72837

> <b_epik_Metal_Only>
1

> <s_lp_Force_Field>
OPLS_2005

> <r_lp_Energy>
21.1768

> <b_lp_Chiralities_Consistent>
1

> <s_lp_Variant>
AV-unprocessed.smi:2083-18

> <Gold.Version>
5.8.1

> <Gold.Id.Protein>
6NUR|6NUR_protein|mol2

> <Gold.PLP.Fitness>
40.3383

> <Gold.PLP.PLP>
-27.5373

> <Gold.PLP.part.hbond>
-3.0881

> <Gold.PLP.part.metal>
0.0000

> <Gold.PLP.part.buried>
-2.9239

> <Gold.PLP.part.nonpolar>
-20.9722

> <Gold.PLP.part.repulsive>
0.1881

> <Gold.PLP.ligand.clash>
0.0000

> <Gold.PLP.ligand.torsion>
1.2170

> <Gold.PLP.Chemscore.Hbond>
5.0000

> <Gold.PLP.Chemscore.CHOScore>
0.0000

> <Gold.PLP.Chemscore.Metal>
0.0000

> <Gold.Chemscore.Hbonds>
donor molecule, donor type, donor heavy atom, donor atom, acceptor molecule, acceptor atom, score
      L1  H    12    44       P1  7948  2.00
      P1  H  7997  8008       L1    19  1.00
      P1  H 10752 10764       L1     8  1.92

> <Gold.PLP.Chemscore.Internal.Correction>
0.2352

> <Gold.Rescore>
     Score         DG    S(hbond)    S(metal)    S(lipo)     H(rot)  DE(clash)    DE(int)     intcor
     12.45     -14.78       1.77        0.00      62.31       1.52       0.01       2.32       ----

> <Gold.Chemscore.Fitness>
12.4489

> <Gold.Chemscore.DG>
-14.7839

> <Gold.Chemscore.ZeroCoef>
-5.4800

> <Gold.Chemscore.Hbond>
1.7671

> <Gold.Chemscore.Metal>
0.0000

> <Gold.Chemscore.Lipo>
62.3124

> <Gold.Chemscore.Internal_Hbond>
0.0000

> <Gold.Chemscore.DEClash>
0.0119

> <Gold.Chemscore.DEInternal>
2.3231

> <Gold.Chemscore.Rot>
1.5190

> <Gold.Chemscore.Internal.Correction>
   9.000000E+99

> <Gold.Chemscore.Hbonds>
donor molecule, donor type, donor heavy atom, donor atom, acceptor molecule, acceptor atom, score
      L1  H    12    44       P1  7948  0.40
      P1  H  7997  8008       L1    19  0.09
      P1  H 10752 10764       L1     8  0.33

> <Gold.Chemscore.Hbond.Weighted>
-5.9020

> <Gold.Chemscore.Metal.Weighted>
-0.0000

> <Gold.Chemscore.Lipo.Weighted>
-7.2905

> <Gold.Chemscore.Internal_Hbond.Weighted>
0.0000

> <Gold.Chemscore.DEClash.Weighted>
0.0119

> <Gold.Chemscore.DEInternal.Weighted>
2.3231

> <Gold.Chemscore.Rot.Weighted>
3.8886

> <Gold.Chemscore.Internal.Correction.Weighted>
   9.000000E+99

> <Gold.Protein.RotatedTorsions>
[ 6907 6896 6895 6894 ] final   59.57 input  -60.11 | X-H torsion
[ 7974 7965 7964 7962 ] final   97.13 input  175.53 | X-H torsion
[ 8008 7997 7996 7995 ] final -110.54 input   59.86 | X-H torsion
[ 10167 10162 10161 10158 ] final   98.02 input  -65.29 | X-H torsion
[ 10718 10713 10712 10709 ] final   94.86 input   66.30 | X-H torsion
[ 10763 10752 10751 10750 ] final  -53.03 input  -60.55 | X-H torsion
[ 11005 11000 10999 10996 ] final  154.33 input  -57.11 | X-H torsion

> <Gold.Protein.ActiveResidues>
 VAL166  LYS551  ARG553  GLY616  TRP617  ASP618  TYR619  PRO620  LYS621  CYS622 
 ASP623  PHE694  ASN695  SER759  ASP760  ASP761  ALA762  ILE779  LEU786  VAL792 
 PHE793  MET794  SER795  GLU796  ALA797  LYS798  CYS799  TRP800  GLU811  SER814 

> <Gold.Protein.RotatedAtoms>
  152.3926  134.6417  160.0101 H   0  0  0  0  0  0  0  0  0  0  0  0  # atno 6907 bound_to 6896
  151.6646  133.3310  159.3190 H   0  0  0  0  0  0  0  0  0  0  0  0  # atno 6908 bound_to 6896
  150.7839  134.6852  159.6510 H   0  0  0  0  0  0  0  0  0  0  0  0  # atno 6909 bound_to 6896
  145.4296  139.2312  143.3151 H   0  0  0  0  0  0  0  0  0  0  0  0  # atno 7974 bound_to 7965
  154.9761  140.0397  157.2256 H   0  0  0  0  0  0  0  0  0  0  0  0  # atno 8008 bound_to 7997
  154.7756  140.2809  155.6081 H   0  0  0  0  0  0  0  0  0  0  0  0  # atno 8009 bound_to 7997
  156.2928  140.2601  156.2570 H   0  0  0  0  0  0  0  0  0  0  0  0  # atno 8010 bound_to 7997
  139.7747  144.6910  151.0106 H   0  0  0  0  0  0  0  0  0  0  0  0  # atno 10167 bound_to 10162
  157.6944  131.0526  150.4250 H   0  0  0  0  0  0  0  0  0  0  0  0  # atno 10718 bound_to 10713
  154.1522  135.6488  153.4966 H   0  0  0  0  0  0  0  0  0  0  0  0  # atno 10763 bound_to 10752
  153.0134  135.5341  154.6796 H   0  0  0  0  0  0  0  0  0  0  0  0  # atno 10764 bound_to 10752
  154.6087  135.2951  155.0427 H   0  0  0  0  0  0  0  0  0  0  0  0  # atno 10765 bound_to 10752
  140.1479  134.8694  157.2417 H   0  0  0  0  0  0  0  0  0  0  0  0  # atno 11005 bound_to 11000
  146.2614  140.5032  142.8852 LP  0  0  0  0  0  0  0  0  0  0  0  0  # atno 17320 bound_to 7965
  144.8191  140.6519  143.6365 LP  0  0  0  0  0  0  0  0  0  0  0  0  # atno 17321 bound_to 7965
  140.7816  143.4549  151.0360 LP  0  0  0  0  0  0  0  0  0  0  0  0  # atno 17342 bound_to 10162
  139.8231  143.7792  152.3177 LP  0  0  0  0  0  0  0  0  0  0  0  0  # atno 17343 bound_to 10162
  156.4622  130.4034  149.6569 LP  0  0  0  0  0  0  0  0  0  0  0  0  # atno 17370 bound_to 10713
  156.3680  130.7516  151.2496 LP  0  0  0  0  0  0  0  0  0  0  0  0  # atno 17371 bound_to 10713
  140.2641  134.3537  155.7396 LP  0  0  0  0  0  0  0  0  0  0  0  0  # atno 17394 bound_to 11000
  141.2195  133.7386  156.9124 LP  0  0  0  0  0  0  0  0  0  0  0  0  # atno 17395 bound_to 11000

$$$$
