AV-unprocessed.smi:717|AV-procd|sdf|3490|dock9
  -GOLD-   22720 0483D 1   1.00000     0.00000
 Structure written by MMmdl.
 43 44  0  0  0  0  0  0  0  0  1 V2000
  149.9715  135.9040  159.3318 O   0  0  0  0  0  0  0  0  0  0  0  0
  149.7195  136.9769  159.8808 C   0  0  0  0  0  0  0  0  0  0  0  0
  148.4576  137.1286  160.7339 C   0  0  0  0  0  0  0  0  0  0  0  0
  148.4634  136.1409  161.8871 C   0  0  0  0  0  0  0  0  0  0  0  0
  148.4302  134.7507  161.6506 C   0  0  0  0  0  0  0  0  0  0  0  0
  148.4328  133.8749  162.7530 C   0  0  0  0  0  0  0  0  0  0  0  0
  148.4687  134.4279  164.0486 C   0  0  0  0  0  0  0  0  0  0  0  0
  148.5019  135.7567  164.2875 N   0  0  0  0  0  0  0  0  0  0  0  0
  148.4987  136.5899  163.2248 C   0  0  0  0  0  0  0  0  0  0  0  0
  150.5067  138.0591  159.7805 N   0  0  0  0  0  0  0  0  0  0  0  0
  151.7503  138.1261  159.0217 C   0  0  0  0  0  0  0  0  0  0  0  0
  152.7583  139.0935  159.6645 C   0  0  0  0  0  0  0  0  0  0  0  0
  152.3122  140.5591  159.5650 C   0  0  0  0  0  0  0  0  0  0  0  0
  153.3197  141.5254  160.2075 C   0  0  0  0  0  0  0  0  0  0  0  0
  153.0807  142.9967  159.8246 C   0  0  0  0  0  0  0  0  0  0  0  0
  152.4290  143.8176  160.9387 C   0  0  0  0  0  0  0  0  0  0  0  0
  151.8933  145.0624  160.2293 C   0  0  0  0  0  0  0  0  0  0  0  0
  151.5592  144.6170  158.7981 C   0  0  0  0  0  0  0  0  0  0  0  0
  152.1316  143.2013  158.6373 C   0  0  0  0  0  0  0  0  0  0  0  0
  148.4077  138.1483  161.1174 H   0  0  0  0  0  0  0  0  0  0  0  0
  147.5622  136.9735  160.1295 H   0  0  0  0  0  0  0  0  0  0  0  0
  148.4001  134.3615  160.6434 H   0  0  0  0  0  0  0  0  0  0  0  0
  148.4062  132.8049  162.6091 H   0  0  0  0  0  0  0  0  0  0  0  0
  148.4708  133.7850  164.9162 H   0  0  0  0  0  0  0  0  0  0  0  0
  148.5227  137.6462  163.4488 H   0  0  0  0  0  0  0  0  0  0  0  0
  150.2224  138.8989  160.2640 H   0  0  0  0  0  0  0  0  0  0  0  0
  152.1833  137.1290  158.9265 H   0  0  0  0  0  0  0  0  0  0  0  0
  151.5098  138.4576  158.0112 H   0  0  0  0  0  0  0  0  0  0  0  0
  152.9011  138.8279  160.7127 H   0  0  0  0  0  0  0  0  0  0  0  0
  153.7304  138.9823  159.1825 H   0  0  0  0  0  0  0  0  0  0  0  0
  152.1760  140.8247  158.5160 H   0  0  0  0  0  0  0  0  0  0  0  0
  151.3380  140.6724  160.0416 H   0  0  0  0  0  0  0  0  0  0  0  0
  153.2952  141.4156  161.2925 H   0  0  0  0  0  0  0  0  0  0  0  0
  154.3261  141.2422  159.8965 H   0  0  0  0  0  0  0  0  0  0  0  0
  154.0384  143.4619  159.5849 H   0  0  0  0  0  0  0  0  0  0  0  0
  151.5991  143.2613  161.3769 H   0  0  0  0  0  0  0  0  0  0  0  0
  153.1253  144.0629  161.7414 H   0  0  0  0  0  0  0  0  0  0  0  0
  151.0319  145.4888  160.7442 H   0  0  0  0  0  0  0  0  0  0  0  0
  152.6695  145.8281  160.2001 H   0  0  0  0  0  0  0  0  0  0  0  0
  150.4826  144.6166  158.6244 H   0  0  0  0  0  0  0  0  0  0  0  0
  152.0047  145.3024  158.0761 H   0  0  0  0  0  0  0  0  0  0  0  0
  152.6339  143.0673  157.6787 H   0  0  0  0  0  0  0  0  0  0  0  0
  151.3166  142.4773  158.6827 H   0  0  0  0  0  0  0  0  0  0  0  0
  1  2  2  0  0  0  0
  2  3  1  0  0  0  0
  2 10  1  0  0  0  0
  3  4  1  0  0  0  0
  3 20  1  0  0  0  0
  3 21  1  0  0  0  0
  4  9  1  0  0  0  0
  4  5  2  0  0  0  0
  5  6  1  0  0  0  0
  5 22  1  0  0  0  0
  6  7  2  0  0  0  0
  6 23  1  0  0  0  0
  7  8  1  0  0  0  0
  7 24  1  0  0  0  0
  8  9  2  0  0  0  0
  9 25  1  0  0  0  0
 10 11  1  0  0  0  0
 10 26  1  0  0  0  0
 11 12  1  0  0  0  0
 11 27  1  0  0  0  0
 11 28  1  0  0  0  0
 12 13  1  0  0  0  0
 12 29  1  0  0  0  0
 12 30  1  0  0  0  0
 13 14  1  0  0  0  0
 13 31  1  0  0  0  0
 13 32  1  0  0  0  0
 14 15  1  0  0  0  0
 14 33  1  0  0  0  0
 14 34  1  0  0  0  0
 15 19  1  0  0  0  0
 15 16  1  0  0  0  0
 15 35  1  0  0  0  0
 16 17  1  0  0  0  0
 16 36  1  0  0  0  0
 16 37  1  0  0  0  0
 17 18  1  0  0  0  0
 17 38  1  0  0  0  0
 17 39  1  0  0  0  0
 18 19  1  0  0  0  0
 18 40  1  0  0  0  0
 18 41  1  0  0  0  0
 19 42  1  0  0  0  0
 19 43  1  0  0  0  0
M  END
> <s_m_source_file>
AV-unprocessed.smi

> <i_m_source_file_index>
717

> <i_lp_mmshare_version>
43012

> <i_f3d_flags>
0

> <s_epik_input>
W2NIXTFuW2NIXVtjSF1bY0hdYzFbQ0gyXUMoPU8pW05IXVtDSDJdW0NIMl1bQ0gyXVtDSDJdW0NIXTJbQ0gyXVtDSDJdW0NIMl1bQ0gyXTI=

> <s_epik_cmdline>
J2VwaWtfcHl0aG9uJywgJy1waCcsICc3LjAnLCAnLXRuJywgJzgnLCAnLW1hJywgJzIwMCcsICctbWV0YWxfYmluZGluZycsICctaW1hZScsICc8aW5maWxlLm1hZT4nLCAnLW9tYWUnLCAnPG91dGZpbGUubWFlPic=

> <r_epik_Ionization_Penalty>
0.00412097

> <r_epik_Ionization_Penalty_Charging>
0

> <r_epik_Ionization_Penalty_Neutral>
0.00412097

> <r_epik_State_Penalty>
0.00295657

> <r_epik_Charging_Adjusted_Penalty>
0.00295657

> <i_epik_Tot_Q>
0

> <i_epik_Tot_abs_Q>
0

> <r_epik_Metal_State_Penalty>
-0

> <b_epik_Metal_Only>
0

> <s_lp_Force_Field>
OPLS_2005

> <r_lp_Energy>
20.3192

> <b_lp_Chiralities_Consistent>
1

> <s_lp_Variant>
AV-unprocessed.smi:717-1

> <Gold.Version>
5.8.1

> <Gold.Id.Protein>
6NUR|6NUR_protein|mol2

> <Gold.PLP.Fitness>
49.3917

> <Gold.PLP.PLP>
-48.1286

> <Gold.PLP.part.hbond>
-1.0000

> <Gold.PLP.part.metal>
0.0000

> <Gold.PLP.part.buried>
-5.4525

> <Gold.PLP.part.nonpolar>
-41.7715

> <Gold.PLP.part.repulsive>
0.2099

> <Gold.PLP.ligand.clash>
0.0000

> <Gold.PLP.ligand.torsion>
0.9083

> <Gold.PLP.Chemscore.Hbond>
0.9920

> <Gold.PLP.Chemscore.CHOScore>
0.0000

> <Gold.PLP.Chemscore.Metal>
0.0000

> <Gold.Chemscore.Hbonds>
donor molecule, donor type, donor heavy atom, donor atom, acceptor molecule, acceptor atom, score
      P1  H  6896  6909       L1     1  0.75

> <Gold.PLP.Chemscore.Internal.Correction>
0.1037

> <Gold.Rescore>
     Score         DG    S(hbond)    S(metal)    S(lipo)     H(rot)  DE(clash)    DE(int)     intcor
     17.92     -20.28       0.96        0.00     135.68       1.67       0.19       2.16       ----

> <Gold.Chemscore.Fitness>
17.9198

> <Gold.Chemscore.DG>
-20.2782

> <Gold.Chemscore.ZeroCoef>
-5.4800

> <Gold.Chemscore.Hbond>
0.9560

> <Gold.Chemscore.Metal>
0.0000

> <Gold.Chemscore.Lipo>
135.6763

> <Gold.Chemscore.Internal_Hbond>
0.0000

> <Gold.Chemscore.DEClash>
0.1943

> <Gold.Chemscore.DEInternal>
2.1641

> <Gold.Chemscore.Rot>
1.6676

> <Gold.Chemscore.Internal.Correction>
   9.000000E+99

> <Gold.Chemscore.Hbonds>
donor molecule, donor type, donor heavy atom, donor atom, acceptor molecule, acceptor atom, score
      P1  H  6896  6909       L1     1  0.75

> <Gold.Chemscore.Hbond.Weighted>
-3.1931

> <Gold.Chemscore.Metal.Weighted>
-0.0000

> <Gold.Chemscore.Lipo.Weighted>
-15.8741

> <Gold.Chemscore.Internal_Hbond.Weighted>
0.0000

> <Gold.Chemscore.DEClash.Weighted>
0.1943

> <Gold.Chemscore.DEInternal.Weighted>
2.1641

> <Gold.Chemscore.Rot.Weighted>
4.2690

> <Gold.Chemscore.Internal.Correction.Weighted>
   9.000000E+99

> <Gold.Protein.RotatedTorsions>
[ 6907 6896 6895 6894 ] final   59.13 input  -60.11 | X-H torsion
[ 7974 7965 7964 7962 ] final   61.27 input  175.53 | X-H torsion
[ 8008 7997 7996 7995 ] final  147.83 input   59.86 | X-H torsion
[ 10167 10162 10161 10158 ] final -170.67 input  -65.29 | X-H torsion
[ 10718 10713 10712 10709 ] final  -62.48 input   66.30 | X-H torsion
[ 10763 10752 10751 10750 ] final   82.89 input  -60.55 | X-H torsion
[ 11005 11000 10999 10996 ] final  172.71 input  -57.11 | X-H torsion

> <Gold.Protein.ActiveResidues>
 VAL166  LYS551  ARG553  GLY616  TRP617  ASP618  TYR619  PRO620  LYS621  CYS622 
 ASP623  PHE694  ASN695  SER759  ASP760  ASP761  ALA762  ILE779  LEU786  VAL792 
 PHE793  MET794  SER795  GLU796  ALA797  LYS798  CYS799  TRP800  GLU811  SER814 

> <Gold.Protein.RotatedAtoms>
  152.3887  134.6476  160.0115 H   0  0  0  0  0  0  0  0  0  0  0  0  # atno 6907 bound_to 6896
  151.6717  133.3308  159.3206 H   0  0  0  0  0  0  0  0  0  0  0  0  # atno 6908 bound_to 6896
  150.7807  134.6793  159.6480 H   0  0  0  0  0  0  0  0  0  0  0  0  # atno 6909 bound_to 6896
  145.8867  139.3481  143.0674 H   0  0  0  0  0  0  0  0  0  0  0  0  # atno 7974 bound_to 7965
  156.2812  140.2145  156.5600 H   0  0  0  0  0  0  0  0  0  0  0  0  # atno 8008 bound_to 7997
  154.7221  140.0502  157.0671 H   0  0  0  0  0  0  0  0  0  0  0  0  # atno 8009 bound_to 7997
  155.0465  140.3151  155.4709 H   0  0  0  0  0  0  0  0  0  0  0  0  # atno 8010 bound_to 7997
  139.5848  144.1343  152.1561 H   0  0  0  0  0  0  0  0  0  0  0  0  # atno 10167 bound_to 10162
  156.0852  130.4209  150.1142 H   0  0  0  0  0  0  0  0  0  0  0  0  # atno 10718 bound_to 10713
  153.1242  135.4711  154.9245 H   0  0  0  0  0  0  0  0  0  0  0  0  # atno 10763 bound_to 10752
  154.7605  135.3130  154.8391 H   0  0  0  0  0  0  0  0  0  0  0  0  # atno 10764 bound_to 10752
  153.8948  135.6881  153.4812 H   0  0  0  0  0  0  0  0  0  0  0  0  # atno 10765 bound_to 10752
  140.3326  134.7344  157.4145 H   0  0  0  0  0  0  0  0  0  0  0  0  # atno 11005 bound_to 11000
  145.8958  140.9274  143.0528 LP  0  0  0  0  0  0  0  0  0  0  0  0  # atno 17320 bound_to 7965
  144.6729  140.0967  143.7462 LP  0  0  0  0  0  0  0  0  0  0  0  0  # atno 17321 bound_to 7965
  140.0904  144.5625  150.7058 LP  0  0  0  0  0  0  0  0  0  0  0  0  # atno 17342 bound_to 10162
  140.7121  143.2513  151.4549 LP  0  0  0  0  0  0  0  0  0  0  0  0  # atno 17343 bound_to 10162
  156.9164  130.9668  151.3555 LP  0  0  0  0  0  0  0  0  0  0  0  0  # atno 17370 bound_to 10713
  157.5984  130.8494  149.8764 LP  0  0  0  0  0  0  0  0  0  0  0  0  # atno 17371 bound_to 10713
  140.0848  134.5682  155.8504 LP  0  0  0  0  0  0  0  0  0  0  0  0  # atno 17394 bound_to 11000
  141.2059  133.6651  156.6211 LP  0  0  0  0  0  0  0  0  0  0  0  0  # atno 17395 bound_to 11000

$$$$
