AV-unprocessed.smi:536|AV-procd|sdf|2863|dock5
  -GOLD-   2262023353D 1   1.00000     0.00000
 Structure written by MMmdl.
 45 47  0  0  0  0  0  0  0  0  2 V2000
  147.7088  141.0814  153.5089 C   0  0  0  0  0  0  0  0  0  0  0  0
  148.9817  141.5423  153.9235 O   0  0  0  0  0  0  0  0  0  0  0  0
  149.2170  141.3346  155.3060 C   0  0  0  0  0  0  0  0  0  0  0  0
  150.5920  141.8878  155.7210 C   0  0  0  0  0  0  0  0  0  0  0  0
  151.2860  141.0580  156.7049 N   0  0  0  0  0  0  0  0  0  0  0  0
  151.7133  141.4126  157.9466 C   0  0  0  0  0  0  0  0  0  0  0  0
  151.4953  142.6876  158.4699 N   0  0  0  0  0  0  0  0  0  0  0  0
  151.5902  143.9176  157.6905 C   0  0  0  0  0  0  0  0  0  0  0  0
  152.5280  144.9830  158.2901 C   0  0  0  0  0  0  0  0  0  0  0  0
  151.9267  145.6934  159.5121 C   0  0  0  0  0  0  0  0  0  0  0  0
  152.0836  144.9435  160.8473 C   0  0  0  0  0  0  0  0  0  0  0  0
  151.8848  143.4164  160.8079 C   0  0  0  0  0  0  0  0  0  0  0  0
  150.8704  142.9094  159.7706 C   0  0  0  0  0  0  0  0  0  0  0  0
  152.3796  140.4608  158.6020 N   0  0  0  0  0  0  0  0  0  0  0  0
  152.3600  139.3993  157.7106 C   0  0  0  0  0  0  0  0  0  0  0  0
  151.7175  139.7339  156.5591 C   0  0  0  0  0  0  0  0  0  0  0  0
  151.5651  138.8144  155.4079 C   0  0  0  0  0  0  0  0  0  0  0  0
  150.9954  139.1705  154.3784 O   0  0  0  0  0  0  0  0  0  0  0  0
  152.1244  137.5863  155.6485 N   0  5  0  0  0  0  0  0  0  0  0  0
  152.7767  137.2046  156.8006 C   0  0  0  0  0  0  0  0  0  0  0  0
  153.2524  136.0762  156.9351 O   0  0  0  0  0  0  0  0  0  0  0  0
  152.9091  138.0938  157.8344 N   0  0  0  0  0  0  0  0  0  0  0  0
  153.6041  137.7172  159.0687 C   0  0  0  0  0  0  0  0  0  0  0  0
  147.5823  141.2682  152.4425 H   0  0  0  0  0  0  0  0  0  0  0  0
  146.9094  141.6005  154.0391 H   0  0  0  0  0  0  0  0  0  0  0  0
  147.6039  140.0089  153.6778 H   0  0  0  0  0  0  0  0  0  0  0  0
  148.4395  141.8250  155.8931 H   0  0  0  0  0  0  0  0  0  0  0  0
  149.1513  140.2711  155.5273 H   0  0  0  0  0  0  0  0  0  0  0  0
  151.2288  141.9978  154.8450 H   0  0  0  0  0  0  0  0  0  0  0  0
  150.4884  142.8980  156.1134 H   0  0  0  0  0  0  0  0  0  0  0  0
  151.9249  143.6601  156.6865 H   0  0  0  0  0  0  0  0  0  0  0  0
  150.5904  144.3327  157.5577 H   0  0  0  0  0  0  0  0  0  0  0  0
  153.5105  144.5734  158.5220 H   0  0  0  0  0  0  0  0  0  0  0  0
  152.6971  145.7356  157.5195 H   0  0  0  0  0  0  0  0  0  0  0  0
  152.3930  146.6734  159.6192 H   0  0  0  0  0  0  0  0  0  0  0  0
  150.8712  145.8957  159.3264 H   0  0  0  0  0  0  0  0  0  0  0  0
  153.0726  145.1468  161.2592 H   0  0  0  0  0  0  0  0  0  0  0  0
  151.3788  145.3753  161.5586 H   0  0  0  0  0  0  0  0  0  0  0  0
  152.8442  142.9231  160.6457 H   0  0  0  0  0  0  0  0  0  0  0  0
  151.5643  143.0959  161.7996 H   0  0  0  0  0  0  0  0  0  0  0  0
  150.0165  143.5831  159.6899 H   0  0  0  0  0  0  0  0  0  0  0  0
  150.4666  141.9573  160.1166 H   0  0  0  0  0  0  0  0  0  0  0  0
  154.6289  137.4122  158.8528 H   0  0  0  0  0  0  0  0  0  0  0  0
  153.0943  136.8836  159.5541 H   0  0  0  0  0  0  0  0  0  0  0  0
  153.6542  138.5329  159.7897 H   0  0  0  0  0  0  0  0  0  0  0  0
  1  2  1  0  0  0  0
  1 24  1  0  0  0  0
  1 25  1  0  0  0  0
  1 26  1  0  0  0  0
  2  3  1  0  0  0  0
  3  4  1  0  0  0  0
  3 27  1  0  0  0  0
  3 28  1  0  0  0  0
  4  5  1  0  0  0  0
  4 29  1  0  0  0  0
  4 30  1  0  0  0  0
  5 16  1  0  0  0  0
  5  6  1  0  0  0  0
  6  7  1  0  0  0  0
  6 14  2  0  0  0  0
  7 13  1  0  0  0  0
  7  8  1  0  0  0  0
  8  9  1  0  0  0  0
  8 31  1  0  0  0  0
  8 32  1  0  0  0  0
  9 10  1  0  0  0  0
  9 33  1  0  0  0  0
  9 34  1  0  0  0  0
 10 11  1  0  0  0  0
 10 35  1  0  0  0  0
 10 36  1  0  0  0  0
 11 12  1  0  0  0  0
 11 37  1  0  0  0  0
 11 38  1  0  0  0  0
 12 13  1  0  0  0  0
 12 39  1  0  0  0  0
 12 40  1  0  0  0  0
 13 41  1  0  0  0  0
 13 42  1  0  0  0  0
 14 15  1  0  0  0  0
 15 22  1  0  0  0  0
 15 16  2  0  0  0  0
 16 17  1  0  0  0  0
 17 18  2  0  0  0  0
 17 19  1  0  0  0  0
 19 20  1  0  0  0  0
 20 21  2  0  0  0  0
 20 22  1  0  0  0  0
 22 23  1  0  0  0  0
 23 43  1  0  0  0  0
 23 44  1  0  0  0  0
 23 45  1  0  0  0  0
M  CHG  1  19  -1
M  END
> <s_m_source_file>
AV-unprocessed.smi

> <i_m_source_file_index>
536

> <i_lp_mmshare_version>
43012

> <i_f3d_flags>
0

> <s_epik_input>
W0NIM11uMWMoPU8pW25IXWMoPU8pYyhjMTIpbihbQ0gyXVtDSDJdT1tDSDNdKWMobjIpTjNbQ0gyXVtDSDJdW0NIMl1bQ0gyXVtDSDJdW0NIMl0z

> <s_epik_cmdline>
J2VwaWtfcHl0aG9uJywgJy1waCcsICc3LjAnLCAnLXRuJywgJzgnLCAnLW1hJywgJzIwMCcsICctbWV0YWxfYmluZGluZycsICctaW1hZScsICc8aW5maWxlLm1hZT4nLCAnLW9tYWUnLCAnPG91dGZpbGUubWFlPic=

> <r_lp_tautomer_probability>
1

> <r_epik_Ionization_Penalty>
6.16859

> <r_epik_Ionization_Penalty_Charging>
0.0798692

> <r_epik_Ionization_Penalty_Neutral>
6.08873

> <r_epik_State_Penalty>
6.08498

> <r_epik_Charging_Adjusted_Penalty>
6.16485

> <i_epik_Tot_Q>
-1

> <i_epik_Tot_abs_Q>
1

> <r_epik_Metal_State_Penalty>
2.03194

> <b_epik_Metal_Only>
1

> <s_lp_Force_Field>
OPLS_2005

> <r_lp_Energy>
48.7455

> <b_lp_Chiralities_Consistent>
1

> <s_lp_Variant>
AV-unprocessed.smi:536-2

> <Gold.Version>
5.8.1

> <Gold.Id.Protein>
6NUR|6NUR_protein|mol2

> <Gold.PLP.Fitness>
48.8901

> <Gold.PLP.PLP>
-42.1551

> <Gold.PLP.part.hbond>
-3.7951

> <Gold.PLP.part.metal>
0.0000

> <Gold.PLP.part.buried>
-2.4641

> <Gold.PLP.part.nonpolar>
-36.1217

> <Gold.PLP.part.repulsive>
0.3565

> <Gold.PLP.ligand.clash>
0.0242

> <Gold.PLP.ligand.torsion>
1.0624

> <Gold.PLP.Chemscore.Hbond>
2.6880

> <Gold.PLP.Chemscore.CHOScore>
0.0000

> <Gold.PLP.Chemscore.Metal>
0.0000

> <Gold.Chemscore.Hbonds>
donor molecule, donor type, donor heavy atom, donor atom, acceptor molecule, acceptor atom, score
      P1  H  7989  7998       L1    18  1.00
      P1  H  8011  8017       L1     2  0.69
      P1  H 10752 10765       L1    21  1.00

> <Gold.PLP.Chemscore.Internal.Correction>
0.8201

> <Gold.Rescore>
     Score         DG    S(hbond)    S(metal)    S(lipo)     H(rot)  DE(clash)    DE(int)     intcor
     17.31     -20.66       2.05        0.00     102.74       1.44       1.17       2.18       ----

> <Gold.Chemscore.Fitness>
17.3138

> <Gold.Chemscore.DG>
-20.6641

> <Gold.Chemscore.ZeroCoef>
-5.4800

> <Gold.Chemscore.Hbond>
2.0487

> <Gold.Chemscore.Metal>
0.0000

> <Gold.Chemscore.Lipo>
102.7419

> <Gold.Chemscore.Internal_Hbond>
0.0000

> <Gold.Chemscore.DEClash>
1.1673

> <Gold.Chemscore.DEInternal>
2.1830

> <Gold.Chemscore.Rot>
1.4372

> <Gold.Chemscore.Internal.Correction>
   9.000000E+99

> <Gold.Chemscore.Hbonds>
donor molecule, donor type, donor heavy atom, donor atom, acceptor molecule, acceptor atom, score
      P1  H  7989  7998       L1    18  0.91
      P1  H  8011  8017       L1     2  0.37
      P1  H 10752 10765       L1    21  0.60

> <Gold.Chemscore.Hbond.Weighted>
-6.8426

> <Gold.Chemscore.Metal.Weighted>
-0.0000

> <Gold.Chemscore.Lipo.Weighted>
-12.0208

> <Gold.Chemscore.Internal_Hbond.Weighted>
0.0000

> <Gold.Chemscore.DEClash.Weighted>
1.1673

> <Gold.Chemscore.DEInternal.Weighted>
2.1830

> <Gold.Chemscore.Rot.Weighted>
3.6793

> <Gold.Chemscore.Internal.Correction.Weighted>
   9.000000E+99

> <Gold.Protein.RotatedTorsions>
[ 6907 6896 6895 6894 ] final  -51.75 input  -60.11 | X-H torsion
[ 7974 7965 7964 7962 ] final  141.88 input  175.53 | X-H torsion
[ 8008 7997 7996 7995 ] final   11.11 input   59.86 | X-H torsion
[ 10167 10162 10161 10158 ] final  104.28 input  -65.29 | X-H torsion
[ 10718 10713 10712 10709 ] final  -93.31 input   66.30 | X-H torsion
[ 10763 10752 10751 10750 ] final -126.82 input  -60.55 | X-H torsion
[ 11005 11000 10999 10996 ] final  126.70 input  -57.11 | X-H torsion

> <Gold.Protein.ActiveResidues>
 VAL166  LYS551  ARG553  GLY616  TRP617  ASP618  TYR619  PRO620  LYS621  CYS622 
 ASP623  PHE694  ASN695  SER759  ASP760  ASP761  ALA762  ILE779  LEU786  VAL792 
 PHE793  MET794  SER795  GLU796  ALA797  LYS798  CYS799  TRP800  GLU811  SER814 

> <Gold.Protein.RotatedAtoms>
  150.8582  134.7926  159.7061 H   0  0  0  0  0  0  0  0  0  0  0  0  # atno 6907 bound_to 6896
  152.4627  134.5144  159.9773 H   0  0  0  0  0  0  0  0  0  0  0  0  # atno 6908 bound_to 6896
  151.5252  133.3421  159.2944 H   0  0  0  0  0  0  0  0  0  0  0  0  # atno 6909 bound_to 6896
  144.9057  139.5361  143.5732 H   0  0  0  0  0  0  0  0  0  0  0  0  # atno 7974 bound_to 7965
  154.8025  140.2854  155.5911 H   0  0  0  0  0  0  0  0  0  0  0  0  # atno 8008 bound_to 7997
  156.2979  140.2584  156.2826 H   0  0  0  0  0  0  0  0  0  0  0  0  # atno 8009 bound_to 7997
  154.9541  140.0379  157.2148 H   0  0  0  0  0  0  0  0  0  0  0  0  # atno 8010 bound_to 7997
  139.7191  144.7062  151.0902 H   0  0  0  0  0  0  0  0  0  0  0  0  # atno 10167 bound_to 10162
  156.0012  130.5022  150.5757 H   0  0  0  0  0  0  0  0  0  0  0  0  # atno 10718 bound_to 10713
  154.8748  135.3982  154.3494 H   0  0  0  0  0  0  0  0  0  0  0  0  # atno 10763 bound_to 10752
  153.4281  135.7024  153.6254 H   0  0  0  0  0  0  0  0  0  0  0  0  # atno 10764 bound_to 10752
  153.4887  135.3753  155.2450 H   0  0  0  0  0  0  0  0  0  0  0  0  # atno 10765 bound_to 10752
  139.9469  134.9628  156.8746 H   0  0  0  0  0  0  0  0  0  0  0  0  # atno 11005 bound_to 11000
  146.3132  139.7823  142.9003 LP  0  0  0  0  0  0  0  0  0  0  0  0  # atno 17320 bound_to 7965
  145.3540  141.0313  143.3322 LP  0  0  0  0  0  0  0  0  0  0  0  0  # atno 17321 bound_to 7965
  140.7750  143.5190  150.9559 LP  0  0  0  0  0  0  0  0  0  0  0  0  # atno 17342 bound_to 10162
  139.8877  143.6992  152.3149 LP  0  0  0  0  0  0  0  0  0  0  0  0  # atno 17343 bound_to 10162
  157.3645  131.0755  151.1609 LP  0  0  0  0  0  0  0  0  0  0  0  0  # atno 17370 bound_to 10713
  157.2383  130.6557  149.5879 LP  0  0  0  0  0  0  0  0  0  0  0  0  # atno 17371 bound_to 10713
  140.5812  134.0350  155.7465 LP  0  0  0  0  0  0  0  0  0  0  0  0  # atno 17394 bound_to 11000
  141.1122  133.9598  157.2888 LP  0  0  0  0  0  0  0  0  0  0  0  0  # atno 17395 bound_to 11000

$$$$
