AV-unprocessed.smi:644|AV-procd|sdf|3157|dock7
  -GOLD-   22720 0 83D 1   1.00000     0.00000
 Structure written by MMmdl.
 38 40  0  0  0  0  0  0  0  0  2 V2000
  152.0585  144.1129  161.0122 C   0  0  0  0  0  0  0  0  0  0  0  0
  151.9336  143.1682  159.8290 C   0  0  0  0  0  0  0  0  0  0  0  0
  151.0273  143.4982  158.7957 C   0  0  0  0  0  0  0  0  0  0  0  0
  150.9353  142.6144  157.7271 C   0  0  0  0  0  0  0  0  0  0  0  0
  150.1520  142.6533  156.5714 N   0  3  0  0  0  0  0  0  0  0  0  0
  150.4111  141.5544  155.8099 C   0  0  0  0  0  0  0  0  0  0  0  0
  151.3481  140.8153  156.4631 N   0  0  0  0  0  0  0  0  0  0  0  0
  151.9828  139.5470  156.0815 C   0  0  0  0  0  0  0  0  0  0  0  0
  150.9717  138.3942  155.9278 C   0  0  2  0  0  0  0  0  0  0  0  0
  150.1335  138.6472  154.8162 O   0  0  0  0  0  0  0  0  0  0  0  0
  150.1053  138.2214  157.1851 C   0  0  0  0  0  0  0  0  0  0  0  0
  149.1460  136.6756  157.1452 S   0  0  0  0  0  0  0  0  0  0  0  0
  148.5688  136.6249  158.8119 C   0  0  0  0  0  0  0  0  0  0  0  0
  148.8115  137.5585  159.7432 N   0  0  0  0  0  0  0  0  0  0  0  0
  148.2281  137.2508  160.9647 N   0  0  0  0  0  0  0  0  0  0  0  0
  147.5647  136.0935  160.9116 C   0  0  0  0  0  0  0  0  0  0  0  0
  147.5930  135.2687  159.3643 S   0  0  0  0  0  0  0  0  0  0  0  0
  151.7052  141.4371  157.6636 C   0  0  0  0  0  0  0  0  0  0  0  0
  152.6028  141.0964  158.6722 C   0  0  0  0  0  0  0  0  0  0  0  0
  152.7109  141.9824  159.7680 C   0  0  0  0  0  0  0  0  0  0  0  0
  153.6805  141.6374  160.8854 C   0  0  0  0  0  0  0  0  0  0  0  0
  151.4134  144.9844  160.8970 H   0  0  0  0  0  0  0  0  0  0  0  0
  153.0838  144.4696  161.1127 H   0  0  0  0  0  0  0  0  0  0  0  0
  151.7744  143.6079  161.9359 H   0  0  0  0  0  0  0  0  0  0  0  0
  150.4321  144.3988  158.8355 H   0  0  0  0  0  0  0  0  0  0  0  0
  149.9600  141.3146  154.8578 H   0  0  0  0  0  0  0  0  0  0  0  0
  152.5426  139.7039  155.1587 H   0  0  0  0  0  0  0  0  0  0  0  0
  152.7169  139.3056  156.8516 H   0  0  0  0  0  0  0  0  0  0  0  0
  151.5117  137.4659  155.7369 H   0  0  0  0  0  0  0  0  0  0  0  0
  150.6617  139.0096  154.1209 H   0  0  0  0  0  0  0  0  0  0  0  0
  150.7436  138.2049  158.0694 H   0  0  0  0  0  0  0  0  0  0  0  0
  149.4261  139.0683  157.2927 H   0  0  0  0  0  0  0  0  0  0  0  0
  147.0568  135.7227  161.7895 H   0  0  0  0  0  0  0  0  0  0  0  0
  153.1943  140.1941  158.6232 H   0  0  0  0  0  0  0  0  0  0  0  0
  154.1937  140.6950  160.6916 H   0  0  0  0  0  0  0  0  0  0  0  0
  153.1521  141.5395  161.8341 H   0  0  0  0  0  0  0  0  0  0  0  0
  154.4387  142.4143  160.9887 H   0  0  0  0  0  0  0  0  0  0  0  0
  149.4905  143.3759  156.3171 H   0  0  0  0  0  0  0  0  0  0  0  0
  1  2  1  0  0  0  0
  1 22  1  0  0  0  0
  1 23  1  0  0  0  0
  1 24  1  0  0  0  0
  2 20  1  0  0  0  0
  2  3  2  0  0  0  0
  3  4  1  0  0  0  0
  3 25  1  0  0  0  0
  4 18  2  0  0  0  0
  4  5  1  0  0  0  0
  5  6  2  0  0  0  0
  5 38  1  0  0  0  0
  6  7  1  0  0  0  0
  6 26  1  0  0  0  0
  7  8  1  0  0  0  0
  7 18  1  0  0  0  0
  8  9  1  0  0  0  0
  8 27  1  0  0  0  0
  8 28  1  0  0  0  0
  9 10  1  0  0  0  0
  9 11  1  0  0  0  0
  9 29  1  0  0  0  0
 10 30  1  0  0  0  0
 11 12  1  0  0  0  0
 11 31  1  0  0  0  0
 11 32  1  0  0  0  0
 12 13  1  0  0  0  0
 13 17  1  0  0  0  0
 13 14  2  0  0  0  0
 14 15  1  0  0  0  0
 15 16  2  0  0  0  0
 16 17  1  0  0  0  0
 16 33  1  0  0  0  0
 18 19  1  0  0  0  0
 19 20  2  0  0  0  0
 19 34  1  0  0  0  0
 20 21  1  0  0  0  0
 21 35  1  0  0  0  0
 21 36  1  0  0  0  0
 21 37  1  0  0  0  0
M  CHG  1   5   1
M  END
> <s_m_source_file>
AV-unprocessed.smi

> <i_m_source_file_index>
644

> <i_lp_mmshare_version>
43012

> <i_f3d_flags>
0

> <s_epik_input>
W0NIM11jKFtjSF0xKWMoW0NIM10pW2NIXWMoYzEyKW4oW2NIXW4yKVtDSDJdW0NASF0oW09IXSlbQ0gyXVNjM25uW2NIXXMz

> <s_epik_cmdline>
J2VwaWtfcHl0aG9uJywgJy1waCcsICc3LjAnLCAnLXRuJywgJzgnLCAnLW1hJywgJzIwMCcsICctbWV0YWxfYmluZGluZycsICctaW1hZScsICc8aW5maWxlLm1hZT4nLCAnLW9tYWUnLCAnPG91dGZpbGUubWFlPic=

> <r_lp_tautomer_probability>
1

> <r_epik_Ionization_Penalty>
1.07492

> <r_epik_Ionization_Penalty_Charging>
1.07491

> <r_epik_Ionization_Penalty_Neutral>
3.80549e-06

> <r_epik_State_Penalty>
1.12982

> <r_epik_Charging_Adjusted_Penalty>
2.20473

> <i_epik_Tot_Q>
1

> <i_epik_Tot_abs_Q>
1

> <r_epik_Metal_State_Penalty>
1.2206

> <b_epik_Metal_Only>
0

> <s_lp_Force_Field>
OPLS_2005

> <r_lp_Energy>
11.8761

> <b_lp_Chiralities_Consistent>
1

> <s_lp_Variant>
AV-unprocessed.smi:644-3

> <Gold.Version>
5.8.1

> <Gold.Id.Protein>
6NUR|6NUR_protein|mol2

> <Gold.PLP.Fitness>
50.7556

> <Gold.PLP.PLP>
-41.4197

> <Gold.PLP.part.hbond>
-4.5688

> <Gold.PLP.part.metal>
0.0000

> <Gold.PLP.part.buried>
-4.9614

> <Gold.PLP.part.nonpolar>
-32.0642

> <Gold.PLP.part.repulsive>
0.0568

> <Gold.PLP.ligand.clash>
0.0000

> <Gold.PLP.ligand.torsion>
0.1152

> <Gold.PLP.Chemscore.Hbond>
3.1772

> <Gold.PLP.Chemscore.CHOScore>
0.0000

> <Gold.PLP.Chemscore.Metal>
0.0000

> <Gold.Chemscore.Hbonds>
donor molecule, donor type, donor heavy atom, donor atom, acceptor molecule, acceptor atom, score
      L1  H     5    38       P1  8028  2.00
      P1  H  6931  6943       L1    15  0.88
      P1  H  6934  6947       L1    15  0.29

> <Gold.PLP.Chemscore.Internal.Correction>
0.0346

> <Gold.Rescore>
     Score         DG    S(hbond)    S(metal)    S(lipo)     H(rot)  DE(clash)    DE(int)     intcor
     15.40     -15.52       1.26        0.00     105.06       2.53       0.02       0.09       ----

> <Gold.Chemscore.Fitness>
15.4028

> <Gold.Chemscore.DG>
-15.5168

> <Gold.Chemscore.ZeroCoef>
-5.4800

> <Gold.Chemscore.Hbond>
1.2649

> <Gold.Chemscore.Metal>
0.0000

> <Gold.Chemscore.Lipo>
105.0633

> <Gold.Chemscore.Internal_Hbond>
0.0000

> <Gold.Chemscore.DEClash>
0.0202

> <Gold.Chemscore.DEInternal>
0.0938

> <Gold.Chemscore.Rot>
2.5315

> <Gold.Chemscore.Internal.Correction>
   9.000000E+99

> <Gold.Chemscore.Hbonds>
donor molecule, donor type, donor heavy atom, donor atom, acceptor molecule, acceptor atom, score
      L1  H     5    38       P1  8028  0.98
      P1  H  6931  6943       L1    15  0.19
      P1  H  6934  6947       L1    15  0.01

> <Gold.Chemscore.Hbond.Weighted>
-4.2249

> <Gold.Chemscore.Metal.Weighted>
-0.0000

> <Gold.Chemscore.Lipo.Weighted>
-12.2924

> <Gold.Chemscore.Internal_Hbond.Weighted>
0.0000

> <Gold.Chemscore.DEClash.Weighted>
0.0202

> <Gold.Chemscore.DEInternal.Weighted>
0.0938

> <Gold.Chemscore.Rot.Weighted>
6.4805

> <Gold.Chemscore.Internal.Correction.Weighted>
   9.000000E+99

> <Gold.Protein.RotatedTorsions>
[ 6907 6896 6895 6894 ] final  -25.95 input  -60.11 | X-H torsion
[ 7974 7965 7964 7962 ] final  111.28 input  175.53 | X-H torsion
[ 8008 7997 7996 7995 ] final   54.16 input   59.86 | X-H torsion
[ 10167 10162 10161 10158 ] final  109.24 input  -65.29 | X-H torsion
[ 10718 10713 10712 10709 ] final   28.74 input   66.30 | X-H torsion
[ 10763 10752 10751 10750 ] final   30.00 input  -60.55 | X-H torsion
[ 11005 11000 10999 10996 ] final  105.49 input  -57.11 | X-H torsion

> <Gold.Protein.ActiveResidues>
 VAL166  LYS551  ARG553  GLY616  TRP617  ASP618  TYR619  PRO620  LYS621  CYS622 
 ASP623  PHE694  ASN695  SER759  ASP760  ASP761  ALA762  ILE779  LEU786  VAL792 
 PHE793  MET794  SER795  GLU796  ALA797  LYS798  CYS799  TRP800  GLU811  SER814 

> <Gold.Protein.RotatedAtoms>
  151.1678  135.0304  159.8738 H   0  0  0  0  0  0  0  0  0  0  0  0  # atno 6907 bound_to 6896
  152.5450  134.1205  159.8407 H   0  0  0  0  0  0  0  0  0  0  0  0  # atno 6908 bound_to 6896
  151.1307  133.4992  159.2631 H   0  0  0  0  0  0  0  0  0  0  0  0  # atno 6909 bound_to 6896
  145.2442  139.2766  143.4102 H   0  0  0  0  0  0  0  0  0  0  0  0  # atno 7974 bound_to 7965
  155.4802  140.3468  155.4338 H   0  0  0  0  0  0  0  0  0  0  0  0  # atno 8008 bound_to 7997
  156.1044  140.1444  156.9452 H   0  0  0  0  0  0  0  0  0  0  0  0  # atno 8009 bound_to 7997
  154.4715  140.0899  156.7134 H   0  0  0  0  0  0  0  0  0  0  0  0  # atno 8010 bound_to 7997
  139.6782  144.7120  151.1563 H   0  0  0  0  0  0  0  0  0  0  0  0  # atno 10167 bound_to 10162
  157.2374  130.7052  149.6342 H   0  0  0  0  0  0  0  0  0  0  0  0  # atno 10718 bound_to 10713
  153.0397  135.6475  154.0978 H   0  0  0  0  0  0  0  0  0  0  0  0  # atno 10763 bound_to 10752
  154.0686  135.2882  155.3313 H   0  0  0  0  0  0  0  0  0  0  0  0  # atno 10764 bound_to 10752
  154.6609  135.5392  153.8082 H   0  0  0  0  0  0  0  0  0  0  0  0  # atno 10765 bound_to 10752
  139.8803  134.9337  156.5522 H   0  0  0  0  0  0  0  0  0  0  0  0  # atno 11005 bound_to 11000
  146.3320  140.2814  142.8610 LP  0  0  0  0  0  0  0  0  0  0  0  0  # atno 17320 bound_to 7965
  144.9561  140.8228  143.5542 LP  0  0  0  0  0  0  0  0  0  0  0  0  # atno 17321 bound_to 7965
  140.7643  143.5739  150.8966 LP  0  0  0  0  0  0  0  0  0  0  0  0  # atno 17342 bound_to 10162
  139.9409  143.6383  152.3054 LP  0  0  0  0  0  0  0  0  0  0  0  0  # atno 17343 bound_to 10162
  155.9672  130.4469  150.5560 LP  0  0  0  0  0  0  0  0  0  0  0  0  # atno 17370 bound_to 10713
  157.3415  131.0717  151.1784 LP  0  0  0  0  0  0  0  0  0  0  0  0  # atno 17371 bound_to 10713
  140.8231  133.8338  155.8914 LP  0  0  0  0  0  0  0  0  0  0  0  0  # atno 17394 bound_to 11000
  140.9399  134.1914  157.4805 LP  0  0  0  0  0  0  0  0  0  0  0  0  # atno 17395 bound_to 11000

$$$$
