AV-unprocessed.smi:3329|AV-procd|sdf|12796|dock9
  -GOLD-   2272019153D 1   1.00000     0.00000
 Structure written by MMmdl.
 42 43  0  0  0  0  0  0  0  0  2 V2000
  145.5796  130.8872  151.3453 C   0  0  0  0  0  0  0  0  0  0  0  0
  145.2056  132.2918  150.9681 C   0  0  0  0  0  0  0  0  0  0  0  0
  145.0956  132.8435  149.6601 C   0  0  0  0  0  0  0  0  0  0  0  0
  144.7455  134.1194  149.6691 N   0  0  0  0  0  0  0  0  0  0  0  0
  144.6152  134.4263  150.9774 N   0  0  0  0  0  0  0  0  0  0  0  0
  144.2455  135.7746  151.3739 C   0  0  0  0  0  0  0  0  0  0  0  0
  145.3434  136.4772  152.1909 C   0  0  0  0  0  0  0  0  0  0  0  0
  146.3801  137.0544  151.3129 N   0  3  0  0  0  0  0  0  0  0  0  0
  146.4749  138.5267  151.3715 C   0  0  0  0  0  0  0  0  0  0  0  0
  146.8915  139.0181  152.7585 C   0  0  0  0  0  0  0  0  0  0  0  0
  146.1556  139.7693  153.3982 O   0  0  0  0  0  0  0  0  0  0  0  0
  148.0801  138.5762  153.2046 N   0  0  0  0  0  0  0  0  0  0  0  0
  148.7400  138.8651  154.4856 C   0  0  2  0  0  0  0  0  0  0  0  0
  147.7037  138.5523  155.5777 C   0  0  0  0  0  0  0  0  0  0  0  0
  149.0994  140.2919  154.6058 C   0  0  0  0  0  0  0  0  0  0  0  0
  149.3811  141.4107  154.6980 N   0  0  0  0  0  0  0  0  0  0  0  0
  150.0021  138.0461  154.7674 C   0  0  0  0  0  0  0  0  0  0  0  0
  150.9258  138.2841  155.9421 C   0  0  0  0  0  0  0  0  0  0  0  0
  151.3915  138.5969  154.5373 C   0  0  0  0  0  0  0  0  0  0  0  0
  144.8992  133.3442  151.7838 C   0  0  0  0  0  0  0  0  0  0  0  0
  146.6573  130.7318  151.2948 H   0  0  0  0  0  0  0  0  0  0  0  0
  145.1176  130.1556  150.6819 H   0  0  0  0  0  0  0  0  0  0  0  0
  145.2661  130.6421  152.3602 H   0  0  0  0  0  0  0  0  0  0  0  0
  145.2597  132.3569  148.7098 H   0  0  0  0  0  0  0  0  0  0  0  0
  144.0157  136.3524  150.4775 H   0  0  0  0  0  0  0  0  0  0  0  0
  143.3245  135.7176  151.9554 H   0  0  0  0  0  0  0  0  0  0  0  0
  144.9020  137.2739  152.7906 H   0  0  0  0  0  0  0  0  0  0  0  0
  145.8042  135.7763  152.8882 H   0  0  0  0  0  0  0  0  0  0  0  0
  147.2749  136.6702  151.5821 H   0  0  0  0  0  0  0  0  0  0  0  0
  147.2043  138.8749  150.6392 H   0  0  0  0  0  0  0  0  0  0  0  0
  145.5090  138.9603  151.1077 H   0  0  0  0  0  0  0  0  0  0  0  0
  148.5931  137.9630  152.5878 H   0  0  0  0  0  0  0  0  0  0  0  0
  148.0960  138.7717  156.5715 H   0  0  0  0  0  0  0  0  0  0  0  0
  147.4148  137.5003  155.5637 H   0  0  0  0  0  0  0  0  0  0  0  0
  146.7980  139.1467  155.4483 H   0  0  0  0  0  0  0  0  0  0  0  0
  149.8759  136.9957  154.5094 H   0  0  0  0  0  0  0  0  0  0  0  0
  150.7431  139.1275  156.6015 H   0  0  0  0  0  0  0  0  0  0  0  0
  151.3519  137.4076  156.4259 H   0  0  0  0  0  0  0  0  0  0  0  0
  152.1261  137.9297  154.0909 H   0  0  0  0  0  0  0  0  0  0  0  0
  151.4935  139.6456  154.2664 H   0  0  0  0  0  0  0  0  0  0  0  0
  144.8573  133.4095  152.8612 H   0  0  0  0  0  0  0  0  0  0  0  0
  146.1896  136.7833  150.3586 H   0  0  0  0  0  0  0  0  0  0  0  0
  1  2  1  0  0  0  0
  1 21  1  0  0  0  0
  1 22  1  0  0  0  0
  1 23  1  0  0  0  0
  2 20  2  0  0  0  0
  2  3  1  0  0  0  0
  3  4  2  0  0  0  0
  3 24  1  0  0  0  0
  4  5  1  0  0  0  0
  5  6  1  0  0  0  0
  5 20  1  0  0  0  0
  6  7  1  0  0  0  0
  6 25  1  0  0  0  0
  6 26  1  0  0  0  0
  7  8  1  0  0  0  0
  7 27  1  0  0  0  0
  7 28  1  0  0  0  0
  8  9  1  0  0  0  0
  8 29  1  0  0  0  0
  8 42  1  0  0  0  0
  9 10  1  0  0  0  0
  9 30  1  0  0  0  0
  9 31  1  0  0  0  0
 10 11  2  0  0  0  0
 10 12  1  0  0  0  0
 12 13  1  0  0  0  0
 12 32  1  0  0  0  0
 13 14  1  0  0  0  0
 13 15  1  0  0  0  0
 13 17  1  0  0  0  0
 14 33  1  0  0  0  0
 14 34  1  0  0  0  0
 14 35  1  0  0  0  0
 15 16  3  0  0  0  0
 17 19  1  0  0  0  0
 17 18  1  0  0  0  0
 17 36  1  0  0  0  0
 18 19  1  0  0  0  0
 18 37  1  0  0  0  0
 18 38  1  0  0  0  0
 19 39  1  0  0  0  0
 19 40  1  0  0  0  0
 20 41  1  0  0  0  0
M  CHG  1   8   1
M  END
> <s_m_source_file>
AV-unprocessed.smi

> <i_m_source_file_index>
3329

> <i_lp_mmshare_version>
43012

> <i_f3d_flags>
0

> <s_epik_input>
W0NIM11jMVtjSF1ubihbY0hdMSlbQ0gyXVtDSDJdW05IXVtDSDJdQyg9TylbTkhdW0NAQF0oW0NIM10pKEMjTilbQ0hdMltDSDJdW0NIMl0y

> <s_epik_cmdline>
J2VwaWtfcHl0aG9uJywgJy1waCcsICc3LjAnLCAnLXRuJywgJzgnLCAnLW1hJywgJzIwMCcsICctbWV0YWxfYmluZGluZycsICctaW1hZScsICc8aW5maWxlLm1hZT4nLCAnLW9tYWUnLCAnPG91dGZpbGUubWFlPic=

> <r_lp_tautomer_probability>
1

> <r_epik_Ionization_Penalty>
0.350291

> <r_epik_Ionization_Penalty_Charging>
0.350239

> <r_epik_Ionization_Penalty_Neutral>
5.12768e-05

> <r_epik_State_Penalty>
0.347656

> <r_epik_Charging_Adjusted_Penalty>
0.697895

> <i_epik_Tot_Q>
1

> <i_epik_Tot_abs_Q>
1

> <r_epik_Metal_State_Penalty>
0.371739

> <b_epik_Metal_Only>
0

> <s_lp_Force_Field>
OPLS_2005

> <r_lp_Energy>
13.221

> <b_lp_Chiralities_Consistent>
1

> <s_lp_Variant>
AV-unprocessed.smi:3329-2

> <Gold.Version>
5.8.1

> <Gold.Id.Protein>
6NUR|6NUR_protein|mol2

> <Gold.PLP.Fitness>
46.5963

> <Gold.PLP.PLP>
-37.0935

> <Gold.PLP.part.hbond>
-4.1328

> <Gold.PLP.part.metal>
0.0000

> <Gold.PLP.part.buried>
-5.2677

> <Gold.PLP.part.nonpolar>
-29.2854

> <Gold.PLP.part.repulsive>
1.4186

> <Gold.PLP.ligand.clash>
0.0000

> <Gold.PLP.ligand.torsion>
1.4111

> <Gold.PLP.Chemscore.Hbond>
3.5928

> <Gold.PLP.Chemscore.CHOScore>
0.0000

> <Gold.PLP.Chemscore.Metal>
0.0000

> <Gold.Chemscore.Hbonds>
donor molecule, donor type, donor heavy atom, donor atom, acceptor molecule, acceptor atom, score
      L1  H     8    29       P1  7948  2.00
      L1  H    12    32       P1  7948  1.00
      L1  C     3    24       P1  7921  0.04

> <Gold.PLP.Chemscore.Internal.Correction>
1.5466

> <Gold.Rescore>
     Score         DG    S(hbond)    S(metal)    S(lipo)     H(rot)  DE(clash)    DE(int)     intcor
     14.03     -17.14       2.64        0.00      76.81       2.40       0.16       2.95       ----

> <Gold.Chemscore.Fitness>
14.0313

> <Gold.Chemscore.DG>
-17.1377

> <Gold.Chemscore.ZeroCoef>
-5.4800

> <Gold.Chemscore.Hbond>
2.6371

> <Gold.Chemscore.Metal>
0.0000

> <Gold.Chemscore.Lipo>
76.8105

> <Gold.Chemscore.Internal_Hbond>
0.0000

> <Gold.Chemscore.DEClash>
0.1596

> <Gold.Chemscore.DEInternal>
2.9468

> <Gold.Chemscore.Rot>
2.3972

> <Gold.Chemscore.Internal.Correction>
   9.000000E+99

> <Gold.Chemscore.Hbonds>
donor molecule, donor type, donor heavy atom, donor atom, acceptor molecule, acceptor atom, score
      L1  H     8    29       P1  7948  1.00
      L1  H    12    32       P1  7948  0.97

> <Gold.Chemscore.Hbond.Weighted>
-8.8078

> <Gold.Chemscore.Metal.Weighted>
-0.0000

> <Gold.Chemscore.Lipo.Weighted>
-8.9868

> <Gold.Chemscore.Internal_Hbond.Weighted>
0.0000

> <Gold.Chemscore.DEClash.Weighted>
0.1596

> <Gold.Chemscore.DEInternal.Weighted>
2.9468

> <Gold.Chemscore.Rot.Weighted>
6.1369

> <Gold.Chemscore.Internal.Correction.Weighted>
   9.000000E+99

> <Gold.Protein.RotatedTorsions>
[ 6907 6896 6895 6894 ] final  -21.83 input  -60.11 | X-H torsion
[ 7974 7965 7964 7962 ] final  -73.61 input  175.53 | X-H torsion
[ 8008 7997 7996 7995 ] final  -72.07 input   59.86 | X-H torsion
[ 10167 10162 10161 10158 ] final -120.84 input  -65.29 | X-H torsion
[ 10718 10713 10712 10709 ] final  -39.89 input   66.30 | X-H torsion
[ 10763 10752 10751 10750 ] final   77.36 input  -60.55 | X-H torsion
[ 11005 11000 10999 10996 ] final  -11.68 input  -57.11 | X-H torsion

> <Gold.Protein.ActiveResidues>
 VAL166  LYS551  ARG553  GLY616  TRP617  ASP618  TYR619  PRO620  LYS621  CYS622 
 ASP623  PHE694  ASN695  SER759  ASP760  ASP761  ALA762  ILE779  LEU786  VAL792 
 PHE793  MET794  SER795  GLU796  ALA797  LYS798  CYS799  TRP800  GLU811  SER814 

> <Gold.Protein.RotatedAtoms>
  151.2275  135.0542  159.8974 H   0  0  0  0  0  0  0  0  0  0  0  0  # atno 6907 bound_to 6896
  152.5408  134.0573  159.8146 H   0  0  0  0  0  0  0  0  0  0  0  0  # atno 6908 bound_to 6896
  151.0748  133.5389  159.2656 H   0  0  0  0  0  0  0  0  0  0  0  0  # atno 6909 bound_to 6896
  145.6498  140.9286  143.0990 H   0  0  0  0  0  0  0  0  0  0  0  0  # atno 7974 bound_to 7965
  154.5137  140.0804  156.8040 H   0  0  0  0  0  0  0  0  0  0  0  0  # atno 8008 bound_to 7997
  155.3727  140.3424  155.4225 H   0  0  0  0  0  0  0  0  0  0  0  0  # atno 8009 bound_to 7997
  156.1603  140.1586  156.8610 H   0  0  0  0  0  0  0  0  0  0  0  0  # atno 8010 bound_to 7997
  140.0314  143.5244  152.2174 H   0  0  0  0  0  0  0  0  0  0  0  0  # atno 10167 bound_to 10162
  156.2874  130.4224  149.8273 H   0  0  0  0  0  0  0  0  0  0  0  0  # atno 10718 bound_to 10713
  153.0793  135.4917  154.8469 H   0  0  0  0  0  0  0  0  0  0  0  0  # atno 10763 bound_to 10752
  154.7129  135.3023  154.9171 H   0  0  0  0  0  0  0  0  0  0  0  0  # atno 10764 bound_to 10752
  153.9859  135.6784  153.4805 H   0  0  0  0  0  0  0  0  0  0  0  0  # atno 10765 bound_to 10752
  140.7579  133.8539  155.9099 H   0  0  0  0  0  0  0  0  0  0  0  0  # atno 11005 bound_to 11000
  144.7126  139.8312  143.7409 LP  0  0  0  0  0  0  0  0  0  0  0  0  # atno 17320 bound_to 7965
  146.1212  139.4231  143.0227 LP  0  0  0  0  0  0  0  0  0  0  0  0  # atno 17321 bound_to 7965
  139.6073  144.7599  151.3032 LP  0  0  0  0  0  0  0  0  0  0  0  0  # atno 17342 bound_to 10162
  140.7300  143.6892  150.7936 LP  0  0  0  0  0  0  0  0  0  0  0  0  # atno 17343 bound_to 10162
  156.5699  130.8420  151.3353 LP  0  0  0  0  0  0  0  0  0  0  0  0  # atno 17370 bound_to 10713
  157.7332  130.9727  150.1969 LP  0  0  0  0  0  0  0  0  0  0  0  0  # atno 17371 bound_to 10713
  140.9691  134.1555  157.4591 LP  0  0  0  0  0  0  0  0  0  0  0  0  # atno 17394 bound_to 11000
  139.8776  134.9972  156.5835 LP  0  0  0  0  0  0  0  0  0  0  0  0  # atno 17395 bound_to 11000

$$$$
