AV-unprocessed.smi:2106|AV-procd|sdf|8599|dock3
  -GOLD-   2272011333D 1   1.00000     0.00000
 Structure written by MMmdl.
 48 49  0  0  0  0  0  0  0  0  2 V2000
  145.3151  134.9438  150.8495 C   0  0  0  0  0  0  0  0  0  0  0  0
  146.0175  133.7669  151.4615 C   0  0  0  0  0  0  0  0  0  0  0  0
  145.6096  132.4042  151.4585 C   0  0  0  0  0  0  0  0  0  0  0  0
  146.5930  131.7542  152.1495 C   0  0  0  0  0  0  0  0  0  0  0  0
  146.7325  130.3050  152.4823 C   0  0  0  0  0  0  0  0  0  0  0  0
  147.5169  132.7124  152.5306 N   0  0  0  0  0  0  0  0  0  0  0  0
  148.7408  132.5600  153.3049 C   0  0  0  0  0  0  0  0  0  0  0  0
  148.7933  133.5722  154.4509 C   0  0  0  0  0  0  0  0  0  0  0  0
  147.9577  133.5288  155.3529 O   0  0  0  0  0  0  0  0  0  0  0  0
  149.7990  134.4600  154.4208 N   0  0  0  0  0  0  0  0  0  0  0  0
  150.0932  135.4286  155.4718 C   0  0  0  0  0  0  0  0  0  0  0  0
  149.2807  136.7305  155.3245 C   0  0  0  0  0  0  0  0  0  0  0  0
  149.7571  137.5527  154.1785 N   0  3  1  0  0  0  0  0  0  0  0  0
  149.0984  138.8751  154.0596 C   0  0  0  0  0  0  0  0  0  0  0  0
  149.6861  139.8845  155.0675 C   0  0  2  0  0  0  0  0  0  0  0  0
  149.0900  141.2853  154.8929 C   0  0  0  0  0  0  0  0  0  0  0  0
  151.0932  139.9732  154.8666 O   0  0  0  0  0  0  0  0  0  0  0  0
  151.7609  138.7363  155.0929 C   0  0  2  0  0  0  0  0  0  0  0  0
  153.2676  138.9654  154.9326 C   0  0  0  0  0  0  0  0  0  0  0  0
  151.2313  137.6876  154.0947 C   0  0  0  0  0  0  0  0  0  0  0  0
  147.1601  133.9441  152.1040 N   0  0  0  0  0  0  0  0  0  0  0  0
  145.1562  134.7899  149.7821 H   0  0  0  0  0  0  0  0  0  0  0  0
  145.8871  135.8644  150.9695 H   0  0  0  0  0  0  0  0  0  0  0  0
  144.3398  135.0971  151.3111 H   0  0  0  0  0  0  0  0  0  0  0  0
  144.7265  131.9695  151.0141 H   0  0  0  0  0  0  0  0  0  0  0  0
  145.8814  129.7372  152.1063 H   0  0  0  0  0  0  0  0  0  0  0  0
  146.7834  130.1523  153.5599 H   0  0  0  0  0  0  0  0  0  0  0  0
  147.6354  129.8887  152.0356 H   0  0  0  0  0  0  0  0  0  0  0  0
  148.8036  131.5443  153.6968 H   0  0  0  0  0  0  0  0  0  0  0  0
  149.5990  132.6987  152.6453 H   0  0  0  0  0  0  0  0  0  0  0  0
  150.4285  134.4339  153.6316 H   0  0  0  0  0  0  0  0  0  0  0  0
  149.8581  134.9598  156.4280 H   0  0  0  0  0  0  0  0  0  0  0  0
  151.1621  135.6478  155.4911 H   0  0  0  0  0  0  0  0  0  0  0  0
  148.2270  136.4758  155.2057 H   0  0  0  0  0  0  0  0  0  0  0  0
  149.3371  137.3009  156.2525 H   0  0  0  0  0  0  0  0  0  0  0  0
  149.2549  139.2413  153.0440 H   0  0  0  0  0  0  0  0  0  0  0  0
  148.0199  138.7728  154.1864 H   0  0  0  0  0  0  0  0  0  0  0  0
  149.4898  139.5529  156.0885 H   0  0  0  0  0  0  0  0  0  0  0  0
  148.0108  141.2749  155.0470 H   0  0  0  0  0  0  0  0  0  0  0  0
  149.2819  141.6753  153.8928 H   0  0  0  0  0  0  0  0  0  0  0  0
  149.5207  141.9839  155.6106 H   0  0  0  0  0  0  0  0  0  0  0  0
  151.5710  138.4103  156.1166 H   0  0  0  0  0  0  0  0  0  0  0  0
  153.8243  138.0429  155.1009 H   0  0  0  0  0  0  0  0  0  0  0  0
  153.6280  139.7061  155.6469 H   0  0  0  0  0  0  0  0  0  0  0  0
  153.5085  139.3233  153.9314 H   0  0  0  0  0  0  0  0  0  0  0  0
  151.7096  136.7240  154.2645 H   0  0  0  0  0  0  0  0  0  0  0  0
  151.4891  137.9854  153.0773 H   0  0  0  0  0  0  0  0  0  0  0  0
  149.4800  137.0317  153.3589 H   0  0  0  0  0  0  0  0  0  0  0  0
  1  2  1  0  0  0  0
  1 22  1  0  0  0  0
  1 23  1  0  0  0  0
  1 24  1  0  0  0  0
  2 21  2  0  0  0  0
  2  3  1  0  0  0  0
  3  4  2  0  0  0  0
  3 25  1  0  0  0  0
  4  5  1  0  0  0  0
  4  6  1  0  0  0  0
  5 26  1  0  0  0  0
  5 27  1  0  0  0  0
  5 28  1  0  0  0  0
  6  7  1  0  0  0  0
  6 21  1  0  0  0  0
  7  8  1  0  0  0  0
  7 29  1  0  0  0  0
  7 30  1  0  0  0  0
  8  9  2  0  0  0  0
  8 10  1  0  0  0  0
 10 11  1  0  0  0  0
 10 31  1  0  0  0  0
 11 12  1  0  0  0  0
 11 32  1  0  0  0  0
 11 33  1  0  0  0  0
 12 13  1  0  0  0  0
 12 34  1  0  0  0  0
 12 35  1  0  0  0  0
 13 20  1  0  0  0  0
 13 14  1  0  0  0  0
 13 48  1  0  0  0  0
 14 15  1  0  0  0  0
 14 36  1  0  0  0  0
 14 37  1  0  0  0  0
 15 16  1  0  0  0  0
 15 17  1  0  0  0  0
 15 38  1  0  0  0  0
 16 39  1  0  0  0  0
 16 40  1  0  0  0  0
 16 41  1  0  0  0  0
 17 18  1  0  0  0  0
 18 19  1  0  0  0  0
 18 20  1  0  0  0  0
 18 42  1  0  0  0  0
 19 43  1  0  0  0  0
 19 44  1  0  0  0  0
 19 45  1  0  0  0  0
 20 46  1  0  0  0  0
 20 47  1  0  0  0  0
M  CHG  1  13   1
M  END
> <s_m_source_file>
AV-unprocessed.smi

> <i_m_source_file_index>
2106

> <i_lp_mmshare_version>
43012

> <i_f3d_flags>
0

> <s_epik_input>
W0NIM11jMVtjSF1jKFtDSDNdKW4objEpW0NIMl1DKD1PKVtOSF1bQ0gyXVtDSDJdTjJbQ0gyXVtDQEBIXShbQ0gzXSlPW0NAQEhdKFtDSDNdKVtDSDJdMg==

> <s_epik_cmdline>
J2VwaWtfcHl0aG9uJywgJy1waCcsICc3LjAnLCAnLXRuJywgJzgnLCAnLW1hJywgJzIwMCcsICctbWV0YWxfYmluZGluZycsICctaW1hZScsICc8aW5maWxlLm1hZT4nLCAnLW9tYWUnLCAnPG91dGZpbGUubWFlPic=

> <r_lp_tautomer_probability>
1

> <r_epik_Ionization_Penalty>
0.748586

> <r_epik_Ionization_Penalty_Charging>
0.748396

> <r_epik_Ionization_Penalty_Neutral>
0.000189656

> <r_epik_State_Penalty>
0.775162

> <r_epik_Charging_Adjusted_Penalty>
1.52356

> <i_epik_Tot_Q>
1

> <i_epik_Tot_abs_Q>
1

> <r_epik_Metal_State_Penalty>
0.775295

> <b_epik_Metal_Only>
0

> <s_lp_Force_Field>
OPLS_2005

> <r_lp_Energy>
21.363

> <b_lp_Chiralities_Consistent>
1

> <s_lp_Variant>
AV-unprocessed.smi:2106-7

> <Gold.Version>
5.8.1

> <Gold.Id.Protein>
6NUR|6NUR_protein|mol2

> <Gold.PLP.Fitness>
46.6394

> <Gold.PLP.PLP>
-38.3349

> <Gold.PLP.part.hbond>
-2.6627

> <Gold.PLP.part.metal>
0.0000

> <Gold.PLP.part.buried>
-3.2414

> <Gold.PLP.part.nonpolar>
-35.1080

> <Gold.PLP.part.repulsive>
1.7116

> <Gold.PLP.ligand.clash>
0.0000

> <Gold.PLP.ligand.torsion>
0.3776

> <Gold.PLP.Chemscore.Hbond>
3.0000

> <Gold.PLP.Chemscore.CHOScore>
0.0000

> <Gold.PLP.Chemscore.Metal>
0.0000

> <Gold.Chemscore.Hbonds>
donor molecule, donor type, donor heavy atom, donor atom, acceptor molecule, acceptor atom, score
      L1  H    13    48       P1  7948  2.00
      P1  H  7989  7998       L1    17  1.00

> <Gold.PLP.Chemscore.Internal.Correction>
0.0596

> <Gold.Rescore>
     Score         DG    S(hbond)    S(metal)    S(lipo)     H(rot)  DE(clash)    DE(int)     intcor
     16.73     -17.83       1.88        0.00      89.77       1.73       0.84       0.25       ----

> <Gold.Chemscore.Fitness>
16.7318

> <Gold.Chemscore.DG>
-17.8264

> <Gold.Chemscore.ZeroCoef>
-5.4800

> <Gold.Chemscore.Hbond>
1.8791

> <Gold.Chemscore.Metal>
0.0000

> <Gold.Chemscore.Lipo>
89.7707

> <Gold.Chemscore.Internal_Hbond>
0.0000

> <Gold.Chemscore.DEClash>
0.8442

> <Gold.Chemscore.DEInternal>
0.2504

> <Gold.Chemscore.Rot>
1.7316

> <Gold.Chemscore.Internal.Correction>
   9.000000E+99

> <Gold.Chemscore.Hbonds>
donor molecule, donor type, donor heavy atom, donor atom, acceptor molecule, acceptor atom, score
      L1  H    13    48       P1  7948  0.88
      P1  H  7989  7998       L1    17  0.86

> <Gold.Chemscore.Hbond.Weighted>
-6.2762

> <Gold.Chemscore.Metal.Weighted>
-0.0000

> <Gold.Chemscore.Lipo.Weighted>
-10.5032

> <Gold.Chemscore.Internal_Hbond.Weighted>
0.0000

> <Gold.Chemscore.DEClash.Weighted>
0.8442

> <Gold.Chemscore.DEInternal.Weighted>
0.2504

> <Gold.Chemscore.Rot.Weighted>
4.4330

> <Gold.Chemscore.Internal.Correction.Weighted>
   9.000000E+99

> <Gold.Protein.RotatedTorsions>
[ 6907 6896 6895 6894 ] final  114.10 input  -60.11 | X-H torsion
[ 7974 7965 7964 7962 ] final  151.89 input  175.53 | X-H torsion
[ 8008 7997 7996 7995 ] final   39.04 input   59.86 | X-H torsion
[ 10167 10162 10161 10158 ] final  144.31 input  -65.29 | X-H torsion
[ 10718 10713 10712 10709 ] final   16.62 input   66.30 | X-H torsion
[ 10763 10752 10751 10750 ] final  -74.40 input  -60.55 | X-H torsion
[ 11005 11000 10999 10996 ] final   91.06 input  -57.11 | X-H torsion

> <Gold.Protein.ActiveResidues>
 VAL166  LYS551  ARG553  GLY616  TRP617  ASP618  TYR619  PRO620  LYS621  CYS622 
 ASP623  PHE694  ASN695  SER759  ASP760  ASP761  ALA762  ILE779  LEU786  VAL792 
 PHE793  MET794  SER795  GLU796  ALA797  LYS798  CYS799  TRP800  GLU811  SER814 

> <Gold.Protein.RotatedAtoms>
  152.4822  133.8283  159.7089 H   0  0  0  0  0  0  0  0  0  0  0  0  # atno 6907 bound_to 6896
  150.8880  133.7272  159.2919 H   0  0  0  0  0  0  0  0  0  0  0  0  # atno 6908 bound_to 6896
  151.4754  135.1052  159.9815 H   0  0  0  0  0  0  0  0  0  0  0  0  # atno 6909 bound_to 6896
  144.8260  139.6597  143.6079 H   0  0  0  0  0  0  0  0  0  0  0  0  # atno 7974 bound_to 7965
  155.2301  140.3337  155.4304 H   0  0  0  0  0  0  0  0  0  0  0  0  # atno 8008 bound_to 7997
  156.2298  140.1845  156.7317 H   0  0  0  0  0  0  0  0  0  0  0  0  # atno 8009 bound_to 7997
  154.5959  140.0630  156.9288 H   0  0  0  0  0  0  0  0  0  0  0  0  # atno 8010 bound_to 7997
  139.4950  144.5981  151.6540 H   0  0  0  0  0  0  0  0  0  0  0  0  # atno 10167 bound_to 10162
  157.0704  130.6346  149.5804 H   0  0  0  0  0  0  0  0  0  0  0  0  # atno 10718 bound_to 10713
  154.4726  135.5865  153.6332 H   0  0  0  0  0  0  0  0  0  0  0  0  # atno 10763 bound_to 10752
  152.9836  135.6070  154.3347 H   0  0  0  0  0  0  0  0  0  0  0  0  # atno 10764 bound_to 10752
  154.3230  135.2843  155.2489 H   0  0  0  0  0  0  0  0  0  0  0  0  # atno 10765 bound_to 10752
  139.8845  134.8651  156.3374 H   0  0  0  0  0  0  0  0  0  0  0  0  # atno 11005 bound_to 11000
  146.2566  139.6315  142.9391 LP  0  0  0  0  0  0  0  0  0  0  0  0  # atno 17320 bound_to 7965
  145.4998  141.0437  143.2546 LP  0  0  0  0  0  0  0  0  0  0  0  0  # atno 17321 bound_to 7965
  140.5624  144.0247  150.6176 LP  0  0  0  0  0  0  0  0  0  0  0  0  # atno 17342 bound_to 10162
  140.3337  143.3062  152.0661 LP  0  0  0  0  0  0  0  0  0  0  0  0  # atno 17343 bound_to 10162
  155.9952  130.5018  150.7450 LP  0  0  0  0  0  0  0  0  0  0  0  0  # atno 17370 bound_to 10713
  157.4882  131.0908  151.0457 LP  0  0  0  0  0  0  0  0  0  0  0  0  # atno 17371 bound_to 10713
  140.9682  133.7344  156.0497 LP  0  0  0  0  0  0  0  0  0  0  0  0  # atno 17394 bound_to 11000
  140.7904  134.3624  157.5466 LP  0  0  0  0  0  0  0  0  0  0  0  0  # atno 17395 bound_to 11000

$$$$
