AV-unprocessed.smi:1426|AV-procd|sdf|5808|dock8
  -GOLD-   22720 5463D 1   1.00000     0.00000
 Structure written by MMmdl.
 44 46  0  0  0  0  0  0  0  0  2 V2000
  154.4280  140.9399  160.4022 O   0  0  0  0  0  0  0  0  0  0  0  0
  153.7140  140.1763  159.7524 C   0  0  0  0  0  0  0  0  0  0  0  0
  153.8979  138.8495  159.7041 N   0  0  0  0  0  0  0  0  0  0  0  0
  154.9577  138.1261  160.3987 C   0  0  0  0  0  0  0  0  0  0  0  0
  154.3945  137.0780  161.3774 C   0  0  1  0  0  0  0  0  0  0  0  0
  155.3240  135.9089  161.6285 C   0  0  0  0  0  0  0  0  0  0  0  0
  154.7543  135.3290  162.9193 C   0  0  0  0  0  0  0  0  0  0  0  0
  154.2313  136.4387  163.6437 O   0  0  0  0  0  0  0  0  0  0  0  0
  154.1679  137.5870  162.8024 C   0  0  0  0  0  0  0  0  0  0  0  0
  152.6749  140.5527  158.9885 N   0  0  0  0  0  0  0  0  0  0  0  0
  152.1790  141.8697  158.7701 C   0  0  0  0  0  0  0  0  0  0  0  0
  152.6367  142.9657  159.5463 C   0  0  0  0  0  0  0  0  0  0  0  0
  152.1429  144.2598  159.2964 C   0  0  0  0  0  0  0  0  0  0  0  0
  151.1942  144.4399  158.2757 C   0  0  0  0  0  0  0  0  0  0  0  0
  150.7632  143.3751  157.5685 N   0  3  0  0  0  0  0  0  0  0  0  0
  151.1891  142.1029  157.7712 C   0  0  0  0  0  0  0  0  0  0  0  0
  150.6358  141.0859  156.9601 N   0  0  0  0  0  0  0  0  0  0  0  0
  151.5015  140.2216  156.1664 C   0  0  0  0  0  0  0  0  0  0  0  0
  150.5681  139.5235  155.1812 C   0  0  0  0  0  0  0  0  0  0  0  0
  149.5358  140.6073  154.8864 C   0  0  0  0  0  0  0  0  0  0  0  0
  149.4103  141.3591  156.2159 C   0  0  0  0  0  0  0  0  0  0  0  0
  153.2649  138.2979  159.1435 H   0  0  0  0  0  0  0  0  0  0  0  0
  155.6205  137.6492  159.6746 H   0  0  0  0  0  0  0  0  0  0  0  0
  155.5652  138.8538  160.9372 H   0  0  0  0  0  0  0  0  0  0  0  0
  153.4514  136.6861  160.9921 H   0  0  0  0  0  0  0  0  0  0  0  0
  155.3385  135.1884  160.8101 H   0  0  0  0  0  0  0  0  0  0  0  0
  156.3440  136.2588  161.7946 H   0  0  0  0  0  0  0  0  0  0  0  0
  153.9359  134.6427  162.6986 H   0  0  0  0  0  0  0  0  0  0  0  0
  155.5022  134.7886  163.4999 H   0  0  0  0  0  0  0  0  0  0  0  0
  154.9627  138.2725  163.0997 H   0  0  0  0  0  0  0  0  0  0  0  0
  153.2158  138.1072  162.9122 H   0  0  0  0  0  0  0  0  0  0  0  0
  152.2503  139.8279  158.4288 H   0  0  0  0  0  0  0  0  0  0  0  0
  153.3583  142.8327  160.3383 H   0  0  0  0  0  0  0  0  0  0  0  0
  152.4886  145.1009  159.8794 H   0  0  0  0  0  0  0  0  0  0  0  0
  150.7623  145.3942  158.0106 H   0  0  0  0  0  0  0  0  0  0  0  0
  152.2344  140.8144  155.6174 H   0  0  0  0  0  0  0  0  0  0  0  0
  152.0355  139.5072  156.7938 H   0  0  0  0  0  0  0  0  0  0  0  0
  151.0817  139.1661  154.2882 H   0  0  0  0  0  0  0  0  0  0  0  0
  150.0862  138.6709  155.6620 H   0  0  0  0  0  0  0  0  0  0  0  0
  149.9220  141.2797  154.1191 H   0  0  0  0  0  0  0  0  0  0  0  0
  148.5847  140.2068  154.5337 H   0  0  0  0  0  0  0  0  0  0  0  0
  148.5628  140.9727  156.7827 H   0  0  0  0  0  0  0  0  0  0  0  0
  149.2553  142.4267  156.0543 H   0  0  0  0  0  0  0  0  0  0  0  0
  150.0665  143.5371  156.8414 H   0  0  0  0  0  0  0  0  0  0  0  0
  1  2  2  0  0  0  0
  2  3  1  0  0  0  0
  2 10  1  0  0  0  0
  3  4  1  0  0  0  0
  3 22  1  0  0  0  0
  4  5  1  0  0  0  0
  4 23  1  0  0  0  0
  4 24  1  0  0  0  0
  5  9  1  0  0  0  0
  5  6  1  0  0  0  0
  5 25  1  0  0  0  0
  6  7  1  0  0  0  0
  6 26  1  0  0  0  0
  6 27  1  0  0  0  0
  7  8  1  0  0  0  0
  7 28  1  0  0  0  0
  7 29  1  0  0  0  0
  8  9  1  0  0  0  0
  9 30  1  0  0  0  0
  9 31  1  0  0  0  0
 10 11  1  0  0  0  0
 10 32  1  0  0  0  0
 11 16  1  0  0  0  0
 11 12  2  0  0  0  0
 12 13  1  0  0  0  0
 12 33  1  0  0  0  0
 13 14  2  0  0  0  0
 13 34  1  0  0  0  0
 14 15  1  0  0  0  0
 14 35  1  0  0  0  0
 15 16  2  0  0  0  0
 15 44  1  0  0  0  0
 16 17  1  0  0  0  0
 17 21  1  0  0  0  0
 17 18  1  0  0  0  0
 18 19  1  0  0  0  0
 18 36  1  0  0  0  0
 18 37  1  0  0  0  0
 19 20  1  0  0  0  0
 19 38  1  0  0  0  0
 19 39  1  0  0  0  0
 20 21  1  0  0  0  0
 20 40  1  0  0  0  0
 20 41  1  0  0  0  0
 21 42  1  0  0  0  0
 21 43  1  0  0  0  0
M  CHG  1  15   1
M  END
> <s_m_source_file>
AV-unprocessed.smi

> <i_m_source_file_index>
1426

> <i_lp_mmshare_version>
43012

> <i_f3d_flags>
0

> <s_epik_input>
W0NIMl0xT1tDSDJdW0NIMl1bQ0BIXTFbQ0gyXVtOSF1DKD1PKVtOSF1jMltjSF1bY0hdW2NIXW5jMk4zW0NIMl1bQ0gyXVtDSDJdW0NIMl0z

> <s_epik_cmdline>
J2VwaWtfcHl0aG9uJywgJy1waCcsICc3LjAnLCAnLXRuJywgJzgnLCAnLW1hJywgJzIwMCcsICctbWV0YWxfYmluZGluZycsICctaW1hZScsICc8aW5maWxlLm1hZT4nLCAnLW9tYWUnLCAnPG91dGZpbGUubWFlPic=

> <r_lp_tautomer_probability>
0.999994

> <r_epik_Ionization_Penalty>
1.10677

> <r_epik_Ionization_Penalty_Charging>
1.10675

> <r_epik_Ionization_Penalty_Neutral>
2.02663e-05

> <r_epik_State_Penalty>
1.16438

> <r_epik_Charging_Adjusted_Penalty>
2.27113

> <i_epik_Tot_Q>
1

> <i_epik_Tot_abs_Q>
1

> <r_epik_Metal_State_Penalty>
1.25078

> <b_epik_Metal_Only>
0

> <s_lp_Force_Field>
OPLS_2005

> <r_lp_Energy>
54.362

> <b_lp_Chiralities_Consistent>
1

> <s_lp_Variant>
AV-unprocessed.smi:1426-4

> <Gold.Version>
5.8.1

> <Gold.Id.Protein>
6NUR|6NUR_protein|mol2

> <Gold.PLP.Fitness>
44.6879

> <Gold.PLP.PLP>
-39.5003

> <Gold.PLP.part.hbond>
-1.0000

> <Gold.PLP.part.metal>
0.0000

> <Gold.PLP.part.buried>
-4.8423

> <Gold.PLP.part.nonpolar>
-33.8748

> <Gold.PLP.part.repulsive>
0.2547

> <Gold.PLP.ligand.clash>
0.0000

> <Gold.PLP.ligand.torsion>
0.6012

> <Gold.PLP.Chemscore.Hbond>
2.0000

> <Gold.PLP.Chemscore.CHOScore>
0.0000

> <Gold.PLP.Chemscore.Metal>
0.0000

> <Gold.Chemscore.Hbonds>
donor molecule, donor type, donor heavy atom, donor atom, acceptor molecule, acceptor atom, score
      L1  H    15    44       P1  8028  1.95

> <Gold.PLP.Chemscore.Internal.Correction>
0.3899

> <Gold.Rescore>
     Score         DG    S(hbond)    S(metal)    S(lipo)     H(rot)  DE(clash)    DE(int)     intcor
     15.68     -17.57       0.96        0.00     106.49       1.40       0.03       1.86       ----

> <Gold.Chemscore.Fitness>
15.6770

> <Gold.Chemscore.DG>
-17.5682

> <Gold.Chemscore.ZeroCoef>
-5.4800

> <Gold.Chemscore.Hbond>
0.9638

> <Gold.Chemscore.Metal>
0.0000

> <Gold.Chemscore.Lipo>
106.4861

> <Gold.Chemscore.Internal_Hbond>
0.0000

> <Gold.Chemscore.DEClash>
0.0310

> <Gold.Chemscore.DEInternal>
1.8601

> <Gold.Chemscore.Rot>
1.4023

> <Gold.Chemscore.Internal.Correction>
   9.000000E+99

> <Gold.Chemscore.Hbonds>
donor molecule, donor type, donor heavy atom, donor atom, acceptor molecule, acceptor atom, score
      L1  H    15    44       P1  8028  0.89

> <Gold.Chemscore.Hbond.Weighted>
-3.2191

> <Gold.Chemscore.Metal.Weighted>
-0.0000

> <Gold.Chemscore.Lipo.Weighted>
-12.4589

> <Gold.Chemscore.Internal_Hbond.Weighted>
0.0000

> <Gold.Chemscore.DEClash.Weighted>
0.0310

> <Gold.Chemscore.DEInternal.Weighted>
1.8601

> <Gold.Chemscore.Rot.Weighted>
3.5898

> <Gold.Chemscore.Internal.Correction.Weighted>
   9.000000E+99

> <Gold.Protein.RotatedTorsions>
[ 6907 6896 6895 6894 ] final  122.07 input  -60.11 | X-H torsion
[ 7974 7965 7964 7962 ] final  -21.81 input  175.53 | X-H torsion
[ 8008 7997 7996 7995 ] final  -91.53 input   59.86 | X-H torsion
[ 10167 10162 10161 10158 ] final   17.28 input  -65.29 | X-H torsion
[ 10718 10713 10712 10709 ] final   75.63 input   66.30 | X-H torsion
[ 10763 10752 10751 10750 ] final  -78.64 input  -60.55 | X-H torsion
[ 11005 11000 10999 10996 ] final  -29.54 input  -57.11 | X-H torsion

> <Gold.Protein.ActiveResidues>
 VAL166  LYS551  ARG553  GLY616  TRP617  ASP618  TYR619  PRO620  LYS621  CYS622 
 ASP623  PHE694  ASN695  SER759  ASP760  ASP761  ALA762  ILE779  LEU786  VAL792 
 PHE793  MET794  SER795  GLU796  ALA797  LYS798  CYS799  TRP800  GLU811  SER814 

> <Gold.Protein.RotatedAtoms>
  152.4272  133.7215  159.6535 H   0  0  0  0  0  0  0  0  0  0  0  0  # atno 6907 bound_to 6896
  150.8149  133.8345  159.3171 H   0  0  0  0  0  0  0  0  0  0  0  0  # atno 6908 bound_to 6896
  151.6044  135.1047  160.0119 H   0  0  0  0  0  0  0  0  0  0  0  0  # atno 6909 bound_to 6896
  146.1712  140.4392  142.8532 H   0  0  0  0  0  0  0  0  0  0  0  0  # atno 7974 bound_to 7965
  154.7119  140.0518  157.0558 H   0  0  0  0  0  0  0  0  0  0  0  0  # atno 8008 bound_to 7997
  155.0543  140.3182  155.4662 H   0  0  0  0  0  0  0  0  0  0  0  0  # atno 8009 bound_to 7997
  156.2792  140.2110  156.5670 H   0  0  0  0  0  0  0  0  0  0  0  0  # atno 8010 bound_to 7997
  140.5737  143.9113  150.6733 H   0  0  0  0  0  0  0  0  0  0  0  0  # atno 10167 bound_to 10162
  157.6642  130.9735  150.1381 H   0  0  0  0  0  0  0  0  0  0  0  0  # atno 10718 bound_to 10713
  154.5284  135.5723  153.6738 H   0  0  0  0  0  0  0  0  0  0  0  0  # atno 10763 bound_to 10752
  152.9933  135.6199  154.2661 H   0  0  0  0  0  0  0  0  0  0  0  0  # atno 10764 bound_to 10752
  154.2586  135.2857  155.2767 H   0  0  0  0  0  0  0  0  0  0  0  0  # atno 10765 bound_to 10752
  140.9305  133.7341  156.0930 H   0  0  0  0  0  0  0  0  0  0  0  0  # atno 11005 bound_to 11000
  144.8166  140.6478  143.6380 LP  0  0  0  0  0  0  0  0  0  0  0  0  # atno 17320 bound_to 7965
  145.4335  139.1545  143.4009 LP  0  0  0  0  0  0  0  0  0  0  0  0  # atno 17321 bound_to 7965
  140.2595  143.3534  152.1335 LP  0  0  0  0  0  0  0  0  0  0  0  0  # atno 17342 bound_to 10162
  139.5131  144.6927  151.5715 LP  0  0  0  0  0  0  0  0  0  0  0  0  # atno 17343 bound_to 10162
  156.2210  130.3674  149.8555 LP  0  0  0  0  0  0  0  0  0  0  0  0  # atno 17370 bound_to 10713
  156.6408  130.8704  151.3513 LP  0  0  0  0  0  0  0  0  0  0  0  0  # atno 17371 bound_to 10713
  140.7868  134.3663  157.5474 LP  0  0  0  0  0  0  0  0  0  0  0  0  # atno 17394 bound_to 11000
  139.8795  134.9116  156.3040 LP  0  0  0  0  0  0  0  0  0  0  0  0  # atno 17395 bound_to 11000

$$$$
