AV-unprocessed.smi:1807|AV-procd|sdf|7302|dock4
  -GOLD-   22720 8563D 1   1.00000     0.00000
 Structure written by MMmdl.
 44 45  0  0  0  0  0  0  0  0  1 V2000
  148.5979  136.1544  161.7041 C   0  0  0  0  0  0  0  0  0  0  0  0
  147.5622  135.0883  162.0997 C   0  0  1  0  0  0  0  0  0  0  0  0
  146.2754  135.7283  162.6604 C   0  0  0  0  0  0  0  0  0  0  0  0
  145.2680  134.6621  163.1195 C   0  0  0  0  0  0  0  0  0  0  0  0
  144.9387  133.6784  161.9869 C   0  0  0  0  0  0  0  0  0  0  0  0
  146.2154  133.0368  161.4158 C   0  0  0  0  0  0  0  0  0  0  0  0
  147.2440  134.0900  160.9562 C   0  0  1  0  0  0  0  0  0  0  0  0
  146.7535  134.7710  159.7556 N   0  0  0  0  0  0  0  0  0  0  0  0
  147.3194  134.7434  158.5392 C   0  0  0  0  0  0  0  0  0  0  0  0
  148.3521  134.1206  158.2854 O   0  0  0  0  0  0  0  0  0  0  0  0
  146.5918  135.5442  157.4558 C   0  0  0  0  0  0  0  0  0  0  0  0
  147.3983  136.6466  156.9499 N   0  0  0  0  0  0  0  0  0  0  0  0
  148.4089  136.3951  156.0164 C   0  0  0  0  0  0  0  0  0  0  0  0
  148.6851  135.0867  155.5350 C   0  0  0  0  0  0  0  0  0  0  0  0
  149.7152  135.2877  154.6606 C   0  0  0  0  0  0  0  0  0  0  0  0
  149.9989  136.6400  154.6552 N   0  0  0  0  0  0  0  0  0  0  0  0
  151.0066  137.3462  153.8842 C   0  0  0  0  0  0  0  0  0  0  0  0
  150.6060  138.8051  153.6522 C   0  0  0  0  0  0  0  0  0  0  0  0
  149.4461  139.0272  153.0292 N   0  0  0  0  0  0  0  0  0  0  0  0
  151.3321  139.7213  154.0321 O   0  0  0  0  0  0  0  0  0  0  0  0
  149.1946  137.3260  155.4972 N   0  0  0  0  0  0  0  0  0  0  0  0
  148.2109  136.8315  160.9423 H   0  0  0  0  0  0  0  0  0  0  0  0
  149.5043  135.6928  161.3112 H   0  0  0  0  0  0  0  0  0  0  0  0
  148.8836  136.7591  162.5650 H   0  0  0  0  0  0  0  0  0  0  0  0
  148.0096  134.5090  162.9088 H   0  0  0  0  0  0  0  0  0  0  0  0
  146.5197  136.3804  163.4996 H   0  0  0  0  0  0  0  0  0  0  0  0
  145.8149  136.3646  161.9034 H   0  0  0  0  0  0  0  0  0  0  0  0
  145.6778  134.1153  163.9697 H   0  0  0  0  0  0  0  0  0  0  0  0
  144.3545  135.1415  163.4724 H   0  0  0  0  0  0  0  0  0  0  0  0
  144.2675  132.9019  162.3545 H   0  0  0  0  0  0  0  0  0  0  0  0
  144.3998  134.1992  161.1946 H   0  0  0  0  0  0  0  0  0  0  0  0
  146.6687  132.4066  162.1821 H   0  0  0  0  0  0  0  0  0  0  0  0
  145.9617  132.3711  160.5898 H   0  0  0  0  0  0  0  0  0  0  0  0
  148.1622  133.5531  160.7118 H   0  0  0  0  0  0  0  0  0  0  0  0
  145.9076  135.3115  159.8627 H   0  0  0  0  0  0  0  0  0  0  0  0
  146.3345  134.8723  156.6358 H   0  0  0  0  0  0  0  0  0  0  0  0
  145.6599  135.9374  157.8651 H   0  0  0  0  0  0  0  0  0  0  0  0
  147.2746  137.5689  157.3429 H   0  0  0  0  0  0  0  0  0  0  0  0
  148.2051  134.1527  155.7867 H   0  0  0  0  0  0  0  0  0  0  0  0
  150.2628  134.5895  154.0453 H   0  0  0  0  0  0  0  0  0  0  0  0
  151.9612  137.3116  154.4120 H   0  0  0  0  0  0  0  0  0  0  0  0
  151.1462  136.8264  152.9353 H   0  0  0  0  0  0  0  0  0  0  0  0
  149.1373  139.9727  152.8559 H   0  0  0  0  0  0  0  0  0  0  0  0
  148.8792  138.2447  152.7356 H   0  0  0  0  0  0  0  0  0  0  0  0
  1  2  1  0  0  0  0
  1 22  1  0  0  0  0
  1 23  1  0  0  0  0
  1 24  1  0  0  0  0
  2  7  1  0  0  0  0
  2  3  1  0  0  0  0
  2 25  1  0  0  0  0
  3  4  1  0  0  0  0
  3 26  1  0  0  0  0
  3 27  1  0  0  0  0
  4  5  1  0  0  0  0
  4 28  1  0  0  0  0
  4 29  1  0  0  0  0
  5  6  1  0  0  0  0
  5 30  1  0  0  0  0
  5 31  1  0  0  0  0
  6  7  1  0  0  0  0
  6 32  1  0  0  0  0
  6 33  1  0  0  0  0
  7  8  1  0  0  0  0
  7 34  1  0  0  0  0
  8  9  1  0  0  0  0
  8 35  1  0  0  0  0
  9 10  2  0  0  0  0
  9 11  1  0  0  0  0
 11 12  1  0  0  0  0
 11 36  1  0  0  0  0
 11 37  1  0  0  0  0
 12 13  1  0  0  0  0
 12 38  1  0  0  0  0
 13 21  2  0  0  0  0
 13 14  1  0  0  0  0
 14 15  2  0  0  0  0
 14 39  1  0  0  0  0
 15 16  1  0  0  0  0
 15 40  1  0  0  0  0
 16 17  1  0  0  0  0
 16 21  1  0  0  0  0
 17 18  1  0  0  0  0
 17 41  1  0  0  0  0
 17 42  1  0  0  0  0
 18 19  1  0  0  0  0
 18 20  2  0  0  0  0
 19 43  1  0  0  0  0
 19 44  1  0  0  0  0
M  END
> <s_m_source_file>
AV-unprocessed.smi

> <i_m_source_file_index>
1807

> <i_lp_mmshare_version>
43012

> <i_f3d_flags>
0

> <s_epik_input>
W0NIM11bQ0BASF0xW0NIMl1bQ0gyXVtDSDJdW0NIMl1bQ0BIXTFbTkhdQyg9TylbQ0gyXVtOSF1jMltjSF1bY0hdbihuMilbQ0gyXUMoPU8pW05IMl0=

> <s_epik_cmdline>
J2VwaWtfcHl0aG9uJywgJy1waCcsICc3LjAnLCAnLXRuJywgJzgnLCAnLW1hJywgJzIwMCcsICctbWV0YWxfYmluZGluZycsICctaW1hZScsICc8aW5maWxlLm1hZT4nLCAnLW9tYWUnLCAnPG91dGZpbGUubWFlPic=

> <r_lp_tautomer_probability>
1

> <r_epik_Ionization_Penalty>
0.000167642

> <r_epik_Ionization_Penalty_Charging>
0

> <r_epik_Ionization_Penalty_Neutral>
0.000167642

> <r_epik_State_Penalty>
-0

> <r_epik_Charging_Adjusted_Penalty>
0

> <i_epik_Tot_Q>
0

> <i_epik_Tot_abs_Q>
0

> <r_epik_Metal_State_Penalty>
-0

> <b_epik_Metal_Only>
0

> <s_lp_Force_Field>
OPLS_2005

> <r_lp_Energy>
4.94833

> <b_lp_Chiralities_Consistent>
1

> <s_lp_Variant>
AV-unprocessed.smi:1807-2

> <Gold.Version>
5.8.1

> <Gold.Id.Protein>
6NUR|6NUR_protein|mol2

> <Gold.PLP.Fitness>
43.6746

> <Gold.PLP.PLP>
-34.4447

> <Gold.PLP.part.hbond>
-4.0000

> <Gold.PLP.part.metal>
0.0000

> <Gold.PLP.part.buried>
-4.8813

> <Gold.PLP.part.nonpolar>
-25.5111

> <Gold.PLP.part.repulsive>
0.2692

> <Gold.PLP.ligand.clash>
0.0000

> <Gold.PLP.ligand.torsion>
0.5197

> <Gold.PLP.Chemscore.Hbond>
3.4160

> <Gold.PLP.Chemscore.CHOScore>
0.0000

> <Gold.PLP.Chemscore.Metal>
0.0000

> <Gold.Chemscore.Hbonds>
donor molecule, donor type, donor heavy atom, donor atom, acceptor molecule, acceptor atom, score
      L1  H    19    44       P1  7948  0.56
      P1  H  7989  7998       L1    20  0.41

> <Gold.PLP.Chemscore.Internal.Correction>
0.0213

> <Gold.Rescore>
     Score         DG    S(hbond)    S(metal)    S(lipo)     H(rot)  DE(clash)    DE(int)     intcor
     16.06     -17.83       3.25        0.00      70.53       2.64       0.07       1.70       ----

> <Gold.Chemscore.Fitness>
16.0581

> <Gold.Chemscore.DG>
-17.8289

> <Gold.Chemscore.ZeroCoef>
-5.4800

> <Gold.Chemscore.Hbond>
3.2475

> <Gold.Chemscore.Metal>
0.0000

> <Gold.Chemscore.Lipo>
70.5344

> <Gold.Chemscore.Internal_Hbond>
0.0000

> <Gold.Chemscore.DEClash>
0.0658

> <Gold.Chemscore.DEInternal>
1.7050

> <Gold.Chemscore.Rot>
2.6369

> <Gold.Chemscore.Internal.Correction>
   9.000000E+99

> <Gold.Chemscore.Hbonds>
donor molecule, donor type, donor heavy atom, donor atom, acceptor molecule, acceptor atom, score
      L1  H    19    43       P1  7957  0.03
      L1  H    19    44       P1  7948  0.57
      P1  H  7989  7998       L1    20  0.39

> <Gold.Chemscore.Hbond.Weighted>
-10.8467

> <Gold.Chemscore.Metal.Weighted>
-0.0000

> <Gold.Chemscore.Lipo.Weighted>
-8.2525

> <Gold.Chemscore.Internal_Hbond.Weighted>
0.0000

> <Gold.Chemscore.DEClash.Weighted>
0.0658

> <Gold.Chemscore.DEInternal.Weighted>
1.7050

> <Gold.Chemscore.Rot.Weighted>
6.7504

> <Gold.Chemscore.Internal.Correction.Weighted>
   9.000000E+99

> <Gold.Protein.RotatedTorsions>
[ 6907 6896 6895 6894 ] final  128.84 input  -60.11 | X-H torsion
[ 7974 7965 7964 7962 ] final  101.21 input  175.53 | X-H torsion
[ 8008 7997 7996 7995 ] final   68.11 input   59.86 | X-H torsion
[ 10167 10162 10161 10158 ] final    7.30 input  -65.29 | X-H torsion
[ 10718 10713 10712 10709 ] final   52.47 input   66.30 | X-H torsion
[ 10763 10752 10751 10750 ] final   11.81 input  -60.55 | X-H torsion
[ 11005 11000 10999 10996 ] final  -53.44 input  -57.11 | X-H torsion

> <Gold.Protein.ActiveResidues>
 VAL166  LYS551  ARG553  GLY616  TRP617  ASP618  TYR619  PRO620  LYS621  CYS622 
 ASP623  PHE694  ASN695  SER759  ASP760  ASP761  ALA762  ILE779  LEU786  VAL792 
 PHE793  MET794  SER795  GLU796  ALA797  LYS798  CYS799  TRP800  GLU811  SER814 

> <Gold.Protein.RotatedAtoms>
  152.3681  133.6383  159.6065 H   0  0  0  0  0  0  0  0  0  0  0  0  # atno 6907 bound_to 6896
  150.7649  133.9315  159.3437 H   0  0  0  0  0  0  0  0  0  0  0  0  # atno 6908 bound_to 6896
  151.7142  135.0908  160.0324 H   0  0  0  0  0  0  0  0  0  0  0  0  # atno 6909 bound_to 6896
  145.3754  139.2390  143.3432 H   0  0  0  0  0  0  0  0  0  0  0  0  # atno 7974 bound_to 7965
  155.7032  140.3495  155.4942 H   0  0  0  0  0  0  0  0  0  0  0  0  # atno 8008 bound_to 7997
  155.9422  140.1103  157.1068 H   0  0  0  0  0  0  0  0  0  0  0  0  # atno 8009 bound_to 7997
  154.4105  140.1210  156.4928 H   0  0  0  0  0  0  0  0  0  0  0  0  # atno 8010 bound_to 7997
  140.6380  143.7842  150.7386 H   0  0  0  0  0  0  0  0  0  0  0  0  # atno 10167 bound_to 10162
  157.5077  130.8480  149.8396 H   0  0  0  0  0  0  0  0  0  0  0  0  # atno 10718 bound_to 10713
  153.1887  135.6839  153.8381 H   0  0  0  0  0  0  0  0  0  0  0  0  # atno 10763 bound_to 10752
  153.7687  135.3199  155.3349 H   0  0  0  0  0  0  0  0  0  0  0  0  # atno 10764 bound_to 10752
  154.8104  135.4721  154.0600 H   0  0  0  0  0  0  0  0  0  0  0  0  # atno 10765 bound_to 10752
  141.0976  133.6622  156.4172 H   0  0  0  0  0  0  0  0  0  0  0  0  # atno 11005 bound_to 11000
  146.2866  140.4412  142.8755 LP  0  0  0  0  0  0  0  0  0  0  0  0  # atno 17320 bound_to 7965
  144.8546  140.7051  143.6146 LP  0  0  0  0  0  0  0  0  0  0  0  0  # atno 17321 bound_to 7965
  140.1467  143.4393  152.2158 LP  0  0  0  0  0  0  0  0  0  0  0  0  # atno 17342 bound_to 10162
  139.5589  144.7392  151.4212 LP  0  0  0  0  0  0  0  0  0  0  0  0  # atno 17343 bound_to 10162
  156.0269  130.3776  150.1797 LP  0  0  0  0  0  0  0  0  0  0  0  0  # atno 17370 bound_to 10713
  156.9987  130.9915  151.3396 LP  0  0  0  0  0  0  0  0  0  0  0  0  # atno 17371 bound_to 10713
  140.5102  134.6402  157.5281 LP  0  0  0  0  0  0  0  0  0  0  0  0  # atno 17394 bound_to 11000
  139.9817  134.7127  155.9848 LP  0  0  0  0  0  0  0  0  0  0  0  0  # atno 17395 bound_to 11000

$$$$
