AV-unprocessed.smi:1469|AV-procd|sdf|5958|dock5
  -GOLD-   22720 6 43D 1   1.00000     0.00000
 Structure written by MMmdl.
 41 42  0  0  0  0  0  0  0  0  2 V2000
  149.1171  131.8530  154.1998 C   0  0  0  0  0  0  0  0  0  0  0  0
  149.4046  133.2744  153.6638 C   0  0  2  0  0  0  0  0  0  0  0  0
  149.7859  134.2439  154.8129 C   0  0  0  0  0  0  0  0  0  0  0  0
  150.0998  135.5908  154.3420 N   0  0  0  0  0  0  0  0  0  0  0  0
  150.9079  136.4669  154.9590 C   0  0  0  0  0  0  0  0  0  0  0  0
  151.5130  136.2072  156.0001 O   0  0  0  0  0  0  0  0  0  0  0  0
  151.0604  137.8318  154.2713 C   0  0  0  0  0  0  0  0  0  0  0  0
  149.9411  138.7540  154.5277 N   0  0  0  0  0  0  0  0  0  0  0  0
  148.6461  138.2906  154.2208 C   0  0  0  0  0  0  0  0  0  0  0  0
  147.5554  139.0475  154.4200 C   0  0  0  0  0  0  0  0  0  0  0  0
  147.7341  140.3725  154.9654 C   0  0  0  0  0  0  0  0  0  0  0  0
  148.9687  140.8271  155.2588 C   0  0  0  0  0  0  0  0  0  0  0  0
  150.1639  140.0039  155.0406 C   0  0  0  0  0  0  0  0  0  0  0  0
  151.2958  140.4119  155.3025 O   0  0  0  0  0  0  0  0  0  0  0  0
  148.2395  133.8064  152.8972 N   0  3  0  0  0  0  0  0  0  0  0  0
  147.8307  132.9955  151.7211 C   0  0  0  0  0  0  0  0  0  0  0  0
  146.2972  133.0216  151.6567 C   0  0  0  0  0  0  0  0  0  0  0  0
  145.8839  134.0947  152.6562 C   0  0  0  0  0  0  0  0  0  0  0  0
  147.0104  134.0584  153.6821 C   0  0  0  0  0  0  0  0  0  0  0  0
  149.9727  131.4435  154.7357 H   0  0  0  0  0  0  0  0  0  0  0  0
  148.9021  131.1451  153.3998 H   0  0  0  0  0  0  0  0  0  0  0  0
  148.2682  131.8536  154.8845 H   0  0  0  0  0  0  0  0  0  0  0  0
  150.2494  133.2053  152.9760 H   0  0  0  0  0  0  0  0  0  0  0  0
  148.9597  134.3567  155.5141 H   0  0  0  0  0  0  0  0  0  0  0  0
  150.6129  133.8310  155.3934 H   0  0  0  0  0  0  0  0  0  0  0  0
  149.6514  135.8887  153.4874 H   0  0  0  0  0  0  0  0  0  0  0  0
  152.0016  138.2754  154.5998 H   0  0  0  0  0  0  0  0  0  0  0  0
  151.1785  137.6776  153.1970 H   0  0  0  0  0  0  0  0  0  0  0  0
  148.5986  137.2916  153.8124 H   0  0  0  0  0  0  0  0  0  0  0  0
  146.5706  138.6764  154.1766 H   0  0  0  0  0  0  0  0  0  0  0  0
  146.8737  141.0024  155.1378 H   0  0  0  0  0  0  0  0  0  0  0  0
  149.0832  141.8215  155.6648 H   0  0  0  0  0  0  0  0  0  0  0  0
  148.2726  133.4236  150.8206 H   0  0  0  0  0  0  0  0  0  0  0  0
  148.1737  131.9629  151.8012 H   0  0  0  0  0  0  0  0  0  0  0  0
  145.9218  133.2212  150.6525 H   0  0  0  0  0  0  0  0  0  0  0  0
  145.9009  132.0556  151.9722 H   0  0  0  0  0  0  0  0  0  0  0  0
  145.8592  135.0690  152.1662 H   0  0  0  0  0  0  0  0  0  0  0  0
  144.9027  133.9122  153.0955 H   0  0  0  0  0  0  0  0  0  0  0  0
  146.8439  133.2375  154.3821 H   0  0  0  0  0  0  0  0  0  0  0  0
  147.0707  134.9872  154.2505 H   0  0  0  0  0  0  0  0  0  0  0  0
  148.5158  134.7063  152.5306 H   0  0  0  0  0  0  0  0  0  0  0  0
  1  2  1  0  0  0  0
  1 20  1  0  0  0  0
  1 21  1  0  0  0  0
  1 22  1  0  0  0  0
  2  3  1  0  0  0  0
  2 15  1  0  0  0  0
  2 23  1  0  0  0  0
  3  4  1  0  0  0  0
  3 24  1  0  0  0  0
  3 25  1  0  0  0  0
  4  5  1  0  0  0  0
  4 26  1  0  0  0  0
  5  6  2  0  0  0  0
  5  7  1  0  0  0  0
  7  8  1  0  0  0  0
  7 27  1  0  0  0  0
  7 28  1  0  0  0  0
  8 13  1  0  0  0  0
  8  9  1  0  0  0  0
  9 10  2  0  0  0  0
  9 29  1  0  0  0  0
 10 11  1  0  0  0  0
 10 30  1  0  0  0  0
 11 12  2  0  0  0  0
 11 31  1  0  0  0  0
 12 13  1  0  0  0  0
 12 32  1  0  0  0  0
 13 14  2  0  0  0  0
 15 19  1  0  0  0  0
 15 16  1  0  0  0  0
 15 41  1  0  0  0  0
 16 17  1  0  0  0  0
 16 33  1  0  0  0  0
 16 34  1  0  0  0  0
 17 18  1  0  0  0  0
 17 35  1  0  0  0  0
 17 36  1  0  0  0  0
 18 19  1  0  0  0  0
 18 37  1  0  0  0  0
 18 38  1  0  0  0  0
 19 39  1  0  0  0  0
 19 40  1  0  0  0  0
M  CHG  1  15   1
M  END
> <s_m_source_file>
AV-unprocessed.smi

> <i_m_source_file_index>
1469

> <i_lp_mmshare_version>
43012

> <i_f3d_flags>
0

> <s_epik_input>
W0NIMl0xW0NIMl1bQ0gyXVtDSDJdTjFbQ0BIXShbQ0gzXSlbQ0gyXVtOSF1DKD1PKVtDSDJdbjJbY0hdW2NIXVtjSF1bY0hdYzI9Tw==

> <s_epik_cmdline>
J2VwaWtfcHl0aG9uJywgJy1waCcsICc3LjAnLCAnLXRuJywgJzgnLCAnLW1hJywgJzIwMCcsICctbWV0YWxfYmluZGluZycsICctaW1hZScsICc8aW5maWxlLm1hZT4nLCAnLW9tYWUnLCAnPG91dGZpbGUubWFlPic=

> <r_lp_tautomer_probability>
1

> <r_epik_Ionization_Penalty>
0.00497231

> <r_epik_Ionization_Penalty_Charging>
0.00497223

> <r_epik_Ionization_Penalty_Neutral>
8.2288e-08

> <r_epik_State_Penalty>
0.0036131

> <r_epik_Charging_Adjusted_Penalty>
0.00858533

> <i_epik_Tot_Q>
1

> <i_epik_Tot_abs_Q>
1

> <r_epik_Metal_State_Penalty>
-0

> <b_epik_Metal_Only>
0

> <s_lp_Force_Field>
OPLS_2005

> <r_lp_Energy>
39.8185

> <b_lp_Chiralities_Consistent>
1

> <s_lp_Variant>
AV-unprocessed.smi:1469-1

> <Gold.Version>
5.8.1

> <Gold.Id.Protein>
6NUR|6NUR_protein|mol2

> <Gold.PLP.Fitness>
47.2190

> <Gold.PLP.PLP>
-30.9847

> <Gold.PLP.part.hbond>
-4.7168

> <Gold.PLP.part.metal>
0.0000

> <Gold.PLP.part.buried>
-1.2588

> <Gold.PLP.part.nonpolar>
-25.7552

> <Gold.PLP.part.repulsive>
0.1330

> <Gold.PLP.ligand.clash>
0.0000

> <Gold.PLP.ligand.torsion>
0.4945

> <Gold.PLP.Chemscore.Hbond>
4.7296

> <Gold.PLP.Chemscore.CHOScore>
1.0000

> <Gold.PLP.Chemscore.Metal>
0.0000

> <Gold.Chemscore.Hbonds>
donor molecule, donor type, donor heavy atom, donor atom, acceptor molecule, acceptor atom, score
      L1  H     4    26       P1  7948  0.90
      L1  H    15    41       P1  7948  1.60
      P1  H  7989  7998       L1    14  0.61
      P1  H 10752 10765       L1     6  0.82
      L1  C     9    29       P1  7948  1.00

> <Gold.PLP.Chemscore.Internal.Correction>
0.0346

> <Gold.Rescore>
     Score         DG    S(hbond)    S(metal)    S(lipo)     H(rot)  DE(clash)    DE(int)     intcor
     16.42     -17.11       2.87        0.00      58.68       1.89       0.08       0.61       ----

> <Gold.Chemscore.Fitness>
16.4161

> <Gold.Chemscore.DG>
-17.1134

> <Gold.Chemscore.ZeroCoef>
-5.4800

> <Gold.Chemscore.Hbond>
2.8747

> <Gold.Chemscore.Metal>
0.0000

> <Gold.Chemscore.Lipo>
58.6816

> <Gold.Chemscore.Internal_Hbond>
0.0000

> <Gold.Chemscore.DEClash>
0.0845

> <Gold.Chemscore.DEInternal>
0.6128

> <Gold.Chemscore.Rot>
1.8882

> <Gold.Chemscore.Internal.Correction>
   9.000000E+99

> <Gold.Chemscore.Hbonds>
donor molecule, donor type, donor heavy atom, donor atom, acceptor molecule, acceptor atom, score
      L1  H     4    26       P1  7948  0.18
      L1  H    15    41       P1  7948  0.12
      P1  H  7989  7998       L1    14  0.05
      P1  H 10752 10765       L1     6  0.16

> <Gold.Chemscore.Hbond.Weighted>
-9.6015

> <Gold.Chemscore.Metal.Weighted>
-0.0000

> <Gold.Chemscore.Lipo.Weighted>
-6.8657

> <Gold.Chemscore.Internal_Hbond.Weighted>
0.0000

> <Gold.Chemscore.DEClash.Weighted>
0.0845

> <Gold.Chemscore.DEInternal.Weighted>
0.6128

> <Gold.Chemscore.Rot.Weighted>
4.8338

> <Gold.Chemscore.Internal.Correction.Weighted>
   9.000000E+99

> <Gold.Protein.RotatedTorsions>
[ 6907 6896 6895 6894 ] final -111.11 input  -60.11 | X-H torsion
[ 7974 7965 7964 7962 ] final  -18.13 input  175.53 | X-H torsion
[ 8008 7997 7996 7995 ] final -136.27 input   59.86 | X-H torsion
[ 10167 10162 10161 10158 ] final   88.74 input  -65.29 | X-H torsion
[ 10718 10713 10712 10709 ] final  -29.47 input   66.30 | X-H torsion
[ 10763 10752 10751 10750 ] final -141.87 input  -60.55 | X-H torsion
[ 11005 11000 10999 10996 ] final -122.79 input  -57.11 | X-H torsion

> <Gold.Protein.ActiveResidues>
 VAL166  LYS551  ARG553  GLY616  TRP617  ASP618  TYR619  PRO620  LYS621  CYS622 
 ASP623  PHE694  ASN695  SER759  ASP760  ASP761  ALA762  ILE779  LEU786  VAL792 
 PHE793  MET794  SER795  GLU796  ALA797  LYS798  CYS799  TRP800  GLU811  SER814 

> <Gold.Protein.RotatedAtoms>
  150.7669  133.9283  159.3418 H   0  0  0  0  0  0  0  0  0  0  0  0  # atno 6907 bound_to 6896
  151.7178  135.0898  160.0288 H   0  0  0  0  0  0  0  0  0  0  0  0  # atno 6908 bound_to 6896
  152.3669  133.6330  159.6093 H   0  0  0  0  0  0  0  0  0  0  0  0  # atno 6909 bound_to 6896
  146.1907  140.3877  142.8459 H   0  0  0  0  0  0  0  0  0  0  0  0  # atno 7974 bound_to 7965
  155.3925  140.0501  157.3040 H   0  0  0  0  0  0  0  0  0  0  0  0  # atno 8008 bound_to 7997
  154.5029  140.2163  155.9271 H   0  0  0  0  0  0  0  0  0  0  0  0  # atno 8009 bound_to 7997
  156.1490  140.3139  155.8622 H   0  0  0  0  0  0  0  0  0  0  0  0  # atno 8010 bound_to 7997
  139.8642  144.6528  150.9023 H   0  0  0  0  0  0  0  0  0  0  0  0  # atno 10167 bound_to 10162
  156.4121  130.4410  149.7245 H   0  0  0  0  0  0  0  0  0  0  0  0  # atno 10718 bound_to 10713
  154.8530  135.3512  154.5937 H   0  0  0  0  0  0  0  0  0  0  0  0  # atno 10763 bound_to 10752
  153.6546  135.6992  153.5202 H   0  0  0  0  0  0  0  0  0  0  0  0  # atno 10764 bound_to 10752
  153.2866  135.4247  155.1086 H   0  0  0  0  0  0  0  0  0  0  0  0  # atno 10765 bound_to 10752
  140.9968  134.0460  157.3587 H   0  0  0  0  0  0  0  0  0  0  0  0  # atno 11005 bound_to 11000
  144.8482  140.6961  143.6185 LP  0  0  0  0  0  0  0  0  0  0  0  0  # atno 17320 bound_to 7965
  145.3800  139.1639  143.4285 LP  0  0  0  0  0  0  0  0  0  0  0  0  # atno 17321 bound_to 7965
  140.7770  143.3718  151.1635 LP  0  0  0  0  0  0  0  0  0  0  0  0  # atno 17342 bound_to 10162
  139.7345  143.9021  152.3030 LP  0  0  0  0  0  0  0  0  0  0  0  0  # atno 17343 bound_to 10162
  156.4219  130.7773  151.2790 LP  0  0  0  0  0  0  0  0  0  0  0  0  # atno 17370 bound_to 10713
  157.7507  131.0180  150.3609 LP  0  0  0  0  0  0  0  0  0  0  0  0  # atno 17371 bound_to 10713
  139.9019  135.0167  156.7307 LP  0  0  0  0  0  0  0  0  0  0  0  0  # atno 17394 bound_to 11000
  140.6952  133.9354  155.7991 LP  0  0  0  0  0  0  0  0  0  0  0  0  # atno 17395 bound_to 11000

$$$$
