AV-unprocessed.smi:1512|AV-procd|sdf|6102|dock10
  -GOLD-   22720 6233D 1   1.00000     0.00000
 Structure written by MMmdl.
 44 46  0  0  0  0  0  0  0  0  3 V2000
  145.8345  137.2827  154.3250 C   0  0  0  0  0  0  0  0  0  0  0  0
  146.2682  135.9224  153.7513 C   0  0  2  0  0  0  0  0  0  0  0  0
  147.7100  135.7524  153.9197 N   0  0  0  0  0  0  0  0  0  0  0  0
  148.3613  135.7117  155.0921 C   0  0  0  0  0  0  0  0  0  0  0  0
  147.7989  135.8346  156.1813 O   0  0  0  0  0  0  0  0  0  0  0  0
  149.8818  135.5137  155.0025 C   0  0  0  0  0  0  0  0  0  0  0  0
  150.6558  136.7195  155.3454 N   0  0  0  0  0  0  0  0  0  0  0  0
  150.6533  137.7641  154.4023 C   0  0  0  0  0  0  0  0  0  0  0  0
  151.3158  138.9101  154.6125 C   0  0  0  0  0  0  0  0  0  0  0  0
  152.0497  139.0580  155.8453 C   0  0  0  0  0  0  0  0  0  0  0  0
  152.0651  138.0688  156.7685 C   0  0  0  0  0  0  0  0  0  0  0  0
  152.8233  138.2821  157.9801 N   0  3  0  0  0  0  0  0  0  0  0  0
  153.4180  139.3454  158.1283 O   0  0  0  0  0  0  0  0  0  0  0  0
  152.8351  137.3943  158.8279 O   0  5  0  0  0  0  0  0  0  0  0  0
  151.3246  136.8108  156.5371 C   0  0  0  0  0  0  0  0  0  0  0  0
  151.2915  135.8927  157.3587 O   0  0  0  0  0  0  0  0  0  0  0  0
  145.9106  135.7736  152.2536 C   0  0  1  0  0  0  0  0  0  0  0  0
  146.2409  134.3920  151.6427 C   0  0  0  0  0  0  0  0  0  0  0  0
  144.9355  134.0108  150.9196 C   0  0  1  0  0  0  0  0  0  0  0  0
  143.8801  133.6084  151.9656 C   0  0  0  0  0  0  0  0  0  0  0  0
  143.5053  134.9585  152.6031 C   0  0  0  0  0  0  0  0  0  0  0  0
  144.4223  135.9540  151.8626 C   0  0  2  0  0  0  0  0  0  0  0  0
  144.4162  135.3664  150.4546 C   0  0  0  0  0  0  0  0  0  0  0  0
  144.7548  137.4154  154.2574 H   0  0  0  0  0  0  0  0  0  0  0  0
  146.3064  138.1075  153.7903 H   0  0  0  0  0  0  0  0  0  0  0  0
  146.1030  137.3723  155.3782 H   0  0  0  0  0  0  0  0  0  0  0  0
  145.7692  135.1324  154.3135 H   0  0  0  0  0  0  0  0  0  0  0  0
  148.2534  135.6460  153.0752 H   0  0  0  0  0  0  0  0  0  0  0  0
  150.1711  134.6828  155.6490 H   0  0  0  0  0  0  0  0  0  0  0  0
  150.1225  135.1823  153.9913 H   0  0  0  0  0  0  0  0  0  0  0  0
  150.0749  137.5776  153.5088 H   0  0  0  0  0  0  0  0  0  0  0  0
  151.2985  139.7033  153.8795 H   0  0  0  0  0  0  0  0  0  0  0  0
  152.5967  139.9737  156.0175 H   0  0  0  0  0  0  0  0  0  0  0  0
  146.4806  136.5259  151.7045 H   0  0  0  0  0  0  0  0  0  0  0  0
  147.0695  134.4746  150.9384 H   0  0  0  0  0  0  0  0  0  0  0  0
  146.5177  133.6481  152.3911 H   0  0  0  0  0  0  0  0  0  0  0  0
  145.0724  133.2714  150.1300 H   0  0  0  0  0  0  0  0  0  0  0  0
  143.0102  133.1562  151.4877 H   0  0  0  0  0  0  0  0  0  0  0  0
  144.2690  132.8969  152.6949 H   0  0  0  0  0  0  0  0  0  0  0  0
  142.4580  135.1896  152.4041 H   0  0  0  0  0  0  0  0  0  0  0  0
  143.6350  134.9679  153.6845 H   0  0  0  0  0  0  0  0  0  0  0  0
  144.0782  136.9871  151.9177 H   0  0  0  0  0  0  0  0  0  0  0  0
  145.0922  135.8765  149.7660 H   0  0  0  0  0  0  0  0  0  0  0  0
  143.4213  135.3183  150.0078 H   0  0  0  0  0  0  0  0  0  0  0  0
  1  2  1  0  0  0  0
  1 24  1  0  0  0  0
  1 25  1  0  0  0  0
  1 26  1  0  0  0  0
  2  3  1  0  0  0  0
  2 17  1  0  0  0  0
  2 27  1  0  0  0  0
  3  4  1  0  0  0  0
  3 28  1  0  0  0  0
  4  5  2  0  0  0  0
  4  6  1  0  0  0  0
  6  7  1  0  0  0  0
  6 29  1  0  0  0  0
  6 30  1  0  0  0  0
  7 15  1  0  0  0  0
  7  8  1  0  0  0  0
  8  9  2  0  0  0  0
  8 31  1  0  0  0  0
  9 10  1  0  0  0  0
  9 32  1  0  0  0  0
 10 11  2  0  0  0  0
 10 33  1  0  0  0  0
 11 12  1  0  0  0  0
 11 15  1  0  0  0  0
 12 13  2  0  0  0  0
 12 14  1  0  0  0  0
 15 16  2  0  0  0  0
 17 22  1  0  0  0  0
 17 18  1  0  0  0  0
 17 34  1  0  0  0  0
 18 19  1  0  0  0  0
 18 35  1  0  0  0  0
 18 36  1  0  0  0  0
 19 23  1  0  0  0  0
 19 20  1  0  0  0  0
 19 37  1  0  0  0  0
 20 21  1  0  0  0  0
 20 38  1  0  0  0  0
 20 39  1  0  0  0  0
 21 22  1  0  0  0  0
 21 40  1  0  0  0  0
 21 41  1  0  0  0  0
 22 23  1  0  0  0  0
 22 42  1  0  0  0  0
 23 43  1  0  0  0  0
 23 44  1  0  0  0  0
M  CHG  1  12   1
M  CHG  1  14  -1
M  END
> <s_m_source_file>
AV-unprocessed.smi

> <i_m_source_file_index>
1512

> <i_lp_mmshare_version>
43012

> <i_f3d_flags>
0

> <s_epik_input>
W0NIMl0xW0NIMl1bQ0BIXShbQ0gyXTIpW0NAQEhdKFtDSDJdW0NAQEhdMTIpW0NASF0oW0NIM10pW05IXUMoPU8pW0NIMl1uM1tjSF1bY0hdW2NIXWMoW04rXSg9TylbTy1dKWMzPU8=

> <s_epik_cmdline>
J2VwaWtfcHl0aG9uJywgJy1waCcsICc3LjAnLCAnLXRuJywgJzgnLCAnLW1hJywgJzIwMCcsICctbWV0YWxfYmluZGluZycsICctaW1hZScsICc8aW5maWxlLm1hZT4nLCAnLW9tYWUnLCAnPG91dGZpbGUubWFlPic=

> <r_lp_tautomer_probability>
1

> <r_epik_Ionization_Penalty>
2.17697e-08

> <r_epik_Ionization_Penalty_Charging>
1.42735e-10

> <r_epik_Ionization_Penalty_Neutral>
2.16269e-08

> <r_epik_State_Penalty>
-0

> <r_epik_Charging_Adjusted_Penalty>
1.42735e-10

> <i_epik_Tot_Q>
0

> <i_epik_Tot_abs_Q>
2

> <r_epik_Metal_State_Penalty>
-0

> <b_epik_Metal_Only>
0

> <s_lp_Force_Field>
OPLS_2005

> <r_lp_Energy>
64.3295

> <b_lp_Chiralities_Consistent>
1

> <s_lp_Variant>
AV-unprocessed.smi:1512-3

> <Gold.Version>
5.8.1

> <Gold.Id.Protein>
6NUR|6NUR_protein|mol2

> <Gold.PLP.Fitness>
41.4212

> <Gold.PLP.PLP>
-32.8549

> <Gold.PLP.part.hbond>
-2.6522

> <Gold.PLP.part.metal>
0.0000

> <Gold.PLP.part.buried>
-4.0727

> <Gold.PLP.part.nonpolar>
-25.9506

> <Gold.PLP.part.repulsive>
0.0239

> <Gold.PLP.ligand.clash>
0.0000

> <Gold.PLP.ligand.torsion>
0.3011

> <Gold.PLP.Chemscore.Hbond>
2.0000

> <Gold.PLP.Chemscore.CHOScore>
1.0479

> <Gold.PLP.Chemscore.Metal>
0.0000

> <Gold.Chemscore.Hbonds>
donor molecule, donor type, donor heavy atom, donor atom, acceptor molecule, acceptor atom, score
      L1  H     3    28       P1  7948  0.94
      P1  H  7997  8008       L1    13  1.00
      L1  C     8    31       P1  7948  1.00
      L1  C     8    31       P1  7949  0.04

> <Gold.PLP.Chemscore.Internal.Correction>
0.0247

> <Gold.Rescore>
     Score         DG    S(hbond)    S(metal)    S(lipo)     H(rot)  DE(clash)    DE(int)     intcor
     13.88     -15.84       1.97        0.00      70.67       1.75       0.01       1.95       ----

> <Gold.Chemscore.Fitness>
13.8802

> <Gold.Chemscore.DG>
-15.8423

> <Gold.Chemscore.ZeroCoef>
-5.4800

> <Gold.Chemscore.Hbond>
1.9662

> <Gold.Chemscore.Metal>
0.0000

> <Gold.Chemscore.Lipo>
70.6698

> <Gold.Chemscore.Internal_Hbond>
0.0000

> <Gold.Chemscore.DEClash>
0.0149

> <Gold.Chemscore.DEInternal>
1.9472

> <Gold.Chemscore.Rot>
1.7474

> <Gold.Chemscore.Internal.Correction>
   9.000000E+99

> <Gold.Chemscore.Hbonds>
donor molecule, donor type, donor heavy atom, donor atom, acceptor molecule, acceptor atom, score
      L1  H     3    28       P1  7948  0.87
      P1  H  7997  8008       L1    13  1.00

> <Gold.Chemscore.Hbond.Weighted>
-6.5672

> <Gold.Chemscore.Metal.Weighted>
-0.0000

> <Gold.Chemscore.Lipo.Weighted>
-8.2684

> <Gold.Chemscore.Internal_Hbond.Weighted>
0.0000

> <Gold.Chemscore.DEClash.Weighted>
0.0149

> <Gold.Chemscore.DEInternal.Weighted>
1.9472

> <Gold.Chemscore.Rot.Weighted>
4.4733

> <Gold.Chemscore.Internal.Correction.Weighted>
   9.000000E+99

> <Gold.Protein.RotatedTorsions>
[ 6907 6896 6895 6894 ] final  159.95 input  -60.11 | X-H torsion
[ 7974 7965 7964 7962 ] final  152.72 input  175.53 | X-H torsion
[ 8008 7997 7996 7995 ] final  -97.81 input   59.86 | X-H torsion
[ 10167 10162 10161 10158 ] final   90.27 input  -65.29 | X-H torsion
[ 10718 10713 10712 10709 ] final   25.52 input   66.30 | X-H torsion
[ 10763 10752 10751 10750 ] final -112.56 input  -60.55 | X-H torsion
[ 11005 11000 10999 10996 ] final  108.91 input  -57.11 | X-H torsion

> <Gold.Protein.ActiveResidues>
 VAL166  LYS551  ARG553  GLY616  TRP617  ASP618  TYR619  PRO620  LYS621  CYS622 
 ASP623  PHE694  ASN695  SER759  ASP760  ASP761  ALA762  ILE779  LEU786  VAL792 
 PHE793  MET794  SER795  GLU796  ALA797  LYS798  CYS799  TRP800  GLU811  SER814 

> <Gold.Protein.RotatedAtoms>
  151.9780  133.3748  159.4096 H   0  0  0  0  0  0  0  0  0  0  0  0  # atno 6907 bound_to 6896
  150.6939  134.4070  159.5153 H   0  0  0  0  0  0  0  0  0  0  0  0  # atno 6908 bound_to 6896
  152.1784  134.8775  160.0579 H   0  0  0  0  0  0  0  0  0  0  0  0  # atno 6909 bound_to 6896
  144.8203  139.6706  143.6103 H   0  0  0  0  0  0  0  0  0  0  0  0  # atno 7974 bound_to 7965
  154.7927  140.0460  157.1213 H   0  0  0  0  0  0  0  0  0  0  0  0  # atno 8008 bound_to 7997
  154.9572  140.3073  155.5028 H   0  0  0  0  0  0  0  0  0  0  0  0  # atno 8009 bound_to 7997
  156.2952  140.2277  156.4654 H   0  0  0  0  0  0  0  0  0  0  0  0  # atno 8010 bound_to 7997
  139.8489  144.6603  150.9193 H   0  0  0  0  0  0  0  0  0  0  0  0  # atno 10167 bound_to 10162
  157.1944  130.6861  149.6163 H   0  0  0  0  0  0  0  0  0  0  0  0  # atno 10718 bound_to 10713
  154.8355  135.4486  154.1213 H   0  0  0  0  0  0  0  0  0  0  0  0  # atno 10763 bound_to 10752
  153.2448  135.6920  153.7749 H   0  0  0  0  0  0  0  0  0  0  0  0  # atno 10764 bound_to 10752
  153.7083  135.3360  155.3216 H   0  0  0  0  0  0  0  0  0  0  0  0  # atno 10765 bound_to 10752
  139.8852  134.9444  156.6045 H   0  0  0  0  0  0  0  0  0  0  0  0  # atno 11005 bound_to 11000
  146.2508  139.6196  142.9428 LP  0  0  0  0  0  0  0  0  0  0  0  0  # atno 17320 bound_to 7965
  145.5120  141.0435  143.2482 LP  0  0  0  0  0  0  0  0  0  0  0  0  # atno 17321 bound_to 7965
  140.7790  143.3845  151.1419 LP  0  0  0  0  0  0  0  0  0  0  0  0  # atno 17342 bound_to 10162
  139.7484  143.8816  152.3070 LP  0  0  0  0  0  0  0  0  0  0  0  0  # atno 17343 bound_to 10162
  155.9708  130.4603  150.6070 LP  0  0  0  0  0  0  0  0  0  0  0  0  # atno 17370 bound_to 10713
  157.3828  131.0783  151.1461 LP  0  0  0  0  0  0  0  0  0  0  0  0  # atno 17371 bound_to 10713
  140.7858  133.8622  155.8605 LP  0  0  0  0  0  0  0  0  0  0  0  0  # atno 17394 bound_to 11000
  140.9720  134.1518  157.4568 LP  0  0  0  0  0  0  0  0  0  0  0  0  # atno 17395 bound_to 11000

$$$$
