AV-unprocessed.smi:745|AV-procd|sdf|3575|dock3
  -GOLD-   22720 0563D 1   1.00000     0.00000
 Structure written by MMmdl.
 42 43  0  0  0  0  0  0  0  0  2 V2000
  150.3317  140.2219  154.4635 C   0  0  0  0  0  0  0  0  0  0  0  0
  149.0246  140.7823  155.0506 C   0  0  1  0  0  0  0  0  0  0  0  0
  149.3669  141.9597  155.8493 N   0  0  0  0  0  0  0  0  0  0  0  0
  150.1528  141.9746  156.9372 C   0  0  0  0  0  0  0  0  0  0  0  0
  150.6739  140.9660  157.4142 O   0  0  0  0  0  0  0  0  0  0  0  0
  150.2836  143.2209  157.4245 N   0  0  0  0  0  0  0  0  0  0  0  0
  150.9875  143.6393  158.5851 C   0  0  0  0  0  0  0  0  0  0  0  0
  150.7281  144.9661  158.9969 C   0  0  0  0  0  0  0  0  0  0  0  0
  151.3716  145.4745  160.1416 C   0  0  0  0  0  0  0  0  0  0  0  0
  152.2576  144.6411  160.8473 C   0  0  0  0  0  0  0  0  0  0  0  0
  152.4592  143.3328  160.3708 C   0  0  0  0  0  0  0  0  0  0  0  0
  151.8439  142.8434  159.2735 N   0  0  0  0  0  0  0  0  0  0  0  0
  147.9658  141.1392  153.9651 C   0  0  2  0  0  0  0  0  0  0  0  0
  146.8400  142.0763  154.4619 C   0  0  0  0  0  0  0  0  0  0  0  0
  145.8689  141.3591  155.4176 C   0  0  0  0  0  0  0  0  0  0  0  0
  145.2761  140.1603  154.7749 N   0  3  2  0  0  0  0  0  0  0  0  0
  144.2692  139.5011  155.6335 C   0  0  0  0  0  0  0  0  0  0  0  0
  146.3094  139.2131  154.2879 C   0  0  0  0  0  0  0  0  0  0  0  0
  147.2876  139.9084  153.3232 C   0  0  0  0  0  0  0  0  0  0  0  0
  150.1810  139.2563  153.9825 H   0  0  0  0  0  0  0  0  0  0  0  0
  151.0761  140.0676  155.2457 H   0  0  0  0  0  0  0  0  0  0  0  0
  150.7622  140.9018  153.7275 H   0  0  0  0  0  0  0  0  0  0  0  0
  148.6181  140.0106  155.7047 H   0  0  0  0  0  0  0  0  0  0  0  0
  148.9836  142.8398  155.5362 H   0  0  0  0  0  0  0  0  0  0  0  0
  149.8169  143.9550  156.9128 H   0  0  0  0  0  0  0  0  0  0  0  0
  150.0432  145.5925  158.4441 H   0  0  0  0  0  0  0  0  0  0  0  0
  151.1873  146.4860  160.4723 H   0  0  0  0  0  0  0  0  0  0  0  0
  152.7691  144.9951  161.7302 H   0  0  0  0  0  0  0  0  0  0  0  0
  153.1309  142.6607  160.8844 H   0  0  0  0  0  0  0  0  0  0  0  0
  148.4963  141.6680  153.1717 H   0  0  0  0  0  0  0  0  0  0  0  0
  147.2433  142.9696  154.9376 H   0  0  0  0  0  0  0  0  0  0  0  0
  146.2774  142.4408  153.6012 H   0  0  0  0  0  0  0  0  0  0  0  0
  146.3778  141.0687  156.3370 H   0  0  0  0  0  0  0  0  0  0  0  0
  145.0721  142.0462  155.7055 H   0  0  0  0  0  0  0  0  0  0  0  0
  144.7271  139.1092  156.5428 H   0  0  0  0  0  0  0  0  0  0  0  0
  143.7951  138.6737  155.1046 H   0  0  0  0  0  0  0  0  0  0  0  0
  143.4867  140.2045  155.9196 H   0  0  0  0  0  0  0  0  0  0  0  0
  146.8450  138.7821  155.1347 H   0  0  0  0  0  0  0  0  0  0  0  0
  145.8230  138.3840  153.7726 H   0  0  0  0  0  0  0  0  0  0  0  0
  146.7343  140.2316  152.4404 H   0  0  0  0  0  0  0  0  0  0  0  0
  148.0228  139.1953  152.9536 H   0  0  0  0  0  0  0  0  0  0  0  0
  144.7828  140.4899  153.9572 H   0  0  0  0  0  0  0  0  0  0  0  0
  1  2  1  0  0  0  0
  1 20  1  0  0  0  0
  1 21  1  0  0  0  0
  1 22  1  0  0  0  0
  2  3  1  0  0  0  0
  2 13  1  0  0  0  0
  2 23  1  0  0  0  0
  3  4  1  0  0  0  0
  3 24  1  0  0  0  0
  4  5  2  0  0  0  0
  4  6  1  0  0  0  0
  6  7  1  0  0  0  0
  6 25  1  0  0  0  0
  7 12  1  0  0  0  0
  7  8  2  0  0  0  0
  8  9  1  0  0  0  0
  8 26  1  0  0  0  0
  9 10  2  0  0  0  0
  9 27  1  0  0  0  0
 10 11  1  0  0  0  0
 10 28  1  0  0  0  0
 11 12  2  0  0  0  0
 11 29  1  0  0  0  0
 13 19  1  0  0  0  0
 13 14  1  0  0  0  0
 13 30  1  0  0  0  0
 14 15  1  0  0  0  0
 14 31  1  0  0  0  0
 14 32  1  0  0  0  0
 15 16  1  0  0  0  0
 15 33  1  0  0  0  0
 15 34  1  0  0  0  0
 16 17  1  0  0  0  0
 16 18  1  0  0  0  0
 16 42  1  0  0  0  0
 17 35  1  0  0  0  0
 17 36  1  0  0  0  0
 17 37  1  0  0  0  0
 18 19  1  0  0  0  0
 18 38  1  0  0  0  0
 18 39  1  0  0  0  0
 19 40  1  0  0  0  0
 19 41  1  0  0  0  0
M  CHG  1  16   1
M  END
> <s_m_source_file>
AV-unprocessed.smi

> <i_m_source_file_index>
745

> <i_lp_mmshare_version>
43012

> <i_f3d_flags>
0

> <s_epik_input>
W0NIMl0xW0NIMl1OKFtDSDNdKVtDSDJdW0NIMl1bQ0hdMVtDQEhdKFtDSDNdKVtOSF1DKD1PKVtOSF1jMltjSF1bY0hdW2NIXVtjSF1uMg==

> <s_epik_cmdline>
J2VwaWtfcHl0aG9uJywgJy1waCcsICc3LjAnLCAnLXRuJywgJzgnLCAnLW1hJywgJzIwMCcsICctbWV0YWxfYmluZGluZycsICctaW1hZScsICc8aW5maWxlLm1hZT4nLCAnLW9tYWUnLCAnPG91dGZpbGUubWFlPic=

> <r_epik_Ionization_Penalty>
0.0011087

> <r_epik_Ionization_Penalty_Charging>
0.00106265

> <r_epik_Ionization_Penalty_Neutral>
4.60506e-05

> <r_epik_State_Penalty>
0.000695551

> <r_epik_Charging_Adjusted_Penalty>
0.0017582

> <i_epik_Tot_Q>
1

> <i_epik_Tot_abs_Q>
1

> <r_epik_Metal_State_Penalty>
-0

> <b_epik_Metal_Only>
0

> <s_lp_Force_Field>
OPLS_2005

> <r_lp_Energy>
20.9575

> <b_lp_Chiralities_Consistent>
1

> <s_lp_Variant>
AV-unprocessed.smi:745-4

> <Gold.Version>
5.8.1

> <Gold.Id.Protein>
6NUR|6NUR_protein|mol2

> <Gold.PLP.Fitness>
48.0751

> <Gold.PLP.PLP>
-36.6647

> <Gold.PLP.part.hbond>
-3.0000

> <Gold.PLP.part.metal>
0.0000

> <Gold.PLP.part.buried>
-4.4107

> <Gold.PLP.part.nonpolar>
-30.1602

> <Gold.PLP.part.repulsive>
0.1350

> <Gold.PLP.ligand.clash>
0.0000

> <Gold.PLP.ligand.torsion>
0.3040

> <Gold.PLP.Chemscore.Hbond>
4.0000

> <Gold.PLP.Chemscore.CHOScore>
0.0000

> <Gold.PLP.Chemscore.Metal>
0.0000

> <Gold.Chemscore.Hbonds>
donor molecule, donor type, donor heavy atom, donor atom, acceptor molecule, acceptor atom, score
      L1  H     3    24       P1  8028  1.00
      L1  H     6    25       P1  8028  1.00
      L1  H    16    42       P1 10175  2.00

> <Gold.PLP.Chemscore.Internal.Correction>
0.0183

> <Gold.Rescore>
     Score         DG    S(hbond)    S(metal)    S(lipo)     H(rot)  DE(clash)    DE(int)     intcor
     20.32     -21.79       2.91        0.00      83.83       1.26       0.06       1.40       ----

> <Gold.Chemscore.Fitness>
20.3245

> <Gold.Chemscore.DG>
-21.7878

> <Gold.Chemscore.ZeroCoef>
-5.4800

> <Gold.Chemscore.Hbond>
2.9117

> <Gold.Chemscore.Metal>
0.0000

> <Gold.Chemscore.Lipo>
83.8342

> <Gold.Chemscore.Internal_Hbond>
0.0000

> <Gold.Chemscore.DEClash>
0.0632

> <Gold.Chemscore.DEInternal>
1.4000

> <Gold.Chemscore.Rot>
1.2601

> <Gold.Chemscore.Internal.Correction>
   9.000000E+99

> <Gold.Chemscore.Hbonds>
donor molecule, donor type, donor heavy atom, donor atom, acceptor molecule, acceptor atom, score
      L1  H     3    24       P1  8028  0.95
      L1  H     6    25       P1  8028  0.94
      L1  H    16    42       P1 10175  1.00

> <Gold.Chemscore.Hbond.Weighted>
-9.7251

> <Gold.Chemscore.Metal.Weighted>
-0.0000

> <Gold.Chemscore.Lipo.Weighted>
-9.8086

> <Gold.Chemscore.Internal_Hbond.Weighted>
0.0000

> <Gold.Chemscore.DEClash.Weighted>
0.0632

> <Gold.Chemscore.DEInternal.Weighted>
1.4000

> <Gold.Chemscore.Rot.Weighted>
3.2260

> <Gold.Chemscore.Internal.Correction.Weighted>
   9.000000E+99

> <Gold.Protein.RotatedTorsions>
[ 6907 6896 6895 6894 ] final  -38.94 input  -60.11 | X-H torsion
[ 7974 7965 7964 7962 ] final   39.95 input  175.53 | X-H torsion
[ 8008 7997 7996 7995 ] final   65.78 input   59.86 | X-H torsion
[ 10167 10162 10161 10158 ] final   -9.30 input  -65.29 | X-H torsion
[ 10718 10713 10712 10709 ] final  -90.31 input   66.30 | X-H torsion
[ 10763 10752 10751 10750 ] final -153.02 input  -60.55 | X-H torsion
[ 11005 11000 10999 10996 ] final   18.38 input  -57.11 | X-H torsion

> <Gold.Protein.ActiveResidues>
 VAL166  LYS551  ARG553  GLY616  TRP617  ASP618  TYR619  PRO620  LYS621  CYS622 
 ASP623  PHE694  ASN695  SER759  ASP760  ASP761  ALA762  ILE779  LEU786  VAL792 
 PHE793  MET794  SER795  GLU796  ALA797  LYS798  CYS799  TRP800  GLU811  SER814 

> <Gold.Protein.RotatedAtoms>
  150.9963  134.9286  159.7928 H   0  0  0  0  0  0  0  0  0  0  0  0  # atno 6907 bound_to 6896
  152.5265  134.3213  159.9159 H   0  0  0  0  0  0  0  0  0  0  0  0  # atno 6908 bound_to 6896
  151.3219  133.3995  159.2689 H   0  0  0  0  0  0  0  0  0  0  0  0  # atno 6909 bound_to 6896
  146.0944  139.5591  142.9455 H   0  0  0  0  0  0  0  0  0  0  0  0  # atno 7974 bound_to 7965
  155.6672  140.3497  155.4804 H   0  0  0  0  0  0  0  0  0  0  0  0  # atno 8008 bound_to 7997
  155.9719  140.1157  157.0827 H   0  0  0  0  0  0  0  0  0  0  0  0  # atno 8009 bound_to 7997
  154.4168  140.1155  156.5304 H   0  0  0  0  0  0  0  0  0  0  0  0  # atno 8010 bound_to 7997
  140.7083  143.5873  150.8930 H   0  0  0  0  0  0  0  0  0  0  0  0  # atno 10167 bound_to 10162
  155.9987  130.4905  150.5303 H   0  0  0  0  0  0  0  0  0  0  0  0  # atno 10718 bound_to 10713
  154.7955  135.3222  154.7676 H   0  0  0  0  0  0  0  0  0  0  0  0  # atno 10763 bound_to 10752
  153.8355  135.6875  153.4813 H   0  0  0  0  0  0  0  0  0  0  0  0  # atno 10764 bound_to 10752
  153.1645  135.4647  154.9760 H   0  0  0  0  0  0  0  0  0  0  0  0  # atno 10765 bound_to 10752
  140.4255  134.1474  155.7676 H   0  0  0  0  0  0  0  0  0  0  0  0  # atno 11005 bound_to 11000
  145.5977  141.0360  143.2035 LP  0  0  0  0  0  0  0  0  0  0  0  0  # atno 17320 bound_to 7965
  144.7384  139.7519  143.7320 LP  0  0  0  0  0  0  0  0  0  0  0  0  # atno 17321 bound_to 7965
  139.9598  143.6176  152.3005 LP  0  0  0  0  0  0  0  0  0  0  0  0  # atno 17342 bound_to 10162
  139.6725  144.7660  151.1757 LP  0  0  0  0  0  0  0  0  0  0  0  0  # atno 17343 bound_to 10162
  157.3253  131.0689  151.1901 LP  0  0  0  0  0  0  0  0  0  0  0  0  # atno 17370 bound_to 10713
  157.2800  130.6746  149.6061 LP  0  0  0  0  0  0  0  0  0  0  0  0  # atno 17371 bound_to 10713
  141.1767  133.8500  157.1398 LP  0  0  0  0  0  0  0  0  0  0  0  0  # atno 17394 bound_to 11000
  140.0170  134.9963  157.0514 LP  0  0  0  0  0  0  0  0  0  0  0  0  # atno 17395 bound_to 11000

$$$$
