AV-unprocessed.smi:3083|AV-procd|sdf|11746|dock7
  -GOLD-   2272017143D 1   1.00000     0.00000
 Structure written by MMmdl.
 28 29  0  0  0  0  0  0  0  0  2 V2000
  146.1776  135.4706  152.1411 N   0  3  0  0  0  0  0  0  0  0  0  0
  145.5739  134.4273  151.2912 C   0  0  2  0  0  0  0  0  0  0  0  0
  144.1965  133.9914  151.8385 C   0  0  0  0  0  0  0  0  0  0  0  0
  143.5733  132.8773  150.9825 C   0  0  0  0  0  0  0  0  0  0  0  0
  144.5297  131.6860  150.8211 C   0  0  0  0  0  0  0  0  0  0  0  0
  145.8698  132.1353  150.2152 C   0  0  0  0  0  0  0  0  0  0  0  0
  146.5542  133.2445  151.0427 C   0  0  2  0  0  0  0  0  0  0  0  0
  147.1978  132.6968  152.2394 N   0  0  0  0  0  0  0  0  0  0  0  0
  148.0786  133.3481  153.0802 C   0  0  0  0  0  0  0  0  0  0  0  0
  148.4676  132.4622  154.0432 C   0  0  0  0  0  0  0  0  0  0  0  0
  147.7798  131.2672  153.6974 C   0  0  0  0  0  0  0  0  0  0  0  0
  147.0292  131.4092  152.6179 N   0  0  0  0  0  0  0  0  0  0  0  0
  146.1815  135.1550  153.1010 H   0  0  0  0  0  0  0  0  0  0  0  0
  145.6378  136.3209  152.0684 H   0  0  0  0  0  0  0  0  0  0  0  0
  145.3934  134.8999  150.3247 H   0  0  0  0  0  0  0  0  0  0  0  0
  144.2720  133.6546  152.8714 H   0  0  0  0  0  0  0  0  0  0  0  0
  143.5215  134.8479  151.8583 H   0  0  0  0  0  0  0  0  0  0  0  0
  142.6372  132.5443  151.4317 H   0  0  0  0  0  0  0  0  0  0  0  0
  143.3183  133.2732  149.9985 H   0  0  0  0  0  0  0  0  0  0  0  0
  144.6944  131.2072  151.7868 H   0  0  0  0  0  0  0  0  0  0  0  0
  144.0719  130.9307  150.1815 H   0  0  0  0  0  0  0  0  0  0  0  0
  146.5361  131.2785  150.1066 H   0  0  0  0  0  0  0  0  0  0  0  0
  145.6903  132.5049  149.2047 H   0  0  0  0  0  0  0  0  0  0  0  0
  147.3686  133.6368  150.4313 H   0  0  0  0  0  0  0  0  0  0  0  0
  148.3544  134.3809  152.9251 H   0  0  0  0  0  0  0  0  0  0  0  0
  149.1474  132.6386  154.8639 H   0  0  0  0  0  0  0  0  0  0  0  0
  147.8059  130.3076  154.1923 H   0  0  0  0  0  0  0  0  0  0  0  0
  147.1259  135.6456  151.8411 H   0  0  0  0  0  0  0  0  0  0  0  0
  1  2  1  0  0  0  0
  1 13  1  0  0  0  0
  1 14  1  0  0  0  0
  1 28  1  0  0  0  0
  2  7  1  0  0  0  0
  2  3  1  0  0  0  0
  2 15  1  0  0  0  0
  3  4  1  0  0  0  0
  3 16  1  0  0  0  0
  3 17  1  0  0  0  0
  4  5  1  0  0  0  0
  4 18  1  0  0  0  0
  4 19  1  0  0  0  0
  5  6  1  0  0  0  0
  5 20  1  0  0  0  0
  5 21  1  0  0  0  0
  6  7  1  0  0  0  0
  6 22  1  0  0  0  0
  6 23  1  0  0  0  0
  7  8  1  0  0  0  0
  7 24  1  0  0  0  0
  8 12  1  0  0  0  0
  8  9  1  0  0  0  0
  9 10  2  0  0  0  0
  9 25  1  0  0  0  0
 10 11  1  0  0  0  0
 10 26  1  0  0  0  0
 11 12  2  0  0  0  0
 11 27  1  0  0  0  0
M  CHG  1   1   1
M  END
> <s_m_source_file>
AV-unprocessed.smi

> <i_m_source_file_index>
3083

> <i_lp_mmshare_version>
43012

> <i_f3d_flags>
0

> <s_epik_input>
W05IMl1bQ0BASF0xW0NIMl1bQ0gyXVtDSDJdW0NIMl1bQ0BIXTFuMltjSF1bY0hdW2NIXW4y

> <s_epik_cmdline>
J2VwaWtfcHl0aG9uJywgJy1waCcsICc3LjAnLCAnLXRuJywgJzgnLCAnLW1hJywgJzIwMCcsICctbWV0YWxfYmluZGluZycsICctaW1hZScsICc8aW5maWxlLm1hZT4nLCAnLW9tYWUnLCAnPG91dGZpbGUubWFlPic=

> <r_lp_tautomer_probability>
1

> <r_epik_Ionization_Penalty>
0.00385053

> <r_epik_Ionization_Penalty_Charging>
0.0038389

> <r_epik_Ionization_Penalty_Neutral>
1.16305e-05

> <r_epik_State_Penalty>
-0

> <r_epik_Charging_Adjusted_Penalty>
0.0038389

> <i_epik_Tot_Q>
1

> <i_epik_Tot_abs_Q>
1

> <r_epik_Metal_State_Penalty>
-0

> <b_epik_Metal_Only>
0

> <s_lp_Force_Field>
OPLS_2005

> <r_lp_Energy>
16.3847

> <b_lp_Chiralities_Consistent>
1

> <s_lp_Variant>
AV-unprocessed.smi:3083-3

> <Gold.Version>
5.8.1

> <Gold.Id.Protein>
6NUR|6NUR_protein|mol2

> <Gold.PLP.Fitness>
34.9353

> <Gold.PLP.PLP>
-26.0945

> <Gold.PLP.part.hbond>
-1.0000

> <Gold.PLP.part.metal>
0.0000

> <Gold.PLP.part.buried>
-3.1675

> <Gold.PLP.part.nonpolar>
-22.6943

> <Gold.PLP.part.repulsive>
0.4042

> <Gold.PLP.ligand.clash>
0.0000

> <Gold.PLP.ligand.torsion>
0.1038

> <Gold.PLP.Chemscore.Hbond>
2.0000

> <Gold.PLP.Chemscore.CHOScore>
0.9946

> <Gold.PLP.Chemscore.Metal>
0.0000

> <Gold.Chemscore.Hbonds>
donor molecule, donor type, donor heavy atom, donor atom, acceptor molecule, acceptor atom, score
      L1  H     1    28       P1  7948  2.00
      L1  C     9    25       P1  7948  1.00

> <Gold.PLP.Chemscore.Internal.Correction>
0.0646

> <Gold.Rescore>
     Score         DG    S(hbond)    S(metal)    S(lipo)     H(rot)  DE(clash)    DE(int)     intcor
     12.18     -13.41       1.00        0.00      61.13       1.00       0.02       1.22       ----

> <Gold.Chemscore.Fitness>
12.1804

> <Gold.Chemscore.DG>
-13.4116

> <Gold.Chemscore.ZeroCoef>
-5.4800

> <Gold.Chemscore.Hbond>
0.9997

> <Gold.Chemscore.Metal>
0.0000

> <Gold.Chemscore.Lipo>
61.1339

> <Gold.Chemscore.Internal_Hbond>
0.0000

> <Gold.Chemscore.DEClash>
0.0153

> <Gold.Chemscore.DEInternal>
1.2159

> <Gold.Chemscore.Rot>
1.0000

> <Gold.Chemscore.Internal.Correction>
   9.000000E+99

> <Gold.Chemscore.Hbonds>
donor molecule, donor type, donor heavy atom, donor atom, acceptor molecule, acceptor atom, score
      L1  H     1    28       P1  7948  1.00

> <Gold.Chemscore.Hbond.Weighted>
-3.3389

> <Gold.Chemscore.Metal.Weighted>
-0.0000

> <Gold.Chemscore.Lipo.Weighted>
-7.1527

> <Gold.Chemscore.Internal_Hbond.Weighted>
0.0000

> <Gold.Chemscore.DEClash.Weighted>
0.0153

> <Gold.Chemscore.DEInternal.Weighted>
1.2159

> <Gold.Chemscore.Rot.Weighted>
2.5600

> <Gold.Chemscore.Internal.Correction.Weighted>
   9.000000E+99

> <Gold.Protein.RotatedTorsions>
[ 6907 6896 6895 6894 ] final   -3.14 input  -60.11 | X-H torsion
[ 7974 7965 7964 7962 ] final  -53.60 input  175.53 | X-H torsion
[ 8008 7997 7996 7995 ] final -105.13 input   59.86 | X-H torsion
[ 10167 10162 10161 10158 ] final  -25.78 input  -65.29 | X-H torsion
[ 10718 10713 10712 10709 ] final  -82.30 input   66.30 | X-H torsion
[ 10763 10752 10751 10750 ] final  160.54 input  -60.55 | X-H torsion
[ 11005 11000 10999 10996 ] final   47.87 input  -57.11 | X-H torsion

> <Gold.Protein.ActiveResidues>
 VAL166  LYS551  ARG553  GLY616  TRP617  ASP618  TYR619  PRO620  LYS621  CYS622 
 ASP623  PHE694  ASN695  SER759  ASP760  ASP761  ALA762  ILE779  LEU786  VAL792 
 PHE793  MET794  SER795  GLU796  ALA797  LYS798  CYS799  TRP800  GLU811  SER814 

> <Gold.Protein.RotatedAtoms>
  151.5186  135.1066  159.9872 H   0  0  0  0  0  0  0  0  0  0  0  0  # atno 6907 bound_to 6896
  152.4630  133.7859  159.6886 H   0  0  0  0  0  0  0  0  0  0  0  0  # atno 6908 bound_to 6896
  150.8601  133.7592  159.3020 H   0  0  0  0  0  0  0  0  0  0  0  0  # atno 6909 bound_to 6896
  145.8950  140.8040  142.9772 H   0  0  0  0  0  0  0  0  0  0  0  0  # atno 7974 bound_to 7965
  154.8954  140.0414  157.1862 H   0  0  0  0  0  0  0  0  0  0  0  0  # atno 8008 bound_to 7997
  154.8498  140.2927  155.5584 H   0  0  0  0  0  0  0  0  0  0  0  0  # atno 8009 bound_to 7997
  156.2995  140.2467  156.3455 H   0  0  0  0  0  0  0  0  0  0  0  0  # atno 8010 bound_to 7997
  140.7285  143.4235  151.0913 H   0  0  0  0  0  0  0  0  0  0  0  0  # atno 10167 bound_to 10162
  156.0035  130.4630  150.4084 H   0  0  0  0  0  0  0  0  0  0  0  0  # atno 10718 bound_to 10713
  154.2490  135.2772  155.2824 H   0  0  0  0  0  0  0  0  0  0  0  0  # atno 10763 bound_to 10752
  154.5481  135.5683  153.6901 H   0  0  0  0  0  0  0  0  0  0  0  0  # atno 10764 bound_to 10752
  152.9984  135.6267  154.2636 H   0  0  0  0  0  0  0  0  0  0  0  0  # atno 10765 bound_to 10752
  140.1240  134.4792  155.8574 H   0  0  0  0  0  0  0  0  0  0  0  0  # atno 11005 bound_to 11000
  144.6732  140.1589  143.7424 LP  0  0  0  0  0  0  0  0  0  0  0  0  # atno 17320 bound_to 7965
  145.8861  139.2350  143.1577 LP  0  0  0  0  0  0  0  0  0  0  0  0  # atno 17321 bound_to 7965
  139.7884  143.8255  152.3148 LP  0  0  0  0  0  0  0  0  0  0  0  0  # atno 17342 bound_to 10162
  139.8230  144.7287  150.9548 LP  0  0  0  0  0  0  0  0  0  0  0  0  # atno 17343 bound_to 10162
  157.2149  131.0469  151.2579 LP  0  0  0  0  0  0  0  0  0  0  0  0  # atno 17370 bound_to 10713
  157.3855  130.7254  149.6660 LP  0  0  0  0  0  0  0  0  0  0  0  0  # atno 17371 bound_to 10713
  141.2157  133.6771  156.6944 LP  0  0  0  0  0  0  0  0  0  0  0  0  # atno 17394 bound_to 11000
  140.2927  134.8227  157.4031 LP  0  0  0  0  0  0  0  0  0  0  0  0  # atno 17395 bound_to 11000

$$$$
