AV-unprocessed.smi:160|AV-procd|sdf|1356|dock7
  -GOLD-   2262019 63D 1   1.00000     0.00000
 Structure written by MMmdl.
 29 30  0  0  0  0  0  0  0  0  1 V2000
  152.5193  137.7357  154.0993 N   0  0  0  0  0  0  0  0  0  0  0  0
  152.7707  138.5304  155.1448 C   0  0  0  0  0  0  0  0  0  0  0  0
  153.7942  138.4267  155.8189 O   0  0  0  0  0  0  0  0  0  0  0  0
  151.7267  139.5671  155.4577 C   0  0  0  0  0  0  0  0  0  0  0  0
  151.7399  140.2455  156.6432 N   0  0  0  0  0  0  0  0  0  0  0  0
  150.6700  141.0084  156.4593 C   0  0  0  0  0  0  0  0  0  0  0  0
  150.0680  140.8310  155.2769 N   0  0  0  0  0  0  0  0  0  0  0  0
  148.8408  141.4541  154.6880 C   0  0  1  0  0  0  0  0  0  0  0  0
  148.4973  140.7324  153.5433 O   0  0  0  0  0  0  0  0  0  0  0  0
  147.5311  139.7431  153.8812 C   0  0  2  0  0  0  0  0  0  0  0  0
  146.8265  139.1954  152.6274 C   0  0  0  0  0  0  0  0  0  0  0  0
  147.7481  138.4899  151.8238 O   0  0  0  0  0  0  0  0  0  0  0  0
  146.6387  140.5085  154.8660 C   0  0  2  0  0  0  0  0  0  0  0  0
  145.7131  141.3251  154.1659 O   0  0  0  0  0  0  0  0  0  0  0  0
  147.6561  141.3232  155.6665 C   0  0  2  0  0  0  0  0  0  0  0  0
  147.1444  142.5704  156.0982 O   0  0  0  0  0  0  0  0  0  0  0  0
  150.7466  139.8692  154.6038 N   0  0  0  0  0  0  0  0  0  0  0  0
  149.1329  142.4768  154.4461 H   0  0  0  0  0  0  0  0  0  0  0  0
  148.0199  138.9294  154.4211 H   0  0  0  0  0  0  0  0  0  0  0  0
  146.0742  139.8318  155.5084 H   0  0  0  0  0  0  0  0  0  0  0  0
  147.9648  140.7489  156.5416 H   0  0  0  0  0  0  0  0  0  0  0  0
  153.1815  137.0190  153.8410 H   0  0  0  0  0  0  0  0  0  0  0  0
  151.6647  137.8576  153.5755 H   0  0  0  0  0  0  0  0  0  0  0  0
  150.3209  141.7105  157.2025 H   0  0  0  0  0  0  0  0  0  0  0  0
  146.0407  138.4959  152.9139 H   0  0  0  0  0  0  0  0  0  0  0  0
  146.3583  139.9944  152.0515 H   0  0  0  0  0  0  0  0  0  0  0  0
  148.0396  137.7277  152.3005 H   0  0  0  0  0  0  0  0  0  0  0  0
  145.1708  140.7661  153.6300 H   0  0  0  0  0  0  0  0  0  0  0  0
  147.8448  143.2046  156.0762 H   0  0  0  0  0  0  0  0  0  0  0  0
  1  2  1  0  0  0  0
  1 22  1  0  0  0  0
  1 23  1  0  0  0  0
  2  3  2  0  0  0  0
  2  4  1  0  0  0  0
  4 17  2  0  0  0  0
  4  5  1  0  0  0  0
  5  6  2  0  0  0  0
  6  7  1  0  0  0  0
  6 24  1  0  0  0  0
  7  8  1  0  0  0  0
  7 17  1  0  0  0  0
  8 18  1  0  0  0  0
  8 15  1  0  0  0  0
  8  9  1  0  0  0  0
  9 10  1  0  0  0  0
 10 19  1  0  0  0  0
 10 11  1  0  0  0  0
 10 13  1  0  0  0  0
 11 12  1  0  0  0  0
 11 25  1  0  0  0  0
 11 26  1  0  0  0  0
 12 27  1  0  0  0  0
 13 20  1  0  0  0  0
 13 14  1  0  0  0  0
 13 15  1  0  0  0  0
 14 28  1  0  0  0  0
 15 21  1  0  0  0  0
 15 16  1  0  0  0  0
 16 29  1  0  0  0  0
M  END
> <s_m_source_file>
AV-unprocessed.smi

> <i_m_source_file_index>
160

> <i_lp_mmshare_version>
43012

> <i_f3d_flags>
0

> <s_epik_input>
W05IMl1DKD1PKWMxbltjSF1uKG4xKVtDQEBIXTJPW0NASF0oW0NIMl1bT0hdKVtDQEBIXShbT0hdKVtDQEhdMltPSF0=

> <s_epik_cmdline>
J2VwaWtfcHl0aG9uJywgJy1waCcsICc3LjAnLCAnLXRuJywgJzgnLCAnLW1hJywgJzIwMCcsICctbWV0YWxfYmluZGluZycsICctaW1hZScsICc8aW5maWxlLm1hZT4nLCAnLW9tYWUnLCAnPG91dGZpbGUubWFlPic=

> <r_lp_tautomer_probability>
1

> <r_epik_Ionization_Penalty>
1.06932e-05

> <r_epik_Ionization_Penalty_Charging>
0

> <r_epik_Ionization_Penalty_Neutral>
1.06932e-05

> <r_epik_State_Penalty>
-0

> <r_epik_Charging_Adjusted_Penalty>
0

> <i_epik_Tot_Q>
0

> <i_epik_Tot_abs_Q>
0

> <r_epik_Metal_State_Penalty>
0.0142097

> <b_epik_Metal_Only>
0

> <s_epik_Chemistry_Notes>
This compound contains an acetal/aminal-like group ( X-CH(R)-Y where X, Y are N, S, or O) that may be acid/base labile, releasing an aldehyde.

> <s_lp_Force_Field>
OPLS_2005

> <r_lp_Energy>
42.1222

> <b_lp_Chiralities_Consistent>
1

> <s_lp_Variant>
AV-unprocessed.smi:160-14

> <Gold.Version>
5.8.1

> <Gold.Id.Protein>
6NUR|6NUR_protein|mol2

> <Gold.PLP.Fitness>
40.2389

> <Gold.PLP.PLP>
-25.1156

> <Gold.PLP.part.hbond>
-6.7826

> <Gold.PLP.part.metal>
0.0000

> <Gold.PLP.part.buried>
-3.0036

> <Gold.PLP.part.nonpolar>
-19.2978

> <Gold.PLP.part.repulsive>
4.6813

> <Gold.PLP.ligand.clash>
0.0000

> <Gold.PLP.ligand.torsion>
0.2301

> <Gold.PLP.Chemscore.Hbond>
5.1848

> <Gold.PLP.Chemscore.CHOScore>
0.0000

> <Gold.PLP.Chemscore.Metal>
0.0000

> <Gold.Chemscore.Hbonds>
donor molecule, donor type, donor heavy atom, donor atom, acceptor molecule, acceptor atom, score
      L1  H    12    27       P1  7948  0.66
      L1  H    14    28       P1 10175  1.00
      L1  H    16    29       P1  8028  1.00
      P1  H  7954  7966       L1    12  0.90
      P1  H  7989  7998       L1    17  1.00
      P1  H  7997  8008       L1     3  0.62

> <Gold.PLP.Chemscore.Internal.Correction>
0.0290

> <Gold.Rescore>
     Score         DG    S(hbond)    S(metal)    S(lipo)     H(rot)  DE(clash)    DE(int)     intcor
      5.53      -5.71       2.54        0.00      18.40       4.06       0.07       0.11       ----

> <Gold.Chemscore.Fitness>
5.5263

> <Gold.Chemscore.DG>
-5.7102

> <Gold.Chemscore.ZeroCoef>
-5.4800

> <Gold.Chemscore.Hbond>
2.5363

> <Gold.Chemscore.Metal>
0.0000

> <Gold.Chemscore.Lipo>
18.3978

> <Gold.Chemscore.Internal_Hbond>
0.0000

> <Gold.Chemscore.DEClash>
0.0710

> <Gold.Chemscore.DEInternal>
0.1129

> <Gold.Chemscore.Rot>
4.0600

> <Gold.Chemscore.Internal.Correction>
   9.000000E+99

> <Gold.Chemscore.Hbonds>
donor molecule, donor type, donor heavy atom, donor atom, acceptor molecule, acceptor atom, score
      L1  H    12    27       P1  7948  0.66
      L1  H    14    28       P1 10175  0.88
      L1  H    16    29       P1  8028  0.26
      P1  H  7954  7966       L1    12  0.21
      P1  H  7989  7998       L1    17  0.07
      P1  H  7997  8008       L1     3  0.46

> <Gold.Chemscore.Hbond.Weighted>
-8.4713

> <Gold.Chemscore.Metal.Weighted>
-0.0000

> <Gold.Chemscore.Lipo.Weighted>
-2.1525

> <Gold.Chemscore.Internal_Hbond.Weighted>
0.0000

> <Gold.Chemscore.DEClash.Weighted>
0.0710

> <Gold.Chemscore.DEInternal.Weighted>
0.1129

> <Gold.Chemscore.Rot.Weighted>
10.3936

> <Gold.Chemscore.Internal.Correction.Weighted>
   9.000000E+99

> <Gold.Protein.RotatedTorsions>
[ 6907 6896 6895 6894 ] final -164.31 input  -60.11 | X-H torsion
[ 7974 7965 7964 7962 ] final  165.04 input  175.53 | X-H torsion
[ 8008 7997 7996 7995 ] final  -43.20 input   59.86 | X-H torsion
[ 10167 10162 10161 10158 ] final  -81.74 input  -65.29 | X-H torsion
[ 10718 10713 10712 10709 ] final   72.52 input   66.30 | X-H torsion
[ 10763 10752 10751 10750 ] final   59.03 input  -60.55 | X-H torsion
[ 11005 11000 10999 10996 ] final   30.10 input  -57.11 | X-H torsion

> <Gold.Protein.ActiveResidues>
 VAL166  LYS551  ARG553  GLY616  TRP617  ASP618  TYR619  PRO620  LYS621  CYS622 
 ASP623  PHE694  ASN695  SER759  ASP760  ASP761  ALA762  ILE779  LEU786  VAL792 
 PHE793  MET794  SER795  GLU796  ALA797  LYS798  CYS799  TRP800  GLU811  SER814 

> <Gold.Protein.RotatedAtoms>
  151.4099  133.3730  159.2742 H   0  0  0  0  0  0  0  0  0  0  0  0  # atno 6907 bound_to 6896
  150.9371  134.8784  159.7599 H   0  0  0  0  0  0  0  0  0  0  0  0  # atno 6908 bound_to 6896
  152.5054  134.4047  159.9480 H   0  0  0  0  0  0  0  0  0  0  0  0  # atno 6909 bound_to 6896
  144.7519  139.8413  143.6363 H   0  0  0  0  0  0  0  0  0  0  0  0  # atno 7974 bound_to 7965
  154.3997  140.1454  156.3480 H   0  0  0  0  0  0  0  0  0  0  0  0  # atno 8008 bound_to 7997
  155.8295  140.3466  155.5542 H   0  0  0  0  0  0  0  0  0  0  0  0  # atno 8009 bound_to 7997
  155.8203  140.0897  157.1843 H   0  0  0  0  0  0  0  0  0  0  0  0  # atno 8010 bound_to 7997
  140.4384  143.2523  151.8660 H   0  0  0  0  0  0  0  0  0  0  0  0  # atno 10167 bound_to 10162
  157.6505  130.9583  150.0941 H   0  0  0  0  0  0  0  0  0  0  0  0  # atno 10718 bound_to 10713
  152.9885  135.5586  154.5648 H   0  0  0  0  0  0  0  0  0  0  0  0  # atno 10763 bound_to 10752
  154.5060  135.2800  155.1384 H   0  0  0  0  0  0  0  0  0  0  0  0  # atno 10764 bound_to 10752
  154.2795  135.6347  153.5394 H   0  0  0  0  0  0  0  0  0  0  0  0  # atno 10765 bound_to 10752
  140.2979  134.2789  155.7760 H   0  0  0  0  0  0  0  0  0  0  0  0  # atno 11005 bound_to 11000
  146.1481  139.4556  143.0066 LP  0  0  0  0  0  0  0  0  0  0  0  0  # atno 17320 bound_to 7965
  145.6913  141.0163  143.1554 LP  0  0  0  0  0  0  0  0  0  0  0  0  # atno 17321 bound_to 7965
  139.4788  144.5256  151.8739 LP  0  0  0  0  0  0  0  0  0  0  0  0  # atno 17342 bound_to 10162
  140.4346  144.2069  150.5889 LP  0  0  0  0  0  0  0  0  0  0  0  0  # atno 17343 bound_to 10162
  156.1882  130.3653  149.8945 LP  0  0  0  0  0  0  0  0  0  0  0  0  # atno 17370 bound_to 10713
  156.6880  130.8884  151.3584 LP  0  0  0  0  0  0  0  0  0  0  0  0  # atno 17371 bound_to 10713
  141.2134  133.7627  156.9724 LP  0  0  0  0  0  0  0  0  0  0  0  0  # atno 17394 bound_to 11000
  140.1135  134.9462  157.2100 LP  0  0  0  0  0  0  0  0  0  0  0  0  # atno 17395 bound_to 11000

$$$$
