AV-unprocessed.smi:1851|AV-procd|sdf|7524|dock2
  -GOLD-   22720 9233D 1   1.00000     0.00000
 Structure written by MMmdl.
 40 42  0  0  0  0  0  0  0  0  2 V2000
  149.4094  141.7555  153.3729 O   0  0  0  0  0  0  0  0  0  0  0  0
  148.7907  141.4524  154.3917 C   0  0  0  0  0  0  0  0  0  0  0  0
  149.3599  141.2515  155.5887 N   0  0  0  0  0  0  0  0  0  0  0  0
  150.7823  141.4129  155.8753 C   0  0  0  0  0  0  0  0  0  0  0  0
  151.0791  142.2035  157.1151 C   0  0  0  0  0  0  0  0  0  0  0  0
  150.8614  143.5365  157.3132 N   0  3  0  0  0  0  0  0  0  0  0  0
  151.2729  143.9005  158.5958 C   0  0  0  0  0  0  0  0  0  0  0  0
  151.2538  145.1307  159.2457 C   0  0  0  0  0  0  0  0  0  0  0  0
  151.7565  145.1578  160.5633 C   0  0  0  0  0  0  0  0  0  0  0  0
  152.2522  143.9927  161.1844 C   0  0  0  0  0  0  0  0  0  0  0  0
  152.2643  142.7508  160.5157 C   0  0  0  0  0  0  0  0  0  0  0  0
  151.7641  142.7334  159.2141 C   0  0  0  0  0  0  0  0  0  0  0  0
  151.6192  141.7134  158.2679 N   0  0  0  0  0  0  0  0  0  0  0  0
  152.0387  140.3498  158.6147 C   0  0  0  0  0  0  0  0  0  0  0  0
  153.5059  140.2951  159.0569 C   0  0  0  0  0  0  0  0  0  0  0  0
  153.8322  138.9462  159.3576 O   0  0  0  0  0  0  0  0  0  0  0  0
  154.2410  138.6435  160.6385 C   0  0  0  0  0  0  0  0  0  0  0  0
  154.8555  139.6780  161.3742 C   0  0  0  0  0  0  0  0  0  0  0  0
  155.3048  139.4582  162.6905 C   0  0  0  0  0  0  0  0  0  0  0  0
  155.1429  138.1940  163.2870 C   0  0  0  0  0  0  0  0  0  0  0  0
  155.6924  137.9218  164.8996 Cl  0  0  0  0  0  0  0  0  0  0  0  0
  154.5311  137.1525  162.5646 C   0  0  0  0  0  0  0  0  0  0  0  0
  154.0814  137.3730  161.2480 C   0  0  0  0  0  0  0  0  0  0  0  0
  147.7008  141.3064  154.4440 H   0  0  0  0  0  0  0  0  0  0  0  0
  148.7620  141.0009  156.3632 H   0  0  0  0  0  0  0  0  0  0  0  0
  151.2658  140.4377  155.9510 H   0  0  0  0  0  0  0  0  0  0  0  0
  151.2385  141.9181  155.0237 H   0  0  0  0  0  0  0  0  0  0  0  0
  150.8751  146.0244  158.7716 H   0  0  0  0  0  0  0  0  0  0  0  0
  151.7626  146.0907  161.1084 H   0  0  0  0  0  0  0  0  0  0  0  0
  152.6308  144.0520  162.1945 H   0  0  0  0  0  0  0  0  0  0  0  0
  152.6467  141.8640  160.9992 H   0  0  0  0  0  0  0  0  0  0  0  0
  151.3780  139.9644  159.3920 H   0  0  0  0  0  0  0  0  0  0  0  0
  151.8861  139.7190  157.7386 H   0  0  0  0  0  0  0  0  0  0  0  0
  154.1467  140.6694  158.2569 H   0  0  0  0  0  0  0  0  0  0  0  0
  153.6537  140.9236  159.9364 H   0  0  0  0  0  0  0  0  0  0  0  0
  154.9841  140.6515  160.9241 H   0  0  0  0  0  0  0  0  0  0  0  0
  155.7733  140.2613  163.2404 H   0  0  0  0  0  0  0  0  0  0  0  0
  154.4050  136.1812  163.0199 H   0  0  0  0  0  0  0  0  0  0  0  0
  153.6170  136.5497  160.7270 H   0  0  0  0  0  0  0  0  0  0  0  0
  150.4550  144.1487  156.6175 H   0  0  0  0  0  0  0  0  0  0  0  0
  1  2  2  0  0  0  0
  2  3  1  0  0  0  0
  2 24  1  0  0  0  0
  3  4  1  0  0  0  0
  3 25  1  0  0  0  0
  4  5  1  0  0  0  0
  4 26  1  0  0  0  0
  4 27  1  0  0  0  0
  5 13  1  0  0  0  0
  5  6  2  0  0  0  0
  6  7  1  0  0  0  0
  6 40  1  0  0  0  0
  7 12  2  0  0  0  0
  7  8  1  0  0  0  0
  8  9  2  0  0  0  0
  8 28  1  0  0  0  0
  9 10  1  0  0  0  0
  9 29  1  0  0  0  0
 10 11  2  0  0  0  0
 10 30  1  0  0  0  0
 11 12  1  0  0  0  0
 11 31  1  0  0  0  0
 12 13  1  0  0  0  0
 13 14  1  0  0  0  0
 14 15  1  0  0  0  0
 14 32  1  0  0  0  0
 14 33  1  0  0  0  0
 15 16  1  0  0  0  0
 15 34  1  0  0  0  0
 15 35  1  0  0  0  0
 16 17  1  0  0  0  0
 17 23  1  0  0  0  0
 17 18  2  0  0  0  0
 18 19  1  0  0  0  0
 18 36  1  0  0  0  0
 19 20  2  0  0  0  0
 19 37  1  0  0  0  0
 20 21  1  0  0  0  0
 20 22  1  0  0  0  0
 22 23  2  0  0  0  0
 22 38  1  0  0  0  0
 23 39  1  0  0  0  0
M  CHG  1   6   1
M  END
> <s_m_source_file>
AV-unprocessed.smi

> <i_m_source_file_index>
1851

> <i_lp_mmshare_version>
43012

> <i_f3d_flags>
0

> <s_epik_input>
Tz1bQ0hdW05IXVtDSDJdYyhuMSluKGMoYzEyKVtjSF1bY0hdW2NIXVtjSF0yKVtDSDJdW0NIMl1PYzNbY0hdW2NIXWMoQ2wpW2NIXVtjSF0z

> <s_epik_cmdline>
J2VwaWtfcHl0aG9uJywgJy1waCcsICc3LjAnLCAnLXRuJywgJzgnLCAnLW1hJywgJzIwMCcsICctbWV0YWxfYmluZGluZycsICctaW1hZScsICc8aW5maWxlLm1hZT4nLCAnLW9tYWUnLCAnPG91dGZpbGUubWFlPic=

> <r_lp_tautomer_probability>
1

> <r_epik_Ionization_Penalty>
1.32442

> <r_epik_Ionization_Penalty_Charging>
1.32442

> <r_epik_Ionization_Penalty_Neutral>
7.38905e-08

> <r_epik_State_Penalty>
1.4003

> <r_epik_Charging_Adjusted_Penalty>
2.72472

> <i_epik_Tot_Q>
1

> <i_epik_Tot_abs_Q>
1

> <r_epik_Metal_State_Penalty>
1.46133

> <b_epik_Metal_Only>
0

> <s_lp_Force_Field>
OPLS_2005

> <r_lp_Energy>
15.621

> <b_lp_Chiralities_Consistent>
1

> <s_lp_Variant>
AV-unprocessed.smi:1851-2

> <Gold.Version>
5.8.1

> <Gold.Id.Protein>
6NUR|6NUR_protein|mol2

> <Gold.PLP.Fitness>
57.9201

> <Gold.PLP.PLP>
-50.9903

> <Gold.PLP.part.hbond>
-3.0000

> <Gold.PLP.part.metal>
0.0000

> <Gold.PLP.part.buried>
-7.6550

> <Gold.PLP.part.nonpolar>
-43.2145

> <Gold.PLP.part.repulsive>
2.4975

> <Gold.PLP.ligand.clash>
0.0000

> <Gold.PLP.ligand.torsion>
0.8941

> <Gold.PLP.Chemscore.Hbond>
2.8800

> <Gold.PLP.Chemscore.CHOScore>
0.0000

> <Gold.PLP.Chemscore.Metal>
0.0000

> <Gold.Chemscore.Hbonds>
donor molecule, donor type, donor heavy atom, donor atom, acceptor molecule, acceptor atom, score
      L1  H     6    40       P1  8028  1.98
      P1  H  8011  8017       L1     1  0.29

> <Gold.PLP.Chemscore.Internal.Correction>
0.0781

> <Gold.Rescore>
     Score         DG    S(hbond)    S(metal)    S(lipo)     H(rot)  DE(clash)    DE(int)     intcor
     19.79     -20.54       1.74        0.00     133.55       2.49       0.07       0.69       ----

> <Gold.Chemscore.Fitness>
19.7862

> <Gold.Chemscore.DG>
-20.5449

> <Gold.Chemscore.ZeroCoef>
-5.4800

> <Gold.Chemscore.Hbond>
1.7373

> <Gold.Chemscore.Metal>
0.0000

> <Gold.Chemscore.Lipo>
133.5470

> <Gold.Chemscore.Internal_Hbond>
0.0000

> <Gold.Chemscore.DEClash>
0.0728

> <Gold.Chemscore.DEInternal>
0.6858

> <Gold.Chemscore.Rot>
2.4854

> <Gold.Chemscore.Internal.Correction>
   9.000000E+99

> <Gold.Chemscore.Hbonds>
donor molecule, donor type, donor heavy atom, donor atom, acceptor molecule, acceptor atom, score
      L1  H     6    40       P1  8028  0.93
      P1  H  7989  7998       L1     1  0.01
      P1  H  8011  8017       L1     1  0.30

> <Gold.Chemscore.Hbond.Weighted>
-5.8025

> <Gold.Chemscore.Metal.Weighted>
-0.0000

> <Gold.Chemscore.Lipo.Weighted>
-15.6250

> <Gold.Chemscore.Internal_Hbond.Weighted>
0.0000

> <Gold.Chemscore.DEClash.Weighted>
0.0728

> <Gold.Chemscore.DEInternal.Weighted>
0.6858

> <Gold.Chemscore.Rot.Weighted>
6.3627

> <Gold.Chemscore.Internal.Correction.Weighted>
   9.000000E+99

> <Gold.Protein.RotatedTorsions>
[ 6907 6896 6895 6894 ] final -176.43 input  -60.11 | X-H torsion
[ 7974 7965 7964 7962 ] final  -73.03 input  175.53 | X-H torsion
[ 8008 7997 7996 7995 ] final  -68.85 input   59.86 | X-H torsion
[ 10167 10162 10161 10158 ] final  121.36 input  -65.29 | X-H torsion
[ 10718 10713 10712 10709 ] final    5.02 input   66.30 | X-H torsion
[ 10763 10752 10751 10750 ] final  144.04 input  -60.55 | X-H torsion
[ 11005 11000 10999 10996 ] final  -75.86 input  -57.11 | X-H torsion

> <Gold.Protein.ActiveResidues>
 VAL166  LYS551  ARG553  GLY616  TRP617  ASP618  TYR619  PRO620  LYS621  CYS622 
 ASP623  PHE694  ASN695  SER759  ASP760  ASP761  ALA762  ILE779  LEU786  VAL792 
 PHE793  MET794  SER795  GLU796  ALA797  LYS798  CYS799  TRP800  GLU811  SER814 

> <Gold.Protein.RotatedAtoms>
  151.6046  133.3353  159.3054 H   0  0  0  0  0  0  0  0  0  0  0  0  # atno 6907 bound_to 6896
  150.8189  134.7389  159.6766 H   0  0  0  0  0  0  0  0  0  0  0  0  # atno 6908 bound_to 6896
  152.4284  134.5831  160.0005 H   0  0  0  0  0  0  0  0  0  0  0  0  # atno 6909 bound_to 6896
  145.6574  140.9263  143.0952 H   0  0  0  0  0  0  0  0  0  0  0  0  # atno 7974 bound_to 7965
  154.4897  140.0865  156.7566 H   0  0  0  0  0  0  0  0  0  0  0  0  # atno 8008 bound_to 7997
  155.4261  140.3448  155.4257 H   0  0  0  0  0  0  0  0  0  0  0  0  # atno 8009 bound_to 7997
  156.1312  140.1502  156.9050 H   0  0  0  0  0  0  0  0  0  0  0  0  # atno 8010 bound_to 7997
  139.5924  144.7030  151.3257 H   0  0  0  0  0  0  0  0  0  0  0  0  # atno 10167 bound_to 10162
  156.9012  130.5722  149.5648 H   0  0  0  0  0  0  0  0  0  0  0  0  # atno 10718 bound_to 10713
  153.9823  135.2940  155.3419 H   0  0  0  0  0  0  0  0  0  0  0  0  # atno 10763 bound_to 10752
  154.7262  135.5088  153.8892 H   0  0  0  0  0  0  0  0  0  0  0  0  # atno 10764 bound_to 10752
  153.0848  135.6690  154.0085 H   0  0  0  0  0  0  0  0  0  0  0  0  # atno 10765 bound_to 10752
  141.1649  133.6962  156.7581 H   0  0  0  0  0  0  0  0  0  0  0  0  # atno 11005 bound_to 11000
  144.7101  139.8404  143.7417 LP  0  0  0  0  0  0  0  0  0  0  0  0  # atno 17320 bound_to 7965
  146.1154  139.4164  143.0262 LP  0  0  0  0  0  0  0  0  0  0  0  0  # atno 17321 bound_to 7965
  140.7184  143.7203  150.7701 LP  0  0  0  0  0  0  0  0  0  0  0  0  # atno 17342 bound_to 10162
  140.0762  143.5013  152.2554 LP  0  0  0  0  0  0  0  0  0  0  0  0  # atno 17343 bound_to 10162
  156.0581  130.5639  150.9134 LP  0  0  0  0  0  0  0  0  0  0  0  0  # atno 17370 bound_to 10713
  157.6025  131.0940  150.8936 LP  0  0  0  0  0  0  0  0  0  0  0  0  # atno 17371 bound_to 10713
  140.2554  134.8508  157.3707 LP  0  0  0  0  0  0  0  0  0  0  0  0  # atno 17394 bound_to 11000
  140.1662  134.4666  155.7861 LP  0  0  0  0  0  0  0  0  0  0  0  0  # atno 17395 bound_to 11000

$$$$
