AV-unprocessed.smi:826|AV-procd|sdf|3852|dock2
  -GOLD-   22720 1303D 1   1.00000     0.00000
 Structure written by MMmdl.
 39 40  0  0  0  0  0  0  0  0  1 V2000
  151.7974  140.7343  157.3083 C   0  0  0  0  0  0  0  0  0  0  0  0
  151.2178  139.8382  156.2678 C   0  0  0  0  0  0  0  0  0  0  0  0
  151.0044  140.2399  155.0092 N   0  0  0  0  0  0  0  0  0  0  0  0
  150.4556  139.2365  154.2226 N   0  0  0  0  0  0  0  0  0  0  0  0
  150.2716  138.1035  154.9141 C   0  0  0  0  0  0  0  0  0  0  0  0
  149.7188  136.9199  154.3581 N   0  0  0  0  0  0  0  0  0  0  0  0
  149.1648  135.8769  155.0006 C   0  0  0  0  0  0  0  0  0  0  0  0
  149.0167  135.7870  156.2199 O   0  0  0  0  0  0  0  0  0  0  0  0
  148.7808  134.9242  154.1376 N   0  0  0  0  0  0  0  0  0  0  0  0
  148.1255  133.6701  154.5053 C   0  0  2  0  0  0  0  0  0  0  0  0
  149.1794  132.5510  154.4624 C   0  0  0  0  0  0  0  0  0  0  0  0
  147.0209  133.3286  153.4933 C   0  0  0  0  0  0  0  0  0  0  0  0
  146.3457  132.3061  153.6238 O   0  0  0  0  0  0  0  0  0  0  0  0
  146.8442  134.2033  152.4917 N   0  0  0  0  0  0  0  0  0  0  0  0
  145.8619  134.0628  151.4208 C   0  0  0  0  0  0  0  0  0  0  0  0
  144.4366  133.8566  151.9761 C   0  0  0  0  0  0  0  0  0  0  0  0
  143.8706  132.6348  151.2501 C   0  0  0  0  0  0  0  0  0  0  0  0
  145.0979  131.7908  150.9218 C   0  0  0  0  0  0  0  0  0  0  0  0
  146.1693  132.8209  150.5645 C   0  0  0  0  0  0  0  0  0  0  0  0
  150.7634  138.1707  156.5977 S   0  0  0  0  0  0  0  0  0  0  0  0
  151.2799  141.6939  157.3092 H   0  0  0  0  0  0  0  0  0  0  0  0
  152.8551  140.9046  157.1071 H   0  0  0  0  0  0  0  0  0  0  0  0
  151.6968  140.2845  158.2963 H   0  0  0  0  0  0  0  0  0  0  0  0
  149.7615  136.8540  153.3520 H   0  0  0  0  0  0  0  0  0  0  0  0
  148.9322  135.0838  153.1525 H   0  0  0  0  0  0  0  0  0  0  0  0
  147.7107  133.7444  155.5127 H   0  0  0  0  0  0  0  0  0  0  0  0
  148.7439  131.5864  154.7264 H   0  0  0  0  0  0  0  0  0  0  0  0
  149.9833  132.7475  155.1726 H   0  0  0  0  0  0  0  0  0  0  0  0
  149.6306  132.4534  153.4734 H   0  0  0  0  0  0  0  0  0  0  0  0
  147.4438  135.0152  152.4587 H   0  0  0  0  0  0  0  0  0  0  0  0
  145.8959  134.9481  150.7829 H   0  0  0  0  0  0  0  0  0  0  0  0
  144.4661  133.6494  153.0473 H   0  0  0  0  0  0  0  0  0  0  0  0
  143.8106  134.7385  151.8379 H   0  0  0  0  0  0  0  0  0  0  0  0
  143.1354  132.0948  151.8469 H   0  0  0  0  0  0  0  0  0  0  0  0
  143.3842  132.9492  150.3256 H   0  0  0  0  0  0  0  0  0  0  0  0
  145.4057  131.2297  151.8053 H   0  0  0  0  0  0  0  0  0  0  0  0
  144.9161  131.0768  150.1180 H   0  0  0  0  0  0  0  0  0  0  0  0
  146.0742  133.0811  149.5094 H   0  0  0  0  0  0  0  0  0  0  0  0
  147.1787  132.4325  150.7068 H   0  0  0  0  0  0  0  0  0  0  0  0
  1  2  1  0  0  0  0
  1 21  1  0  0  0  0
  1 22  1  0  0  0  0
  1 23  1  0  0  0  0
  2 20  1  0  0  0  0
  2  3  2  0  0  0  0
  3  4  1  0  0  0  0
  4  5  2  0  0  0  0
  5  6  1  0  0  0  0
  5 20  1  0  0  0  0
  6  7  1  0  0  0  0
  6 24  1  0  0  0  0
  7  8  2  0  0  0  0
  7  9  1  0  0  0  0
  9 10  1  0  0  0  0
  9 25  1  0  0  0  0
 10 11  1  0  0  0  0
 10 12  1  0  0  0  0
 10 26  1  0  0  0  0
 11 27  1  0  0  0  0
 11 28  1  0  0  0  0
 11 29  1  0  0  0  0
 12 13  2  0  0  0  0
 12 14  1  0  0  0  0
 14 15  1  0  0  0  0
 14 30  1  0  0  0  0
 15 19  1  0  0  0  0
 15 16  1  0  0  0  0
 15 31  1  0  0  0  0
 16 17  1  0  0  0  0
 16 32  1  0  0  0  0
 16 33  1  0  0  0  0
 17 18  1  0  0  0  0
 17 34  1  0  0  0  0
 17 35  1  0  0  0  0
 18 19  1  0  0  0  0
 18 36  1  0  0  0  0
 18 37  1  0  0  0  0
 19 38  1  0  0  0  0
 19 39  1  0  0  0  0
M  END
> <s_m_source_file>
AV-unprocessed.smi

> <i_m_source_file_index>
826

> <i_lp_mmshare_version>
43012

> <i_f3d_flags>
0

> <s_epik_input>
W0NIM11jMW5uYyhzMSlbTkhdQyg9TylbTkhdW0NASF0oW0NIM10pQyg9TylbTkhdW0NIXTJbQ0gyXVtDSDJdW0NIMl1bQ0gyXTI=

> <s_epik_cmdline>
J2VwaWtfcHl0aG9uJywgJy1waCcsICc3LjAnLCAnLXRuJywgJzgnLCAnLW1hJywgJzIwMCcsICctbWV0YWxfYmluZGluZycsICctaW1hZScsICc8aW5maWxlLm1hZT4nLCAnLW9tYWUnLCAnPG91dGZpbGUubWFlPic=

> <r_lp_tautomer_probability>
1

> <r_epik_Ionization_Penalty>
0.00368568

> <r_epik_Ionization_Penalty_Charging>
0

> <r_epik_Ionization_Penalty_Neutral>
0.00368568

> <r_epik_State_Penalty>
-0

> <r_epik_Charging_Adjusted_Penalty>
0

> <i_epik_Tot_Q>
0

> <i_epik_Tot_abs_Q>
0

> <r_epik_Metal_State_Penalty>
0.369753

> <b_epik_Metal_Only>
0

> <s_lp_Force_Field>
OPLS_2005

> <r_lp_Energy>
15.7146

> <b_lp_Chiralities_Consistent>
1

> <s_lp_Variant>
AV-unprocessed.smi:826-1

> <Gold.Version>
5.8.1

> <Gold.Id.Protein>
6NUR|6NUR_protein|mol2

> <Gold.PLP.Fitness>
38.2572

> <Gold.PLP.PLP>
-29.3792

> <Gold.PLP.part.hbond>
-4.8666

> <Gold.PLP.part.metal>
0.0000

> <Gold.PLP.part.buried>
-5.1079

> <Gold.PLP.part.nonpolar>
-20.9306

> <Gold.PLP.part.repulsive>
0.4163

> <Gold.PLP.ligand.clash>
0.0000

> <Gold.PLP.ligand.torsion>
0.3784

> <Gold.PLP.Chemscore.Hbond>
3.2040

> <Gold.PLP.Chemscore.CHOScore>
0.0000

> <Gold.PLP.Chemscore.Metal>
0.0000

> <Gold.Chemscore.Hbonds>
donor molecule, donor type, donor heavy atom, donor atom, acceptor molecule, acceptor atom, score
      L1  H     6    24       P1  7948  0.94
      L1  H     9    25       P1  7948  0.98
      L1  H    14    30       P1  7948  1.00
      P1  H  7989  7998       L1     3  0.25

> <Gold.PLP.Chemscore.Internal.Correction>
0.0229

> <Gold.Rescore>
     Score         DG    S(hbond)    S(metal)    S(lipo)     H(rot)  DE(clash)    DE(int)     intcor
     12.61     -15.56       2.17        0.00      60.19       1.65       0.05       2.89       ----

> <Gold.Chemscore.Fitness>
12.6143

> <Gold.Chemscore.DG>
-15.5583

> <Gold.Chemscore.ZeroCoef>
-5.4800

> <Gold.Chemscore.Hbond>
2.1706

> <Gold.Chemscore.Metal>
0.0000

> <Gold.Chemscore.Lipo>
60.1876

> <Gold.Chemscore.Internal_Hbond>
0.0000

> <Gold.Chemscore.DEClash>
0.0491

> <Gold.Chemscore.DEInternal>
2.8949

> <Gold.Chemscore.Rot>
1.6458

> <Gold.Chemscore.Internal.Correction>
   9.000000E+99

> <Gold.Chemscore.Hbonds>
donor molecule, donor type, donor heavy atom, donor atom, acceptor molecule, acceptor atom, score
      L1  H     6    24       P1  7948  0.41
      L1  H     9    25       P1  7948  0.28
      L1  H    14    30       P1  7948  0.94

> <Gold.Chemscore.Hbond.Weighted>
-7.2497

> <Gold.Chemscore.Metal.Weighted>
-0.0000

> <Gold.Chemscore.Lipo.Weighted>
-7.0419

> <Gold.Chemscore.Internal_Hbond.Weighted>
0.0000

> <Gold.Chemscore.DEClash.Weighted>
0.0491

> <Gold.Chemscore.DEInternal.Weighted>
2.8949

> <Gold.Chemscore.Rot.Weighted>
4.2133

> <Gold.Chemscore.Internal.Correction.Weighted>
   9.000000E+99

> <Gold.Protein.RotatedTorsions>
[ 6907 6896 6895 6894 ] final  -39.60 input  -60.11 | X-H torsion
[ 7974 7965 7964 7962 ] final   80.40 input  175.53 | X-H torsion
[ 8008 7997 7996 7995 ] final -169.60 input   59.86 | X-H torsion
[ 10167 10162 10161 10158 ] final -117.65 input  -65.29 | X-H torsion
[ 10718 10713 10712 10709 ] final   21.30 input   66.30 | X-H torsion
[ 10763 10752 10751 10750 ] final  -34.44 input  -60.55 | X-H torsion
[ 11005 11000 10999 10996 ] final   -5.63 input  -57.11 | X-H torsion

> <Gold.Protein.ActiveResidues>
 VAL166  LYS551  ARG553  GLY616  TRP617  ASP618  TYR619  PRO620  LYS621  CYS622 
 ASP623  PHE694  ASN695  SER759  ASP760  ASP761  ALA762  ILE779  LEU786  VAL792 
 PHE793  MET794  SER795  GLU796  ALA797  LYS798  CYS799  TRP800  GLU811  SER814 

> <Gold.Protein.RotatedAtoms>
  150.9884  134.9224  159.7884 H   0  0  0  0  0  0  0  0  0  0  0  0  # atno 6907 bound_to 6896
  152.5243  134.3315  159.9194 H   0  0  0  0  0  0  0  0  0  0  0  0  # atno 6908 bound_to 6896
  151.3321  133.3955  159.2698 H   0  0  0  0  0  0  0  0  0  0  0  0  # atno 6909 bound_to 6896
  145.6517  139.2449  143.1973 H   0  0  0  0  0  0  0  0  0  0  0  0  # atno 7974 bound_to 7965
  155.9071  140.1051  157.1307 H   0  0  0  0  0  0  0  0  0  0  0  0  # atno 8008 bound_to 7997
  154.4034  140.1281  156.4575 H   0  0  0  0  0  0  0  0  0  0  0  0  # atno 8009 bound_to 7997
  155.7354  140.3468  155.5081 H   0  0  0  0  0  0  0  0  0  0  0  0  # atno 8010 bound_to 7997
  140.0660  143.4922  152.2006 H   0  0  0  0  0  0  0  0  0  0  0  0  # atno 10167 bound_to 10162
  157.1366  130.6614  149.5968 H   0  0  0  0  0  0  0  0  0  0  0  0  # atno 10718 bound_to 10713
  153.8467  135.6852  153.4797 H   0  0  0  0  0  0  0  0  0  0  0  0  # atno 10763 bound_to 10752
  153.1421  135.4653  154.9510 H   0  0  0  0  0  0  0  0  0  0  0  0  # atno 10764 bound_to 10752
  154.7821  135.3272  154.7915 H   0  0  0  0  0  0  0  0  0  0  0  0  # atno 10765 bound_to 10752
  140.6932  133.9053  155.8632 H   0  0  0  0  0  0  0  0  0  0  0  0  # atno 11005 bound_to 11000
  146.1198  140.7323  142.9463 LP  0  0  0  0  0  0  0  0  0  0  0  0  # atno 17320 bound_to 7965
  144.7120  140.4074  143.7073 LP  0  0  0  0  0  0  0  0  0  0  0  0  # atno 17321 bound_to 7965
  139.5865  144.7533  151.3508 LP  0  0  0  0  0  0  0  0  0  0  0  0  # atno 17342 bound_to 10162
  140.7149  143.7293  150.7635 LP  0  0  0  0  0  0  0  0  0  0  0  0  # atno 17343 bound_to 10162
  155.9797  130.4792  150.6730 LP  0  0  0  0  0  0  0  0  0  0  0  0  # atno 17370 bound_to 10713
  157.4345  131.0853  151.1006 LP  0  0  0  0  0  0  0  0  0  0  0  0  # atno 17371 bound_to 10713
  141.0224  134.0870  157.4106 LP  0  0  0  0  0  0  0  0  0  0  0  0  # atno 17394 bound_to 11000
  139.8917  135.0120  156.6808 LP  0  0  0  0  0  0  0  0  0  0  0  0  # atno 17395 bound_to 11000

$$$$
