AV-unprocessed.smi:2037|AV-procd|sdf|8279|dock5
  -GOLD-   2272010543D 1   1.00000     0.00000
 Structure written by MMmdl.
 38 39  0  0  0  0  0  0  0  0  3 V2000
  143.9261  133.8682  151.8562 C   0  0  0  0  0  0  0  0  0  0  0  0
  145.3858  134.1542  151.4629 C   0  0  2  0  0  0  0  0  0  0  0  0
  146.3509  134.0823  152.6598 C   0  0  0  0  0  0  0  0  0  0  0  0
  146.2194  135.3023  153.5891 C   0  0  0  0  0  0  0  0  0  0  0  0
  146.4089  136.5734  152.8435 N   0  3  2  0  0  0  0  0  0  0  0  0
  146.4179  137.7524  153.7456 C   0  0  0  0  0  0  0  0  0  0  0  0
  147.1922  138.9430  153.1498 C   0  0  0  0  0  0  0  0  0  0  0  0
  148.6237  138.8219  153.3979 N   0  0  0  0  0  0  0  0  0  0  0  0
  149.3427  139.5973  154.2218 C   0  0  0  0  0  0  0  0  0  0  0  0
  148.7922  140.5099  154.8426 O   0  0  0  0  0  0  0  0  0  0  0  0
  150.6527  139.2679  154.2719 N   0  5  0  0  0  0  0  0  0  0  0  0
  151.2817  139.1915  155.4560 C   0  0  0  0  0  0  0  0  0  0  0  0
  150.7987  139.7448  156.5743 N   0  0  0  0  0  0  0  0  0  0  0  0
  151.6101  139.5388  157.6913 C   0  0  0  0  0  0  0  0  0  0  0  0
  152.7331  138.8034  157.4189 C   0  0  0  0  0  0  0  0  0  0  0  0
  152.8051  138.3451  155.7413 S   0  0  0  0  0  0  0  0  0  0  0  0
  145.4416  136.6980  151.7206 C   0  0  0  0  0  0  0  0  0  0  0  0
  145.5561  135.5080  150.7504 C   0  0  0  0  0  0  0  0  0  0  0  0
  143.5359  134.6046  152.5584 H   0  0  0  0  0  0  0  0  0  0  0  0
  143.8327  132.8871  152.3228 H   0  0  0  0  0  0  0  0  0  0  0  0
  143.2784  133.8739  150.9793 H   0  0  0  0  0  0  0  0  0  0  0  0
  145.6740  133.3720  150.7593 H   0  0  0  0  0  0  0  0  0  0  0  0
  146.1874  133.1629  153.2232 H   0  0  0  0  0  0  0  0  0  0  0  0
  147.3756  134.0300  152.2893 H   0  0  0  0  0  0  0  0  0  0  0  0
  145.2461  135.3072  154.0814 H   0  0  0  0  0  0  0  0  0  0  0  0
  146.9684  135.2252  154.3783 H   0  0  0  0  0  0  0  0  0  0  0  0
  145.3946  138.0391  153.9927 H   0  0  0  0  0  0  0  0  0  0  0  0
  146.8933  137.4714  154.6865 H   0  0  0  0  0  0  0  0  0  0  0  0
  147.0035  139.0275  152.0783 H   0  0  0  0  0  0  0  0  0  0  0  0
  146.8695  139.8821  153.5971 H   0  0  0  0  0  0  0  0  0  0  0  0
  149.1135  138.0842  152.9127 H   0  0  0  0  0  0  0  0  0  0  0  0
  151.3098  139.9512  158.6429 H   0  0  0  0  0  0  0  0  0  0  0  0
  153.5170  138.5037  158.0979 H   0  0  0  0  0  0  0  0  0  0  0  0
  144.4277  136.7725  152.1158 H   0  0  0  0  0  0  0  0  0  0  0  0
  145.6247  137.6152  151.1629 H   0  0  0  0  0  0  0  0  0  0  0  0
  146.5353  135.5385  150.2705 H   0  0  0  0  0  0  0  0  0  0  0  0
  144.8244  135.6073  149.9478 H   0  0  0  0  0  0  0  0  0  0  0  0
  147.3313  136.5239  152.4351 H   0  0  0  0  0  0  0  0  0  0  0  0
  1  2  1  0  0  0  0
  1 19  1  0  0  0  0
  1 20  1  0  0  0  0
  1 21  1  0  0  0  0
  2 18  1  0  0  0  0
  2  3  1  0  0  0  0
  2 22  1  0  0  0  0
  3  4  1  0  0  0  0
  3 23  1  0  0  0  0
  3 24  1  0  0  0  0
  4  5  1  0  0  0  0
  4 25  1  0  0  0  0
  4 26  1  0  0  0  0
  5  6  1  0  0  0  0
  5 17  1  0  0  0  0
  5 38  1  0  0  0  0
  6  7  1  0  0  0  0
  6 27  1  0  0  0  0
  6 28  1  0  0  0  0
  7  8  1  0  0  0  0
  7 29  1  0  0  0  0
  7 30  1  0  0  0  0
  8  9  1  0  0  0  0
  8 31  1  0  0  0  0
  9 10  2  0  0  0  0
  9 11  1  0  0  0  0
 11 12  1  0  0  0  0
 12 16  1  0  0  0  0
 12 13  2  0  0  0  0
 13 14  1  0  0  0  0
 14 15  2  0  0  0  0
 14 32  1  0  0  0  0
 15 16  1  0  0  0  0
 15 33  1  0  0  0  0
 17 18  1  0  0  0  0
 17 34  1  0  0  0  0
 17 35  1  0  0  0  0
 18 36  1  0  0  0  0
 18 37  1  0  0  0  0
M  CHG  1   5   1
M  CHG  1  11  -1
M  END
> <s_m_source_file>
AV-unprocessed.smi

> <i_m_source_file_index>
2037

> <i_lp_mmshare_version>
43012

> <i_f3d_flags>
0

> <s_epik_input>
W0NIM11bQ0hdMVtDSDJdW0NIMl1OKFtDSDJdW0NIMl0xKVtDSDJdW0NIMl1bTkhdQyg9TylbTkhdYzJuW2NIXVtjSF1zMg==

> <s_epik_cmdline>
J2VwaWtfcHl0aG9uJywgJy1waCcsICc3LjAnLCAnLXRuJywgJzgnLCAnLW1hJywgJzIwMCcsICctbWV0YWxfYmluZGluZycsICctaW1hZScsICc8aW5maWxlLm1hZT4nLCAnLW9tYWUnLCAnPG91dGZpbGUubWFlPic=

> <r_lp_tautomer_probability>
0.999

> <r_epik_Ionization_Penalty>
6.22113

> <r_epik_Ionization_Penalty_Charging>
5.39005

> <r_epik_Ionization_Penalty_Neutral>
0.831074

> <r_epik_State_Penalty>
5.38997

> <r_epik_Charging_Adjusted_Penalty>
10.78

> <i_epik_Tot_Q>
0

> <i_epik_Tot_abs_Q>
2

> <r_epik_Metal_State_Penalty>
1.41601

> <b_epik_Metal_Only>
1

> <s_lp_Force_Field>
OPLS_2005

> <r_lp_Energy>
7.28937

> <b_lp_Chiralities_Consistent>
1

> <s_lp_Variant>
AV-unprocessed.smi:2037-4

> <Gold.Version>
5.8.1

> <Gold.Id.Protein>
6NUR|6NUR_protein|mol2

> <Gold.PLP.Fitness>
37.0531

> <Gold.PLP.PLP>
-27.1889

> <Gold.PLP.part.hbond>
-4.0000

> <Gold.PLP.part.metal>
0.0000

> <Gold.PLP.part.buried>
-1.8854

> <Gold.PLP.part.nonpolar>
-22.1959

> <Gold.PLP.part.repulsive>
0.3453

> <Gold.PLP.ligand.clash>
0.0000

> <Gold.PLP.ligand.torsion>
0.8291

> <Gold.PLP.Chemscore.Hbond>
3.8268

> <Gold.PLP.Chemscore.CHOScore>
0.0000

> <Gold.PLP.Chemscore.Metal>
0.0000

> <Gold.Chemscore.Hbonds>
donor molecule, donor type, donor heavy atom, donor atom, acceptor molecule, acceptor atom, score
      L1  H     5    38       P1  7948  2.00
      L1  H     8    31       P1  7948  0.78
      P1  H  7989  7998       L1    11  1.00

> <Gold.PLP.Chemscore.Internal.Correction>
0.0419

> <Gold.Rescore>
     Score         DG    S(hbond)    S(metal)    S(lipo)     H(rot)  DE(clash)    DE(int)     intcor
     12.65     -14.96       2.13        0.00      54.58       1.57       0.08       2.23       ----

> <Gold.Chemscore.Fitness>
12.6506

> <Gold.Chemscore.DG>
-14.9600

> <Gold.Chemscore.ZeroCoef>
-5.4800

> <Gold.Chemscore.Hbond>
2.1278

> <Gold.Chemscore.Metal>
0.0000

> <Gold.Chemscore.Lipo>
54.5835

> <Gold.Chemscore.Internal_Hbond>
0.0000

> <Gold.Chemscore.DEClash>
0.0760

> <Gold.Chemscore.DEInternal>
2.2334

> <Gold.Chemscore.Rot>
1.5676

> <Gold.Chemscore.Internal.Correction>
   9.000000E+99

> <Gold.Chemscore.Hbonds>
donor molecule, donor type, donor heavy atom, donor atom, acceptor molecule, acceptor atom, score
      L1  H     5    38       P1  7948  1.00
      L1  H     8    31       P1  7948  0.73
      P1  H  7989  7998       L1    11  0.12

> <Gold.Chemscore.Hbond.Weighted>
-7.1068

> <Gold.Chemscore.Metal.Weighted>
-0.0000

> <Gold.Chemscore.Lipo.Weighted>
-6.3863

> <Gold.Chemscore.Internal_Hbond.Weighted>
0.0000

> <Gold.Chemscore.DEClash.Weighted>
0.0760

> <Gold.Chemscore.DEInternal.Weighted>
2.2334

> <Gold.Chemscore.Rot.Weighted>
4.0130

> <Gold.Chemscore.Internal.Correction.Weighted>
   9.000000E+99

> <Gold.Protein.RotatedTorsions>
[ 6907 6896 6895 6894 ] final  121.55 input  -60.11 | X-H torsion
[ 7974 7965 7964 7962 ] final   11.27 input  175.53 | X-H torsion
[ 8008 7997 7996 7995 ] final -166.97 input   59.86 | X-H torsion
[ 10167 10162 10161 10158 ] final  114.09 input  -65.29 | X-H torsion
[ 10718 10713 10712 10709 ] final  128.10 input   66.30 | X-H torsion
[ 10763 10752 10751 10750 ] final  -28.33 input  -60.55 | X-H torsion
[ 11005 11000 10999 10996 ] final -147.66 input  -57.11 | X-H torsion

> <Gold.Protein.ActiveResidues>
 VAL166  LYS551  ARG553  GLY616  TRP617  ASP618  TYR619  PRO620  LYS621  CYS622 
 ASP623  PHE694  ASN695  SER759  ASP760  ASP761  ALA762  ILE779  LEU786  VAL792 
 PHE793  MET794  SER795  GLU796  ALA797  LYS798  CYS799  TRP800  GLU811  SER814 

> <Gold.Protein.RotatedAtoms>
  152.4313  133.7282  159.6571 H   0  0  0  0  0  0  0  0  0  0  0  0  # atno 6907 bound_to 6896
  150.8192  133.8272  159.3152 H   0  0  0  0  0  0  0  0  0  0  0  0  # atno 6908 bound_to 6896
  151.5959  135.1052  160.0101 H   0  0  0  0  0  0  0  0  0  0  0  0  # atno 6909 bound_to 6896
  146.2374  139.9510  142.8470 H   0  0  0  0  0  0  0  0  0  0  0  0  # atno 7974 bound_to 7965
  155.8712  140.0993  157.1549 H   0  0  0  0  0  0  0  0  0  0  0  0  # atno 8008 bound_to 7997
  154.3997  140.1347  156.4143 H   0  0  0  0  0  0  0  0  0  0  0  0  # atno 8009 bound_to 7997
  155.7749  140.3460  155.5269 H   0  0  0  0  0  0  0  0  0  0  0  0  # atno 8010 bound_to 7997
  139.6414  144.7124  151.2230 H   0  0  0  0  0  0  0  0  0  0  0  0  # atno 10167 bound_to 10162
  157.5274  131.1098  150.9061 H   0  0  0  0  0  0  0  0  0  0  0  0  # atno 10718 bound_to 10713
  153.7465  135.6929  153.4955 H   0  0  0  0  0  0  0  0  0  0  0  0  # atno 10763 bound_to 10752
  153.2032  135.4429  155.0291 H   0  0  0  0  0  0  0  0  0  0  0  0  # atno 10764 bound_to 10752
  154.8202  135.3418  154.6988 H   0  0  0  0  0  0  0  0  0  0  0  0  # atno 10765 bound_to 10752
  140.7694  134.3207  157.5079 H   0  0  0  0  0  0  0  0  0  0  0  0  # atno 11005 bound_to 11000
  145.1862  140.9790  143.4238 LP  0  0  0  0  0  0  0  0  0  0  0  0  # atno 17320 bound_to 7965
  144.9898  139.3700  143.6220 LP  0  0  0  0  0  0  0  0  0  0  0  0  # atno 17321 bound_to 7965
  140.7492  143.6306  150.8427 LP  0  0  0  0  0  0  0  0  0  0  0  0  # atno 17342 bound_to 10162
  139.9944  143.5812  152.2899 LP  0  0  0  0  0  0  0  0  0  0  0  0  # atno 17343 bound_to 10162
  156.9653  130.5470  149.5288 LP  0  0  0  0  0  0  0  0  0  0  0  0  # atno 17370 bound_to 10713
  156.0397  130.5481  150.8741 LP  0  0  0  0  0  0  0  0  0  0  0  0  # atno 17371 bound_to 10713
  139.8758  134.9251  156.3367 LP  0  0  0  0  0  0  0  0  0  0  0  0  # atno 17394 bound_to 11000
  140.9588  133.7402  156.0373 LP  0  0  0  0  0  0  0  0  0  0  0  0  # atno 17395 bound_to 11000

$$$$
