AV-unprocessed.smi:1679|AV-procd|sdf|6735|dock6
  -GOLD-   22720 7483D 1   1.00000     0.00000
 Structure written by MMmdl.
 44 45  0  0  0  0  0  0  0  0  2 V2000
  153.4619  140.6958  159.7410 C   0  0  0  0  0  0  0  0  0  0  0  0
  153.1448  142.1773  159.9911 C   0  0  2  0  0  0  0  0  0  0  0  0
  152.6186  142.4130  161.4212 C   0  0  0  0  0  0  0  0  0  0  0  0
  152.3622  143.9032  161.6914 C   0  0  0  0  0  0  0  0  0  0  0  0
  151.4116  144.5051  160.6461 C   0  0  0  0  0  0  0  0  0  0  0  0
  151.9299  144.2701  159.2163 C   0  0  0  0  0  0  0  0  0  0  0  0
  152.1822  142.7769  158.9364 C   0  0  2  0  0  0  0  0  0  0  0  0
  150.9207  142.1233  158.9858 O   0  0  0  0  0  0  0  0  0  0  0  0
  150.1304  142.2348  157.8125 C   0  0  0  0  0  0  0  0  0  0  0  0
  150.9621  141.7761  156.6042 C   0  0  0  0  0  0  0  0  0  0  0  0
  150.8828  140.3303  156.4158 N   0  0  0  0  0  0  0  0  0  0  0  0
  150.8571  139.7078  155.2266 C   0  0  0  0  0  0  0  0  0  0  0  0
  150.9552  140.3042  154.1538 O   0  0  0  0  0  0  0  0  0  0  0  0
  150.7209  138.1796  155.2576 C   0  0  0  0  0  0  0  0  0  0  0  0
  150.2544  137.6888  156.5647 N   0  0  0  0  0  0  0  0  0  0  0  0
  148.9358  138.0056  156.9357 C   0  0  0  0  0  0  0  0  0  0  0  0
  148.3991  137.5794  158.0944 C   0  0  0  0  0  0  0  0  0  0  0  0
  149.2246  136.7668  158.9784 C   0  0  0  0  0  0  0  0  0  0  0  0
  148.7469  136.3570  160.0346 O   0  0  0  0  0  0  0  0  0  0  0  0
  150.5031  136.4983  158.5827 N   0  5  0  0  0  0  0  0  0  0  0  0
  151.0366  136.9419  157.4020 C   0  0  0  0  0  0  0  0  0  0  0  0
  152.1951  136.6914  157.0694 O   0  0  0  0  0  0  0  0  0  0  0  0
  152.5718  140.0759  159.8447 H   0  0  0  0  0  0  0  0  0  0  0  0
  154.2017  140.3291  160.4529 H   0  0  0  0  0  0  0  0  0  0  0  0
  153.8635  140.5426  158.7393 H   0  0  0  0  0  0  0  0  0  0  0  0
  154.0902  142.7145  159.9035 H   0  0  0  0  0  0  0  0  0  0  0  0
  151.6969  141.8518  161.5760 H   0  0  0  0  0  0  0  0  0  0  0  0
  153.3340  142.0316  162.1503 H   0  0  0  0  0  0  0  0  0  0  0  0
  151.9449  144.0310  162.6906 H   0  0  0  0  0  0  0  0  0  0  0  0
  153.3086  144.4448  161.6794 H   0  0  0  0  0  0  0  0  0  0  0  0
  150.4218  144.0598  160.7562 H   0  0  0  0  0  0  0  0  0  0  0  0
  151.2901  145.5733  160.8266 H   0  0  0  0  0  0  0  0  0  0  0  0
  151.2172  144.6691  158.4939 H   0  0  0  0  0  0  0  0  0  0  0  0
  152.8563  144.8275  159.0729 H   0  0  0  0  0  0  0  0  0  0  0  0
  152.6235  142.6878  157.9417 H   0  0  0  0  0  0  0  0  0  0  0  0
  149.2461  141.6051  157.9178 H   0  0  0  0  0  0  0  0  0  0  0  0
  149.7830  143.2573  157.6625 H   0  0  0  0  0  0  0  0  0  0  0  0
  150.6519  142.3037  155.7005 H   0  0  0  0  0  0  0  0  0  0  0  0
  152.0094  142.0317  156.7668 H   0  0  0  0  0  0  0  0  0  0  0  0
  150.8100  139.7638  157.2480 H   0  0  0  0  0  0  0  0  0  0  0  0
  150.0407  137.8742  154.4610 H   0  0  0  0  0  0  0  0  0  0  0  0
  151.6769  137.7172  155.0058 H   0  0  0  0  0  0  0  0  0  0  0  0
  148.3899  138.6052  156.2224 H   0  0  0  0  0  0  0  0  0  0  0  0
  147.3822  137.8277  158.3596 H   0  0  0  0  0  0  0  0  0  0  0  0
  1  2  1  0  0  0  0
  1 23  1  0  0  0  0
  1 24  1  0  0  0  0
  1 25  1  0  0  0  0
  2  7  1  0  0  0  0
  2  3  1  0  0  0  0
  2 26  1  0  0  0  0
  3  4  1  0  0  0  0
  3 27  1  0  0  0  0
  3 28  1  0  0  0  0
  4  5  1  0  0  0  0
  4 29  1  0  0  0  0
  4 30  1  0  0  0  0
  5  6  1  0  0  0  0
  5 31  1  0  0  0  0
  5 32  1  0  0  0  0
  6  7  1  0  0  0  0
  6 33  1  0  0  0  0
  6 34  1  0  0  0  0
  7  8  1  0  0  0  0
  7 35  1  0  0  0  0
  8  9  1  0  0  0  0
  9 10  1  0  0  0  0
  9 36  1  0  0  0  0
  9 37  1  0  0  0  0
 10 11  1  0  0  0  0
 10 38  1  0  0  0  0
 10 39  1  0  0  0  0
 11 12  1  0  0  0  0
 11 40  1  0  0  0  0
 12 13  2  0  0  0  0
 12 14  1  0  0  0  0
 14 15  1  0  0  0  0
 14 41  1  0  0  0  0
 14 42  1  0  0  0  0
 15 21  1  0  0  0  0
 15 16  1  0  0  0  0
 16 17  2  0  0  0  0
 16 43  1  0  0  0  0
 17 18  1  0  0  0  0
 17 44  1  0  0  0  0
 18 19  2  0  0  0  0
 18 20  1  0  0  0  0
 20 21  1  0  0  0  0
 21 22  2  0  0  0  0
M  CHG  1  20  -1
M  END
> <s_m_source_file>
AV-unprocessed.smi

> <i_m_source_file_index>
1679

> <i_lp_mmshare_version>
43012

> <i_f3d_flags>
0

> <s_epik_input>
W0NIM11bQ0BASF0xW0NIMl1bQ0gyXVtDSDJdW0NIMl1bQ0BIXTFPW0NIMl1bQ0gyXVtOSF1DKD1PKVtDSDJdbjJbY0hdW2NIXWMoPU8pW25IXWMyPU8=

> <s_epik_cmdline>
J2VwaWtfcHl0aG9uJywgJy1waCcsICc3LjAnLCAnLXRuJywgJzgnLCAnLW1hJywgJzIwMCcsICctbWV0YWxfYmluZGluZycsICctaW1hZScsICc8aW5maWxlLm1hZT4nLCAnLW9tYWUnLCAnPG91dGZpbGUubWFlPic=

> <r_lp_tautomer_probability>
0.999537

> <r_epik_Ionization_Penalty>
3.07454

> <r_epik_Ionization_Penalty_Charging>
2.80088e-08

> <r_epik_Ionization_Penalty_Neutral>
3.07454

> <r_epik_State_Penalty>
3.07357

> <r_epik_Charging_Adjusted_Penalty>
3.07357

> <i_epik_Tot_Q>
-1

> <i_epik_Tot_abs_Q>
1

> <r_epik_Metal_State_Penalty>
0.45948

> <b_epik_Metal_Only>
1

> <s_lp_Force_Field>
OPLS_2005

> <r_lp_Energy>
19.9019

> <b_lp_Chiralities_Consistent>
1

> <s_lp_Variant>
AV-unprocessed.smi:1679-7

> <Gold.Version>
5.8.1

> <Gold.Id.Protein>
6NUR|6NUR_protein|mol2

> <Gold.PLP.Fitness>
52.5859

> <Gold.PLP.PLP>
-42.1207

> <Gold.PLP.part.hbond>
-3.4885

> <Gold.PLP.part.metal>
0.0000

> <Gold.PLP.part.buried>
-6.9346

> <Gold.PLP.part.nonpolar>
-32.5065

> <Gold.PLP.part.repulsive>
0.1858

> <Gold.PLP.ligand.clash>
0.0000

> <Gold.PLP.ligand.torsion>
0.7934

> <Gold.PLP.Chemscore.Hbond>
3.9920

> <Gold.PLP.Chemscore.CHOScore>
0.0000

> <Gold.PLP.Chemscore.Metal>
0.0000

> <Gold.Chemscore.Hbonds>
donor molecule, donor type, donor heavy atom, donor atom, acceptor molecule, acceptor atom, score
      P1  H  6896  6908       L1    20  1.92

> <Gold.PLP.Chemscore.Internal.Correction>
0.0760

> <Gold.Rescore>
     Score         DG    S(hbond)    S(metal)    S(lipo)     H(rot)  DE(clash)    DE(int)     intcor
     18.07     -19.01       2.49        0.00      98.22       2.45       0.03       0.91       ----

> <Gold.Chemscore.Fitness>
18.0653

> <Gold.Chemscore.DG>
-19.0079

> <Gold.Chemscore.ZeroCoef>
-5.4800

> <Gold.Chemscore.Hbond>
2.4866

> <Gold.Chemscore.Metal>
0.0000

> <Gold.Chemscore.Lipo>
98.2240

> <Gold.Chemscore.Internal_Hbond>
0.0000

> <Gold.Chemscore.DEClash>
0.0284

> <Gold.Chemscore.DEInternal>
0.9143

> <Gold.Chemscore.Rot>
2.4490

> <Gold.Chemscore.Internal.Correction>
   9.000000E+99

> <Gold.Chemscore.Hbonds>
donor molecule, donor type, donor heavy atom, donor atom, acceptor molecule, acceptor atom, score
      P1  H  6896  6908       L1    20  0.23
      P1  H  7989  7998       L1    13  0.04

> <Gold.Chemscore.Hbond.Weighted>
-8.3051

> <Gold.Chemscore.Metal.Weighted>
-0.0000

> <Gold.Chemscore.Lipo.Weighted>
-11.4922

> <Gold.Chemscore.Internal_Hbond.Weighted>
0.0000

> <Gold.Chemscore.DEClash.Weighted>
0.0284

> <Gold.Chemscore.DEInternal.Weighted>
0.9143

> <Gold.Chemscore.Rot.Weighted>
6.2694

> <Gold.Chemscore.Internal.Correction.Weighted>
   9.000000E+99

> <Gold.Protein.RotatedTorsions>
[ 6907 6896 6895 6894 ] final -167.32 input  -60.11 | X-H torsion
[ 7974 7965 7964 7962 ] final -104.76 input  175.53 | X-H torsion
[ 8008 7997 7996 7995 ] final   34.48 input   59.86 | X-H torsion
[ 10167 10162 10161 10158 ] final  171.41 input  -65.29 | X-H torsion
[ 10718 10713 10712 10709 ] final   90.47 input   66.30 | X-H torsion
[ 10763 10752 10751 10750 ] final  120.67 input  -60.55 | X-H torsion
[ 11005 11000 10999 10996 ] final -102.77 input  -57.11 | X-H torsion

> <Gold.Protein.ActiveResidues>
 VAL166  LYS551  ARG553  GLY616  TRP617  ASP618  TYR619  PRO620  LYS621  CYS622 
 ASP623  PHE694  ASN695  SER759  ASP760  ASP761  ALA762  ILE779  LEU786  VAL792 
 PHE793  MET794  SER795  GLU796  ALA797  LYS798  CYS799  TRP800  GLU811  SER814 

> <Gold.Protein.RotatedAtoms>
  151.4576  133.3601  159.2804 H   0  0  0  0  0  0  0  0  0  0  0  0  # atno 6907 bound_to 6896
  150.9047  134.8463  159.7395 H   0  0  0  0  0  0  0  0  0  0  0  0  # atno 6908 bound_to 6896
  152.4899  134.4500  159.9623 H   0  0  0  0  0  0  0  0  0  0  0  0  # atno 6909 bound_to 6896
  145.2390  140.9198  143.3161 H   0  0  0  0  0  0  0  0  0  0  0  0  # atno 7974 bound_to 7965
  155.1555  140.3278  155.4422 H   0  0  0  0  0  0  0  0  0  0  0  0  # atno 8008 bound_to 7997
  156.2560  140.1969  156.6615 H   0  0  0  0  0  0  0  0  0  0  0  0  # atno 8009 bound_to 7997
  154.6442  140.0566  156.9868 H   0  0  0  0  0  0  0  0  0  0  0  0  # atno 8010 bound_to 7997
  139.5046  144.3489  151.9943 H   0  0  0  0  0  0  0  0  0  0  0  0  # atno 10167 bound_to 10162
  157.6959  131.0372  150.3583 H   0  0  0  0  0  0  0  0  0  0  0  0  # atno 10718 bound_to 10713
  153.6021  135.3446  155.2949 H   0  0  0  0  0  0  0  0  0  0  0  0  # atno 10763 bound_to 10752
  154.8634  135.4230  154.2401 H   0  0  0  0  0  0  0  0  0  0  0  0  # atno 10764 bound_to 10752
  153.3232  135.7039  153.7083 H   0  0  0  0  0  0  0  0  0  0  0  0  # atno 10765 bound_to 10752
  141.1175  133.8585  157.1402 H   0  0  0  0  0  0  0  0  0  0  0  0  # atno 11005 bound_to 11000
  144.9606  139.3983  143.6357 LP  0  0  0  0  0  0  0  0  0  0  0  0  # atno 17320 bound_to 7965
  146.3333  139.8658  142.8848 LP  0  0  0  0  0  0  0  0  0  0  0  0  # atno 17321 bound_to 7965
  140.2926  144.3737  150.6084 LP  0  0  0  0  0  0  0  0  0  0  0  0  # atno 17342 bound_to 10162
  140.5935  143.2167  151.7208 LP  0  0  0  0  0  0  0  0  0  0  0  0  # atno 17343 bound_to 10162
  156.4022  130.3918  149.6951 LP  0  0  0  0  0  0  0  0  0  0  0  0  # atno 17370 bound_to 10713
  156.4264  130.7794  151.2812 LP  0  0  0  0  0  0  0  0  0  0  0  0  # atno 17371 bound_to 10713
  140.0107  134.9989  157.0389 LP  0  0  0  0  0  0  0  0  0  0  0  0  # atno 17394 bound_to 11000
  140.4604  134.1490  155.7191 LP  0  0  0  0  0  0  0  0  0  0  0  0  # atno 17395 bound_to 11000

$$$$
