AV-unprocessed.smi:2124|AV-procd|sdf|8671|dock7
  -GOLD-   2272011423D 1   1.00000     0.00000
 Structure written by MMmdl.
 46 48  0  0  0  0  0  0  0  0  2 V2000
  147.9050  135.3664  159.4257 C   0  0  0  0  0  0  0  0  0  0  0  0
  148.9474  136.1302  158.6375 C   0  0  0  0  0  0  0  0  0  0  0  0
  148.7697  136.3192  157.3853 N   0  0  0  0  0  0  0  0  0  0  0  0
  149.7313  137.0339  156.6506 C   0  0  0  0  0  0  0  0  0  0  0  0
  149.4375  137.2153  155.1714 C   0  0  0  0  0  0  0  0  0  0  0  0
  150.8518  137.5294  157.2500 C   0  0  0  0  0  0  0  0  0  0  0  0
  151.9232  138.3203  156.4993 C   0  0  0  0  0  0  0  0  0  0  0  0
  151.5805  139.7708  156.1511 C   0  0  0  0  0  0  0  0  0  0  0  0
  151.5443  140.1438  154.9784 O   0  0  0  0  0  0  0  0  0  0  0  0
  151.3207  140.5733  157.1972 N   0  0  0  0  0  0  0  0  0  0  0  0
  150.9316  141.9859  157.1640 C   0  0  1  0  0  0  0  0  0  0  0  0
  149.5215  142.1500  156.5632 C   0  0  0  0  0  0  0  0  0  0  0  0
  151.0857  142.6782  158.5457 C   0  0  2  0  0  0  0  0  0  0  0  0
  150.4324  144.0803  158.6110 C   0  0  0  0  0  0  0  0  0  0  0  0
  151.5741  144.9804  159.1153 C   0  0  1  0  0  0  0  0  0  0  0  0
  151.8890  144.6414  160.5838 C   0  0  0  0  0  0  0  0  0  0  0  0
  152.5909  143.2753  160.4718 C   0  0  0  0  0  0  0  0  0  0  0  0
  152.5474  142.9945  158.9578 C   0  0  2  0  0  0  0  0  0  0  0  0
  152.7729  144.3903  158.3857 C   0  0  0  0  0  0  0  0  0  0  0  0
  151.0237  137.2807  158.6922 C   0  0  0  0  0  0  0  0  0  0  0  0
  152.0265  137.6888  159.2773 O   0  0  0  0  0  0  0  0  0  0  0  0
  150.0424  136.5868  159.3360 N   0  5  0  0  0  0  0  0  0  0  0  0
  147.2225  134.8348  158.7613 H   0  0  0  0  0  0  0  0  0  0  0  0
  147.3220  136.0530  160.0399 H   0  0  0  0  0  0  0  0  0  0  0  0
  148.3799  134.6348  160.0806 H   0  0  0  0  0  0  0  0  0  0  0  0
  149.2744  138.2682  154.9419 H   0  0  0  0  0  0  0  0  0  0  0  0
  148.5431  136.6652  154.8766 H   0  0  0  0  0  0  0  0  0  0  0  0
  150.2672  136.8514  154.5653 H   0  0  0  0  0  0  0  0  0  0  0  0
  152.8295  138.3302  157.1052 H   0  0  0  0  0  0  0  0  0  0  0  0
  152.2091  137.8014  155.5838 H   0  0  0  0  0  0  0  0  0  0  0  0
  151.3865  140.1576  158.1149 H   0  0  0  0  0  0  0  0  0  0  0  0
  151.6323  142.4533  156.4718 H   0  0  0  0  0  0  0  0  0  0  0  0
  149.2816  143.1985  156.3887 H   0  0  0  0  0  0  0  0  0  0  0  0
  148.7511  141.7461  157.2202 H   0  0  0  0  0  0  0  0  0  0  0  0
  149.4423  141.6370  155.6042 H   0  0  0  0  0  0  0  0  0  0  0  0
  150.6296  142.0388  159.3025 H   0  0  0  0  0  0  0  0  0  0  0  0
  150.1064  144.4176  157.6264 H   0  0  0  0  0  0  0  0  0  0  0  0
  149.5637  144.1023  159.2700 H   0  0  0  0  0  0  0  0  0  0  0  0
  151.4035  146.0426  158.9375 H   0  0  0  0  0  0  0  0  0  0  0  0
  152.5593  145.3825  161.0208 H   0  0  0  0  0  0  0  0  0  0  0  0
  150.9892  144.5981  161.1985 H   0  0  0  0  0  0  0  0  0  0  0  0
  153.6220  143.3456  160.8208 H   0  0  0  0  0  0  0  0  0  0  0  0
  152.0951  142.4994  161.0562 H   0  0  0  0  0  0  0  0  0  0  0  0
  153.2814  142.2502  158.6485 H   0  0  0  0  0  0  0  0  0  0  0  0
  152.6860  144.4366  157.2992 H   0  0  0  0  0  0  0  0  0  0  0  0
  153.7238  144.8336  158.6871 H   0  0  0  0  0  0  0  0  0  0  0  0
  1  2  1  0  0  0  0
  1 23  1  0  0  0  0
  1 24  1  0  0  0  0
  1 25  1  0  0  0  0
  2 22  1  0  0  0  0
  2  3  2  0  0  0  0
  3  4  1  0  0  0  0
  4  5  1  0  0  0  0
  4  6  2  0  0  0  0
  5 26  1  0  0  0  0
  5 27  1  0  0  0  0
  5 28  1  0  0  0  0
  6  7  1  0  0  0  0
  6 20  1  0  0  0  0
  7  8  1  0  0  0  0
  7 29  1  0  0  0  0
  7 30  1  0  0  0  0
  8  9  2  0  0  0  0
  8 10  1  0  0  0  0
 10 11  1  0  0  0  0
 10 31  1  0  0  0  0
 11 12  1  0  0  0  0
 11 13  1  0  0  0  0
 11 32  1  0  0  0  0
 12 33  1  0  0  0  0
 12 34  1  0  0  0  0
 12 35  1  0  0  0  0
 13 18  1  0  0  0  0
 13 14  1  0  0  0  0
 13 36  1  0  0  0  0
 14 15  1  0  0  0  0
 14 37  1  0  0  0  0
 14 38  1  0  0  0  0
 15 19  1  0  0  0  0
 15 16  1  0  0  0  0
 15 39  1  0  0  0  0
 16 17  1  0  0  0  0
 16 40  1  0  0  0  0
 16 41  1  0  0  0  0
 17 18  1  0  0  0  0
 17 42  1  0  0  0  0
 17 43  1  0  0  0  0
 18 19  1  0  0  0  0
 18 44  1  0  0  0  0
 19 45  1  0  0  0  0
 19 46  1  0  0  0  0
 20 21  2  0  0  0  0
 20 22  1  0  0  0  0
M  CHG  1  22  -1
M  END
> <s_m_source_file>
AV-unprocessed.smi

> <i_m_source_file_index>
2124

> <i_lp_mmshare_version>
43012

> <i_f3d_flags>
0

> <s_epik_input>
W0NIM11jMW5jKFtDSDNdKWMoYyg9TylbbkhdMSlbQ0gyXUMoPU8pW05IXVtDQEhdKFtDSDNdKVtDQEhdKFtDSDJdW0NASF0yMylbQ0BIXShbQ0gyXTMpW0NIMl1bQ0gyXTI=

> <s_epik_cmdline>
J2VwaWtfcHl0aG9uJywgJy1waCcsICc3LjAnLCAnLXRuJywgJzgnLCAnLW1hJywgJzIwMCcsICctbWV0YWxfYmluZGluZycsICctaW1hZScsICc8aW5maWxlLm1hZT4nLCAnLW9tYWUnLCAnPG91dGZpbGUubWFlPic=

> <r_lp_tautomer_probability>
0.839158

> <r_epik_Ionization_Penalty>
6.63797

> <r_epik_Ionization_Penalty_Charging>
7.48558e-08

> <r_epik_Ionization_Penalty_Neutral>
6.63797

> <r_epik_State_Penalty>
4.49496

> <r_epik_Charging_Adjusted_Penalty>
4.49496

> <i_epik_Tot_Q>
-1

> <i_epik_Tot_abs_Q>
1

> <r_epik_Metal_State_Penalty>
0.841241

> <b_epik_Metal_Only>
1

> <s_lp_Force_Field>
OPLS_2005

> <r_lp_Energy>
55.5878

> <b_lp_Chiralities_Consistent>
1

> <s_lp_Variant>
AV-unprocessed.smi:2124-22

> <Gold.Version>
5.8.1

> <Gold.Id.Protein>
6NUR|6NUR_protein|mol2

> <Gold.PLP.Fitness>
46.2108

> <Gold.PLP.PLP>
-38.3215

> <Gold.PLP.part.hbond>
-2.0000

> <Gold.PLP.part.metal>
0.0000

> <Gold.PLP.part.buried>
-4.1030

> <Gold.PLP.part.nonpolar>
-33.4358

> <Gold.PLP.part.repulsive>
0.1205

> <Gold.PLP.ligand.clash>
0.0000

> <Gold.PLP.ligand.torsion>
0.5897

> <Gold.PLP.Chemscore.Hbond>
3.0000

> <Gold.PLP.Chemscore.CHOScore>
0.0000

> <Gold.PLP.Chemscore.Metal>
0.0000

> <Gold.Chemscore.Hbonds>
donor molecule, donor type, donor heavy atom, donor atom, acceptor molecule, acceptor atom, score
      P1  H  6896  6908       L1    22  2.00
      P1  H  7989  7998       L1     9  1.00

> <Gold.PLP.Chemscore.Internal.Correction>
0.0686

> <Gold.Rescore>
     Score         DG    S(hbond)    S(metal)    S(lipo)     H(rot)  DE(clash)    DE(int)     intcor
     19.32     -19.86       1.79        0.00     107.00       1.61       0.12       0.42       ----

> <Gold.Chemscore.Fitness>
19.3172

> <Gold.Chemscore.DG>
-19.8648

> <Gold.Chemscore.ZeroCoef>
-5.4800

> <Gold.Chemscore.Hbond>
1.7889

> <Gold.Chemscore.Metal>
0.0000

> <Gold.Chemscore.Lipo>
106.9990

> <Gold.Chemscore.Internal_Hbond>
0.0000

> <Gold.Chemscore.DEClash>
0.1231

> <Gold.Chemscore.DEInternal>
0.4245

> <Gold.Chemscore.Rot>
1.6051

> <Gold.Chemscore.Internal.Correction>
   9.000000E+99

> <Gold.Chemscore.Hbonds>
donor molecule, donor type, donor heavy atom, donor atom, acceptor molecule, acceptor atom, score
      P1  H  6896  6908       L1    22  0.10
      P1  H  7989  7998       L1     9  0.96

> <Gold.Chemscore.Hbond.Weighted>
-5.9748

> <Gold.Chemscore.Metal.Weighted>
-0.0000

> <Gold.Chemscore.Lipo.Weighted>
-12.5189

> <Gold.Chemscore.Internal_Hbond.Weighted>
0.0000

> <Gold.Chemscore.DEClash.Weighted>
0.1231

> <Gold.Chemscore.DEInternal.Weighted>
0.4245

> <Gold.Chemscore.Rot.Weighted>
4.1090

> <Gold.Chemscore.Internal.Correction.Weighted>
   9.000000E+99

> <Gold.Protein.RotatedTorsions>
[ 6907 6896 6895 6894 ] final -164.75 input  -60.11 | X-H torsion
[ 7974 7965 7964 7962 ] final   38.32 input  175.53 | X-H torsion
[ 8008 7997 7996 7995 ] final -140.32 input   59.86 | X-H torsion
[ 10167 10162 10161 10158 ] final  137.56 input  -65.29 | X-H torsion
[ 10718 10713 10712 10709 ] final   14.95 input   66.30 | X-H torsion
[ 10763 10752 10751 10750 ] final   83.39 input  -60.55 | X-H torsion
[ 11005 11000 10999 10996 ] final  -97.96 input  -57.11 | X-H torsion

> <Gold.Protein.ActiveResidues>
 VAL166  LYS551  ARG553  GLY616  TRP617  ASP618  TYR619  PRO620  LYS621  CYS622 
 ASP623  PHE694  ASN695  SER759  ASP760  ASP761  ALA762  ILE779  LEU786  VAL792 
 PHE793  MET794  SER795  GLU796  ALA797  LYS798  CYS799  TRP800  GLU811  SER814 

> <Gold.Protein.RotatedAtoms>
  151.4168  133.3710  159.2750 H   0  0  0  0  0  0  0  0  0  0  0  0  # atno 6907 bound_to 6896
  150.9323  134.8738  159.7569 H   0  0  0  0  0  0  0  0  0  0  0  0  # atno 6908 bound_to 6896
  152.5033  134.4113  159.9502 H   0  0  0  0  0  0  0  0  0  0  0  0  # atno 6909 bound_to 6896
  146.1071  139.5787  142.9376 H   0  0  0  0  0  0  0  0  0  0  0  0  # atno 7974 bound_to 7965
  155.4594  140.0544  157.2992 H   0  0  0  0  0  0  0  0  0  0  0  0  # atno 8008 bound_to 7997
  154.4743  140.2054  155.9871 H   0  0  0  0  0  0  0  0  0  0  0  0  # atno 8009 bound_to 7997
  156.1107  140.3204  155.8073 H   0  0  0  0  0  0  0  0  0  0  0  0  # atno 8010 bound_to 7997
  139.5140  144.6403  151.5586 H   0  0  0  0  0  0  0  0  0  0  0  0  # atno 10167 bound_to 10162
  157.0465  130.6252  149.5760 H   0  0  0  0  0  0  0  0  0  0  0  0  # atno 10718 bound_to 10713
  153.1287  135.4693  154.9314 H   0  0  0  0  0  0  0  0  0  0  0  0  # atno 10763 bound_to 10752
  154.7644  135.3140  154.8317 H   0  0  0  0  0  0  0  0  0  0  0  0  # atno 10764 bound_to 10752
  153.8865  135.6889  153.4817 H   0  0  0  0  0  0  0  0  0  0  0  0  # atno 10765 bound_to 10752
  141.1361  133.8210  157.0776 H   0  0  0  0  0  0  0  0  0  0  0  0  # atno 11005 bound_to 11000
  145.5739  141.0391  143.2159 LP  0  0  0  0  0  0  0  0  0  0  0  0  # atno 17320 bound_to 7965
  144.7480  139.7269  143.7284 LP  0  0  0  0  0  0  0  0  0  0  0  0  # atno 17321 bound_to 7965
  140.6167  143.9335  150.6494 LP  0  0  0  0  0  0  0  0  0  0  0  0  # atno 17342 bound_to 10162
  140.2595  143.3534  152.1335 LP  0  0  0  0  0  0  0  0  0  0  0  0  # atno 17343 bound_to 10162
  156.0021  130.5102  150.7700 LP  0  0  0  0  0  0  0  0  0  0  0  0  # atno 17370 bound_to 10713
  157.5063  131.0922  151.0253 LP  0  0  0  0  0  0  0  0  0  0  0  0  # atno 17371 bound_to 10713
  140.0471  134.9824  157.1070 LP  0  0  0  0  0  0  0  0  0  0  0  0  # atno 17394 bound_to 11000
  140.4045  134.2047  155.7163 LP  0  0  0  0  0  0  0  0  0  0  0  0  # atno 17395 bound_to 11000

$$$$
