AV-unprocessed.smi:1158|AV-procd|sdf|4911|dock4
  -GOLD-   22720 3493D 1   1.00000     0.00000
 Structure written by MMmdl.
 42 43  0  0  0  0  0  0  0  0  1 V2000
  150.6823  131.2374  157.7974 C   0  0  0  0  0  0  0  0  0  0  0  0
  150.6770  132.6145  157.4366 O   0  0  0  0  0  0  0  0  0  0  0  0
  150.2563  132.9625  156.1670 C   0  0  0  0  0  0  0  0  0  0  0  0
  149.8893  131.9716  155.3160 N   0  0  0  0  0  0  0  0  0  0  0  0
  149.4737  132.3083  154.0781 C   0  0  0  0  0  0  0  0  0  0  0  0
  149.3946  133.6385  153.6278 C   0  0  0  0  0  0  0  0  0  0  0  0
  149.7734  134.6684  154.5085 C   0  0  0  0  0  0  0  0  0  0  0  0
  150.2277  134.3307  155.8071 C   0  0  0  0  0  0  0  0  0  0  0  0
  150.6237  135.2866  156.7841 N   0  0  0  0  0  0  0  0  0  0  0  0
  151.2806  136.4471  156.6164 C   0  0  0  0  0  0  0  0  0  0  0  0
  151.6688  136.9007  155.5402 O   0  0  0  0  0  0  0  0  0  0  0  0
  151.4802  137.0607  157.7914 N   0  0  0  0  0  0  0  0  0  0  0  0
  152.1643  138.3381  157.9697 C   0  0  0  0  0  0  0  0  0  0  0  0
  152.3336  138.6373  159.4657 C   0  0  0  0  0  0  0  0  0  0  0  0
  152.9306  140.0384  159.6838 C   0  0  0  0  0  0  0  0  0  0  0  0
  152.0739  141.0625  159.0808 N   0  0  0  0  0  0  0  0  0  0  0  0
  152.6312  142.3801  159.3860 C   0  0  0  0  0  0  0  0  0  0  0  0
  152.1238  142.9384  160.7267 C   0  0  0  0  0  0  0  0  0  0  0  0
  152.8638  142.4822  161.7373 F   0  0  0  0  0  0  0  0  0  0  0  0
  152.1927  144.2687  160.7070 F   0  0  0  0  0  0  0  0  0  0  0  0
  152.0014  140.8485  157.6316 C   0  0  0  0  0  0  0  0  0  0  0  0
  151.3679  139.4811  157.3186 C   0  0  0  0  0  0  0  0  0  0  0  0
  151.0329  131.1352  158.8243 H   0  0  0  0  0  0  0  0  0  0  0  0
  151.3536  130.6599  157.1602 H   0  0  0  0  0  0  0  0  0  0  0  0
  149.6807  130.8082  157.7461 H   0  0  0  0  0  0  0  0  0  0  0  0
  149.1903  131.4931  153.4290 H   0  0  0  0  0  0  0  0  0  0  0  0
  149.0471  133.8643  152.6305 H   0  0  0  0  0  0  0  0  0  0  0  0
  149.6941  135.6900  154.1721 H   0  0  0  0  0  0  0  0  0  0  0  0
  150.4339  135.0226  157.7399 H   0  0  0  0  0  0  0  0  0  0  0  0
  151.1304  136.6135  158.6261 H   0  0  0  0  0  0  0  0  0  0  0  0
  153.1560  138.2884  157.5155 H   0  0  0  0  0  0  0  0  0  0  0  0
  151.3697  138.5721  159.9731 H   0  0  0  0  0  0  0  0  0  0  0  0
  152.9776  137.8871  159.9260 H   0  0  0  0  0  0  0  0  0  0  0  0
  153.0225  140.2214  160.7551 H   0  0  0  0  0  0  0  0  0  0  0  0
  153.9359  140.0924  159.2627 H   0  0  0  0  0  0  0  0  0  0  0  0
  153.7176  142.3006  159.4476 H   0  0  0  0  0  0  0  0  0  0  0  0
  152.4155  143.0772  158.5746 H   0  0  0  0  0  0  0  0  0  0  0  0
  151.0848  142.6853  160.9329 H   0  0  0  0  0  0  0  0  0  0  0  0
  151.3950  141.6225  157.1638 H   0  0  0  0  0  0  0  0  0  0  0  0
  152.9975  140.9131  157.1905 H   0  0  0  0  0  0  0  0  0  0  0  0
  151.3201  139.3386  156.2385 H   0  0  0  0  0  0  0  0  0  0  0  0
  150.3375  139.4704  157.6778 H   0  0  0  0  0  0  0  0  0  0  0  0
  1  2  1  0  0  0  0
  1 23  1  0  0  0  0
  1 24  1  0  0  0  0
  1 25  1  0  0  0  0
  2  3  1  0  0  0  0
  3  8  1  0  0  0  0
  3  4  2  0  0  0  0
  4  5  1  0  0  0  0
  5  6  2  0  0  0  0
  5 26  1  0  0  0  0
  6  7  1  0  0  0  0
  6 27  1  0  0  0  0
  7  8  2  0  0  0  0
  7 28  1  0  0  0  0
  8  9  1  0  0  0  0
  9 10  1  0  0  0  0
  9 29  1  0  0  0  0
 10 11  2  0  0  0  0
 10 12  1  0  0  0  0
 12 13  1  0  0  0  0
 12 30  1  0  0  0  0
 13 22  1  0  0  0  0
 13 14  1  0  0  0  0
 13 31  1  0  0  0  0
 14 15  1  0  0  0  0
 14 32  1  0  0  0  0
 14 33  1  0  0  0  0
 15 16  1  0  0  0  0
 15 34  1  0  0  0  0
 15 35  1  0  0  0  0
 16 17  1  0  0  0  0
 16 21  1  0  0  0  0
 17 18  1  0  0  0  0
 17 36  1  0  0  0  0
 17 37  1  0  0  0  0
 18 19  1  0  0  0  0
 18 20  1  0  0  0  0
 18 38  1  0  0  0  0
 21 22  1  0  0  0  0
 21 39  1  0  0  0  0
 21 40  1  0  0  0  0
 22 41  1  0  0  0  0
 22 42  1  0  0  0  0
M  END
> <s_m_source_file>
AV-unprocessed.smi

> <i_m_source_file_index>
1158

> <i_lp_mmshare_version>
43012

> <i_f3d_flags>
0

> <s_epik_input>
W0NIM11PYzFuW2NIXVtjSF1bY0hdYzFbTkhdQyg9TylbTkhdW0NIXTJbQ0gyXVtDSDJdTihbQ0gyXVtDSF0oRilGKVtDSDJdW0NIMl0y

> <s_epik_cmdline>
J2VwaWtfcHl0aG9uJywgJy1waCcsICc3LjAnLCAnLXRuJywgJzgnLCAnLW1hJywgJzIwMCcsICctbWV0YWxfYmluZGluZycsICctaW1hZScsICc8aW5maWxlLm1hZT4nLCAnLW9tYWUnLCAnPG91dGZpbGUubWFlPic=

> <r_lp_tautomer_probability>
1

> <r_epik_Ionization_Penalty>
0.177131

> <r_epik_Ionization_Penalty_Charging>
0

> <r_epik_Ionization_Penalty_Neutral>
0.177131

> <r_epik_State_Penalty>
0.166485

> <r_epik_Charging_Adjusted_Penalty>
0.166485

> <i_epik_Tot_Q>
0

> <i_epik_Tot_abs_Q>
0

> <r_epik_Metal_State_Penalty>
0.166483

> <b_epik_Metal_Only>
0

> <s_lp_Force_Field>
OPLS_2005

> <r_lp_Energy>
18.3974

> <b_lp_Chiralities_Consistent>
1

> <s_lp_Variant>
AV-unprocessed.smi:1158-1

> <Gold.Version>
5.8.1

> <Gold.Id.Protein>
6NUR|6NUR_protein|mol2

> <Gold.PLP.Fitness>
42.2787

> <Gold.PLP.PLP>
-38.0980

> <Gold.PLP.part.hbond>
-2.0000

> <Gold.PLP.part.metal>
0.0000

> <Gold.PLP.part.buried>
-6.3867

> <Gold.PLP.part.nonpolar>
-30.1404

> <Gold.PLP.part.repulsive>
0.3144

> <Gold.PLP.ligand.clash>
0.0000

> <Gold.PLP.ligand.torsion>
0.9068

> <Gold.PLP.Chemscore.Hbond>
1.9913

> <Gold.PLP.Chemscore.CHOScore>
0.0000

> <Gold.PLP.Chemscore.Metal>
0.0000

> <Gold.Chemscore.Hbonds>
donor molecule, donor type, donor heavy atom, donor atom, acceptor molecule, acceptor atom, score
      P1  H  6896  6908       L1     2  0.83
      P1  H 10752 10765       L1    11  1.00

> <Gold.PLP.Chemscore.Internal.Correction>
0.0206

> <Gold.Rescore>
     Score         DG    S(hbond)    S(metal)    S(lipo)     H(rot)  DE(clash)    DE(int)     intcor
     15.05     -15.96       1.82        0.00      71.62       1.55       0.09       0.83       ----

> <Gold.Chemscore.Fitness>
15.0455

> <Gold.Chemscore.DG>
-15.9637

> <Gold.Chemscore.ZeroCoef>
-5.4800

> <Gold.Chemscore.Hbond>
1.8192

> <Gold.Chemscore.Metal>
0.0000

> <Gold.Chemscore.Lipo>
71.6227

> <Gold.Chemscore.Internal_Hbond>
0.0000

> <Gold.Chemscore.DEClash>
0.0922

> <Gold.Chemscore.DEInternal>
0.8260

> <Gold.Chemscore.Rot>
1.5517

> <Gold.Chemscore.Internal.Correction>
   9.000000E+99

> <Gold.Chemscore.Hbonds>
donor molecule, donor type, donor heavy atom, donor atom, acceptor molecule, acceptor atom, score
      P1  H  6896  6908       L1     2  0.13
      P1  H 10752 10765       L1    11  0.56

> <Gold.Chemscore.Hbond.Weighted>
-6.0762

> <Gold.Chemscore.Metal.Weighted>
-0.0000

> <Gold.Chemscore.Lipo.Weighted>
-8.3799

> <Gold.Chemscore.Internal_Hbond.Weighted>
0.0000

> <Gold.Chemscore.DEClash.Weighted>
0.0922

> <Gold.Chemscore.DEInternal.Weighted>
0.8260

> <Gold.Chemscore.Rot.Weighted>
3.9723

> <Gold.Chemscore.Internal.Correction.Weighted>
   9.000000E+99

> <Gold.Protein.RotatedTorsions>
[ 6907 6896 6895 6894 ] final   77.08 input  -60.11 | X-H torsion
[ 7974 7965 7964 7962 ] final   31.59 input  175.53 | X-H torsion
[ 8008 7997 7996 7995 ] final  -24.36 input   59.86 | X-H torsion
[ 10167 10162 10161 10158 ] final  -63.81 input  -65.29 | X-H torsion
[ 10718 10713 10712 10709 ] final  -29.90 input   66.30 | X-H torsion
[ 10763 10752 10751 10750 ] final -170.13 input  -60.55 | X-H torsion
[ 11005 11000 10999 10996 ] final   28.87 input  -57.11 | X-H torsion

> <Gold.Protein.ActiveResidues>
 VAL166  LYS551  ARG553  GLY616  TRP617  ASP618  TYR619  PRO620  LYS621  CYS622 
 ASP623  PHE694  ASN695  SER759  ASP760  ASP761  ALA762  ILE779  LEU786  VAL792 
 PHE793  MET794  SER795  GLU796  ALA797  LYS798  CYS799  TRP800  GLU811  SER814 

> <Gold.Protein.RotatedAtoms>
  152.5102  134.3870  159.9370 H   0  0  0  0  0  0  0  0  0  0  0  0  # atno 6907 bound_to 6896
  151.3829  133.3809  159.2720 H   0  0  0  0  0  0  0  0  0  0  0  0  # atno 6908 bound_to 6896
  150.9491  134.8913  159.7719 H   0  0  0  0  0  0  0  0  0  0  0  0  # atno 6909 bound_to 6896
  146.1540  139.6636  142.9079 H   0  0  0  0  0  0  0  0  0  0  0  0  # atno 7974 bound_to 7965
  154.4533  140.1955  156.0453 H   0  0  0  0  0  0  0  0  0  0  0  0  # atno 8008 bound_to 7997
  156.0694  140.3286  155.7530 H   0  0  0  0  0  0  0  0  0  0  0  0  # atno 8009 bound_to 7997
  155.5286  140.0576  157.2884 H   0  0  0  0  0  0  0  0  0  0  0  0  # atno 8010 bound_to 7997
  140.5844  143.2332  151.6273 H   0  0  0  0  0  0  0  0  0  0  0  0  # atno 10167 bound_to 10162
  156.4066  130.4400  149.7283 H   0  0  0  0  0  0  0  0  0  0  0  0  # atno 10718 bound_to 10713
  154.6448  135.2903  155.0059 H   0  0  0  0  0  0  0  0  0  0  0  0  # atno 10763 bound_to 10752
  154.1173  135.6553  153.4900 H   0  0  0  0  0  0  0  0  0  0  0  0  # atno 10764 bound_to 10752
  153.0345  135.5279  154.7330 H   0  0  0  0  0  0  0  0  0  0  0  0  # atno 10765 bound_to 10752
  140.3109  134.2650  155.7734 H   0  0  0  0  0  0  0  0  0  0  0  0  # atno 11005 bound_to 11000
  145.4753  141.0437  143.2676 LP  0  0  0  0  0  0  0  0  0  0  0  0  # atno 17320 bound_to 7965
  144.7940  139.6271  143.7101 LP  0  0  0  0  0  0  0  0  0  0  0  0  # atno 17321 bound_to 7965
  139.5189  144.3270  152.0860 LP  0  0  0  0  0  0  0  0  0  0  0  0  # atno 17342 bound_to 10162
  140.2425  144.4255  150.6254 LP  0  0  0  0  0  0  0  0  0  0  0  0  # atno 17343 bound_to 10162
  156.4278  130.7800  151.2819 LP  0  0  0  0  0  0  0  0  0  0  0  0  # atno 17370 bound_to 10713
  157.7506  131.0163  150.3540 LP  0  0  0  0  0  0  0  0  0  0  0  0  # atno 17371 bound_to 10713
  141.2108  133.7708  156.9906 LP  0  0  0  0  0  0  0  0  0  0  0  0  # atno 17394 bound_to 11000
  140.1025  134.9526  157.1945 LP  0  0  0  0  0  0  0  0  0  0  0  0  # atno 17395 bound_to 11000

$$$$
