AV-unprocessed.smi:2760|AV-procd|sdf|10630|dock8
  -GOLD-   2272015 83D 1   1.00000     0.00000
 Structure written by MMmdl.
 31 32  0  0  0  0  0  0  0  0  2 V2000
  155.9820  140.7456  160.4085 O   0  0  0  0  0  0  0  0  0  0  0  0
  154.8127  140.8049  160.0340 C   0  0  0  0  0  0  0  0  0  0  0  0
  153.9710  141.9181  160.4716 C   0  0  0  0  0  0  0  0  0  0  0  0
  152.6809  141.9738  160.0555 C   0  0  0  0  0  0  0  0  0  0  0  0
  151.7770  143.0883  160.4657 C   0  0  0  0  0  0  0  0  0  0  0  0
  152.0658  144.5178  160.0656 C   0  0  0  0  0  0  0  0  0  0  0  0
  152.1642  144.1099  161.5151 C   0  0  0  0  0  0  0  0  0  0  0  0
  152.1654  140.9742  159.2082 N   0  0  0  0  0  0  0  0  0  0  0  0
  152.9203  140.0101  158.8354 C   0  0  0  0  0  0  0  0  0  0  0  0
  152.1941  138.7710  157.7452 S   0  0  0  0  0  0  0  0  0  0  0  0
  151.3273  137.6340  158.8668 C   0  0  0  0  0  0  0  0  0  0  0  0
  150.2570  136.8305  158.1231 C   0  0  0  0  0  0  0  0  0  0  0  0
  149.4555  136.1390  159.0660 O   0  0  0  0  0  0  0  0  0  0  0  0
  148.2374  136.8106  159.3456 C   0  0  0  0  0  0  0  0  0  0  0  0
  147.4557  136.0382  160.4149 C   0  0  0  0  0  0  0  0  0  0  0  0
  147.5291  134.7334  160.1548 F   0  0  0  0  0  0  0  0  0  0  0  0
  147.9761  136.2628  161.6212 F   0  0  0  0  0  0  0  0  0  0  0  0
  146.1743  136.4043  160.4045 F   0  0  0  0  0  0  0  0  0  0  0  0
  154.2396  139.8747  159.2172 N   0  5  0  0  0  0  0  0  0  0  0  0
  154.3781  142.6815  161.1184 H   0  0  0  0  0  0  0  0  0  0  0  0
  150.7294  142.7919  160.4609 H   0  0  0  0  0  0  0  0  0  0  0  0
  152.9954  144.7215  159.5375 H   0  0  0  0  0  0  0  0  0  0  0  0
  151.2198  145.1359  159.7729 H   0  0  0  0  0  0  0  0  0  0  0  0
  151.3821  144.4571  162.1867 H   0  0  0  0  0  0  0  0  0  0  0  0
  153.1589  144.0554  161.9532 H   0  0  0  0  0  0  0  0  0  0  0  0
  150.8705  138.2085  159.6735 H   0  0  0  0  0  0  0  0  0  0  0  0
  152.0510  136.9546  159.3181 H   0  0  0  0  0  0  0  0  0  0  0  0
  149.6355  137.4982  157.5244 H   0  0  0  0  0  0  0  0  0  0  0  0
  150.7311  136.1212  157.4428 H   0  0  0  0  0  0  0  0  0  0  0  0
  148.4407  137.8242  159.6950 H   0  0  0  0  0  0  0  0  0  0  0  0
  147.6406  136.8921  158.4359 H   0  0  0  0  0  0  0  0  0  0  0  0
  1  2  2  0  0  0  0
  2 19  1  0  0  0  0
  2  3  1  0  0  0  0
  3 20  1  0  0  0  0
  3  4  2  0  0  0  0
  4  5  1  0  0  0  0
  4  8  1  0  0  0  0
  5  7  1  0  0  0  0
  5  6  1  0  0  0  0
  5 21  1  0  0  0  0
  6  7  1  0  0  0  0
  6 22  1  0  0  0  0
  6 23  1  0  0  0  0
  7 24  1  0  0  0  0
  7 25  1  0  0  0  0
  8  9  2  0  0  0  0
  9 10  1  0  0  0  0
  9 19  1  0  0  0  0
 10 11  1  0  0  0  0
 11 12  1  0  0  0  0
 11 26  1  0  0  0  0
 11 27  1  0  0  0  0
 12 13  1  0  0  0  0
 12 28  1  0  0  0  0
 12 29  1  0  0  0  0
 13 14  1  0  0  0  0
 14 15  1  0  0  0  0
 14 30  1  0  0  0  0
 14 31  1  0  0  0  0
 15 16  1  0  0  0  0
 15 17  1  0  0  0  0
 15 18  1  0  0  0  0
M  CHG  1  19  -1
M  END
> <s_m_source_file>
AV-unprocessed.smi

> <i_m_source_file_index>
2760

> <i_lp_mmshare_version>
43012

> <i_f3d_flags>
0

> <s_epik_input>
W09IXWMxW2NIXWMoW0NIXTJbQ0gyXVtDSDJdMiluYyhuMSlTW0NIMl1bQ0gyXU9bQ0gyXUMoRikoRilG

> <s_epik_cmdline>
J2VwaWtfcHl0aG9uJywgJy1waCcsICc3LjAnLCAnLXRuJywgJzgnLCAnLW1hJywgJzIwMCcsICctbWV0YWxfYmluZGluZycsICctaW1hZScsICc8aW5maWxlLm1hZT4nLCAnLW9tYWUnLCAnPG91dGZpbGUubWFlPic=

> <r_lp_tautomer_probability>
1

> <r_epik_Ionization_Penalty>
4.02042

> <r_epik_Ionization_Penalty_Charging>
0.00362968

> <r_epik_Ionization_Penalty_Neutral>
4.01679

> <r_epik_State_Penalty>
2.30798

> <r_epik_Charging_Adjusted_Penalty>
2.31161

> <i_epik_Tot_Q>
-1

> <i_epik_Tot_abs_Q>
1

> <r_epik_Metal_State_Penalty>
0.234281

> <b_epik_Metal_Only>
0

> <s_lp_Force_Field>
OPLS_2005

> <r_lp_Energy>
16.4735

> <b_lp_Chiralities_Consistent>
1

> <s_lp_Variant>
AV-unprocessed.smi:2760-3

> <Gold.Version>
5.8.1

> <Gold.Id.Protein>
6NUR|6NUR_protein|mol2

> <Gold.PLP.Fitness>
45.0533

> <Gold.PLP.PLP>
-37.9064

> <Gold.PLP.part.hbond>
-3.0000

> <Gold.PLP.part.metal>
0.0000

> <Gold.PLP.part.buried>
-4.5900

> <Gold.PLP.part.nonpolar>
-30.5237

> <Gold.PLP.part.repulsive>
0.0000

> <Gold.PLP.ligand.clash>
0.0000

> <Gold.PLP.ligand.torsion>
1.0338

> <Gold.PLP.Chemscore.Hbond>
3.0000

> <Gold.PLP.Chemscore.CHOScore>
0.0000

> <Gold.PLP.Chemscore.Metal>
0.0000

> <Gold.Chemscore.Hbonds>
donor molecule, donor type, donor heavy atom, donor atom, acceptor molecule, acceptor atom, score
      P1  H  6896  6907       L1    13  1.00
      P1  H  7997  8009       L1    19  1.64

> <Gold.PLP.Chemscore.Internal.Correction>
0.2144

> <Gold.Rescore>
     Score         DG    S(hbond)    S(metal)    S(lipo)     H(rot)  DE(clash)    DE(int)     intcor
     11.75     -12.86       1.46        0.00      75.66       2.48       0.08       1.04       ----

> <Gold.Chemscore.Fitness>
11.7519

> <Gold.Chemscore.DG>
-12.8637

> <Gold.Chemscore.ZeroCoef>
-5.4800

> <Gold.Chemscore.Hbond>
1.4638

> <Gold.Chemscore.Metal>
0.0000

> <Gold.Chemscore.Lipo>
75.6554

> <Gold.Chemscore.Internal_Hbond>
0.0000

> <Gold.Chemscore.DEClash>
0.0763

> <Gold.Chemscore.DEInternal>
1.0355

> <Gold.Chemscore.Rot>
2.4833

> <Gold.Chemscore.Internal.Correction>
   9.000000E+99

> <Gold.Chemscore.Hbonds>
donor molecule, donor type, donor heavy atom, donor atom, acceptor molecule, acceptor atom, score
      P1  H  6896  6907       L1    13  0.25
      P1  H  7997  8009       L1    19  0.11

> <Gold.Chemscore.Hbond.Weighted>
-4.8892

> <Gold.Chemscore.Metal.Weighted>
-0.0000

> <Gold.Chemscore.Lipo.Weighted>
-8.8517

> <Gold.Chemscore.Internal_Hbond.Weighted>
0.0000

> <Gold.Chemscore.DEClash.Weighted>
0.0763

> <Gold.Chemscore.DEInternal.Weighted>
1.0355

> <Gold.Chemscore.Rot.Weighted>
6.3572

> <Gold.Chemscore.Internal.Correction.Weighted>
   9.000000E+99

> <Gold.Protein.RotatedTorsions>
[ 6907 6896 6895 6894 ] final  -65.73 input  -60.11 | X-H torsion
[ 7974 7965 7964 7962 ] final -140.51 input  175.53 | X-H torsion
[ 8008 7997 7996 7995 ] final  120.64 input   59.86 | X-H torsion
[ 10167 10162 10161 10158 ] final   71.14 input  -65.29 | X-H torsion
[ 10718 10713 10712 10709 ] final    5.77 input   66.30 | X-H torsion
[ 10763 10752 10751 10750 ] final  171.88 input  -60.55 | X-H torsion
[ 11005 11000 10999 10996 ] final   76.29 input  -57.11 | X-H torsion

> <Gold.Protein.ActiveResidues>
 VAL166  LYS551  ARG553  GLY616  TRP617  ASP618  TYR619  PRO620  LYS621  CYS622 
 ASP623  PHE694  ASN695  SER759  ASP760  ASP761  ALA762  ILE779  LEU786  VAL792 
 PHE793  MET794  SER795  GLU796  ALA797  LYS798  CYS799  TRP800  GLU811  SER814 

> <Gold.Protein.RotatedAtoms>
  150.7507  134.6120  159.6090 H   0  0  0  0  0  0  0  0  0  0  0  0  # atno 6907 bound_to 6896
  152.3451  134.7078  160.0261 H   0  0  0  0  0  0  0  0  0  0  0  0  # atno 6908 bound_to 6896
  151.7518  133.3292  159.3430 H   0  0  0  0  0  0  0  0  0  0  0  0  # atno 6909 bound_to 6896
  144.8592  140.6191  143.5340 H   0  0  0  0  0  0  0  0  0  0  0  0  # atno 7974 bound_to 7965
  156.2651  140.2826  156.1181 H   0  0  0  0  0  0  0  0  0  0  0  0  # atno 8008 bound_to 7997
  155.1185  140.0392  157.2761 H   0  0  0  0  0  0  0  0  0  0  0  0  # atno 8009 bound_to 7997
  154.6689  140.2583  155.7035 H   0  0  0  0  0  0  0  0  0  0  0  0  # atno 8010 bound_to 7997
  140.0493  144.5325  150.7375 H   0  0  0  0  0  0  0  0  0  0  0  0  # atno 10167 bound_to 10162
  156.9122  130.5760  149.5647 H   0  0  0  0  0  0  0  0  0  0  0  0  # atno 10718 bound_to 10713
  154.4182  135.2757  155.1993 H   0  0  0  0  0  0  0  0  0  0  0  0  # atno 10763 bound_to 10752
  154.3950  135.6057  153.5868 H   0  0  0  0  0  0  0  0  0  0  0  0  # atno 10764 bound_to 10752
  152.9832  135.5912  154.4474 H   0  0  0  0  0  0  0  0  0  0  0  0  # atno 10765 bound_to 10752
  139.9305  134.7589  156.1377 H   0  0  0  0  0  0  0  0  0  0  0  0  # atno 11005 bound_to 11000
  145.4346  139.1544  143.4003 LP  0  0  0  0  0  0  0  0  0  0  0  0  # atno 17320 bound_to 7965
  146.2847  140.4464  142.8762 LP  0  0  0  0  0  0  0  0  0  0  0  0  # atno 17321 bound_to 7965
  140.7224  143.2602  151.4234 LP  0  0  0  0  0  0  0  0  0  0  0  0  # atno 17342 bound_to 10162
  139.5963  144.1390  152.2148 LP  0  0  0  0  0  0  0  0  0  0  0  0  # atno 17343 bound_to 10162
  156.0530  130.5596  150.9031 LP  0  0  0  0  0  0  0  0  0  0  0  0  # atno 17370 bound_to 10713
  157.5960  131.0943  150.9040 LP  0  0  0  0  0  0  0  0  0  0  0  0  # atno 17371 bound_to 10713
  141.0890  133.6722  156.2499 LP  0  0  0  0  0  0  0  0  0  0  0  0  # atno 17394 bound_to 11000
  140.6216  134.5356  157.5548 LP  0  0  0  0  0  0  0  0  0  0  0  0  # atno 17395 bound_to 11000

$$$$
