AV-unprocessed.smi:1994|AV-procd|sdf|8074|dock2
  -GOLD-   2272010283D 1   1.00000     0.00000
 Structure written by MMmdl.
 40 42  0  0  0  0  0  0  0  0  2 V2000
  153.3110  137.4899  159.9299 C   0  0  0  0  0  0  0  0  0  0  0  0
  153.0051  138.9393  159.7524 C   0  0  0  0  0  0  0  0  0  0  0  0
  153.7530  139.9799  160.2156 N   0  3  0  0  0  0  0  0  0  0  0  0
  153.1515  141.1883  159.8610 C   0  0  0  0  0  0  0  0  0  0  0  0
  153.5360  142.5027  160.1068 C   0  0  0  0  0  0  0  0  0  0  0  0
  152.6925  143.5139  159.6022 C   0  0  0  0  0  0  0  0  0  0  0  0
  151.5206  143.2010  158.8832 C   0  0  0  0  0  0  0  0  0  0  0  0
  151.1415  141.8644  158.6391 C   0  0  0  0  0  0  0  0  0  0  0  0
  151.9790  140.8696  159.1444 C   0  0  0  0  0  0  0  0  0  0  0  0
  151.9305  139.4705  159.1024 N   0  0  0  0  0  0  0  0  0  0  0  0
  150.8143  138.7942  158.4220 C   0  0  0  0  0  0  0  0  0  0  0  0
  150.4046  137.4782  159.1121 C   0  0  2  0  0  0  0  0  0  0  0  0
  150.9195  136.3748  158.3944 O   0  0  0  0  0  0  0  0  0  0  0  0
  148.8810  137.3230  159.2227 C   0  0  0  0  0  0  0  0  0  0  0  0
  148.5309  137.2203  160.5965 O   0  0  0  0  0  0  0  0  0  0  0  0
  148.0466  136.0161  161.0615 C   0  0  0  0  0  0  0  0  0  0  0  0
  147.9241  134.8478  160.2668 C   0  0  0  0  0  0  0  0  0  0  0  0
  147.4199  133.6562  160.8235 C   0  0  0  0  0  0  0  0  0  0  0  0
  147.0327  133.6159  162.1756 C   0  0  0  0  0  0  0  0  0  0  0  0
  147.1496  134.7702  162.9714 C   0  0  0  0  0  0  0  0  0  0  0  0
  147.6538  135.9624  162.4161 C   0  0  0  0  0  0  0  0  0  0  0  0
  147.7611  137.0670  163.1929 F   0  0  0  0  0  0  0  0  0  0  0  0
  154.2516  137.3585  160.4655 H   0  0  0  0  0  0  0  0  0  0  0  0
  153.3937  136.9999  158.9598 H   0  0  0  0  0  0  0  0  0  0  0  0
  152.5173  137.0053  160.4988 H   0  0  0  0  0  0  0  0  0  0  0  0
  154.4343  142.7445  160.6560 H   0  0  0  0  0  0  0  0  0  0  0  0
  152.9499  144.5501  159.7691 H   0  0  0  0  0  0  0  0  0  0  0  0
  150.8995  144.0029  158.5106 H   0  0  0  0  0  0  0  0  0  0  0  0
  150.2439  141.6385  158.0828 H   0  0  0  0  0  0  0  0  0  0  0  0
  149.9741  139.4896  158.4189 H   0  0  0  0  0  0  0  0  0  0  0  0
  151.0709  138.6301  157.3755 H   0  0  0  0  0  0  0  0  0  0  0  0
  150.8338  137.4424  160.1142 H   0  0  0  0  0  0  0  0  0  0  0  0
  150.2242  136.0094  157.8692 H   0  0  0  0  0  0  0  0  0  0  0  0
  148.3809  138.1739  158.7563 H   0  0  0  0  0  0  0  0  0  0  0  0
  148.5673  136.4167  158.7016 H   0  0  0  0  0  0  0  0  0  0  0  0
  148.2112  134.8387  159.2264 H   0  0  0  0  0  0  0  0  0  0  0  0
  147.3305  132.7709  160.2112 H   0  0  0  0  0  0  0  0  0  0  0  0
  146.6471  132.7016  162.6014 H   0  0  0  0  0  0  0  0  0  0  0  0
  146.8526  134.7421  164.0095 H   0  0  0  0  0  0  0  0  0  0  0  0
  154.6126  139.8688  160.7380 H   0  0  0  0  0  0  0  0  0  0  0  0
  1  2  1  0  0  0  0
  1 23  1  0  0  0  0
  1 24  1  0  0  0  0
  1 25  1  0  0  0  0
  2 10  1  0  0  0  0
  2  3  2  0  0  0  0
  3  4  1  0  0  0  0
  3 40  1  0  0  0  0
  4  9  2  0  0  0  0
  4  5  1  0  0  0  0
  5  6  2  0  0  0  0
  5 26  1  0  0  0  0
  6  7  1  0  0  0  0
  6 27  1  0  0  0  0
  7  8  2  0  0  0  0
  7 28  1  0  0  0  0
  8  9  1  0  0  0  0
  8 29  1  0  0  0  0
  9 10  1  0  0  0  0
 10 11  1  0  0  0  0
 11 12  1  0  0  0  0
 11 30  1  0  0  0  0
 11 31  1  0  0  0  0
 12 13  1  0  0  0  0
 12 14  1  0  0  0  0
 12 32  1  0  0  0  0
 13 33  1  0  0  0  0
 14 15  1  0  0  0  0
 14 34  1  0  0  0  0
 14 35  1  0  0  0  0
 15 16  1  0  0  0  0
 16 21  1  0  0  0  0
 16 17  2  0  0  0  0
 17 18  1  0  0  0  0
 17 36  1  0  0  0  0
 18 19  2  0  0  0  0
 18 37  1  0  0  0  0
 19 20  1  0  0  0  0
 19 38  1  0  0  0  0
 20 21  2  0  0  0  0
 20 39  1  0  0  0  0
 21 22  1  0  0  0  0
M  CHG  1   3   1
M  END
> <s_m_source_file>
AV-unprocessed.smi

> <i_m_source_file_index>
1994

> <i_lp_mmshare_version>
43012

> <i_f3d_flags>
0

> <s_epik_input>
W2NIXTFbY0hdW2NIXVtjSF1jKGMxMiluKGMobjIpW0NIM10pW0NIMl1bQ0BIXShbT0hdKVtDSDJdT2MzW2NIXVtjSF1bY0hdW2NIXWMzRg==

> <s_epik_cmdline>
J2VwaWtfcHl0aG9uJywgJy1waCcsICc3LjAnLCAnLXRuJywgJzgnLCAnLW1hJywgJzIwMCcsICctbWV0YWxfYmluZGluZycsICctaW1hZScsICc8aW5maWxlLm1hZT4nLCAnLW9tYWUnLCAnPG91dGZpbGUubWFlPic=

> <r_lp_tautomer_probability>
1

> <r_epik_Ionization_Penalty>
1.03916

> <r_epik_Ionization_Penalty_Charging>
1.03916

> <r_epik_Ionization_Penalty_Neutral>
2.3993e-06

> <r_epik_State_Penalty>
1.09101

> <r_epik_Charging_Adjusted_Penalty>
2.13018

> <i_epik_Tot_Q>
1

> <i_epik_Tot_abs_Q>
1

> <r_epik_Metal_State_Penalty>
5.08156

> <b_epik_Metal_Only>
0

> <s_lp_Force_Field>
OPLS_2005

> <r_lp_Energy>
18.7982

> <b_lp_Chiralities_Consistent>
1

> <s_lp_Variant>
AV-unprocessed.smi:1994-3

> <Gold.Version>
5.8.1

> <Gold.Id.Protein>
6NUR|6NUR_protein|mol2

> <Gold.PLP.Fitness>
51.7769

> <Gold.PLP.PLP>
-50.7224

> <Gold.PLP.part.hbond>
-3.0000

> <Gold.PLP.part.metal>
0.0000

> <Gold.PLP.part.buried>
-4.1335

> <Gold.PLP.part.nonpolar>
-43.9160

> <Gold.PLP.part.repulsive>
0.0624

> <Gold.PLP.ligand.clash>
0.0000

> <Gold.PLP.ligand.torsion>
2.0739

> <Gold.PLP.Chemscore.Hbond>
1.7185

> <Gold.PLP.Chemscore.CHOScore>
0.0000

> <Gold.PLP.Chemscore.Metal>
0.0000

> <Gold.Chemscore.Hbonds>
donor molecule, donor type, donor heavy atom, donor atom, acceptor molecule, acceptor atom, score
      P1  H  6896  6908       L1    13  0.75
      P1  H  6931  6943       L1    15  0.75
      P1  H  6934  6947       L1    15  0.22

> <Gold.PLP.Chemscore.Internal.Correction>
0.0467

> <Gold.Rescore>
     Score         DG    S(hbond)    S(metal)    S(lipo)     H(rot)  DE(clash)    DE(int)     intcor
     14.43     -17.89       1.12        0.00     123.91       2.27       0.11       3.35       ----

> <Gold.Chemscore.Fitness>
14.4305

> <Gold.Chemscore.DG>
-17.8920

> <Gold.Chemscore.ZeroCoef>
-5.4800

> <Gold.Chemscore.Hbond>
1.1158

> <Gold.Chemscore.Metal>
0.0000

> <Gold.Chemscore.Lipo>
123.9150

> <Gold.Chemscore.Internal_Hbond>
0.0000

> <Gold.Chemscore.DEClash>
0.1087

> <Gold.Chemscore.DEInternal>
3.3527

> <Gold.Chemscore.Rot>
2.2706

> <Gold.Chemscore.Internal.Correction>
   9.000000E+99

> <Gold.Chemscore.Hbonds>
donor molecule, donor type, donor heavy atom, donor atom, acceptor molecule, acceptor atom, score
      P1  H  6896  6908       L1    13  0.08
      P1  H  6931  6943       L1    15  0.62
      P1  H  6934  6947       L1    15  0.08

> <Gold.Chemscore.Hbond.Weighted>
-3.7267

> <Gold.Chemscore.Metal.Weighted>
-0.0000

> <Gold.Chemscore.Lipo.Weighted>
-14.4980

> <Gold.Chemscore.Internal_Hbond.Weighted>
0.0000

> <Gold.Chemscore.DEClash.Weighted>
0.1087

> <Gold.Chemscore.DEInternal.Weighted>
3.3527

> <Gold.Chemscore.Rot.Weighted>
5.8128

> <Gold.Chemscore.Internal.Correction.Weighted>
   9.000000E+99

> <Gold.Protein.RotatedTorsions>
[ 6907 6896 6895 6894 ] final -149.81 input  -60.11 | X-H torsion
[ 7974 7965 7964 7962 ] final   -0.21 input  175.53 | X-H torsion
[ 8008 7997 7996 7995 ] final  178.07 input   59.86 | X-H torsion
[ 10167 10162 10161 10158 ] final  110.55 input  -65.29 | X-H torsion
[ 10718 10713 10712 10709 ] final  -11.36 input   66.30 | X-H torsion
[ 10763 10752 10751 10750 ] final   19.28 input  -60.55 | X-H torsion
[ 11005 11000 10999 10996 ] final  -90.83 input  -57.11 | X-H torsion

> <Gold.Protein.ActiveResidues>
 VAL166  LYS551  ARG553  GLY616  TRP617  ASP618  TYR619  PRO620  LYS621  CYS622 
 ASP623  PHE694  ASN695  SER759  ASP760  ASP761  ALA762  ILE779  LEU786  VAL792 
 PHE793  MET794  SER795  GLU796  ALA797  LYS798  CYS799  TRP800  GLU811  SER814 

> <Gold.Protein.RotatedAtoms>
  151.1896  133.4675  159.2594 H   0  0  0  0  0  0  0  0  0  0  0  0  # atno 6907 bound_to 6896
  151.1177  135.0062  159.8534 H   0  0  0  0  0  0  0  0  0  0  0  0  # atno 6908 bound_to 6896
  152.5454  134.1809  159.8688 H   0  0  0  0  0  0  0  0  0  0  0  0  # atno 6909 bound_to 6896
  146.2429  140.1236  142.8340 H   0  0  0  0  0  0  0  0  0  0  0  0  # atno 7974 bound_to 7965
  156.0587  140.1342  156.9966 H   0  0  0  0  0  0  0  0  0  0  0  0  # atno 8008 bound_to 7997
  154.4471  140.0996  156.6555 H   0  0  0  0  0  0  0  0  0  0  0  0  # atno 8009 bound_to 7997
  155.5411  140.3461  155.4449 H   0  0  0  0  0  0  0  0  0  0  0  0  # atno 8010 bound_to 7997
  139.6680  144.7126  151.1741 H   0  0  0  0  0  0  0  0  0  0  0  0  # atno 10167 bound_to 10162
  156.6601  130.4979  149.6033 H   0  0  0  0  0  0  0  0  0  0  0  0  # atno 10718 bound_to 10713
  153.1176  135.6711  153.9391 H   0  0  0  0  0  0  0  0  0  0  0  0  # atno 10763 bound_to 10752
  153.8916  135.3046  155.3449 H   0  0  0  0  0  0  0  0  0  0  0  0  # atno 10764 bound_to 10752
  154.7591  135.4997  153.9508 H   0  0  0  0  0  0  0  0  0  0  0  0  # atno 10765 bound_to 10752
  141.1557  133.7717  156.9794 H   0  0  0  0  0  0  0  0  0  0  0  0  # atno 11005 bound_to 11000
  145.0386  140.8927  143.5066 LP  0  0  0  0  0  0  0  0  0  0  0  0  # atno 17320 bound_to 7965
  145.1312  139.2631  143.5538 LP  0  0  0  0  0  0  0  0  0  0  0  0  # atno 17321 bound_to 7965
  140.7607  143.5889  150.8817 LP  0  0  0  0  0  0  0  0  0  0  0  0  # atno 17342 bound_to 10162
  139.9552  143.6226  152.3018 LP  0  0  0  0  0  0  0  0  0  0  0  0  # atno 17343 bound_to 10162
  156.2017  130.6624  151.1174 LP  0  0  0  0  0  0  0  0  0  0  0  0  # atno 17370 bound_to 10713
  157.7112  131.0733  150.6493 LP  0  0  0  0  0  0  0  0  0  0  0  0  # atno 17371 bound_to 10713
  140.1076  134.9497  157.2017 LP  0  0  0  0  0  0  0  0  0  0  0  0  # atno 17394 bound_to 11000
  140.3236  134.2889  155.7241 LP  0  0  0  0  0  0  0  0  0  0  0  0  # atno 17395 bound_to 11000

$$$$
