AV-unprocessed.smi:109|AV-procd|sdf|1048|dock1
  -GOLD-   2262018 93D 1   1.00000     0.00000
 Structure written by MMmdl.
 58 61  0  0  0  0  0  0  0  0  1 V2000
  153.2850  139.2425  154.7643 O   0  0  0  0  0  0  0  0  0  0  0  0
  152.1245  139.4419  155.5422 C   0  0  0  0  0  0  0  0  0  0  0  0
  152.4887  139.4487  157.0374 C   0  0  0  0  0  0  0  0  0  0  0  0
  151.2887  139.7098  157.9811 C   0  0  1  0  0  0  0  0  0  0  0  0
  151.0404  138.5168  158.7943 N   0  0  0  0  0  0  0  0  0  0  0  0
  150.2064  137.5330  158.3895 C   0  0  0  0  0  0  0  0  0  0  0  0
  150.1886  136.3199  159.0009 N   0  0  0  0  0  0  0  0  0  0  0  0
  149.3468  135.3702  158.5822 C   0  0  0  0  0  0  0  0  0  0  0  0
  148.4544  135.4240  157.5906 N   0  0  0  0  0  0  0  0  0  0  0  0
  148.4704  136.6411  156.9737 C   0  0  0  0  0  0  0  0  0  0  0  0
  149.3100  137.7383  157.3096 C   0  0  0  0  0  0  0  0  0  0  0  0
  149.0386  138.8115  156.4713 N   0  0  0  0  0  0  0  0  0  0  0  0
  148.0867  138.3708  155.6927 C   0  0  0  0  0  0  0  0  0  0  0  0
  147.6836  137.0734  155.9287 N   0  0  0  0  0  0  0  0  0  0  0  0
  146.6216  136.2688  155.2412 C   0  0  2  0  0  0  0  0  0  0  0  0
  146.8766  136.3290  153.8701 O   0  0  0  0  0  0  0  0  0  0  0  0
  145.8245  137.0042  153.1852 C   0  0  2  0  0  0  0  0  0  0  0  0
  146.4104  137.8784  152.0643 C   0  0  0  0  0  0  0  0  0  0  0  0
  146.6988  137.0987  150.9238 O   0  0  0  0  0  0  0  0  0  0  0  0
  145.0566  137.7697  154.2694 C   0  0  1  0  0  0  0  0  0  0  0  0
  143.6898  137.8909  153.9295 O   0  0  0  0  0  0  0  0  0  0  0  0
  145.2199  136.8635  155.4779 C   0  0  2  0  0  0  0  0  0  0  0  0
  145.0921  137.5998  156.6816 O   0  0  0  0  0  0  0  0  0  0  0  0
  151.4813  140.9396  158.9140 C   0  0  0  0  0  0  0  0  0  0  0  0
  151.4686  142.2586  158.0994 C   0  0  0  0  0  0  0  0  0  0  0  0
  151.6605  143.5006  158.9837 C   0  0  0  0  0  0  0  0  0  0  0  0
  152.9586  143.4074  159.7939 C   0  0  0  0  0  0  0  0  0  0  0  0
  152.9796  142.1226  160.6302 C   0  0  0  0  0  0  0  0  0  0  0  0
  152.7835  140.8762  159.7514 C   0  0  0  0  0  0  0  0  0  0  0  0
  146.7447  135.2559  155.6263 H   0  0  0  0  0  0  0  0  0  0  0  0
  145.1913  136.2226  152.7601 H   0  0  0  0  0  0  0  0  0  0  0  0
  145.5054  138.7484  154.4470 H   0  0  0  0  0  0  0  0  0  0  0  0
  144.5006  136.0432  155.4536 H   0  0  0  0  0  0  0  0  0  0  0  0
  153.0794  139.4328  153.8617 H   0  0  0  0  0  0  0  0  0  0  0  0
  151.6645  140.3875  155.2546 H   0  0  0  0  0  0  0  0  0  0  0  0
  151.4141  138.6482  155.3109 H   0  0  0  0  0  0  0  0  0  0  0  0
  152.9695  138.5063  157.3043 H   0  0  0  0  0  0  0  0  0  0  0  0
  153.2385  140.2264  157.1730 H   0  0  0  0  0  0  0  0  0  0  0  0
  150.4277  139.9342  157.3522 H   0  0  0  0  0  0  0  0  0  0  0  0
  151.6379  138.4168  159.6024 H   0  0  0  0  0  0  0  0  0  0  0  0
  149.3942  134.4346  159.1200 H   0  0  0  0  0  0  0  0  0  0  0  0
  147.6498  138.9899  154.9244 H   0  0  0  0  0  0  0  0  0  0  0  0
  145.7304  138.6852  151.7920 H   0  0  0  0  0  0  0  0  0  0  0  0
  147.3395  138.3402  152.3992 H   0  0  0  0  0  0  0  0  0  0  0  0
  145.9567  137.1340  150.3395 H   0  0  0  0  0  0  0  0  0  0  0  0
  143.6250  138.3985  153.1351 H   0  0  0  0  0  0  0  0  0  0  0  0
  144.6008  138.3868  156.5003 H   0  0  0  0  0  0  0  0  0  0  0  0
  150.6431  140.9674  159.6123 H   0  0  0  0  0  0  0  0  0  0  0  0
  152.2552  142.2286  157.3441 H   0  0  0  0  0  0  0  0  0  0  0  0
  150.5302  142.3675  157.5553 H   0  0  0  0  0  0  0  0  0  0  0  0
  151.6738  144.3979  158.3645 H   0  0  0  0  0  0  0  0  0  0  0  0
  150.8111  143.6033  159.6602 H   0  0  0  0  0  0  0  0  0  0  0  0
  153.8160  143.4217  159.1197 H   0  0  0  0  0  0  0  0  0  0  0  0
  153.0586  144.2779  160.4429 H   0  0  0  0  0  0  0  0  0  0  0  0
  153.9228  142.0490  161.1725 H   0  0  0  0  0  0  0  0  0  0  0  0
  152.1929  142.1648  161.3846 H   0  0  0  0  0  0  0  0  0  0  0  0
  152.7773  140.0109  160.4123 H   0  0  0  0  0  0  0  0  0  0  0  0
  153.6423  140.7578  159.0893 H   0  0  0  0  0  0  0  0  0  0  0  0
  1  2  1  0  0  0  0
  1 34  1  0  0  0  0
  2  3  1  0  0  0  0
  2 35  1  0  0  0  0
  2 36  1  0  0  0  0
  3  4  1  0  0  0  0
  3 37  1  0  0  0  0
  3 38  1  0  0  0  0
  4  5  1  0  0  0  0
  4 24  1  0  0  0  0
  4 39  1  0  0  0  0
  5  6  1  0  0  0  0
  5 40  1  0  0  0  0
  6 11  1  0  0  0  0
  6  7  2  0  0  0  0
  7  8  1  0  0  0  0
  8  9  2  0  0  0  0
  8 41  1  0  0  0  0
  9 10  1  0  0  0  0
 10 14  1  0  0  0  0
 10 11  2  0  0  0  0
 11 12  1  0  0  0  0
 12 13  2  0  0  0  0
 13 14  1  0  0  0  0
 13 42  1  0  0  0  0
 14 15  1  0  0  0  0
 15 30  1  0  0  0  0
 15 22  1  0  0  0  0
 15 16  1  0  0  0  0
 16 17  1  0  0  0  0
 17 31  1  0  0  0  0
 17 18  1  0  0  0  0
 17 20  1  0  0  0  0
 18 19  1  0  0  0  0
 18 43  1  0  0  0  0
 18 44  1  0  0  0  0
 19 45  1  0  0  0  0
 20 32  1  0  0  0  0
 20 21  1  0  0  0  0
 20 22  1  0  0  0  0
 21 46  1  0  0  0  0
 22 33  1  0  0  0  0
 22 23  1  0  0  0  0
 23 47  1  0  0  0  0
 24 29  1  0  0  0  0
 24 25  1  0  0  0  0
 24 48  1  0  0  0  0
 25 26  1  0  0  0  0
 25 49  1  0  0  0  0
 25 50  1  0  0  0  0
 26 27  1  0  0  0  0
 26 51  1  0  0  0  0
 26 52  1  0  0  0  0
 27 28  1  0  0  0  0
 27 53  1  0  0  0  0
 27 54  1  0  0  0  0
 28 29  1  0  0  0  0
 28 55  1  0  0  0  0
 28 56  1  0  0  0  0
 29 57  1  0  0  0  0
 29 58  1  0  0  0  0
M  END
> <s_m_source_file>
AV-unprocessed.smi

> <i_m_source_file_index>
109

> <i_lp_mmshare_version>
43012

> <i_f3d_flags>
0

> <s_epik_input>
W0NIMl0xW0NIMl1bQ0gyXVtDSDJdW0NIMl1bQ0hdMVtDQEhdKFtDSDJdW0NIMl1bT0hdKVtOSF1jKG5bY0hdbjIpYyhjMjMpbltjSF1uM1tDQEBIXTRPW0NASF0oW0NIMl1bT0hdKVtDQEBIXShbT0hdKVtDQEhdNFtPSF0=

> <s_epik_cmdline>
J2VwaWtfcHl0aG9uJywgJy1waCcsICc3LjAnLCAnLXRuJywgJzgnLCAnLW1hJywgJzIwMCcsICctbWV0YWxfYmluZGluZycsICctaW1hZScsICc8aW5maWxlLm1hZT4nLCAnLW9tYWUnLCAnPG91dGZpbGUubWFlPic=

> <r_lp_tautomer_probability>
1

> <r_epik_Ionization_Penalty>
0.000793976

> <r_epik_Ionization_Penalty_Charging>
0

> <r_epik_Ionization_Penalty_Neutral>
0.000793976

> <r_epik_State_Penalty>
-0

> <r_epik_Charging_Adjusted_Penalty>
0

> <i_epik_Tot_Q>
0

> <i_epik_Tot_abs_Q>
0

> <r_epik_Metal_State_Penalty>
-0

> <b_epik_Metal_Only>
0

> <s_epik_Chemistry_Notes>
This compound contains an acetal/aminal-like group ( X-CH(R)-Y where X, Y are N, S, or O) that may be acid/base labile, releasing an aldehyde.

> <s_lp_Force_Field>
OPLS_2005

> <r_lp_Energy>
53.2153

> <b_lp_Chiralities_Consistent>
1

> <s_lp_Variant>
AV-unprocessed.smi:109-18

> <Gold.Version>
5.8.1

> <Gold.Id.Protein>
6NUR|6NUR_protein|mol2

> <Gold.PLP.Fitness>
47.4648

> <Gold.PLP.PLP>
-35.6229

> <Gold.PLP.part.hbond>
-6.4371

> <Gold.PLP.part.metal>
0.0000

> <Gold.PLP.part.buried>
-2.1681

> <Gold.PLP.part.nonpolar>
-28.7890

> <Gold.PLP.part.repulsive>
1.0317

> <Gold.PLP.ligand.clash>
0.0000

> <Gold.PLP.ligand.torsion>
1.4991

> <Gold.PLP.Chemscore.Hbond>
4.8913

> <Gold.PLP.Chemscore.CHOScore>
0.0000

> <Gold.PLP.Chemscore.Metal>
0.0000

> <Gold.Chemscore.Hbonds>
donor molecule, donor type, donor heavy atom, donor atom, acceptor molecule, acceptor atom, score
      L1  H    21    46       P1 10175  0.58
      P1  H  6896  6907       L1     7  0.40
      P1  H  7954  7966       L1    19  1.00
      P1  H  7997  8010       L1     1  1.00

> <Gold.PLP.Chemscore.Internal.Correction>
0.1663

> <Gold.Rescore>
     Score         DG    S(hbond)    S(metal)    S(lipo)     H(rot)  DE(clash)    DE(int)     intcor
     11.09     -14.59       3.84        0.00      87.79       5.47       0.33       3.17       ----

> <Gold.Chemscore.Fitness>
11.0937

> <Gold.Chemscore.DG>
-14.5946

> <Gold.Chemscore.ZeroCoef>
-5.4800

> <Gold.Chemscore.Hbond>
3.8432

> <Gold.Chemscore.Metal>
0.0000

> <Gold.Chemscore.Lipo>
87.7923

> <Gold.Chemscore.Internal_Hbond>
0.0000

> <Gold.Chemscore.DEClash>
0.3298

> <Gold.Chemscore.DEInternal>
3.1711

> <Gold.Chemscore.Rot>
5.4662

> <Gold.Chemscore.Internal.Correction>
   9.000000E+99

> <Gold.Chemscore.Hbonds>
donor molecule, donor type, donor heavy atom, donor atom, acceptor molecule, acceptor atom, score
      L1  H    21    46       P1 10175  0.58
      P1  H  6896  6907       L1     7  0.01
      P1  H  7954  7966       L1    19  0.36
      P1  H  7997  8010       L1     1  0.60

> <Gold.Chemscore.Hbond.Weighted>
-12.8364

> <Gold.Chemscore.Metal.Weighted>
-0.0000

> <Gold.Chemscore.Lipo.Weighted>
-10.2717

> <Gold.Chemscore.Internal_Hbond.Weighted>
0.0000

> <Gold.Chemscore.DEClash.Weighted>
0.3298

> <Gold.Chemscore.DEInternal.Weighted>
3.1711

> <Gold.Chemscore.Rot.Weighted>
13.9935

> <Gold.Chemscore.Internal.Correction.Weighted>
   9.000000E+99

> <Gold.Protein.RotatedTorsions>
[ 6907 6896 6895 6894 ] final  -29.18 input  -60.11 | X-H torsion
[ 7974 7965 7964 7962 ] final  -51.15 input  175.53 | X-H torsion
[ 8008 7997 7996 7995 ] final  128.65 input   59.86 | X-H torsion
[ 10167 10162 10161 10158 ] final  -34.55 input  -65.29 | X-H torsion
[ 10718 10713 10712 10709 ] final  -41.58 input   66.30 | X-H torsion
[ 10763 10752 10751 10750 ] final   34.86 input  -60.55 | X-H torsion
[ 11005 11000 10999 10996 ] final   49.85 input  -57.11 | X-H torsion

> <Gold.Protein.ActiveResidues>
 VAL166  LYS551  ARG553  GLY616  TRP617  ASP618  TYR619  PRO620  LYS621  CYS622 
 ASP623  PHE694  ASN695  SER759  ASP760  ASP761  ALA762  ILE779  LEU786  VAL792 
 PHE793  MET794  SER795  GLU796  ALA797  LYS798  CYS799  TRP800  GLU811  SER814 

> <Gold.Protein.RotatedAtoms>
  151.1228  135.0088  159.8546 H   0  0  0  0  0  0  0  0  0  0  0  0  # atno 6907 bound_to 6896
  152.5448  134.1702  159.8604 H   0  0  0  0  0  0  0  0  0  0  0  0  # atno 6908 bound_to 6896
  151.1762  133.4708  159.2627 H   0  0  0  0  0  0  0  0  0  0  0  0  # atno 6909 bound_to 6896
  145.9220  140.7825  142.9642 H   0  0  0  0  0  0  0  0  0  0  0  0  # atno 7974 bound_to 7965
  156.2919  140.2639  156.2470 H   0  0  0  0  0  0  0  0  0  0  0  0  # atno 8008 bound_to 7997
  154.9920  140.0388  157.2342 H   0  0  0  0  0  0  0  0  0  0  0  0  # atno 8009 bound_to 7997
  154.7677  140.2772  155.6167 H   0  0  0  0  0  0  0  0  0  0  0  0  # atno 8010 bound_to 7997
  140.7183  143.3540  151.2098 H   0  0  0  0  0  0  0  0  0  0  0  0  # atno 10167 bound_to 10162
  156.2688  130.4204  149.8460 H   0  0  0  0  0  0  0  0  0  0  0  0  # atno 10718 bound_to 10713
  153.0145  135.6349  154.1735 H   0  0  0  0  0  0  0  0  0  0  0  0  # atno 10763 bound_to 10752
  154.1475  135.2831  155.3146 H   0  0  0  0  0  0  0  0  0  0  0  0  # atno 10764 bound_to 10752
  154.6078  135.5566  153.7503 H   0  0  0  0  0  0  0  0  0  0  0  0  # atno 10765 bound_to 10752
  140.1068  134.5008  155.8713 H   0  0  0  0  0  0  0  0  0  0  0  0  # atno 11005 bound_to 11000
  144.6754  140.1991  143.7389 LP  0  0  0  0  0  0  0  0  0  0  0  0  # atno 17320 bound_to 7965
  145.8537  139.2188  143.1757 LP  0  0  0  0  0  0  0  0  0  0  0  0  # atno 17321 bound_to 7965
  139.7077  143.9428  152.2934 LP  0  0  0  0  0  0  0  0  0  0  0  0  # atno 17342 bound_to 10162
  139.9143  144.6838  150.8529 LP  0  0  0  0  0  0  0  0  0  0  0  0  # atno 17343 bound_to 10162
  156.5949  130.8522  151.3417 LP  0  0  0  0  0  0  0  0  0  0  0  0  # atno 17370 bound_to 10713
  157.7277  130.9646  150.1709 LP  0  0  0  0  0  0  0  0  0  0  0  0  # atno 17371 bound_to 10713
  141.2120  133.6714  156.6626 LP  0  0  0  0  0  0  0  0  0  0  0  0  # atno 17394 bound_to 11000
  140.3145  134.8059  157.4203 LP  0  0  0  0  0  0  0  0  0  0  0  0  # atno 17395 bound_to 11000

$$$$
