AV-unprocessed.smi:2446|AV-procd|sdf|9647|dock2
  -GOLD-   2272013283D 1   1.00000     0.00000
 Structure written by MMmdl.
 40 41  0  0  0  0  0  0  0  0  2 V2000
  152.2297  145.1616  160.6177 C   0  0  0  0  0  0  0  0  0  0  0  0
  151.8712  144.3634  159.3755 C   0  0  0  0  0  0  0  0  0  0  0  0
  151.0795  144.9603  158.3702 C   0  0  0  0  0  0  0  0  0  0  0  0
  150.7557  144.2648  157.2600 N   0  3  0  0  0  0  0  0  0  0  0  0
  151.1636  142.9962  157.0490 C   0  0  0  0  0  0  0  0  0  0  0  0
  151.9568  142.3432  158.0132 C   0  0  0  0  0  0  0  0  0  0  0  0
  152.3110  143.0253  159.2056 C   0  0  0  0  0  0  0  0  0  0  0  0
  153.1207  142.4476  160.2237 N   0  0  0  0  0  0  0  0  0  0  0  0
  153.8117  141.2908  160.2111 C   0  0  0  0  0  0  0  0  0  0  0  0
  153.8783  140.5248  159.2526 O   0  0  0  0  0  0  0  0  0  0  0  0
  154.4370  141.0111  161.3697 N   0  0  0  0  0  0  0  0  0  0  0  0
  155.2662  139.8493  161.6999 C   0  0  2  0  0  0  0  0  0  0  0  0
  154.5638  138.5653  161.2235 C   0  0  0  0  0  0  0  0  0  0  0  0
  155.3708  137.3142  161.6026 C   0  0  0  0  0  0  0  0  0  0  0  0
  155.6450  137.2624  163.1139 C   0  0  0  0  0  0  0  0  0  0  0  0
  156.3599  138.5388  163.6051 C   0  0  2  0  0  0  0  0  0  0  0  0
  156.6596  138.4921  165.1175 C   0  0  0  0  0  0  0  0  0  0  0  0
  157.3977  137.4246  165.4228 F   0  0  0  0  0  0  0  0  0  0  0  0
  157.3169  139.5913  165.4871 F   0  0  0  0  0  0  0  0  0  0  0  0
  155.5189  138.4388  165.8055 F   0  0  0  0  0  0  0  0  0  0  0  0
  155.5383  139.7866  163.2181 C   0  0  0  0  0  0  0  0  0  0  0  0
  151.8302  146.1748  160.5662 H   0  0  0  0  0  0  0  0  0  0  0  0
  153.3122  145.2322  160.7289 H   0  0  0  0  0  0  0  0  0  0  0  0
  151.8215  144.6837  161.5087 H   0  0  0  0  0  0  0  0  0  0  0  0
  150.6977  145.9698  158.4190 H   0  0  0  0  0  0  0  0  0  0  0  0
  150.8507  142.5456  156.1183 H   0  0  0  0  0  0  0  0  0  0  0  0
  152.2872  141.3363  157.8103 H   0  0  0  0  0  0  0  0  0  0  0  0
  153.1085  142.9344  161.1080 H   0  0  0  0  0  0  0  0  0  0  0  0
  154.3334  141.6936  162.1071 H   0  0  0  0  0  0  0  0  0  0  0  0
  156.2175  139.9184  161.1688 H   0  0  0  0  0  0  0  0  0  0  0  0
  153.5682  138.5001  161.6650 H   0  0  0  0  0  0  0  0  0  0  0  0
  154.4214  138.5955  160.1425 H   0  0  0  0  0  0  0  0  0  0  0  0
  154.8327  136.4180  161.2925 H   0  0  0  0  0  0  0  0  0  0  0  0
  156.3163  137.3103  161.0590 H   0  0  0  0  0  0  0  0  0  0  0  0
  154.7029  137.1359  163.6490 H   0  0  0  0  0  0  0  0  0  0  0  0
  156.2479  136.3829  163.3411 H   0  0  0  0  0  0  0  0  0  0  0  0
  157.3186  138.6008  163.0873 H   0  0  0  0  0  0  0  0  0  0  0  0
  156.0669  140.6845  163.5379 H   0  0  0  0  0  0  0  0  0  0  0  0
  154.5911  139.7828  163.7596 H   0  0  0  0  0  0  0  0  0  0  0  0
  150.1832  144.7188  156.5479 H   0  0  0  0  0  0  0  0  0  0  0  0
  1  2  1  0  0  0  0
  1 22  1  0  0  0  0
  1 23  1  0  0  0  0
  1 24  1  0  0  0  0
  2  7  1  0  0  0  0
  2  3  2  0  0  0  0
  3  4  1  0  0  0  0
  3 25  1  0  0  0  0
  4  5  2  0  0  0  0
  4 40  1  0  0  0  0
  5  6  1  0  0  0  0
  5 26  1  0  0  0  0
  6  7  2  0  0  0  0
  6 27  1  0  0  0  0
  7  8  1  0  0  0  0
  8  9  1  0  0  0  0
  8 28  1  0  0  0  0
  9 10  2  0  0  0  0
  9 11  1  0  0  0  0
 11 12  1  0  0  0  0
 11 29  1  0  0  0  0
 12 21  1  0  0  0  0
 12 13  1  0  0  0  0
 12 30  1  0  0  0  0
 13 14  1  0  0  0  0
 13 31  1  0  0  0  0
 13 32  1  0  0  0  0
 14 15  1  0  0  0  0
 14 33  1  0  0  0  0
 14 34  1  0  0  0  0
 15 16  1  0  0  0  0
 15 35  1  0  0  0  0
 15 36  1  0  0  0  0
 16 17  1  0  0  0  0
 16 21  1  0  0  0  0
 16 37  1  0  0  0  0
 17 18  1  0  0  0  0
 17 19  1  0  0  0  0
 17 20  1  0  0  0  0
 21 38  1  0  0  0  0
 21 39  1  0  0  0  0
M  CHG  1   4   1
M  END
> <s_m_source_file>
AV-unprocessed.smi

> <i_m_source_file_index>
2446

> <i_lp_mmshare_version>
43012

> <i_f3d_flags>
0

> <s_epik_input>
W0NIM11jMVtjSF1uW2NIXVtjSF1jMVtOSF1DKD1PKVtOSF1bQ0BASF0yW0NIMl1bQ0gyXVtDSDJdW0NAQEhdKEMoRikoRilGKVtDSDJdMg==

> <s_epik_cmdline>
J2VwaWtfcHl0aG9uJywgJy1waCcsICc3LjAnLCAnLXRuJywgJzgnLCAnLW1hJywgJzIwMCcsICctbWV0YWxfYmluZGluZycsICctaW1hZScsICc8aW5maWxlLm1hZT4nLCAnLW9tYWUnLCAnPG91dGZpbGUubWFlPic=

> <r_epik_Ionization_Penalty>
0.736582

> <r_epik_Ionization_Penalty_Charging>
0.736562

> <r_epik_Ionization_Penalty_Neutral>
1.98379e-05

> <r_epik_State_Penalty>
0.762314

> <r_epik_Charging_Adjusted_Penalty>
1.49888

> <i_epik_Tot_Q>
1

> <i_epik_Tot_abs_Q>
1

> <r_epik_Metal_State_Penalty>
0.914579

> <b_epik_Metal_Only>
0

> <s_lp_Force_Field>
OPLS_2005

> <r_lp_Energy>
31.4788

> <b_lp_Chiralities_Consistent>
1

> <s_lp_Variant>
AV-unprocessed.smi:2446-7

> <Gold.Version>
5.8.1

> <Gold.Id.Protein>
6NUR|6NUR_protein|mol2

> <Gold.PLP.Fitness>
42.1745

> <Gold.PLP.PLP>
-35.5879

> <Gold.PLP.part.hbond>
-2.0882

> <Gold.PLP.part.metal>
0.0000

> <Gold.PLP.part.buried>
-4.6274

> <Gold.PLP.part.nonpolar>
-27.5352

> <Gold.PLP.part.repulsive>
0.0824

> <Gold.PLP.ligand.clash>
0.0000

> <Gold.PLP.ligand.torsion>
0.1742

> <Gold.PLP.Chemscore.Hbond>
2.3058

> <Gold.PLP.Chemscore.CHOScore>
0.0000

> <Gold.PLP.Chemscore.Metal>
0.0000

> <Gold.Chemscore.Hbonds>
donor molecule, donor type, donor heavy atom, donor atom, acceptor molecule, acceptor atom, score
      L1  H     4    40       P1  8028  2.00
      P1  H  7997  8010       L1    10  0.28

> <Gold.PLP.Chemscore.Internal.Correction>
0.0178

> <Gold.Rescore>
     Score         DG    S(hbond)    S(metal)    S(lipo)     H(rot)  DE(clash)    DE(int)     intcor
     16.74     -19.50       1.66        0.00      94.50       1.00       0.03       2.73       ----

> <Gold.Chemscore.Fitness>
16.7421

> <Gold.Chemscore.DG>
-19.5048

> <Gold.Chemscore.ZeroCoef>
-5.4800

> <Gold.Chemscore.Hbond>
1.6550

> <Gold.Chemscore.Metal>
0.0000

> <Gold.Chemscore.Lipo>
94.5044

> <Gold.Chemscore.Internal_Hbond>
0.0000

> <Gold.Chemscore.DEClash>
0.0300

> <Gold.Chemscore.DEInternal>
2.7328

> <Gold.Chemscore.Rot>
1.0000

> <Gold.Chemscore.Internal.Correction>
   9.000000E+99

> <Gold.Chemscore.Hbonds>
donor molecule, donor type, donor heavy atom, donor atom, acceptor molecule, acceptor atom, score
      L1  H     4    40       P1  8028  0.76
      P1  H  7997  8010       L1    10  0.29

> <Gold.Chemscore.Hbond.Weighted>
-5.5278

> <Gold.Chemscore.Metal.Weighted>
-0.0000

> <Gold.Chemscore.Lipo.Weighted>
-11.0570

> <Gold.Chemscore.Internal_Hbond.Weighted>
0.0000

> <Gold.Chemscore.DEClash.Weighted>
0.0300

> <Gold.Chemscore.DEInternal.Weighted>
2.7328

> <Gold.Chemscore.Rot.Weighted>
2.5600

> <Gold.Chemscore.Internal.Correction.Weighted>
   9.000000E+99

> <Gold.Protein.RotatedTorsions>
[ 6907 6896 6895 6894 ] final  170.03 input  -60.11 | X-H torsion
[ 7974 7965 7964 7962 ] final  143.99 input  175.53 | X-H torsion
[ 8008 7997 7996 7995 ] final   12.59 input   59.86 | X-H torsion
[ 10167 10162 10161 10158 ] final  129.45 input  -65.29 | X-H torsion
[ 10718 10713 10712 10709 ] final   78.02 input   66.30 | X-H torsion
[ 10763 10752 10751 10750 ] final  -14.81 input  -60.55 | X-H torsion
[ 11005 11000 10999 10996 ] final  -41.26 input  -57.11 | X-H torsion

> <Gold.Protein.ActiveResidues>
 VAL166  LYS551  ARG553  GLY616  TRP617  ASP618  TYR619  PRO620  LYS621  CYS622 
 ASP623  PHE694  ASN695  SER759  ASP760  ASP761  ALA762  ILE779  LEU786  VAL792 
 PHE793  MET794  SER795  GLU796  ALA797  LYS798  CYS799  TRP800  GLU811  SER814 

> <Gold.Protein.RotatedAtoms>
  151.8225  133.3396  159.3588 H   0  0  0  0  0  0  0  0  0  0  0  0  # atno 6907 bound_to 6896
  150.7290  134.5560  159.5828 H   0  0  0  0  0  0  0  0  0  0  0  0  # atno 6908 bound_to 6896
  152.2996  134.7628  160.0412 H   0  0  0  0  0  0  0  0  0  0  0  0  # atno 6909 bound_to 6896
  144.8874  139.5609  143.5814 H   0  0  0  0  0  0  0  0  0  0  0  0  # atno 7974 bound_to 7965
  154.8227  140.2886  155.5776 H   0  0  0  0  0  0  0  0  0  0  0  0  # atno 8008 bound_to 7997
  156.2999  140.2547  156.3068 H   0  0  0  0  0  0  0  0  0  0  0  0  # atno 8009 bound_to 7997
  154.9320  140.0383  157.2042 H   0  0  0  0  0  0  0  0  0  0  0  0  # atno 8010 bound_to 7997
  139.5477  144.6787  151.4420 H   0  0  0  0  0  0  0  0  0  0  0  0  # atno 10167 bound_to 10162
  157.6730  130.9848  150.1725 H   0  0  0  0  0  0  0  0  0  0  0  0  # atno 10718 bound_to 10713
  153.5338  135.7014  153.5670 H   0  0  0  0  0  0  0  0  0  0  0  0  # atno 10763 bound_to 10752
  153.3665  135.3956  155.1757 H   0  0  0  0  0  0  0  0  0  0  0  0  # atno 10764 bound_to 10752
  154.8681  135.3801  154.4837 H   0  0  0  0  0  0  0  0  0  0  0  0  # atno 10765 bound_to 10752
  141.0234  133.6852  156.2434 H   0  0  0  0  0  0  0  0  0  0  0  0  # atno 11005 bound_to 11000
  146.3032  139.7495  142.9075 LP  0  0  0  0  0  0  0  0  0  0  0  0  # atno 17320 bound_to 7965
  145.3845  141.0363  143.3159 LP  0  0  0  0  0  0  0  0  0  0  0  0  # atno 17321 bound_to 7965
  140.6731  143.8250  150.7024 LP  0  0  0  0  0  0  0  0  0  0  0  0  # atno 17342 bound_to 10162
  140.1680  143.4218  152.2020 LP  0  0  0  0  0  0  0  0  0  0  0  0  # atno 17343 bound_to 10162
  156.2476  130.3697  149.8268 LP  0  0  0  0  0  0  0  0  0  0  0  0  # atno 17370 bound_to 10713
  156.6050  130.8562  151.3441 LP  0  0  0  0  0  0  0  0  0  0  0  0  # atno 17371 bound_to 10713
  140.6534  134.5043  157.5579 LP  0  0  0  0  0  0  0  0  0  0  0  0  # atno 17394 bound_to 11000
  139.9160  134.8245  156.1365 LP  0  0  0  0  0  0  0  0  0  0  0  0  # atno 17395 bound_to 11000

$$$$
