AV-unprocessed.smi:240|AV-procd|sdf|1828|dock10
  -GOLD-   2262020433D 1   1.00000     0.00000
 Structure written by MMmdl.
 55 59  0  0  0  0  0  0  0  0  1 V2000
  146.1781  140.6821  156.9381 O   0  0  0  0  0  0  0  0  0  0  0  0
  146.6685  141.5452  155.9332 C   0  0  2  0  0  0  0  0  0  0  0  0
  145.6215  142.5931  155.5604 C   0  0  0  0  0  0  0  0  0  0  0  0
  146.0754  143.0825  154.1873 C   0  0  0  0  0  0  0  0  0  0  0  0
  146.6960  141.8579  153.5009 C   0  0  0  0  0  0  0  0  0  0  0  0
  146.9587  140.8122  154.6067 C   0  0  1  0  0  0  0  0  0  0  0  0
  148.3352  140.0815  154.4894 C   0  0  1  0  0  0  0  0  0  0  0  0
  149.5458  141.0144  154.7577 C   0  0  0  0  0  0  0  0  0  0  0  0
  150.7638  140.2976  154.6034 O   0  0  0  0  0  0  0  0  0  0  0  0
  150.8710  139.2452  155.5517 C   0  0  0  0  0  0  0  0  0  0  0  0
  149.7418  138.2373  155.3036 C   0  0  0  0  0  0  0  0  0  0  0  0
  148.4385  138.8937  155.3527 N   0  0  0  0  0  0  0  0  0  0  0  0
  147.4612  137.9610  155.2558 C   0  0  0  0  0  0  0  0  0  0  0  0
  147.1347  137.1923  156.3292 N   0  0  0  0  0  0  0  0  0  0  0  0
  146.1680  136.2755  156.2250 C   0  0  0  0  0  0  0  0  0  0  0  0
  145.4135  135.9745  155.1655 N   0  0  0  0  0  0  0  0  0  0  0  0
  145.7274  136.7579  154.0936 C   0  0  0  0  0  0  0  0  0  0  0  0
  146.7261  137.7700  154.0564 C   0  0  0  0  0  0  0  0  0  0  0  0
  146.7632  138.3589  152.7994 N   0  0  0  0  0  0  0  0  0  0  0  0
  145.8436  137.7229  152.1262 C   0  0  0  0  0  0  0  0  0  0  0  0
  145.1671  136.7493  152.8278 N   0  0  0  0  0  0  0  0  0  0  0  0
  144.1061  135.8895  152.3253 C   0  0  0  0  0  0  0  0  0  0  0  0
  144.3976  134.3802  152.4957 C   0  0  1  0  0  0  0  0  0  0  0  0
  144.2234  134.0313  153.8585 O   0  0  0  0  0  0  0  0  0  0  0  0
  143.4812  133.4999  151.6558 C   0  0  0  0  0  0  0  0  0  0  0  0
  144.3379  132.2659  151.4073 C   0  0  0  0  0  0  0  0  0  0  0  0
  145.6282  132.8122  151.1928 O   0  0  0  0  0  0  0  0  0  0  0  0
  145.8068  133.9345  152.0525 C   0  0  0  0  0  0  0  0  0  0  0  0
  145.8132  139.9150  156.5241 H   0  0  0  0  0  0  0  0  0  0  0  0
  147.5511  142.0591  156.3097 H   0  0  0  0  0  0  0  0  0  0  0  0
  144.6361  142.1322  155.4738 H   0  0  0  0  0  0  0  0  0  0  0  0
  145.5510  143.3985  156.2920 H   0  0  0  0  0  0  0  0  0  0  0  0
  145.2593  143.5172  153.6095 H   0  0  0  0  0  0  0  0  0  0  0  0
  146.8375  143.8530  154.3119 H   0  0  0  0  0  0  0  0  0  0  0  0
  146.0053  141.4468  152.7635 H   0  0  0  0  0  0  0  0  0  0  0  0
  147.5932  142.1434  152.9540 H   0  0  0  0  0  0  0  0  0  0  0  0
  146.1609  140.0807  154.4765 H   0  0  0  0  0  0  0  0  0  0  0  0
  148.4291  139.7322  153.4601 H   0  0  0  0  0  0  0  0  0  0  0  0
  149.5634  141.8504  154.0606 H   0  0  0  0  0  0  0  0  0  0  0  0
  149.5195  141.4428  155.7591 H   0  0  0  0  0  0  0  0  0  0  0  0
  151.8399  138.7594  155.4369 H   0  0  0  0  0  0  0  0  0  0  0  0
  150.8293  139.6405  156.5682 H   0  0  0  0  0  0  0  0  0  0  0  0
  149.8754  137.7675  154.3277 H   0  0  0  0  0  0  0  0  0  0  0  0
  149.7921  137.4442  156.0514 H   0  0  0  0  0  0  0  0  0  0  0  0
  145.9720  135.7005  157.1178 H   0  0  0  0  0  0  0  0  0  0  0  0
  145.6303  137.9499  151.0916 H   0  0  0  0  0  0  0  0  0  0  0  0
  143.1799  136.1554  152.8364 H   0  0  0  0  0  0  0  0  0  0  0  0
  143.9496  136.1234  151.2716 H   0  0  0  0  0  0  0  0  0  0  0  0
  143.7920  133.1914  153.8990 H   0  0  0  0  0  0  0  0  0  0  0  0
  142.5279  133.2723  152.1349 H   0  0  0  0  0  0  0  0  0  0  0  0
  143.2659  133.9800  150.7002 H   0  0  0  0  0  0  0  0  0  0  0  0
  144.3548  131.6171  152.2841 H   0  0  0  0  0  0  0  0  0  0  0  0
  144.0004  131.6815  150.5513 H   0  0  0  0  0  0  0  0  0  0  0  0
  146.3269  134.7073  151.4877 H   0  0  0  0  0  0  0  0  0  0  0  0
  146.4420  133.6653  152.8980 H   0  0  0  0  0  0  0  0  0  0  0  0
  1  2  1  0  0  0  0
  1 29  1  0  0  0  0
  2  6  1  0  0  0  0
  2  3  1  0  0  0  0
  2 30  1  0  0  0  0
  3  4  1  0  0  0  0
  3 31  1  0  0  0  0
  3 32  1  0  0  0  0
  4  5  1  0  0  0  0
  4 33  1  0  0  0  0
  4 34  1  0  0  0  0
  5  6  1  0  0  0  0
  5 35  1  0  0  0  0
  5 36  1  0  0  0  0
  6  7  1  0  0  0  0
  6 37  1  0  0  0  0
  7 12  1  0  0  0  0
  7  8  1  0  0  0  0
  7 38  1  0  0  0  0
  8  9  1  0  0  0  0
  8 39  1  0  0  0  0
  8 40  1  0  0  0  0
  9 10  1  0  0  0  0
 10 11  1  0  0  0  0
 10 41  1  0  0  0  0
 10 42  1  0  0  0  0
 11 12  1  0  0  0  0
 11 43  1  0  0  0  0
 11 44  1  0  0  0  0
 12 13  1  0  0  0  0
 13 18  1  0  0  0  0
 13 14  2  0  0  0  0
 14 15  1  0  0  0  0
 15 16  2  0  0  0  0
 15 45  1  0  0  0  0
 16 17  1  0  0  0  0
 17 21  1  0  0  0  0
 17 18  2  0  0  0  0
 18 19  1  0  0  0  0
 19 20  2  0  0  0  0
 20 21  1  0  0  0  0
 20 46  1  0  0  0  0
 21 22  1  0  0  0  0
 22 23  1  0  0  0  0
 22 47  1  0  0  0  0
 22 48  1  0  0  0  0
 23 28  1  0  0  0  0
 23 24  1  0  0  0  0
 23 25  1  0  0  0  0
 24 49  1  0  0  0  0
 25 26  1  0  0  0  0
 25 50  1  0  0  0  0
 25 51  1  0  0  0  0
 26 27  1  0  0  0  0
 26 52  1  0  0  0  0
 26 53  1  0  0  0  0
 27 28  1  0  0  0  0
 28 54  1  0  0  0  0
 28 55  1  0  0  0  0
M  END
> <s_m_source_file>
AV-unprocessed.smi

> <i_m_source_file_index>
240

> <i_lp_mmshare_version>
43012

> <i_f3d_flags>
0

> <s_epik_input>
W09IXVtDQEBIXTFbQ0gyXVtDSDJdW0NIMl1bQ0BIXTFbQ0BASF0yW0NIMl1PW0NIMl1bQ0gyXU4yYyhuW2NIXW4zKWMoYzM0KW5bY0hdbjRbQ0gyXVtDQEBdNShbT0hdKVtDSDJdW0NIMl1PW0NIMl01

> <s_epik_cmdline>
J2VwaWtfcHl0aG9uJywgJy1waCcsICc3LjAnLCAnLXRuJywgJzgnLCAnLW1hJywgJzIwMCcsICctbWV0YWxfYmluZGluZycsICctaW1hZScsICc8aW5maWxlLm1hZT4nLCAnLW9tYWUnLCAnPG91dGZpbGUubWFlPic=

> <r_lp_tautomer_probability>
1

> <r_epik_Ionization_Penalty>
0.000130618

> <r_epik_Ionization_Penalty_Charging>
0

> <r_epik_Ionization_Penalty_Neutral>
0.000130618

> <r_epik_State_Penalty>
-0

> <r_epik_Charging_Adjusted_Penalty>
0

> <i_epik_Tot_Q>
0

> <i_epik_Tot_abs_Q>
0

> <r_epik_Metal_State_Penalty>
-0

> <b_epik_Metal_Only>
0

> <s_lp_Force_Field>
OPLS_2005

> <r_lp_Energy>
59.9569

> <b_lp_Chiralities_Consistent>
1

> <s_lp_Variant>
AV-unprocessed.smi:240-5

> <Gold.Version>
5.8.1

> <Gold.Id.Protein>
6NUR|6NUR_protein|mol2

> <Gold.PLP.Fitness>
41.3380

> <Gold.PLP.PLP>
-33.8562

> <Gold.PLP.part.hbond>
-1.9348

> <Gold.PLP.part.metal>
0.0000

> <Gold.PLP.part.buried>
-6.9604

> <Gold.PLP.part.nonpolar>
-26.9206

> <Gold.PLP.part.repulsive>
0.5815

> <Gold.PLP.ligand.clash>
0.0000

> <Gold.PLP.ligand.torsion>
0.8472

> <Gold.PLP.Chemscore.Hbond>
1.9913

> <Gold.PLP.Chemscore.CHOScore>
1.0000

> <Gold.PLP.Chemscore.Metal>
0.0000

> <Gold.Chemscore.Hbonds>
donor molecule, donor type, donor heavy atom, donor atom, acceptor molecule, acceptor atom, score
      L1  H    24    49       P1 10957  1.00
      P1  H  7989  7998       L1     9  0.96
      L1  C    20    46       P1 10171  1.00

> <Gold.PLP.Chemscore.Internal.Correction>
0.2023

> <Gold.Rescore>
     Score         DG    S(hbond)    S(metal)    S(lipo)     H(rot)  DE(clash)    DE(int)     intcor
     10.48     -12.78       1.90        0.00      73.83       3.00       0.11       2.19       ----

> <Gold.Chemscore.Fitness>
10.4835

> <Gold.Chemscore.DG>
-12.7818

> <Gold.Chemscore.ZeroCoef>
-5.4800

> <Gold.Chemscore.Hbond>
1.9023

> <Gold.Chemscore.Metal>
0.0000

> <Gold.Chemscore.Lipo>
73.8276

> <Gold.Chemscore.Internal_Hbond>
0.0000

> <Gold.Chemscore.DEClash>
0.1065

> <Gold.Chemscore.DEInternal>
2.1918

> <Gold.Chemscore.Rot>
3.0039

> <Gold.Chemscore.Internal.Correction>
   9.000000E+99

> <Gold.Chemscore.Hbonds>
donor molecule, donor type, donor heavy atom, donor atom, acceptor molecule, acceptor atom, score
      L1  H    24    49       P1 10957  0.92
      P1  H  7989  7998       L1     9  0.75

> <Gold.Chemscore.Hbond.Weighted>
-6.3538

> <Gold.Chemscore.Metal.Weighted>
-0.0000

> <Gold.Chemscore.Lipo.Weighted>
-8.6378

> <Gold.Chemscore.Internal_Hbond.Weighted>
0.0000

> <Gold.Chemscore.DEClash.Weighted>
0.1065

> <Gold.Chemscore.DEInternal.Weighted>
2.1918

> <Gold.Chemscore.Rot.Weighted>
7.6899

> <Gold.Chemscore.Internal.Correction.Weighted>
   9.000000E+99

> <Gold.Protein.RotatedTorsions>
[ 6907 6896 6895 6894 ] final  161.11 input  -60.11 | X-H torsion
[ 7974 7965 7964 7962 ] final  -33.03 input  175.53 | X-H torsion
[ 8008 7997 7996 7995 ] final  109.27 input   59.86 | X-H torsion
[ 10167 10162 10161 10158 ] final   51.60 input  -65.29 | X-H torsion
[ 10718 10713 10712 10709 ] final   24.48 input   66.30 | X-H torsion
[ 10763 10752 10751 10750 ] final  -39.41 input  -60.55 | X-H torsion
[ 11005 11000 10999 10996 ] final -151.99 input  -57.11 | X-H torsion

> <Gold.Protein.ActiveResidues>
 VAL166  LYS551  ARG553  GLY616  TRP617  ASP618  TYR619  PRO620  LYS621  CYS622 
 ASP623  PHE694  ASN695  SER759  ASP760  ASP761  ALA762  ILE779  LEU786  VAL792 
 PHE793  MET794  SER795  GLU796  ALA797  LYS798  CYS799  TRP800  GLU811  SER814 

> <Gold.Protein.RotatedAtoms>
  151.9605  133.3693  159.4033 H   0  0  0  0  0  0  0  0  0  0  0  0  # atno 6907 bound_to 6896
  150.6965  134.4246  159.5230 H   0  0  0  0  0  0  0  0  0  0  0  0  # atno 6908 bound_to 6896
  152.1934  134.8652  160.0566 H   0  0  0  0  0  0  0  0  0  0  0  0  # atno 6909 bound_to 6896
  146.0943  140.5865  142.8850 H   0  0  0  0  0  0  0  0  0  0  0  0  # atno 7974 bound_to 7965
  156.1967  140.3061  155.9441 H   0  0  0  0  0  0  0  0  0  0  0  0  # atno 8008 bound_to 7997
  155.3050  140.0448  157.3049 H   0  0  0  0  0  0  0  0  0  0  0  0  # atno 8009 bound_to 7997
  154.5518  140.2294  155.8482 H   0  0  0  0  0  0  0  0  0  0  0  0  # atno 8010 bound_to 7997
  140.2602  144.3381  150.6320 H   0  0  0  0  0  0  0  0  0  0  0  0  # atno 10167 bound_to 10162
  157.1803  130.6799  149.6110 H   0  0  0  0  0  0  0  0  0  0  0  0  # atno 10718 bound_to 10713
  153.9289  135.6774  153.4746 H   0  0  0  0  0  0  0  0  0  0  0  0  # atno 10763 bound_to 10752
  153.0990  135.4837  154.8828 H   0  0  0  0  0  0  0  0  0  0  0  0  # atno 10764 bound_to 10752
  154.7438  135.3167  154.8638 H   0  0  0  0  0  0  0  0  0  0  0  0  # atno 10765 bound_to 10752
  140.7236  134.3699  157.5179 H   0  0  0  0  0  0  0  0  0  0  0  0  # atno 11005 bound_to 11000
  144.7384  140.4873  143.6887 LP  0  0  0  0  0  0  0  0  0  0  0  0  # atno 17320 bound_to 7965
  145.5978  139.1501  143.3146 LP  0  0  0  0  0  0  0  0  0  0  0  0  # atno 17321 bound_to 7965
  140.5972  143.2167  151.7142 LP  0  0  0  0  0  0  0  0  0  0  0  0  # atno 17342 bound_to 10162
  139.5019  144.3849  152.0338 LP  0  0  0  0  0  0  0  0  0  0  0  0  # atno 17343 bound_to 10162
  155.9725  130.4649  150.6234 LP  0  0  0  0  0  0  0  0  0  0  0  0  # atno 17370 bound_to 10713
  157.3959  131.0802  151.1352 LP  0  0  0  0  0  0  0  0  0  0  0  0  # atno 17371 bound_to 10713
  139.8842  134.8972  156.2717 LP  0  0  0  0  0  0  0  0  0  0  0  0  # atno 17394 bound_to 11000
  140.9982  133.7167  156.0918 LP  0  0  0  0  0  0  0  0  0  0  0  0  # atno 17395 bound_to 11000

$$$$
