AV-unprocessed.smi:2467|AV-procd|sdf|9725|dock3
  -GOLD-   2272013363D 1   1.00000     0.00000
 Structure written by MMmdl.
 46 47  0  0  0  0  0  0  0  0  1 V2000
  152.7424  138.8729  154.5506 C   0  0  0  0  0  0  0  0  0  0  0  0
  151.2836  138.5156  154.8762 C   0  0  0  0  0  0  0  0  0  0  0  0
  150.2302  139.5004  154.3093 C   0  0  0  0  0  0  0  0  0  0  0  0
  150.1508  140.7904  155.1649 C   0  0  0  0  0  0  0  0  0  0  0  0
  148.9666  141.7084  154.8250 C   0  0  0  0  0  0  0  0  0  0  0  0
  148.8462  138.8189  154.1459 C   0  0  2  0  0  0  0  0  0  0  0  0
  147.9221  139.4820  153.0970 C   0  0  0  0  0  0  0  0  0  0  0  0
  146.5791  138.7412  152.9951 C   0  0  1  0  0  0  0  0  0  0  0  0
  146.7736  137.4424  152.3562 N   0  0  0  0  0  0  0  0  0  0  0  0
  145.8238  136.5318  152.0930 C   0  0  0  0  0  0  0  0  0  0  0  0
  144.6366  136.7128  152.3587 O   0  0  0  0  0  0  0  0  0  0  0  0
  146.2451  135.3847  151.5177 N   0  0  0  0  0  0  0  0  0  0  0  0
  145.5355  134.2172  151.1038 C   0  0  0  0  0  0  0  0  0  0  0  0
  146.3484  133.2119  150.5327 C   0  0  0  0  0  0  0  0  0  0  0  0
  145.7625  132.0113  150.0866 C   0  0  0  0  0  0  0  0  0  0  0  0
  144.3733  131.8433  150.2234 C   0  0  0  0  0  0  0  0  0  0  0  0
  143.6336  132.8904  150.8020 C   0  0  0  0  0  0  0  0  0  0  0  0
  144.1944  134.0415  151.2290 N   0  0  0  0  0  0  0  0  0  0  0  0
  145.9741  138.5937  154.4033 C   0  0  0  0  0  0  0  0  0  0  0  0
  146.9904  137.9934  155.3906 C   0  0  0  0  0  0  0  0  0  0  0  0
  148.1822  138.7730  155.4072 O   0  0  0  0  0  0  0  0  0  0  0  0
  153.4252  138.2240  155.0992 H   0  0  0  0  0  0  0  0  0  0  0  0
  152.9700  139.9020  154.8297 H   0  0  0  0  0  0  0  0  0  0  0  0
  152.9692  138.7500  153.4923 H   0  0  0  0  0  0  0  0  0  0  0  0
  151.0709  137.5030  154.5316 H   0  0  0  0  0  0  0  0  0  0  0  0
  151.2046  138.4808  155.9616 H   0  0  0  0  0  0  0  0  0  0  0  0
  150.5633  139.7911  153.3118 H   0  0  0  0  0  0  0  0  0  0  0  0
  150.0564  140.5364  156.2186 H   0  0  0  0  0  0  0  0  0  0  0  0
  151.0820  141.3513  155.0791 H   0  0  0  0  0  0  0  0  0  0  0  0
  148.9126  142.5387  155.5294 H   0  0  0  0  0  0  0  0  0  0  0  0
  148.0209  141.1686  154.8801 H   0  0  0  0  0  0  0  0  0  0  0  0
  149.0525  142.1396  153.8284 H   0  0  0  0  0  0  0  0  0  0  0  0
  149.0141  137.7952  153.8147 H   0  0  0  0  0  0  0  0  0  0  0  0
  147.7175  140.5168  153.3672 H   0  0  0  0  0  0  0  0  0  0  0  0
  148.4121  139.5108  152.1228 H   0  0  0  0  0  0  0  0  0  0  0  0
  145.9036  139.3307  152.3729 H   0  0  0  0  0  0  0  0  0  0  0  0
  147.7220  137.2049  152.1007 H   0  0  0  0  0  0  0  0  0  0  0  0
  147.2377  135.3520  151.3366 H   0  0  0  0  0  0  0  0  0  0  0  0
  147.4150  133.3547  150.4347 H   0  0  0  0  0  0  0  0  0  0  0  0
  146.3702  131.2336  149.6480 H   0  0  0  0  0  0  0  0  0  0  0  0
  143.8877  130.9365  149.8941 H   0  0  0  0  0  0  0  0  0  0  0  0
  142.5645  132.8020  150.9266 H   0  0  0  0  0  0  0  0  0  0  0  0
  145.6699  139.5766  154.7652 H   0  0  0  0  0  0  0  0  0  0  0  0
  145.0685  137.9867  154.3756 H   0  0  0  0  0  0  0  0  0  0  0  0
  146.5687  137.9777  156.3957 H   0  0  0  0  0  0  0  0  0  0  0  0
  147.2237  136.9595  155.1313 H   0  0  0  0  0  0  0  0  0  0  0  0
  1  2  1  0  0  0  0
  1 22  1  0  0  0  0
  1 23  1  0  0  0  0
  1 24  1  0  0  0  0
  2  3  1  0  0  0  0
  2 25  1  0  0  0  0
  2 26  1  0  0  0  0
  3  4  1  0  0  0  0
  3  6  1  0  0  0  0
  3 27  1  0  0  0  0
  4  5  1  0  0  0  0
  4 28  1  0  0  0  0
  4 29  1  0  0  0  0
  5 30  1  0  0  0  0
  5 31  1  0  0  0  0
  5 32  1  0  0  0  0
  6 21  1  0  0  0  0
  6  7  1  0  0  0  0
  6 33  1  0  0  0  0
  7  8  1  0  0  0  0
  7 34  1  0  0  0  0
  7 35  1  0  0  0  0
  8  9  1  0  0  0  0
  8 19  1  0  0  0  0
  8 36  1  0  0  0  0
  9 10  1  0  0  0  0
  9 37  1  0  0  0  0
 10 11  2  0  0  0  0
 10 12  1  0  0  0  0
 12 13  1  0  0  0  0
 12 38  1  0  0  0  0
 13 18  1  0  0  0  0
 13 14  2  0  0  0  0
 14 15  1  0  0  0  0
 14 39  1  0  0  0  0
 15 16  2  0  0  0  0
 15 40  1  0  0  0  0
 16 17  1  0  0  0  0
 16 41  1  0  0  0  0
 17 18  2  0  0  0  0
 17 42  1  0  0  0  0
 19 20  1  0  0  0  0
 19 43  1  0  0  0  0
 19 44  1  0  0  0  0
 20 21  1  0  0  0  0
 20 45  1  0  0  0  0
 20 46  1  0  0  0  0
M  END
> <s_m_source_file>
AV-unprocessed.smi

> <i_m_source_file_index>
2467

> <i_lp_mmshare_version>
43012

> <i_f3d_flags>
0

> <s_epik_input>
W0NIM11bQ0gyXVtDSF0oW0NIMl1bQ0gzXSlbQ0BASF0xW0NIMl1bQ0BIXShbQ0gyXVtDSDJdTzEpW05IXUMoPU8pW05IXWMyW2NIXVtjSF1bY0hdW2NIXW4y

> <s_epik_cmdline>
J2VwaWtfcHl0aG9uJywgJy1waCcsICc3LjAnLCAnLXRuJywgJzgnLCAnLW1hJywgJzIwMCcsICctbWV0YWxfYmluZGluZycsICctaW1hZScsICc8aW5maWxlLm1hZT4nLCAnLW9tYWUnLCAnPG91dGZpbGUubWFlPic=

> <r_lp_tautomer_probability>
1

> <r_epik_Ionization_Penalty>
4.80427e-05

> <r_epik_Ionization_Penalty_Charging>
0

> <r_epik_Ionization_Penalty_Neutral>
4.80427e-05

> <r_epik_State_Penalty>
-0

> <r_epik_Charging_Adjusted_Penalty>
0

> <i_epik_Tot_Q>
0

> <i_epik_Tot_abs_Q>
0

> <r_epik_Metal_State_Penalty>
-0

> <b_epik_Metal_Only>
0

> <s_lp_Force_Field>
OPLS_2005

> <r_lp_Energy>
18.1019

> <b_lp_Chiralities_Consistent>
1

> <s_lp_Variant>
AV-unprocessed.smi:2467-1

> <Gold.Version>
5.8.1

> <Gold.Id.Protein>
6NUR|6NUR_protein|mol2

> <Gold.PLP.Fitness>
43.6449

> <Gold.PLP.PLP>
-36.6263

> <Gold.PLP.part.hbond>
-1.9936

> <Gold.PLP.part.metal>
0.0000

> <Gold.PLP.part.buried>
0.9750

> <Gold.PLP.part.nonpolar>
-36.1262

> <Gold.PLP.part.repulsive>
0.5179

> <Gold.PLP.ligand.clash>
0.0000

> <Gold.PLP.ligand.torsion>
0.6446

> <Gold.PLP.Chemscore.Hbond>
1.8800

> <Gold.PLP.Chemscore.CHOScore>
0.8349

> <Gold.PLP.Chemscore.Metal>
0.0000

> <Gold.Chemscore.Hbonds>
donor molecule, donor type, donor heavy atom, donor atom, acceptor molecule, acceptor atom, score
      L1  H     9    37       P1  7948  1.00
      L1  H    12    38       P1  7948  0.86
      L1  C    17    42       P1 10186  0.59

> <Gold.PLP.Chemscore.Internal.Correction>
0.1630

> <Gold.Rescore>
     Score         DG    S(hbond)    S(metal)    S(lipo)     H(rot)  DE(clash)    DE(int)     intcor
     12.97     -18.82       1.83        0.00      94.20       1.49       1.62       4.23       ----

> <Gold.Chemscore.Fitness>
12.9733

> <Gold.Chemscore.DG>
-18.8249

> <Gold.Chemscore.ZeroCoef>
-5.4800

> <Gold.Chemscore.Hbond>
1.8344

> <Gold.Chemscore.Metal>
0.0000

> <Gold.Chemscore.Lipo>
94.1966

> <Gold.Chemscore.Internal_Hbond>
0.0000

> <Gold.Chemscore.DEClash>
1.6221

> <Gold.Chemscore.DEInternal>
4.2294

> <Gold.Chemscore.Rot>
1.4856

> <Gold.Chemscore.Internal.Correction>
   9.000000E+99

> <Gold.Chemscore.Hbonds>
donor molecule, donor type, donor heavy atom, donor atom, acceptor molecule, acceptor atom, score
      L1  H     9    37       P1  7948  0.95
      L1  H    12    38       P1  7948  0.72

> <Gold.Chemscore.Hbond.Weighted>
-6.1270

> <Gold.Chemscore.Metal.Weighted>
-0.0000

> <Gold.Chemscore.Lipo.Weighted>
-11.0210

> <Gold.Chemscore.Internal_Hbond.Weighted>
0.0000

> <Gold.Chemscore.DEClash.Weighted>
1.6221

> <Gold.Chemscore.DEInternal.Weighted>
4.2294

> <Gold.Chemscore.Rot.Weighted>
3.8031

> <Gold.Chemscore.Internal.Correction.Weighted>
   9.000000E+99

> <Gold.Protein.RotatedTorsions>
[ 6907 6896 6895 6894 ] final   87.22 input  -60.11 | X-H torsion
[ 7974 7965 7964 7962 ] final  154.02 input  175.53 | X-H torsion
[ 8008 7997 7996 7995 ] final  128.48 input   59.86 | X-H torsion
[ 10167 10162 10161 10158 ] final  -61.40 input  -65.29 | X-H torsion
[ 10718 10713 10712 10709 ] final -132.82 input   66.30 | X-H torsion
[ 10763 10752 10751 10750 ] final   27.69 input  -60.55 | X-H torsion
[ 11005 11000 10999 10996 ] final  -93.91 input  -57.11 | X-H torsion

> <Gold.Protein.ActiveResidues>
 VAL166  LYS551  ARG553  GLY616  TRP617  ASP618  TYR619  PRO620  LYS621  CYS622 
 ASP623  PHE694  ASN695  SER759  ASP760  ASP761  ALA762  ILE779  LEU786  VAL792 
 PHE793  MET794  SER795  GLU796  ALA797  LYS798  CYS799  TRP800  GLU811  SER814 

> <Gold.Protein.RotatedAtoms>
  152.5407  134.2310  159.8824 H   0  0  0  0  0  0  0  0  0  0  0  0  # atno 6907 bound_to 6896
  151.2282  133.4458  159.2610 H   0  0  0  0  0  0  0  0  0  0  0  0  # atno 6908 bound_to 6896
  151.0740  134.9830  159.8379 H   0  0  0  0  0  0  0  0  0  0  0  0  # atno 6909 bound_to 6896
  144.8116  139.6878  143.6139 H   0  0  0  0  0  0  0  0  0  0  0  0  # atno 7974 bound_to 7965
  156.2916  140.2643  156.2443 H   0  0  0  0  0  0  0  0  0  0  0  0  # atno 8008 bound_to 7997
  154.9946  140.0388  157.2352 H   0  0  0  0  0  0  0  0  0  0  0  0  # atno 8009 bound_to 7997
  154.7656  140.2768  155.6184 H   0  0  0  0  0  0  0  0  0  0  0  0  # atno 8010 bound_to 7997
  140.6008  143.2361  151.5933 H   0  0  0  0  0  0  0  0  0  0  0  0  # atno 10167 bound_to 10162
  156.2385  130.7081  151.0932 H   0  0  0  0  0  0  0  0  0  0  0  0  # atno 10718 bound_to 10713
  153.0539  135.6531  154.0625 H   0  0  0  0  0  0  0  0  0  0  0  0  # atno 10763 bound_to 10752
  154.0307  135.2912  155.3370 H   0  0  0  0  0  0  0  0  0  0  0  0  # atno 10764 bound_to 10752
  154.6844  135.5307  153.8373 H   0  0  0  0  0  0  0  0  0  0  0  0  # atno 10765 bound_to 10752
  141.1485  133.7920  157.0225 H   0  0  0  0  0  0  0  0  0  0  0  0  # atno 11005 bound_to 11000
  146.2415  139.6011  142.9488 LP  0  0  0  0  0  0  0  0  0  0  0  0  # atno 17320 bound_to 7965
  145.5310  141.0427  143.2383 LP  0  0  0  0  0  0  0  0  0  0  0  0  # atno 17321 bound_to 7965
  139.5290  144.2973  152.1103 LP  0  0  0  0  0  0  0  0  0  0  0  0  # atno 17342 bound_to 10162
  140.2154  144.4521  150.6366 LP  0  0  0  0  0  0  0  0  0  0  0  0  # atno 17343 bound_to 10162
  157.7165  131.0707  150.6307 LP  0  0  0  0  0  0  0  0  0  0  0  0  # atno 17370 bound_to 10713
  156.6379  130.4450  149.5763 LP  0  0  0  0  0  0  0  0  0  0  0  0  # atno 17371 bound_to 10713
  140.0806  134.9650  157.1618 LP  0  0  0  0  0  0  0  0  0  0  0  0  # atno 17394 bound_to 11000
  140.3582  134.2524  155.7190 LP  0  0  0  0  0  0  0  0  0  0  0  0  # atno 17395 bound_to 11000

$$$$
