AV-unprocessed.smi:609|AV-procd|sdf|3047|dock1
  -GOLD-   2262023563D 1   1.00000     0.00000
 Structure written by MMmdl.
 42 44  0  0  0  0  0  0  0  0  1 V2000
  153.0490  143.0517  161.4695 C   0  0  0  0  0  0  0  0  0  0  0  0
  152.5429  142.6984  160.0820 C   0  0  0  0  0  0  0  0  0  0  0  0
  152.8604  141.4343  159.5360 C   0  0  0  0  0  0  0  0  0  0  0  0
  152.4064  141.0657  158.2506 C   0  0  0  0  0  0  0  0  0  0  0  0
  152.5940  139.8975  157.5320 N   0  0  0  0  0  0  0  0  0  0  0  0
  151.9271  140.1623  156.4120 C   0  0  0  0  0  0  0  0  0  0  0  0
  151.3301  141.3663  156.3200 N   0  0  0  0  0  0  0  0  0  0  0  0
  150.5533  141.8782  155.2054 C   0  0  0  0  0  0  0  0  0  0  0  0
  149.3085  141.0196  154.9116 C   0  0  2  0  0  0  0  0  0  0  0  0
  149.6650  139.9427  154.0655 O   0  0  0  0  0  0  0  0  0  0  0  0
  148.1913  141.8377  154.2451 C   0  0  0  0  0  0  0  0  0  0  0  0
  146.5723  141.0178  154.3780 S   0  0  0  0  0  0  0  0  0  0  0  0
  145.6605  142.2739  155.2256 C   0  0  0  0  0  0  0  0  0  0  0  0
  145.2202  142.1889  156.4789 N   0  0  0  0  0  0  0  0  0  0  0  0
  144.5675  143.3935  156.7161 C   0  0  0  0  0  0  0  0  0  0  0  0
  144.6344  144.1753  155.5891 C   0  0  0  0  0  0  0  0  0  0  0  0
  145.3389  143.4441  154.6418 N   0  0  0  0  0  0  0  0  0  0  0  0
  145.6543  143.8752  153.2938 C   0  0  0  0  0  0  0  0  0  0  0  0
  151.6215  142.0048  157.5200 C   0  0  0  0  0  0  0  0  0  0  0  0
  151.3001  143.2661  158.0515 C   0  0  0  0  0  0  0  0  0  0  0  0
  151.7600  143.6174  159.3380 C   0  0  0  0  0  0  0  0  0  0  0  0
  151.4037  144.9801  159.9054 C   0  0  0  0  0  0  0  0  0  0  0  0
  153.6605  142.2509  161.8863 H   0  0  0  0  0  0  0  0  0  0  0  0
  152.2128  143.2226  162.1478 H   0  0  0  0  0  0  0  0  0  0  0  0
  153.6595  143.9544  161.4371 H   0  0  0  0  0  0  0  0  0  0  0  0
  153.4560  140.7335  160.1025 H   0  0  0  0  0  0  0  0  0  0  0  0
  151.8661  139.4387  155.6122 H   0  0  0  0  0  0  0  0  0  0  0  0
  150.2586  142.9016  155.4407 H   0  0  0  0  0  0  0  0  0  0  0  0
  151.1962  141.9329  154.3256 H   0  0  0  0  0  0  0  0  0  0  0  0
  148.9341  140.6038  155.8479 H   0  0  0  0  0  0  0  0  0  0  0  0
  149.4069  140.1592  153.1825 H   0  0  0  0  0  0  0  0  0  0  0  0
  148.1179  142.8143  154.7249 H   0  0  0  0  0  0  0  0  0  0  0  0
  148.4263  142.0116  153.1941 H   0  0  0  0  0  0  0  0  0  0  0  0
  144.1053  143.6017  157.6698 H   0  0  0  0  0  0  0  0  0  0  0  0
  144.2499  145.1645  155.3883 H   0  0  0  0  0  0  0  0  0  0  0  0
  145.2566  144.8747  153.1147 H   0  0  0  0  0  0  0  0  0  0  0  0
  145.2133  143.1858  152.5732 H   0  0  0  0  0  0  0  0  0  0  0  0
  146.7357  143.8958  153.1563 H   0  0  0  0  0  0  0  0  0  0  0  0
  150.7023  143.9554  157.4736 H   0  0  0  0  0  0  0  0  0  0  0  0
  150.8063  145.5608  159.2016 H   0  0  0  0  0  0  0  0  0  0  0  0
  152.3062  145.5504  160.1270 H   0  0  0  0  0  0  0  0  0  0  0  0
  150.8270  144.8713  160.8242 H   0  0  0  0  0  0  0  0  0  0  0  0
  1  2  1  0  0  0  0
  1 23  1  0  0  0  0
  1 24  1  0  0  0  0
  1 25  1  0  0  0  0
  2 21  1  0  0  0  0
  2  3  2  0  0  0  0
  3  4  1  0  0  0  0
  3 26  1  0  0  0  0
  4 19  2  0  0  0  0
  4  5  1  0  0  0  0
  5  6  2  0  0  0  0
  6  7  1  0  0  0  0
  6 27  1  0  0  0  0
  7  8  1  0  0  0  0
  7 19  1  0  0  0  0
  8  9  1  0  0  0  0
  8 28  1  0  0  0  0
  8 29  1  0  0  0  0
  9 10  1  0  0  0  0
  9 11  1  0  0  0  0
  9 30  1  0  0  0  0
 10 31  1  0  0  0  0
 11 12  1  0  0  0  0
 11 32  1  0  0  0  0
 11 33  1  0  0  0  0
 12 13  1  0  0  0  0
 13 17  1  0  0  0  0
 13 14  2  0  0  0  0
 14 15  1  0  0  0  0
 15 16  2  0  0  0  0
 15 34  1  0  0  0  0
 16 17  1  0  0  0  0
 16 35  1  0  0  0  0
 17 18  1  0  0  0  0
 18 36  1  0  0  0  0
 18 37  1  0  0  0  0
 18 38  1  0  0  0  0
 19 20  1  0  0  0  0
 20 21  2  0  0  0  0
 20 39  1  0  0  0  0
 21 22  1  0  0  0  0
 22 40  1  0  0  0  0
 22 41  1  0  0  0  0
 22 42  1  0  0  0  0
M  END
> <s_m_source_file>
AV-unprocessed.smi

> <i_m_source_file_index>
609

> <i_lp_mmshare_version>
43012

> <i_f3d_flags>
0

> <s_epik_input>
W0NIM11jKFtjSF0xKWMoW0NIM10pW2NIXWMoYzEyKW4oW2NIXW4yKVtDSDJdW0NASF0oW09IXSlbQ0gyXVNjM25bY0hdW2NIXW4zW0NIM10=

> <s_epik_cmdline>
J2VwaWtfcHl0aG9uJywgJy1waCcsICc3LjAnLCAnLXRuJywgJzgnLCAnLW1hJywgJzIwMCcsICctbWV0YWxfYmluZGluZycsICctaW1hZScsICc8aW5maWxlLm1hZT4nLCAnLW9tYWUnLCAnPG91dGZpbGUubWFlPic=

> <r_lp_tautomer_probability>
1

> <r_epik_Ionization_Penalty>
1.15618

> <r_epik_Ionization_Penalty_Charging>
1.04908

> <r_epik_Ionization_Penalty_Neutral>
0.107097

> <r_epik_State_Penalty>
1.19446

> <r_epik_Charging_Adjusted_Penalty>
2.24354

> <i_epik_Tot_Q>
0

> <i_epik_Tot_abs_Q>
0

> <r_epik_Metal_State_Penalty>
0.487262

> <b_epik_Metal_Only>
0

> <s_lp_Force_Field>
OPLS_2005

> <r_lp_Energy>
8.2554

> <b_lp_Chiralities_Consistent>
1

> <s_lp_Variant>
AV-unprocessed.smi:609-3

> <Gold.Version>
5.8.1

> <Gold.Id.Protein>
6NUR|6NUR_protein|mol2

> <Gold.PLP.Fitness>
50.7167

> <Gold.PLP.PLP>
-46.3501

> <Gold.PLP.part.hbond>
-2.7928

> <Gold.PLP.part.metal>
0.0000

> <Gold.PLP.part.buried>
-4.6253

> <Gold.PLP.part.nonpolar>
-37.9395

> <Gold.PLP.part.repulsive>
0.0529

> <Gold.PLP.ligand.clash>
0.0000

> <Gold.PLP.ligand.torsion>
0.8904

> <Gold.PLP.Chemscore.Hbond>
2.0255

> <Gold.PLP.Chemscore.CHOScore>
0.0000

> <Gold.PLP.Chemscore.Metal>
0.0000

> <Gold.Chemscore.Hbonds>
donor molecule, donor type, donor heavy atom, donor atom, acceptor molecule, acceptor atom, score
      L1  H    10    31       P1  7957  0.99
      P1  H  7989  7998       L1    10  0.06
      P1  H  7997  8009       L1     5  1.00

> <Gold.PLP.Chemscore.Internal.Correction>
0.0707

> <Gold.Rescore>
     Score         DG    S(hbond)    S(metal)    S(lipo)     H(rot)  DE(clash)    DE(int)     intcor
     14.65     -18.22       1.29        0.00     124.77       2.41       2.68       0.89       ----

> <Gold.Chemscore.Fitness>
14.6465

> <Gold.Chemscore.DG>
-18.2187

> <Gold.Chemscore.ZeroCoef>
-5.4800

> <Gold.Chemscore.Hbond>
1.2885

> <Gold.Chemscore.Metal>
0.0000

> <Gold.Chemscore.Lipo>
124.7696

> <Gold.Chemscore.Internal_Hbond>
0.0000

> <Gold.Chemscore.DEClash>
2.6812

> <Gold.Chemscore.DEInternal>
0.8910

> <Gold.Chemscore.Rot>
2.4074

> <Gold.Chemscore.Internal.Correction>
   9.000000E+99

> <Gold.Chemscore.Hbonds>
donor molecule, donor type, donor heavy atom, donor atom, acceptor molecule, acceptor atom, score
      L1  H    10    31       P1  7957  0.89
      P1  H  7997  8009       L1     5  0.11

> <Gold.Chemscore.Hbond.Weighted>
-4.3037

> <Gold.Chemscore.Metal.Weighted>
-0.0000

> <Gold.Chemscore.Lipo.Weighted>
-14.5980

> <Gold.Chemscore.Internal_Hbond.Weighted>
0.0000

> <Gold.Chemscore.DEClash.Weighted>
2.6812

> <Gold.Chemscore.DEInternal.Weighted>
0.8910

> <Gold.Chemscore.Rot.Weighted>
6.1630

> <Gold.Chemscore.Internal.Correction.Weighted>
   9.000000E+99

> <Gold.Protein.RotatedTorsions>
[ 6907 6896 6895 6894 ] final    2.82 input  -60.11 | X-H torsion
[ 7974 7965 7964 7962 ] final  -23.60 input  175.53 | X-H torsion
[ 8008 7997 7996 7995 ] final  163.00 input   59.86 | X-H torsion
[ 10167 10162 10161 10158 ] final -155.78 input  -65.29 | X-H torsion
[ 10718 10713 10712 10709 ] final -115.78 input   66.30 | X-H torsion
[ 10763 10752 10751 10750 ] final  103.87 input  -60.55 | X-H torsion
[ 11005 11000 10999 10996 ] final   97.92 input  -57.11 | X-H torsion

> <Gold.Protein.ActiveResidues>
 VAL166  LYS551  ARG553  GLY616  TRP617  ASP618  TYR619  PRO620  LYS621  CYS622 
 ASP623  PHE694  ASN695  SER759  ASP760  ASP761  ALA762  ILE779  LEU786  VAL792 
 PHE793  MET794  SER795  GLU796  ALA797  LYS798  CYS799  TRP800  GLU811  SER814 

> <Gold.Protein.RotatedAtoms>
  151.6151  135.1037  160.0089 H   0  0  0  0  0  0  0  0  0  0  0  0  # atno 6907 bound_to 6896
  152.4188  133.7077  159.6471 H   0  0  0  0  0  0  0  0  0  0  0  0  # atno 6908 bound_to 6896
  150.8075  133.8409  159.3220 H   0  0  0  0  0  0  0  0  0  0  0  0  # atno 6909 bound_to 6896
  146.1606  140.4638  142.8573 H   0  0  0  0  0  0  0  0  0  0  0  0  # atno 7974 bound_to 7965
  156.1990  140.1735  156.7939 H   0  0  0  0  0  0  0  0  0  0  0  0  # atno 8008 bound_to 7997
  154.5567  140.0707  156.8785 H   0  0  0  0  0  0  0  0  0  0  0  0  # atno 8009 bound_to 7997
  155.2926  140.3356  155.4254 H   0  0  0  0  0  0  0  0  0  0  0  0  # atno 8010 bound_to 7997
  139.6903  143.9432  152.2381 H   0  0  0  0  0  0  0  0  0  0  0  0  # atno 10167 bound_to 10162
  156.0919  130.6099  150.8950 H   0  0  0  0  0  0  0  0  0  0  0  0  # atno 10718 bound_to 10713
  153.3584  135.3962  155.1700 H   0  0  0  0  0  0  0  0  0  0  0  0  # atno 10763 bound_to 10752
  154.8675  135.3673  154.5131 H   0  0  0  0  0  0  0  0  0  0  0  0  # atno 10764 bound_to 10752
  153.5588  135.7081  153.5617 H   0  0  0  0  0  0  0  0  0  0  0  0  # atno 10765 bound_to 10752
  139.8774  134.9024  156.4379 H   0  0  0  0  0  0  0  0  0  0  0  0  # atno 11005 bound_to 11000
  144.8022  140.6234  143.6470 LP  0  0  0  0  0  0  0  0  0  0  0  0  # atno 17320 bound_to 7965
  145.4597  139.1514  143.3873 LP  0  0  0  0  0  0  0  0  0  0  0  0  # atno 17321 bound_to 7965
  139.9246  144.6779  150.8426 LP  0  0  0  0  0  0  0  0  0  0  0  0  # atno 17342 bound_to 10162
  140.7680  143.3351  151.2327 LP  0  0  0  0  0  0  0  0  0  0  0  0  # atno 17343 bound_to 10162
  157.6070  131.0938  150.8862 LP  0  0  0  0  0  0  0  0  0  0  0  0  # atno 17370 bound_to 10713
  156.9009  130.5246  149.5283 LP  0  0  0  0  0  0  0  0  0  0  0  0  # atno 17371 bound_to 10713
  140.9020  133.7772  155.9692 LP  0  0  0  0  0  0  0  0  0  0  0  0  # atno 17394 bound_to 11000
  140.8640  134.2806  157.5221 LP  0  0  0  0  0  0  0  0  0  0  0  0  # atno 17395 bound_to 11000

$$$$
