AV-unprocessed.smi:3292|AV-procd|sdf|12625|dock6
  -GOLD-   2272018563D 1   1.00000     0.00000
 Structure written by MMmdl.
 38 39  0  0  0  0  0  0  0  0  1 V2000
  147.6926  131.8588  154.4529 C   0  0  0  0  0  0  0  0  0  0  0  0
  146.9848  133.0536  153.7997 C   0  0  2  0  0  0  0  0  0  0  0  0
  146.5161  132.7146  152.3688 C   0  0  0  0  0  0  0  0  0  0  0  0
  145.5277  133.6505  151.8642 N   0  0  0  0  0  0  0  0  0  0  0  0
  145.6293  135.0348  151.8200 C   0  0  0  0  0  0  0  0  0  0  0  0
  144.4606  135.4971  151.2584 C   0  0  0  0  0  0  0  0  0  0  0  0
  143.6264  134.4222  150.9604 N   0  0  0  0  0  0  0  0  0  0  0  0
  144.3245  133.3631  151.3487 C   0  0  0  0  0  0  0  0  0  0  0  0
  147.8945  134.1991  153.7937 N   0  0  0  0  0  0  0  0  0  0  0  0
  148.6098  134.6323  154.8422 C   0  0  0  0  0  0  0  0  0  0  0  0
  148.5965  134.1039  155.9540 O   0  0  0  0  0  0  0  0  0  0  0  0
  149.3278  135.7222  154.5371 N   0  0  0  0  0  0  0  0  0  0  0  0
  150.1741  136.4611  155.4689 C   0  0  0  0  0  0  0  0  0  0  0  0
  151.0357  137.5129  154.7453 C   0  0  2  0  0  0  0  0  0  0  0  0
  152.0311  138.2142  155.6463 C   0  0  0  0  0  0  0  0  0  0  0  0
  152.3863  139.4472  154.8215 C   0  0  0  0  0  0  0  0  0  0  0  0
  151.2112  139.7719  154.0848 O   0  0  0  0  0  0  0  0  0  0  0  0
  150.2684  138.7076  154.1737 C   0  0  0  0  0  0  0  0  0  0  0  0
  147.0324  130.9927  154.5040 H   0  0  0  0  0  0  0  0  0  0  0  0
  148.0033  132.0947  155.4714 H   0  0  0  0  0  0  0  0  0  0  0  0
  148.5811  131.5668  153.8921 H   0  0  0  0  0  0  0  0  0  0  0  0
  146.1088  133.2796  154.4108 H   0  0  0  0  0  0  0  0  0  0  0  0
  147.3641  132.6906  151.6826 H   0  0  0  0  0  0  0  0  0  0  0  0
  146.0701  131.7196  152.3470 H   0  0  0  0  0  0  0  0  0  0  0  0
  146.5034  135.5607  152.1747 H   0  0  0  0  0  0  0  0  0  0  0  0
  144.1575  136.5124  151.0494 H   0  0  0  0  0  0  0  0  0  0  0  0
  143.9543  132.3531  151.2483 H   0  0  0  0  0  0  0  0  0  0  0  0
  147.9752  134.7069  152.9250 H   0  0  0  0  0  0  0  0  0  0  0  0
  149.2711  136.0799  153.5949 H   0  0  0  0  0  0  0  0  0  0  0  0
  149.5765  136.9275  156.2542 H   0  0  0  0  0  0  0  0  0  0  0  0
  150.8231  135.7421  155.9691 H   0  0  0  0  0  0  0  0  0  0  0  0
  151.5860  137.0324  153.9343 H   0  0  0  0  0  0  0  0  0  0  0  0
  151.5544  138.5149  156.5807 H   0  0  0  0  0  0  0  0  0  0  0  0
  152.8996  137.6006  155.8875 H   0  0  0  0  0  0  0  0  0  0  0  0
  152.7139  140.2828  155.4402 H   0  0  0  0  0  0  0  0  0  0  0  0
  153.1847  139.2149  154.1155 H   0  0  0  0  0  0  0  0  0  0  0  0
  149.8267  138.4897  153.2015 H   0  0  0  0  0  0  0  0  0  0  0  0
  149.4675  139.0146  154.8478 H   0  0  0  0  0  0  0  0  0  0  0  0
  1  2  1  0  0  0  0
  1 19  1  0  0  0  0
  1 20  1  0  0  0  0
  1 21  1  0  0  0  0
  2  3  1  0  0  0  0
  2  9  1  0  0  0  0
  2 22  1  0  0  0  0
  3  4  1  0  0  0  0
  3 23  1  0  0  0  0
  3 24  1  0  0  0  0
  4  8  1  0  0  0  0
  4  5  1  0  0  0  0
  5  6  2  0  0  0  0
  5 25  1  0  0  0  0
  6  7  1  0  0  0  0
  6 26  1  0  0  0  0
  7  8  2  0  0  0  0
  8 27  1  0  0  0  0
  9 10  1  0  0  0  0
  9 28  1  0  0  0  0
 10 11  2  0  0  0  0
 10 12  1  0  0  0  0
 12 13  1  0  0  0  0
 12 29  1  0  0  0  0
 13 14  1  0  0  0  0
 13 30  1  0  0  0  0
 13 31  1  0  0  0  0
 14 18  1  0  0  0  0
 14 15  1  0  0  0  0
 14 32  1  0  0  0  0
 15 16  1  0  0  0  0
 15 33  1  0  0  0  0
 15 34  1  0  0  0  0
 16 17  1  0  0  0  0
 16 35  1  0  0  0  0
 16 36  1  0  0  0  0
 17 18  1  0  0  0  0
 18 37  1  0  0  0  0
 18 38  1  0  0  0  0
M  END
> <s_m_source_file>
AV-unprocessed.smi

> <i_m_source_file_index>
3292

> <i_lp_mmshare_version>
43012

> <i_f3d_flags>
0

> <s_epik_input>
W2NIXTFuW2NIXVtjSF1uMVtDSDJdW0NAQEhdKFtDSDNdKVtOSF1DKD1PKVtOSF1bQ0gyXVtDQEBIXTJbQ0gyXVtDSDJdT1tDSDJdMg==

> <s_epik_cmdline>
J2VwaWtfcHl0aG9uJywgJy1waCcsICc3LjAnLCAnLXRuJywgJzgnLCAnLW1hJywgJzIwMCcsICctbWV0YWxfYmluZGluZycsICctaW1hZScsICc8aW5maWxlLm1hZT4nLCAnLW9tYWUnLCAnPG91dGZpbGUubWFlPic=

> <r_lp_tautomer_probability>
1

> <r_epik_Ionization_Penalty>
0.621291

> <r_epik_Ionization_Penalty_Charging>
0.621234

> <r_epik_Ionization_Penalty_Neutral>
5.72199e-05

> <r_epik_State_Penalty>
0.637278

> <r_epik_Charging_Adjusted_Penalty>
1.25851

> <i_epik_Tot_Q>
0

> <i_epik_Tot_abs_Q>
0

> <r_epik_Metal_State_Penalty>
0.306757

> <b_epik_Metal_Only>
0

> <s_lp_Force_Field>
OPLS_2005

> <r_lp_Energy>
18.0177

> <b_lp_Chiralities_Consistent>
1

> <s_lp_Variant>
AV-unprocessed.smi:3292-5

> <Gold.Version>
5.8.1

> <Gold.Id.Protein>
6NUR|6NUR_protein|mol2

> <Gold.PLP.Fitness>
45.8252

> <Gold.PLP.PLP>
-31.4891

> <Gold.PLP.part.hbond>
-3.1135

> <Gold.PLP.part.metal>
0.0000

> <Gold.PLP.part.buried>
-1.4915

> <Gold.PLP.part.nonpolar>
-26.9844

> <Gold.PLP.part.repulsive>
0.3594

> <Gold.PLP.ligand.clash>
0.0000

> <Gold.PLP.ligand.torsion>
0.3563

> <Gold.PLP.Chemscore.Hbond>
3.0000

> <Gold.PLP.Chemscore.CHOScore>
2.0000

> <Gold.PLP.Chemscore.Metal>
0.0000

> <Gold.Chemscore.Hbonds>
donor molecule, donor type, donor heavy atom, donor atom, acceptor molecule, acceptor atom, score
      L1  H     9    28       P1  7948  0.86
      L1  H    12    29       P1  7948  1.00
      P1  H  7989  7998       L1    17  0.42
      L1  C     5    25       P1  7948  0.99
      L1  C     6    26       P1 10171  1.00

> <Gold.PLP.Chemscore.Internal.Correction>
0.0487

> <Gold.Rescore>
     Score         DG    S(hbond)    S(metal)    S(lipo)     H(rot)  DE(clash)    DE(int)     intcor
     13.44     -14.14       2.48        0.00      50.51       2.16       0.32       0.39       ----

> <Gold.Chemscore.Fitness>
13.4356

> <Gold.Chemscore.DG>
-14.1432

> <Gold.Chemscore.ZeroCoef>
-5.4800

> <Gold.Chemscore.Hbond>
2.4782

> <Gold.Chemscore.Metal>
0.0000

> <Gold.Chemscore.Lipo>
50.5113

> <Gold.Chemscore.Internal_Hbond>
0.0000

> <Gold.Chemscore.DEClash>
0.3155

> <Gold.Chemscore.DEInternal>
0.3922

> <Gold.Chemscore.Rot>
2.1577

> <Gold.Chemscore.Internal.Correction>
   9.000000E+99

> <Gold.Chemscore.Hbonds>
donor molecule, donor type, donor heavy atom, donor atom, acceptor molecule, acceptor atom, score
      L1  H     9    28       P1  7948  0.68
      L1  H    12    29       P1  7948  0.78
      P1  H  7989  7998       L1    17  0.09

> <Gold.Chemscore.Hbond.Weighted>
-8.2771

> <Gold.Chemscore.Metal.Weighted>
-0.0000

> <Gold.Chemscore.Lipo.Weighted>
-5.9098

> <Gold.Chemscore.Internal_Hbond.Weighted>
0.0000

> <Gold.Chemscore.DEClash.Weighted>
0.3155

> <Gold.Chemscore.DEInternal.Weighted>
0.3922

> <Gold.Chemscore.Rot.Weighted>
5.5237

> <Gold.Chemscore.Internal.Correction.Weighted>
   9.000000E+99

> <Gold.Protein.RotatedTorsions>
[ 6907 6896 6895 6894 ] final   52.46 input  -60.11 | X-H torsion
[ 7974 7965 7964 7962 ] final   53.50 input  175.53 | X-H torsion
[ 8008 7997 7996 7995 ] final -102.00 input   59.86 | X-H torsion
[ 10167 10162 10161 10158 ] final -160.75 input  -65.29 | X-H torsion
[ 10718 10713 10712 10709 ] final  -14.04 input   66.30 | X-H torsion
[ 10763 10752 10751 10750 ] final  125.71 input  -60.55 | X-H torsion
[ 11005 11000 10999 10996 ] final  -88.96 input  -57.11 | X-H torsion

> <Gold.Protein.ActiveResidues>
 VAL166  LYS551  ARG553  GLY616  TRP617  ASP618  TYR619  PRO620  LYS621  CYS622 
 ASP623  PHE694  ASN695  SER759  ASP760  ASP761  ALA762  ILE779  LEU786  VAL792 
 PHE793  MET794  SER795  GLU796  ALA797  LYS798  CYS799  TRP800  GLU811  SER814 

> <Gold.Protein.RotatedAtoms>
  152.3235  134.7351  160.0307 H   0  0  0  0  0  0  0  0  0  0  0  0  # atno 6907 bound_to 6896
  151.7791  133.3343  159.3474 H   0  0  0  0  0  0  0  0  0  0  0  0  # atno 6908 bound_to 6896
  150.7382  134.5878  159.6016 H   0  0  0  0  0  0  0  0  0  0  0  0  # atno 6909 bound_to 6896
  145.9706  139.4145  143.0193 H   0  0  0  0  0  0  0  0  0  0  0  0  # atno 7974 bound_to 7965
  154.8505  140.0431  157.1600 H   0  0  0  0  0  0  0  0  0  0  0  0  # atno 8008 bound_to 7997
  154.8948  140.2992  155.5330 H   0  0  0  0  0  0  0  0  0  0  0  0  # atno 8009 bound_to 7997
  156.2996  140.2387  156.3969 H   0  0  0  0  0  0  0  0  0  0  0  0  # atno 8010 bound_to 7997
  139.6516  144.0073  152.2165 H   0  0  0  0  0  0  0  0  0  0  0  0  # atno 10167 bound_to 10162
  156.6216  130.4877  149.6162 H   0  0  0  0  0  0  0  0  0  0  0  0  # atno 10718 bound_to 10713
  153.6817  135.3313  155.3180 H   0  0  0  0  0  0  0  0  0  0  0  0  # atno 10763 bound_to 10752
  154.8464  135.4410  154.1599 H   0  0  0  0  0  0  0  0  0  0  0  0  # atno 10764 bound_to 10752
  153.2617  135.6992  153.7648 H   0  0  0  0  0  0  0  0  0  0  0  0  # atno 10765 bound_to 10752
  141.1593  133.7601  156.9526 H   0  0  0  0  0  0  0  0  0  0  0  0  # atno 11005 bound_to 11000
  145.7912  140.9813  143.1048 LP  0  0  0  0  0  0  0  0  0  0  0  0  # atno 17320 bound_to 7965
  144.6836  139.9685  143.7481 LP  0  0  0  0  0  0  0  0  0  0  0  0  # atno 17321 bound_to 7965
  139.9789  144.6442  150.7919 LP  0  0  0  0  0  0  0  0  0  0  0  0  # atno 17342 bound_to 10162
  140.7540  143.3019  151.3058 LP  0  0  0  0  0  0  0  0  0  0  0  0  # atno 17343 bound_to 10162
  156.2307  130.6793  151.1461 LP  0  0  0  0  0  0  0  0  0  0  0  0  # atno 17370 bound_to 10713
  157.7226  131.0671  150.6071 LP  0  0  0  0  0  0  0  0  0  0  0  0  # atno 17371 bound_to 10713
  140.1247  134.9394  157.2253 LP  0  0  0  0  0  0  0  0  0  0  0  0  # atno 17394 bound_to 11000
  140.3028  134.3112  155.7285 LP  0  0  0  0  0  0  0  0  0  0  0  0  # atno 17395 bound_to 11000

$$$$
