AV-unprocessed.smi:1971|AV-procd|sdf|7970|dock1
  -GOLD-   2272010143D 1   1.00000     0.00000
 Structure written by MMmdl.
 43 44  0  0  0  0  0  0  0  0  3 V2000
  151.5208  141.1274  156.5382 C   0  0  0  0  0  0  0  0  0  0  0  0
  151.7722  139.7070  156.0114 C   0  0  0  0  0  0  0  0  0  0  0  0
  151.2851  139.5357  154.6406 N   0  0  0  0  0  0  0  0  0  0  0  0
  151.8032  138.3206  154.0120 C   0  0  0  0  0  0  0  0  0  0  0  0
  151.1918  137.0398  154.6187 C   0  0  0  0  0  0  0  0  0  0  0  0
  149.7078  137.0464  154.5042 N   0  3  0  0  0  0  0  0  0  0  0  0
  149.0283  135.8125  155.0173 C   0  0  2  0  0  0  0  0  0  0  0  0
  147.4903  135.9467  155.0638 C   0  0  0  0  0  0  0  0  0  0  0  0
  149.5666  135.3903  156.4105 C   0  0  0  0  0  0  0  0  0  0  0  0
  148.9669  136.1535  157.5034 N   0  0  0  0  0  0  0  0  0  0  0  0
  148.5737  135.6695  158.6888 C   0  0  0  0  0  0  0  0  0  0  0  0
  148.7656  134.4838  158.9662 O   0  0  0  0  0  0  0  0  0  0  0  0
  147.9684  136.5905  159.4709 N   0  5  0  0  0  0  0  0  0  0  0  0
  147.8072  136.3539  160.7831 C   0  0  0  0  0  0  0  0  0  0  0  0
  147.9769  137.2940  161.7195 N   0  0  0  0  0  0  0  0  0  0  0  0
  147.7541  136.8307  163.0176 C   0  0  0  0  0  0  0  0  0  0  0  0
  147.3982  135.5090  163.0697 C   0  0  0  0  0  0  0  0  0  0  0  0
  147.3299  134.8030  161.4802 S   0  0  0  0  0  0  0  0  0  0  0  0
  149.1691  138.2952  155.1085 C   0  0  0  0  0  0  0  0  0  0  0  0
  149.8277  139.5448  154.4896 C   0  0  0  0  0  0  0  0  0  0  0  0
  152.0090  141.2665  157.5030 H   0  0  0  0  0  0  0  0  0  0  0  0
  150.4599  141.3288  156.6837 H   0  0  0  0  0  0  0  0  0  0  0  0
  151.9195  141.8792  155.8564 H   0  0  0  0  0  0  0  0  0  0  0  0
  152.8490  139.5336  156.0154 H   0  0  0  0  0  0  0  0  0  0  0  0
  151.3402  138.9726  156.6897 H   0  0  0  0  0  0  0  0  0  0  0  0
  151.5824  138.3589  152.9442 H   0  0  0  0  0  0  0  0  0  0  0  0
  152.8902  138.2983  154.0972 H   0  0  0  0  0  0  0  0  0  0  0  0
  151.6119  136.1995  154.0679 H   0  0  0  0  0  0  0  0  0  0  0  0
  151.4875  136.9138  155.6610 H   0  0  0  0  0  0  0  0  0  0  0  0
  149.2443  135.0003  154.3214 H   0  0  0  0  0  0  0  0  0  0  0  0
  147.0358  135.0894  155.5612 H   0  0  0  0  0  0  0  0  0  0  0  0
  147.0550  135.9854  154.0653 H   0  0  0  0  0  0  0  0  0  0  0  0
  147.1793  136.8420  155.6027 H   0  0  0  0  0  0  0  0  0  0  0  0
  149.4445  134.3180  156.5712 H   0  0  0  0  0  0  0  0  0  0  0  0
  150.6426  135.5570  156.4564 H   0  0  0  0  0  0  0  0  0  0  0  0
  148.8087  137.1369  157.3385 H   0  0  0  0  0  0  0  0  0  0  0  0
  147.8714  137.5124  163.8468 H   0  0  0  0  0  0  0  0  0  0  0  0
  147.1718  134.9114  163.9397 H   0  0  0  0  0  0  0  0  0  0  0  0
  148.0970  138.3680  154.9326 H   0  0  0  0  0  0  0  0  0  0  0  0
  149.3012  138.2759  156.1907 H   0  0  0  0  0  0  0  0  0  0  0  0
  149.4050  140.4504  154.9231 H   0  0  0  0  0  0  0  0  0  0  0  0
  149.5907  139.5868  153.4255 H   0  0  0  0  0  0  0  0  0  0  0  0
  149.5022  137.0893  153.5155 H   0  0  0  0  0  0  0  0  0  0  0  0
  1  2  1  0  0  0  0
  1 21  1  0  0  0  0
  1 22  1  0  0  0  0
  1 23  1  0  0  0  0
  2  3  1  0  0  0  0
  2 24  1  0  0  0  0
  2 25  1  0  0  0  0
  3 20  1  0  0  0  0
  3  4  1  0  0  0  0
  4  5  1  0  0  0  0
  4 26  1  0  0  0  0
  4 27  1  0  0  0  0
  5  6  1  0  0  0  0
  5 28  1  0  0  0  0
  5 29  1  0  0  0  0
  6  7  1  0  0  0  0
  6 19  1  0  0  0  0
  6 43  1  0  0  0  0
  7  8  1  0  0  0  0
  7  9  1  0  0  0  0
  7 30  1  0  0  0  0
  8 31  1  0  0  0  0
  8 32  1  0  0  0  0
  8 33  1  0  0  0  0
  9 10  1  0  0  0  0
  9 34  1  0  0  0  0
  9 35  1  0  0  0  0
 10 11  1  0  0  0  0
 10 36  1  0  0  0  0
 11 12  2  0  0  0  0
 11 13  1  0  0  0  0
 13 14  1  0  0  0  0
 14 18  1  0  0  0  0
 14 15  2  0  0  0  0
 15 16  1  0  0  0  0
 16 17  2  0  0  0  0
 16 37  1  0  0  0  0
 17 18  1  0  0  0  0
 17 38  1  0  0  0  0
 19 20  1  0  0  0  0
 19 39  1  0  0  0  0
 19 40  1  0  0  0  0
 20 41  1  0  0  0  0
 20 42  1  0  0  0  0
M  CHG  1   6   1
M  CHG  1  13  -1
M  END
> <s_m_source_file>
AV-unprocessed.smi

> <i_m_source_file_index>
1971

> <i_lp_mmshare_version>
43012

> <i_f3d_flags>
0

> <s_epik_input>
W0NIM11bQ0gyXU4xW0NIMl1bQ0gyXU4oW0NIMl1bQ0gyXTEpW0NASF0oW0NIM10pW0NIMl1bTkhdQyg9TylbTkhdYzJuW2NIXVtjSF1zMg==

> <s_epik_cmdline>
J2VwaWtfcHl0aG9uJywgJy1waCcsICc3LjAnLCAnLXRuJywgJzgnLCAnLW1hJywgJzIwMCcsICctbWV0YWxfYmluZGluZycsICctaW1hZScsICc8aW5maWxlLm1hZT4nLCAnLW9tYWUnLCAnPG91dGZpbGUubWFlPic=

> <r_epik_Ionization_Penalty>
6.3441

> <r_epik_Ionization_Penalty_Charging>
5.51153

> <r_epik_Ionization_Penalty_Neutral>
0.832567

> <r_epik_State_Penalty>
6.33945

> <r_epik_Charging_Adjusted_Penalty>
11.851

> <i_epik_Tot_Q>
0

> <i_epik_Tot_abs_Q>
2

> <r_epik_Metal_State_Penalty>
2.34542

> <b_epik_Metal_Only>
1

> <s_lp_Force_Field>
OPLS_2005

> <r_lp_Energy>
17.5564

> <b_lp_Chiralities_Consistent>
1

> <s_lp_Variant>
AV-unprocessed.smi:1971-9

> <Gold.Version>
5.8.1

> <Gold.Id.Protein>
6NUR|6NUR_protein|mol2

> <Gold.PLP.Fitness>
50.3526

> <Gold.PLP.PLP>
-34.5894

> <Gold.PLP.part.hbond>
-5.0000

> <Gold.PLP.part.metal>
0.0000

> <Gold.PLP.part.buried>
-3.6663

> <Gold.PLP.part.nonpolar>
-26.1016

> <Gold.PLP.part.repulsive>
0.1661

> <Gold.PLP.ligand.clash>
0.0000

> <Gold.PLP.ligand.torsion>
0.9359

> <Gold.PLP.Chemscore.Hbond>
5.7600

> <Gold.PLP.Chemscore.CHOScore>
0.0000

> <Gold.PLP.Chemscore.Metal>
0.0000

> <Gold.Chemscore.Hbonds>
donor molecule, donor type, donor heavy atom, donor atom, acceptor molecule, acceptor atom, score
      L1  H     6    43       P1  7948  2.00
      P1  H  6896  6909       L1    12  1.00
      P1  H  6931  6943       L1    15  0.76
      P1  H  6934  6947       L1    15  0.55
      P1  H  7989  7998       L1     3  0.90

> <Gold.PLP.Chemscore.Internal.Correction>
0.3551

> <Gold.Rescore>
     Score         DG    S(hbond)    S(metal)    S(lipo)     H(rot)  DE(clash)    DE(int)     intcor
     16.91     -20.42       3.08        0.00      77.94       1.75       1.57       1.94       ----

> <Gold.Chemscore.Fitness>
16.9053

> <Gold.Chemscore.DG>
-20.4160

> <Gold.Chemscore.ZeroCoef>
-5.4800

> <Gold.Chemscore.Hbond>
3.0833

> <Gold.Chemscore.Metal>
0.0000

> <Gold.Chemscore.Lipo>
77.9405

> <Gold.Chemscore.Internal_Hbond>
0.0000

> <Gold.Chemscore.DEClash>
1.5735

> <Gold.Chemscore.DEInternal>
1.9372

> <Gold.Chemscore.Rot>
1.7505

> <Gold.Chemscore.Internal.Correction>
   9.000000E+99

> <Gold.Chemscore.Hbonds>
donor molecule, donor type, donor heavy atom, donor atom, acceptor molecule, acceptor atom, score
      L1  H     6    43       P1  7948  0.84
      P1  H  6896  6909       L1    12  0.60
      P1  H  6931  6943       L1    15  0.25
      P1  H  6934  6947       L1    15  0.32
      P1  H  7989  7998       L1     3  0.08

> <Gold.Chemscore.Hbond.Weighted>
-10.2982

> <Gold.Chemscore.Metal.Weighted>
-0.0000

> <Gold.Chemscore.Lipo.Weighted>
-9.1190

> <Gold.Chemscore.Internal_Hbond.Weighted>
0.0000

> <Gold.Chemscore.DEClash.Weighted>
1.5735

> <Gold.Chemscore.DEInternal.Weighted>
1.9372

> <Gold.Chemscore.Rot.Weighted>
4.4813

> <Gold.Chemscore.Internal.Correction.Weighted>
   9.000000E+99

> <Gold.Protein.RotatedTorsions>
[ 6907 6896 6895 6894 ] final   34.50 input  -60.11 | X-H torsion
[ 7974 7965 7964 7962 ] final  110.75 input  175.53 | X-H torsion
[ 8008 7997 7996 7995 ] final   65.69 input   59.86 | X-H torsion
[ 10167 10162 10161 10158 ] final    9.55 input  -65.29 | X-H torsion
[ 10718 10713 10712 10709 ] final  121.40 input   66.30 | X-H torsion
[ 10763 10752 10751 10750 ] final  -19.69 input  -60.55 | X-H torsion
[ 11005 11000 10999 10996 ] final -159.93 input  -57.11 | X-H torsion

> <Gold.Protein.ActiveResidues>
 VAL166  LYS551  ARG553  GLY616  TRP617  ASP618  TYR619  PRO620  LYS621  CYS622 
 ASP623  PHE694  ASN695  SER759  ASP760  ASP761  ALA762  ILE779  LEU786  VAL792 
 PHE793  MET794  SER795  GLU796  ALA797  LYS798  CYS799  TRP800  GLU811  SER814 

> <Gold.Protein.RotatedAtoms>
  152.1032  134.9327  160.0568 H   0  0  0  0  0  0  0  0  0  0  0  0  # atno 6907 bound_to 6896
  152.0533  133.4024  159.4394 H   0  0  0  0  0  0  0  0  0  0  0  0  # atno 6908 bound_to 6896
  150.6840  134.3204  159.4827 H   0  0  0  0  0  0  0  0  0  0  0  0  # atno 6909 bound_to 6896
  145.2510  139.2740  143.4067 H   0  0  0  0  0  0  0  0  0  0  0  0  # atno 7974 bound_to 7965
  155.6657  140.3497  155.4799 H   0  0  0  0  0  0  0  0  0  0  0  0  # atno 8008 bound_to 7997
  155.9731  140.1159  157.0817 H   0  0  0  0  0  0  0  0  0  0  0  0  # atno 8009 bound_to 7997
  154.4171  140.1153  156.5319 H   0  0  0  0  0  0  0  0  0  0  0  0  # atno 8010 bound_to 7997
  140.6248  143.8125  150.7219 H   0  0  0  0  0  0  0  0  0  0  0  0  # atno 10167 bound_to 10162
  157.5820  131.1074  150.8168 H   0  0  0  0  0  0  0  0  0  0  0  0  # atno 10718 bound_to 10713
  153.6087  135.6997  153.5355 H   0  0  0  0  0  0  0  0  0  0  0  0  # atno 10763 bound_to 10752
  153.3035  135.4122  155.1273 H   0  0  0  0  0  0  0  0  0  0  0  0  # atno 10764 bound_to 10752
  154.8568  135.3654  154.5625 H   0  0  0  0  0  0  0  0  0  0  0  0  # atno 10765 bound_to 10752
  140.6371  134.4590  157.5232 H   0  0  0  0  0  0  0  0  0  0  0  0  # atno 11005 bound_to 11000
  146.3302  140.2901  142.8615 LP  0  0  0  0  0  0  0  0  0  0  0  0  # atno 17320 bound_to 7965
  144.9503  140.8171  143.5576 LP  0  0  0  0  0  0  0  0  0  0  0  0  # atno 17321 bound_to 7965
  140.1723  143.4184  152.1992 LP  0  0  0  0  0  0  0  0  0  0  0  0  # atno 17342 bound_to 10162
  139.5470  144.7307  151.4552 LP  0  0  0  0  0  0  0  0  0  0  0  0  # atno 17343 bound_to 10162
  156.8611  130.5113  149.5303 LP  0  0  0  0  0  0  0  0  0  0  0  0  # atno 17370 bound_to 10713
  156.0867  130.5863  150.9660 LP  0  0  0  0  0  0  0  0  0  0  0  0  # atno 17371 bound_to 10713
  139.9094  134.8378  156.1585 LP  0  0  0  0  0  0  0  0  0  0  0  0  # atno 17394 bound_to 11000
  141.0633  133.6831  156.1996 LP  0  0  0  0  0  0  0  0  0  0  0  0  # atno 17395 bound_to 11000

$$$$
