AV-unprocessed.smi:2377|AV-procd|sdf|9446|dock1
  -GOLD-   2272013 73D 1   1.00000     0.00000
 Structure written by MMmdl.
 24 24  0  0  0  0  0  0  0  0  2 V2000
  146.7555  138.9367  152.5445 C   0  0  0  0  0  0  0  0  0  0  0  0
  148.1854  138.8018  152.8783 N   0  3  0  0  0  0  0  0  0  0  0  0
  148.5104  139.1525  154.2755 C   0  0  0  0  0  0  0  0  0  0  0  0
  148.7337  140.6661  154.4412 C   0  0  1  0  0  0  0  0  0  0  0  0
  149.3788  141.1611  153.2835 O   0  0  0  0  0  0  0  0  0  0  0  0
  147.4228  141.3875  154.7097 C   0  0  0  0  0  0  0  0  0  0  0  0
  146.9271  142.3702  153.8247 C   0  0  0  0  0  0  0  0  0  0  0  0
  145.7022  142.9982  154.1213 C   0  0  0  0  0  0  0  0  0  0  0  0
  145.0185  142.6156  155.2923 C   0  0  0  0  0  0  0  0  0  0  0  0
  145.4788  141.6747  156.1443 N   0  0  0  0  0  0  0  0  0  0  0  0
  146.6544  141.0784  155.8535 C   0  0  0  0  0  0  0  0  0  0  0  0
  146.5888  138.6652  151.5021 H   0  0  0  0  0  0  0  0  0  0  0  0
  146.4197  139.9643  152.6876 H   0  0  0  0  0  0  0  0  0  0  0  0
  146.1481  138.2814  153.1698 H   0  0  0  0  0  0  0  0  0  0  0  0
  148.4686  137.8467  152.7114 H   0  0  0  0  0  0  0  0  0  0  0  0
  147.7102  138.8109  154.9342 H   0  0  0  0  0  0  0  0  0  0  0  0
  149.4139  138.6135  154.5646 H   0  0  0  0  0  0  0  0  0  0  0  0
  149.4021  140.8409  155.2857 H   0  0  0  0  0  0  0  0  0  0  0  0
  149.3118  140.5111  152.5999 H   0  0  0  0  0  0  0  0  0  0  0  0
  147.4726  142.6390  152.9320 H   0  0  0  0  0  0  0  0  0  0  0  0
  145.2958  143.7553  153.4669 H   0  0  0  0  0  0  0  0  0  0  0  0
  144.0763  143.0761  155.5504 H   0  0  0  0  0  0  0  0  0  0  0  0
  146.9898  140.3293  156.5557 H   0  0  0  0  0  0  0  0  0  0  0  0
  148.7182  139.4072  152.2695 H   0  0  0  0  0  0  0  0  0  0  0  0
  1  2  1  0  0  0  0
  1 12  1  0  0  0  0
  1 13  1  0  0  0  0
  1 14  1  0  0  0  0
  2  3  1  0  0  0  0
  2 15  1  0  0  0  0
  2 24  1  0  0  0  0
  3  4  1  0  0  0  0
  3 16  1  0  0  0  0
  3 17  1  0  0  0  0
  4  5  1  0  0  0  0
  4  6  1  0  0  0  0
  4 18  1  0  0  0  0
  5 19  1  0  0  0  0
  6 11  1  0  0  0  0
  6  7  2  0  0  0  0
  7  8  1  0  0  0  0
  7 20  1  0  0  0  0
  8  9  2  0  0  0  0
  8 21  1  0  0  0  0
  9 10  1  0  0  0  0
  9 22  1  0  0  0  0
 10 11  2  0  0  0  0
 11 23  1  0  0  0  0
M  CHG  1   2   1
M  END
> <s_m_source_file>
AV-unprocessed.smi

> <i_m_source_file_index>
2377

> <i_lp_mmshare_version>
43012

> <i_f3d_flags>
0

> <s_epik_input>
W0NIM11bTkhdW0NIMl1bQ0BIXShbT0hdKWMxW2NIXVtjSF1bY0hdbltjSF0x

> <s_epik_cmdline>
J2VwaWtfcHl0aG9uJywgJy1waCcsICc3LjAnLCAnLXRuJywgJzgnLCAnLW1hJywgJzIwMCcsICctbWV0YWxfYmluZGluZycsICctaW1hZScsICc8aW5maWxlLm1hZT4nLCAnLW9tYWUnLCAnPG91dGZpbGUubWFlPic=

> <r_epik_Ionization_Penalty>
0.00990913

> <r_epik_Ionization_Penalty_Charging>
0.00939893

> <r_epik_Ionization_Penalty_Neutral>
0.000510194

> <r_epik_State_Penalty>
0.00713549

> <r_epik_Charging_Adjusted_Penalty>
0.0165344

> <i_epik_Tot_Q>
1

> <i_epik_Tot_abs_Q>
1

> <r_epik_Metal_State_Penalty>
0.00716299

> <b_epik_Metal_Only>
0

> <s_lp_Force_Field>
OPLS_2005

> <r_lp_Energy>
6.48909

> <b_lp_Chiralities_Consistent>
1

> <s_lp_Variant>
AV-unprocessed.smi:2377-2

> <Gold.Version>
5.8.1

> <Gold.Id.Protein>
6NUR|6NUR_protein|mol2

> <Gold.PLP.Fitness>
38.9432

> <Gold.PLP.PLP>
-24.8245

> <Gold.PLP.part.hbond>
-4.4864

> <Gold.PLP.part.metal>
0.0000

> <Gold.PLP.part.buried>
-3.9756

> <Gold.PLP.part.nonpolar>
-16.2190

> <Gold.PLP.part.repulsive>
0.1602

> <Gold.PLP.ligand.clash>
0.0000

> <Gold.PLP.ligand.torsion>
0.4362

> <Gold.PLP.Chemscore.Hbond>
4.9926

> <Gold.PLP.Chemscore.CHOScore>
0.0000

> <Gold.PLP.Chemscore.Metal>
0.0000

> <Gold.Chemscore.Hbonds>
donor molecule, donor type, donor heavy atom, donor atom, acceptor molecule, acceptor atom, score
      L1  H     2    15       P1  7948  2.00
      L1  H     2    24       P1  7957  1.00
      L1  H     5    19       P1  7957  0.99
      P1  H  7989  7998       L1     5  0.04
      P1  H  8011  8017       L1     5  0.85

> <Gold.PLP.Chemscore.Internal.Correction>
0.0133

> <Gold.Rescore>
     Score         DG    S(hbond)    S(metal)    S(lipo)     H(rot)  DE(clash)    DE(int)     intcor
     15.26     -16.48       3.23        0.00      46.37       2.03       0.78       0.44       ----

> <Gold.Chemscore.Fitness>
15.2617

> <Gold.Chemscore.DG>
-16.4783

> <Gold.Chemscore.ZeroCoef>
-5.4800

> <Gold.Chemscore.Hbond>
3.2278

> <Gold.Chemscore.Metal>
0.0000

> <Gold.Chemscore.Lipo>
46.3718

> <Gold.Chemscore.Internal_Hbond>
0.0000

> <Gold.Chemscore.DEClash>
0.7811

> <Gold.Chemscore.DEInternal>
0.4355

> <Gold.Chemscore.Rot>
2.0344

> <Gold.Chemscore.Internal.Correction>
   9.000000E+99

> <Gold.Chemscore.Hbonds>
donor molecule, donor type, donor heavy atom, donor atom, acceptor molecule, acceptor atom, score
      L1  H     2    15       P1  7948  1.00
      L1  H     2    24       P1  7957  0.94
      L1  H     5    19       P1  7957  0.89
      P1  H  8011  8017       L1     5  0.14

> <Gold.Chemscore.Hbond.Weighted>
-10.7807

> <Gold.Chemscore.Metal.Weighted>
-0.0000

> <Gold.Chemscore.Lipo.Weighted>
-5.4255

> <Gold.Chemscore.Internal_Hbond.Weighted>
0.0000

> <Gold.Chemscore.DEClash.Weighted>
0.7811

> <Gold.Chemscore.DEInternal.Weighted>
0.4355

> <Gold.Chemscore.Rot.Weighted>
5.2080

> <Gold.Chemscore.Internal.Correction.Weighted>
   9.000000E+99

> <Gold.Protein.RotatedTorsions>
[ 6907 6896 6895 6894 ] final   59.52 input  -60.11 | X-H torsion
[ 7974 7965 7964 7962 ] final  113.11 input  175.53 | X-H torsion
[ 8008 7997 7996 7995 ] final  -66.43 input   59.86 | X-H torsion
[ 10167 10162 10161 10158 ] final -104.48 input  -65.29 | X-H torsion
[ 10718 10713 10712 10709 ] final -165.73 input   66.30 | X-H torsion
[ 10763 10752 10751 10750 ] final   63.18 input  -60.55 | X-H torsion
[ 11005 11000 10999 10996 ] final  -13.77 input  -57.11 | X-H torsion

> <Gold.Protein.ActiveResidues>
 VAL166  LYS551  ARG553  GLY616  TRP617  ASP618  TYR619  PRO620  LYS621  CYS622 
 ASP623  PHE694  ASN695  SER759  ASP760  ASP761  ALA762  ILE779  LEU786  VAL792 
 PHE793  MET794  SER795  GLU796  ALA797  LYS798  CYS799  TRP800  GLU811  SER814 

> <Gold.Protein.RotatedAtoms>
  152.3922  134.6423  160.0102 H   0  0  0  0  0  0  0  0  0  0  0  0  # atno 6907 bound_to 6896
  151.6654  133.3310  159.3192 H   0  0  0  0  0  0  0  0  0  0  0  0  # atno 6908 bound_to 6896
  150.7836  134.6845  159.6507 H   0  0  0  0  0  0  0  0  0  0  0  0  # atno 6909 bound_to 6896
  145.2211  139.2862  143.4218 H   0  0  0  0  0  0  0  0  0  0  0  0  # atno 7974 bound_to 7965
  154.4734  140.0913  156.7202 H   0  0  0  0  0  0  0  0  0  0  0  0  # atno 8008 bound_to 7997
  155.4662  140.3463  155.4301 H   0  0  0  0  0  0  0  0  0  0  0  0  # atno 8009 bound_to 7997
  156.1077  140.1439  156.9370 H   0  0  0  0  0  0  0  0  0  0  0  0  # atno 8010 bound_to 7997
  140.2088  143.3762  152.1068 H   0  0  0  0  0  0  0  0  0  0  0  0  # atno 10167 bound_to 10162
  156.6576  130.9033  151.3024 H   0  0  0  0  0  0  0  0  0  0  0  0  # atno 10718 bound_to 10713
  153.0009  135.5438  154.6312 H   0  0  0  0  0  0  0  0  0  0  0  0  # atno 10763 bound_to 10752
  154.5589  135.2832  155.0940 H   0  0  0  0  0  0  0  0  0  0  0  0  # atno 10764 bound_to 10752
  154.2151  135.6460  153.5180 H   0  0  0  0  0  0  0  0  0  0  0  0  # atno 10765 bound_to 10752
  140.7796  133.8373  155.9280 H   0  0  0  0  0  0  0  0  0  0  0  0  # atno 11005 bound_to 11000
  146.3376  140.2517  142.8599 LP  0  0  0  0  0  0  0  0  0  0  0  0  # atno 17320 bound_to 7965
  144.9765  140.8419  143.5423 LP  0  0  0  0  0  0  0  0  0  0  0  0  # atno 17321 bound_to 7965
  139.5188  144.7011  151.5491 LP  0  0  0  0  0  0  0  0  0  0  0  0  # atno 17342 bound_to 10162
  140.6338  143.9024  150.6629 LP  0  0  0  0  0  0  0  0  0  0  0  0  # atno 17343 bound_to 10162
  157.7120  130.9452  150.1123 LP  0  0  0  0  0  0  0  0  0  0  0  0  # atno 17370 bound_to 10713
  156.2036  130.3662  149.8757 LP  0  0  0  0  0  0  0  0  0  0  0  0  # atno 17371 bound_to 10713
  140.9495  134.1796  157.4738 LP  0  0  0  0  0  0  0  0  0  0  0  0  # atno 17394 bound_to 11000
  139.8744  134.9904  156.5500 LP  0  0  0  0  0  0  0  0  0  0  0  0  # atno 17395 bound_to 11000

$$$$
