AV-unprocessed.smi:2761|AV-procd|sdf|10635|dock6
  -GOLD-   2272015 83D 1   1.00000     0.00000
 Structure written by MMmdl.
 26 27  0  0  0  0  0  0  0  0  2 V2000
  153.0336  140.2566  158.4968 O   0  0  0  0  0  0  0  0  0  0  0  0
  153.2466  140.7371  159.6121 C   0  0  0  0  0  0  0  0  0  0  0  0
  153.6219  140.0339  160.7023 N   0  0  0  0  0  0  0  0  0  0  0  0
  153.8306  138.6556  160.8142 C   0  0  0  0  0  0  0  0  0  0  0  0
  154.7152  138.3214  161.9008 C   0  0  0  0  0  0  0  0  0  0  0  0
  154.9870  137.0134  162.1045 C   0  0  0  0  0  0  0  0  0  0  0  0
  154.4034  135.9735  161.2530 C   0  0  0  0  0  0  0  0  0  0  0  0
  154.6777  134.7964  161.4756 O   0  0  0  0  0  0  0  0  0  0  0  0
  153.5702  136.3657  160.2372 N   0  5  0  0  0  0  0  0  0  0  0  0
  153.2886  137.7725  160.0316 N   0  0  0  0  0  0  0  0  0  0  0  0
  153.1115  142.2514  159.8310 C   0  0  1  0  0  0  0  0  0  0  0  0
  152.4607  142.9852  158.6349 C   0  0  0  0  0  0  0  0  0  0  0  0
  152.3395  144.3683  158.9414 O   0  0  0  0  0  0  0  0  0  0  0  0
  151.5361  144.5740  160.0949 C   0  0  0  0  0  0  0  0  0  0  0  0
  152.1864  143.8574  161.2892 C   0  0  0  0  0  0  0  0  0  0  0  0
  152.3091  142.4739  160.9884 O   0  0  0  0  0  0  0  0  0  0  0  0
  153.7638  140.5813  161.5381 H   0  0  0  0  0  0  0  0  0  0  0  0
  155.1641  139.0599  162.5490 H   0  0  0  0  0  0  0  0  0  0  0  0
  155.6470  136.7276  162.9102 H   0  0  0  0  0  0  0  0  0  0  0  0
  154.1127  142.6498  160.0051 H   0  0  0  0  0  0  0  0  0  0  0  0
  153.0762  142.8857  157.7402 H   0  0  0  0  0  0  0  0  0  0  0  0
  151.4794  142.5688  158.3995 H   0  0  0  0  0  0  0  0  0  0  0  0
  151.4595  145.6436  160.2902 H   0  0  0  0  0  0  0  0  0  0  0  0
  150.5243  144.2042  159.9221 H   0  0  0  0  0  0  0  0  0  0  0  0
  153.1654  144.2833  161.5133 H   0  0  0  0  0  0  0  0  0  0  0  0
  151.5721  143.9747  162.1820 H   0  0  0  0  0  0  0  0  0  0  0  0
  1  2  2  0  0  0  0
  2  3  1  0  0  0  0
  2 11  1  0  0  0  0
  3 17  1  0  0  0  0
  3  4  1  0  0  0  0
  4  5  1  0  0  0  0
  4 10  2  0  0  0  0
  5  6  2  0  0  0  0
  5 18  1  0  0  0  0
  6  7  1  0  0  0  0
  6 19  1  0  0  0  0
  7  8  2  0  0  0  0
  7  9  1  0  0  0  0
  9 10  1  0  0  0  0
 11 16  1  0  0  0  0
 11 12  1  0  0  0  0
 11 20  1  0  0  0  0
 12 13  1  0  0  0  0
 12 21  1  0  0  0  0
 12 22  1  0  0  0  0
 13 14  1  0  0  0  0
 14 15  1  0  0  0  0
 14 23  1  0  0  0  0
 14 24  1  0  0  0  0
 15 16  1  0  0  0  0
 15 25  1  0  0  0  0
 15 26  1  0  0  0  0
M  CHG  1   9  -1
M  END
> <s_m_source_file>
AV-unprocessed.smi

> <i_m_source_file_index>
2761

> <i_lp_mmshare_version>
43012

> <i_f3d_flags>
0

> <s_epik_input>
TzFbQ0gyXVtDSDJdT1tDSDJdW0NASF0xQyg9TylbTkhdYzJbY0hdW2NIXWMoW09IXSlubjI=

> <s_epik_cmdline>
J2VwaWtfcHl0aG9uJywgJy1waCcsICc3LjAnLCAnLXRuJywgJzgnLCAnLW1hJywgJzIwMCcsICctbWV0YWxfYmluZGluZycsICctaW1hZScsICc8aW5maWxlLm1hZT4nLCAnLW9tYWUnLCAnPG91dGZpbGUubWFlPic=

> <r_lp_tautomer_probability>
1

> <r_epik_Ionization_Penalty>
4.21844

> <r_epik_Ionization_Penalty_Charging>
0.119247

> <r_epik_Ionization_Penalty_Neutral>
4.0992

> <r_epik_State_Penalty>
4.09486

> <r_epik_Charging_Adjusted_Penalty>
4.2141

> <i_epik_Tot_Q>
-1

> <i_epik_Tot_abs_Q>
1

> <r_epik_Metal_State_Penalty>
0.651223

> <b_epik_Metal_Only>
1

> <s_lp_Force_Field>
OPLS_2005

> <r_lp_Energy>
28.3135

> <b_lp_Chiralities_Consistent>
1

> <s_lp_Variant>
AV-unprocessed.smi:2761-4

> <Gold.Version>
5.8.1

> <Gold.Id.Protein>
6NUR|6NUR_protein|mol2

> <Gold.PLP.Fitness>
35.9083

> <Gold.PLP.PLP>
-27.8283

> <Gold.PLP.part.hbond>
-1.9664

> <Gold.PLP.part.metal>
0.0000

> <Gold.PLP.part.buried>
-4.9450

> <Gold.PLP.part.nonpolar>
-20.4945

> <Gold.PLP.part.repulsive>
0.1090

> <Gold.PLP.ligand.clash>
0.0000

> <Gold.PLP.ligand.torsion>
0.3166

> <Gold.PLP.Chemscore.Hbond>
2.9040

> <Gold.PLP.Chemscore.CHOScore>
0.0000

> <Gold.PLP.Chemscore.Metal>
0.0000

> <Gold.Chemscore.Hbonds>
donor molecule, donor type, donor heavy atom, donor atom, acceptor molecule, acceptor atom, score
      P1  H  6896  6909       L1     9  2.00
      P1  H  7997  8010       L1     1  0.67

> <Gold.PLP.Chemscore.Internal.Correction>
0.0013

> <Gold.Rescore>
     Score         DG    S(hbond)    S(metal)    S(lipo)     H(rot)  DE(clash)    DE(int)     intcor
     15.14     -15.73       1.84        0.00      56.88       1.00       0.03       0.56       ----

> <Gold.Chemscore.Fitness>
15.1352

> <Gold.Chemscore.DG>
-15.7344

> <Gold.Chemscore.ZeroCoef>
-5.4800

> <Gold.Chemscore.Hbond>
1.8442

> <Gold.Chemscore.Metal>
0.0000

> <Gold.Chemscore.Lipo>
56.8782

> <Gold.Chemscore.Internal_Hbond>
0.0000

> <Gold.Chemscore.DEClash>
0.0346

> <Gold.Chemscore.DEInternal>
0.5646

> <Gold.Chemscore.Rot>
1.0000

> <Gold.Chemscore.Internal.Correction>
   9.000000E+99

> <Gold.Chemscore.Hbonds>
donor molecule, donor type, donor heavy atom, donor atom, acceptor molecule, acceptor atom, score
      P1  H  6896  6909       L1     9  0.44
      P1  H  7997  8010       L1     1  0.63

> <Gold.Chemscore.Hbond.Weighted>
-6.1596

> <Gold.Chemscore.Metal.Weighted>
-0.0000

> <Gold.Chemscore.Lipo.Weighted>
-6.6548

> <Gold.Chemscore.Internal_Hbond.Weighted>
0.0000

> <Gold.Chemscore.DEClash.Weighted>
0.0346

> <Gold.Chemscore.DEInternal.Weighted>
0.5646

> <Gold.Chemscore.Rot.Weighted>
2.5600

> <Gold.Chemscore.Internal.Correction.Weighted>
   9.000000E+99

> <Gold.Protein.RotatedTorsions>
[ 6907 6896 6895 6894 ] final  164.23 input  -60.11 | X-H torsion
[ 7974 7965 7964 7962 ] final -176.02 input  175.53 | X-H torsion
[ 8008 7997 7996 7995 ] final   32.61 input   59.86 | X-H torsion
[ 10167 10162 10161 10158 ] final   32.27 input  -65.29 | X-H torsion
[ 10718 10713 10712 10709 ] final  104.54 input   66.30 | X-H torsion
[ 10763 10752 10751 10750 ] final -123.76 input  -60.55 | X-H torsion
[ 11005 11000 10999 10996 ] final   29.85 input  -57.11 | X-H torsion

> <Gold.Protein.ActiveResidues>
 VAL166  LYS551  ARG553  GLY616  TRP617  ASP618  TYR619  PRO620  LYS621  CYS622 
 ASP623  PHE694  ASN695  SER759  ASP760  ASP761  ALA762  ILE779  LEU786  VAL792 
 PHE793  MET794  SER795  GLU796  ALA797  LYS798  CYS799  TRP800  GLU811  SER814 

> <Gold.Protein.RotatedAtoms>
  151.9131  133.3566  159.3870 H   0  0  0  0  0  0  0  0  0  0  0  0  # atno 6907 bound_to 6896
  150.7053  134.4712  159.5435 H   0  0  0  0  0  0  0  0  0  0  0  0  # atno 6908 bound_to 6896
  152.2321  134.8311  160.0523 H   0  0  0  0  0  0  0  0  0  0  0  0  # atno 6909 bound_to 6896
  144.7127  140.1233  143.6403 H   0  0  0  0  0  0  0  0  0  0  0  0  # atno 7974 bound_to 7965
  155.1253  140.3252  155.4487 H   0  0  0  0  0  0  0  0  0  0  0  0  # atno 8008 bound_to 7997
  156.2651  140.2020  156.6322 H   0  0  0  0  0  0  0  0  0  0  0  0  # atno 8009 bound_to 7997
  154.6653  140.0542  157.0094 H   0  0  0  0  0  0  0  0  0  0  0  0  # atno 8010 bound_to 7997
  140.4513  144.1043  150.6192 H   0  0  0  0  0  0  0  0  0  0  0  0  # atno 10167 bound_to 10162
  157.6737  131.0806  150.5721 H   0  0  0  0  0  0  0  0  0  0  0  0  # atno 10718 bound_to 10713
  154.8713  135.4087  154.2995 H   0  0  0  0  0  0  0  0  0  0  0  0  # atno 10763 bound_to 10752
  153.3857  135.7013  153.6537 H   0  0  0  0  0  0  0  0  0  0  0  0  # atno 10764 bound_to 10752
  153.5341  135.3661  155.2660 H   0  0  0  0  0  0  0  0  0  0  0  0  # atno 10765 bound_to 10752
  140.3006  134.2761  155.7755 H   0  0  0  0  0  0  0  0  0  0  0  0  # atno 11005 bound_to 11000
  145.9351  139.2632  143.1302 LP  0  0  0  0  0  0  0  0  0  0  0  0  # atno 17320 bound_to 7965
  145.9482  140.8929  143.0273 LP  0  0  0  0  0  0  0  0  0  0  0  0  # atno 17321 bound_to 7965
  140.4203  143.2614  151.9723 LP  0  0  0  0  0  0  0  0  0  0  0  0  # atno 17342 bound_to 10162
  139.4797  144.5836  151.7890 LP  0  0  0  0  0  0  0  0  0  0  0  0  # atno 17343 bound_to 10162
  156.6022  130.4357  149.5892 LP  0  0  0  0  0  0  0  0  0  0  0  0  # atno 17370 bound_to 10713
  156.2497  130.6900  151.1633 LP  0  0  0  0  0  0  0  0  0  0  0  0  # atno 17371 bound_to 10713
  141.2129  133.7644  156.9761 LP  0  0  0  0  0  0  0  0  0  0  0  0  # atno 17394 bound_to 11000
  140.1112  134.9475  157.2069 LP  0  0  0  0  0  0  0  0  0  0  0  0  # atno 17395 bound_to 11000

$$$$
