AV-unprocessed.smi:3185|AV-procd|sdf|12170|dock9
  -GOLD-   2272018 03D 1   1.00000     0.00000
 Structure written by MMmdl.
 37 38  0  0  0  0  0  0  0  0  1 V2000
  151.6388  146.2369  160.0580 N   0  0  0  0  0  0  0  0  0  0  0  0
  151.8860  145.4841  159.2149 C   0  0  0  0  0  0  0  0  0  0  0  0
  152.2004  144.5271  158.1435 C   0  0  0  0  0  0  0  0  0  0  0  0
  151.9612  143.0718  158.5597 C   0  0  0  0  0  0  0  0  0  0  0  0
  150.5250  142.6201  158.2695 C   0  0  0  0  0  0  0  0  0  0  0  0
  150.4318  142.1555  156.8933 N   0  0  0  0  0  0  0  0  0  0  0  0
  151.0369  140.8383  156.7071 C   0  0  1  0  0  0  0  0  0  0  0  0
  150.4846  139.8003  157.7119 C   0  0  0  0  0  0  0  0  0  0  0  0
  151.1210  138.4193  157.4856 C   0  0  0  0  0  0  0  0  0  0  0  0
  150.9333  137.9306  156.0415 C   0  0  0  0  0  0  0  0  0  0  0  0
  151.4558  138.9624  155.0245 C   0  0  0  0  0  0  0  0  0  0  0  0
  150.8790  140.3829  155.2287 C   0  0  1  0  0  0  0  0  0  0  0  0
  149.5240  140.5238  154.6863 N   0  0  0  0  0  0  0  0  0  0  0  0
  148.8694  141.6982  154.3719 C   0  0  0  0  0  0  0  0  0  0  0  0
  147.6311  141.3715  153.8988 C   0  0  0  0  0  0  0  0  0  0  0  0
  147.6130  139.9514  153.9603 C   0  0  0  0  0  0  0  0  0  0  0  0
  148.7424  139.4501  154.4300 N   0  0  0  0  0  0  0  0  0  0  0  0
  151.5870  144.7818  157.2791 H   0  0  0  0  0  0  0  0  0  0  0  0
  153.2419  144.6760  157.8580 H   0  0  0  0  0  0  0  0  0  0  0  0
  152.6646  142.4261  158.0320 H   0  0  0  0  0  0  0  0  0  0  0  0
  152.1751  142.9617  159.6237 H   0  0  0  0  0  0  0  0  0  0  0  0
  150.2463  141.8151  158.9507 H   0  0  0  0  0  0  0  0  0  0  0  0
  149.8388  143.4491  158.4402 H   0  0  0  0  0  0  0  0  0  0  0  0
  150.9001  142.8201  156.2942 H   0  0  0  0  0  0  0  0  0  0  0  0
  152.1087  140.9375  156.8863 H   0  0  0  0  0  0  0  0  0  0  0  0
  150.6926  140.1080  158.7362 H   0  0  0  0  0  0  0  0  0  0  0  0
  149.4001  139.7263  157.6373 H   0  0  0  0  0  0  0  0  0  0  0  0
  152.1864  138.4712  157.7134 H   0  0  0  0  0  0  0  0  0  0  0  0
  150.6932  137.6954  158.1796 H   0  0  0  0  0  0  0  0  0  0  0  0
  151.4597  136.9858  155.9044 H   0  0  0  0  0  0  0  0  0  0  0  0
  149.8818  137.7118  155.8598 H   0  0  0  0  0  0  0  0  0  0  0  0
  152.5414  139.0130  155.1166 H   0  0  0  0  0  0  0  0  0  0  0  0
  151.2585  138.6182  154.0085 H   0  0  0  0  0  0  0  0  0  0  0  0
  151.5009  141.0507  154.6305 H   0  0  0  0  0  0  0  0  0  0  0  0
  149.3350  142.6629  154.5099 H   0  0  0  0  0  0  0  0  0  0  0  0
  146.8569  142.0441  153.5609 H   0  0  0  0  0  0  0  0  0  0  0  0
  146.8196  139.2748  153.6795 H   0  0  0  0  0  0  0  0  0  0  0  0
  1  2  3  0  0  0  0
  2  3  1  0  0  0  0
  3  4  1  0  0  0  0
  3 18  1  0  0  0  0
  3 19  1  0  0  0  0
  4  5  1  0  0  0  0
  4 20  1  0  0  0  0
  4 21  1  0  0  0  0
  5  6  1  0  0  0  0
  5 22  1  0  0  0  0
  5 23  1  0  0  0  0
  6  7  1  0  0  0  0
  6 24  1  0  0  0  0
  7 12  1  0  0  0  0
  7  8  1  0  0  0  0
  7 25  1  0  0  0  0
  8  9  1  0  0  0  0
  8 26  1  0  0  0  0
  8 27  1  0  0  0  0
  9 10  1  0  0  0  0
  9 28  1  0  0  0  0
  9 29  1  0  0  0  0
 10 11  1  0  0  0  0
 10 30  1  0  0  0  0
 10 31  1  0  0  0  0
 11 12  1  0  0  0  0
 11 32  1  0  0  0  0
 11 33  1  0  0  0  0
 12 13  1  0  0  0  0
 12 34  1  0  0  0  0
 13 17  1  0  0  0  0
 13 14  1  0  0  0  0
 14 15  2  0  0  0  0
 14 35  1  0  0  0  0
 15 16  1  0  0  0  0
 15 36  1  0  0  0  0
 16 17  2  0  0  0  0
 16 37  1  0  0  0  0
M  END
> <s_m_source_file>
AV-unprocessed.smi

> <i_m_source_file_index>
3185

> <i_lp_mmshare_version>
43012

> <i_f3d_flags>
0

> <s_epik_input>
TiNDW0NIMl1bQ0gyXVtDSDJdW05IXVtDQEBIXTFbQ0gyXVtDSDJdW0NIMl1bQ0gyXVtDQEhdMW4yW2NIXVtjSF1bY0hdbjI=

> <s_epik_cmdline>
J2VwaWtfcHl0aG9uJywgJy1waCcsICc3LjAnLCAnLXRuJywgJzgnLCAnLW1hJywgJzIwMCcsICctbWV0YWxfYmluZGluZycsICctaW1hZScsICc8aW5maWxlLm1hZT4nLCAnLW9tYWUnLCAnPG91dGZpbGUubWFlPic=

> <r_lp_tautomer_probability>
1

> <r_epik_Ionization_Penalty>
2.21326

> <r_epik_Ionization_Penalty_Charging>
0

> <r_epik_Ionization_Penalty_Neutral>
2.21326

> <r_epik_State_Penalty>
2.35651

> <r_epik_Charging_Adjusted_Penalty>
2.35651

> <i_epik_Tot_Q>
0

> <i_epik_Tot_abs_Q>
0

> <r_epik_Metal_State_Penalty>
2.3555

> <b_epik_Metal_Only>
0

> <s_lp_Force_Field>
OPLS_2005

> <r_lp_Energy>
19.4285

> <b_lp_Chiralities_Consistent>
1

> <s_lp_Variant>
AV-unprocessed.smi:3185-6

> <Gold.Version>
5.8.1

> <Gold.Id.Protein>
6NUR|6NUR_protein|mol2

> <Gold.PLP.Fitness>
38.1275

> <Gold.PLP.PLP>
-36.5701

> <Gold.PLP.part.hbond>
-2.2011

> <Gold.PLP.part.metal>
0.0000

> <Gold.PLP.part.buried>
-1.4181

> <Gold.PLP.part.nonpolar>
-33.2101

> <Gold.PLP.part.repulsive>
0.3695

> <Gold.PLP.ligand.clash>
0.0000

> <Gold.PLP.ligand.torsion>
0.7630

> <Gold.PLP.Chemscore.Hbond>
0.0000

> <Gold.PLP.Chemscore.CHOScore>
1.0000

> <Gold.PLP.Chemscore.Metal>
0.0000

> <Gold.Chemscore.Hbonds>
donor molecule, donor type, donor heavy atom, donor atom, acceptor molecule, acceptor atom, score
      L1  C    14    35       P1  8028  1.00

> <Gold.PLP.Chemscore.Internal.Correction>
0.0835

> <Gold.Rescore>
     Score         DG    S(hbond)    S(metal)    S(lipo)     H(rot)  DE(clash)    DE(int)     intcor
      8.47     -10.54       0.00        0.00      82.89       1.81       0.33       1.74       ----

> <Gold.Chemscore.Fitness>
8.4661

> <Gold.Chemscore.DG>
-10.5421

> <Gold.Chemscore.ZeroCoef>
-5.4800

> <Gold.Chemscore.Hbond>
0.0000

> <Gold.Chemscore.Metal>
0.0000

> <Gold.Chemscore.Lipo>
82.8915

> <Gold.Chemscore.Internal_Hbond>
0.0000

> <Gold.Chemscore.DEClash>
0.3350

> <Gold.Chemscore.DEInternal>
1.7410

> <Gold.Chemscore.Rot>
1.8110

> <Gold.Chemscore.Internal.Correction>
   9.000000E+99

> <Gold.Chemscore.Hbond.Weighted>
-0.0000

> <Gold.Chemscore.Metal.Weighted>
-0.0000

> <Gold.Chemscore.Lipo.Weighted>
-9.6983

> <Gold.Chemscore.Internal_Hbond.Weighted>
0.0000

> <Gold.Chemscore.DEClash.Weighted>
0.3350

> <Gold.Chemscore.DEInternal.Weighted>
1.7410

> <Gold.Chemscore.Rot.Weighted>
4.6362

> <Gold.Chemscore.Internal.Correction.Weighted>
   9.000000E+99

> <Gold.Protein.RotatedTorsions>
[ 6907 6896 6895 6894 ] final  -43.90 input  -60.11 | X-H torsion
[ 7974 7965 7964 7962 ] final   58.29 input  175.53 | X-H torsion
[ 8008 7997 7996 7995 ] final   35.24 input   59.86 | X-H torsion
[ 10167 10162 10161 10158 ] final   87.18 input  -65.29 | X-H torsion
[ 10718 10713 10712 10709 ] final  -28.49 input   66.30 | X-H torsion
[ 10763 10752 10751 10750 ] final   -6.68 input  -60.55 | X-H torsion
[ 11005 11000 10999 10996 ] final -103.17 input  -57.11 | X-H torsion

> <Gold.Protein.ActiveResidues>
 VAL166  LYS551  ARG553  GLY616  TRP617  ASP618  TYR619  PRO620  LYS621  CYS622 
 ASP623  PHE694  ASN695  SER759  ASP760  ASP761  ALA762  ILE779  LEU786  VAL792 
 PHE793  MET794  SER795  GLU796  ALA797  LYS798  CYS799  TRP800  GLU811  SER814 

> <Gold.Protein.RotatedAtoms>
  150.9388  134.8799  159.7598 H   0  0  0  0  0  0  0  0  0  0  0  0  # atno 6907 bound_to 6896
  152.5071  134.3971  159.9414 H   0  0  0  0  0  0  0  0  0  0  0  0  # atno 6908 bound_to 6896
  151.3994  133.3722  159.2765 H   0  0  0  0  0  0  0  0  0  0  0  0  # atno 6909 bound_to 6896
  145.9198  139.3720  143.0485 H   0  0  0  0  0  0  0  0  0  0  0  0  # atno 7974 bound_to 7965
  155.1678  140.3289  155.4398 H   0  0  0  0  0  0  0  0  0  0  0  0  # atno 8008 bound_to 7997
  156.2520  140.1949  156.6733 H   0  0  0  0  0  0  0  0  0  0  0  0  # atno 8009 bound_to 7997
  154.6359  140.0576  156.9774 H   0  0  0  0  0  0  0  0  0  0  0  0  # atno 8010 bound_to 7997
  139.8800  144.6445  150.8854 H   0  0  0  0  0  0  0  0  0  0  0  0  # atno 10167 bound_to 10162
  156.4246  130.4433  149.7160 H   0  0  0  0  0  0  0  0  0  0  0  0  # atno 10718 bound_to 10713
  153.4158  135.7009  153.6328 H   0  0  0  0  0  0  0  0  0  0  0  0  # atno 10763 bound_to 10752
  153.4803  135.3695  155.2439 H   0  0  0  0  0  0  0  0  0  0  0  0  # atno 10764 bound_to 10752
  154.8719  135.4064  154.3517 H   0  0  0  0  0  0  0  0  0  0  0  0  # atno 10765 bound_to 10752
  141.1157  133.8618  157.1452 H   0  0  0  0  0  0  0  0  0  0  0  0  # atno 11005 bound_to 11000
  145.8564  140.9500  143.0723 LP  0  0  0  0  0  0  0  0  0  0  0  0  # atno 17320 bound_to 7965
  144.6752  140.0474  143.7479 LP  0  0  0  0  0  0  0  0  0  0  0  0  # atno 17321 bound_to 7965
  140.7746  143.3594  151.1858 LP  0  0  0  0  0  0  0  0  0  0  0  0  # atno 17342 bound_to 10162
  139.7205  143.9231  152.2983 LP  0  0  0  0  0  0  0  0  0  0  0  0  # atno 17343 bound_to 10162
  156.4087  130.7711  151.2723 LP  0  0  0  0  0  0  0  0  0  0  0  0  # atno 17370 bound_to 10713
  157.7508  131.0218  150.3765 LP  0  0  0  0  0  0  0  0  0  0  0  0  # atno 17371 bound_to 10713
  140.0078  135.0001  157.0331 LP  0  0  0  0  0  0  0  0  0  0  0  0  # atno 17394 bound_to 11000
  140.4651  134.1444  155.7196 LP  0  0  0  0  0  0  0  0  0  0  0  0  # atno 17395 bound_to 11000

$$$$
