AV-unprocessed.smi:290|AV-procd|sdf|2228|dock3
  -GOLD-   2262022 83D 1   1.00000     0.00000
 Structure written by MMmdl.
 59 62  0  0  0  0  0  0  0  0  2 V2000
  151.7002  138.0523  154.5852 C   0  0  0  0  0  0  0  0  0  0  0  0
  151.3142  139.0582  155.6818 C   0  0  1  0  0  0  0  0  0  0  0  0
  152.4220  139.8858  156.0079 O   0  0  0  0  0  0  0  0  0  0  0  0
  151.9102  141.0238  156.6773 C   0  0  0  0  0  0  0  0  0  0  0  0
  150.6988  141.3906  155.8298 C   0  0  0  0  0  0  0  0  0  0  0  0
  150.1531  140.0382  155.3624 C   0  0  1  0  0  0  0  0  0  0  0  0
  149.9015  140.1217  153.9693 O   0  0  0  0  0  0  0  0  0  0  0  0
  148.8300  139.6683  156.0783 C   0  0  0  0  0  0  0  0  0  0  0  0
  148.2473  138.4186  155.6139 N   0  0  0  0  0  0  0  0  0  0  0  0
  148.4254  137.1687  156.1626 C   0  0  0  0  0  0  0  0  0  0  0  0
  147.7993  136.1995  155.5535 N   0  0  0  0  0  0  0  0  0  0  0  0
  147.1303  136.8279  154.5093 C   0  0  0  0  0  0  0  0  0  0  0  0
  146.2702  136.3768  153.4667 C   0  0  0  0  0  0  0  0  0  0  0  0
  145.9405  135.0691  153.2933 N   0  0  0  0  0  0  0  0  0  0  0  0
  147.0294  134.0973  153.3673 C   0  0  0  0  0  0  0  0  0  0  0  0
  146.7172  133.0107  152.3330 C   0  0  0  0  0  0  0  0  0  0  0  0
  145.2017  133.1414  152.1474 C   0  0  2  0  0  0  0  0  0  0  0  0
  144.6439  132.5390  150.9029 N   0  3  2  0  0  0  0  0  0  0  0  0
  145.2819  131.2410  150.5797 C   0  0  0  0  0  0  0  0  0  0  0  0
  144.5643  133.4466  149.7257 C   0  0  0  0  0  0  0  0  0  0  0  0
  143.7676  132.8142  148.5738 C   0  0  0  0  0  0  0  0  0  0  0  0
  143.4603  133.7944  147.6048 O   0  0  0  0  0  0  0  0  0  0  0  0
  144.9650  134.6518  152.2863 C   0  0  1  0  0  0  0  0  0  0  0  0
  143.5184  134.9976  152.6832 C   0  0  0  0  0  0  0  0  0  0  0  0
  145.7759  137.3179  152.6187 N   0  0  0  0  0  0  0  0  0  0  0  0
  146.0999  138.6052  152.7701 C   0  0  0  0  0  0  0  0  0  0  0  0
  146.8922  139.1631  153.6865 N   0  0  0  0  0  0  0  0  0  0  0  0
  147.3913  138.2272  154.5435 C   0  0  0  0  0  0  0  0  0  0  0  0
  144.7217  132.6603  153.0024 H   0  0  0  0  0  0  0  0  0  0  0  0
  145.2059  135.1569  151.3517 H   0  0  0  0  0  0  0  0  0  0  0  0
  150.8525  137.4237  154.3119 H   0  0  0  0  0  0  0  0  0  0  0  0
  152.5010  137.3967  154.9274 H   0  0  0  0  0  0  0  0  0  0  0  0
  152.0519  138.5565  153.6849 H   0  0  0  0  0  0  0  0  0  0  0  0
  151.0791  138.5044  156.5916 H   0  0  0  0  0  0  0  0  0  0  0  0
  151.6136  140.7547  157.6924 H   0  0  0  0  0  0  0  0  0  0  0  0
  152.6461  141.8262  156.7318 H   0  0  0  0  0  0  0  0  0  0  0  0
  149.9718  141.9882  156.3813 H   0  0  0  0  0  0  0  0  0  0  0  0
  151.0358  141.9901  154.9822 H   0  0  0  0  0  0  0  0  0  0  0  0
  149.5047  139.3125  153.6856 H   0  0  0  0  0  0  0  0  0  0  0  0
  148.9941  139.5880  157.1538 H   0  0  0  0  0  0  0  0  0  0  0  0
  148.0919  140.4600  155.9431 H   0  0  0  0  0  0  0  0  0  0  0  0
  149.0439  136.9943  157.0309 H   0  0  0  0  0  0  0  0  0  0  0  0
  148.0052  134.5473  153.1772 H   0  0  0  0  0  0  0  0  0  0  0  0
  147.0451  133.6719  154.3711 H   0  0  0  0  0  0  0  0  0  0  0  0
  147.2578  133.2361  151.4140 H   0  0  0  0  0  0  0  0  0  0  0  0
  147.0223  132.0178  152.6641 H   0  0  0  0  0  0  0  0  0  0  0  0
  146.3385  131.3720  150.3433 H   0  0  0  0  0  0  0  0  0  0  0  0
  144.8007  130.7648  149.7258 H   0  0  0  0  0  0  0  0  0  0  0  0
  145.2047  130.5515  151.4208 H   0  0  0  0  0  0  0  0  0  0  0  0
  144.0973  134.3972  149.9789 H   0  0  0  0  0  0  0  0  0  0  0  0
  145.5730  133.6940  149.3914 H   0  0  0  0  0  0  0  0  0  0  0  0
  144.3591  132.0333  148.0951 H   0  0  0  0  0  0  0  0  0  0  0  0
  142.8485  132.3458  148.9250 H   0  0  0  0  0  0  0  0  0  0  0  0
  144.2259  134.3305  147.4608 H   0  0  0  0  0  0  0  0  0  0  0  0
  142.8135  134.6410  151.9321 H   0  0  0  0  0  0  0  0  0  0  0  0
  143.3711  136.0729  152.7807 H   0  0  0  0  0  0  0  0  0  0  0  0
  143.2484  134.5404  153.6357 H   0  0  0  0  0  0  0  0  0  0  0  0
  145.6634  139.2853  152.0535 H   0  0  0  0  0  0  0  0  0  0  0  0
  143.6849  132.3202  151.1342 H   0  0  0  0  0  0  0  0  0  0  0  0
  1  2  1  0  0  0  0
  1 31  1  0  0  0  0
  1 32  1  0  0  0  0
  1 33  1  0  0  0  0
  2  6  1  0  0  0  0
  2  3  1  0  0  0  0
  2 34  1  0  0  0  0
  3  4  1  0  0  0  0
  4  5  1  0  0  0  0
  4 35  1  0  0  0  0
  4 36  1  0  0  0  0
  5  6  1  0  0  0  0
  5 37  1  0  0  0  0
  5 38  1  0  0  0  0
  6  7  1  0  0  0  0
  6  8  1  0  0  0  0
  7 39  1  0  0  0  0
  8  9  1  0  0  0  0
  8 40  1  0  0  0  0
  8 41  1  0  0  0  0
  9 28  1  0  0  0  0
  9 10  1  0  0  0  0
 10 11  2  0  0  0  0
 10 42  1  0  0  0  0
 11 12  1  0  0  0  0
 12 28  2  0  0  0  0
 12 13  1  0  0  0  0
 13 14  1  0  0  0  0
 13 25  2  0  0  0  0
 14 23  1  0  0  0  0
 14 15  1  0  0  0  0
 15 16  1  0  0  0  0
 15 43  1  0  0  0  0
 15 44  1  0  0  0  0
 16 17  1  0  0  0  0
 16 45  1  0  0  0  0
 16 46  1  0  0  0  0
 17 29  1  0  0  0  0
 17 18  1  0  0  0  0
 17 23  1  0  0  0  0
 18 19  1  0  0  0  0
 18 20  1  0  0  0  0
 18 59  1  0  0  0  0
 19 47  1  0  0  0  0
 19 48  1  0  0  0  0
 19 49  1  0  0  0  0
 20 21  1  0  0  0  0
 20 50  1  0  0  0  0
 20 51  1  0  0  0  0
 21 22  1  0  0  0  0
 21 52  1  0  0  0  0
 21 53  1  0  0  0  0
 22 54  1  0  0  0  0
 23 30  1  0  0  0  0
 23 24  1  0  0  0  0
 24 55  1  0  0  0  0
 24 56  1  0  0  0  0
 24 57  1  0  0  0  0
 25 26  1  0  0  0  0
 26 27  2  0  0  0  0
 26 58  1  0  0  0  0
 27 28  1  0  0  0  0
M  CHG  1  18   1
M  END
> <s_m_source_file>
AV-unprocessed.smi

> <i_m_source_file_index>
290

> <i_lp_mmshare_version>
43012

> <i_f3d_flags>
0

> <s_epik_input>
W0NIMl0xW0NIMl1PW0NAQEhdKFtDSDNdKVtDQEBdMShbT0hdKVtDSDJdbihbY0hdbjIpYyhjMjMpbltjSF1uYzNONFtDSDJdW0NIMl1bQ0BIXShbQ0BIXTRbQ0gzXSlOKFtDSDNdKVtDSDJdW0NIMl1bT0hd

> <s_epik_cmdline>
J2VwaWtfcHl0aG9uJywgJy1waCcsICc3LjAnLCAnLXRuJywgJzgnLCAnLW1hJywgJzIwMCcsICctbWV0YWxfYmluZGluZycsICctaW1hZScsICc8aW5maWxlLm1hZT4nLCAnLW9tYWUnLCAnPG91dGZpbGUubWFlPic=

> <r_lp_tautomer_probability>
1

> <r_epik_Ionization_Penalty>
0.0036983

> <r_epik_Ionization_Penalty_Charging>
0.0032725

> <r_epik_Ionization_Penalty_Neutral>
0.000425798

> <r_epik_State_Penalty>
-0

> <r_epik_Charging_Adjusted_Penalty>
0.0032725

> <i_epik_Tot_Q>
1

> <i_epik_Tot_abs_Q>
1

> <r_epik_Metal_State_Penalty>
-0

> <b_epik_Metal_Only>
0

> <s_lp_Force_Field>
OPLS_2005

> <r_lp_Energy>
60.2599

> <b_lp_Chiralities_Consistent>
1

> <s_lp_Variant>
AV-unprocessed.smi:290-14

> <Gold.Version>
5.8.1

> <Gold.Id.Protein>
6NUR|6NUR_protein|mol2

> <Gold.PLP.Fitness>
49.2739

> <Gold.PLP.PLP>
-36.9270

> <Gold.PLP.part.hbond>
-6.7592

> <Gold.PLP.part.metal>
0.0000

> <Gold.PLP.part.buried>
-4.0193

> <Gold.PLP.part.nonpolar>
-26.2294

> <Gold.PLP.part.repulsive>
0.5758

> <Gold.PLP.ligand.clash>
0.0000

> <Gold.PLP.ligand.torsion>
1.2204

> <Gold.PLP.Chemscore.Hbond>
3.8713

> <Gold.PLP.Chemscore.CHOScore>
0.8569

> <Gold.PLP.Chemscore.Metal>
0.0000

> <Gold.Chemscore.Hbonds>
donor molecule, donor type, donor heavy atom, donor atom, acceptor molecule, acceptor atom, score
      L1  H    22    54       P1  7921  1.00
      P1  H  7989  7998       L1     7  0.71
      P1  H  7997  8010       L1     3  1.00
      P1  H 10192 10197       L1    22  0.94
      L1  C    26    58       P1 10175  0.87

> <Gold.PLP.Chemscore.Internal.Correction>
0.6031

> <Gold.Rescore>
     Score         DG    S(hbond)    S(metal)    S(lipo)     H(rot)  DE(clash)    DE(int)     intcor
     14.88     -17.48       3.52        0.00      82.40       3.67       1.37       1.23       ----

> <Gold.Chemscore.Fitness>
14.8828

> <Gold.Chemscore.DG>
-17.4785

> <Gold.Chemscore.ZeroCoef>
-5.4800

> <Gold.Chemscore.Hbond>
3.5156

> <Gold.Chemscore.Metal>
0.0000

> <Gold.Chemscore.Lipo>
82.4006

> <Gold.Chemscore.Internal_Hbond>
0.0000

> <Gold.Chemscore.DEClash>
1.3665

> <Gold.Chemscore.DEInternal>
1.2292

> <Gold.Chemscore.Rot>
3.6658

> <Gold.Chemscore.Internal.Correction>
   9.000000E+99

> <Gold.Chemscore.Hbonds>
donor molecule, donor type, donor heavy atom, donor atom, acceptor molecule, acceptor atom, score
      L1  H    22    54       P1  7921  0.98
      P1  H  7989  7998       L1     7  0.12
      P1  H  7997  8010       L1     3  0.25
      P1  H 10192 10197       L1    22  0.20

> <Gold.Chemscore.Hbond.Weighted>
-11.7421

> <Gold.Chemscore.Metal.Weighted>
-0.0000

> <Gold.Chemscore.Lipo.Weighted>
-9.6409

> <Gold.Chemscore.Internal_Hbond.Weighted>
0.0000

> <Gold.Chemscore.DEClash.Weighted>
1.3665

> <Gold.Chemscore.DEInternal.Weighted>
1.2292

> <Gold.Chemscore.Rot.Weighted>
9.3844

> <Gold.Chemscore.Internal.Correction.Weighted>
   9.000000E+99

> <Gold.Protein.RotatedTorsions>
[ 6907 6896 6895 6894 ] final -167.41 input  -60.11 | X-H torsion
[ 7974 7965 7964 7962 ] final   19.21 input  175.53 | X-H torsion
[ 8008 7997 7996 7995 ] final   79.05 input   59.86 | X-H torsion
[ 10167 10162 10161 10158 ] final  151.46 input  -65.29 | X-H torsion
[ 10718 10713 10712 10709 ] final -166.28 input   66.30 | X-H torsion
[ 10763 10752 10751 10750 ] final -140.35 input  -60.55 | X-H torsion
[ 11005 11000 10999 10996 ] final   -5.04 input  -57.11 | X-H torsion

> <Gold.Protein.ActiveResidues>
 VAL166  LYS551  ARG553  GLY616  TRP617  ASP618  TYR619  PRO620  LYS621  CYS622 
 ASP623  PHE694  ASN695  SER759  ASP760  ASP761  ALA762  ILE779  LEU786  VAL792 
 PHE793  MET794  SER795  GLU796  ALA797  LYS798  CYS799  TRP800  GLU811  SER814 

> <Gold.Protein.RotatedAtoms>
  151.4591  133.3597  159.2806 H   0  0  0  0  0  0  0  0  0  0  0  0  # atno 6907 bound_to 6896
  150.9038  134.8453  159.7389 H   0  0  0  0  0  0  0  0  0  0  0  0  # atno 6908 bound_to 6896
  152.4894  134.4514  159.9627 H   0  0  0  0  0  0  0  0  0  0  0  0  # atno 6909 bound_to 6896
  146.2157  139.8346  142.8653 H   0  0  0  0  0  0  0  0  0  0  0  0  # atno 7974 bound_to 7965
  155.8642  140.3452  155.5777 H   0  0  0  0  0  0  0  0  0  0  0  0  # atno 8008 bound_to 7997
  155.7899  140.0870  157.2034 H   0  0  0  0  0  0  0  0  0  0  0  0  # atno 8009 bound_to 7997
  154.4013  140.1485  156.3138 H   0  0  0  0  0  0  0  0  0  0  0  0  # atno 8010 bound_to 7997
  139.4840  144.5438  151.7518 H   0  0  0  0  0  0  0  0  0  0  0  0  # atno 10167 bound_to 10162
  156.6657  130.9063  151.3036 H   0  0  0  0  0  0  0  0  0  0  0  0  # atno 10718 bound_to 10713
  154.8581  135.3556  154.5693 H   0  0  0  0  0  0  0  0  0  0  0  0  # atno 10763 bound_to 10752
  153.6306  135.7002  153.5281 H   0  0  0  0  0  0  0  0  0  0  0  0  # atno 10764 bound_to 10752
  153.3053  135.4194  155.1248 H   0  0  0  0  0  0  0  0  0  0  0  0  # atno 10765 bound_to 10752
  140.6869  133.9105  155.8592 H   0  0  0  0  0  0  0  0  0  0  0  0  # atno 11005 bound_to 11000
  145.2962  141.0181  143.3635 LP  0  0  0  0  0  0  0  0  0  0  0  0  # atno 17320 bound_to 7965
  144.9040  139.4613  143.6619 LP  0  0  0  0  0  0  0  0  0  0  0  0  # atno 17321 bound_to 7965
  140.4982  144.1209  150.5965 LP  0  0  0  0  0  0  0  0  0  0  0  0  # atno 17342 bound_to 10162
  140.4093  143.2665  151.9853 LP  0  0  0  0  0  0  0  0  0  0  0  0  # atno 17343 bound_to 10162
  157.7094  130.9423  150.1040 LP  0  0  0  0  0  0  0  0  0  0  0  0  # atno 17370 bound_to 10713
  156.1977  130.3658  149.8828 LP  0  0  0  0  0  0  0  0  0  0  0  0  # atno 17371 bound_to 10713
  141.0273  134.0806  157.4054 LP  0  0  0  0  0  0  0  0  0  0  0  0  # atno 17394 bound_to 11000
  139.8935  135.0131  156.6902 LP  0  0  0  0  0  0  0  0  0  0  0  0  # atno 17395 bound_to 11000

$$$$
