AV-unprocessed.smi:1135|AV-procd|sdf|4859|dock4
  -GOLD-   22720 3433D 1   1.00000     0.00000
 Structure written by MMmdl.
 45 46  0  0  0  0  0  0  0  0  1 V2000
  144.4523  134.6312  153.1112 C   0  0  0  0  0  0  0  0  0  0  0  0
  145.6128  133.6404  153.2795 C   0  0  2  0  0  0  0  0  0  0  0  0
  146.3442  133.8514  154.6180 C   0  0  0  0  0  0  0  0  0  0  0  0
  147.5306  132.8813  154.7788 C   0  0  0  0  0  0  0  0  0  0  0  0
  148.5459  132.9727  153.6141 C   0  0  2  0  0  0  0  0  0  0  0  0
  149.6232  131.8830  153.8005 C   0  0  0  0  0  0  0  0  0  0  0  0
  149.1688  134.3037  153.6705 N   0  0  0  0  0  0  0  0  0  0  0  0
  149.9822  134.8075  154.6130 C   0  0  0  0  0  0  0  0  0  0  0  0
  150.3325  134.2092  155.6302 O   0  0  0  0  0  0  0  0  0  0  0  0
  150.3777  136.0505  154.3060 N   0  0  0  0  0  0  0  0  0  0  0  0
  151.2781  136.8619  155.1168 C   0  0  0  0  0  0  0  0  0  0  0  0
  151.5618  138.2216  154.4567 C   0  0  0  0  0  0  0  0  0  0  0  0
  151.4747  139.3686  155.4457 C   0  0  0  0  0  0  0  0  0  0  0  0
  152.1814  139.3207  156.6663 C   0  0  0  0  0  0  0  0  0  0  0  0
  152.0590  140.4055  157.5558 C   0  0  0  0  0  0  0  0  0  0  0  0
  151.2379  141.4905  157.1930 C   0  0  0  0  0  0  0  0  0  0  0  0
  150.5742  141.4427  155.9507 C   0  0  0  0  0  0  0  0  0  0  0  0
  150.6849  140.4074  155.0904 N   0  0  0  0  0  0  0  0  0  0  0  0
  147.7797  132.7523  152.2827 C   0  0  0  0  0  0  0  0  0  0  0  0
  146.6029  133.7284  152.1037 C   0  0  0  0  0  0  0  0  0  0  0  0
  144.8093  135.6615  153.0941 H   0  0  0  0  0  0  0  0  0  0  0  0
  143.7368  134.5400  153.9288 H   0  0  0  0  0  0  0  0  0  0  0  0
  143.9138  134.4500  152.1806 H   0  0  0  0  0  0  0  0  0  0  0  0
  145.1884  132.6353  153.2851 H   0  0  0  0  0  0  0  0  0  0  0  0
  146.6949  134.8817  154.6901 H   0  0  0  0  0  0  0  0  0  0  0  0
  145.6479  133.7105  155.4455 H   0  0  0  0  0  0  0  0  0  0  0  0
  148.0297  133.0719  155.7300 H   0  0  0  0  0  0  0  0  0  0  0  0
  147.1417  131.8640  154.8449 H   0  0  0  0  0  0  0  0  0  0  0  0
  149.1760  130.8894  153.8450 H   0  0  0  0  0  0  0  0  0  0  0  0
  150.1823  132.0314  154.7250 H   0  0  0  0  0  0  0  0  0  0  0  0
  150.3407  131.8727  152.9801 H   0  0  0  0  0  0  0  0  0  0  0  0
  148.9635  134.9058  152.8868 H   0  0  0  0  0  0  0  0  0  0  0  0
  150.0386  136.4626  153.4490 H   0  0  0  0  0  0  0  0  0  0  0  0
  150.8147  137.0102  156.0925 H   0  0  0  0  0  0  0  0  0  0  0  0
  152.2096  136.3218  155.2948 H   0  0  0  0  0  0  0  0  0  0  0  0
  152.5538  138.2205  154.0030 H   0  0  0  0  0  0  0  0  0  0  0  0
  150.8549  138.3990  153.6447 H   0  0  0  0  0  0  0  0  0  0  0  0
  152.8004  138.4719  156.9178 H   0  0  0  0  0  0  0  0  0  0  0  0
  152.5838  140.4040  158.4995 H   0  0  0  0  0  0  0  0  0  0  0  0
  151.1190  142.3387  157.8507 H   0  0  0  0  0  0  0  0  0  0  0  0
  149.9363  142.2571  155.6406 H   0  0  0  0  0  0  0  0  0  0  0  0
  148.4496  132.8255  151.4264 H   0  0  0  0  0  0  0  0  0  0  0  0
  147.3914  131.7331  152.2577 H   0  0  0  0  0  0  0  0  0  0  0  0
  146.0877  133.5054  151.1690 H   0  0  0  0  0  0  0  0  0  0  0  0
  146.9788  134.7477  152.0074 H   0  0  0  0  0  0  0  0  0  0  0  0
  1  2  1  0  0  0  0
  1 21  1  0  0  0  0
  1 22  1  0  0  0  0
  1 23  1  0  0  0  0
  2 20  1  0  0  0  0
  2  3  1  0  0  0  0
  2 24  1  0  0  0  0
  3  4  1  0  0  0  0
  3 25  1  0  0  0  0
  3 26  1  0  0  0  0
  4  5  1  0  0  0  0
  4 27  1  0  0  0  0
  4 28  1  0  0  0  0
  5  6  1  0  0  0  0
  5  7  1  0  0  0  0
  5 19  1  0  0  0  0
  6 29  1  0  0  0  0
  6 30  1  0  0  0  0
  6 31  1  0  0  0  0
  7  8  1  0  0  0  0
  7 32  1  0  0  0  0
  8  9  2  0  0  0  0
  8 10  1  0  0  0  0
 10 11  1  0  0  0  0
 10 33  1  0  0  0  0
 11 12  1  0  0  0  0
 11 34  1  0  0  0  0
 11 35  1  0  0  0  0
 12 13  1  0  0  0  0
 12 36  1  0  0  0  0
 12 37  1  0  0  0  0
 13 18  1  0  0  0  0
 13 14  2  0  0  0  0
 14 15  1  0  0  0  0
 14 38  1  0  0  0  0
 15 16  2  0  0  0  0
 15 39  1  0  0  0  0
 16 17  1  0  0  0  0
 16 40  1  0  0  0  0
 17 18  2  0  0  0  0
 17 41  1  0  0  0  0
 19 20  1  0  0  0  0
 19 42  1  0  0  0  0
 19 43  1  0  0  0  0
 20 44  1  0  0  0  0
 20 45  1  0  0  0  0
M  END
> <s_m_source_file>
AV-unprocessed.smi

> <i_m_source_file_index>
1135

> <i_lp_mmshare_version>
43012

> <i_f3d_flags>
0

> <s_epik_input>
W0NIMl0xW0NIMl1bQ0BIXShbQ0gzXSlbQ0gyXVtDSDJdW0NAQF0xKFtDSDNdKVtOSF1DKD1PKVtOSF1bQ0gyXVtDSDJdYzJbY0hdW2NIXVtjSF1bY0hdbjI=

> <s_epik_cmdline>
J2VwaWtfcHl0aG9uJywgJy1waCcsICc3LjAnLCAnLXRuJywgJzgnLCAnLW1hJywgJzIwMCcsICctbWV0YWxfYmluZGluZycsICctaW1hZScsICc8aW5maWxlLm1hZT4nLCAnLW9tYWUnLCAnPG91dGZpbGUubWFlPic=

> <r_epik_Ionization_Penalty>
0.0448679

> <r_epik_Ionization_Penalty_Charging>
0

> <r_epik_Ionization_Penalty_Neutral>
0.0448679

> <r_epik_State_Penalty>
0.0379931

> <r_epik_Charging_Adjusted_Penalty>
0.0379931

> <i_epik_Tot_Q>
0

> <i_epik_Tot_abs_Q>
0

> <r_epik_Metal_State_Penalty>
0.0353093

> <b_epik_Metal_Only>
0

> <s_lp_Force_Field>
OPLS_2005

> <r_lp_Energy>
6.34065

> <b_lp_Chiralities_Consistent>
1

> <s_lp_Variant>
AV-unprocessed.smi:1135-2

> <Gold.Version>
5.8.1

> <Gold.Id.Protein>
6NUR|6NUR_protein|mol2

> <Gold.PLP.Fitness>
45.0317

> <Gold.PLP.PLP>
-34.2587

> <Gold.PLP.part.hbond>
-3.7491

> <Gold.PLP.part.metal>
0.0000

> <Gold.PLP.part.buried>
-2.5389

> <Gold.PLP.part.nonpolar>
-26.8698

> <Gold.PLP.part.repulsive>
0.1725

> <Gold.PLP.ligand.clash>
0.0000

> <Gold.PLP.ligand.torsion>
0.4637

> <Gold.PLP.Chemscore.Hbond>
2.9000

> <Gold.PLP.Chemscore.CHOScore>
0.9958

> <Gold.PLP.Chemscore.Metal>
0.0000

> <Gold.Chemscore.Hbonds>
donor molecule, donor type, donor heavy atom, donor atom, acceptor molecule, acceptor atom, score
      L1  H     7    32       P1  7948  0.70
      L1  H    10    33       P1  7948  0.66
      P1  H  7989  7998       L1    18  0.85
      L1  C    17    41       P1  8028  0.64

> <Gold.PLP.Chemscore.Internal.Correction>
0.0131

> <Gold.Rescore>
     Score         DG    S(hbond)    S(metal)    S(lipo)     H(rot)  DE(clash)    DE(int)     intcor
     16.53     -17.55       2.24        0.00      70.32       1.42       0.05       0.97       ----

> <Gold.Chemscore.Fitness>
16.5347

> <Gold.Chemscore.DG>
-17.5531

> <Gold.Chemscore.ZeroCoef>
-5.4800

> <Gold.Chemscore.Hbond>
2.2408

> <Gold.Chemscore.Metal>
0.0000

> <Gold.Chemscore.Lipo>
70.3187

> <Gold.Chemscore.Internal_Hbond>
0.0000

> <Gold.Chemscore.DEClash>
0.0492

> <Gold.Chemscore.DEInternal>
0.9692

> <Gold.Chemscore.Rot>
1.4213

> <Gold.Chemscore.Internal.Correction>
   9.000000E+99

> <Gold.Chemscore.Hbonds>
donor molecule, donor type, donor heavy atom, donor atom, acceptor molecule, acceptor atom, score
      L1  H     7    32       P1  7948  0.07
      L1  H    10    33       P1  7948  0.07
      P1  H  7989  7998       L1    18  0.12

> <Gold.Chemscore.Hbond.Weighted>
-7.4843

> <Gold.Chemscore.Metal.Weighted>
-0.0000

> <Gold.Chemscore.Lipo.Weighted>
-8.2273

> <Gold.Chemscore.Internal_Hbond.Weighted>
0.0000

> <Gold.Chemscore.DEClash.Weighted>
0.0492

> <Gold.Chemscore.DEInternal.Weighted>
0.9692

> <Gold.Chemscore.Rot.Weighted>
3.6385

> <Gold.Chemscore.Internal.Correction.Weighted>
   9.000000E+99

> <Gold.Protein.RotatedTorsions>
[ 6907 6896 6895 6894 ] final  167.17 input  -60.11 | X-H torsion
[ 7974 7965 7964 7962 ] final  107.28 input  175.53 | X-H torsion
[ 8008 7997 7996 7995 ] final  125.01 input   59.86 | X-H torsion
[ 10167 10162 10161 10158 ] final -134.56 input  -65.29 | X-H torsion
[ 10718 10713 10712 10709 ] final  -44.59 input   66.30 | X-H torsion
[ 10763 10752 10751 10750 ] final  120.55 input  -60.55 | X-H torsion
[ 11005 11000 10999 10996 ] final   59.04 input  -57.11 | X-H torsion

> <Gold.Protein.ActiveResidues>
 VAL166  LYS551  ARG553  GLY616  TRP617  ASP618  TYR619  PRO620  LYS621  CYS622 
 ASP623  PHE694  ASN695  SER759  ASP760  ASP761  ALA762  ILE779  LEU786  VAL792 
 PHE793  MET794  SER795  GLU796  ALA797  LYS798  CYS799  TRP800  GLU811  SER814 

> <Gold.Protein.RotatedAtoms>
  151.8674  133.3469  159.3723 H   0  0  0  0  0  0  0  0  0  0  0  0  # atno 6907 bound_to 6896
  150.7162  134.5146  159.5633 H   0  0  0  0  0  0  0  0  0  0  0  0  # atno 6908 bound_to 6896
  152.2672  134.7972  160.0471 H   0  0  0  0  0  0  0  0  0  0  0  0  # atno 6909 bound_to 6896
  145.2957  139.2585  143.3841 H   0  0  0  0  0  0  0  0  0  0  0  0  # atno 7974 bound_to 7965
  156.2820  140.2726  156.1880 H   0  0  0  0  0  0  0  0  0  0  0  0  # atno 8008 bound_to 7997
  155.0488  140.0386  157.2554 H   0  0  0  0  0  0  0  0  0  0  0  0  # atno 8009 bound_to 7997
  154.7212  140.2688  155.6545 H   0  0  0  0  0  0  0  0  0  0  0  0  # atno 8010 bound_to 7997
  139.8868  143.6772  152.2619 H   0  0  0  0  0  0  0  0  0  0  0  0  # atno 10167 bound_to 10162
  156.2370  130.4177  149.8806 H   0  0  0  0  0  0  0  0  0  0  0  0  # atno 10718 bound_to 10713
  153.6002  135.3449  155.2943 H   0  0  0  0  0  0  0  0  0  0  0  0  # atno 10763 bound_to 10752
  154.8637  135.4226  154.2420 H   0  0  0  0  0  0  0  0  0  0  0  0  # atno 10764 bound_to 10752
  153.3247  135.7040  153.7071 H   0  0  0  0  0  0  0  0  0  0  0  0  # atno 10765 bound_to 10752
  140.0333  134.5980  155.9478 H   0  0  0  0  0  0  0  0  0  0  0  0  # atno 11005 bound_to 11000
  146.3169  140.3459  142.8652 LP  0  0  0  0  0  0  0  0  0  0  0  0  # atno 17320 bound_to 7965
  144.9135  140.7785  143.5792 LP  0  0  0  0  0  0  0  0  0  0  0  0  # atno 17321 bound_to 7965
  139.7146  144.7614  151.1055 LP  0  0  0  0  0  0  0  0  0  0  0  0  # atno 17342 bound_to 10162
  140.7734  143.5286  150.9450 LP  0  0  0  0  0  0  0  0  0  0  0  0  # atno 17343 bound_to 10162
  156.6401  130.8701  151.3512 LP  0  0  0  0  0  0  0  0  0  0  0  0  # atno 17370 bound_to 10713
  157.7158  130.9496  150.1252 LP  0  0  0  0  0  0  0  0  0  0  0  0  # atno 17371 bound_to 10713
  141.1843  133.6552  156.5152 LP  0  0  0  0  0  0  0  0  0  0  0  0  # atno 17394 bound_to 11000
  140.4189  134.7205  157.4879 LP  0  0  0  0  0  0  0  0  0  0  0  0  # atno 17395 bound_to 11000

$$$$
