AV-unprocessed.smi:657|AV-procd|sdf|3224|dock9
  -GOLD-   22720 0163D 1   1.00000     0.00000
 Structure written by MMmdl.
 46 47  0  0  0  0  0  0  0  0  1 V2000
  147.4511  140.8265  156.3517 C   0  0  0  0  0  0  0  0  0  0  0  0
  148.6950  141.2220  155.5296 C   0  0  0  0  0  0  0  0  0  0  0  0
  148.3149  141.6757  154.1076 C   0  0  0  0  0  0  0  0  0  0  0  0
  149.7428  140.1761  155.5037 N   0  0  0  0  0  0  0  0  0  0  0  0
  151.1111  140.7152  155.5983 C   0  0  0  0  0  0  0  0  0  0  0  0
  152.1305  139.5942  155.8625 C   0  0  0  0  0  0  0  0  0  0  0  0
  152.0912  138.5456  154.7493 C   0  0  0  0  0  0  0  0  0  0  0  0
  150.6597  138.0262  154.6006 C   0  0  0  0  0  0  0  0  0  0  0  0
  149.6626  139.1876  154.3778 C   0  0  1  0  0  0  0  0  0  0  0  0
  148.2574  138.6074  154.1228 C   0  0  0  0  0  0  0  0  0  0  0  0
  147.6121  138.1097  155.0461 O   0  0  0  0  0  0  0  0  0  0  0  0
  147.7895  138.7044  152.8693 N   0  0  0  0  0  0  0  0  0  0  0  0
  146.4780  138.2481  152.4295 C   0  0  0  0  0  0  0  0  0  0  0  0
  146.6188  137.2041  151.3138 C   0  0  0  0  0  0  0  0  0  0  0  0
  145.6332  136.0820  151.4827 C   0  0  0  0  0  0  0  0  0  0  0  0
  144.4762  136.0519  152.3127 C   0  0  0  0  0  0  0  0  0  0  0  0
  143.8187  134.9060  152.2379 N   0  0  0  0  0  0  0  0  0  0  0  0
  144.5302  134.1673  151.3621 N   0  0  0  0  0  0  0  0  0  0  0  0
  144.0921  132.8265  151.0388 C   0  0  0  0  0  0  0  0  0  0  0  0
  145.6293  134.8513  150.8889 C   0  0  0  0  0  0  0  0  0  0  0  0
  146.7553  141.6632  156.4165 H   0  0  0  0  0  0  0  0  0  0  0  0
  147.7079  140.5465  157.3727 H   0  0  0  0  0  0  0  0  0  0  0  0
  146.9098  139.9952  155.9003 H   0  0  0  0  0  0  0  0  0  0  0  0
  149.1099  142.1209  155.9824 H   0  0  0  0  0  0  0  0  0  0  0  0
  147.7196  142.5883  154.1455 H   0  0  0  0  0  0  0  0  0  0  0  0
  147.7186  140.9355  153.5751 H   0  0  0  0  0  0  0  0  0  0  0  0
  149.2011  141.8922  153.5104 H   0  0  0  0  0  0  0  0  0  0  0  0
  151.3781  141.2414  154.6810 H   0  0  0  0  0  0  0  0  0  0  0  0
  151.1989  141.4356  156.4092 H   0  0  0  0  0  0  0  0  0  0  0  0
  153.1338  140.0148  155.9361 H   0  0  0  0  0  0  0  0  0  0  0  0
  151.9204  139.1235  156.8239 H   0  0  0  0  0  0  0  0  0  0  0  0
  152.4261  138.9875  153.8101 H   0  0  0  0  0  0  0  0  0  0  0  0
  152.7724  137.7245  154.9747 H   0  0  0  0  0  0  0  0  0  0  0  0
  150.6163  137.3208  153.7694 H   0  0  0  0  0  0  0  0  0  0  0  0
  150.3893  137.4646  155.4966 H   0  0  0  0  0  0  0  0  0  0  0  0
  149.9639  139.6979  153.4610 H   0  0  0  0  0  0  0  0  0  0  0  0
  148.3829  139.1324  152.1735 H   0  0  0  0  0  0  0  0  0  0  0  0
  145.9502  137.8220  153.2838 H   0  0  0  0  0  0  0  0  0  0  0  0
  145.8828  139.0896  152.0703 H   0  0  0  0  0  0  0  0  0  0  0  0
  146.4789  137.6907  150.3475 H   0  0  0  0  0  0  0  0  0  0  0  0
  147.6387  136.8172  151.3058 H   0  0  0  0  0  0  0  0  0  0  0  0
  144.0984  136.8248  152.9659 H   0  0  0  0  0  0  0  0  0  0  0  0
  144.7772  132.3720  150.3226 H   0  0  0  0  0  0  0  0  0  0  0  0
  143.0932  132.8592  150.6026 H   0  0  0  0  0  0  0  0  0  0  0  0
  144.0698  132.2177  151.9432 H   0  0  0  0  0  0  0  0  0  0  0  0
  146.3128  134.4105  150.1782 H   0  0  0  0  0  0  0  0  0  0  0  0
  1  2  1  0  0  0  0
  1 21  1  0  0  0  0
  1 22  1  0  0  0  0
  1 23  1  0  0  0  0
  2  3  1  0  0  0  0
  2  4  1  0  0  0  0
  2 24  1  0  0  0  0
  3 25  1  0  0  0  0
  3 26  1  0  0  0  0
  3 27  1  0  0  0  0
  4  9  1  0  0  0  0
  4  5  1  0  0  0  0
  5  6  1  0  0  0  0
  5 28  1  0  0  0  0
  5 29  1  0  0  0  0
  6  7  1  0  0  0  0
  6 30  1  0  0  0  0
  6 31  1  0  0  0  0
  7  8  1  0  0  0  0
  7 32  1  0  0  0  0
  7 33  1  0  0  0  0
  8  9  1  0  0  0  0
  8 34  1  0  0  0  0
  8 35  1  0  0  0  0
  9 10  1  0  0  0  0
  9 36  1  0  0  0  0
 10 11  2  0  0  0  0
 10 12  1  0  0  0  0
 12 13  1  0  0  0  0
 12 37  1  0  0  0  0
 13 14  1  0  0  0  0
 13 38  1  0  0  0  0
 13 39  1  0  0  0  0
 14 15  1  0  0  0  0
 14 40  1  0  0  0  0
 14 41  1  0  0  0  0
 15 20  2  0  0  0  0
 15 16  1  0  0  0  0
 16 17  2  0  0  0  0
 16 42  1  0  0  0  0
 17 18  1  0  0  0  0
 18 19  1  0  0  0  0
 18 20  1  0  0  0  0
 19 43  1  0  0  0  0
 19 44  1  0  0  0  0
 19 45  1  0  0  0  0
 20 46  1  0  0  0  0
M  END
> <s_m_source_file>
AV-unprocessed.smi

> <i_m_source_file_index>
657

> <i_lp_mmshare_version>
43012

> <i_f3d_flags>
0

> <s_epik_input>
W0NIM11bQ0hdKFtDSDNdKU4xW0NIMl1bQ0gyXVtDSDJdW0NIMl1bQ0BIXTFDKD1PKVtOSF1bQ0gyXVtDSDJdYzJbY0hdbm4oW0NIM10pW2NIXTI=

> <s_epik_cmdline>
J2VwaWtfcHl0aG9uJywgJy1waCcsICc3LjAnLCAnLXRuJywgJzgnLCAnLW1hJywgJzIwMCcsICctbWV0YWxfYmluZGluZycsICctaW1hZScsICc8aW5maWxlLm1hZT4nLCAnLW9tYWUnLCAnPG91dGZpbGUubWFlPic=

> <r_lp_tautomer_probability>
1

> <r_epik_Ionization_Penalty>
1.91154

> <r_epik_Ionization_Penalty_Charging>
0

> <r_epik_Ionization_Penalty_Neutral>
1.91154

> <r_epik_State_Penalty>
2.0331

> <r_epik_Charging_Adjusted_Penalty>
2.0331

> <i_epik_Tot_Q>
0

> <i_epik_Tot_abs_Q>
0

> <r_epik_Metal_State_Penalty>
2.04973

> <b_epik_Metal_Only>
0

> <s_lp_Force_Field>
OPLS_2005

> <r_lp_Energy>
17.3109

> <b_lp_Chiralities_Consistent>
1

> <s_lp_Variant>
AV-unprocessed.smi:657-5

> <Gold.Version>
5.8.1

> <Gold.Id.Protein>
6NUR|6NUR_protein|mol2

> <Gold.PLP.Fitness>
41.4705

> <Gold.PLP.PLP>
-38.3165

> <Gold.PLP.part.hbond>
-2.0000

> <Gold.PLP.part.metal>
0.0000

> <Gold.PLP.part.buried>
1.0360

> <Gold.PLP.part.nonpolar>
-37.8856

> <Gold.PLP.part.repulsive>
0.3224

> <Gold.PLP.ligand.clash>
0.0000

> <Gold.PLP.ligand.torsion>
1.4787

> <Gold.PLP.Chemscore.Hbond>
1.0000

> <Gold.PLP.Chemscore.CHOScore>
1.0000

> <Gold.PLP.Chemscore.Metal>
0.0000

> <Gold.Chemscore.Hbonds>
donor molecule, donor type, donor heavy atom, donor atom, acceptor molecule, acceptor atom, score
      L1  H    12    37       P1  7957  1.00
      L1  C    20    46       P1  7921  0.72

> <Gold.PLP.Chemscore.Internal.Correction>
0.1113

> <Gold.Rescore>
     Score         DG    S(hbond)    S(metal)    S(lipo)     H(rot)  DE(clash)    DE(int)     intcor
     11.59     -15.55       1.00        0.00      91.96       1.57       1.36       2.61       ----

> <Gold.Chemscore.Fitness>
11.5858

> <Gold.Chemscore.DG>
-15.5508

> <Gold.Chemscore.ZeroCoef>
-5.4800

> <Gold.Chemscore.Hbond>
1.0000

> <Gold.Chemscore.Metal>
0.0000

> <Gold.Chemscore.Lipo>
91.9588

> <Gold.Chemscore.Internal_Hbond>
0.0000

> <Gold.Chemscore.DEClash>
1.3578

> <Gold.Chemscore.DEInternal>
2.6072

> <Gold.Chemscore.Rot>
1.5736

> <Gold.Chemscore.Internal.Correction>
   9.000000E+99

> <Gold.Chemscore.Hbonds>
donor molecule, donor type, donor heavy atom, donor atom, acceptor molecule, acceptor atom, score
      L1  H    12    37       P1  7957  1.00

> <Gold.Chemscore.Hbond.Weighted>
-3.3400

> <Gold.Chemscore.Metal.Weighted>
-0.0000

> <Gold.Chemscore.Lipo.Weighted>
-10.7592

> <Gold.Chemscore.Internal_Hbond.Weighted>
0.0000

> <Gold.Chemscore.DEClash.Weighted>
1.3578

> <Gold.Chemscore.DEInternal.Weighted>
2.6072

> <Gold.Chemscore.Rot.Weighted>
4.0284

> <Gold.Chemscore.Internal.Correction.Weighted>
   9.000000E+99

> <Gold.Protein.RotatedTorsions>
[ 6907 6896 6895 6894 ] final  -55.33 input  -60.11 | X-H torsion
[ 7974 7965 7964 7962 ] final -152.25 input  175.53 | X-H torsion
[ 8008 7997 7996 7995 ] final  176.24 input   59.86 | X-H torsion
[ 10167 10162 10161 10158 ] final  150.94 input  -65.29 | X-H torsion
[ 10718 10713 10712 10709 ] final  -16.08 input   66.30 | X-H torsion
[ 10763 10752 10751 10750 ] final  133.29 input  -60.55 | X-H torsion
[ 11005 11000 10999 10996 ] final  -77.74 input  -57.11 | X-H torsion

> <Gold.Protein.ActiveResidues>
 VAL166  LYS551  ARG553  GLY616  TRP617  ASP618  TYR619  PRO620  LYS621  CYS622 
 ASP623  PHE694  ASN695  SER759  ASP760  ASP761  ALA762  ILE779  LEU786  VAL792 
 PHE793  MET794  SER795  GLU796  ALA797  LYS798  CYS799  TRP800  GLU811  SER814 

> <Gold.Protein.RotatedAtoms>
  150.8261  134.7492  159.6813 H   0  0  0  0  0  0  0  0  0  0  0  0  # atno 6907 bound_to 6896
  152.4371  134.5661  159.9918 H   0  0  0  0  0  0  0  0  0  0  0  0  # atno 6908 bound_to 6896
  151.5833  133.3337  159.3049 H   0  0  0  0  0  0  0  0  0  0  0  0  # atno 6909 bound_to 6896
  144.7804  140.4687  143.5843 H   0  0  0  0  0  0  0  0  0  0  0  0  # atno 7974 bound_to 7965
  156.0785  140.1388  156.9741 H   0  0  0  0  0  0  0  0  0  0  0  0  # atno 8008 bound_to 7997
  154.4571  140.0957  156.6839 H   0  0  0  0  0  0  0  0  0  0  0  0  # atno 8009 bound_to 7997
  155.5113  140.3454  155.4391 H   0  0  0  0  0  0  0  0  0  0  0  0  # atno 8010 bound_to 7997
  139.4845  144.5481  151.7448 H   0  0  0  0  0  0  0  0  0  0  0  0  # atno 10167 bound_to 10162
  156.5926  130.4803  149.6273 H   0  0  0  0  0  0  0  0  0  0  0  0  # atno 10718 bound_to 10713
  153.8047  135.3137  155.3394 H   0  0  0  0  0  0  0  0  0  0  0  0  # atno 10763 bound_to 10752
  154.8075  135.4688  154.0433 H   0  0  0  0  0  0  0  0  0  0  0  0  # atno 10764 bound_to 10752
  153.1792  135.6891  153.8589 H   0  0  0  0  0  0  0  0  0  0  0  0  # atno 10765 bound_to 10752
  141.1662  133.7035  156.7867 H   0  0  0  0  0  0  0  0  0  0  0  0  # atno 11005 bound_to 11000
  145.6066  139.1509  143.3099 LP  0  0  0  0  0  0  0  0  0  0  0  0  # atno 17320 bound_to 7965
  146.2009  140.6184  142.9103 LP  0  0  0  0  0  0  0  0  0  0  0  0  # atno 17321 bound_to 7965
  140.5031  144.1139  150.5976 LP  0  0  0  0  0  0  0  0  0  0  0  0  # atno 17342 bound_to 10162
  140.4039  143.2690  151.9915 LP  0  0  0  0  0  0  0  0  0  0  0  0  # atno 17343 bound_to 10162
  156.2537  130.6922  151.1668 LP  0  0  0  0  0  0  0  0  0  0  0  0  # atno 17370 bound_to 10713
  157.7300  131.0620  150.5748 LP  0  0  0  0  0  0  0  0  0  0  0  0  # atno 17371 bound_to 10713
  140.2355  134.8653  157.3520 LP  0  0  0  0  0  0  0  0  0  0  0  0  # atno 17394 bound_to 11000
  140.1848  134.4445  155.7750 LP  0  0  0  0  0  0  0  0  0  0  0  0  # atno 17395 bound_to 11000

$$$$
