AV-unprocessed.smi:1560|AV-procd|sdf|6276|dock5
  -GOLD-   22720 6473D 1   1.00000     0.00000
 Structure written by MMmdl.
 47 48  0  0  0  0  0  0  0  0  1 V2000
  144.6940  138.3450  156.5406 C   0  0  0  0  0  0  0  0  0  0  0  0
  146.1286  138.8934  156.4368 C   0  0  0  0  0  0  0  0  0  0  0  0
  146.9965  138.2985  155.2815 C   0  0  2  0  0  0  0  0  0  0  0  0
  146.2857  138.6879  153.9557 C   0  0  0  0  0  0  0  0  0  0  0  0
  146.9761  136.7428  155.4102 C   0  0  0  0  0  0  0  0  0  0  0  0
  147.1531  136.0763  154.1247 N   0  0  0  0  0  0  0  0  0  0  0  0
  146.3378  135.1541  153.5895 C   0  0  0  0  0  0  0  0  0  0  0  0
  145.3359  134.7319  154.1654 O   0  0  0  0  0  0  0  0  0  0  0  0
  146.6862  134.6156  152.1905 C   0  0  0  0  0  0  0  0  0  0  0  0
  145.5955  133.8754  151.5325 N   0  0  0  0  0  0  0  0  0  0  0  0
  145.8436  132.6407  150.9493 C   0  0  0  0  0  0  0  0  0  0  0  0
  144.8995  131.9194  150.2999 C   0  0  0  0  0  0  0  0  0  0  0  0
  143.5363  132.4249  150.1800 C   0  0  0  0  0  0  0  0  0  0  0  0
  142.6136  131.8480  149.6092 O   0  0  0  0  0  0  0  0  0  0  0  0
  143.3255  133.6690  150.7805 N   0  0  0  0  0  0  0  0  0  0  0  0
  144.2934  134.4172  151.4521 C   0  0  0  0  0  0  0  0  0  0  0  0
  144.0038  135.5103  151.9366 O   0  0  0  0  0  0  0  0  0  0  0  0
  148.3822  138.8466  155.3142 N   0  0  0  0  0  0  0  0  0  0  0  0
  148.4772  140.3102  155.2612 C   0  0  0  0  0  0  0  0  0  0  0  0
  149.9238  140.8003  155.4437 C   0  0  0  0  0  0  0  0  0  0  0  0
  150.7590  140.2107  154.4548 O   0  0  0  0  0  0  0  0  0  0  0  0
  150.7400  138.7891  154.5047 C   0  0  0  0  0  0  0  0  0  0  0  0
  149.2999  138.2827  154.3163 C   0  0  0  0  0  0  0  0  0  0  0  0
  142.3959  134.0591  150.7223 H   0  0  0  0  0  0  0  0  0  0  0  0
  144.1650  138.8175  157.3683 H   0  0  0  0  0  0  0  0  0  0  0  0
  144.6830  137.2709  156.7222 H   0  0  0  0  0  0  0  0  0  0  0  0
  144.1187  138.5386  155.6353 H   0  0  0  0  0  0  0  0  0  0  0  0
  146.0846  139.9794  156.3559 H   0  0  0  0  0  0  0  0  0  0  0  0
  146.6124  138.7152  157.3976 H   0  0  0  0  0  0  0  0  0  0  0  0
  145.2093  138.5159  153.9991 H   0  0  0  0  0  0  0  0  0  0  0  0
  146.6550  138.1077  153.1098 H   0  0  0  0  0  0  0  0  0  0  0  0
  146.4310  139.7414  153.7151 H   0  0  0  0  0  0  0  0  0  0  0  0
  147.7735  136.3904  156.0640 H   0  0  0  0  0  0  0  0  0  0  0  0
  146.0376  136.4119  155.8560 H   0  0  0  0  0  0  0  0  0  0  0  0
  147.9526  136.3630  153.5786 H   0  0  0  0  0  0  0  0  0  0  0  0
  146.9886  135.4602  151.5697 H   0  0  0  0  0  0  0  0  0  0  0  0
  147.5767  133.9893  152.2685 H   0  0  0  0  0  0  0  0  0  0  0  0
  146.8419  132.2302  151.0078 H   0  0  0  0  0  0  0  0  0  0  0  0
  145.1551  130.9643  149.8642 H   0  0  0  0  0  0  0  0  0  0  0  0
  148.1009  140.6805  154.3078 H   0  0  0  0  0  0  0  0  0  0  0  0
  147.8715  140.7686  156.0411 H   0  0  0  0  0  0  0  0  0  0  0  0
  149.9711  141.8852  155.3480 H   0  0  0  0  0  0  0  0  0  0  0  0
  150.2932  140.5496  156.4394 H   0  0  0  0  0  0  0  0  0  0  0  0
  151.3847  138.3980  153.7176 H   0  0  0  0  0  0  0  0  0  0  0  0
  151.1498  138.4442  155.4553 H   0  0  0  0  0  0  0  0  0  0  0  0
  149.3188  137.1958  154.3720 H   0  0  0  0  0  0  0  0  0  0  0  0
  148.9705  138.5420  153.3102 H   0  0  0  0  0  0  0  0  0  0  0  0
  1  2  1  0  0  0  0
  1 25  1  0  0  0  0
  1 26  1  0  0  0  0
  1 27  1  0  0  0  0
  2  3  1  0  0  0  0
  2 28  1  0  0  0  0
  2 29  1  0  0  0  0
  3  4  1  0  0  0  0
  3  5  1  0  0  0  0
  3 18  1  0  0  0  0
  4 30  1  0  0  0  0
  4 31  1  0  0  0  0
  4 32  1  0  0  0  0
  5  6  1  0  0  0  0
  5 33  1  0  0  0  0
  5 34  1  0  0  0  0
  6  7  1  0  0  0  0
  6 35  1  0  0  0  0
  7  8  2  0  0  0  0
  7  9  1  0  0  0  0
  9 10  1  0  0  0  0
  9 36  1  0  0  0  0
  9 37  1  0  0  0  0
 10 16  1  0  0  0  0
 10 11  1  0  0  0  0
 11 12  2  0  0  0  0
 11 38  1  0  0  0  0
 12 13  1  0  0  0  0
 12 39  1  0  0  0  0
 13 14  2  0  0  0  0
 13 15  1  0  0  0  0
 15 24  1  0  0  0  0
 15 16  1  0  0  0  0
 16 17  2  0  0  0  0
 18 23  1  0  0  0  0
 18 19  1  0  0  0  0
 19 20  1  0  0  0  0
 19 40  1  0  0  0  0
 19 41  1  0  0  0  0
 20 21  1  0  0  0  0
 20 42  1  0  0  0  0
 20 43  1  0  0  0  0
 21 22  1  0  0  0  0
 22 23  1  0  0  0  0
 22 44  1  0  0  0  0
 22 45  1  0  0  0  0
 23 46  1  0  0  0  0
 23 47  1  0  0  0  0
M  END
> <s_m_source_file>
AV-unprocessed.smi

> <i_m_source_file_index>
1560

> <i_lp_mmshare_version>
43012

> <i_f3d_flags>
0

> <s_epik_input>
W0NIMl0xW0NIMl1PW0NIMl1bQ0gyXU4xW0NAQF0oW0NIM10pKFtDSDJdW0NIM10pW0NIMl1bTkhdQyg9TylbQ0gyXW4yW2NIXVtjSF1jKD1PKVtuSF1jMj1P

> <s_epik_cmdline>
J2VwaWtfcHl0aG9uJywgJy1waCcsICc3LjAnLCAnLXRuJywgJzgnLCAnLW1hJywgJzIwMCcsICctbWV0YWxfYmluZGluZycsICctaW1hZScsICc8aW5maWxlLm1hZT4nLCAnLW9tYWUnLCAnPG91dGZpbGUubWFlPic=

> <r_lp_tautomer_probability>
0.999537

> <r_epik_Ionization_Penalty>
0.321965

> <r_epik_Ionization_Penalty_Charging>
0.00329831

> <r_epik_Ionization_Penalty_Neutral>
0.318667

> <r_epik_State_Penalty>
0.288097

> <r_epik_Charging_Adjusted_Penalty>
0.291396

> <i_epik_Tot_Q>
0

> <i_epik_Tot_abs_Q>
0

> <r_epik_Metal_State_Penalty>
0.654595

> <b_epik_Metal_Only>
0

> <s_lp_Force_Field>
OPLS_2005

> <r_lp_Energy>
43.0709

> <b_lp_Chiralities_Consistent>
1

> <s_lp_Variant>
AV-unprocessed.smi:1560-2

> <Gold.Version>
5.8.1

> <Gold.Id.Protein>
6NUR|6NUR_protein|mol2

> <Gold.PLP.Fitness>
40.8420

> <Gold.PLP.PLP>
-27.9190

> <Gold.PLP.part.hbond>
-4.0000

> <Gold.PLP.part.metal>
0.0000

> <Gold.PLP.part.buried>
-1.8697

> <Gold.PLP.part.nonpolar>
-25.3791

> <Gold.PLP.part.repulsive>
2.0341

> <Gold.PLP.ligand.clash>
0.0000

> <Gold.PLP.ligand.torsion>
0.7791

> <Gold.PLP.Chemscore.Hbond>
3.7920

> <Gold.PLP.Chemscore.CHOScore>
1.0000

> <Gold.PLP.Chemscore.Metal>
0.0000

> <Gold.Chemscore.Hbonds>
donor molecule, donor type, donor heavy atom, donor atom, acceptor molecule, acceptor atom, score
      L1  H     6    35       P1  7948  0.96
      L1  H    15    24       P1 10186  0.88
      P1  H  7989  7998       L1    21  0.80
      P1  H 10785 10796       L1    14  1.00
      L1  C    11    38       P1 10747  0.72

> <Gold.PLP.Chemscore.Internal.Correction>
0.1051

> <Gold.Rescore>
     Score         DG    S(hbond)    S(metal)    S(lipo)     H(rot)  DE(clash)    DE(int)     intcor
     14.18     -17.91       3.76        0.00      53.42       2.49       2.82       0.92       ----

> <Gold.Chemscore.Fitness>
14.1767

> <Gold.Chemscore.DG>
-17.9127

> <Gold.Chemscore.ZeroCoef>
-5.4800

> <Gold.Chemscore.Hbond>
3.7568

> <Gold.Chemscore.Metal>
0.0000

> <Gold.Chemscore.Lipo>
53.4157

> <Gold.Chemscore.Internal_Hbond>
0.0000

> <Gold.Chemscore.DEClash>
2.8179

> <Gold.Chemscore.DEInternal>
0.9181

> <Gold.Chemscore.Rot>
2.4862

> <Gold.Chemscore.Internal.Correction>
   9.000000E+99

> <Gold.Chemscore.Hbonds>
donor molecule, donor type, donor heavy atom, donor atom, acceptor molecule, acceptor atom, score
      L1  H     6    35       P1  7948  0.89
      L1  H    15    24       P1 10186  0.48
      P1  H  7989  7998       L1    21  0.76
      P1  H 10785 10796       L1    14  0.82

> <Gold.Chemscore.Hbond.Weighted>
-12.5477

> <Gold.Chemscore.Metal.Weighted>
-0.0000

> <Gold.Chemscore.Lipo.Weighted>
-6.2496

> <Gold.Chemscore.Internal_Hbond.Weighted>
0.0000

> <Gold.Chemscore.DEClash.Weighted>
2.8179

> <Gold.Chemscore.DEInternal.Weighted>
0.9181

> <Gold.Chemscore.Rot.Weighted>
6.3646

> <Gold.Chemscore.Internal.Correction.Weighted>
   9.000000E+99

> <Gold.Protein.RotatedTorsions>
[ 6907 6896 6895 6894 ] final   96.81 input  -60.11 | X-H torsion
[ 7974 7965 7964 7962 ] final  -71.36 input  175.53 | X-H torsion
[ 8008 7997 7996 7995 ] final   65.20 input   59.86 | X-H torsion
[ 10167 10162 10161 10158 ] final   64.78 input  -65.29 | X-H torsion
[ 10718 10713 10712 10709 ] final  -95.90 input   66.30 | X-H torsion
[ 10763 10752 10751 10750 ] final   47.64 input  -60.55 | X-H torsion
[ 11005 11000 10999 10996 ] final -136.66 input  -57.11 | X-H torsion

> <Gold.Protein.ActiveResidues>
 VAL166  LYS551  ARG553  GLY616  TRP617  ASP618  TYR619  PRO620  LYS621  CYS622 
 ASP623  PHE694  ASN695  SER759  ASP760  ASP761  ALA762  ILE779  LEU786  VAL792 
 PHE793  MET794  SER795  GLU796  ALA797  LYS798  CYS799  TRP800  GLU811  SER814 

> <Gold.Protein.RotatedAtoms>
  152.5431  134.0829  159.8242 H   0  0  0  0  0  0  0  0  0  0  0  0  # atno 6907 bound_to 6896
  151.0928  133.5295  159.2621 H   0  0  0  0  0  0  0  0  0  0  0  0  # atno 6908 bound_to 6896
  151.2080  135.0478  159.8953 H   0  0  0  0  0  0  0  0  0  0  0  0  # atno 6909 bound_to 6896
  145.6790  140.9194  143.0842 H   0  0  0  0  0  0  0  0  0  0  0  0  # atno 7974 bound_to 7965
  155.6580  140.3497  155.4772 H   0  0  0  0  0  0  0  0  0  0  0  0  # atno 8008 bound_to 7997
  155.9792  140.1171  157.0765 H   0  0  0  0  0  0  0  0  0  0  0  0  # atno 8009 bound_to 7997
  154.4187  140.1141  156.5398 H   0  0  0  0  0  0  0  0  0  0  0  0  # atno 8010 bound_to 7997
  140.1185  144.4753  150.6935 H   0  0  0  0  0  0  0  0  0  0  0  0  # atno 10167 bound_to 10162
  156.0052  130.5128  150.6145 H   0  0  0  0  0  0  0  0  0  0  0  0  # atno 10718 bound_to 10713
  152.9798  135.5969  154.3796 H   0  0  0  0  0  0  0  0  0  0  0  0  # atno 10763 bound_to 10752
  154.3462  135.2767  155.2398 H   0  0  0  0  0  0  0  0  0  0  0  0  # atno 10764 bound_to 10752
  154.4458  135.6002  153.6214 H   0  0  0  0  0  0  0  0  0  0  0  0  # atno 10765 bound_to 10752
  140.8784  134.1962  157.4607 H   0  0  0  0  0  0  0  0  0  0  0  0  # atno 11005 bound_to 11000
  144.7032  139.8672  143.7438 LP  0  0  0  0  0  0  0  0  0  0  0  0  # atno 17320 bound_to 7965
  146.0980  139.3974  143.0364 LP  0  0  0  0  0  0  0  0  0  0  0  0  # atno 17321 bound_to 7965
  140.6886  143.2363  151.5194 LP  0  0  0  0  0  0  0  0  0  0  0  0  # atno 17342 bound_to 10162
  139.5581  144.2224  152.1647 LP  0  0  0  0  0  0  0  0  0  0  0  0  # atno 17343 bound_to 10162
  157.3972  131.0804  151.1341 LP  0  0  0  0  0  0  0  0  0  0  0  0  # atno 17370 bound_to 10713
  157.2014  130.6396  149.5740 LP  0  0  0  0  0  0  0  0  0  0  0  0  # atno 17371 bound_to 10713
  139.8717  134.9806  156.5083 LP  0  0  0  0  0  0  0  0  0  0  0  0  # atno 17394 bound_to 11000
  140.8490  133.8146  155.9150 LP  0  0  0  0  0  0  0  0  0  0  0  0  # atno 17395 bound_to 11000

$$$$
