AV-unprocessed.smi:1830|AV-procd|sdf|7435|dock5
  -GOLD-   22720 9123D 1   1.00000     0.00000
 Structure written by MMmdl.
 53 56  0  0  0  0  0  0  0  0  2 V2000
  146.0959  137.1730  153.3229 O   0  0  0  0  0  0  0  0  0  0  0  0
  147.1942  136.9036  153.8096 C   0  0  0  0  0  0  0  0  0  0  0  0
  147.6385  135.6502  153.9756 N   0  0  0  0  0  0  0  0  0  0  0  0
  146.9025  134.4484  153.5974 C   0  0  0  0  0  0  0  0  0  0  0  0
  146.1919  134.6090  152.2414 C   0  0  1  0  0  0  0  0  0  0  0  0
  146.3018  133.3388  151.3837 C   0  0  0  0  0  0  0  0  0  0  0  0
  145.5818  133.4925  150.0942 N   0  3  1  0  0  0  0  0  0  0  0  0
  145.4284  132.2050  149.3810 C   0  0  0  0  0  0  0  0  0  0  0  0
  144.0135  131.6885  149.7015 C   0  0  0  0  0  0  0  0  0  0  0  0
  143.3503  132.7874  150.5395 C   0  0  0  0  0  0  0  0  0  0  0  0
  144.2093  134.0200  150.2570 C   0  0  1  0  0  0  0  0  0  0  0  0
  144.1128  135.1646  151.2867 C   0  0  0  0  0  0  0  0  0  0  0  0
  144.8102  134.8443  152.4820 O   0  0  0  0  0  0  0  0  0  0  0  0
  148.1023  137.8024  154.2245 N   0  0  0  0  0  0  0  0  0  0  0  0
  148.0156  139.2236  154.1947 C   0  0  0  0  0  0  0  0  0  0  0  0
  146.8181  139.8892  153.8346 C   0  0  0  0  0  0  0  0  0  0  0  0
  146.7909  141.2937  153.8025 C   0  0  0  0  0  0  0  0  0  0  0  0
  147.9652  141.9883  154.1354 C   0  0  0  0  0  0  0  0  0  0  0  0
  149.1067  141.3716  154.4999 N   0  0  0  0  0  0  0  0  0  0  0  0
  149.1444  140.0171  154.5513 C   0  0  0  0  0  0  0  0  0  0  0  0
  150.3621  139.4287  154.9635 N   0  0  0  0  0  0  0  0  0  0  0  0
  151.3591  140.2859  155.5981 C   0  0  0  0  0  0  0  0  0  0  0  0
  152.7273  139.7904  155.1175 C   0  0  0  0  0  0  0  0  0  0  0  0
  152.4552  138.3577  154.6698 C   0  0  0  0  0  0  0  0  0  0  0  0
  151.0377  138.4536  154.1133 C   0  0  0  0  0  0  0  0  0  0  0  0
  148.5538  135.5168  154.3805 H   0  0  0  0  0  0  0  0  0  0  0  0
  147.5891  133.6006  153.5674 H   0  0  0  0  0  0  0  0  0  0  0  0
  146.1751  134.2284  154.3794 H   0  0  0  0  0  0  0  0  0  0  0  0
  146.6274  135.4507  151.6995 H   0  0  0  0  0  0  0  0  0  0  0  0
  147.3485  133.1099  151.1790 H   0  0  0  0  0  0  0  0  0  0  0  0
  145.8949  132.4909  151.9373 H   0  0  0  0  0  0  0  0  0  0  0  0
  145.5142  132.3947  148.3104 H   0  0  0  0  0  0  0  0  0  0  0  0
  146.2055  131.4856  149.6441 H   0  0  0  0  0  0  0  0  0  0  0  0
  143.4584  131.5176  148.7784 H   0  0  0  0  0  0  0  0  0  0  0  0
  144.0416  130.7449  150.2470 H   0  0  0  0  0  0  0  0  0  0  0  0
  142.3014  132.9378  150.2821 H   0  0  0  0  0  0  0  0  0  0  0  0
  143.3995  132.5262  151.5975 H   0  0  0  0  0  0  0  0  0  0  0  0
  143.9018  134.4134  149.2865 H   0  0  0  0  0  0  0  0  0  0  0  0
  144.5237  136.0846  150.8678 H   0  0  0  0  0  0  0  0  0  0  0  0
  143.0694  135.3723  151.5247 H   0  0  0  0  0  0  0  0  0  0  0  0
  148.9983  137.4319  154.5050 H   0  0  0  0  0  0  0  0  0  0  0  0
  145.9176  139.3474  153.5895 H   0  0  0  0  0  0  0  0  0  0  0  0
  145.8921  141.8250  153.5268 H   0  0  0  0  0  0  0  0  0  0  0  0
  147.9875  143.0677  154.1170 H   0  0  0  0  0  0  0  0  0  0  0  0
  151.2104  141.3396  155.3571 H   0  0  0  0  0  0  0  0  0  0  0  0
  151.2828  140.1702  156.6793 H   0  0  0  0  0  0  0  0  0  0  0  0
  153.0531  140.3847  154.2629 H   0  0  0  0  0  0  0  0  0  0  0  0
  153.4968  139.8580  155.8868 H   0  0  0  0  0  0  0  0  0  0  0  0
  153.1755  137.9935  153.9368 H   0  0  0  0  0  0  0  0  0  0  0  0
  152.4753  137.6878  155.5303 H   0  0  0  0  0  0  0  0  0  0  0  0
  150.5290  137.4896  154.1322 H   0  0  0  0  0  0  0  0  0  0  0  0
  151.0779  138.7994  153.0796 H   0  0  0  0  0  0  0  0  0  0  0  0
  146.1143  134.1348  149.5245 H   0  0  0  0  0  0  0  0  0  0  0  0
  1  2  2  0  0  0  0
  2  3  1  0  0  0  0
  2 14  1  0  0  0  0
  3  4  1  0  0  0  0
  3 26  1  0  0  0  0
  4  5  1  0  0  0  0
  4 27  1  0  0  0  0
  4 28  1  0  0  0  0
  5 13  1  0  0  0  0
  5  6  1  0  0  0  0
  5 29  1  0  0  0  0
  6  7  1  0  0  0  0
  6 30  1  0  0  0  0
  6 31  1  0  0  0  0
  7 11  1  0  0  0  0
  7  8  1  0  0  0  0
  7 53  1  0  0  0  0
  8  9  1  0  0  0  0
  8 32  1  0  0  0  0
  8 33  1  0  0  0  0
  9 10  1  0  0  0  0
  9 34  1  0  0  0  0
  9 35  1  0  0  0  0
 10 11  1  0  0  0  0
 10 36  1  0  0  0  0
 10 37  1  0  0  0  0
 11 12  1  0  0  0  0
 11 38  1  0  0  0  0
 12 13  1  0  0  0  0
 12 39  1  0  0  0  0
 12 40  1  0  0  0  0
 14 15  1  0  0  0  0
 14 41  1  0  0  0  0
 15 20  1  0  0  0  0
 15 16  2  0  0  0  0
 16 17  1  0  0  0  0
 16 42  1  0  0  0  0
 17 18  2  0  0  0  0
 17 43  1  0  0  0  0
 18 19  1  0  0  0  0
 18 44  1  0  0  0  0
 19 20  2  0  0  0  0
 20 21  1  0  0  0  0
 21 25  1  0  0  0  0
 21 22  1  0  0  0  0
 22 23  1  0  0  0  0
 22 45  1  0  0  0  0
 22 46  1  0  0  0  0
 23 24  1  0  0  0  0
 23 47  1  0  0  0  0
 23 48  1  0  0  0  0
 24 25  1  0  0  0  0
 24 49  1  0  0  0  0
 24 50  1  0  0  0  0
 25 51  1  0  0  0  0
 25 52  1  0  0  0  0
M  CHG  1   7   1
M  END
> <s_m_source_file>
AV-unprocessed.smi

> <i_m_source_file_index>
1830

> <i_lp_mmshare_version>
43012

> <i_f3d_flags>
0

> <s_epik_input>
W0NIMl0xW0NIMl1bQ0gyXVtDQEhdKE4xMilbQ0gyXU9bQ0BASF0oW0NIMl0yKVtDSDJdW05IXUMoPU8pW05IXWMzW2NIXVtjSF1bY0hdbmMzTjRbQ0gyXVtDSDJdW0NIMl1bQ0gyXTQ=

> <s_epik_cmdline>
J2VwaWtfcHl0aG9uJywgJy1waCcsICc3LjAnLCAnLXRuJywgJzgnLCAnLW1hJywgJzIwMCcsICctbWV0YWxfYmluZGluZycsICctaW1hZScsICc8aW5maWxlLm1hZT4nLCAnLW9tYWUnLCAnPG91dGZpbGUubWFlPic=

> <r_lp_tautomer_probability>
1

> <r_epik_Ionization_Penalty>
0.193547

> <r_epik_Ionization_Penalty_Charging>
0.10673

> <r_epik_Ionization_Penalty_Neutral>
0.0868166

> <r_epik_State_Penalty>
0.173595

> <r_epik_Charging_Adjusted_Penalty>
0.280326

> <i_epik_Tot_Q>
1

> <i_epik_Tot_abs_Q>
1

> <r_epik_Metal_State_Penalty>
0.164683

> <b_epik_Metal_Only>
0

> <s_lp_Force_Field>
OPLS_2005

> <r_lp_Energy>
64.3317

> <b_lp_Chiralities_Consistent>
1

> <s_lp_Variant>
AV-unprocessed.smi:1830-4

> <Gold.Version>
5.8.1

> <Gold.Id.Protein>
6NUR|6NUR_protein|mol2

> <Gold.PLP.Fitness>
39.5030

> <Gold.PLP.PLP>
-36.2659

> <Gold.PLP.part.hbond>
-3.1954

> <Gold.PLP.part.metal>
0.0000

> <Gold.PLP.part.buried>
6.8599

> <Gold.PLP.part.nonpolar>
-39.3021

> <Gold.PLP.part.repulsive>
0.5647

> <Gold.PLP.ligand.clash>
0.0000

> <Gold.PLP.ligand.torsion>
0.9227

> <Gold.PLP.Chemscore.Hbond>
0.5866

> <Gold.PLP.Chemscore.CHOScore>
1.0000

> <Gold.PLP.Chemscore.Metal>
0.0000

> <Gold.Chemscore.Hbonds>
donor molecule, donor type, donor heavy atom, donor atom, acceptor molecule, acceptor atom, score
      L1  H     7    53       P1  7921  0.67
      L1  C    18    44       P1  8028  1.00

> <Gold.PLP.Chemscore.Internal.Correction>
0.3227

> <Gold.Rescore>
     Score         DG    S(hbond)    S(metal)    S(lipo)     H(rot)  DE(clash)    DE(int)     intcor
      8.07     -13.75       0.00        0.00     101.48       1.41       0.46       5.22       ----

> <Gold.Chemscore.Fitness>
8.0741

> <Gold.Chemscore.DG>
-13.7524

> <Gold.Chemscore.ZeroCoef>
-5.4800

> <Gold.Chemscore.Hbond>
0.0000

> <Gold.Chemscore.Metal>
0.0000

> <Gold.Chemscore.Lipo>
101.4831

> <Gold.Chemscore.Internal_Hbond>
0.0000

> <Gold.Chemscore.DEClash>
0.4577

> <Gold.Chemscore.DEInternal>
5.2206

> <Gold.Chemscore.Rot>
1.4067

> <Gold.Chemscore.Internal.Correction>
   9.000000E+99

> <Gold.Chemscore.Hbonds>
donor molecule, donor type, donor heavy atom, donor atom, acceptor molecule, acceptor atom, score
      L1  H     7    53       P1  7921  0.11

> <Gold.Chemscore.Hbond.Weighted>
-0.0000

> <Gold.Chemscore.Metal.Weighted>
-0.0000

> <Gold.Chemscore.Lipo.Weighted>
-11.8735

> <Gold.Chemscore.Internal_Hbond.Weighted>
0.0000

> <Gold.Chemscore.DEClash.Weighted>
0.4577

> <Gold.Chemscore.DEInternal.Weighted>
5.2206

> <Gold.Chemscore.Rot.Weighted>
3.6011

> <Gold.Chemscore.Internal.Correction.Weighted>
   9.000000E+99

> <Gold.Protein.RotatedTorsions>
[ 6907 6896 6895 6894 ] final -110.73 input  -60.11 | X-H torsion
[ 7974 7965 7964 7962 ] final  -57.08 input  175.53 | X-H torsion
[ 8008 7997 7996 7995 ] final -139.58 input   59.86 | X-H torsion
[ 10167 10162 10161 10158 ] final  103.79 input  -65.29 | X-H torsion
[ 10718 10713 10712 10709 ] final   13.17 input   66.30 | X-H torsion
[ 10763 10752 10751 10750 ] final -169.09 input  -60.55 | X-H torsion
[ 11005 11000 10999 10996 ] final   40.26 input  -57.11 | X-H torsion

> <Gold.Protein.ActiveResidues>
 VAL166  LYS551  ARG553  GLY616  TRP617  ASP618  TYR619  PRO620  LYS621  CYS622 
 ASP623  PHE694  ASN695  SER759  ASP760  ASP761  ALA762  ILE779  LEU786  VAL792 
 PHE793  MET794  SER795  GLU796  ALA797  LYS798  CYS799  TRP800  GLU811  SER814 

> <Gold.Protein.RotatedAtoms>
  150.7644  133.9338  159.3434 H   0  0  0  0  0  0  0  0  0  0  0  0  # atno 6907 bound_to 6896
  151.7240  135.0886  160.0298 H   0  0  0  0  0  0  0  0  0  0  0  0  # atno 6908 bound_to 6896
  152.3632  133.6286  159.6066 H   0  0  0  0  0  0  0  0  0  0  0  0  # atno 6909 bound_to 6896
  145.8553  140.8324  142.9965 H   0  0  0  0  0  0  0  0  0  0  0  0  # atno 7974 bound_to 7965
  155.4472  140.0536  157.3005 H   0  0  0  0  0  0  0  0  0  0  0  0  # atno 8008 bound_to 7997
  154.4793  140.2074  155.9759 H   0  0  0  0  0  0  0  0  0  0  0  0  # atno 8009 bound_to 7997
  156.1180  140.3193  155.8172 H   0  0  0  0  0  0  0  0  0  0  0  0  # atno 8010 bound_to 7997
  139.7233  144.7053  151.0838 H   0  0  0  0  0  0  0  0  0  0  0  0  # atno 10167 bound_to 10162
  157.0208  130.6154  149.5721 H   0  0  0  0  0  0  0  0  0  0  0  0  # atno 10718 bound_to 10713
  154.6559  135.2918  154.9928 H   0  0  0  0  0  0  0  0  0  0  0  0  # atno 10763 bound_to 10752
  154.1004  135.6577  153.4871 H   0  0  0  0  0  0  0  0  0  0  0  0  # atno 10764 bound_to 10752
  153.0402  135.5241  154.7489 H   0  0  0  0  0  0  0  0  0  0  0  0  # atno 10765 bound_to 10752
  140.1948  134.3942  155.8127 H   0  0  0  0  0  0  0  0  0  0  0  0  # atno 11005 bound_to 11000
  144.6728  140.1014  143.7460 LP  0  0  0  0  0  0  0  0  0  0  0  0  # atno 17320 bound_to 7965
  145.9311  139.2607  143.1324 LP  0  0  0  0  0  0  0  0  0  0  0  0  # atno 17321 bound_to 7965
  140.7758  143.5138  150.9620 LP  0  0  0  0  0  0  0  0  0  0  0  0  # atno 17342 bound_to 10162
  139.8825  143.7054  152.3155 LP  0  0  0  0  0  0  0  0  0  0  0  0  # atno 17343 bound_to 10162
  156.0103  130.5194  150.7966 LP  0  0  0  0  0  0  0  0  0  0  0  0  # atno 17370 bound_to 10713
  157.5251  131.0933  151.0028 LP  0  0  0  0  0  0  0  0  0  0  0  0  # atno 17371 bound_to 10713
  141.2227  133.7064  156.8157 LP  0  0  0  0  0  0  0  0  0  0  0  0  # atno 17394 bound_to 11000
  140.2119  134.8821  157.3284 LP  0  0  0  0  0  0  0  0  0  0  0  0  # atno 17395 bound_to 11000

$$$$
