AV-unprocessed.smi:1764|AV-procd|sdf|7133|dock5
  -GOLD-   22720 8373D 1   1.00000     0.00000
 Structure written by MMmdl.
 31 32  0  0  0  0  0  0  0  0  1 V2000
  144.4123  136.6561  152.4206 O   0  0  0  0  0  0  0  0  0  0  0  0
  145.6244  136.4681  152.3118 C   0  0  0  0  0  0  0  0  0  0  0  0
  146.5496  137.3480  152.7213 N   0  0  0  0  0  0  0  0  0  0  0  0
  146.2725  138.6401  153.3410 C   0  0  0  0  0  0  0  0  0  0  0  0
  147.4683  139.5995  153.2177 C   0  0  1  0  0  0  0  0  0  0  0  0
  147.2758  140.9669  153.8746 C   0  0  0  0  0  0  0  0  0  0  0  0
  148.7063  141.3885  154.1179 C   0  0  0  0  0  0  0  0  0  0  0  0
  149.3570  140.0673  154.5175 C   0  0  0  0  0  0  0  0  0  0  0  0
  148.6126  139.0441  153.8600 O   0  0  0  0  0  0  0  0  0  0  0  0
  146.1968  135.3784  151.7703 N   0  0  0  0  0  0  0  0  0  0  0  0
  145.5612  134.2239  151.2402 C   0  0  0  0  0  0  0  0  0  0  0  0
  146.4385  133.2129  150.7867 C   0  0  0  0  0  0  0  0  0  0  0  0
  145.9075  132.0257  150.2462 C   0  0  0  0  0  0  0  0  0  0  0  0
  144.5109  131.8792  150.1740 C   0  0  0  0  0  0  0  0  0  0  0  0
  143.7083  132.9334  150.6475 C   0  0  0  0  0  0  0  0  0  0  0  0
  144.2151  134.0723  151.1652 N   0  0  0  0  0  0  0  0  0  0  0  0
  147.5219  137.1103  152.5900 H   0  0  0  0  0  0  0  0  0  0  0  0
  145.3724  139.0945  152.9231 H   0  0  0  0  0  0  0  0  0  0  0  0
  146.0593  138.4618  154.3950 H   0  0  0  0  0  0  0  0  0  0  0  0
  147.7242  139.7410  152.1662 H   0  0  0  0  0  0  0  0  0  0  0  0
  146.7229  141.6684  153.2490 H   0  0  0  0  0  0  0  0  0  0  0  0
  146.7504  140.8674  154.8256 H   0  0  0  0  0  0  0  0  0  0  0  0
  149.1479  141.7620  153.1930 H   0  0  0  0  0  0  0  0  0  0  0  0
  148.8044  142.1608  154.8811 H   0  0  0  0  0  0  0  0  0  0  0  0
  150.4124  140.0280  154.2471 H   0  0  0  0  0  0  0  0  0  0  0  0
  149.2780  139.9139  155.5944 H   0  0  0  0  0  0  0  0  0  0  0  0
  147.2053  135.3718  151.7371 H   0  0  0  0  0  0  0  0  0  0  0  0
  147.5095  133.3413  150.8500 H   0  0  0  0  0  0  0  0  0  0  0  0
  146.5615  131.2418  149.8939 H   0  0  0  0  0  0  0  0  0  0  0  0
  144.0666  130.9831  149.7667 H   0  0  0  0  0  0  0  0  0  0  0  0
  142.6314  132.8603  150.6109 H   0  0  0  0  0  0  0  0  0  0  0  0
  1  2  2  0  0  0  0
  2  3  1  0  0  0  0
  2 10  1  0  0  0  0
  3  4  1  0  0  0  0
  3 17  1  0  0  0  0
  4  5  1  0  0  0  0
  4 18  1  0  0  0  0
  4 19  1  0  0  0  0
  5  9  1  0  0  0  0
  5  6  1  0  0  0  0
  5 20  1  0  0  0  0
  6  7  1  0  0  0  0
  6 21  1  0  0  0  0
  6 22  1  0  0  0  0
  7  8  1  0  0  0  0
  7 23  1  0  0  0  0
  7 24  1  0  0  0  0
  8  9  1  0  0  0  0
  8 25  1  0  0  0  0
  8 26  1  0  0  0  0
 10 11  1  0  0  0  0
 10 27  1  0  0  0  0
 11 16  1  0  0  0  0
 11 12  2  0  0  0  0
 12 13  1  0  0  0  0
 12 28  1  0  0  0  0
 13 14  2  0  0  0  0
 13 29  1  0  0  0  0
 14 15  1  0  0  0  0
 14 30  1  0  0  0  0
 15 16  2  0  0  0  0
 15 31  1  0  0  0  0
M  END
> <s_m_source_file>
AV-unprocessed.smi

> <i_m_source_file_index>
1764

> <i_lp_mmshare_version>
43012

> <i_f3d_flags>
0

> <s_epik_input>
bjFbY0hdW2NIXVtjSF1bY0hdYzFbTkhdQyg9TylbTkhdW0NIMl1bQ0BASF0yW0NIMl1bQ0gyXVtDSDJdTzI=

> <s_epik_cmdline>
J2VwaWtfcHl0aG9uJywgJy1waCcsICc3LjAnLCAnLXRuJywgJzgnLCAnLW1hJywgJzIwMCcsICctbWV0YWxfYmluZGluZycsICctaW1hZScsICc8aW5maWxlLm1hZT4nLCAnLW9tYWUnLCAnPG91dGZpbGUubWFlPic=

> <r_lp_tautomer_probability>
1

> <r_epik_Ionization_Penalty>
4.47751e-05

> <r_epik_Ionization_Penalty_Charging>
0

> <r_epik_Ionization_Penalty_Neutral>
4.47751e-05

> <r_epik_State_Penalty>
-0

> <r_epik_Charging_Adjusted_Penalty>
0

> <i_epik_Tot_Q>
0

> <i_epik_Tot_abs_Q>
0

> <r_epik_Metal_State_Penalty>
-0

> <b_epik_Metal_Only>
0

> <s_lp_Force_Field>
OPLS_2005

> <r_lp_Energy>
18.9713

> <b_lp_Chiralities_Consistent>
1

> <s_lp_Variant>
AV-unprocessed.smi:1764-2

> <Gold.Version>
5.8.1

> <Gold.Id.Protein>
6NUR|6NUR_protein|mol2

> <Gold.PLP.Fitness>
37.6957

> <Gold.PLP.PLP>
-29.0301

> <Gold.PLP.part.hbond>
-2.0000

> <Gold.PLP.part.metal>
0.0000

> <Gold.PLP.part.buried>
-2.6040

> <Gold.PLP.part.nonpolar>
-25.9362

> <Gold.PLP.part.repulsive>
1.2224

> <Gold.PLP.ligand.clash>
0.0000

> <Gold.PLP.ligand.torsion>
0.1507

> <Gold.PLP.Chemscore.Hbond>
2.0000

> <Gold.PLP.Chemscore.CHOScore>
0.9886

> <Gold.PLP.Chemscore.Metal>
0.0000

> <Gold.Chemscore.Hbonds>
donor molecule, donor type, donor heavy atom, donor atom, acceptor molecule, acceptor atom, score
      L1  H     3    17       P1  7948  1.00
      L1  H    10    27       P1  7948  1.00
      L1  C    15    31       P1 10186  0.98

> <Gold.PLP.Chemscore.Internal.Correction>
0.0011

> <Gold.Rescore>
     Score         DG    S(hbond)    S(metal)    S(lipo)     H(rot)  DE(clash)    DE(int)     intcor
     15.71     -17.16       1.95        0.00      71.91       1.27       0.05       1.40       ----

> <Gold.Chemscore.Fitness>
15.7115

> <Gold.Chemscore.DG>
-17.1608

> <Gold.Chemscore.ZeroCoef>
-5.4800

> <Gold.Chemscore.Hbond>
1.9500

> <Gold.Chemscore.Metal>
0.0000

> <Gold.Chemscore.Lipo>
71.9080

> <Gold.Chemscore.Internal_Hbond>
0.0000

> <Gold.Chemscore.DEClash>
0.0523

> <Gold.Chemscore.DEInternal>
1.3970

> <Gold.Chemscore.Rot>
1.2678

> <Gold.Chemscore.Internal.Correction>
   9.000000E+99

> <Gold.Chemscore.Hbonds>
donor molecule, donor type, donor heavy atom, donor atom, acceptor molecule, acceptor atom, score
      L1  H     3    17       P1  7948  0.99
      L1  H    10    27       P1  7948  0.96

> <Gold.Chemscore.Hbond.Weighted>
-6.5130

> <Gold.Chemscore.Metal.Weighted>
-0.0000

> <Gold.Chemscore.Lipo.Weighted>
-8.4132

> <Gold.Chemscore.Internal_Hbond.Weighted>
0.0000

> <Gold.Chemscore.DEClash.Weighted>
0.0523

> <Gold.Chemscore.DEInternal.Weighted>
1.3970

> <Gold.Chemscore.Rot.Weighted>
3.2455

> <Gold.Chemscore.Internal.Correction.Weighted>
   9.000000E+99

> <Gold.Protein.RotatedTorsions>
[ 6907 6896 6895 6894 ] final  -96.51 input  -60.11 | X-H torsion
[ 7974 7965 7964 7962 ] final   61.32 input  175.53 | X-H torsion
[ 8008 7997 7996 7995 ] final  -46.01 input   59.86 | X-H torsion
[ 10167 10162 10161 10158 ] final -146.02 input  -65.29 | X-H torsion
[ 10718 10713 10712 10709 ] final    3.84 input   66.30 | X-H torsion
[ 10763 10752 10751 10750 ] final  -21.83 input  -60.55 | X-H torsion
[ 11005 11000 10999 10996 ] final   72.33 input  -57.11 | X-H torsion

> <Gold.Protein.ActiveResidues>
 VAL166  LYS551  ARG553  GLY616  TRP617  ASP618  TYR619  PRO620  LYS621  CYS622 
 ASP623  PHE694  ASN695  SER759  ASP760  ASP761  ALA762  ILE779  LEU786  VAL792 
 PHE793  MET794  SER795  GLU796  ALA797  LYS798  CYS799  TRP800  GLU811  SER814 

> <Gold.Protein.RotatedAtoms>
  150.6990  134.1492  159.4133 H   0  0  0  0  0  0  0  0  0  0  0  0  # atno 6907 bound_to 6896
  151.9475  135.0182  160.0549 H   0  0  0  0  0  0  0  0  0  0  0  0  # atno 6908 bound_to 6896
  152.2040  133.4826  159.5110 H   0  0  0  0  0  0  0  0  0  0  0  0  # atno 6909 bound_to 6896
  145.8860  139.3477  143.0677 H   0  0  0  0  0  0  0  0  0  0  0  0  # atno 7974 bound_to 7965
  154.4004  140.1382  156.3942 H   0  0  0  0  0  0  0  0  0  0  0  0  # atno 8008 bound_to 7997
  155.7886  140.3479  155.5316 H   0  0  0  0  0  0  0  0  0  0  0  0  # atno 8009 bound_to 7997
  155.8602  140.0955  157.1608 H   0  0  0  0  0  0  0  0  0  0  0  0  # atno 8010 bound_to 7997
  139.7752  143.8180  152.2631 H   0  0  0  0  0  0  0  0  0  0  0  0  # atno 10167 bound_to 10162
  156.8837  130.5663  149.5652 H   0  0  0  0  0  0  0  0  0  0  0  0  # atno 10718 bound_to 10713
  153.6424  135.6984  153.5237 H   0  0  0  0  0  0  0  0  0  0  0  0  # atno 10763 bound_to 10752
  153.2772  135.4197  155.1044 H   0  0  0  0  0  0  0  0  0  0  0  0  # atno 10764 bound_to 10752
  154.8496  135.3593  154.5968 H   0  0  0  0  0  0  0  0  0  0  0  0  # atno 10765 bound_to 10752
  139.9497  134.7250  156.0893 H   0  0  0  0  0  0  0  0  0  0  0  0  # atno 11005 bound_to 11000
  145.8966  140.9270  143.0525 LP  0  0  0  0  0  0  0  0  0  0  0  0  # atno 17320 bound_to 7965
  144.6728  140.0976  143.7462 LP  0  0  0  0  0  0  0  0  0  0  0  0  # atno 17321 bound_to 7965
  139.8226  144.7289  150.9552 LP  0  0  0  0  0  0  0  0  0  0  0  0  # atno 17342 bound_to 10162
  140.7816  143.4144  151.0940 LP  0  0  0  0  0  0  0  0  0  0  0  0  # atno 17343 bound_to 10162
  156.0664  130.5706  150.9296 LP  0  0  0  0  0  0  0  0  0  0  0  0  # atno 17370 bound_to 10713
  157.6125  131.0935  150.8770 LP  0  0  0  0  0  0  0  0  0  0  0  0  # atno 17371 bound_to 10713
  141.1156  133.6629  156.3086 LP  0  0  0  0  0  0  0  0  0  0  0  0  # atno 17394 bound_to 11000
  140.5749  134.5803  157.5466 LP  0  0  0  0  0  0  0  0  0  0  0  0  # atno 17395 bound_to 11000

$$$$
