AV-unprocessed.smi:1511|AV-procd|sdf|6098|dock8
  -GOLD-   22720 6223D 1   1.00000     0.00000
 Structure written by MMmdl.
 32 33  0  0  0  0  0  0  0  0  1 V2000
  147.0313  137.7789  159.6073 O   0  0  0  0  0  0  0  0  0  0  0  0
  148.0610  137.2621  159.1751 C   0  0  0  0  0  0  0  0  0  0  0  0
  148.5241  135.9074  159.7158 C   0  0  0  0  0  0  0  0  0  0  0  0
  147.9930  135.6607  161.0463 N   0  0  0  0  0  0  0  0  0  0  0  0
  147.3641  134.5287  161.5218 C   0  0  0  0  0  0  0  0  0  0  0  0
  147.0234  134.7681  162.8222 C   0  0  0  0  0  0  0  0  0  0  0  0
  147.4941  136.0901  163.0570 C   0  0  0  0  0  0  0  0  0  0  0  0
  148.0747  136.6212  161.9932 N   0  0  0  0  0  0  0  0  0  0  0  0
  148.8217  137.8183  158.2193 N   0  0  0  0  0  0  0  0  0  0  0  0
  148.4906  139.0332  157.4844 C   0  0  0  0  0  0  0  0  0  0  0  0
  149.4567  139.2759  156.3067 C   0  0  2  0  0  0  0  0  0  0  0  0
  148.9693  138.6689  154.9734 C   0  0  0  0  0  0  0  0  0  0  0  0
  150.1209  138.7201  153.9659 C   0  0  0  0  0  0  0  0  0  0  0  0
  151.6429  138.4499  154.9466 S   0  0  0  0  0  0  0  0  0  0  0  0
  152.0426  137.0380  154.8497 O   0  0  0  0  0  0  0  0  0  0  0  0
  152.5991  139.5292  154.6568 O   0  0  0  0  0  0  0  0  0  0  0  0
  150.8685  138.7353  156.5842 C   0  0  0  0  0  0  0  0  0  0  0  0
  148.1940  135.1118  159.0466 H   0  0  0  0  0  0  0  0  0  0  0  0
  149.6139  135.8669  159.7533 H   0  0  0  0  0  0  0  0  0  0  0  0
  147.2091  133.6585  160.9009 H   0  0  0  0  0  0  0  0  0  0  0  0
  146.5151  134.1007  163.5020 H   0  0  0  0  0  0  0  0  0  0  0  0
  147.4304  136.6759  163.9619 H   0  0  0  0  0  0  0  0  0  0  0  0
  149.6581  137.3289  157.9359 H   0  0  0  0  0  0  0  0  0  0  0  0
  147.4606  138.9828  157.1275 H   0  0  0  0  0  0  0  0  0  0  0  0
  148.5351  139.8694  158.1828 H   0  0  0  0  0  0  0  0  0  0  0  0
  149.5529  140.3516  156.1515 H   0  0  0  0  0  0  0  0  0  0  0  0
  148.6859  137.6282  155.1351 H   0  0  0  0  0  0  0  0  0  0  0  0
  148.0882  139.1831  154.5876 H   0  0  0  0  0  0  0  0  0  0  0  0
  150.0380  137.9709  153.1786 H   0  0  0  0  0  0  0  0  0  0  0  0
  150.1865  139.7067  153.5064 H   0  0  0  0  0  0  0  0  0  0  0  0
  151.4763  139.4235  157.1717 H   0  0  0  0  0  0  0  0  0  0  0  0
  150.8305  137.7778  157.1039 H   0  0  0  0  0  0  0  0  0  0  0  0
  1  2  2  0  0  0  0
  2  3  1  0  0  0  0
  2  9  1  0  0  0  0
  3  4  1  0  0  0  0
  3 18  1  0  0  0  0
  3 19  1  0  0  0  0
  4  8  1  0  0  0  0
  4  5  1  0  0  0  0
  5  6  2  0  0  0  0
  5 20  1  0  0  0  0
  6  7  1  0  0  0  0
  6 21  1  0  0  0  0
  7  8  2  0  0  0  0
  7 22  1  0  0  0  0
  9 10  1  0  0  0  0
  9 23  1  0  0  0  0
 10 11  1  0  0  0  0
 10 24  1  0  0  0  0
 10 25  1  0  0  0  0
 11 17  1  0  0  0  0
 11 12  1  0  0  0  0
 11 26  1  0  0  0  0
 12 13  1  0  0  0  0
 12 27  1  0  0  0  0
 12 28  1  0  0  0  0
 13 14  1  0  0  0  0
 13 29  1  0  0  0  0
 13 30  1  0  0  0  0
 14 15  2  0  0  0  0
 14 16  2  0  0  0  0
 14 17  1  0  0  0  0
 17 31  1  0  0  0  0
 17 32  1  0  0  0  0
M  END
> <s_m_source_file>
AV-unprocessed.smi

> <i_m_source_file_index>
1511

> <i_lp_mmshare_version>
43012

> <i_f3d_flags>
0

> <s_epik_input>
bjFbY0hdW2NIXVtjSF1uMVtDSDJdQyg9TylbTkhdW0NIMl1bQ0BASF0oW0NIMl0yKVtDSDJdW0NIMl1TMig9Tyk9Tw==

> <s_epik_cmdline>
J2VwaWtfcHl0aG9uJywgJy1waCcsICc3LjAnLCAnLXRuJywgJzgnLCAnLW1hJywgJzIwMCcsICctbWV0YWxfYmluZGluZycsICctaW1hZScsICc8aW5maWxlLm1hZT4nLCAnLW9tYWUnLCAnPG91dGZpbGUubWFlPic=

> <r_lp_tautomer_probability>
1

> <r_epik_Ionization_Penalty>
1.34373e-05

> <r_epik_Ionization_Penalty_Charging>
0

> <r_epik_Ionization_Penalty_Neutral>
1.34373e-05

> <r_epik_State_Penalty>
-0

> <r_epik_Charging_Adjusted_Penalty>
0

> <i_epik_Tot_Q>
0

> <i_epik_Tot_abs_Q>
0

> <r_epik_Metal_State_Penalty>
-0

> <b_epik_Metal_Only>
0

> <s_lp_Force_Field>
OPLS_2005

> <r_lp_Energy>
3.80917

> <b_lp_Chiralities_Consistent>
1

> <s_lp_Variant>
AV-unprocessed.smi:1511-1

> <Gold.Version>
5.8.1

> <Gold.Id.Protein>
6NUR|6NUR_protein|mol2

> <Gold.PLP.Fitness>
40.8005

> <Gold.PLP.PLP>
-30.5146

> <Gold.PLP.part.hbond>
-4.9953

> <Gold.PLP.part.metal>
0.0000

> <Gold.PLP.part.buried>
-5.1760

> <Gold.PLP.part.nonpolar>
-22.1911

> <Gold.PLP.part.repulsive>
0.2211

> <Gold.PLP.ligand.clash>
0.0000

> <Gold.PLP.ligand.torsion>
0.8859

> <Gold.PLP.Chemscore.Hbond>
4.0166

> <Gold.PLP.Chemscore.CHOScore>
0.0000

> <Gold.PLP.Chemscore.Metal>
0.0000

> <Gold.Chemscore.Hbonds>
donor molecule, donor type, donor heavy atom, donor atom, acceptor molecule, acceptor atom, score
      P1  H  6931  6943       L1     8  1.00
      P1  H  6934  6947       L1     1  0.82
      P1  H  7989  7998       L1    16  0.58
      P1  H  7997  8010       L1    16  0.28
      P1  H 10752 10763       L1    15  0.93

> <Gold.PLP.Chemscore.Internal.Correction>
0.0078

> <Gold.Rescore>
     Score         DG    S(hbond)    S(metal)    S(lipo)     H(rot)  DE(clash)    DE(int)     intcor
     17.28     -19.51       3.70        0.00      54.00       1.82       0.13       2.10       ----

> <Gold.Chemscore.Fitness>
17.2816

> <Gold.Chemscore.DG>
-19.5107

> <Gold.Chemscore.ZeroCoef>
-5.4800

> <Gold.Chemscore.Hbond>
3.7027

> <Gold.Chemscore.Metal>
0.0000

> <Gold.Chemscore.Lipo>
53.9955

> <Gold.Chemscore.Internal_Hbond>
0.0000

> <Gold.Chemscore.DEClash>
0.1334

> <Gold.Chemscore.DEInternal>
2.0957

> <Gold.Chemscore.Rot>
1.8178

> <Gold.Chemscore.Internal.Correction>
   9.000000E+99

> <Gold.Chemscore.Hbonds>
donor molecule, donor type, donor heavy atom, donor atom, acceptor molecule, acceptor atom, score
      P1  H  6931  6943       L1     8  1.00
      P1  H  6934  6947       L1     1  0.78
      P1  H  7989  7998       L1    16  0.37
      P1  H  7997  8010       L1    16  0.27
      P1  H 10752 10763       L1    15  0.90

> <Gold.Chemscore.Hbond.Weighted>
-12.3669

> <Gold.Chemscore.Metal.Weighted>
-0.0000

> <Gold.Chemscore.Lipo.Weighted>
-6.3175

> <Gold.Chemscore.Internal_Hbond.Weighted>
0.0000

> <Gold.Chemscore.DEClash.Weighted>
0.1334

> <Gold.Chemscore.DEInternal.Weighted>
2.0957

> <Gold.Chemscore.Rot.Weighted>
4.6537

> <Gold.Chemscore.Internal.Correction.Weighted>
   9.000000E+99

> <Gold.Protein.RotatedTorsions>
[ 6907 6896 6895 6894 ] final  -20.77 input  -60.11 | X-H torsion
[ 7974 7965 7964 7962 ] final   33.69 input  175.53 | X-H torsion
[ 8008 7997 7996 7995 ] final  108.76 input   59.86 | X-H torsion
[ 10167 10162 10161 10158 ] final  158.26 input  -65.29 | X-H torsion
[ 10718 10713 10712 10709 ] final  -91.32 input   66.30 | X-H torsion
[ 10763 10752 10751 10750 ] final   60.43 input  -60.55 | X-H torsion
[ 11005 11000 10999 10996 ] final -114.61 input  -57.11 | X-H torsion

> <Gold.Protein.ActiveResidues>
 VAL166  LYS551  ARG553  GLY616  TRP617  ASP618  TYR619  PRO620  LYS621  CYS622 
 ASP623  PHE694  ASN695  SER759  ASP760  ASP761  ALA762  ILE779  LEU786  VAL792 
 PHE793  MET794  SER795  GLU796  ALA797  LYS798  CYS799  TRP800  GLU811  SER814 

> <Gold.Protein.RotatedAtoms>
  151.2433  135.0596  159.9033 H   0  0  0  0  0  0  0  0  0  0  0  0  # atno 6907 bound_to 6896
  152.5390  134.0411  159.8078 H   0  0  0  0  0  0  0  0  0  0  0  0  # atno 6908 bound_to 6896
  151.0608  133.5497  159.2666 H   0  0  0  0  0  0  0  0  0  0  0  0  # atno 6909 bound_to 6896
  146.1404  139.6365  142.9167 H   0  0  0  0  0  0  0  0  0  0  0  0  # atno 7974 bound_to 7965
  156.1928  140.3070  155.9367 H   0  0  0  0  0  0  0  0  0  0  0  0  # atno 8008 bound_to 7997
  155.3134  140.0452  157.3053 H   0  0  0  0  0  0  0  0  0  0  0  0  # atno 8009 bound_to 7997
  154.5473  140.2280  155.8552 H   0  0  0  0  0  0  0  0  0  0  0  0  # atno 8010 bound_to 7997
  139.4826  144.4841  151.8402 H   0  0  0  0  0  0  0  0  0  0  0  0  # atno 10167 bound_to 10162
  155.9993  130.4943  150.5456 H   0  0  0  0  0  0  0  0  0  0  0  0  # atno 10718 bound_to 10713
  152.9921  135.5536  154.5872 H   0  0  0  0  0  0  0  0  0  0  0  0  # atno 10763 bound_to 10752
  154.5241  135.2809  155.1239 H   0  0  0  0  0  0  0  0  0  0  0  0  # atno 10764 bound_to 10752
  154.2581  135.6386  153.5317 H   0  0  0  0  0  0  0  0  0  0  0  0  # atno 10765 bound_to 10752
  141.0541  133.9641  157.2785 H   0  0  0  0  0  0  0  0  0  0  0  0  # atno 11005 bound_to 11000
  145.5060  141.0436  143.2514 LP  0  0  0  0  0  0  0  0  0  0  0  0  # atno 17320 bound_to 7965
  144.7786  139.6576  143.7164 LP  0  0  0  0  0  0  0  0  0  0  0  0  # atno 17321 bound_to 7965
  140.4320  144.2103  150.5888 LP  0  0  0  0  0  0  0  0  0  0  0  0  # atno 17342 bound_to 10162
  140.4770  143.2392  151.9009 LP  0  0  0  0  0  0  0  0  0  0  0  0  # atno 17343 bound_to 10162
  157.3387  131.0713  151.1805 LP  0  0  0  0  0  0  0  0  0  0  0  0  # atno 17370 bound_to 10713
  157.2661  130.6682  149.5997 LP  0  0  0  0  0  0  0  0  0  0  0  0  # atno 17371 bound_to 10713
  139.9375  135.0195  156.8602 LP  0  0  0  0  0  0  0  0  0  0  0  0  # atno 17394 bound_to 11000
  140.5999  134.0182  155.7533 LP  0  0  0  0  0  0  0  0  0  0  0  0  # atno 17395 bound_to 11000

$$$$
