AV-unprocessed.smi:189|AV-procd|sdf|1488|dock1
  -GOLD-   2262019303D 1   1.00000     0.00000
 Structure written by MMmdl.
 53 57  0  0  0  0  0  0  0  0  1 V2000
  153.9294  138.8137  159.0983 C   0  0  0  0  0  0  0  0  0  0  0  0
  152.7398  139.5259  159.7757 C   0  0  1  0  0  0  0  0  0  0  0  0
  153.2175  140.3654  160.9863 C   0  0  0  0  0  0  0  0  0  0  0  0
  152.4670  141.6844  160.8289 C   0  0  1  0  0  0  0  0  0  0  0  0
  153.0678  142.9527  161.4462 C   0  0  0  0  0  0  0  0  0  0  0  0
  152.1731  144.1580  161.0877 C   0  0  0  0  0  0  0  0  0  0  0  0
  151.9139  144.2683  159.5676 C   0  0  0  0  0  0  0  0  0  0  0  0
  151.3979  142.9479  158.9574 C   0  0  0  0  0  0  0  0  0  0  0  0
  152.3773  141.8146  159.3157 C   0  0  2  0  0  0  0  0  0  0  0  0
  152.0211  140.4657  158.9028 N   0  0  0  0  0  0  0  0  0  0  0  0
  151.8075  140.1351  157.6039 C   0  0  0  0  0  0  0  0  0  0  0  0
  152.8615  139.8620  156.7908 N   0  0  0  0  0  0  0  0  0  0  0  0
  152.6579  139.5221  155.5149 C   0  0  0  0  0  0  0  0  0  0  0  0
  151.5024  139.3914  154.8603 N   0  0  0  0  0  0  0  0  0  0  0  0
  150.4405  139.6578  155.6735 C   0  0  0  0  0  0  0  0  0  0  0  0
  150.5035  140.0357  157.0442 C   0  0  0  0  0  0  0  0  0  0  0  0
  149.2208  140.2314  157.5415 N   0  0  0  0  0  0  0  0  0  0  0  0
  148.4435  139.9759  156.5251 C   0  0  0  0  0  0  0  0  0  0  0  0
  149.0919  139.6170  155.3650 N   0  0  0  0  0  0  0  0  0  0  0  0
  148.4727  139.2776  154.0931 C   0  0  0  0  0  0  0  0  0  0  0  0
  147.4976  140.3618  153.5782 C   0  0  2  0  0  0  0  0  0  0  0  0
  147.1674  140.0796  152.2290 O   0  0  0  0  0  0  0  0  0  0  0  0
  148.0451  141.7844  153.6560 C   0  0  0  0  0  0  0  0  0  0  0  0
  146.7931  142.6166  153.8953 C   0  0  0  0  0  0  0  0  0  0  0  0
  146.0508  141.8059  154.7903 O   0  0  0  0  0  0  0  0  0  0  0  0
  146.1908  140.4457  154.3920 C   0  0  0  0  0  0  0  0  0  0  0  0
  154.4668  138.1929  159.8157 H   0  0  0  0  0  0  0  0  0  0  0  0
  154.6383  139.5314  158.6840 H   0  0  0  0  0  0  0  0  0  0  0  0
  153.6065  138.1584  158.2896 H   0  0  0  0  0  0  0  0  0  0  0  0
  152.0216  138.7832  160.1247 H   0  0  0  0  0  0  0  0  0  0  0  0
  153.0101  139.8792  161.9398 H   0  0  0  0  0  0  0  0  0  0  0  0
  154.2919  140.5471  160.9336 H   0  0  0  0  0  0  0  0  0  0  0  0
  151.4629  141.5422  161.2343 H   0  0  0  0  0  0  0  0  0  0  0  0
  153.1455  142.8484  162.5287 H   0  0  0  0  0  0  0  0  0  0  0  0
  154.0788  143.1131  161.0695 H   0  0  0  0  0  0  0  0  0  0  0  0
  151.2178  144.0597  161.6048 H   0  0  0  0  0  0  0  0  0  0  0  0
  152.6253  145.0794  161.4555 H   0  0  0  0  0  0  0  0  0  0  0  0
  151.2025  145.0705  159.3703 H   0  0  0  0  0  0  0  0  0  0  0  0
  152.8408  144.5527  159.0679 H   0  0  0  0  0  0  0  0  0  0  0  0
  150.4025  142.7222  159.3420 H   0  0  0  0  0  0  0  0  0  0  0  0
  151.2965  143.0622  157.8790 H   0  0  0  0  0  0  0  0  0  0  0  0
  153.3626  142.0448  158.9052 H   0  0  0  0  0  0  0  0  0  0  0  0
  153.5486  139.3245  154.9367 H   0  0  0  0  0  0  0  0  0  0  0  0
  147.3671  140.0370  156.5945 H   0  0  0  0  0  0  0  0  0  0  0  0
  149.2637  139.1025  153.3626 H   0  0  0  0  0  0  0  0  0  0  0  0
  147.9510  138.3268  154.2103 H   0  0  0  0  0  0  0  0  0  0  0  0
  147.9697  139.9807  151.7390 H   0  0  0  0  0  0  0  0  0  0  0  0
  148.7012  141.8898  154.5205 H   0  0  0  0  0  0  0  0  0  0  0  0
  148.6073  142.0914  152.7729 H   0  0  0  0  0  0  0  0  0  0  0  0
  147.0109  143.5951  154.3236 H   0  0  0  0  0  0  0  0  0  0  0  0
  146.2311  142.7589  152.9710 H   0  0  0  0  0  0  0  0  0  0  0  0
  145.3210  140.1449  153.8054 H   0  0  0  0  0  0  0  0  0  0  0  0
  146.2156  139.8165  155.2825 H   0  0  0  0  0  0  0  0  0  0  0  0
  1  2  1  0  0  0  0
  1 27  1  0  0  0  0
  1 28  1  0  0  0  0
  1 29  1  0  0  0  0
  2 10  1  0  0  0  0
  2  3  1  0  0  0  0
  2 30  1  0  0  0  0
  3  4  1  0  0  0  0
  3 31  1  0  0  0  0
  3 32  1  0  0  0  0
  4  9  1  0  0  0  0
  4  5  1  0  0  0  0
  4 33  1  0  0  0  0
  5  6  1  0  0  0  0
  5 34  1  0  0  0  0
  5 35  1  0  0  0  0
  6  7  1  0  0  0  0
  6 36  1  0  0  0  0
  6 37  1  0  0  0  0
  7  8  1  0  0  0  0
  7 38  1  0  0  0  0
  7 39  1  0  0  0  0
  8  9  1  0  0  0  0
  8 40  1  0  0  0  0
  8 41  1  0  0  0  0
  9 10  1  0  0  0  0
  9 42  1  0  0  0  0
 10 11  1  0  0  0  0
 11 16  1  0  0  0  0
 11 12  2  0  0  0  0
 12 13  1  0  0  0  0
 13 14  2  0  0  0  0
 13 43  1  0  0  0  0
 14 15  1  0  0  0  0
 15 19  1  0  0  0  0
 15 16  2  0  0  0  0
 16 17  1  0  0  0  0
 17 18  2  0  0  0  0
 18 19  1  0  0  0  0
 18 44  1  0  0  0  0
 19 20  1  0  0  0  0
 20 21  1  0  0  0  0
 20 45  1  0  0  0  0
 20 46  1  0  0  0  0
 21 26  1  0  0  0  0
 21 22  1  0  0  0  0
 21 23  1  0  0  0  0
 22 47  1  0  0  0  0
 23 24  1  0  0  0  0
 23 48  1  0  0  0  0
 23 49  1  0  0  0  0
 24 25  1  0  0  0  0
 24 50  1  0  0  0  0
 24 51  1  0  0  0  0
 25 26  1  0  0  0  0
 26 52  1  0  0  0  0
 26 53  1  0  0  0  0
M  END
> <s_m_source_file>
AV-unprocessed.smi

> <i_m_source_file_index>
189

> <i_lp_mmshare_version>
43012

> <i_f3d_flags>
0

> <s_epik_input>
W0NIMl0xW0NIMl1bQ0gyXVtDSDJdW0NASF0oW0NASF0xMilOKFtDQEhdKFtDSDNdKVtDSDJdMiljKG5bY0hdbjMpYyhjMzQpbltjSF1uNFtDSDJdW0NAQF01KFtPSF0pW0NIMl1bQ0gyXU9bQ0gyXTU=

> <s_epik_cmdline>
J2VwaWtfcHl0aG9uJywgJy1waCcsICc3LjAnLCAnLXRuJywgJzgnLCAnLW1hJywgJzIwMCcsICctbWV0YWxfYmluZGluZycsICctaW1hZScsICc8aW5maWxlLm1hZT4nLCAnLW9tYWUnLCAnPG91dGZpbGUubWFlPic=

> <r_lp_tautomer_probability>
1

> <r_epik_Ionization_Penalty>
0.00594261

> <r_epik_Ionization_Penalty_Charging>
0

> <r_epik_Ionization_Penalty_Neutral>
0.00594261

> <r_epik_State_Penalty>
0.00429776

> <r_epik_Charging_Adjusted_Penalty>
0.00429776

> <i_epik_Tot_Q>
0

> <i_epik_Tot_abs_Q>
0

> <r_epik_Metal_State_Penalty>
-0

> <b_epik_Metal_Only>
0

> <s_lp_Force_Field>
OPLS_2005

> <r_lp_Energy>
58.0948

> <b_lp_Chiralities_Consistent>
1

> <s_lp_Variant>
AV-unprocessed.smi:189-14

> <Gold.Version>
5.8.1

> <Gold.Id.Protein>
6NUR|6NUR_protein|mol2

> <Gold.PLP.Fitness>
48.9612

> <Gold.PLP.PLP>
-41.2272

> <Gold.PLP.part.hbond>
-3.2311

> <Gold.PLP.part.metal>
0.0000

> <Gold.PLP.part.buried>
-2.4112

> <Gold.PLP.part.nonpolar>
-35.5433

> <Gold.PLP.part.repulsive>
0.2004

> <Gold.PLP.ligand.clash>
0.0000

> <Gold.PLP.ligand.torsion>
0.4594

> <Gold.PLP.Chemscore.Hbond>
2.7500

> <Gold.PLP.Chemscore.CHOScore>
0.0000

> <Gold.PLP.Chemscore.Metal>
0.0000

> <Gold.Chemscore.Hbonds>
donor molecule, donor type, donor heavy atom, donor atom, acceptor molecule, acceptor atom, score
      L1  H    22    47       P1  7957  1.00
      P1  H  7989  7998       L1    14  1.00
      P1  H  7997  8008       L1    12  0.75

> <Gold.PLP.Chemscore.Internal.Correction>
0.4027

> <Gold.Rescore>
     Score         DG    S(hbond)    S(metal)    S(lipo)     H(rot)  DE(clash)    DE(int)     intcor
     17.50     -20.23       1.88        0.00     116.83       2.03       0.70       2.03       ----

> <Gold.Chemscore.Fitness>
17.5018

> <Gold.Chemscore.DG>
-20.2313

> <Gold.Chemscore.ZeroCoef>
-5.4800

> <Gold.Chemscore.Hbond>
1.8797

> <Gold.Chemscore.Metal>
0.0000

> <Gold.Chemscore.Lipo>
116.8284

> <Gold.Chemscore.Internal_Hbond>
0.0000

> <Gold.Chemscore.DEClash>
0.6973

> <Gold.Chemscore.DEInternal>
2.0322

> <Gold.Chemscore.Rot>
2.0297

> <Gold.Chemscore.Internal.Correction>
   9.000000E+99

> <Gold.Chemscore.Hbonds>
donor molecule, donor type, donor heavy atom, donor atom, acceptor molecule, acceptor atom, score
      L1  H    22    47       P1  7957  1.00
      P1  H  7989  7998       L1    14  0.20
      P1  H  7997  8008       L1    12  0.09

> <Gold.Chemscore.Hbond.Weighted>
-6.2783

> <Gold.Chemscore.Metal.Weighted>
-0.0000

> <Gold.Chemscore.Lipo.Weighted>
-13.6689

> <Gold.Chemscore.Internal_Hbond.Weighted>
0.0000

> <Gold.Chemscore.DEClash.Weighted>
0.6973

> <Gold.Chemscore.DEInternal.Weighted>
2.0322

> <Gold.Chemscore.Rot.Weighted>
5.1960

> <Gold.Chemscore.Internal.Correction.Weighted>
   9.000000E+99

> <Gold.Protein.RotatedTorsions>
[ 6907 6896 6895 6894 ] final -146.02 input  -60.11 | X-H torsion
[ 7974 7965 7964 7962 ] final   59.04 input  175.53 | X-H torsion
[ 8008 7997 7996 7995 ] final  -59.38 input   59.86 | X-H torsion
[ 10167 10162 10161 10158 ] final   48.43 input  -65.29 | X-H torsion
[ 10718 10713 10712 10709 ] final  174.64 input   66.30 | X-H torsion
[ 10763 10752 10751 10750 ] final  101.05 input  -60.55 | X-H torsion
[ 11005 11000 10999 10996 ] final   14.37 input  -57.11 | X-H torsion

> <Gold.Protein.ActiveResidues>
 VAL166  LYS551  ARG553  GLY616  TRP617  ASP618  TYR619  PRO620  LYS621  CYS622 
 ASP623  PHE694  ASN695  SER759  ASP760  ASP761  ALA762  ILE779  LEU786  VAL792 
 PHE793  MET794  SER795  GLU796  ALA797  LYS798  CYS799  TRP800  GLU811  SER814 

> <Gold.Protein.RotatedAtoms>
  151.1358  133.5005  159.2597 H   0  0  0  0  0  0  0  0  0  0  0  0  # atno 6907 bound_to 6896
  151.1708  135.0316  159.8761 H   0  0  0  0  0  0  0  0  0  0  0  0  # atno 6908 bound_to 6896
  152.5461  134.1221  159.8457 H   0  0  0  0  0  0  0  0  0  0  0  0  # atno 6909 bound_to 6896
  145.9115  139.3658  143.0532 H   0  0  0  0  0  0  0  0  0  0  0  0  # atno 7974 bound_to 7965
  154.4350  140.1063  156.6106 H   0  0  0  0  0  0  0  0  0  0  0  0  # atno 8008 bound_to 7997
  155.5813  140.3491  155.4522 H   0  0  0  0  0  0  0  0  0  0  0  0  # atno 8009 bound_to 7997
  156.0316  140.1262  157.0241 H   0  0  0  0  0  0  0  0  0  0  0  0  # atno 8010 bound_to 7997
  140.2934  144.3019  150.6235 H   0  0  0  0  0  0  0  0  0  0  0  0  # atno 10167 bound_to 10162
  156.9467  131.0018  151.2957 H   0  0  0  0  0  0  0  0  0  0  0  0  # atno 10718 bound_to 10713
  153.3217  135.4058  155.1422 H   0  0  0  0  0  0  0  0  0  0  0  0  # atno 10763 bound_to 10752
  154.8602  135.3589  154.5587 H   0  0  0  0  0  0  0  0  0  0  0  0  # atno 10764 bound_to 10752
  153.6021  135.7070  153.5439 H   0  0  0  0  0  0  0  0  0  0  0  0  # atno 10765 bound_to 10752
  140.4702  134.1038  155.7731 H   0  0  0  0  0  0  0  0  0  0  0  0  # atno 11005 bound_to 11000
  145.8665  140.9445  143.0673 LP  0  0  0  0  0  0  0  0  0  0  0  0  # atno 17320 bound_to 7965
  144.6744  140.0599  143.7476 LP  0  0  0  0  0  0  0  0  0  0  0  0  # atno 17321 bound_to 7965
  140.5713  143.2180  151.7594 LP  0  0  0  0  0  0  0  0  0  0  0  0  # atno 17342 bound_to 10162
  139.4932  144.4212  151.9975 LP  0  0  0  0  0  0  0  0  0  0  0  0  # atno 17343 bound_to 10162
  157.5749  130.8336  149.8442 LP  0  0  0  0  0  0  0  0  0  0  0  0  # atno 17370 bound_to 10713
  156.0381  130.3746  150.1508 LP  0  0  0  0  0  0  0  0  0  0  0  0  # atno 17371 bound_to 10713
  141.1580  133.8846  157.1924 LP  0  0  0  0  0  0  0  0  0  0  0  0  # atno 17394 bound_to 11000
  139.9890  135.0071  156.9930 LP  0  0  0  0  0  0  0  0  0  0  0  0  # atno 17395 bound_to 11000

$$$$
