AV-unprocessed.smi:2008|AV-procd|sdf|8144|dock4
  -GOLD-   2272010383D 1   1.00000     0.00000
 Structure written by MMmdl.
 46 47  0  0  0  0  0  0  0  0  2 V2000
  152.4546  142.4563  159.2343 C   0  0  0  0  0  0  0  0  0  0  0  0
  152.8536  141.2720  158.5532 O   0  0  0  0  0  0  0  0  0  0  0  0
  152.0169  140.7618  157.5817 C   0  0  0  0  0  0  0  0  0  0  0  0
  150.6859  141.2204  157.5301 C   0  0  0  0  0  0  0  0  0  0  0  0
  149.8254  140.7057  156.5415 C   0  0  0  0  0  0  0  0  0  0  0  0
  150.3282  139.7499  155.6264 C   0  0  0  0  0  0  0  0  0  0  0  0
  149.5615  139.1425  154.5948 N   0  0  0  0  0  0  0  0  0  0  0  0
  148.4081  139.5626  154.0475 C   0  0  0  0  0  0  0  0  0  0  0  0
  147.8082  140.5944  154.3483 O   0  0  0  0  0  0  0  0  0  0  0  0
  147.9808  138.7142  153.1012 N   0  0  0  0  0  0  0  0  0  0  0  0
  146.7707  138.8941  152.3064 C   0  0  0  0  0  0  0  0  0  0  0  0
  145.7230  137.8047  152.6150 C   0  0  0  0  0  0  0  0  0  0  0  0
  146.3179  136.4398  152.6955 N   0  3  1  0  0  0  0  0  0  0  0  0
  146.6431  136.0747  154.1055 C   0  0  0  0  0  0  0  0  0  0  0  0
  147.3733  134.7285  154.2024 C   0  0  0  0  0  0  0  0  0  0  0  0
  146.5329  133.6212  153.5685 C   0  0  0  0  0  0  0  0  0  0  0  0
  146.2124  133.9996  152.1211 C   0  0  0  0  0  0  0  0  0  0  0  0
  145.5103  135.3726  152.0156 C   0  0  2  0  0  0  0  0  0  0  0  0
  145.2468  135.6649  150.5223 C   0  0  0  0  0  0  0  0  0  0  0  0
  151.6719  139.3471  155.7725 C   0  0  0  0  0  0  0  0  0  0  0  0
  152.5019  139.8368  156.7172 N   0  0  0  0  0  0  0  0  0  0  0  0
  153.2183  142.7283  159.9626 H   0  0  0  0  0  0  0  0  0  0  0  0
  151.5189  142.3090  159.7756 H   0  0  0  0  0  0  0  0  0  0  0  0
  152.3418  143.2943  158.5449 H   0  0  0  0  0  0  0  0  0  0  0  0
  150.3290  141.9519  158.2400 H   0  0  0  0  0  0  0  0  0  0  0  0
  148.8015  141.0444  156.5172 H   0  0  0  0  0  0  0  0  0  0  0  0
  149.9701  138.3141  154.1870 H   0  0  0  0  0  0  0  0  0  0  0  0
  148.5361  137.8925  152.9109 H   0  0  0  0  0  0  0  0  0  0  0  0
  146.3541  139.8870  152.4850 H   0  0  0  0  0  0  0  0  0  0  0  0
  147.0730  138.8676  151.2607 H   0  0  0  0  0  0  0  0  0  0  0  0
  145.1917  138.0305  153.5410 H   0  0  0  0  0  0  0  0  0  0  0  0
  144.9789  137.8558  151.8255 H   0  0  0  0  0  0  0  0  0  0  0  0
  147.2758  136.8330  154.5636 H   0  0  0  0  0  0  0  0  0  0  0  0
  145.7240  136.0397  154.6927 H   0  0  0  0  0  0  0  0  0  0  0  0
  148.3405  134.7943  153.7022 H   0  0  0  0  0  0  0  0  0  0  0  0
  147.5784  134.4886  155.2463 H   0  0  0  0  0  0  0  0  0  0  0  0
  147.0690  132.6722  153.6016 H   0  0  0  0  0  0  0  0  0  0  0  0
  145.6091  133.4819  154.1319 H   0  0  0  0  0  0  0  0  0  0  0  0
  147.1355  134.0128  151.5394 H   0  0  0  0  0  0  0  0  0  0  0  0
  145.5852  133.2238  151.6801 H   0  0  0  0  0  0  0  0  0  0  0  0
  144.5477  135.3037  152.5252 H   0  0  0  0  0  0  0  0  0  0  0  0
  144.8339  134.7889  150.0210 H   0  0  0  0  0  0  0  0  0  0  0  0
  146.1652  135.9362  150.0005 H   0  0  0  0  0  0  0  0  0  0  0  0
  144.5187  136.4607  150.3713 H   0  0  0  0  0  0  0  0  0  0  0  0
  152.0987  138.6103  155.1076 H   0  0  0  0  0  0  0  0  0  0  0  0
  147.1941  136.4823  152.1947 H   0  0  0  0  0  0  0  0  0  0  0  0
  1  2  1  0  0  0  0
  1 22  1  0  0  0  0
  1 23  1  0  0  0  0
  1 24  1  0  0  0  0
  2  3  1  0  0  0  0
  3 21  1  0  0  0  0
  3  4  2  0  0  0  0
  4  5  1  0  0  0  0
  4 25  1  0  0  0  0
  5  6  2  0  0  0  0
  5 26  1  0  0  0  0
  6  7  1  0  0  0  0
  6 20  1  0  0  0  0
  7  8  1  0  0  0  0
  7 27  1  0  0  0  0
  8  9  2  0  0  0  0
  8 10  1  0  0  0  0
 10 11  1  0  0  0  0
 10 28  1  0  0  0  0
 11 12  1  0  0  0  0
 11 29  1  0  0  0  0
 11 30  1  0  0  0  0
 12 13  1  0  0  0  0
 12 31  1  0  0  0  0
 12 32  1  0  0  0  0
 13 18  1  0  0  0  0
 13 14  1  0  0  0  0
 13 46  1  0  0  0  0
 14 15  1  0  0  0  0
 14 33  1  0  0  0  0
 14 34  1  0  0  0  0
 15 16  1  0  0  0  0
 15 35  1  0  0  0  0
 15 36  1  0  0  0  0
 16 17  1  0  0  0  0
 16 37  1  0  0  0  0
 16 38  1  0  0  0  0
 17 18  1  0  0  0  0
 17 39  1  0  0  0  0
 17 40  1  0  0  0  0
 18 19  1  0  0  0  0
 18 41  1  0  0  0  0
 19 42  1  0  0  0  0
 19 43  1  0  0  0  0
 19 44  1  0  0  0  0
 20 21  2  0  0  0  0
 20 45  1  0  0  0  0
M  CHG  1  13   1
M  END
> <s_m_source_file>
AV-unprocessed.smi

> <i_m_source_file_index>
2008

> <i_lp_mmshare_version>
43012

> <i_f3d_flags>
0

> <s_epik_input>
W0NIM11PYzFbY0hdW2NIXWMoW2NIXW4xKVtOSF1DKD1PKVtOSF1bQ0gyXVtDSDJdTjJbQ0gyXVtDSDJdW0NIMl1bQ0gyXVtDQEhdMltDSDNd

> <s_epik_cmdline>
J2VwaWtfcHl0aG9uJywgJy1waCcsICc3LjAnLCAnLXRuJywgJzgnLCAnLW1hJywgJzIwMCcsICctbWV0YWxfYmluZGluZycsICctaW1hZScsICc8aW5maWxlLm1hZT4nLCAnLW9tYWUnLCAnPG91dGZpbGUubWFlPic=

> <r_lp_tautomer_probability>
1

> <r_epik_Ionization_Penalty>
0.00219526

> <r_epik_Ionization_Penalty_Charging>
0.00211816

> <r_epik_Ionization_Penalty_Neutral>
7.71003e-05

> <r_epik_State_Penalty>
0.00145254

> <r_epik_Charging_Adjusted_Penalty>
0.0035707

> <i_epik_Tot_Q>
1

> <i_epik_Tot_abs_Q>
1

> <r_epik_Metal_State_Penalty>
-0

> <b_epik_Metal_Only>
0

> <s_lp_Force_Field>
OPLS_2005

> <r_lp_Energy>
23.0726

> <b_lp_Chiralities_Consistent>
1

> <s_lp_Variant>
AV-unprocessed.smi:2008-4

> <Gold.Version>
5.8.1

> <Gold.Id.Protein>
6NUR|6NUR_protein|mol2

> <Gold.PLP.Fitness>
41.9773

> <Gold.PLP.PLP>
-31.7413

> <Gold.PLP.part.hbond>
-4.0000

> <Gold.PLP.part.metal>
0.0000

> <Gold.PLP.part.buried>
-0.5237

> <Gold.PLP.part.nonpolar>
-26.1802

> <Gold.PLP.part.repulsive>
0.2413

> <Gold.PLP.ligand.clash>
0.0156

> <Gold.PLP.ligand.torsion>
0.8867

> <Gold.PLP.Chemscore.Hbond>
4.0000

> <Gold.PLP.Chemscore.CHOScore>
0.0000

> <Gold.PLP.Chemscore.Metal>
0.0000

> <Gold.Chemscore.Hbonds>
donor molecule, donor type, donor heavy atom, donor atom, acceptor molecule, acceptor atom, score
      L1  H    10    28       P1  7948  1.00
      L1  H    13    46       P1  7948  2.00
      P1  H  7997  8010       L1    21  1.00

> <Gold.PLP.Chemscore.Internal.Correction>
0.0250

> <Gold.Rescore>
     Score         DG    S(hbond)    S(metal)    S(lipo)     H(rot)  DE(clash)    DE(int)     intcor
     16.93     -18.91       2.86        0.00      70.64       1.71       0.24       1.74       ----

> <Gold.Chemscore.Fitness>
16.9292

> <Gold.Chemscore.DG>
-18.9074

> <Gold.Chemscore.ZeroCoef>
-5.4800

> <Gold.Chemscore.Hbond>
2.8569

> <Gold.Chemscore.Metal>
0.0000

> <Gold.Chemscore.Lipo>
70.6398

> <Gold.Chemscore.Internal_Hbond>
0.0000

> <Gold.Chemscore.DEClash>
0.2386

> <Gold.Chemscore.DEInternal>
1.7395

> <Gold.Chemscore.Rot>
1.7107

> <Gold.Chemscore.Internal.Correction>
   9.000000E+99

> <Gold.Chemscore.Hbonds>
donor molecule, donor type, donor heavy atom, donor atom, acceptor molecule, acceptor atom, score
      L1  H    10    28       P1  7948  0.93
      L1  H    13    46       P1  7948  0.99
      P1  H  7997  8010       L1    21  0.74

> <Gold.Chemscore.Hbond.Weighted>
-9.5420

> <Gold.Chemscore.Metal.Weighted>
-0.0000

> <Gold.Chemscore.Lipo.Weighted>
-8.2649

> <Gold.Chemscore.Internal_Hbond.Weighted>
0.0000

> <Gold.Chemscore.DEClash.Weighted>
0.2386

> <Gold.Chemscore.DEInternal.Weighted>
1.7395

> <Gold.Chemscore.Rot.Weighted>
4.3794

> <Gold.Chemscore.Internal.Correction.Weighted>
   9.000000E+99

> <Gold.Protein.RotatedTorsions>
[ 6907 6896 6895 6894 ] final  -94.32 input  -60.11 | X-H torsion
[ 7974 7965 7964 7962 ] final -129.20 input  175.53 | X-H torsion
[ 8008 7997 7996 7995 ] final   73.65 input   59.86 | X-H torsion
[ 10167 10162 10161 10158 ] final  147.69 input  -65.29 | X-H torsion
[ 10718 10713 10712 10709 ] final  -29.19 input   66.30 | X-H torsion
[ 10763 10752 10751 10750 ] final   19.42 input  -60.55 | X-H torsion
[ 11005 11000 10999 10996 ] final   73.67 input  -57.11 | X-H torsion

> <Gold.Protein.ActiveResidues>
 VAL166  LYS551  ARG553  GLY616  TRP617  ASP618  TYR619  PRO620  LYS621  CYS622 
 ASP623  PHE694  ASN695  SER759  ASP760  ASP761  ALA762  ILE779  LEU786  VAL792 
 PHE793  MET794  SER795  GLU796  ALA797  LYS798  CYS799  TRP800  GLU811  SER814 

> <Gold.Protein.RotatedAtoms>
  150.6939  134.1830  159.4255 H   0  0  0  0  0  0  0  0  0  0  0  0  # atno 6907 bound_to 6896
  151.9804  135.0029  160.0566 H   0  0  0  0  0  0  0  0  0  0  0  0  # atno 6908 bound_to 6896
  152.1760  133.4640  159.4970 H   0  0  0  0  0  0  0  0  0  0  0  0  # atno 6909 bound_to 6896
  144.9595  140.7431  143.4738 H   0  0  0  0  0  0  0  0  0  0  0  0  # atno 7974 bound_to 7965
  155.7868  140.3480  155.5327 H   0  0  0  0  0  0  0  0  0  0  0  0  # atno 8008 bound_to 7997
  155.8673  140.0981  157.1594 H   0  0  0  0  0  0  0  0  0  0  0  0  # atno 8009 bound_to 7997
  154.4015  140.1347  156.4022 H   0  0  0  0  0  0  0  0  0  0  0  0  # atno 8010 bound_to 7997
  139.4886  144.5736  151.7007 H   0  0  0  0  0  0  0  0  0  0  0  0  # atno 10167 bound_to 10162
  156.4156  130.4416  149.7220 H   0  0  0  0  0  0  0  0  0  0  0  0  # atno 10718 bound_to 10713
  153.1163  135.6709  153.9412 H   0  0  0  0  0  0  0  0  0  0  0  0  # atno 10763 bound_to 10752
  153.8940  135.3043  155.3449 H   0  0  0  0  0  0  0  0  0  0  0  0  # atno 10764 bound_to 10752
  154.7579  135.5002  153.9487 H   0  0  0  0  0  0  0  0  0  0  0  0  # atno 10765 bound_to 10752
  139.9429  134.7367  156.1054 H   0  0  0  0  0  0  0  0  0  0  0  0  # atno 11005 bound_to 11000
  145.2722  139.1950  143.4835 LP  0  0  0  0  0  0  0  0  0  0  0  0  # atno 17320 bound_to 7965
  146.3348  140.2670  142.8604 LP  0  0  0  0  0  0  0  0  0  0  0  0  # atno 17321 bound_to 7965
  140.5328  144.0703  150.6060 LP  0  0  0  0  0  0  0  0  0  0  0  0  # atno 17342 bound_to 10162
  140.3699  143.2860  152.0290 LP  0  0  0  0  0  0  0  0  0  0  0  0  # atno 17343 bound_to 10162
  156.4181  130.7755  151.2771 LP  0  0  0  0  0  0  0  0  0  0  0  0  # atno 17370 bound_to 10713
  157.7508  131.0191  150.3653 LP  0  0  0  0  0  0  0  0  0  0  0  0  # atno 17371 bound_to 10713
  141.1069  133.6657  156.2886 LP  0  0  0  0  0  0  0  0  0  0  0  0  # atno 17394 bound_to 11000
  140.5908  134.5653  157.5499 LP  0  0  0  0  0  0  0  0  0  0  0  0  # atno 17395 bound_to 11000

$$$$
