AV-unprocessed.smi:334|AV-procd|sdf|2364|dock9
  -GOLD-   2262022283D 1   1.00000     0.00000
 Structure written by MMmdl.
 44 46  0  0  0  0  0  0  0  0  3 V2000
  149.4683  141.6256  156.9185 C   0  0  0  0  0  0  0  0  0  0  0  0
  150.9781  141.6254  157.2151 C   0  0  2  0  0  0  0  0  0  0  0  0
  151.5039  140.2669  157.0951 N   0  0  0  0  0  0  0  0  0  0  0  0
  151.5125  139.5282  155.9751 C   0  0  0  0  0  0  0  0  0  0  0  0
  151.0554  139.9240  154.9018 O   0  0  0  0  0  0  0  0  0  0  0  0
  152.1232  138.1256  156.1088 C   0  0  0  0  0  0  0  0  0  0  0  0
  151.1381  137.0830  156.4439 N   0  0  0  0  0  0  0  0  0  0  0  0
  150.5616  137.1397  157.7281 C   0  0  0  0  0  0  0  0  0  0  0  0
  149.6450  136.2428  158.1418 C   0  0  0  0  0  0  0  0  0  0  0  0
  149.0576  136.3211  159.4614 N   0  3  0  0  0  0  0  0  0  0  0  0
  149.3838  137.2475  160.1966 O   0  0  0  0  0  0  0  0  0  0  0  0
  148.2523  135.4618  159.8068 O   0  5  0  0  0  0  0  0  0  0  0  0
  149.2612  135.1951  157.2156 C   0  0  0  0  0  0  0  0  0  0  0  0
  149.8049  135.1388  155.9839 C   0  0  0  0  0  0  0  0  0  0  0  0
  150.7967  136.1208  155.5332 C   0  0  0  0  0  0  0  0  0  0  0  0
  151.2899  136.0804  154.4060 O   0  0  0  0  0  0  0  0  0  0  0  0
  151.3012  142.1727  158.6254 C   0  0  1  0  0  0  0  0  0  0  0  0
  152.8088  142.3362  158.9283 C   0  0  0  0  0  0  0  0  0  0  0  0
  152.8971  143.7686  159.4871 C   0  0  1  0  0  0  0  0  0  0  0  0
  152.7325  144.7704  158.3294 C   0  0  0  0  0  0  0  0  0  0  0  0
  151.2338  144.6570  157.9964 C   0  0  0  0  0  0  0  0  0  0  0  0
  150.7444  143.5742  158.9803 C   0  0  2  0  0  0  0  0  0  0  0  0
  151.5679  143.9112  160.2195 C   0  0  0  0  0  0  0  0  0  0  0  0
  149.0604  142.6361  156.9410 H   0  0  0  0  0  0  0  0  0  0  0  0
  148.9201  141.0286  157.6480 H   0  0  0  0  0  0  0  0  0  0  0  0
  149.2582  141.2175  155.9292 H   0  0  0  0  0  0  0  0  0  0  0  0
  151.4786  142.2478  156.4725 H   0  0  0  0  0  0  0  0  0  0  0  0
  151.8973  139.8599  157.9312 H   0  0  0  0  0  0  0  0  0  0  0  0
  152.6425  137.8760  155.1815 H   0  0  0  0  0  0  0  0  0  0  0  0
  152.9047  138.1638  156.8692 H   0  0  0  0  0  0  0  0  0  0  0  0
  150.9088  137.9610  158.3383 H   0  0  0  0  0  0  0  0  0  0  0  0
  148.5351  134.4486  157.5022 H   0  0  0  0  0  0  0  0  0  0  0  0
  149.5044  134.3504  155.3097 H   0  0  0  0  0  0  0  0  0  0  0  0
  150.8890  141.4697  159.3523 H   0  0  0  0  0  0  0  0  0  0  0  0
  153.1301  141.6050  159.6709 H   0  0  0  0  0  0  0  0  0  0  0  0
  153.4393  142.2095  158.0471 H   0  0  0  0  0  0  0  0  0  0  0  0
  153.7835  143.9471  160.0965 H   0  0  0  0  0  0  0  0  0  0  0  0
  152.9787  145.7834  158.6502 H   0  0  0  0  0  0  0  0  0  0  0  0
  153.3674  144.5258  157.4768 H   0  0  0  0  0  0  0  0  0  0  0  0
  150.7322  145.6043  158.1975 H   0  0  0  0  0  0  0  0  0  0  0  0
  151.0489  144.4129  156.9513 H   0  0  0  0  0  0  0  0  0  0  0  0
  149.6662  143.5875  159.1417 H   0  0  0  0  0  0  0  0  0  0  0  0
  151.4437  143.1946  161.0336 H   0  0  0  0  0  0  0  0  0  0  0  0
  151.3883  144.9183  160.6001 H   0  0  0  0  0  0  0  0  0  0  0  0
  1  2  1  0  0  0  0
  1 24  1  0  0  0  0
  1 25  1  0  0  0  0
  1 26  1  0  0  0  0
  2  3  1  0  0  0  0
  2 17  1  0  0  0  0
  2 27  1  0  0  0  0
  3  4  1  0  0  0  0
  3 28  1  0  0  0  0
  4  5  2  0  0  0  0
  4  6  1  0  0  0  0
  6  7  1  0  0  0  0
  6 29  1  0  0  0  0
  6 30  1  0  0  0  0
  7 15  1  0  0  0  0
  7  8  1  0  0  0  0
  8  9  2  0  0  0  0
  8 31  1  0  0  0  0
  9 10  1  0  0  0  0
  9 13  1  0  0  0  0
 10 11  2  0  0  0  0
 10 12  1  0  0  0  0
 13 14  2  0  0  0  0
 13 32  1  0  0  0  0
 14 15  1  0  0  0  0
 14 33  1  0  0  0  0
 15 16  2  0  0  0  0
 17 22  1  0  0  0  0
 17 18  1  0  0  0  0
 17 34  1  0  0  0  0
 18 19  1  0  0  0  0
 18 35  1  0  0  0  0
 18 36  1  0  0  0  0
 19 23  1  0  0  0  0
 19 20  1  0  0  0  0
 19 37  1  0  0  0  0
 20 21  1  0  0  0  0
 20 38  1  0  0  0  0
 20 39  1  0  0  0  0
 21 22  1  0  0  0  0
 21 40  1  0  0  0  0
 21 41  1  0  0  0  0
 22 23  1  0  0  0  0
 22 42  1  0  0  0  0
 23 43  1  0  0  0  0
 23 44  1  0  0  0  0
M  CHG  1  10   1
M  CHG  1  12  -1
M  END
> <s_m_source_file>
AV-unprocessed.smi

> <i_m_source_file_index>
334

> <i_lp_mmshare_version>
43012

> <i_f3d_flags>
0

> <s_epik_input>
W0NIMl0xW0NIMl1bQ0BIXShbQ0gyXTIpW0NAQEhdKFtDSDJdW0NAQEhdMTIpW0NASF0oW0NIM10pW05IXUMoPU8pW0NIMl1uM1tjSF1jKFtOK10oPU8pW08tXSlbY0hdW2NIXWMzPU8=

> <s_epik_cmdline>
J2VwaWtfcHl0aG9uJywgJy1waCcsICc3LjAnLCAnLXRuJywgJzgnLCAnLW1hJywgJzIwMCcsICctbWV0YWxfYmluZGluZycsICctaW1hZScsICc8aW5maWxlLm1hZT4nLCAnLW9tYWUnLCAnPG91dGZpbGUubWFlPic=

> <r_lp_tautomer_probability>
1

> <r_epik_Ionization_Penalty>
2.17081e-08

> <r_epik_Ionization_Penalty_Charging>
8.1195e-11

> <r_epik_Ionization_Penalty_Neutral>
2.16269e-08

> <r_epik_State_Penalty>
-0

> <r_epik_Charging_Adjusted_Penalty>
8.1195e-11

> <i_epik_Tot_Q>
0

> <i_epik_Tot_abs_Q>
2

> <r_epik_Metal_State_Penalty>
-0

> <b_epik_Metal_Only>
0

> <s_lp_Force_Field>
OPLS_2005

> <r_lp_Energy>
62.3999

> <b_lp_Chiralities_Consistent>
1

> <s_lp_Variant>
AV-unprocessed.smi:334-3

> <Gold.Version>
5.8.1

> <Gold.Id.Protein>
6NUR|6NUR_protein|mol2

> <Gold.PLP.Fitness>
45.9178

> <Gold.PLP.PLP>
-39.5744

> <Gold.PLP.part.hbond>
-3.1307

> <Gold.PLP.part.metal>
0.0000

> <Gold.PLP.part.buried>
-7.2399

> <Gold.PLP.part.nonpolar>
-31.1618

> <Gold.PLP.part.repulsive>
1.5897

> <Gold.PLP.ligand.clash>
0.0000

> <Gold.PLP.ligand.torsion>
0.4967

> <Gold.PLP.Chemscore.Hbond>
2.4320

> <Gold.PLP.Chemscore.CHOScore>
0.0000

> <Gold.PLP.Chemscore.Metal>
0.0000

> <Gold.Chemscore.Hbonds>
donor molecule, donor type, donor heavy atom, donor atom, acceptor molecule, acceptor atom, score
      P1  H  6931  6943       L1    11  0.40
      P1  H  7989  7998       L1     5  1.00
      P1  H 10752 10765       L1    16  1.00

> <Gold.PLP.Chemscore.Internal.Correction>
0.0407

> <Gold.Rescore>
     Score         DG    S(hbond)    S(metal)    S(lipo)     H(rot)  DE(clash)    DE(int)     intcor
     21.65     -22.24       2.59        0.00     107.50       1.75       0.05       0.53       ----

> <Gold.Chemscore.Fitness>
21.6509

> <Gold.Chemscore.DG>
-22.2368

> <Gold.Chemscore.ZeroCoef>
-5.4800

> <Gold.Chemscore.Hbond>
2.5905

> <Gold.Chemscore.Metal>
0.0000

> <Gold.Chemscore.Lipo>
107.5028

> <Gold.Chemscore.Internal_Hbond>
0.0000

> <Gold.Chemscore.DEClash>
0.0515

> <Gold.Chemscore.DEInternal>
0.5344

> <Gold.Chemscore.Rot>
1.7474

> <Gold.Chemscore.Internal.Correction>
   9.000000E+99

> <Gold.Chemscore.Hbonds>
donor molecule, donor type, donor heavy atom, donor atom, acceptor molecule, acceptor atom, score
      P1  H  6931  6943       L1    11  0.39
      P1  H  7989  7998       L1     5  1.00
      P1  H 10752 10765       L1    16  0.65

> <Gold.Chemscore.Hbond.Weighted>
-8.6523

> <Gold.Chemscore.Metal.Weighted>
-0.0000

> <Gold.Chemscore.Lipo.Weighted>
-12.5778

> <Gold.Chemscore.Internal_Hbond.Weighted>
0.0000

> <Gold.Chemscore.DEClash.Weighted>
0.0515

> <Gold.Chemscore.DEInternal.Weighted>
0.5344

> <Gold.Chemscore.Rot.Weighted>
4.4733

> <Gold.Chemscore.Internal.Correction.Weighted>
   9.000000E+99

> <Gold.Protein.RotatedTorsions>
[ 6907 6896 6895 6894 ] final  -57.50 input  -60.11 | X-H torsion
[ 7974 7965 7964 7962 ] final   33.37 input  175.53 | X-H torsion
[ 8008 7997 7996 7995 ] final  -98.08 input   59.86 | X-H torsion
[ 10167 10162 10161 10158 ] final  142.58 input  -65.29 | X-H torsion
[ 10718 10713 10712 10709 ] final  -28.16 input   66.30 | X-H torsion
[ 10763 10752 10751 10750 ] final  178.96 input  -60.55 | X-H torsion
[ 11005 11000 10999 10996 ] final   70.78 input  -57.11 | X-H torsion

> <Gold.Protein.ActiveResidues>
 VAL166  LYS551  ARG553  GLY616  TRP617  ASP618  TYR619  PRO620  LYS621  CYS622 
 ASP623  PHE694  ASN695  SER759  ASP760  ASP761  ALA762  ILE779  LEU786  VAL792 
 PHE793  MET794  SER795  GLU796  ALA797  LYS798  CYS799  TRP800  GLU811  SER814 

> <Gold.Protein.RotatedAtoms>
  150.8081  134.7219  159.6662 H   0  0  0  0  0  0  0  0  0  0  0  0  # atno 6907 bound_to 6896
  152.4201  134.5968  159.9999 H   0  0  0  0  0  0  0  0  0  0  0  0  # atno 6908 bound_to 6896
  151.6185  133.3304  159.3119 H   0  0  0  0  0  0  0  0  0  0  0  0  # atno 6909 bound_to 6896
  146.1425  139.6405  142.9153 H   0  0  0  0  0  0  0  0  0  0  0  0  # atno 7974 bound_to 7965
  154.7964  140.0458  157.1239 H   0  0  0  0  0  0  0  0  0  0  0  0  # atno 8008 bound_to 7997
  154.9530  140.3067  155.5046 H   0  0  0  0  0  0  0  0  0  0  0  0  # atno 8009 bound_to 7997
  156.2956  140.2284  156.4610 H   0  0  0  0  0  0  0  0  0  0  0  0  # atno 8010 bound_to 7997
  139.4991  144.6098  151.6298 H   0  0  0  0  0  0  0  0  0  0  0  0  # atno 10167 bound_to 10162
  156.4289  130.4441  149.7131 H   0  0  0  0  0  0  0  0  0  0  0  0  # atno 10718 bound_to 10713
  154.5144  135.2790  155.1315 H   0  0  0  0  0  0  0  0  0  0  0  0  # atno 10763 bound_to 10752
  154.2898  135.6269  153.5384 H   0  0  0  0  0  0  0  0  0  0  0  0  # atno 10764 bound_to 10752
  152.9925  135.5671  154.5618 H   0  0  0  0  0  0  0  0  0  0  0  0  # atno 10765 bound_to 10752
  139.9579  134.7112  156.0711 H   0  0  0  0  0  0  0  0  0  0  0  0  # atno 11005 bound_to 11000
  145.5014  141.0437  143.2538 LP  0  0  0  0  0  0  0  0  0  0  0  0  # atno 17320 bound_to 7965
  144.7808  139.6530  143.7155 LP  0  0  0  0  0  0  0  0  0  0  0  0  # atno 17321 bound_to 7965
  140.5769  144.0013  150.6246 LP  0  0  0  0  0  0  0  0  0  0  0  0  # atno 17342 bound_to 10162
  140.3149  143.3174  152.0842 LP  0  0  0  0  0  0  0  0  0  0  0  0  # atno 17343 bound_to 10162
  156.4042  130.7690  151.2699 LP  0  0  0  0  0  0  0  0  0  0  0  0  # atno 17370 bound_to 10713
  157.7508  131.0230  150.3818 LP  0  0  0  0  0  0  0  0  0  0  0  0  # atno 17371 bound_to 10713
  141.1253  133.6601  156.3320 LP  0  0  0  0  0  0  0  0  0  0  0  0  # atno 17394 bound_to 11000
  140.5567  134.5974  157.5422 LP  0  0  0  0  0  0  0  0  0  0  0  0  # atno 17395 bound_to 11000

$$$$
