AV-unprocessed.smi:249|AV-procd|sdf|1906|dock8
  -GOLD-   2262020593D 1   1.00000     0.00000
 Structure written by MMmdl.
 64 67  0  0  0  0  0  0  0  0  2 V2000
  144.4144  131.8514  151.4129 C   0  0  0  0  0  0  0  0  0  0  0  0
  145.7754  131.7469  150.7050 C   0  0  0  0  0  0  0  0  0  0  0  0
  146.8511  131.1759  151.5668 N   0  3  2  0  0  0  0  0  0  0  0  0
  146.4856  129.8277  152.0886 C   0  0  0  0  0  0  0  0  0  0  0  0
  147.6423  129.1714  152.8542 C   0  0  0  0  0  0  0  0  0  0  0  0
  148.0938  130.0582  154.0268 C   0  0  1  0  0  0  0  0  0  0  0  0
  149.1588  129.4505  154.8401 N   0  0  0  0  0  0  0  0  0  0  0  0
  150.1573  128.6484  154.1421 C   0  0  0  0  0  0  0  0  0  0  0  0
  149.6669  130.2056  155.8438 C   0  0  0  0  0  0  0  0  0  0  0  0
  150.9735  130.5793  155.8169 N   0  0  0  0  0  0  0  0  0  0  0  0
  151.4582  131.3844  156.7674 C   0  0  0  0  0  0  0  0  0  0  0  0
  150.8190  131.9307  157.8040 N   0  0  0  0  0  0  0  0  0  0  0  0
  149.5132  131.5392  157.8429 C   0  0  0  0  0  0  0  0  0  0  0  0
  148.8679  130.6675  156.9235 C   0  0  0  0  0  0  0  0  0  0  0  0
  147.5413  130.4811  157.2918 N   0  0  0  0  0  0  0  0  0  0  0  0
  147.4008  131.2257  158.3543 C   0  0  0  0  0  0  0  0  0  0  0  0
  148.5245  131.9284  158.7285 N   0  0  0  0  0  0  0  0  0  0  0  0
  148.6356  132.8647  159.8306 C   0  0  0  0  0  0  0  0  0  0  0  0
  147.9426  134.2354  159.5850 C   0  0  2  0  0  0  0  0  0  0  0  0
  148.7355  135.0139  158.5066 C   0  0  0  0  0  0  0  0  0  0  0  0
  150.0448  135.3138  158.9453 O   0  0  0  0  0  0  0  0  0  0  0  0
  147.7546  135.0781  160.8857 C   0  0  1  0  0  0  0  0  0  0  0  0
  148.8939  134.9840  161.8910 C   0  0  0  0  0  0  0  0  0  0  0  0
  148.6661  136.2117  162.7592 C   0  0  0  0  0  0  0  0  0  0  0  0
  148.2776  137.2163  161.8371 O   0  0  0  0  0  0  0  0  0  0  0  0
  147.6836  136.6067  160.6947 C   0  0  0  0  0  0  0  0  0  0  0  0
  148.4502  131.4508  153.4717 C   0  0  0  0  0  0  0  0  0  0  0  0
  147.2935  132.0866  152.6728 C   0  0  1  0  0  0  0  0  0  0  0  0
  147.7543  133.4734  152.1759 C   0  0  0  0  0  0  0  0  0  0  0  0
  143.6352  132.1191  150.6986 H   0  0  0  0  0  0  0  0  0  0  0  0
  144.4045  132.6170  152.1877 H   0  0  0  0  0  0  0  0  0  0  0  0
  144.1304  130.9015  151.8665 H   0  0  0  0  0  0  0  0  0  0  0  0
  145.6062  131.1119  149.8387 H   0  0  0  0  0  0  0  0  0  0  0  0
  146.0827  132.7210  150.3216 H   0  0  0  0  0  0  0  0  0  0  0  0
  145.6094  129.9115  152.7336 H   0  0  0  0  0  0  0  0  0  0  0  0
  146.2125  129.1590  151.2744 H   0  0  0  0  0  0  0  0  0  0  0  0
  147.3226  128.1940  153.2157 H   0  0  0  0  0  0  0  0  0  0  0  0
  148.4692  128.9938  152.1660 H   0  0  0  0  0  0  0  0  0  0  0  0
  147.2410  130.1854  154.6953 H   0  0  0  0  0  0  0  0  0  0  0  0
  150.7671  128.0899  154.8535 H   0  0  0  0  0  0  0  0  0  0  0  0
  150.8194  129.2699  153.5383 H   0  0  0  0  0  0  0  0  0  0  0  0
  149.6721  127.9281  153.4830 H   0  0  0  0  0  0  0  0  0  0  0  0
  152.5035  131.6404  156.6754 H   0  0  0  0  0  0  0  0  0  0  0  0
  146.4592  131.3085  158.8775 H   0  0  0  0  0  0  0  0  0  0  0  0
  148.2192  132.3948  160.7225 H   0  0  0  0  0  0  0  0  0  0  0  0
  149.6993  133.0017  160.0269 H   0  0  0  0  0  0  0  0  0  0  0  0
  146.9498  134.0484  159.1730 H   0  0  0  0  0  0  0  0  0  0  0  0
  148.8457  134.4322  157.5924 H   0  0  0  0  0  0  0  0  0  0  0  0
  148.2234  135.9387  158.2393 H   0  0  0  0  0  0  0  0  0  0  0  0
  150.0845  136.2310  159.1695 H   0  0  0  0  0  0  0  0  0  0  0  0
  146.8449  134.7495  161.3913 H   0  0  0  0  0  0  0  0  0  0  0  0
  148.8793  134.0621  162.4735 H   0  0  0  0  0  0  0  0  0  0  0  0
  149.8590  135.0595  161.3872 H   0  0  0  0  0  0  0  0  0  0  0  0
  147.8516  136.0374  163.4638 H   0  0  0  0  0  0  0  0  0  0  0  0
  149.5530  136.5025  163.3223 H   0  0  0  0  0  0  0  0  0  0  0  0
  148.2440  136.9277  159.8162 H   0  0  0  0  0  0  0  0  0  0  0  0
  146.6590  136.9601  160.5890 H   0  0  0  0  0  0  0  0  0  0  0  0
  148.7229  132.1066  154.2990 H   0  0  0  0  0  0  0  0  0  0  0  0
  149.3231  131.3882  152.8201 H   0  0  0  0  0  0  0  0  0  0  0  0
  146.4490  132.2318  153.3487 H   0  0  0  0  0  0  0  0  0  0  0  0
  148.2148  134.0421  152.9844 H   0  0  0  0  0  0  0  0  0  0  0  0
  146.9276  134.0843  151.8153 H   0  0  0  0  0  0  0  0  0  0  0  0
  148.4925  133.3868  151.3777 H   0  0  0  0  0  0  0  0  0  0  0  0
  147.6553  131.0479  150.9692 H   0  0  0  0  0  0  0  0  0  0  0  0
  1  2  1  0  0  0  0
  1 30  1  0  0  0  0
  1 31  1  0  0  0  0
  1 32  1  0  0  0  0
  2  3  1  0  0  0  0
  2 33  1  0  0  0  0
  2 34  1  0  0  0  0
  3 28  1  0  0  0  0
  3  4  1  0  0  0  0
  3 64  1  0  0  0  0
  4  5  1  0  0  0  0
  4 35  1  0  0  0  0
  4 36  1  0  0  0  0
  5  6  1  0  0  0  0
  5 37  1  0  0  0  0
  5 38  1  0  0  0  0
  6  7  1  0  0  0  0
  6 27  1  0  0  0  0
  6 39  1  0  0  0  0
  7  8  1  0  0  0  0
  7  9  1  0  0  0  0
  8 40  1  0  0  0  0
  8 41  1  0  0  0  0
  8 42  1  0  0  0  0
  9 14  1  0  0  0  0
  9 10  2  0  0  0  0
 10 11  1  0  0  0  0
 11 12  2  0  0  0  0
 11 43  1  0  0  0  0
 12 13  1  0  0  0  0
 13 17  1  0  0  0  0
 13 14  2  0  0  0  0
 14 15  1  0  0  0  0
 15 16  2  0  0  0  0
 16 17  1  0  0  0  0
 16 44  1  0  0  0  0
 17 18  1  0  0  0  0
 18 19  1  0  0  0  0
 18 45  1  0  0  0  0
 18 46  1  0  0  0  0
 19 20  1  0  0  0  0
 19 22  1  0  0  0  0
 19 47  1  0  0  0  0
 20 21  1  0  0  0  0
 20 48  1  0  0  0  0
 20 49  1  0  0  0  0
 21 50  1  0  0  0  0
 22 26  1  0  0  0  0
 22 23  1  0  0  0  0
 22 51  1  0  0  0  0
 23 24  1  0  0  0  0
 23 52  1  0  0  0  0
 23 53  1  0  0  0  0
 24 25  1  0  0  0  0
 24 54  1  0  0  0  0
 24 55  1  0  0  0  0
 25 26  1  0  0  0  0
 26 56  1  0  0  0  0
 26 57  1  0  0  0  0
 27 28  1  0  0  0  0
 27 58  1  0  0  0  0
 27 59  1  0  0  0  0
 28 29  1  0  0  0  0
 28 60  1  0  0  0  0
 29 61  1  0  0  0  0
 29 62  1  0  0  0  0
 29 63  1  0  0  0  0
M  CHG  1   3   1
M  END
> <s_m_source_file>
AV-unprocessed.smi

> <i_m_source_file_index>
249

> <i_lp_mmshare_version>
43012

> <i_f3d_flags>
0

> <s_epik_input>
W0NIM11bQ0gyXU4xW0NIMl1bQ0gyXVtDQEhdKFtDSDJdW0NASF0xW0NIM10pTihbQ0gzXSljKG5bY0hdbjIpYyhjMjMpbltjSF1uM1tDSDJdW0NASF0oW0NIMl1bT0hdKVtDQEBIXTRbQ0gyXVtDSDJdT1tDSDJdNA==

> <s_epik_cmdline>
J2VwaWtfcHl0aG9uJywgJy1waCcsICc3LjAnLCAnLXRuJywgJzgnLCAnLW1hJywgJzIwMCcsICctbWV0YWxfYmluZGluZycsICctaW1hZScsICc8aW5maWxlLm1hZT4nLCAnLW9tYWUnLCAnPG91dGZpbGUubWFlPic=

> <r_lp_tautomer_probability>
1

> <r_epik_Ionization_Penalty>
0.00294688

> <r_epik_Ionization_Penalty_Charging>
0.00169971

> <r_epik_Ionization_Penalty_Neutral>
0.00124717

> <r_epik_State_Penalty>
-0

> <r_epik_Charging_Adjusted_Penalty>
0.00169971

> <i_epik_Tot_Q>
1

> <i_epik_Tot_abs_Q>
1

> <r_epik_Metal_State_Penalty>
-0

> <b_epik_Metal_Only>
0

> <s_lp_Force_Field>
OPLS_2005

> <r_lp_Energy>
53.7377

> <b_lp_Chiralities_Consistent>
1

> <s_lp_Variant>
AV-unprocessed.smi:249-9

> <Gold.Version>
5.8.1

> <Gold.Id.Protein>
6NUR|6NUR_protein|mol2

> <Gold.PLP.Fitness>
48.2813

> <Gold.PLP.PLP>
-38.3645

> <Gold.PLP.part.hbond>
-5.0000

> <Gold.PLP.part.metal>
0.0000

> <Gold.PLP.part.buried>
-3.0857

> <Gold.PLP.part.nonpolar>
-29.3239

> <Gold.PLP.part.repulsive>
0.0432

> <Gold.PLP.ligand.clash>
0.0000

> <Gold.PLP.ligand.torsion>
1.5504

> <Gold.PLP.Chemscore.Hbond>
4.0173

> <Gold.PLP.Chemscore.CHOScore>
0.0000

> <Gold.PLP.Chemscore.Metal>
0.0000

> <Gold.Chemscore.Hbonds>
donor molecule, donor type, donor heavy atom, donor atom, acceptor molecule, acceptor atom, score
      L1  H     3    64       P1 10747  0.93
      P1  H  6896  6907       L1    21  0.17
      P1  H  6896  6909       L1    12  0.89
      P1  H  6931  6943       L1    25  0.37
      P1  H  6934  6947       L1    25  0.01

> <Gold.PLP.Chemscore.Internal.Correction>
0.9658

> <Gold.Rescore>
     Score         DG    S(hbond)    S(metal)    S(lipo)     H(rot)  DE(clash)    DE(int)     intcor
     17.57     -18.92       2.84        0.00      97.33       2.90       0.11       1.24       ----

> <Gold.Chemscore.Fitness>
17.5729

> <Gold.Chemscore.DG>
-18.9224

> <Gold.Chemscore.ZeroCoef>
-5.4800

> <Gold.Chemscore.Hbond>
2.8385

> <Gold.Chemscore.Metal>
0.0000

> <Gold.Chemscore.Lipo>
97.3295

> <Gold.Chemscore.Internal_Hbond>
0.0000

> <Gold.Chemscore.DEClash>
0.1087

> <Gold.Chemscore.DEInternal>
1.2408

> <Gold.Chemscore.Rot>
2.9006

> <Gold.Chemscore.Internal.Correction>
   9.000000E+99

> <Gold.Chemscore.Hbonds>
donor molecule, donor type, donor heavy atom, donor atom, acceptor molecule, acceptor atom, score
      L1  H     3    64       P1 10747  0.89
      P1  H  6896  6907       L1    21  0.04
      P1  H  6896  6909       L1    12  0.79
      P1  H  6931  6943       L1    25  0.29

> <Gold.Chemscore.Hbond.Weighted>
-9.4805

> <Gold.Chemscore.Metal.Weighted>
-0.0000

> <Gold.Chemscore.Lipo.Weighted>
-11.3876

> <Gold.Chemscore.Internal_Hbond.Weighted>
0.0000

> <Gold.Chemscore.DEClash.Weighted>
0.1087

> <Gold.Chemscore.DEInternal.Weighted>
1.2408

> <Gold.Chemscore.Rot.Weighted>
7.4256

> <Gold.Chemscore.Internal.Correction.Weighted>
   9.000000E+99

> <Gold.Protein.RotatedTorsions>
[ 6907 6896 6895 6894 ] final  -45.64 input  -60.11 | X-H torsion
[ 7974 7965 7964 7962 ] final    4.01 input  175.53 | X-H torsion
[ 8008 7997 7996 7995 ] final  -38.15 input   59.86 | X-H torsion
[ 10167 10162 10161 10158 ] final   73.73 input  -65.29 | X-H torsion
[ 10718 10713 10712 10709 ] final  153.68 input   66.30 | X-H torsion
[ 10763 10752 10751 10750 ] final   58.95 input  -60.55 | X-H torsion
[ 11005 11000 10999 10996 ] final  -68.64 input  -57.11 | X-H torsion

> <Gold.Protein.ActiveResidues>
 VAL166  LYS551  ARG553  GLY616  TRP617  ASP618  TYR619  PRO620  LYS621  CYS622 
 ASP623  PHE694  ASN695  SER759  ASP760  ASP761  ALA762  ILE779  LEU786  VAL792 
 PHE793  MET794  SER795  GLU796  ALA797  LYS798  CYS799  TRP800  GLU811  SER814 

> <Gold.Protein.RotatedAtoms>
  150.9198  134.8616  159.7480 H   0  0  0  0  0  0  0  0  0  0  0  0  # atno 6907 bound_to 6896
  152.4987  134.4235  159.9498 H   0  0  0  0  0  0  0  0  0  0  0  0  # atno 6908 bound_to 6896
  151.4270  133.3642  159.2799 H   0  0  0  0  0  0  0  0  0  0  0  0  # atno 6909 bound_to 6896
  146.2444  140.0598  142.8369 H   0  0  0  0  0  0  0  0  0  0  0  0  # atno 7974 bound_to 7965
  154.4041  140.1585  156.2652 H   0  0  0  0  0  0  0  0  0  0  0  0  # atno 8008 bound_to 7997
  155.9001  140.3433  155.5998 H   0  0  0  0  0  0  0  0  0  0  0  0  # atno 8009 bound_to 7997
  155.7458  140.0798  157.2215 H   0  0  0  0  0  0  0  0  0  0  0  0  # atno 8010 bound_to 7997
  140.0213  144.5538  150.7580 H   0  0  0  0  0  0  0  0  0  0  0  0  # atno 10167 bound_to 10162
  157.2416  131.0760  151.1788 H   0  0  0  0  0  0  0  0  0  0  0  0  # atno 10718 bound_to 10713
  152.9883  135.5588  154.5635 H   0  0  0  0  0  0  0  0  0  0  0  0  # atno 10763 bound_to 10752
  154.5050  135.2799  155.1392 H   0  0  0  0  0  0  0  0  0  0  0  0  # atno 10764 bound_to 10752
  154.2807  135.6345  153.5399 H   0  0  0  0  0  0  0  0  0  0  0  0  # atno 10765 bound_to 10752
  141.1536  133.6745  156.6477 H   0  0  0  0  0  0  0  0  0  0  0  0  # atno 11005 bound_to 11000
  145.0910  140.9284  143.4769 LP  0  0  0  0  0  0  0  0  0  0  0  0  # atno 17320 bound_to 7965
  145.0771  139.2987  143.5802 LP  0  0  0  0  0  0  0  0  0  0  0  0  # atno 17321 bound_to 7965
  140.7341  143.2725  151.3844 LP  0  0  0  0  0  0  0  0  0  0  0  0  # atno 17342 bound_to 10162
  139.6138  144.1044  152.2325 LP  0  0  0  0  0  0  0  0  0  0  0  0  # atno 17343 bound_to 10162
  157.3373  130.7015  149.6360 LP  0  0  0  0  0  0  0  0  0  0  0  0  # atno 17370 bound_to 10713
  155.9670  130.4290  150.4814 LP  0  0  0  0  0  0  0  0  0  0  0  0  # atno 17371 bound_to 10713
  140.3344  134.7901  157.4351 LP  0  0  0  0  0  0  0  0  0  0  0  0  # atno 17394 bound_to 11000
  140.0990  134.5499  155.8371 LP  0  0  0  0  0  0  0  0  0  0  0  0  # atno 17395 bound_to 11000

$$$$
