AV-unprocessed.smi:136|AV-procd|sdf|1171|dock5
  -GOLD-   2262018313D 1   1.00000     0.00000
 Structure written by MMmdl.
 54 58  0  0  0  0  0  0  0  0  1 V2000
  151.9434  140.1439  155.2890 O   0  0  0  0  0  0  0  0  0  0  0  0
  151.4375  140.7237  156.2519 C   0  0  0  0  0  0  0  0  0  0  0  0
  150.1945  141.6149  156.0437 C   0  0  0  0  0  0  0  0  0  0  0  0
  148.9591  140.8450  155.7774 N   0  0  0  0  0  0  0  0  0  0  0  0
  148.5237  140.7058  154.4360 C   0  0  0  0  0  0  0  0  0  0  0  0
  149.1622  141.1957  153.5033 O   0  0  0  0  0  0  0  0  0  0  0  0
  147.2826  139.9625  154.2504 C   0  0  0  0  0  0  0  0  0  0  0  0
  146.7956  139.7798  153.0112 F   0  0  0  0  0  0  0  0  0  0  0  0
  146.6112  139.4556  155.3049 C   0  0  0  0  0  0  0  0  0  0  0  0
  147.0462  139.6027  156.6100 N   0  0  0  0  0  0  0  0  0  0  0  0
  146.2768  139.0341  157.7831 C   0  0  2  0  0  0  0  0  0  0  0  0
  145.0045  138.3161  157.2971 C   0  0  0  0  0  0  0  0  0  0  0  0
  143.9283  138.9131  158.1811 C   0  0  0  0  0  0  0  0  0  0  0  0
  144.4781  140.3064  158.4471 C   0  0  0  0  0  0  0  0  0  0  0  0
  145.8677  140.0695  158.6314 O   0  0  0  0  0  0  0  0  0  0  0  0
  148.2377  140.3131  156.8724 C   0  0  0  0  0  0  0  0  0  0  0  0
  148.6342  140.4667  158.0299 O   0  0  0  0  0  0  0  0  0  0  0  0
  151.9456  140.6111  157.4994 N   0  0  0  0  0  0  0  0  0  0  0  0
  152.9630  139.7713  157.8178 N   0  0  0  0  0  0  0  0  0  0  0  0
  153.1627  139.7949  159.0837 C   0  0  0  0  0  0  0  0  0  0  0  0
  154.2040  139.0109  159.7844 C   0  0  0  0  0  0  0  0  0  0  0  0
  154.2242  138.9888  161.1976 C   0  0  0  0  0  0  0  0  0  0  0  0
  155.2111  138.2366  161.8645 C   0  0  0  0  0  0  0  0  0  0  0  0
  156.1704  137.5142  161.1268 C   0  0  0  0  0  0  0  0  0  0  0  0
  157.3752  136.5932  161.9496 Cl  0  0  0  0  0  0  0  0  0  0  0  0
  156.1471  137.5421  159.7178 C   0  0  0  0  0  0  0  0  0  0  0  0
  155.1647  138.2899  159.0396 C   0  0  0  0  0  0  0  0  0  0  0  0
  152.2456  140.7113  159.8212 C   0  0  0  0  0  0  0  0  0  0  0  0
  151.4180  141.3065  158.6799 C   0  0  1  0  0  0  0  0  0  0  0  0
  151.5365  142.7997  158.5863 C   0  0  0  0  0  0  0  0  0  0  0  0
  150.6201  143.8143  158.5712 C   0  0  0  0  0  0  0  0  0  0  0  0
  151.3618  145.0239  158.4723 C   0  0  0  0  0  0  0  0  0  0  0  0
  152.6773  144.6580  158.4413 C   0  0  0  0  0  0  0  0  0  0  0  0
  152.8017  143.3056  158.5152 O   0  0  0  0  0  0  0  0  0  0  0  0
  150.0618  142.2495  156.9217 H   0  0  0  0  0  0  0  0  0  0  0  0
  150.4015  142.3172  155.2350 H   0  0  0  0  0  0  0  0  0  0  0  0
  145.6978  138.9192  155.0994 H   0  0  0  0  0  0  0  0  0  0  0  0
  146.9779  138.3903  158.3174 H   0  0  0  0  0  0  0  0  0  0  0  0
  144.8122  138.5566  156.2501 H   0  0  0  0  0  0  0  0  0  0  0  0
  145.0995  137.2349  157.4013 H   0  0  0  0  0  0  0  0  0  0  0  0
  142.9451  138.9246  157.7100 H   0  0  0  0  0  0  0  0  0  0  0  0
  143.8559  138.3548  159.1153 H   0  0  0  0  0  0  0  0  0  0  0  0
  144.3174  140.9567  157.5864 H   0  0  0  0  0  0  0  0  0  0  0  0
  144.0318  140.7770  159.3232 H   0  0  0  0  0  0  0  0  0  0  0  0
  153.4966  139.5343  161.7811 H   0  0  0  0  0  0  0  0  0  0  0  0
  155.2298  138.2132  162.9442 H   0  0  0  0  0  0  0  0  0  0  0  0
  156.8834  136.9879  159.1541 H   0  0  0  0  0  0  0  0  0  0  0  0
  155.1687  138.2943  157.9599 H   0  0  0  0  0  0  0  0  0  0  0  0
  151.6195  140.1627  160.5257 H   0  0  0  0  0  0  0  0  0  0  0  0
  152.8056  141.4717  160.3675 H   0  0  0  0  0  0  0  0  0  0  0  0
  150.3696  141.0316  158.8088 H   0  0  0  0  0  0  0  0  0  0  0  0
  149.5476  143.6989  158.6205 H   0  0  0  0  0  0  0  0  0  0  0  0
  150.9815  146.0338  158.4296 H   0  0  0  0  0  0  0  0  0  0  0  0
  153.6069  145.2032  158.3732 H   0  0  0  0  0  0  0  0  0  0  0  0
  1  2  2  0  0  0  0
  2  3  1  0  0  0  0
  2 18  1  0  0  0  0
  3  4  1  0  0  0  0
  3 35  1  0  0  0  0
  3 36  1  0  0  0  0
  4 16  1  0  0  0  0
  4  5  1  0  0  0  0
  5  6  2  0  0  0  0
  5  7  1  0  0  0  0
  7  8  1  0  0  0  0
  7  9  2  0  0  0  0
  9 10  1  0  0  0  0
  9 37  1  0  0  0  0
 10 11  1  0  0  0  0
 10 16  1  0  0  0  0
 11 15  1  0  0  0  0
 11 12  1  0  0  0  0
 11 38  1  0  0  0  0
 12 13  1  0  0  0  0
 12 39  1  0  0  0  0
 12 40  1  0  0  0  0
 13 14  1  0  0  0  0
 13 41  1  0  0  0  0
 13 42  1  0  0  0  0
 14 15  1  0  0  0  0
 14 43  1  0  0  0  0
 14 44  1  0  0  0  0
 16 17  2  0  0  0  0
 18 29  1  0  0  0  0
 18 19  1  0  0  0  0
 19 20  2  0  0  0  0
 20 21  1  0  0  0  0
 20 28  1  0  0  0  0
 21 27  1  0  0  0  0
 21 22  2  0  0  0  0
 22 23  1  0  0  0  0
 22 45  1  0  0  0  0
 23 24  2  0  0  0  0
 23 46  1  0  0  0  0
 24 25  1  0  0  0  0
 24 26  1  0  0  0  0
 26 27  2  0  0  0  0
 26 47  1  0  0  0  0
 27 48  1  0  0  0  0
 28 29  1  0  0  0  0
 28 49  1  0  0  0  0
 28 50  1  0  0  0  0
 29 30  1  0  0  0  0
 29 51  1  0  0  0  0
 30 34  1  0  0  0  0
 30 31  2  0  0  0  0
 31 32  1  0  0  0  0
 31 52  1  0  0  0  0
 32 33  2  0  0  0  0
 32 53  1  0  0  0  0
 33 34  1  0  0  0  0
 33 54  1  0  0  0  0
M  END
> <s_m_source_file>
AV-unprocessed.smi

> <i_m_source_file_index>
136

> <i_lp_mmshare_version>
43012

> <i_f3d_flags>
0

> <s_epik_input>
bzFbY0hdW2NIXVtjSF1jMVtDQEBIXTJbQ0gyXUMoYzNbY0hdW2NIXWMoQ2wpW2NIXVtjSF0zKT1OTjJDKD1PKVtDSDJdbjRjKD1PKWMoRilbY0hdbihjND1PKVtDQEBIXTVbQ0gyXVtDSDJdW0NIMl1PNQ==

> <s_epik_cmdline>
J2VwaWtfcHl0aG9uJywgJy1waCcsICc3LjAnLCAnLXRuJywgJzgnLCAnLW1hJywgJzIwMCcsICctbWV0YWxfYmluZGluZycsICctaW1hZScsICc8aW5maWxlLm1hZT4nLCAnLW9tYWUnLCAnPG91dGZpbGUubWFlPic=

> <r_lp_tautomer_probability>
1

> <r_epik_Ionization_Penalty>
2.55467e-08

> <r_epik_Ionization_Penalty_Charging>
4.85705e-09

> <r_epik_Ionization_Penalty_Neutral>
2.06897e-08

> <r_epik_State_Penalty>
-0

> <r_epik_Charging_Adjusted_Penalty>
4.85705e-09

> <i_epik_Tot_Q>
0

> <i_epik_Tot_abs_Q>
0

> <r_epik_Metal_State_Penalty>
-0

> <b_epik_Metal_Only>
0

> <s_epik_Chemistry_Notes>
This compound has an imine and may undergo hydrolysis. This compound contains an acetal/aminal-like group ( X-CH(R)-Y where X, Y are N, S, or O) that may be acid/base labile, releasing an aldehyde.

> <s_lp_Force_Field>
OPLS_2005

> <r_lp_Energy>
40.8333

> <b_lp_Chiralities_Consistent>
1

> <s_lp_Variant>
AV-unprocessed.smi:136-1

> <Gold.Version>
5.8.1

> <Gold.Id.Protein>
6NUR|6NUR_protein|mol2

> <Gold.PLP.Fitness>
48.6525

> <Gold.PLP.PLP>
-41.3928

> <Gold.PLP.part.hbond>
-5.3429

> <Gold.PLP.part.metal>
0.0000

> <Gold.PLP.part.buried>
-6.7831

> <Gold.PLP.part.nonpolar>
-32.7687

> <Gold.PLP.part.repulsive>
3.0034

> <Gold.PLP.ligand.clash>
0.0000

> <Gold.PLP.ligand.torsion>
0.5273

> <Gold.PLP.Chemscore.Hbond>
2.7440

> <Gold.PLP.Chemscore.CHOScore>
0.0000

> <Gold.PLP.Chemscore.Metal>
0.0000

> <Gold.Chemscore.Hbonds>
donor molecule, donor type, donor heavy atom, donor atom, acceptor molecule, acceptor atom, score
      P1  H  6934  6946       L1    15  0.01
      P1  H  7989  7998       L1     1  0.82
      P1  H  7997  8008       L1    19  1.00
      P1  H  8011  8017       L1     6  0.99

> <Gold.PLP.Chemscore.Internal.Correction>
0.0823

> <Gold.Rescore>
     Score         DG    S(hbond)    S(metal)    S(lipo)     H(rot)  DE(clash)    DE(int)     intcor
     18.56     -21.92       2.59        0.00     105.96       1.81       1.72       1.64       ----

> <Gold.Chemscore.Fitness>
18.5635

> <Gold.Chemscore.DG>
-21.9186

> <Gold.Chemscore.ZeroCoef>
-5.4800

> <Gold.Chemscore.Hbond>
2.5939

> <Gold.Chemscore.Metal>
0.0000

> <Gold.Chemscore.Lipo>
105.9595

> <Gold.Chemscore.Internal_Hbond>
0.0000

> <Gold.Chemscore.DEClash>
1.7176

> <Gold.Chemscore.DEInternal>
1.6375

> <Gold.Chemscore.Rot>
1.8056

> <Gold.Chemscore.Internal.Correction>
   9.000000E+99

> <Gold.Chemscore.Hbonds>
donor molecule, donor type, donor heavy atom, donor atom, acceptor molecule, acceptor atom, score
      P1  H  6934  6946       L1    15  0.01
      P1  H  7989  7998       L1     1  0.76
      P1  H  7997  8008       L1    19  0.74
      P1  H  8011  8017       L1     6  0.94

> <Gold.Chemscore.Hbond.Weighted>
-8.6637

> <Gold.Chemscore.Metal.Weighted>
-0.0000

> <Gold.Chemscore.Lipo.Weighted>
-12.3973

> <Gold.Chemscore.Internal_Hbond.Weighted>
0.0000

> <Gold.Chemscore.DEClash.Weighted>
1.7176

> <Gold.Chemscore.DEInternal.Weighted>
1.6375

> <Gold.Chemscore.Rot.Weighted>
4.6223

> <Gold.Chemscore.Internal.Correction.Weighted>
   9.000000E+99

> <Gold.Protein.RotatedTorsions>
[ 6907 6896 6895 6894 ] final   80.85 input  -60.11 | X-H torsion
[ 7974 7965 7964 7962 ] final -123.58 input  175.53 | X-H torsion
[ 8008 7997 7996 7995 ] final  -70.22 input   59.86 | X-H torsion
[ 10167 10162 10161 10158 ] final  -79.39 input  -65.29 | X-H torsion
[ 10718 10713 10712 10709 ] final  110.25 input   66.30 | X-H torsion
[ 10763 10752 10751 10750 ] final   26.91 input  -60.55 | X-H torsion
[ 11005 11000 10999 10996 ] final  -92.76 input  -57.11 | X-H torsion

> <Gold.Protein.ActiveResidues>
 VAL166  LYS551  ARG553  GLY616  TRP617  ASP618  TYR619  PRO620  LYS621  CYS622 
 ASP623  PHE694  ASN695  SER759  ASP760  ASP761  ALA762  ILE779  LEU786  VAL792 
 PHE793  MET794  SER795  GLU796  ALA797  LYS798  CYS799  TRP800  GLU811  SER814 

> <Gold.Protein.RotatedAtoms>
  152.5249  134.3294  159.9176 H   0  0  0  0  0  0  0  0  0  0  0  0  # atno 6907 bound_to 6896
  151.3243  133.4020  159.2665 H   0  0  0  0  0  0  0  0  0  0  0  0  # atno 6908 bound_to 6896
  150.9933  134.9280  159.7970 H   0  0  0  0  0  0  0  0  0  0  0  0  # atno 6909 bound_to 6896
  145.0171  140.7956  143.4403 H   0  0  0  0  0  0  0  0  0  0  0  0  # atno 7974 bound_to 7965
  154.4996  140.0838  156.7769 H   0  0  0  0  0  0  0  0  0  0  0  0  # atno 8008 bound_to 7997
  155.4035  140.3438  155.4240 H   0  0  0  0  0  0  0  0  0  0  0  0  # atno 8009 bound_to 7997
  156.1439  140.1537  156.8865 H   0  0  0  0  0  0  0  0  0  0  0  0  # atno 8010 bound_to 7997
  140.4597  143.2457  151.8366 H   0  0  0  0  0  0  0  0  0  0  0  0  # atno 10167 bound_to 10162
  157.6503  131.0929  150.6574 H   0  0  0  0  0  0  0  0  0  0  0  0  # atno 10718 bound_to 10713
  153.0591  135.6549  154.0506 H   0  0  0  0  0  0  0  0  0  0  0  0  # atno 10763 bound_to 10752
  154.0178  135.2922  155.3386 H   0  0  0  0  0  0  0  0  0  0  0  0  # atno 10764 bound_to 10752
  154.6920  135.5279  153.8473 H   0  0  0  0  0  0  0  0  0  0  0  0  # atno 10765 bound_to 10752
  141.1514  133.7842  157.0065 H   0  0  0  0  0  0  0  0  0  0  0  0  # atno 11005 bound_to 11000
  145.1945  139.2284  143.5225 LP  0  0  0  0  0  0  0  0  0  0  0  0  # atno 17320 bound_to 7965
  146.3479  140.1748  142.8589 LP  0  0  0  0  0  0  0  0  0  0  0  0  # atno 17321 bound_to 7965
  139.4805  144.5022  151.9045 LP  0  0  0  0  0  0  0  0  0  0  0  0  # atno 17342 bound_to 10162
  140.4108  144.2372  150.5889 LP  0  0  0  0  0  0  0  0  0  0  0  0  # atno 17343 bound_to 10162
  156.6886  130.4588  149.5606 LP  0  0  0  0  0  0  0  0  0  0  0  0  # atno 17370 bound_to 10713
  156.1877  130.6540  151.1026 LP  0  0  0  0  0  0  0  0  0  0  0  0  # atno 17371 bound_to 10713
  140.0905  134.9595  157.1769 LP  0  0  0  0  0  0  0  0  0  0  0  0  # atno 17394 bound_to 11000
  140.3452  134.2660  155.7206 LP  0  0  0  0  0  0  0  0  0  0  0  0  # atno 17395 bound_to 11000

$$$$
