AV-unprocessed.smi:3025|AV-procd|sdf|11508|dock7
  -GOLD-   2272016443D 1   1.00000     0.00000
 Structure written by MMmdl.
 42 43  0  0  0  0  0  0  0  0  2 V2000
  151.5480  145.5632  160.1636 C   0  0  0  0  0  0  0  0  0  0  0  0
  152.1850  144.3425  160.8366 C   0  0  0  0  0  0  0  0  0  0  0  0
  152.6828  143.3035  159.8176 C   0  0  0  0  0  0  0  0  0  0  0  0
  151.5856  142.3542  159.2928 C   0  0  2  0  0  0  0  0  0  0  0  0
  152.0929  141.4223  158.1711 C   0  0  0  0  0  0  0  0  0  0  0  0
  150.9774  140.5046  157.6411 C   0  0  0  0  0  0  0  0  0  0  0  0
  149.7462  141.2979  157.1543 C   0  0  2  0  0  0  0  0  0  0  0  0
  150.0210  142.0632  155.9158 N   0  3  0  0  0  0  0  0  0  0  0  0
  149.6249  141.4001  154.6562 C   0  0  0  0  0  0  0  0  0  0  0  0
  148.1282  141.0628  154.6630 C   0  0  0  0  0  0  0  0  0  0  0  0
  147.7646  140.1040  153.5783 C   0  0  0  0  0  0  0  0  0  0  0  0
  148.3076  138.8867  153.5231 N   0  0  0  0  0  0  0  0  0  0  0  0
  147.6914  138.3515  152.4468 N   0  0  0  0  0  0  0  0  0  0  0  0
  146.8369  139.2463  151.9529 C   0  0  0  0  0  0  0  0  0  0  0  0
  146.8206  140.3874  152.6296 N   0  0  0  0  0  0  0  0  0  0  0  0
  149.2485  142.2401  158.2660 C   0  0  0  0  0  0  0  0  0  0  0  0
  150.3647  143.1560  158.7985 C   0  0  0  0  0  0  0  0  0  0  0  0
  151.2021  146.2811  160.9078 H   0  0  0  0  0  0  0  0  0  0  0  0
  150.6895  145.2756  159.5562 H   0  0  0  0  0  0  0  0  0  0  0  0
  152.2618  146.0733  159.5161 H   0  0  0  0  0  0  0  0  0  0  0  0
  153.0093  144.6808  161.4637 H   0  0  0  0  0  0  0  0  0  0  0  0
  151.4559  143.8818  161.5039 H   0  0  0  0  0  0  0  0  0  0  0  0
  153.1163  143.8390  158.9718 H   0  0  0  0  0  0  0  0  0  0  0  0
  153.4966  142.7220  160.2531 H   0  0  0  0  0  0  0  0  0  0  0  0
  151.2545  141.7328  160.1265 H   0  0  0  0  0  0  0  0  0  0  0  0
  152.5021  142.0153  157.3522 H   0  0  0  0  0  0  0  0  0  0  0  0
  152.9100  140.8002  158.5354 H   0  0  0  0  0  0  0  0  0  0  0  0
  151.3670  139.8573  156.8558 H   0  0  0  0  0  0  0  0  0  0  0  0
  150.6678  139.8341  158.4438 H   0  0  0  0  0  0  0  0  0  0  0  0
  148.9412  140.5960  156.9316 H   0  0  0  0  0  0  0  0  0  0  0  0
  149.5032  142.9285  155.9729 H   0  0  0  0  0  0  0  0  0  0  0  0
  149.8490  142.0478  153.8089 H   0  0  0  0  0  0  0  0  0  0  0  0
  150.2088  140.4872  154.5298 H   0  0  0  0  0  0  0  0  0  0  0  0
  147.8464  140.6307  155.6243 H   0  0  0  0  0  0  0  0  0  0  0  0
  147.5371  141.9727  154.5474 H   0  0  0  0  0  0  0  0  0  0  0  0
  146.2150  139.0594  151.0897 H   0  0  0  0  0  0  0  0  0  0  0  0
  148.4119  142.8403  157.9066 H   0  0  0  0  0  0  0  0  0  0  0  0
  148.8579  141.6434  159.0915 H   0  0  0  0  0  0  0  0  0  0  0  0
  149.9687  143.7669  159.6107 H   0  0  0  0  0  0  0  0  0  0  0  0
  150.6726  143.8525  158.0178 H   0  0  0  0  0  0  0  0  0  0  0  0
  151.0063  142.2829  155.8818 H   0  0  0  0  0  0  0  0  0  0  0  0
  147.8746  137.4171  152.1086 H   0  0  0  0  0  0  0  0  0  0  0  0
  1  2  1  0  0  0  0
  1 18  1  0  0  0  0
  1 19  1  0  0  0  0
  1 20  1  0  0  0  0
  2  3  1  0  0  0  0
  2 21  1  0  0  0  0
  2 22  1  0  0  0  0
  3  4  1  0  0  0  0
  3 23  1  0  0  0  0
  3 24  1  0  0  0  0
  4 17  1  0  0  0  0
  4  5  1  0  0  0  0
  4 25  1  0  0  0  0
  5  6  1  0  0  0  0
  5 26  1  0  0  0  0
  5 27  1  0  0  0  0
  6  7  1  0  0  0  0
  6 28  1  0  0  0  0
  6 29  1  0  0  0  0
  7  8  1  0  0  0  0
  7 16  1  0  0  0  0
  7 30  1  0  0  0  0
  8  9  1  0  0  0  0
  8 31  1  0  0  0  0
  8 41  1  0  0  0  0
  9 10  1  0  0  0  0
  9 32  1  0  0  0  0
  9 33  1  0  0  0  0
 10 34  1  0  0  0  0
 10 35  1  0  0  0  0
 10 11  1  0  0  0  0
 11 15  1  0  0  0  0
 11 12  2  0  0  0  0
 12 13  1  0  0  0  0
 13 14  1  0  0  0  0
 13 42  1  0  0  0  0
 14 15  2  0  0  0  0
 14 36  1  0  0  0  0
 16 17  1  0  0  0  0
 16 37  1  0  0  0  0
 16 38  1  0  0  0  0
 17 39  1  0  0  0  0
 17 40  1  0  0  0  0
M  CHG  1   8   1
M  END
> <s_m_source_file>
AV-unprocessed.smi

> <i_m_source_file_index>
3025

> <i_lp_mmshare_version>
43012

> <i_f3d_flags>
0

> <s_epik_input>
W0NIM11bQ0gyXVtDSDJdW0NAQEhdMVtDSDJdW0NIMl1bQ0BIXShbQ0gyXVtDSDJdMSlbTkhdW0NIMl1bQ0gyXWMybm5bY0hdW25IXTI=

> <s_epik_cmdline>
J2VwaWtfcHl0aG9uJywgJy1waCcsICc3LjAnLCAnLXRuJywgJzgnLCAnLW1hJywgJzIwMCcsICctbWV0YWxfYmluZGluZycsICctaW1hZScsICc8aW5maWxlLm1hZT4nLCAnLW9tYWUnLCAnPG91dGZpbGUubWFlPic=

> <r_epik_Ionization_Penalty>
0.00995411

> <r_epik_Ionization_Penalty_Charging>
0.000442289

> <r_epik_Ionization_Penalty_Neutral>
0.00951182

> <r_epik_State_Penalty>
0.448541

> <r_epik_Charging_Adjusted_Penalty>
0.448983

> <i_epik_Tot_Q>
1

> <i_epik_Tot_abs_Q>
1

> <r_epik_Metal_State_Penalty>
0.682245

> <b_epik_Metal_Only>
0

> <s_lp_Force_Field>
OPLS_2005

> <r_lp_Energy>
14.0161

> <b_lp_Chiralities_Consistent>
1

> <s_lp_Variant>
AV-unprocessed.smi:3025-4

> <Gold.Version>
5.8.1

> <Gold.Id.Protein>
6NUR|6NUR_protein|mol2

> <Gold.PLP.Fitness>
43.6041

> <Gold.PLP.PLP>
-34.0566

> <Gold.PLP.part.hbond>
-3.0000

> <Gold.PLP.part.metal>
0.0000

> <Gold.PLP.part.buried>
-2.1327

> <Gold.PLP.part.nonpolar>
-29.7539

> <Gold.PLP.part.repulsive>
1.9972

> <Gold.PLP.ligand.clash>
0.0000

> <Gold.PLP.ligand.torsion>
0.7198

> <Gold.PLP.Chemscore.Hbond>
2.8960

> <Gold.PLP.Chemscore.CHOScore>
0.7436

> <Gold.PLP.Chemscore.Metal>
0.0000

> <Gold.Chemscore.Hbonds>
donor molecule, donor type, donor heavy atom, donor atom, acceptor molecule, acceptor atom, score
      L1  H     8    31       P1  8028  2.00
      L1  H    13    42       P1  7948  0.96
      L1  C    14    36       P1 10171  0.61

> <Gold.PLP.Chemscore.Internal.Correction>
0.0685

> <Gold.Rescore>
     Score         DG    S(hbond)    S(metal)    S(lipo)     H(rot)  DE(clash)    DE(int)     intcor
     13.66     -15.60       1.88        0.00      88.83       2.56       0.24       1.70       ----

> <Gold.Chemscore.Fitness>
13.6565

> <Gold.Chemscore.DG>
-15.5998

> <Gold.Chemscore.ZeroCoef>
-5.4800

> <Gold.Chemscore.Hbond>
1.8807

> <Gold.Chemscore.Metal>
0.0000

> <Gold.Chemscore.Lipo>
88.8253

> <Gold.Chemscore.Internal_Hbond>
0.0000

> <Gold.Chemscore.DEClash>
0.2450

> <Gold.Chemscore.DEInternal>
1.6983

> <Gold.Chemscore.Rot>
2.5602

> <Gold.Chemscore.Internal.Correction>
   9.000000E+99

> <Gold.Chemscore.Hbonds>
donor molecule, donor type, donor heavy atom, donor atom, acceptor molecule, acceptor atom, score
      L1  H     8    31       P1  8028  0.99
      L1  H    13    42       P1  7948  0.91

> <Gold.Chemscore.Hbond.Weighted>
-6.2814

> <Gold.Chemscore.Metal.Weighted>
-0.0000

> <Gold.Chemscore.Lipo.Weighted>
-10.3926

> <Gold.Chemscore.Internal_Hbond.Weighted>
0.0000

> <Gold.Chemscore.DEClash.Weighted>
0.2450

> <Gold.Chemscore.DEInternal.Weighted>
1.6983

> <Gold.Chemscore.Rot.Weighted>
6.5542

> <Gold.Chemscore.Internal.Correction.Weighted>
   9.000000E+99

> <Gold.Protein.RotatedTorsions>
[ 6907 6896 6895 6894 ] final -107.97 input  -60.11 | X-H torsion
[ 7974 7965 7964 7962 ] final   20.60 input  175.53 | X-H torsion
[ 8008 7997 7996 7995 ] final  -71.32 input   59.86 | X-H torsion
[ 10167 10162 10161 10158 ] final  -73.41 input  -65.29 | X-H torsion
[ 10718 10713 10712 10709 ] final  169.59 input   66.30 | X-H torsion
[ 10763 10752 10751 10750 ] final -108.00 input  -60.55 | X-H torsion
[ 11005 11000 10999 10996 ] final  123.76 input  -57.11 | X-H torsion

> <Gold.Protein.ActiveResidues>
 VAL166  LYS551  ARG553  GLY616  TRP617  ASP618  TYR619  PRO620  LYS621  CYS622 
 ASP623  PHE694  ASN695  SER759  ASP760  ASP761  ALA762  ILE779  LEU786  VAL792 
 PHE793  MET794  SER795  GLU796  ALA797  LYS798  CYS799  TRP800  GLU811  SER814 

> <Gold.Protein.RotatedAtoms>
  150.7475  133.9746  159.3556 H   0  0  0  0  0  0  0  0  0  0  0  0  # atno 6907 bound_to 6896
  151.7683  135.0791  160.0365 H   0  0  0  0  0  0  0  0  0  0  0  0  # atno 6908 bound_to 6896
  152.3356  133.5971  159.5876 H   0  0  0  0  0  0  0  0  0  0  0  0  # atno 6909 bound_to 6896
  146.2105  139.8146  142.8693 H   0  0  0  0  0  0  0  0  0  0  0  0  # atno 7974 bound_to 7965
  154.5079  140.0818  156.7931 H   0  0  0  0  0  0  0  0  0  0  0  0  # atno 8008 bound_to 7997
  155.3852  140.3430  155.4230 H   0  0  0  0  0  0  0  0  0  0  0  0  # atno 8009 bound_to 7997
  156.1538  140.1566  156.8714 H   0  0  0  0  0  0  0  0  0  0  0  0  # atno 8010 bound_to 7997
  140.5113  143.2344  151.7589 H   0  0  0  0  0  0  0  0  0  0  0  0  # atno 10167 bound_to 10162
  157.0205  131.0230  151.2776 H   0  0  0  0  0  0  0  0  0  0  0  0  # atno 10718 bound_to 10713
  154.8109  135.4654  154.0514 H   0  0  0  0  0  0  0  0  0  0  0  0  # atno 10763 bound_to 10752
  153.1946  135.6860  153.8316 H   0  0  0  0  0  0  0  0  0  0  0  0  # atno 10764 bound_to 10752
  153.7822  135.3255  155.3344 H   0  0  0  0  0  0  0  0  0  0  0  0  # atno 10765 bound_to 10752
  139.9327  134.9641  156.8307 H   0  0  0  0  0  0  0  0  0  0  0  0  # atno 11005 bound_to 11000
  145.3160  141.0232  143.3527 LP  0  0  0  0  0  0  0  0  0  0  0  0  # atno 17320 bound_to 7965
  144.8901  139.4786  143.6682 LP  0  0  0  0  0  0  0  0  0  0  0  0  # atno 17321 bound_to 7965
  139.4897  144.4387  151.9790 LP  0  0  0  0  0  0  0  0  0  0  0  0  # atno 17342 bound_to 10162
  140.3479  144.3124  150.5954 LP  0  0  0  0  0  0  0  0  0  0  0  0  # atno 17343 bound_to 10162
  157.5253  130.8024  149.7855 LP  0  0  0  0  0  0  0  0  0  0  0  0  # atno 17370 bound_to 10713
  156.0104  130.3836  150.2285 LP  0  0  0  0  0  0  0  0  0  0  0  0  # atno 17371 bound_to 10713
  140.6158  134.0040  155.7596 LP  0  0  0  0  0  0  0  0  0  0  0  0  # atno 17394 bound_to 11000
  141.0925  133.9895  157.3214 LP  0  0  0  0  0  0  0  0  0  0  0  0  # atno 17395 bound_to 11000

$$$$
