AV-unprocessed.smi:2776|AV-procd|sdf|10707|dock3
  -GOLD-   2272015143D 1   1.00000     0.00000
 Structure written by MMmdl.
 26 27  0  0  0  0  0  0  0  0  2 V2000
  151.4009  137.4028  157.1439 O   0  0  0  0  0  0  0  0  0  0  0  0
  151.0603  138.6092  156.4872 C   0  0  1  0  0  0  0  0  0  0  0  0
  152.1397  139.6782  156.7563 C   0  0  0  0  0  0  0  0  0  0  0  0
  151.5719  141.0071  157.0269 N   0  0  0  0  0  0  0  0  0  0  0  0
  150.7211  141.7569  156.2749 C   0  0  0  0  0  0  0  0  0  0  0  0
  150.4837  142.9144  156.9520 N   0  3  0  0  0  0  0  0  0  0  0  0
  151.1920  142.9042  158.1555 C   0  0  0  0  0  0  0  0  0  0  0  0
  151.2691  143.8474  159.1753 C   0  0  0  0  0  0  0  0  0  0  0  0
  152.0863  143.5249  160.2787 C   0  0  0  0  0  0  0  0  0  0  0  0
  152.1961  144.4076  161.2995 F   0  0  0  0  0  0  0  0  0  0  0  0
  152.7887  142.3026  160.3391 C   0  0  0  0  0  0  0  0  0  0  0  0
  153.5605  142.0309  161.4179 F   0  0  0  0  0  0  0  0  0  0  0  0
  152.7035  141.3547  159.2980 C   0  0  0  0  0  0  0  0  0  0  0  0
  151.8941  141.6817  158.2108 C   0  0  0  0  0  0  0  0  0  0  0  0
  150.8581  138.3261  154.9862 C   0  0  0  0  0  0  0  0  0  0  0  0
  150.0737  137.2603  154.8249 F   0  0  0  0  0  0  0  0  0  0  0  0
  150.2589  139.3701  154.4140 F   0  0  0  0  0  0  0  0  0  0  0  0
  152.0264  138.1175  154.3782 F   0  0  0  0  0  0  0  0  0  0  0  0
  152.0067  136.9262  156.5965 H   0  0  0  0  0  0  0  0  0  0  0  0
  150.1137  138.9510  156.9080 H   0  0  0  0  0  0  0  0  0  0  0  0
  152.7880  139.3890  157.5837 H   0  0  0  0  0  0  0  0  0  0  0  0
  152.7873  139.7798  155.8848 H   0  0  0  0  0  0  0  0  0  0  0  0
  150.3081  141.4830  155.3145 H   0  0  0  0  0  0  0  0  0  0  0  0
  150.7321  144.7835  159.1339 H   0  0  0  0  0  0  0  0  0  0  0  0
  153.2414  140.4203  159.3586 H   0  0  0  0  0  0  0  0  0  0  0  0
  149.8810  143.6545  156.6151 H   0  0  0  0  0  0  0  0  0  0  0  0
  1  2  1  0  0  0  0
  1 19  1  0  0  0  0
  2  3  1  0  0  0  0
  2 15  1  0  0  0  0
  2 20  1  0  0  0  0
  3  4  1  0  0  0  0
  3 21  1  0  0  0  0
  3 22  1  0  0  0  0
  4 14  1  0  0  0  0
  4  5  1  0  0  0  0
  5  6  2  0  0  0  0
  5 23  1  0  0  0  0
  6  7  1  0  0  0  0
  6 26  1  0  0  0  0
  7 14  2  0  0  0  0
  7  8  1  0  0  0  0
  8  9  2  0  0  0  0
  8 24  1  0  0  0  0
  9 10  1  0  0  0  0
  9 11  1  0  0  0  0
 11 12  1  0  0  0  0
 11 13  2  0  0  0  0
 13 14  1  0  0  0  0
 13 25  1  0  0  0  0
 15 16  1  0  0  0  0
 15 17  1  0  0  0  0
 15 18  1  0  0  0  0
M  CHG  1   6   1
M  END
> <s_m_source_file>
AV-unprocessed.smi

> <i_m_source_file_index>
2776

> <i_lp_mmshare_version>
43012

> <i_f3d_flags>
0

> <s_epik_input>
RkMoRikoRilbQ0BIXShbT0hdKVtDSDJdbihbY0hdbjEpYyhjMTIpW2NIXWMoRiljKEYpW2NIXTI=

> <s_epik_cmdline>
J2VwaWtfcHl0aG9uJywgJy1waCcsICc3LjAnLCAnLXRuJywgJzgnLCAnLW1hJywgJzIwMCcsICctbWV0YWxfYmluZGluZycsICctaW1hZScsICc8aW5maWxlLm1hZT4nLCAnLW9tYWUnLCAnPG91dGZpbGUubWFlPic=

> <r_epik_Ionization_Penalty>
2.38424

> <r_epik_Ionization_Penalty_Charging>
2.37244

> <r_epik_Ionization_Penalty_Neutral>
0.0117937

> <r_epik_State_Penalty>
2.52832

> <r_epik_Charging_Adjusted_Penalty>
4.90076

> <i_epik_Tot_Q>
1

> <i_epik_Tot_abs_Q>
1

> <r_epik_Metal_State_Penalty>
6.61271

> <b_epik_Metal_Only>
0

> <s_lp_Force_Field>
OPLS_2005

> <r_lp_Energy>
13.8942

> <b_lp_Chiralities_Consistent>
1

> <s_lp_Variant>
AV-unprocessed.smi:2776-4

> <Gold.Version>
5.8.1

> <Gold.Id.Protein>
6NUR|6NUR_protein|mol2

> <Gold.PLP.Fitness>
45.9852

> <Gold.PLP.PLP>
-41.5892

> <Gold.PLP.part.hbond>
-1.0000

> <Gold.PLP.part.metal>
0.0000

> <Gold.PLP.part.buried>
-4.8716

> <Gold.PLP.part.nonpolar>
-35.8273

> <Gold.PLP.part.repulsive>
0.0229

> <Gold.PLP.ligand.clash>
0.0000

> <Gold.PLP.ligand.torsion>
0.8068

> <Gold.PLP.Chemscore.Hbond>
2.0000

> <Gold.PLP.Chemscore.CHOScore>
0.0000

> <Gold.PLP.Chemscore.Metal>
0.0000

> <Gold.Chemscore.Hbonds>
donor molecule, donor type, donor heavy atom, donor atom, acceptor molecule, acceptor atom, score
      L1  H     6    26       P1  8028  2.00

> <Gold.PLP.Chemscore.Internal.Correction>
0.0097

> <Gold.Rescore>
     Score         DG    S(hbond)    S(metal)    S(lipo)     H(rot)  DE(clash)    DE(int)     intcor
     11.73     -12.52       1.00        0.00      77.96       2.12       0.05       0.75       ----

> <Gold.Chemscore.Fitness>
11.7278

> <Gold.Chemscore.DG>
-12.5209

> <Gold.Chemscore.ZeroCoef>
-5.4800

> <Gold.Chemscore.Hbond>
0.9999

> <Gold.Chemscore.Metal>
0.0000

> <Gold.Chemscore.Lipo>
77.9618

> <Gold.Chemscore.Internal_Hbond>
0.0000

> <Gold.Chemscore.DEClash>
0.0473

> <Gold.Chemscore.DEInternal>
0.7457

> <Gold.Chemscore.Rot>
2.1173

> <Gold.Chemscore.Internal.Correction>
   9.000000E+99

> <Gold.Chemscore.Hbonds>
donor molecule, donor type, donor heavy atom, donor atom, acceptor molecule, acceptor atom, score
      L1  H     6    26       P1  8028  1.00

> <Gold.Chemscore.Hbond.Weighted>
-3.3395

> <Gold.Chemscore.Metal.Weighted>
-0.0000

> <Gold.Chemscore.Lipo.Weighted>
-9.1215

> <Gold.Chemscore.Internal_Hbond.Weighted>
0.0000

> <Gold.Chemscore.DEClash.Weighted>
0.0473

> <Gold.Chemscore.DEInternal.Weighted>
0.7457

> <Gold.Chemscore.Rot.Weighted>
5.4202

> <Gold.Chemscore.Internal.Correction.Weighted>
   9.000000E+99

> <Gold.Protein.RotatedTorsions>
[ 6907 6896 6895 6894 ] final   92.75 input  -60.11 | X-H torsion
[ 7974 7965 7964 7962 ] final -149.67 input  175.53 | X-H torsion
[ 8008 7997 7996 7995 ] final -103.94 input   59.86 | X-H torsion
[ 10167 10162 10161 10158 ] final  -40.93 input  -65.29 | X-H torsion
[ 10718 10713 10712 10709 ] final  -12.24 input   66.30 | X-H torsion
[ 10763 10752 10751 10750 ] final  132.88 input  -60.55 | X-H torsion
[ 11005 11000 10999 10996 ] final  -53.16 input  -57.11 | X-H torsion

> <Gold.Protein.ActiveResidues>
 VAL166  LYS551  ARG553  GLY616  TRP617  ASP618  TYR619  PRO620  LYS621  CYS622 
 ASP623  PHE694  ASN695  SER759  ASP760  ASP761  ALA762  ILE779  LEU786  VAL792 
 PHE793  MET794  SER795  GLU796  ALA797  LYS798  CYS799  TRP800  GLU811  SER814 

> <Gold.Protein.RotatedAtoms>
  152.5453  134.1453  159.8495 H   0  0  0  0  0  0  0  0  0  0  0  0  # atno 6907 bound_to 6896
  151.1485  133.4916  159.2603 H   0  0  0  0  0  0  0  0  0  0  0  0  # atno 6908 bound_to 6896
  151.1497  135.0231  159.8717 H   0  0  0  0  0  0  0  0  0  0  0  0  # atno 6909 bound_to 6896
  144.7953  140.5033  143.5744 H   0  0  0  0  0  0  0  0  0  0  0  0  # atno 7974 bound_to 7965
  154.8782  140.0420  157.1766 H   0  0  0  0  0  0  0  0  0  0  0  0  # atno 8008 bound_to 7997
  154.8667  140.2952  155.5485 H   0  0  0  0  0  0  0  0  0  0  0  0  # atno 8009 bound_to 7997
  156.2999  140.2436  156.3650 H   0  0  0  0  0  0  0  0  0  0  0  0  # atno 8010 bound_to 7997
  140.7019  143.3124  151.2994 H   0  0  0  0  0  0  0  0  0  0  0  0  # atno 10167 bound_to 10162
  156.6475  130.4945  149.6073 H   0  0  0  0  0  0  0  0  0  0  0  0  # atno 10718 bound_to 10713
  153.7980  135.3146  155.3387 H   0  0  0  0  0  0  0  0  0  0  0  0  # atno 10763 bound_to 10752
  154.8100  135.4673  154.0494 H   0  0  0  0  0  0  0  0  0  0  0  0  # atno 10764 bound_to 10752
  153.1833  135.6897  153.8536 H   0  0  0  0  0  0  0  0  0  0  0  0  # atno 10765 bound_to 10752
  141.0962  133.6624  156.4131 H   0  0  0  0  0  0  0  0  0  0  0  0  # atno 11005 bound_to 11000
  145.5689  139.1482  143.3299 LP  0  0  0  0  0  0  0  0  0  0  0  0  # atno 17320 bound_to 7965
  146.2219  140.5823  142.9013 LP  0  0  0  0  0  0  0  0  0  0  0  0  # atno 17321 bound_to 7965
  139.6552  144.0290  152.2654 LP  0  0  0  0  0  0  0  0  0  0  0  0  # atno 17342 bound_to 10162
  139.9839  144.6409  150.7876 LP  0  0  0  0  0  0  0  0  0  0  0  0  # atno 17343 bound_to 10162
  156.2110  130.6679  151.1269 LP  0  0  0  0  0  0  0  0  0  0  0  0  # atno 17370 bound_to 10713
  157.7151  131.0714  150.6356 LP  0  0  0  0  0  0  0  0  0  0  0  0  # atno 17371 bound_to 10713
  140.5135  134.6373  157.5293 LP  0  0  0  0  0  0  0  0  0  0  0  0  # atno 17394 bound_to 11000
  139.9799  134.7154  155.9879 LP  0  0  0  0  0  0  0  0  0  0  0  0  # atno 17395 bound_to 11000

$$$$
