AV-unprocessed.smi:916|AV-procd|sdf|4158|dock2
  -GOLD-   22720 2 63D 1   1.00000     0.00000
 Structure written by MMmdl.
 43 44  0  0  0  0  0  0  0  0  1 V2000
  141.2074  136.1742  153.4985 C   0  0  0  0  0  0  0  0  0  0  0  0
  141.9020  134.8186  153.3284 C   0  0  0  0  0  0  0  0  0  0  0  0
  143.2390  134.9419  152.6625 C   0  0  0  0  0  0  0  0  0  0  0  0
  143.6200  134.3771  151.4698 C   0  0  0  0  0  0  0  0  0  0  0  0
  145.2643  134.7776  151.0515 S   0  0  0  0  0  0  0  0  0  0  0  0
  145.3755  135.7045  152.5393 C   0  0  0  0  0  0  0  0  0  0  0  0
  146.5564  136.4037  152.9016 N   0  0  0  0  0  0  0  0  0  0  0  0
  146.6919  137.3978  153.7963 C   0  0  0  0  0  0  0  0  0  0  0  0
  145.7945  137.8311  154.5196 O   0  0  0  0  0  0  0  0  0  0  0  0
  147.9494  137.8630  153.8153 N   0  0  0  0  0  0  0  0  0  0  0  0
  148.4436  138.9376  154.6708 C   0  0  0  0  0  0  0  0  0  0  0  0
  149.9417  139.2094  154.4353 C   0  0  2  0  0  0  0  0  0  0  0  0
  150.8087  137.9656  154.3781 C   0  0  0  0  0  0  0  0  0  0  0  0
  152.2010  138.5380  154.6234 C   0  0  0  0  0  0  0  0  0  0  0  0
  152.0136  139.6706  155.4664 O   0  0  0  0  0  0  0  0  0  0  0  0
  150.6257  139.9792  155.5751 C   0  0  1  0  0  0  0  0  0  0  0  0
  150.3928  141.5078  155.6078 C   0  0  0  0  0  0  0  0  0  0  0  0
  150.9972  142.1951  156.8456 C   0  0  0  0  0  0  0  0  0  0  0  0
  148.8965  141.8352  155.4851 C   0  0  0  0  0  0  0  0  0  0  0  0
  144.2516  135.6953  153.2650 N   0  0  0  0  0  0  0  0  0  0  0  0
  140.2400  136.0558  153.9868 H   0  0  0  0  0  0  0  0  0  0  0  0
  141.0367  136.6537  152.5341 H   0  0  0  0  0  0  0  0  0  0  0  0
  141.8081  136.8501  154.1079 H   0  0  0  0  0  0  0  0  0  0  0  0
  142.0138  134.3487  154.3061 H   0  0  0  0  0  0  0  0  0  0  0  0
  141.2580  134.1550  152.7506 H   0  0  0  0  0  0  0  0  0  0  0  0
  143.0326  133.7534  150.8124 H   0  0  0  0  0  0  0  0  0  0  0  0
  147.3922  136.1258  152.4086 H   0  0  0  0  0  0  0  0  0  0  0  0
  148.6188  137.4429  153.1871 H   0  0  0  0  0  0  0  0  0  0  0  0
  147.8671  139.8322  154.4356 H   0  0  0  0  0  0  0  0  0  0  0  0
  148.2521  138.7228  155.7237 H   0  0  0  0  0  0  0  0  0  0  0  0
  150.0659  139.7458  153.4950 H   0  0  0  0  0  0  0  0  0  0  0  0
  150.5410  137.2772  155.1810 H   0  0  0  0  0  0  0  0  0  0  0  0
  150.7336  137.4299  153.4313 H   0  0  0  0  0  0  0  0  0  0  0  0
  152.8761  137.8107  155.0751 H   0  0  0  0  0  0  0  0  0  0  0  0
  152.6437  138.8756  153.6857 H   0  0  0  0  0  0  0  0  0  0  0  0
  150.2874  139.5494  156.5197 H   0  0  0  0  0  0  0  0  0  0  0  0
  150.8783  141.9341  154.7296 H   0  0  0  0  0  0  0  0  0  0  0  0
  150.5850  141.7876  157.7690 H   0  0  0  0  0  0  0  0  0  0  0  0
  150.7880  143.2651  156.8368 H   0  0  0  0  0  0  0  0  0  0  0  0
  152.0800  142.0864  156.8854 H   0  0  0  0  0  0  0  0  0  0  0  0
  148.3346  141.4490  156.3362 H   0  0  0  0  0  0  0  0  0  0  0  0
  148.4704  141.4006  154.5805 H   0  0  0  0  0  0  0  0  0  0  0  0
  148.7313  142.9120  155.4395 H   0  0  0  0  0  0  0  0  0  0  0  0
  1  2  1  0  0  0  0
  1 21  1  0  0  0  0
  1 22  1  0  0  0  0
  1 23  1  0  0  0  0
  2  3  1  0  0  0  0
  2 24  1  0  0  0  0
  2 25  1  0  0  0  0
  3 20  1  0  0  0  0
  3  4  2  0  0  0  0
  4  5  1  0  0  0  0
  4 26  1  0  0  0  0
  5  6  1  0  0  0  0
  6  7  1  0  0  0  0
  6 20  2  0  0  0  0
  7  8  1  0  0  0  0
  7 27  1  0  0  0  0
  8  9  2  0  0  0  0
  8 10  1  0  0  0  0
 10 11  1  0  0  0  0
 10 28  1  0  0  0  0
 11 12  1  0  0  0  0
 11 29  1  0  0  0  0
 11 30  1  0  0  0  0
 12 16  1  0  0  0  0
 12 13  1  0  0  0  0
 12 31  1  0  0  0  0
 13 14  1  0  0  0  0
 13 32  1  0  0  0  0
 13 33  1  0  0  0  0
 14 15  1  0  0  0  0
 14 34  1  0  0  0  0
 14 35  1  0  0  0  0
 15 16  1  0  0  0  0
 16 17  1  0  0  0  0
 16 36  1  0  0  0  0
 17 18  1  0  0  0  0
 17 19  1  0  0  0  0
 17 37  1  0  0  0  0
 18 38  1  0  0  0  0
 18 39  1  0  0  0  0
 18 40  1  0  0  0  0
 19 41  1  0  0  0  0
 19 42  1  0  0  0  0
 19 43  1  0  0  0  0
M  END
> <s_m_source_file>
AV-unprocessed.smi

> <i_m_source_file_index>
916

> <i_lp_mmshare_version>
43012

> <i_f3d_flags>
0

> <s_epik_input>
W0NIM11bQ0gyXWMxW2NIXXNjKG4xKVtOSF1DKD1PKVtOSF1bQ0gyXVtDQEBIXTJbQ0gyXVtDSDJdT1tDQEhdMltDSF0oW0NIM10pW0NIM10=

> <s_epik_cmdline>
J2VwaWtfcHl0aG9uJywgJy1waCcsICc3LjAnLCAnLXRuJywgJzgnLCAnLW1hJywgJzIwMCcsICctbWV0YWxfYmluZGluZycsICctaW1hZScsICc8aW5maWxlLm1hZT4nLCAnLW9tYWUnLCAnPG91dGZpbGUubWFlPic=

> <r_lp_tautomer_probability>
0.999

> <r_epik_Ionization_Penalty>
0.000518907

> <r_epik_Ionization_Penalty_Charging>
0

> <r_epik_Ionization_Penalty_Neutral>
0.000518907

> <r_epik_State_Penalty>
0.000177984

> <r_epik_Charging_Adjusted_Penalty>
0.000177984

> <i_epik_Tot_Q>
0

> <i_epik_Tot_abs_Q>
0

> <r_epik_Metal_State_Penalty>
-0

> <b_epik_Metal_Only>
0

> <s_lp_Force_Field>
OPLS_2005

> <r_lp_Energy>
16.7546

> <b_lp_Chiralities_Consistent>
1

> <s_lp_Variant>
AV-unprocessed.smi:916-1

> <Gold.Version>
5.8.1

> <Gold.Id.Protein>
6NUR|6NUR_protein|mol2

> <Gold.PLP.Fitness>
42.9528

> <Gold.PLP.PLP>
-34.6502

> <Gold.PLP.part.hbond>
-2.4924

> <Gold.PLP.part.metal>
0.0000

> <Gold.PLP.part.buried>
-3.0588

> <Gold.PLP.part.nonpolar>
-29.1436

> <Gold.PLP.part.repulsive>
0.1567

> <Gold.PLP.ligand.clash>
0.0000

> <Gold.PLP.ligand.torsion>
0.2640

> <Gold.PLP.Chemscore.Hbond>
1.9920

> <Gold.PLP.Chemscore.CHOScore>
0.9303

> <Gold.PLP.Chemscore.Metal>
0.0000

> <Gold.Chemscore.Hbonds>
donor molecule, donor type, donor heavy atom, donor atom, acceptor molecule, acceptor atom, score
      L1  H     7    27       P1  7948  1.00
      L1  H    10    28       P1  7948  0.99
      L1  C     4    26       P1 10186  0.93

> <Gold.PLP.Chemscore.Internal.Correction>
0.0638

> <Gold.Rescore>
     Score         DG    S(hbond)    S(metal)    S(lipo)     H(rot)  DE(clash)    DE(int)     intcor
     16.03     -17.59       1.94        0.00      81.39       1.52       0.14       1.42       ----

> <Gold.Chemscore.Fitness>
16.0310

> <Gold.Chemscore.DG>
-17.5890

> <Gold.Chemscore.ZeroCoef>
-5.4800

> <Gold.Chemscore.Hbond>
1.9421

> <Gold.Chemscore.Metal>
0.0000

> <Gold.Chemscore.Lipo>
81.3942

> <Gold.Chemscore.Internal_Hbond>
0.0000

> <Gold.Chemscore.DEClash>
0.1402

> <Gold.Chemscore.DEInternal>
1.4178

> <Gold.Chemscore.Rot>
1.5238

> <Gold.Chemscore.Internal.Correction>
   9.000000E+99

> <Gold.Chemscore.Hbonds>
donor molecule, donor type, donor heavy atom, donor atom, acceptor molecule, acceptor atom, score
      L1  H     7    27       P1  7948  0.99
      L1  H    10    28       P1  7948  0.93

> <Gold.Chemscore.Hbond.Weighted>
-6.4867

> <Gold.Chemscore.Metal.Weighted>
-0.0000

> <Gold.Chemscore.Lipo.Weighted>
-9.5231

> <Gold.Chemscore.Internal_Hbond.Weighted>
0.0000

> <Gold.Chemscore.DEClash.Weighted>
0.1402

> <Gold.Chemscore.DEInternal.Weighted>
1.4178

> <Gold.Chemscore.Rot.Weighted>
3.9008

> <Gold.Chemscore.Internal.Correction.Weighted>
   9.000000E+99

> <Gold.Protein.RotatedTorsions>
[ 6907 6896 6895 6894 ] final  154.86 input  -60.11 | X-H torsion
[ 7974 7965 7964 7962 ] final   86.72 input  175.53 | X-H torsion
[ 8008 7997 7996 7995 ] final -170.51 input   59.86 | X-H torsion
[ 10167 10162 10161 10158 ] final  172.84 input  -65.29 | X-H torsion
[ 10718 10713 10712 10709 ] final   12.77 input   66.30 | X-H torsion
[ 10763 10752 10751 10750 ] final   52.26 input  -60.55 | X-H torsion
[ 11005 11000 10999 10996 ] final   90.20 input  -57.11 | X-H torsion

> <Gold.Protein.ActiveResidues>
 VAL166  LYS551  ARG553  GLY616  TRP617  ASP618  TYR619  PRO620  LYS621  CYS622 
 ASP623  PHE694  ASN695  SER759  ASP760  ASP761  ALA762  ILE779  LEU786  VAL792 
 PHE793  MET794  SER795  GLU796  ALA797  LYS798  CYS799  TRP800  GLU811  SER814 

> <Gold.Protein.RotatedAtoms>
  152.0525  133.4025  159.4382 H   0  0  0  0  0  0  0  0  0  0  0  0  # atno 6907 bound_to 6896
  150.6869  134.3292  159.4829 H   0  0  0  0  0  0  0  0  0  0  0  0  # atno 6908 bound_to 6896
  152.1104  134.9278  160.0617 H   0  0  0  0  0  0  0  0  0  0  0  0  # atno 6909 bound_to 6896
  145.5685  139.2311  143.2420 H   0  0  0  0  0  0  0  0  0  0  0  0  # atno 7974 bound_to 7965
  155.9192  140.1071  157.1220 H   0  0  0  0  0  0  0  0  0  0  0  0  # atno 8008 bound_to 7997
  154.4051  140.1259  156.4723 H   0  0  0  0  0  0  0  0  0  0  0  0  # atno 8009 bound_to 7997
  155.7216  140.3469  155.5021 H   0  0  0  0  0  0  0  0  0  0  0  0  # atno 8010 bound_to 7997
  139.5089  144.3328  152.0094 H   0  0  0  0  0  0  0  0  0  0  0  0  # atno 10167 bound_to 10162
  157.0149  130.6132  149.5713 H   0  0  0  0  0  0  0  0  0  0  0  0  # atno 10718 bound_to 10713
  152.9788  135.5818  154.4550 H   0  0  0  0  0  0  0  0  0  0  0  0  # atno 10763 bound_to 10752
  154.4134  135.2770  155.2024 H   0  0  0  0  0  0  0  0  0  0  0  0  # atno 10764 bound_to 10752
  154.3805  135.6148  153.5842 H   0  0  0  0  0  0  0  0  0  0  0  0  # atno 10765 bound_to 10752
  139.8860  134.8599  156.3251 H   0  0  0  0  0  0  0  0  0  0  0  0  # atno 11005 bound_to 11000
  146.1801  140.6511  142.9193 LP  0  0  0  0  0  0  0  0  0  0  0  0  # atno 17320 bound_to 7965
  144.7449  140.5041  143.6843 LP  0  0  0  0  0  0  0  0  0  0  0  0  # atno 17321 bound_to 7965
  140.2767  144.3904  150.6132 LP  0  0  0  0  0  0  0  0  0  0  0  0  # atno 17342 bound_to 10162
  140.6048  143.2167  151.7002 LP  0  0  0  0  0  0  0  0  0  0  0  0  # atno 17343 bound_to 10162
  156.0123  130.5215  150.8026 LP  0  0  0  0  0  0  0  0  0  0  0  0  # atno 17370 bound_to 10713
  157.5293  131.0936  150.9977 LP  0  0  0  0  0  0  0  0  0  0  0  0  # atno 17371 bound_to 10713
  140.9761  133.7297  156.0604 LP  0  0  0  0  0  0  0  0  0  0  0  0  # atno 17394 bound_to 11000
  140.7809  134.3726  157.5487 LP  0  0  0  0  0  0  0  0  0  0  0  0  # atno 17395 bound_to 11000

$$$$
