AV-unprocessed.smi:1951|AV-procd|sdf|7882|dock5
  -GOLD-   2272010 33D 1   1.00000     0.00000
 Structure written by MMmdl.
 46 47  0  0  0  0  0  0  0  0  2 V2000
  151.9032  138.2809  154.5786 C   0  0  0  0  0  0  0  0  0  0  0  0
  150.5250  138.2250  154.2267 O   0  0  0  0  0  0  0  0  0  0  0  0
  149.7300  139.3223  154.4987 C   0  0  0  0  0  0  0  0  0  0  0  0
  150.3111  140.4216  155.0415 N   0  0  0  0  0  0  0  0  0  0  0  0
  149.5357  141.4923  155.3101 C   0  0  0  0  0  0  0  0  0  0  0  0
  148.1515  141.5230  155.0604 C   0  0  0  0  0  0  0  0  0  0  0  0
  147.5467  140.3847  154.4963 C   0  0  0  0  0  0  0  0  0  0  0  0
  148.3499  139.2584  154.1950 C   0  0  0  0  0  0  0  0  0  0  0  0
  147.8343  138.0528  153.6449 N   0  0  0  0  0  0  0  0  0  0  0  0
  146.5927  137.5516  153.7571 C   0  0  0  0  0  0  0  0  0  0  0  0
  145.6660  138.0745  154.3760 O   0  0  0  0  0  0  0  0  0  0  0  0
  146.4691  136.4029  153.0771 N   0  0  0  0  0  0  0  0  0  0  0  0
  145.2382  135.6290  152.9630 C   0  0  0  0  0  0  0  0  0  0  0  0
  144.6604  135.7030  151.5363 C   0  0  0  0  0  0  0  0  0  0  0  0
  144.7640  134.4109  150.8128 N   0  3  2  0  0  0  0  0  0  0  0  0
  143.8344  133.3884  151.3587 C   0  0  0  0  0  0  0  0  0  0  0  0
  143.8574  132.1028  150.5126 C   0  0  0  0  0  0  0  0  0  0  0  0
  145.2759  131.5213  150.3765 C   0  0  2  0  0  0  0  0  0  0  0  0
  145.7692  130.8479  151.6694 C   0  0  0  0  0  0  0  0  0  0  0  0
  146.2303  132.6194  149.8736 C   0  0  0  0  0  0  0  0  0  0  0  0
  146.1567  133.8950  150.7325 C   0  0  0  0  0  0  0  0  0  0  0  0
  152.3848  137.3439  154.2991 H   0  0  0  0  0  0  0  0  0  0  0  0
  152.0352  138.4130  155.6535 H   0  0  0  0  0  0  0  0  0  0  0  0
  152.4173  139.0867  154.0519 H   0  0  0  0  0  0  0  0  0  0  0  0
  150.0331  142.3476  155.7429 H   0  0  0  0  0  0  0  0  0  0  0  0
  147.5662  142.3981  155.3011 H   0  0  0  0  0  0  0  0  0  0  0  0
  146.4822  140.3906  154.3201 H   0  0  0  0  0  0  0  0  0  0  0  0
  148.4617  137.5588  153.0270 H   0  0  0  0  0  0  0  0  0  0  0  0
  147.2816  136.0442  152.5963 H   0  0  0  0  0  0  0  0  0  0  0  0
  145.4644  134.5937  153.2192 H   0  0  0  0  0  0  0  0  0  0  0  0
  144.5225  135.9829  153.7058 H   0  0  0  0  0  0  0  0  0  0  0  0
  143.6200  136.0314  151.5488 H   0  0  0  0  0  0  0  0  0  0  0  0
  145.2159  136.4670  150.9902 H   0  0  0  0  0  0  0  0  0  0  0  0
  144.0958  133.1708  152.3952 H   0  0  0  0  0  0  0  0  0  0  0  0
  142.8183  133.7844  151.3694 H   0  0  0  0  0  0  0  0  0  0  0  0
  143.1837  131.3598  150.9408 H   0  0  0  0  0  0  0  0  0  0  0  0
  143.4662  132.3267  149.5192 H   0  0  0  0  0  0  0  0  0  0  0  0
  145.2415  130.7402  149.6158 H   0  0  0  0  0  0  0  0  0  0  0  0
  145.8395  131.5498  152.4998 H   0  0  0  0  0  0  0  0  0  0  0  0
  146.7563  130.4066  151.5279 H   0  0  0  0  0  0  0  0  0  0  0  0
  145.0954  130.0461  151.9728 H   0  0  0  0  0  0  0  0  0  0  0  0
  147.2543  132.2453  149.8441 H   0  0  0  0  0  0  0  0  0  0  0  0
  145.9720  132.8724  148.8444 H   0  0  0  0  0  0  0  0  0  0  0  0
  146.8127  134.6463  150.2949 H   0  0  0  0  0  0  0  0  0  0  0  0
  146.5352  133.7006  151.7369 H   0  0  0  0  0  0  0  0  0  0  0  0
  144.4598  134.5880  149.8660 H   0  0  0  0  0  0  0  0  0  0  0  0
  1  2  1  0  0  0  0
  1 22  1  0  0  0  0
  1 23  1  0  0  0  0
  1 24  1  0  0  0  0
  2  3  1  0  0  0  0
  3  8  1  0  0  0  0
  3  4  2  0  0  0  0
  4  5  1  0  0  0  0
  5  6  2  0  0  0  0
  5 25  1  0  0  0  0
  6  7  1  0  0  0  0
  6 26  1  0  0  0  0
  7  8  2  0  0  0  0
  7 27  1  0  0  0  0
  8  9  1  0  0  0  0
  9 10  1  0  0  0  0
  9 28  1  0  0  0  0
 10 11  2  0  0  0  0
 10 12  1  0  0  0  0
 12 13  1  0  0  0  0
 12 29  1  0  0  0  0
 13 14  1  0  0  0  0
 13 30  1  0  0  0  0
 13 31  1  0  0  0  0
 14 15  1  0  0  0  0
 14 32  1  0  0  0  0
 14 33  1  0  0  0  0
 15 21  1  0  0  0  0
 15 16  1  0  0  0  0
 15 46  1  0  0  0  0
 16 17  1  0  0  0  0
 16 34  1  0  0  0  0
 16 35  1  0  0  0  0
 17 18  1  0  0  0  0
 17 36  1  0  0  0  0
 17 37  1  0  0  0  0
 18 19  1  0  0  0  0
 18 20  1  0  0  0  0
 18 38  1  0  0  0  0
 19 39  1  0  0  0  0
 19 40  1  0  0  0  0
 19 41  1  0  0  0  0
 20 21  1  0  0  0  0
 20 42  1  0  0  0  0
 20 43  1  0  0  0  0
 21 44  1  0  0  0  0
 21 45  1  0  0  0  0
M  CHG  1  15   1
M  END
> <s_m_source_file>
AV-unprocessed.smi

> <i_m_source_file_index>
1951

> <i_lp_mmshare_version>
43012

> <i_f3d_flags>
0

> <s_epik_input>
W0NIM11PYzFuW2NIXVtjSF1bY0hdYzFbTkhdQyg9TylbTkhdW0NIMl1bQ0gyXU4yW0NIMl1bQ0gyXVtDSF0oW0NIM10pW0NIMl1bQ0gyXTI=

> <s_epik_cmdline>
J2VwaWtfcHl0aG9uJywgJy1waCcsICc3LjAnLCAnLXRuJywgJzgnLCAnLW1hJywgJzIwMCcsICctbWV0YWxfYmluZGluZycsICctaW1hZScsICc8aW5maWxlLm1hZT4nLCAnLW9tYWUnLCAnPG91dGZpbGUubWFlPic=

> <r_lp_tautomer_probability>
1

> <r_epik_Ionization_Penalty>
0.00147101

> <r_epik_Ionization_Penalty_Charging>
0.00139388

> <r_epik_Ionization_Penalty_Neutral>
7.71355e-05

> <r_epik_State_Penalty>
0.000929204

> <r_epik_Charging_Adjusted_Penalty>
0.00232308

> <i_epik_Tot_Q>
1

> <i_epik_Tot_abs_Q>
1

> <r_epik_Metal_State_Penalty>
-0

> <b_epik_Metal_Only>
0

> <s_lp_Force_Field>
OPLS_2005

> <r_lp_Energy>
21.3579

> <b_lp_Chiralities_Consistent>
1

> <s_lp_Variant>
AV-unprocessed.smi:1951-2

> <Gold.Version>
5.8.1

> <Gold.Id.Protein>
6NUR|6NUR_protein|mol2

> <Gold.PLP.Fitness>
49.4135

> <Gold.PLP.PLP>
-39.1763

> <Gold.PLP.part.hbond>
-3.0000

> <Gold.PLP.part.metal>
0.0000

> <Gold.PLP.part.buried>
-5.3000

> <Gold.PLP.part.nonpolar>
-31.6182

> <Gold.PLP.part.repulsive>
0.5007

> <Gold.PLP.ligand.clash>
0.0000

> <Gold.PLP.ligand.torsion>
0.6009

> <Gold.PLP.Chemscore.Hbond>
2.9440

> <Gold.PLP.Chemscore.CHOScore>
0.8587

> <Gold.PLP.Chemscore.Metal>
0.0000

> <Gold.Chemscore.Hbonds>
donor molecule, donor type, donor heavy atom, donor atom, acceptor molecule, acceptor atom, score
      L1  H     9    28       P1  7948  1.00
      L1  H    12    29       P1  7948  1.00
      P1  H  7989  7998       L1     4  0.83
      L1  C     5    25       P1  8028  0.59

> <Gold.PLP.Chemscore.Internal.Correction>
0.0310

> <Gold.Rescore>
     Score         DG    S(hbond)    S(metal)    S(lipo)     H(rot)  DE(clash)    DE(int)     intcor
     17.47     -19.19       2.17        0.00      92.76       1.71       0.05       1.67       ----

> <Gold.Chemscore.Fitness>
17.4663

> <Gold.Chemscore.DG>
-19.1857

> <Gold.Chemscore.ZeroCoef>
-5.4800

> <Gold.Chemscore.Hbond>
2.1653

> <Gold.Chemscore.Metal>
0.0000

> <Gold.Chemscore.Lipo>
92.7600

> <Gold.Chemscore.Internal_Hbond>
0.0000

> <Gold.Chemscore.DEClash>
0.0514

> <Gold.Chemscore.DEInternal>
1.6680

> <Gold.Chemscore.Rot>
1.7107

> <Gold.Chemscore.Internal.Correction>
   9.000000E+99

> <Gold.Chemscore.Hbonds>
donor molecule, donor type, donor heavy atom, donor atom, acceptor molecule, acceptor atom, score
      L1  H     9    28       P1  7948  0.99
      L1  H    12    29       P1  7948  0.97
      P1  H  7989  7998       L1     4  0.12

> <Gold.Chemscore.Hbond.Weighted>
-7.2322

> <Gold.Chemscore.Metal.Weighted>
-0.0000

> <Gold.Chemscore.Lipo.Weighted>
-10.8529

> <Gold.Chemscore.Internal_Hbond.Weighted>
0.0000

> <Gold.Chemscore.DEClash.Weighted>
0.0514

> <Gold.Chemscore.DEInternal.Weighted>
1.6680

> <Gold.Chemscore.Rot.Weighted>
4.3794

> <Gold.Chemscore.Internal.Correction.Weighted>
   9.000000E+99

> <Gold.Protein.RotatedTorsions>
[ 6907 6896 6895 6894 ] final  121.12 input  -60.11 | X-H torsion
[ 7974 7965 7964 7962 ] final -177.60 input  175.53 | X-H torsion
[ 8008 7997 7996 7995 ] final -109.72 input   59.86 | X-H torsion
[ 10167 10162 10161 10158 ] final  163.43 input  -65.29 | X-H torsion
[ 10718 10713 10712 10709 ] final   45.75 input   66.30 | X-H torsion
[ 10763 10752 10751 10750 ] final -166.35 input  -60.55 | X-H torsion
[ 11005 11000 10999 10996 ] final  -10.91 input  -57.11 | X-H torsion

> <Gold.Protein.ActiveResidues>
 VAL166  LYS551  ARG553  GLY616  TRP617  ASP618  TYR619  PRO620  LYS621  CYS622 
 ASP623  PHE694  ASN695  SER759  ASP760  ASP761  ALA762  ILE779  LEU786  VAL792 
 PHE793  MET794  SER795  GLU796  ALA797  LYS798  CYS799  TRP800  GLU811  SER814 

> <Gold.Protein.RotatedAtoms>
  152.4346  133.7338  159.6602 H   0  0  0  0  0  0  0  0  0  0  0  0  # atno 6907 bound_to 6896
  150.8229  133.8211  159.3137 H   0  0  0  0  0  0  0  0  0  0  0  0  # atno 6908 bound_to 6896
  151.5888  135.1057  160.0086 H   0  0  0  0  0  0  0  0  0  0  0  0  # atno 6909 bound_to 6896
  144.7128  140.0994  143.6417 H   0  0  0  0  0  0  0  0  0  0  0  0  # atno 7974 bound_to 7965
  154.9636  140.0398  157.2201 H   0  0  0  0  0  0  0  0  0  0  0  0  # atno 8008 bound_to 7997
  154.7866  140.2828  155.6001 H   0  0  0  0  0  0  0  0  0  0  0  0  # atno 8009 bound_to 7997
  156.2944  140.2581  156.2704 H   0  0  0  0  0  0  0  0  0  0  0  0  # atno 8010 bound_to 7997
  139.4874  144.4337  151.9038 H   0  0  0  0  0  0  0  0  0  0  0  0  # atno 10167 bound_to 10162
  157.4408  130.8080  149.7692 H   0  0  0  0  0  0  0  0  0  0  0  0  # atno 10718 bound_to 10713
  154.6842  135.2959  154.9571 H   0  0  0  0  0  0  0  0  0  0  0  0  # atno 10763 bound_to 10752
  154.0556  135.6638  153.4809 H   0  0  0  0  0  0  0  0  0  0  0  0  # atno 10764 bound_to 10752
  153.0567  135.5140  154.7900 H   0  0  0  0  0  0  0  0  0  0  0  0  # atno 10765 bound_to 10752
  140.7497  133.8602  155.9034 H   0  0  0  0  0  0  0  0  0  0  0  0  # atno 11005 bound_to 11000
  145.9551  139.2761  143.1189 LP  0  0  0  0  0  0  0  0  0  0  0  0  # atno 17320 bound_to 7965
  145.9281  140.9068  143.0370 LP  0  0  0  0  0  0  0  0  0  0  0  0  # atno 17321 bound_to 7965
  140.3786  144.2765  150.5911 LP  0  0  0  0  0  0  0  0  0  0  0  0  # atno 17342 bound_to 10162
  140.5254  143.2255  151.8323 LP  0  0  0  0  0  0  0  0  0  0  0  0  # atno 17343 bound_to 10162
  155.9948  130.3916  150.2844 LP  0  0  0  0  0  0  0  0  0  0  0  0  # atno 17370 bound_to 10713
  157.1009  131.0195  151.3086 LP  0  0  0  0  0  0  0  0  0  0  0  0  # atno 17371 bound_to 10713
  140.9762  134.1466  157.4534 LP  0  0  0  0  0  0  0  0  0  0  0  0  # atno 17394 bound_to 11000
  139.8790  134.9995  156.5959 LP  0  0  0  0  0  0  0  0  0  0  0  0  # atno 17395 bound_to 11000

$$$$
