AV-unprocessed.smi:287|AV-procd|sdf|2207|dock5
  -GOLD-   2262022 33D 1   1.00000     0.00000
 Structure written by MMmdl.
 55 58  0  0  0  0  0  0  0  0  1 V2000
  154.3274  134.5095  164.3791 C   0  0  0  0  0  0  0  0  0  0  0  0
  154.9955  135.8339  164.2374 C   0  0  0  0  0  0  0  0  0  0  0  0
  154.7007  136.9704  163.5424 C   0  0  0  0  0  0  0  0  0  0  0  0
  155.7436  137.9103  163.7994 C   0  0  0  0  0  0  0  0  0  0  0  0
  155.8432  139.3226  163.2392 C   0  0  1  0  0  0  0  0  0  0  0  0
  155.8306  140.3385  164.3929 C   0  0  0  0  0  0  0  0  0  0  0  0
  157.0555  139.5505  162.5463 O   0  0  0  0  0  0  0  0  0  0  0  0
  154.7116  139.6448  162.2362 C   0  0  0  0  0  0  0  0  0  0  0  0
  154.8566  140.9589  161.6221 N   0  0  0  0  0  0  0  0  0  0  0  0
  153.8003  141.5644  161.0409 C   0  0  0  0  0  0  0  0  0  0  0  0
  153.2787  142.6113  161.7234 N   0  0  0  0  0  0  0  0  0  0  0  0
  152.2408  143.2871  161.2244 C   0  0  0  0  0  0  0  0  0  0  0  0
  151.5874  143.0847  160.0795 N   0  0  0  0  0  0  0  0  0  0  0  0
  152.0989  142.0253  159.3882 C   0  0  0  0  0  0  0  0  0  0  0  0
  153.1958  141.2127  159.7975 C   0  0  0  0  0  0  0  0  0  0  0  0
  153.4184  140.2274  158.8414 N   0  0  0  0  0  0  0  0  0  0  0  0
  152.5170  140.4545  157.9257 C   0  0  0  0  0  0  0  0  0  0  0  0
  151.6858  141.5229  158.1704 N   0  0  0  0  0  0  0  0  0  0  0  0
  150.5794  142.0296  157.3025 C   0  0  1  0  0  0  0  0  0  0  0  0
  150.5828  141.2965  156.1157 O   0  0  0  0  0  0  0  0  0  0  0  0
  149.2468  140.9661  155.7525 C   0  0  1  0  0  0  0  0  0  0  0  0
  149.2463  139.7194  154.8541 C   0  0  0  0  0  0  0  0  0  0  0  0
  150.2236  139.8481  153.8437 O   0  0  0  0  0  0  0  0  0  0  0  0
  148.5834  140.7422  157.1127 C   0  0  2  0  0  0  0  0  0  0  0  0
  147.1701  140.8174  157.0648 O   0  0  0  0  0  0  0  0  0  0  0  0
  149.2164  141.8248  157.9832 C   0  0  2  0  0  0  0  0  0  0  0  0
  148.4667  143.0260  157.9743 O   0  0  0  0  0  0  0  0  0  0  0  0
  156.5926  137.2627  164.6643 C   0  0  0  0  0  0  0  0  0  0  0  0
  157.8586  137.6488  165.3555 C   0  0  0  0  0  0  0  0  0  0  0  0
  156.1506  136.0013  164.9288 O   0  0  0  0  0  0  0  0  0  0  0  0
  150.8268  143.0758  157.1155 H   0  0  0  0  0  0  0  0  0  0  0  0
  148.7844  141.8203  155.2531 H   0  0  0  0  0  0  0  0  0  0  0  0
  148.8629  139.7621  157.4994 H   0  0  0  0  0  0  0  0  0  0  0  0
  149.3328  141.4922  159.0159 H   0  0  0  0  0  0  0  0  0  0  0  0
  153.3731  134.4966  163.8524 H   0  0  0  0  0  0  0  0  0  0  0  0
  154.1380  134.2817  165.4282 H   0  0  0  0  0  0  0  0  0  0  0  0
  154.9514  133.7165  163.9668 H   0  0  0  0  0  0  0  0  0  0  0  0
  153.8359  137.1102  162.9106 H   0  0  0  0  0  0  0  0  0  0  0  0
  154.9100  140.2643  164.9729 H   0  0  0  0  0  0  0  0  0  0  0  0
  155.9042  141.3633  164.0263 H   0  0  0  0  0  0  0  0  0  0  0  0
  156.6632  140.1716  165.0777 H   0  0  0  0  0  0  0  0  0  0  0  0
  157.3456  138.7325  162.1725 H   0  0  0  0  0  0  0  0  0  0  0  0
  154.7436  138.9015  161.4385 H   0  0  0  0  0  0  0  0  0  0  0  0
  153.7333  139.5578  162.7106 H   0  0  0  0  0  0  0  0  0  0  0  0
  155.8086  141.2684  161.4870 H   0  0  0  0  0  0  0  0  0  0  0  0
  151.8849  144.1095  161.8270 H   0  0  0  0  0  0  0  0  0  0  0  0
  152.4383  139.8478  157.0352 H   0  0  0  0  0  0  0  0  0  0  0  0
  149.4150  138.8117  155.4346 H   0  0  0  0  0  0  0  0  0  0  0  0
  148.2805  139.6123  154.3600 H   0  0  0  0  0  0  0  0  0  0  0  0
  149.8007  139.7605  153.0031 H   0  0  0  0  0  0  0  0  0  0  0  0
  146.8148  140.1272  157.6035 H   0  0  0  0  0  0  0  0  0  0  0  0
  148.7356  143.5363  157.2252 H   0  0  0  0  0  0  0  0  0  0  0  0
  157.7445  138.6063  165.8639 H   0  0  0  0  0  0  0  0  0  0  0  0
  158.6761  137.7395  164.6404 H   0  0  0  0  0  0  0  0  0  0  0  0
  158.1442  136.9061  166.1009 H   0  0  0  0  0  0  0  0  0  0  0  0
  1  2  1  0  0  0  0
  1 35  1  0  0  0  0
  1 36  1  0  0  0  0
  1 37  1  0  0  0  0
  2 30  1  0  0  0  0
  2  3  2  0  0  0  0
  3  4  1  0  0  0  0
  3 38  1  0  0  0  0
  4  5  1  0  0  0  0
  4 28  2  0  0  0  0
  5  6  1  0  0  0  0
  5  7  1  0  0  0  0
  5  8  1  0  0  0  0
  6 39  1  0  0  0  0
  6 40  1  0  0  0  0
  6 41  1  0  0  0  0
  7 42  1  0  0  0  0
  8  9  1  0  0  0  0
  8 43  1  0  0  0  0
  8 44  1  0  0  0  0
  9 10  1  0  0  0  0
  9 45  1  0  0  0  0
 10 15  1  0  0  0  0
 10 11  2  0  0  0  0
 11 12  1  0  0  0  0
 12 13  2  0  0  0  0
 12 46  1  0  0  0  0
 13 14  1  0  0  0  0
 14 18  1  0  0  0  0
 14 15  2  0  0  0  0
 15 16  1  0  0  0  0
 16 17  2  0  0  0  0
 17 18  1  0  0  0  0
 17 47  1  0  0  0  0
 18 19  1  0  0  0  0
 19 31  1  0  0  0  0
 19 26  1  0  0  0  0
 19 20  1  0  0  0  0
 20 21  1  0  0  0  0
 21 32  1  0  0  0  0
 21 22  1  0  0  0  0
 21 24  1  0  0  0  0
 22 23  1  0  0  0  0
 22 48  1  0  0  0  0
 22 49  1  0  0  0  0
 23 50  1  0  0  0  0
 24 33  1  0  0  0  0
 24 25  1  0  0  0  0
 24 26  1  0  0  0  0
 25 51  1  0  0  0  0
 26 34  1  0  0  0  0
 26 27  1  0  0  0  0
 27 52  1  0  0  0  0
 28 29  1  0  0  0  0
 28 30  1  0  0  0  0
 29 53  1  0  0  0  0
 29 54  1  0  0  0  0
 29 55  1  0  0  0  0
M  END
> <s_m_source_file>
AV-unprocessed.smi

> <i_m_source_file_index>
287

> <i_lp_mmshare_version>
43012

> <i_f3d_flags>
0

> <s_epik_input>
W0NIM11jMVtjSF1jKGMobzEpW0NIM10pW0NAQF0oW0NIM10pKFtPSF0pW0NIMl1bTkhdYyhuW2NIXW4yKWMoYzIzKW5bY0hdbjNbQ0BASF00T1tDQEhdKFtDSDJdW09IXSlbQ0BASF0oW09IXSlbQ0BIXTRbT0hd

> <s_epik_cmdline>
J2VwaWtfcHl0aG9uJywgJy1waCcsICc3LjAnLCAnLXRuJywgJzgnLCAnLW1hJywgJzIwMCcsICctbWV0YWxfYmluZGluZycsICctaW1hZScsICc8aW5maWxlLm1hZT4nLCAnLW9tYWUnLCAnPG91dGZpbGUubWFlPic=

> <r_lp_tautomer_probability>
1

> <r_epik_Ionization_Penalty>
0.000992612

> <r_epik_Ionization_Penalty_Charging>
0

> <r_epik_Ionization_Penalty_Neutral>
0.000992612

> <r_epik_State_Penalty>
-0

> <r_epik_Charging_Adjusted_Penalty>
0

> <i_epik_Tot_Q>
0

> <i_epik_Tot_abs_Q>
0

> <r_epik_Metal_State_Penalty>
-0

> <b_epik_Metal_Only>
0

> <s_epik_Chemistry_Notes>
This compound contains an acetal/aminal-like group ( X-CH(R)-Y where X, Y are N, S, or O) that may be acid/base labile, releasing an aldehyde.

> <s_lp_Force_Field>
OPLS_2005

> <r_lp_Energy>
44.3809

> <b_lp_Chiralities_Consistent>
1

> <s_lp_Variant>
AV-unprocessed.smi:287-31

> <Gold.Version>
5.8.1

> <Gold.Id.Protein>
6NUR|6NUR_protein|mol2

> <Gold.PLP.Fitness>
53.8956

> <Gold.PLP.PLP>
-46.6806

> <Gold.PLP.part.hbond>
-6.0135

> <Gold.PLP.part.metal>
0.0000

> <Gold.PLP.part.buried>
-6.4122

> <Gold.PLP.part.nonpolar>
-33.6353

> <Gold.PLP.part.repulsive>
0.2214

> <Gold.PLP.ligand.clash>
0.0000

> <Gold.PLP.ligand.torsion>
1.0650

> <Gold.PLP.Chemscore.Hbond>
3.0858

> <Gold.PLP.Chemscore.CHOScore>
0.0000

> <Gold.PLP.Chemscore.Metal>
0.0000

> <Gold.Chemscore.Hbonds>
donor molecule, donor type, donor heavy atom, donor atom, acceptor molecule, acceptor atom, score
      L1  H    23    50       P1  7957  1.00
      L1  H    27    52       P1  8028  0.95
      P1  H  7989  7998       L1    23  0.94
      P1  H  7997  8008       L1    16  0.22

> <Gold.PLP.Chemscore.Internal.Correction>
0.0877

> <Gold.Rescore>
     Score         DG    S(hbond)    S(metal)    S(lipo)     H(rot)  DE(clash)    DE(int)     intcor
      6.47      -7.61       1.96        0.00      77.42       5.27       0.10       1.04       ----

> <Gold.Chemscore.Fitness>
6.4730

> <Gold.Chemscore.DG>
-7.6111

> <Gold.Chemscore.ZeroCoef>
-5.4800

> <Gold.Chemscore.Hbond>
1.9631

> <Gold.Chemscore.Metal>
0.0000

> <Gold.Chemscore.Lipo>
77.4200

> <Gold.Chemscore.Internal_Hbond>
0.0000

> <Gold.Chemscore.DEClash>
0.0987

> <Gold.Chemscore.DEInternal>
1.0394

> <Gold.Chemscore.Rot>
5.2672

> <Gold.Chemscore.Internal.Correction>
   9.000000E+99

> <Gold.Chemscore.Hbonds>
donor molecule, donor type, donor heavy atom, donor atom, acceptor molecule, acceptor atom, score
      L1  H    23    50       P1  7957  0.98
      L1  H    27    52       P1  8028  0.21
      P1  H  7989  7998       L1    23  0.32
      P1  H  7997  8008       L1    16  0.01

> <Gold.Chemscore.Hbond.Weighted>
-6.5569

> <Gold.Chemscore.Metal.Weighted>
-0.0000

> <Gold.Chemscore.Lipo.Weighted>
-9.0581

> <Gold.Chemscore.Internal_Hbond.Weighted>
0.0000

> <Gold.Chemscore.DEClash.Weighted>
0.0987

> <Gold.Chemscore.DEInternal.Weighted>
1.0394

> <Gold.Chemscore.Rot.Weighted>
13.4839

> <Gold.Chemscore.Internal.Correction.Weighted>
   9.000000E+99

> <Gold.Protein.RotatedTorsions>
[ 6907 6896 6895 6894 ] final  -58.18 input  -60.11 | X-H torsion
[ 7974 7965 7964 7962 ] final -151.99 input  175.53 | X-H torsion
[ 8008 7997 7996 7995 ] final -107.79 input   59.86 | X-H torsion
[ 10167 10162 10161 10158 ] final  -31.51 input  -65.29 | X-H torsion
[ 10718 10713 10712 10709 ] final  164.43 input   66.30 | X-H torsion
[ 10763 10752 10751 10750 ] final   51.07 input  -60.55 | X-H torsion
[ 11005 11000 10999 10996 ] final -113.54 input  -57.11 | X-H torsion

> <Gold.Protein.ActiveResidues>
 VAL166  LYS551  ARG553  GLY616  TRP617  ASP618  TYR619  PRO620  LYS621  CYS622 
 ASP623  PHE694  ASN695  SER759  ASP760  ASP761  ALA762  ILE779  LEU786  VAL792 
 PHE793  MET794  SER795  GLU796  ALA797  LYS798  CYS799  TRP800  GLU811  SER814 

> <Gold.Protein.RotatedAtoms>
  150.8027  134.7131  159.6615 H   0  0  0  0  0  0  0  0  0  0  0  0  # atno 6907 bound_to 6896
  152.4145  134.6063  160.0023 H   0  0  0  0  0  0  0  0  0  0  0  0  # atno 6908 bound_to 6896
  151.6296  133.3296  159.3142 H   0  0  0  0  0  0  0  0  0  0  0  0  # atno 6909 bound_to 6896
  144.7819  140.4723  143.5833 H   0  0  0  0  0  0  0  0  0  0  0  0  # atno 7974 bound_to 7965
  154.9346  140.0404  157.2066 H   0  0  0  0  0  0  0  0  0  0  0  0  # atno 8008 bound_to 7997
  154.8127  140.2870  155.5820 H   0  0  0  0  0  0  0  0  0  0  0  0  # atno 8009 bound_to 7997
  156.2973  140.2534  156.3019 H   0  0  0  0  0  0  0  0  0  0  0  0  # atno 8010 bound_to 7997
  140.7235  143.3765  151.1680 H   0  0  0  0  0  0  0  0  0  0  0  0  # atno 10167 bound_to 10162
  157.0944  131.0426  151.2524 H   0  0  0  0  0  0  0  0  0  0  0  0  # atno 10718 bound_to 10713
  152.9785  135.5858  154.4356 H   0  0  0  0  0  0  0  0  0  0  0  0  # atno 10763 bound_to 10752
  154.3963  135.2768  155.2126 H   0  0  0  0  0  0  0  0  0  0  0  0  # atno 10764 bound_to 10752
  154.3976  135.6111  153.5933 H   0  0  0  0  0  0  0  0  0  0  0  0  # atno 10765 bound_to 10752
  141.0608  133.9538  157.2670 H   0  0  0  0  0  0  0  0  0  0  0  0  # atno 11005 bound_to 11000
  145.6027  139.1505  143.3120 LP  0  0  0  0  0  0  0  0  0  0  0  0  # atno 17320 bound_to 7965
  146.2031  140.6147  142.9093 LP  0  0  0  0  0  0  0  0  0  0  0  0  # atno 17321 bound_to 7965
  139.7346  143.9019  152.3031 LP  0  0  0  0  0  0  0  0  0  0  0  0  # atno 17342 bound_to 10162
  139.8819  144.7013  150.8868 LP  0  0  0  0  0  0  0  0  0  0  0  0  # atno 17343 bound_to 10162
  157.4694  130.7700  149.7309 LP  0  0  0  0  0  0  0  0  0  0  0  0  # atno 17370 bound_to 10713
  155.9889  130.3955  150.3095 LP  0  0  0  0  0  0  0  0  0  0  0  0  # atno 17371 bound_to 10713
  139.9431  135.0188  156.8769 LP  0  0  0  0  0  0  0  0  0  0  0  0  # atno 17394 bound_to 11000
  140.5872  134.0296  155.7486 LP  0  0  0  0  0  0  0  0  0  0  0  0  # atno 17395 bound_to 11000

$$$$
