AV-unprocessed.smi:1536|AV-procd|sdf|6187|dock5
  -GOLD-   22720 6353D 1   1.00000     0.00000
 Structure written by MMmdl.
 48 49  0  0  0  0  0  0  0  0  2 V2000
  146.1943  132.7502  150.2581 C   0  0  0  0  0  0  0  0  0  0  0  0
  145.7714  133.7817  151.3131 C   0  0  2  0  0  0  0  0  0  0  0  0
  145.5881  135.1810  150.6990 C   0  0  0  0  0  0  0  0  0  0  0  0
  145.1902  136.2139  151.7662 C   0  0  0  0  0  0  0  0  0  0  0  0
  146.1911  136.2425  152.8662 N   0  3  1  0  0  0  0  0  0  0  0  0
  146.0806  137.4104  153.7976 C   0  0  1  0  0  0  0  0  0  0  0  0
  146.7651  138.7033  153.2689 C   0  0  0  0  0  0  0  0  0  0  0  0
  148.2216  138.6309  153.3198 N   0  0  0  0  0  0  0  0  0  0  0  0
  149.0039  139.1858  154.2597 C   0  0  0  0  0  0  0  0  0  0  0  0
  148.5634  139.8084  155.2247 O   0  0  0  0  0  0  0  0  0  0  0  0
  150.5175  139.0540  154.0668 C   0  0  0  0  0  0  0  0  0  0  0  0
  151.0736  137.9592  154.8415 N   0  0  0  0  0  0  0  0  0  0  0  0
  150.8586  136.6433  154.7820 C   0  0  0  0  0  0  0  0  0  0  0  0
  151.5911  135.9886  155.6701 N   0  0  0  0  0  0  0  0  0  0  0  0
  152.2936  136.9989  156.3061 N   0  0  0  0  0  0  0  0  0  0  0  0
  151.9900  138.1707  155.8195 N   0  0  0  0  0  0  0  0  0  0  0  0
  144.5911  137.6315  154.1921 C   0  0  0  0  0  0  0  0  0  0  0  0
  144.4138  138.6726  155.3131 C   0  0  0  0  0  0  0  0  0  0  0  0
  143.9099  136.3167  154.6232 C   0  0  0  0  0  0  0  0  0  0  0  0
  146.3639  134.9115  153.5082 C   0  0  0  0  0  0  0  0  0  0  0  0
  146.7847  133.8602  152.4690 C   0  0  0  0  0  0  0  0  0  0  0  0
  147.1537  133.0104  149.8099 H   0  0  0  0  0  0  0  0  0  0  0  0
  145.4590  132.6848  149.4556 H   0  0  0  0  0  0  0  0  0  0  0  0
  146.2913  131.7566  150.6972 H   0  0  0  0  0  0  0  0  0  0  0  0
  144.8119  133.4624  151.7230 H   0  0  0  0  0  0  0  0  0  0  0  0
  146.5134  135.4970  150.2147 H   0  0  0  0  0  0  0  0  0  0  0  0
  144.8263  135.1498  149.9190 H   0  0  0  0  0  0  0  0  0  0  0  0
  145.1195  137.1971  151.2999 H   0  0  0  0  0  0  0  0  0  0  0  0
  144.2002  135.9729  152.1509 H   0  0  0  0  0  0  0  0  0  0  0  0
  146.5958  137.1368  154.7198 H   0  0  0  0  0  0  0  0  0  0  0  0
  146.4122  138.9284  152.2614 H   0  0  0  0  0  0  0  0  0  0  0  0
  146.4874  139.5583  153.8841 H   0  0  0  0  0  0  0  0  0  0  0  0
  148.6762  138.1276  152.5712 H   0  0  0  0  0  0  0  0  0  0  0  0
  150.7373  138.8974  153.0098 H   0  0  0  0  0  0  0  0  0  0  0  0
  151.0145  139.9780  154.3655 H   0  0  0  0  0  0  0  0  0  0  0  0
  150.1757  136.1697  154.0921 H   0  0  0  0  0  0  0  0  0  0  0  0
  144.0516  138.0077  153.3225 H   0  0  0  0  0  0  0  0  0  0  0  0
  145.0061  138.4156  156.1920 H   0  0  0  0  0  0  0  0  0  0  0  0
  143.3711  138.7379  155.6262 H   0  0  0  0  0  0  0  0  0  0  0  0
  144.7017  139.6728  154.9906 H   0  0  0  0  0  0  0  0  0  0  0  0
  144.4203  135.8673  155.4757 H   0  0  0  0  0  0  0  0  0  0  0  0
  143.8917  135.5806  153.8194 H   0  0  0  0  0  0  0  0  0  0  0  0
  142.8728  136.4887  154.9130 H   0  0  0  0  0  0  0  0  0  0  0  0
  147.1206  134.9660  154.2906 H   0  0  0  0  0  0  0  0  0  0  0  0
  145.4364  134.5963  153.9851 H   0  0  0  0  0  0  0  0  0  0  0  0
  146.8785  132.8864  152.9510 H   0  0  0  0  0  0  0  0  0  0  0  0
  147.7734  134.1085  152.0801 H   0  0  0  0  0  0  0  0  0  0  0  0
  147.0642  136.4100  152.3866 H   0  0  0  0  0  0  0  0  0  0  0  0
  1  2  1  0  0  0  0
  1 22  1  0  0  0  0
  1 23  1  0  0  0  0
  1 24  1  0  0  0  0
  2 21  1  0  0  0  0
  2  3  1  0  0  0  0
  2 25  1  0  0  0  0
  3  4  1  0  0  0  0
  3 26  1  0  0  0  0
  3 27  1  0  0  0  0
  4  5  1  0  0  0  0
  4 28  1  0  0  0  0
  4 29  1  0  0  0  0
  5  6  1  0  0  0  0
  5 20  1  0  0  0  0
  5 48  1  0  0  0  0
  6  7  1  0  0  0  0
  6 17  1  0  0  0  0
  6 30  1  0  0  0  0
  7  8  1  0  0  0  0
  7 31  1  0  0  0  0
  7 32  1  0  0  0  0
  8  9  1  0  0  0  0
  8 33  1  0  0  0  0
  9 10  2  0  0  0  0
  9 11  1  0  0  0  0
 11 12  1  0  0  0  0
 11 34  1  0  0  0  0
 11 35  1  0  0  0  0
 12 16  1  0  0  0  0
 12 13  1  0  0  0  0
 13 14  2  0  0  0  0
 13 36  1  0  0  0  0
 14 15  1  0  0  0  0
 15 16  2  0  0  0  0
 17 18  1  0  0  0  0
 17 19  1  0  0  0  0
 17 37  1  0  0  0  0
 18 38  1  0  0  0  0
 18 39  1  0  0  0  0
 18 40  1  0  0  0  0
 19 41  1  0  0  0  0
 19 42  1  0  0  0  0
 19 43  1  0  0  0  0
 20 21  1  0  0  0  0
 20 44  1  0  0  0  0
 20 45  1  0  0  0  0
 21 46  1  0  0  0  0
 21 47  1  0  0  0  0
M  CHG  1   5   1
M  END
> <s_m_source_file>
AV-unprocessed.smi

> <i_m_source_file_index>
1536

> <i_lp_mmshare_version>
43012

> <i_f3d_flags>
0

> <s_epik_input>
W0NIM11bQ0hdMVtDSDJdW0NIMl1OKFtDSDJdW0NIMl0xKVtDQEBIXShbQ0hdKFtDSDNdKVtDSDNdKVtDSDJdW05IXUMoPU8pW0NIMl1uMltjSF1ubm4y

> <s_epik_cmdline>
J2VwaWtfcHl0aG9uJywgJy1waCcsICc3LjAnLCAnLXRuJywgJzgnLCAnLW1hJywgJzIwMCcsICctbWV0YWxfYmluZGluZycsICctaW1hZScsICc8aW5maWxlLm1hZT4nLCAnLW9tYWUnLCAnPG91dGZpbGUubWFlPic=

> <r_lp_tautomer_probability>
1

> <r_epik_Ionization_Penalty>
0.00109671

> <r_epik_Ionization_Penalty_Charging>
0.00109273

> <r_epik_Ionization_Penalty_Neutral>
3.97951e-06

> <r_epik_State_Penalty>
0.000716588

> <r_epik_Charging_Adjusted_Penalty>
0.00180932

> <i_epik_Tot_Q>
1

> <i_epik_Tot_abs_Q>
1

> <r_epik_Metal_State_Penalty>
-0

> <b_epik_Metal_Only>
0

> <s_lp_Force_Field>
OPLS_2005

> <r_lp_Energy>
35.3262

> <b_lp_Chiralities_Consistent>
1

> <s_lp_Variant>
AV-unprocessed.smi:1536-2

> <Gold.Version>
5.8.1

> <Gold.Id.Protein>
6NUR|6NUR_protein|mol2

> <Gold.PLP.Fitness>
40.1580

> <Gold.PLP.PLP>
-29.1171

> <Gold.PLP.part.hbond>
-4.8245

> <Gold.PLP.part.metal>
0.0000

> <Gold.PLP.part.buried>
-2.4988

> <Gold.PLP.part.nonpolar>
-21.6324

> <Gold.PLP.part.repulsive>
0.1421

> <Gold.PLP.ligand.clash>
0.0000

> <Gold.PLP.ligand.torsion>
1.2442

> <Gold.PLP.Chemscore.Hbond>
3.5140

> <Gold.PLP.Chemscore.CHOScore>
0.8291

> <Gold.PLP.Chemscore.Metal>
0.0000

> <Gold.Chemscore.Hbonds>
donor molecule, donor type, donor heavy atom, donor atom, acceptor molecule, acceptor atom, score
      L1  H     5    48       P1  7948  2.00
      L1  H     8    33       P1  7948  0.86
      P1  H 10752 10763       L1    14  0.60
      L1  C    13    36       P1  7948  0.78
      L1  C    13    36       P1  7949  0.04

> <Gold.PLP.Chemscore.Internal.Correction>
0.4999

> <Gold.Rescore>
     Score         DG    S(hbond)    S(metal)    S(lipo)     H(rot)  DE(clash)    DE(int)     intcor
      9.95     -11.38       1.98        0.00      54.45       2.77       0.11       1.32       ----

> <Gold.Chemscore.Fitness>
9.9519

> <Gold.Chemscore.DG>
-11.3820

> <Gold.Chemscore.ZeroCoef>
-5.4800

> <Gold.Chemscore.Hbond>
1.9834

> <Gold.Chemscore.Metal>
0.0000

> <Gold.Chemscore.Lipo>
54.4520

> <Gold.Chemscore.Internal_Hbond>
0.0000

> <Gold.Chemscore.DEClash>
0.1145

> <Gold.Chemscore.DEInternal>
1.3156

> <Gold.Chemscore.Rot>
2.7709

> <Gold.Chemscore.Internal.Correction>
   9.000000E+99

> <Gold.Chemscore.Hbonds>
donor molecule, donor type, donor heavy atom, donor atom, acceptor molecule, acceptor atom, score
      L1  H     5    48       P1  7948  0.98
      L1  H     8    33       P1  7948  0.81
      P1  H 10752 10763       L1    14  0.01

> <Gold.Chemscore.Hbond.Weighted>
-6.6246

> <Gold.Chemscore.Metal.Weighted>
-0.0000

> <Gold.Chemscore.Lipo.Weighted>
-6.3709

> <Gold.Chemscore.Internal_Hbond.Weighted>
0.0000

> <Gold.Chemscore.DEClash.Weighted>
0.1145

> <Gold.Chemscore.DEInternal.Weighted>
1.3156

> <Gold.Chemscore.Rot.Weighted>
7.0935

> <Gold.Chemscore.Internal.Correction.Weighted>
   9.000000E+99

> <Gold.Protein.RotatedTorsions>
[ 6907 6896 6895 6894 ] final -170.78 input  -60.11 | X-H torsion
[ 7974 7965 7964 7962 ] final -104.56 input  175.53 | X-H torsion
[ 8008 7997 7996 7995 ] final  162.07 input   59.86 | X-H torsion
[ 10167 10162 10161 10158 ] final  109.17 input  -65.29 | X-H torsion
[ 10718 10713 10712 10709 ] final  -89.81 input   66.30 | X-H torsion
[ 10763 10752 10751 10750 ] final   65.82 input  -60.55 | X-H torsion
[ 11005 11000 10999 10996 ] final  -37.95 input  -57.11 | X-H torsion

> <Gold.Protein.ActiveResidues>
 VAL166  LYS551  ARG553  GLY616  TRP617  ASP618  TYR619  PRO620  LYS621  CYS622 
 ASP623  PHE694  ASN695  SER759  ASP760  ASP761  ALA762  ILE779  LEU786  VAL792 
 PHE793  MET794  SER795  GLU796  ALA797  LYS798  CYS799  TRP800  GLU811  SER814 

> <Gold.Protein.RotatedAtoms>
  151.5133  133.3480  159.2888 H   0  0  0  0  0  0  0  0  0  0  0  0  # atno 6907 bound_to 6896
  150.8698  134.8072  159.7157 H   0  0  0  0  0  0  0  0  0  0  0  0  # atno 6908 bound_to 6896
  152.4690  134.5015  159.9778 H   0  0  0  0  0  0  0  0  0  0  0  0  # atno 6909 bound_to 6896
  145.2416  140.9207  143.3147 H   0  0  0  0  0  0  0  0  0  0  0  0  # atno 7974 bound_to 7965
  156.2058  140.1760  156.7803 H   0  0  0  0  0  0  0  0  0  0  0  0  # atno 8008 bound_to 7997
  154.5653  140.0692  156.8912 H   0  0  0  0  0  0  0  0  0  0  0  0  # atno 8009 bound_to 7997
  155.2772  140.3346  155.4263 H   0  0  0  0  0  0  0  0  0  0  0  0  # atno 8010 bound_to 7997
  139.6788  144.7120  151.1554 H   0  0  0  0  0  0  0  0  0  0  0  0  # atno 10167 bound_to 10162
  155.9985  130.4886  150.5228 H   0  0  0  0  0  0  0  0  0  0  0  0  # atno 10718 bound_to 10713
  153.0113  135.5343  154.6727 H   0  0  0  0  0  0  0  0  0  0  0  0  # atno 10763 bound_to 10752
  154.5907  135.2858  155.0640 H   0  0  0  0  0  0  0  0  0  0  0  0  # atno 10764 bound_to 10752
  154.1734  135.6528  153.5068 H   0  0  0  0  0  0  0  0  0  0  0  0  # atno 10765 bound_to 10752
  140.9991  133.6965  156.1989 H   0  0  0  0  0  0  0  0  0  0  0  0  # atno 11005 bound_to 11000
  144.9584  139.4006  143.6368 LP  0  0  0  0  0  0  0  0  0  0  0  0  # atno 17320 bound_to 7965
  146.3327  139.8625  142.8854 LP  0  0  0  0  0  0  0  0  0  0  0  0  # atno 17321 bound_to 7965
  140.7645  143.5731  150.8974 LP  0  0  0  0  0  0  0  0  0  0  0  0  # atno 17342 bound_to 10162
  139.9402  143.6391  152.3055 LP  0  0  0  0  0  0  0  0  0  0  0  0  # atno 17343 bound_to 10162
  157.3187  131.0678  151.1948 LP  0  0  0  0  0  0  0  0  0  0  0  0  # atno 17370 bound_to 10713
  157.2868  130.6777  149.6094 LP  0  0  0  0  0  0  0  0  0  0  0  0  # atno 17371 bound_to 10713
  140.6918  134.4658  157.5588 LP  0  0  0  0  0  0  0  0  0  0  0  0  # atno 17394 bound_to 11000
  139.9029  134.8514  156.1820 LP  0  0  0  0  0  0  0  0  0  0  0  0  # atno 17395 bound_to 11000

$$$$
