AV-unprocessed.smi:1886|AV-procd|sdf|7654|dock7
  -GOLD-   22720 9383D 1   1.00000     0.00000
 Structure written by MMmdl.
 39 40  0  0  0  0  0  0  0  0  1 V2000
  151.1824  141.5070  158.0266 O   0  0  0  0  0  0  0  0  0  0  0  0
  150.4721  142.3902  157.5463 C   0  0  0  0  0  0  0  0  0  0  0  0
  150.0510  142.4099  156.2744 N   0  0  0  0  0  0  0  0  0  0  0  0
  150.3378  141.3805  155.2812 C   0  0  0  0  0  0  0  0  0  0  0  0
  149.0778  140.8614  154.6025 C   0  0  0  0  0  0  0  0  0  0  0  0
  148.1818  141.7723  154.0035 C   0  0  0  0  0  0  0  0  0  0  0  0
  147.0242  141.2820  153.3720 C   0  0  0  0  0  0  0  0  0  0  0  0
  146.8068  139.8918  153.3628 C   0  0  0  0  0  0  0  0  0  0  0  0
  147.6535  139.0080  153.9302 N   0  0  0  0  0  0  0  0  0  0  0  0
  148.7700  139.4776  154.5382 C   0  0  0  0  0  0  0  0  0  0  0  0
  149.6324  138.5348  155.1194 N   0  0  0  0  0  0  0  0  0  0  0  0
  149.0623  137.1967  155.2024 C   0  0  0  0  0  0  0  0  0  0  0  0
  150.0015  136.2801  156.0036 C   0  0  0  0  0  0  0  0  0  0  0  0
  151.2962  136.2837  155.4085 O   0  0  0  0  0  0  0  0  0  0  0  0
  151.8751  137.5861  155.3945 C   0  0  0  0  0  0  0  0  0  0  0  0
  150.9846  138.5373  154.5767 C   0  0  0  0  0  0  0  0  0  0  0  0
  150.0283  143.4517  158.2325 N   0  0  0  0  0  0  0  0  0  0  0  0
  150.3329  143.7351  159.6316 C   0  0  0  0  0  0  0  0  0  0  0  0
  151.8238  144.0398  159.8587 C   0  0  0  0  0  0  0  0  0  0  0  0
  152.0030  144.4112  161.1256 F   0  0  0  0  0  0  0  0  0  0  0  0
  152.5596  142.9525  159.6251 F   0  0  0  0  0  0  0  0  0  0  0  0
  152.2365  145.0294  159.0675 F   0  0  0  0  0  0  0  0  0  0  0  0
  149.4749  143.1826  155.9741 H   0  0  0  0  0  0  0  0  0  0  0  0
  151.0175  141.7988  154.5382 H   0  0  0  0  0  0  0  0  0  0  0  0
  150.8569  140.5317  155.7296 H   0  0  0  0  0  0  0  0  0  0  0  0
  148.3762  142.8345  154.0261 H   0  0  0  0  0  0  0  0  0  0  0  0
  146.3208  141.9548  152.9045 H   0  0  0  0  0  0  0  0  0  0  0  0
  145.9301  139.4782  152.8866 H   0  0  0  0  0  0  0  0  0  0  0  0
  148.0827  137.2391  155.6801 H   0  0  0  0  0  0  0  0  0  0  0  0
  148.9163  136.7949  154.1987 H   0  0  0  0  0  0  0  0  0  0  0  0
  150.0684  136.6100  157.0406 H   0  0  0  0  0  0  0  0  0  0  0  0
  149.6153  135.2609  156.0161 H   0  0  0  0  0  0  0  0  0  0  0  0
  151.9992  137.9513  156.4156 H   0  0  0  0  0  0  0  0  0  0  0  0
  152.8697  137.5287  154.9524 H   0  0  0  0  0  0  0  0  0  0  0  0
  150.9656  138.2203  153.5329 H   0  0  0  0  0  0  0  0  0  0  0  0
  151.3916  139.5490  154.6016 H   0  0  0  0  0  0  0  0  0  0  0  0
  149.4440  144.1197  157.7514 H   0  0  0  0  0  0  0  0  0  0  0  0
  149.7161  144.5581  159.9971 H   0  0  0  0  0  0  0  0  0  0  0  0
  150.0483  142.8579  160.2131 H   0  0  0  0  0  0  0  0  0  0  0  0
  1  2  2  0  0  0  0
  2  3  1  0  0  0  0
  2 17  1  0  0  0  0
  3  4  1  0  0  0  0
  3 23  1  0  0  0  0
  4  5  1  0  0  0  0
  4 24  1  0  0  0  0
  4 25  1  0  0  0  0
  5 10  1  0  0  0  0
  5  6  2  0  0  0  0
  6  7  1  0  0  0  0
  6 26  1  0  0  0  0
  7  8  2  0  0  0  0
  7 27  1  0  0  0  0
  8  9  1  0  0  0  0
  8 28  1  0  0  0  0
  9 10  2  0  0  0  0
 10 11  1  0  0  0  0
 11 16  1  0  0  0  0
 11 12  1  0  0  0  0
 12 13  1  0  0  0  0
 12 29  1  0  0  0  0
 12 30  1  0  0  0  0
 13 14  1  0  0  0  0
 13 31  1  0  0  0  0
 13 32  1  0  0  0  0
 14 15  1  0  0  0  0
 15 16  1  0  0  0  0
 15 33  1  0  0  0  0
 15 34  1  0  0  0  0
 16 35  1  0  0  0  0
 16 36  1  0  0  0  0
 17 18  1  0  0  0  0
 17 37  1  0  0  0  0
 18 19  1  0  0  0  0
 18 38  1  0  0  0  0
 18 39  1  0  0  0  0
 19 20  1  0  0  0  0
 19 21  1  0  0  0  0
 19 22  1  0  0  0  0
M  END
> <s_m_source_file>
AV-unprocessed.smi

> <i_m_source_file_index>
1886

> <i_lp_mmshare_version>
43012

> <i_f3d_flags>
0

> <s_epik_input>
RkMoRikoRilbQ0gyXVtOSF1DKD1PKVtOSF1bQ0gyXWMxW2NIXVtjSF1bY0hdbmMxTjJbQ0gyXVtDSDJdT1tDSDJdW0NIMl0y

> <s_epik_cmdline>
J2VwaWtfcHl0aG9uJywgJy1waCcsICc3LjAnLCAnLXRuJywgJzgnLCAnLW1hJywgJzIwMCcsICctbWV0YWxfYmluZGluZycsICctaW1hZScsICc8aW5maWxlLm1hZT4nLCAnLW9tYWUnLCAnPG91dGZpbGUubWFlPic=

> <r_lp_tautomer_probability>
1

> <r_epik_Ionization_Penalty>
0.00288023

> <r_epik_Ionization_Penalty_Charging>
0

> <r_epik_Ionization_Penalty_Neutral>
0.00288023

> <r_epik_State_Penalty>
0.00199456

> <r_epik_Charging_Adjusted_Penalty>
0.00199456

> <i_epik_Tot_Q>
0

> <i_epik_Tot_abs_Q>
0

> <r_epik_Metal_State_Penalty>
-0

> <b_epik_Metal_Only>
0

> <s_lp_Force_Field>
OPLS_2005

> <r_lp_Energy>
16.0982

> <b_lp_Chiralities_Consistent>
1

> <s_lp_Variant>
AV-unprocessed.smi:1886-1

> <Gold.Version>
5.8.1

> <Gold.Id.Protein>
6NUR|6NUR_protein|mol2

> <Gold.PLP.Fitness>
51.7260

> <Gold.PLP.PLP>
-41.8223

> <Gold.PLP.part.hbond>
-3.1240

> <Gold.PLP.part.metal>
0.0000

> <Gold.PLP.part.buried>
-3.9679

> <Gold.PLP.part.nonpolar>
-35.0518

> <Gold.PLP.part.repulsive>
0.5728

> <Gold.PLP.ligand.clash>
0.0357

> <Gold.PLP.ligand.torsion>
0.2337

> <Gold.PLP.Chemscore.Hbond>
2.4980

> <Gold.PLP.Chemscore.CHOScore>
0.9214

> <Gold.PLP.Chemscore.Metal>
0.0000

> <Gold.Chemscore.Hbonds>
donor molecule, donor type, donor heavy atom, donor atom, acceptor molecule, acceptor atom, score
      L1  H     3    23       P1  8028  1.00
      L1  H    17    37       P1  8028  0.33
      P1  H 10752 10764       L1    14  0.50
      L1  C     8    28       P1 10175  1.00

> <Gold.PLP.Chemscore.Internal.Correction>
0.1487

> <Gold.Rescore>
     Score         DG    S(hbond)    S(metal)    S(lipo)     H(rot)  DE(clash)    DE(int)     intcor
     10.75     -15.41       1.78        0.00      79.72       2.09       2.52       2.14       ----

> <Gold.Chemscore.Fitness>
10.7467

> <Gold.Chemscore.DG>
-15.4100

> <Gold.Chemscore.ZeroCoef>
-5.4800

> <Gold.Chemscore.Hbond>
1.7825

> <Gold.Chemscore.Metal>
0.0000

> <Gold.Chemscore.Lipo>
79.7159

> <Gold.Chemscore.Internal_Hbond>
0.0000

> <Gold.Chemscore.DEClash>
2.5225

> <Gold.Chemscore.DEInternal>
2.1408

> <Gold.Chemscore.Rot>
2.0899

> <Gold.Chemscore.Internal.Correction>
   9.000000E+99

> <Gold.Chemscore.Hbonds>
donor molecule, donor type, donor heavy atom, donor atom, acceptor molecule, acceptor atom, score
      L1  H     3    23       P1  8028  1.00
      L1  H    17    37       P1  8028  0.04
      P1  H 10752 10764       L1    14  0.02

> <Gold.Chemscore.Hbond.Weighted>
-5.9535

> <Gold.Chemscore.Metal.Weighted>
-0.0000

> <Gold.Chemscore.Lipo.Weighted>
-9.3268

> <Gold.Chemscore.Internal_Hbond.Weighted>
0.0000

> <Gold.Chemscore.DEClash.Weighted>
2.5225

> <Gold.Chemscore.DEInternal.Weighted>
2.1408

> <Gold.Chemscore.Rot.Weighted>
5.3502

> <Gold.Chemscore.Internal.Correction.Weighted>
   9.000000E+99

> <Gold.Protein.RotatedTorsions>
[ 6907 6896 6895 6894 ] final   -7.68 input  -60.11 | X-H torsion
[ 7974 7965 7964 7962 ] final  131.05 input  175.53 | X-H torsion
[ 8008 7997 7996 7995 ] final  -59.08 input   59.86 | X-H torsion
[ 10167 10162 10161 10158 ] final    4.54 input  -65.29 | X-H torsion
[ 10718 10713 10712 10709 ] final  177.45 input   66.30 | X-H torsion
[ 10763 10752 10751 10750 ] final  -36.92 input  -60.55 | X-H torsion
[ 11005 11000 10999 10996 ] final   49.73 input  -57.11 | X-H torsion

> <Gold.Protein.ActiveResidues>
 VAL166  LYS551  ARG553  GLY616  TRP617  ASP618  TYR619  PRO620  LYS621  CYS622 
 ASP623  PHE694  ASN695  SER759  ASP760  ASP761  ALA762  ILE779  LEU786  VAL792 
 PHE793  MET794  SER795  GLU796  ALA797  LYS798  CYS799  TRP800  GLU811  SER814 

> <Gold.Protein.RotatedAtoms>
  151.4457  135.1025  159.9682 H   0  0  0  0  0  0  0  0  0  0  0  0  # atno 6907 bound_to 6896
  152.4906  133.8487  159.7201 H   0  0  0  0  0  0  0  0  0  0  0  0  # atno 6908 bound_to 6896
  150.9057  133.7002  159.2895 H   0  0  0  0  0  0  0  0  0  0  0  0  # atno 6909 bound_to 6896
  145.0114  139.4217  143.5243 H   0  0  0  0  0  0  0  0  0  0  0  0  # atno 7974 bound_to 7965
  154.4336  140.1070  156.6058 H   0  0  0  0  0  0  0  0  0  0  0  0  # atno 8008 bound_to 7997
  155.5862  140.3491  155.4535 H   0  0  0  0  0  0  0  0  0  0  0  0  # atno 8009 bound_to 7997
  156.0281  140.1254  157.0276 H   0  0  0  0  0  0  0  0  0  0  0  0  # atno 8010 bound_to 7997
  140.6529  143.7499  150.7605 H   0  0  0  0  0  0  0  0  0  0  0  0  # atno 10167 bound_to 10162
  156.9051  130.9891  151.3029 H   0  0  0  0  0  0  0  0  0  0  0  0  # atno 10718 bound_to 10713
  153.8876  135.6815  153.4762 H   0  0  0  0  0  0  0  0  0  0  0  0  # atno 10763 bound_to 10752
  153.1199  135.4745  154.9175 H   0  0  0  0  0  0  0  0  0  0  0  0  # atno 10764 bound_to 10752
  154.7638  135.3218  154.8279 H   0  0  0  0  0  0  0  0  0  0  0  0  # atno 10765 bound_to 10752
  140.1078  134.4995  155.8704 H   0  0  0  0  0  0  0  0  0  0  0  0  # atno 11005 bound_to 11000
  146.3470  139.9560  142.8723 LP  0  0  0  0  0  0  0  0  0  0  0  0  # atno 17320 bound_to 7965
  145.2018  140.9858  143.4151 LP  0  0  0  0  0  0  0  0  0  0  0  0  # atno 17321 bound_to 7965
  140.1153  143.4662  152.2346 LP  0  0  0  0  0  0  0  0  0  0  0  0  # atno 17342 bound_to 10162
  139.5747  144.7481  151.3796 LP  0  0  0  0  0  0  0  0  0  0  0  0  # atno 17343 bound_to 10162
  157.6002  130.8507  149.8790 LP  0  0  0  0  0  0  0  0  0  0  0  0  # atno 17370 bound_to 10713
  156.0563  130.3708  150.1084 LP  0  0  0  0  0  0  0  0  0  0  0  0  # atno 17371 bound_to 10713
  141.2123  133.6717  156.6646 LP  0  0  0  0  0  0  0  0  0  0  0  0  # atno 17394 bound_to 11000
  140.3132  134.8069  157.4193 LP  0  0  0  0  0  0  0  0  0  0  0  0  # atno 17395 bound_to 11000

$$$$
