AV-unprocessed.smi:3152|AV-procd|sdf|12017|dock6
  -GOLD-   2272017423D 1   1.00000     0.00000
 Structure written by MMmdl.
 41 42  0  0  0  0  0  0  0  0  2 V2000
  145.0357  133.0016  150.7331 C   0  0  0  0  0  0  0  0  0  0  0  0
  144.8656  134.3163  151.4383 C   0  0  0  0  0  0  0  0  0  0  0  0
  143.6499  134.9413  151.8368 C   0  0  0  0  0  0  0  0  0  0  0  0
  143.8430  136.1014  152.4433 N   0  0  0  0  0  0  0  0  0  0  0  0
  145.1835  136.2568  152.4550 N   0  0  0  0  0  0  0  0  0  0  0  0
  145.7621  137.4414  153.0585 C   0  0  0  0  0  0  0  0  0  0  0  0
  146.4385  138.3360  152.0100 C   0  0  0  0  0  0  0  0  0  0  0  0
  147.7824  138.7537  152.4528 N   0  3  0  0  0  0  0  0  0  0  0  0
  147.8013  139.4079  153.7783 C   0  0  0  0  0  0  0  0  0  0  0  0
  149.2282  139.7960  154.2259 C   0  0  0  0  0  0  0  0  0  0  0  0
  149.6950  140.7881  153.3288 O   0  0  0  0  0  0  0  0  0  0  0  0
  149.2490  140.3543  155.6706 C   0  0  0  0  0  0  0  0  0  0  0  0
  150.6730  140.6168  156.1926 C   0  0  0  0  0  0  0  0  0  0  0  0
  151.5514  139.3629  156.0825 C   0  0  0  0  0  0  0  0  0  0  0  0
  151.5845  138.8413  154.6394 C   0  0  0  0  0  0  0  0  0  0  0  0
  150.1645  138.5694  154.1108 C   0  0  0  0  0  0  0  0  0  0  0  0
  145.8259  135.1956  151.8529 C   0  0  0  0  0  0  0  0  0  0  0  0
  144.2135  132.8024  150.0456 H   0  0  0  0  0  0  0  0  0  0  0  0
  145.0737  132.1711  151.4381 H   0  0  0  0  0  0  0  0  0  0  0  0
  145.9560  132.9706  150.1491 H   0  0  0  0  0  0  0  0  0  0  0  0
  142.6381  134.5874  151.7044 H   0  0  0  0  0  0  0  0  0  0  0  0
  144.9736  137.9894  153.5761 H   0  0  0  0  0  0  0  0  0  0  0  0
  146.4812  137.1272  153.8165 H   0  0  0  0  0  0  0  0  0  0  0  0
  146.5282  137.8026  151.0625 H   0  0  0  0  0  0  0  0  0  0  0  0
  145.8281  139.2211  151.8258 H   0  0  0  0  0  0  0  0  0  0  0  0
  148.3806  137.9405  152.4934 H   0  0  0  0  0  0  0  0  0  0  0  0
  147.1717  140.2982  153.7392 H   0  0  0  0  0  0  0  0  0  0  0  0
  147.3484  138.7351  154.5082 H   0  0  0  0  0  0  0  0  0  0  0  0
  149.3808  140.5795  152.4616 H   0  0  0  0  0  0  0  0  0  0  0  0
  148.6687  141.2755  155.7361 H   0  0  0  0  0  0  0  0  0  0  0  0
  148.7601  139.6418  156.3368 H   0  0  0  0  0  0  0  0  0  0  0  0
  151.1285  141.4330  155.6305 H   0  0  0  0  0  0  0  0  0  0  0  0
  150.6303  140.9472  157.2308 H   0  0  0  0  0  0  0  0  0  0  0  0
  152.5636  139.5861  156.4212 H   0  0  0  0  0  0  0  0  0  0  0  0
  151.1675  138.5859  156.7449 H   0  0  0  0  0  0  0  0  0  0  0  0
  152.0878  139.5659  153.9985 H   0  0  0  0  0  0  0  0  0  0  0  0
  152.1772  137.9274  154.5911 H   0  0  0  0  0  0  0  0  0  0  0  0
  149.7393  137.7395  154.6771 H   0  0  0  0  0  0  0  0  0  0  0  0
  150.2188  138.2293  153.0756 H   0  0  0  0  0  0  0  0  0  0  0  0
  146.9020  135.1519  151.7715 H   0  0  0  0  0  0  0  0  0  0  0  0
  148.1601  139.3977  151.7726 H   0  0  0  0  0  0  0  0  0  0  0  0
  1  2  1  0  0  0  0
  1 18  1  0  0  0  0
  1 19  1  0  0  0  0
  1 20  1  0  0  0  0
  2 17  2  0  0  0  0
  2  3  1  0  0  0  0
  3  4  2  0  0  0  0
  3 21  1  0  0  0  0
  4  5  1  0  0  0  0
  5  6  1  0  0  0  0
  5 17  1  0  0  0  0
  6  7  1  0  0  0  0
  6 22  1  0  0  0  0
  6 23  1  0  0  0  0
  7  8  1  0  0  0  0
  7 24  1  0  0  0  0
  7 25  1  0  0  0  0
  8  9  1  0  0  0  0
  8 26  1  0  0  0  0
  8 41  1  0  0  0  0
  9 10  1  0  0  0  0
  9 27  1  0  0  0  0
  9 28  1  0  0  0  0
 10 16  1  0  0  0  0
 10 11  1  0  0  0  0
 10 12  1  0  0  0  0
 11 29  1  0  0  0  0
 12 13  1  0  0  0  0
 12 30  1  0  0  0  0
 12 31  1  0  0  0  0
 13 14  1  0  0  0  0
 13 32  1  0  0  0  0
 13 33  1  0  0  0  0
 14 15  1  0  0  0  0
 14 34  1  0  0  0  0
 14 35  1  0  0  0  0
 15 16  1  0  0  0  0
 15 36  1  0  0  0  0
 15 37  1  0  0  0  0
 16 38  1  0  0  0  0
 16 39  1  0  0  0  0
 17 40  1  0  0  0  0
M  CHG  1   8   1
M  END
> <s_m_source_file>
AV-unprocessed.smi

> <i_m_source_file_index>
3152

> <i_lp_mmshare_version>
43012

> <i_f3d_flags>
0

> <s_epik_input>
W0NIM11jMVtjSF1ubihbY0hdMSlbQ0gyXVtDSDJdW05IXVtDSDJdQzIoW09IXSlbQ0gyXVtDSDJdW0NIMl1bQ0gyXVtDSDJdMg==

> <s_epik_cmdline>
J2VwaWtfcHl0aG9uJywgJy1waCcsICc3LjAnLCAnLXRuJywgJzgnLCAnLW1hJywgJzIwMCcsICctbWV0YWxfYmluZGluZycsICctaW1hZScsICc8aW5maWxlLm1hZT4nLCAnLW9tYWUnLCAnPG91dGZpbGUubWFlPic=

> <r_lp_tautomer_probability>
1

> <r_epik_Ionization_Penalty>
0.0240188

> <r_epik_Ionization_Penalty_Charging>
0.0240119

> <r_epik_Ionization_Penalty_Neutral>
6.9154e-06

> <r_epik_State_Penalty>
0.0194671

> <r_epik_Charging_Adjusted_Penalty>
0.043479

> <i_epik_Tot_Q>
1

> <i_epik_Tot_abs_Q>
1

> <r_epik_Metal_State_Penalty>
0.0195537

> <b_epik_Metal_Only>
0

> <s_lp_Force_Field>
OPLS_2005

> <r_lp_Energy>
14.7618

> <b_lp_Chiralities_Consistent>
1

> <s_lp_Variant>
AV-unprocessed.smi:3152-1

> <Gold.Version>
5.8.1

> <Gold.Id.Protein>
6NUR|6NUR_protein|mol2

> <Gold.PLP.Fitness>
51.1889

> <Gold.PLP.PLP>
-34.1457

> <Gold.PLP.part.hbond>
-4.5110

> <Gold.PLP.part.metal>
0.0000

> <Gold.PLP.part.buried>
-2.5541

> <Gold.PLP.part.nonpolar>
-27.6307

> <Gold.PLP.part.repulsive>
0.2292

> <Gold.PLP.ligand.clash>
0.0000

> <Gold.PLP.ligand.torsion>
0.4248

> <Gold.PLP.Chemscore.Hbond>
4.1840

> <Gold.PLP.Chemscore.CHOScore>
1.7777

> <Gold.PLP.Chemscore.Metal>
0.0000

> <Gold.Chemscore.Hbonds>
donor molecule, donor type, donor heavy atom, donor atom, acceptor molecule, acceptor atom, score
      L1  H     8    26       P1  7948  2.00
      L1  H     8    41       P1  7957  0.90
      L1  H    11    29       P1  7957  0.73
      P1  H  7989  7998       L1    11  0.29
      L1  C     3    21       P1 10186  0.22
      L1  C    17    40       P1  7948  1.00

> <Gold.PLP.Chemscore.Internal.Correction>
0.0075

> <Gold.Rescore>
     Score         DG    S(hbond)    S(metal)    S(lipo)     H(rot)  DE(clash)    DE(int)     intcor
     19.74     -20.21       3.30        0.00      79.12       2.17       0.03       0.44       ----

> <Gold.Chemscore.Fitness>
19.7364

> <Gold.Chemscore.DG>
-20.2091

> <Gold.Chemscore.ZeroCoef>
-5.4800

> <Gold.Chemscore.Hbond>
3.3005

> <Gold.Chemscore.Metal>
0.0000

> <Gold.Chemscore.Lipo>
79.1185

> <Gold.Chemscore.Internal_Hbond>
0.0000

> <Gold.Chemscore.DEClash>
0.0319

> <Gold.Chemscore.DEInternal>
0.4408

> <Gold.Chemscore.Rot>
2.1685

> <Gold.Chemscore.Internal.Correction>
   9.000000E+99

> <Gold.Chemscore.Hbonds>
donor molecule, donor type, donor heavy atom, donor atom, acceptor molecule, acceptor atom, score
      L1  H     8    26       P1  7948  0.96
      L1  H     8    41       P1  7957  0.88
      L1  H    11    29       P1  7957  0.69
      P1  H  7989  7998       L1    11  0.17

> <Gold.Chemscore.Hbond.Weighted>
-11.0237

> <Gold.Chemscore.Metal.Weighted>
-0.0000

> <Gold.Chemscore.Lipo.Weighted>
-9.2569

> <Gold.Chemscore.Internal_Hbond.Weighted>
0.0000

> <Gold.Chemscore.DEClash.Weighted>
0.0319

> <Gold.Chemscore.DEInternal.Weighted>
0.4408

> <Gold.Chemscore.Rot.Weighted>
5.5514

> <Gold.Chemscore.Internal.Correction.Weighted>
   9.000000E+99

> <Gold.Protein.RotatedTorsions>
[ 6907 6896 6895 6894 ] final   90.84 input  -60.11 | X-H torsion
[ 7974 7965 7964 7962 ] final   40.55 input  175.53 | X-H torsion
[ 8008 7997 7996 7995 ] final -149.58 input   59.86 | X-H torsion
[ 10167 10162 10161 10158 ] final -122.47 input  -65.29 | X-H torsion
[ 10718 10713 10712 10709 ] final   61.92 input   66.30 | X-H torsion
[ 10763 10752 10751 10750 ] final   94.83 input  -60.55 | X-H torsion
[ 11005 11000 10999 10996 ] final   87.45 input  -57.11 | X-H torsion

> <Gold.Protein.ActiveResidues>
 VAL166  LYS551  ARG553  GLY616  TRP617  ASP618  TYR619  PRO620  LYS621  CYS622 
 ASP623  PHE694  ASN695  SER759  ASP760  ASP761  ALA762  ILE779  LEU786  VAL792 
 PHE793  MET794  SER795  GLU796  ALA797  LYS798  CYS799  TRP800  GLU811  SER814 

> <Gold.Protein.RotatedAtoms>
  152.5447  134.1749  159.8611 H   0  0  0  0  0  0  0  0  0  0  0  0  # atno 6907 bound_to 6896
  151.1756  133.4749  159.2601 H   0  0  0  0  0  0  0  0  0  0  0  0  # atno 6908 bound_to 6896
  151.1230  135.0101  159.8602 H   0  0  0  0  0  0  0  0  0  0  0  0  # atno 6909 bound_to 6896
  146.0895  139.5519  142.9485 H   0  0  0  0  0  0  0  0  0  0  0  0  # atno 7974 bound_to 7965
  155.6099  140.0670  157.2709 H   0  0  0  0  0  0  0  0  0  0  0  0  # atno 8008 bound_to 7997
  154.4256  140.1803  156.1309 H   0  0  0  0  0  0  0  0  0  0  0  0  # atno 8009 bound_to 7997
  156.0093  140.3328  155.6928 H   0  0  0  0  0  0  0  0  0  0  0  0  # atno 8010 bound_to 7997
  140.0139  143.5413  152.2251 H   0  0  0  0  0  0  0  0  0  0  0  0  # atno 10167 bound_to 10162
  157.5863  130.9021  149.9522 H   0  0  0  0  0  0  0  0  0  0  0  0  # atno 10718 bound_to 10713
  153.2461  135.4276  155.0749 H   0  0  0  0  0  0  0  0  0  0  0  0  # atno 10763 bound_to 10752
  154.8362  135.3414  154.6579 H   0  0  0  0  0  0  0  0  0  0  0  0  # atno 10764 bound_to 10752
  153.7001  135.7029  153.5122 H   0  0  0  0  0  0  0  0  0  0  0  0  # atno 10765 bound_to 10752
  139.8919  134.8423  156.2862 H   0  0  0  0  0  0  0  0  0  0  0  0  # atno 11005 bound_to 11000
  145.6066  141.0346  143.1989 LP  0  0  0  0  0  0  0  0  0  0  0  0  # atno 17320 bound_to 7965
  144.7350  139.7613  143.7333 LP  0  0  0  0  0  0  0  0  0  0  0  0  # atno 17321 bound_to 7965
  139.6186  144.7624  151.2791 LP  0  0  0  0  0  0  0  0  0  0  0  0  # atno 17342 bound_to 10162
  140.7370  143.6691  150.8097 LP  0  0  0  0  0  0  0  0  0  0  0  0  # atno 17343 bound_to 10162
  156.0913  130.3663  150.0390 LP  0  0  0  0  0  0  0  0  0  0  0  0  # atno 17370 bound_to 10713
  156.8521  130.9462  151.3624 LP  0  0  0  0  0  0  0  0  0  0  0  0  # atno 17371 bound_to 10713
  141.0006  133.7154  156.0955 LP  0  0  0  0  0  0  0  0  0  0  0  0  # atno 17394 bound_to 11000
  140.7503  134.4053  157.5542 LP  0  0  0  0  0  0  0  0  0  0  0  0  # atno 17395 bound_to 11000

$$$$
