AV-unprocessed.smi:1993|AV-procd|sdf|8071|dock2
  -GOLD-   2272010283D 1   1.00000     0.00000
 Structure written by MMmdl.
 50 51  0  0  0  0  0  0  0  0  1 V2000
  152.9151  138.3162  160.4624 C   0  0  0  0  0  0  0  0  0  0  0  0
  153.0568  139.6184  159.6822 C   0  0  0  0  0  0  0  0  0  0  0  0
  153.8352  139.6873  158.7315 O   0  0  0  0  0  0  0  0  0  0  0  0
  152.2939  140.6437  160.0926 N   0  0  0  0  0  0  0  0  0  0  0  0
  152.2596  141.9738  159.4820 C   0  0  1  0  0  0  0  0  0  0  0  0
  151.0321  142.0488  158.5548 C   0  0  0  0  0  0  0  0  0  0  0  0
  150.7878  143.0785  157.9234 O   0  0  0  0  0  0  0  0  0  0  0  0
  150.2797  140.9412  158.4737 N   0  0  0  0  0  0  0  0  0  0  0  0
  149.1052  140.7885  157.6242 C   0  0  0  0  0  0  0  0  0  0  0  0
  149.3219  139.7838  156.5001 C   0  0  0  0  0  0  0  0  0  0  0  0
  150.1708  140.1164  155.4234 C   0  0  0  0  0  0  0  0  0  0  0  0
  150.3704  139.1804  154.3925 C   0  0  0  0  0  0  0  0  0  0  0  0
  149.7099  137.9413  154.4795 C   0  0  0  0  0  0  0  0  0  0  0  0
  148.8967  137.6076  155.5032 N   0  0  0  0  0  0  0  0  0  0  0  0
  148.7016  138.5079  156.4973 C   0  0  0  0  0  0  0  0  0  0  0  0
  147.8627  138.1283  157.5577 N   0  0  0  0  0  0  0  0  0  0  0  0
  146.6920  138.9833  157.6944 C   0  0  0  0  0  0  0  0  0  0  0  0
  145.7376  138.4002  158.7499 C   0  0  0  0  0  0  0  0  0  0  0  0
  146.4336  138.2294  159.9817 O   0  0  0  0  0  0  0  0  0  0  0  0
  147.5385  137.3382  159.8553 C   0  0  0  0  0  0  0  0  0  0  0  0
  148.5382  137.8986  158.8289 C   0  0  0  0  0  0  0  0  0  0  0  0
  152.1456  143.0424  160.6098 C   0  0  0  0  0  0  0  0  0  0  0  0
  152.4246  144.4766  160.1146 C   0  0  0  0  0  0  0  0  0  0  0  0
  153.0814  142.7302  161.7944 C   0  0  0  0  0  0  0  0  0  0  0  0
  152.8848  138.5084  161.5355 H   0  0  0  0  0  0  0  0  0  0  0  0
  153.7549  137.6508  160.2596 H   0  0  0  0  0  0  0  0  0  0  0  0
  151.9963  137.8039  160.1765 H   0  0  0  0  0  0  0  0  0  0  0  0
  151.6781  140.4912  160.8780 H   0  0  0  0  0  0  0  0  0  0  0  0
  153.1748  142.1451  158.9110 H   0  0  0  0  0  0  0  0  0  0  0  0
  150.5468  140.1431  159.0314 H   0  0  0  0  0  0  0  0  0  0  0  0
  148.2691  140.4633  158.2437 H   0  0  0  0  0  0  0  0  0  0  0  0
  148.8106  141.7550  157.2122 H   0  0  0  0  0  0  0  0  0  0  0  0
  150.6669  141.0752  155.3881 H   0  0  0  0  0  0  0  0  0  0  0  0
  151.0149  139.4066  153.5562 H   0  0  0  0  0  0  0  0  0  0  0  0
  149.8390  137.1970  153.7077 H   0  0  0  0  0  0  0  0  0  0  0  0
  147.0034  139.9876  157.9851 H   0  0  0  0  0  0  0  0  0  0  0  0
  146.1811  139.0688  156.7361 H   0  0  0  0  0  0  0  0  0  0  0  0
  144.8942  139.0725  158.9070 H   0  0  0  0  0  0  0  0  0  0  0  0
  145.3274  137.4456  158.4161 H   0  0  0  0  0  0  0  0  0  0  0  0
  148.0193  137.2266  160.8270 H   0  0  0  0  0  0  0  0  0  0  0  0
  147.1881  136.3489  159.5569 H   0  0  0  0  0  0  0  0  0  0  0  0
  149.3642  137.2007  158.6876 H   0  0  0  0  0  0  0  0  0  0  0  0
  148.9614  138.8331  159.1997 H   0  0  0  0  0  0  0  0  0  0  0  0
  151.1258  143.0288  160.9988 H   0  0  0  0  0  0  0  0  0  0  0  0
  153.4291  144.5594  159.6996 H   0  0  0  0  0  0  0  0  0  0  0  0
  152.3477  145.1938  160.9320 H   0  0  0  0  0  0  0  0  0  0  0  0
  151.7172  144.7964  159.3492 H   0  0  0  0  0  0  0  0  0  0  0  0
  154.1229  142.6900  161.4738 H   0  0  0  0  0  0  0  0  0  0  0  0
  152.8411  141.7770  162.2654 H   0  0  0  0  0  0  0  0  0  0  0  0
  153.0028  143.4939  162.5687 H   0  0  0  0  0  0  0  0  0  0  0  0
  1  2  1  0  0  0  0
  1 25  1  0  0  0  0
  1 26  1  0  0  0  0
  1 27  1  0  0  0  0
  2  3  2  0  0  0  0
  2  4  1  0  0  0  0
  4  5  1  0  0  0  0
  4 28  1  0  0  0  0
  5  6  1  0  0  0  0
  5 22  1  0  0  0  0
  5 29  1  0  0  0  0
  6  7  2  0  0  0  0
  6  8  1  0  0  0  0
  8  9  1  0  0  0  0
  8 30  1  0  0  0  0
  9 10  1  0  0  0  0
  9 31  1  0  0  0  0
  9 32  1  0  0  0  0
 10 15  1  0  0  0  0
 10 11  2  0  0  0  0
 11 12  1  0  0  0  0
 11 33  1  0  0  0  0
 12 13  2  0  0  0  0
 12 34  1  0  0  0  0
 13 14  1  0  0  0  0
 13 35  1  0  0  0  0
 14 15  2  0  0  0  0
 15 16  1  0  0  0  0
 16 21  1  0  0  0  0
 16 17  1  0  0  0  0
 17 18  1  0  0  0  0
 17 36  1  0  0  0  0
 17 37  1  0  0  0  0
 18 19  1  0  0  0  0
 18 38  1  0  0  0  0
 18 39  1  0  0  0  0
 19 20  1  0  0  0  0
 20 21  1  0  0  0  0
 20 40  1  0  0  0  0
 20 41  1  0  0  0  0
 21 42  1  0  0  0  0
 21 43  1  0  0  0  0
 22 23  1  0  0  0  0
 22 24  1  0  0  0  0
 22 44  1  0  0  0  0
 23 45  1  0  0  0  0
 23 46  1  0  0  0  0
 23 47  1  0  0  0  0
 24 48  1  0  0  0  0
 24 49  1  0  0  0  0
 24 50  1  0  0  0  0
M  END
> <s_m_source_file>
AV-unprocessed.smi

> <i_m_source_file_index>
1993

> <i_lp_mmshare_version>
43012

> <i_f3d_flags>
0

> <s_epik_input>
W0NIM11DKD1PKVtOSF1bQ0BASF0oW0NIXShbQ0gzXSlbQ0gzXSlDKD1PKVtOSF1bQ0gyXWMxW2NIXVtjSF1bY0hdbmMxTjJbQ0gyXVtDSDJdT1tDSDJdW0NIMl0y

> <s_epik_cmdline>
J2VwaWtfcHl0aG9uJywgJy1waCcsICc3LjAnLCAnLXRuJywgJzgnLCAnLW1hJywgJzIwMCcsICctbWV0YWxfYmluZGluZycsICctaW1hZScsICc8aW5maWxlLm1hZT4nLCAnLW9tYWUnLCAnPG91dGZpbGUubWFlPic=

> <r_lp_tautomer_probability>
1

> <r_epik_Ionization_Penalty>
0.00485175

> <r_epik_Ionization_Penalty_Charging>
0

> <r_epik_Ionization_Penalty_Neutral>
0.00485175

> <r_epik_State_Penalty>
0.00351951

> <r_epik_Charging_Adjusted_Penalty>
0.00351951

> <i_epik_Tot_Q>
0

> <i_epik_Tot_abs_Q>
0

> <r_epik_Metal_State_Penalty>
-0

> <b_epik_Metal_Only>
0

> <s_lp_Force_Field>
OPLS_2005

> <r_lp_Energy>
18.9648

> <b_lp_Chiralities_Consistent>
1

> <s_lp_Variant>
AV-unprocessed.smi:1993-2

> <Gold.Version>
5.8.1

> <Gold.Id.Protein>
6NUR|6NUR_protein|mol2

> <Gold.PLP.Fitness>
42.7425

> <Gold.PLP.PLP>
-35.0867

> <Gold.PLP.part.hbond>
-2.0000

> <Gold.PLP.part.metal>
0.0000

> <Gold.PLP.part.buried>
-5.4269

> <Gold.PLP.part.nonpolar>
-28.4108

> <Gold.PLP.part.repulsive>
0.4847

> <Gold.PLP.ligand.clash>
0.0000

> <Gold.PLP.ligand.torsion>
0.7825

> <Gold.PLP.Chemscore.Hbond>
1.9920

> <Gold.PLP.Chemscore.CHOScore>
1.0025

> <Gold.PLP.Chemscore.Metal>
0.0000

> <Gold.Chemscore.Hbonds>
donor molecule, donor type, donor heavy atom, donor atom, acceptor molecule, acceptor atom, score
      P1  H  6934  6947       L1    19  0.36
      P1  H  7997  8009       L1     3  0.94
      L1  C    13    35       P1  7948  1.00

> <Gold.PLP.Chemscore.Internal.Correction>
0.2374

> <Gold.Rescore>
     Score         DG    S(hbond)    S(metal)    S(lipo)     H(rot)  DE(clash)    DE(int)     intcor
     15.24     -16.82       1.85        0.00      91.84       2.18       0.10       1.48       ----

> <Gold.Chemscore.Fitness>
15.2399

> <Gold.Chemscore.DG>
-16.8225

> <Gold.Chemscore.ZeroCoef>
-5.4800

> <Gold.Chemscore.Hbond>
1.8508

> <Gold.Chemscore.Metal>
0.0000

> <Gold.Chemscore.Lipo>
91.8375

> <Gold.Chemscore.Internal_Hbond>
0.0000

> <Gold.Chemscore.DEClash>
0.1020

> <Gold.Chemscore.DEInternal>
1.4805

> <Gold.Chemscore.Rot>
2.1813

> <Gold.Chemscore.Internal.Correction>
   9.000000E+99

> <Gold.Chemscore.Hbonds>
donor molecule, donor type, donor heavy atom, donor atom, acceptor molecule, acceptor atom, score
      P1  H  6934  6947       L1    19  0.02
      P1  H  7997  8009       L1     3  0.91

> <Gold.Chemscore.Hbond.Weighted>
-6.1817

> <Gold.Chemscore.Metal.Weighted>
-0.0000

> <Gold.Chemscore.Lipo.Weighted>
-10.7450

> <Gold.Chemscore.Internal_Hbond.Weighted>
0.0000

> <Gold.Chemscore.DEClash.Weighted>
0.1020

> <Gold.Chemscore.DEInternal.Weighted>
1.4805

> <Gold.Chemscore.Rot.Weighted>
5.5842

> <Gold.Chemscore.Internal.Correction.Weighted>
   9.000000E+99

> <Gold.Protein.RotatedTorsions>
[ 6907 6896 6895 6894 ] final  110.62 input  -60.11 | X-H torsion
[ 7974 7965 7964 7962 ] final  -75.51 input  175.53 | X-H torsion
[ 8008 7997 7996 7995 ] final  119.89 input   59.86 | X-H torsion
[ 10167 10162 10161 10158 ] final  -42.55 input  -65.29 | X-H torsion
[ 10718 10713 10712 10709 ] final   32.53 input   66.30 | X-H torsion
[ 10763 10752 10751 10750 ] final  169.54 input  -60.55 | X-H torsion
[ 11005 11000 10999 10996 ] final  174.45 input  -57.11 | X-H torsion

> <Gold.Protein.ActiveResidues>
 VAL166  LYS551  ARG553  GLY616  TRP617  ASP618  TYR619  PRO620  LYS621  CYS622 
 ASP623  PHE694  ASN695  SER759  ASP760  ASP761  ALA762  ILE779  LEU786  VAL792 
 PHE793  MET794  SER795  GLU796  ALA797  LYS798  CYS799  TRP800  GLU811  SER814 

> <Gold.Protein.RotatedAtoms>
  152.5010  133.8774  159.7328 H   0  0  0  0  0  0  0  0  0  0  0  0  # atno 6907 bound_to 6896
  150.9245  133.6831  159.2831 H   0  0  0  0  0  0  0  0  0  0  0  0  # atno 6908 bound_to 6896
  151.4197  135.1000  159.9662 H   0  0  0  0  0  0  0  0  0  0  0  0  # atno 6909 bound_to 6896
  145.6250  140.9353  143.1117 H   0  0  0  0  0  0  0  0  0  0  0  0  # atno 7974 bound_to 7965
  156.2617  140.2843  156.1063 H   0  0  0  0  0  0  0  0  0  0  0  0  # atno 8008 bound_to 7997
  155.1305  140.0393  157.2791 H   0  0  0  0  0  0  0  0  0  0  0  0  # atno 8009 bound_to 7997
  154.6603  140.2565  155.7123 H   0  0  0  0  0  0  0  0  0  0  0  0  # atno 8010 bound_to 7997
  140.6965  143.3031  151.3225 H   0  0  0  0  0  0  0  0  0  0  0  0  # atno 10167 bound_to 10162
  157.2864  130.7280  149.6585 H   0  0  0  0  0  0  0  0  0  0  0  0  # atno 10718 bound_to 10713
  154.3846  135.2753  155.2191 H   0  0  0  0  0  0  0  0  0  0  0  0  # atno 10763 bound_to 10752
  154.4283  135.5983  153.6056 H   0  0  0  0  0  0  0  0  0  0  0  0  # atno 10764 bound_to 10752
  152.9833  135.5989  154.4093 H   0  0  0  0  0  0  0  0  0  0  0  0  # atno 10765 bound_to 10752
  140.3514  134.7191  157.4270 H   0  0  0  0  0  0  0  0  0  0  0  0  # atno 11005 bound_to 11000
  144.7216  139.8012  143.7380 LP  0  0  0  0  0  0  0  0  0  0  0  0  # atno 17320 bound_to 7965
  146.1401  139.4456  143.0114 LP  0  0  0  0  0  0  0  0  0  0  0  0  # atno 17321 bound_to 7965
  139.6427  144.0509  152.2567 LP  0  0  0  0  0  0  0  0  0  0  0  0  # atno 17342 bound_to 10162
  140.0019  144.6287  150.7722 LP  0  0  0  0  0  0  0  0  0  0  0  0  # atno 17343 bound_to 10162
  155.9665  130.4322  150.4954 LP  0  0  0  0  0  0  0  0  0  0  0  0  # atno 17370 bound_to 10713
  157.2908  131.0626  151.2135 LP  0  0  0  0  0  0  0  0  0  0  0  0  # atno 17371 bound_to 10713
  140.0700  134.5876  155.8653 LP  0  0  0  0  0  0  0  0  0  0  0  0  # atno 17394 bound_to 11000
  141.2011  133.6616  156.5931 LP  0  0  0  0  0  0  0  0  0  0  0  0  # atno 17395 bound_to 11000

$$$$
