AV-unprocessed.smi:2451|AV-procd|sdf|9682|dock1
  -GOLD-   2272013323D 1   1.00000     0.00000
 Structure written by MMmdl.
 37 38  0  0  0  0  0  0  0  0  2 V2000
  151.9043  145.3177  160.4003 C   0  0  0  0  0  0  0  0  0  0  0  0
  152.4761  143.9743  159.9074 C   0  0  1  0  0  0  0  0  0  0  0  0
  152.5567  142.9988  161.1078 C   0  0  0  0  0  0  0  0  0  0  0  0
  153.1180  141.6399  160.6550 C   0  0  0  0  0  0  0  0  0  0  0  0
  152.2951  141.0334  159.4989 C   0  0  0  0  0  0  0  0  0  0  0  0
  152.1949  141.9636  158.2673 C   0  0  1  0  0  0  0  0  0  0  0  0
  151.2970  141.3607  157.2909 N   0  5  0  0  0  0  0  0  0  0  0  0
  151.7474  140.0065  156.5225 S   0  0  0  0  0  0  0  0  0  0  0  0
  151.6449  140.1259  155.0587 O   0  0  0  0  0  0  0  0  0  0  0  0
  152.9961  139.4409  157.0599 O   0  0  0  0  0  0  0  0  0  0  0  0
  150.3988  138.8600  157.0392 C   0  0  0  0  0  0  0  0  0  0  0  0
  150.6450  137.4830  156.4881 C   0  0  0  0  0  0  0  0  0  0  0  0
  149.8829  136.7624  155.5265 C   0  0  0  0  0  0  0  0  0  0  0  0
  150.5608  135.5847  155.3982 C   0  0  0  0  0  0  0  0  0  0  0  0
  151.6548  135.5761  156.2004 O   0  0  0  0  0  0  0  0  0  0  0  0
  151.7018  136.7931  156.8902 N   0  0  0  0  0  0  0  0  0  0  0  0
  151.6788  143.3801  158.6913 C   0  0  2  0  0  0  0  0  0  0  0  0
  151.6708  144.3665  157.4928 C   0  0  0  0  0  0  0  0  0  0  0  0
  150.8453  145.2316  160.6460 H   0  0  0  0  0  0  0  0  0  0  0  0
  152.0172  146.1072  159.6585 H   0  0  0  0  0  0  0  0  0  0  0  0
  152.4236  145.6587  161.2963 H   0  0  0  0  0  0  0  0  0  0  0  0
  153.5005  144.1712  159.5835 H   0  0  0  0  0  0  0  0  0  0  0  0
  153.1864  143.4127  161.8961 H   0  0  0  0  0  0  0  0  0  0  0  0
  151.5650  142.8588  161.5401 H   0  0  0  0  0  0  0  0  0  0  0  0
  154.1635  141.7523  160.3605 H   0  0  0  0  0  0  0  0  0  0  0  0
  153.1188  140.9497  161.4992 H   0  0  0  0  0  0  0  0  0  0  0  0
  152.7363  140.0799  159.2054 H   0  0  0  0  0  0  0  0  0  0  0  0
  151.2938  140.8038  159.8675 H   0  0  0  0  0  0  0  0  0  0  0  0
  153.2018  142.0894  157.8662 H   0  0  0  0  0  0  0  0  0  0  0  0
  150.3611  138.8451  158.1280 H   0  0  0  0  0  0  0  0  0  0  0  0
  149.4535  139.2683  156.6803 H   0  0  0  0  0  0  0  0  0  0  0  0
  148.9777  137.0618  155.0191 H   0  0  0  0  0  0  0  0  0  0  0  0
  150.4009  134.6974  154.8037 H   0  0  0  0  0  0  0  0  0  0  0  0
  150.6443  143.2622  159.0185 H   0  0  0  0  0  0  0  0  0  0  0  0
  152.6804  144.5983  157.1484 H   0  0  0  0  0  0  0  0  0  0  0  0
  151.1936  145.3093  157.7551 H   0  0  0  0  0  0  0  0  0  0  0  0
  151.1090  143.9907  156.6354 H   0  0  0  0  0  0  0  0  0  0  0  0
  1  2  1  0  0  0  0
  1 19  1  0  0  0  0
  1 20  1  0  0  0  0
  1 21  1  0  0  0  0
  2 17  1  0  0  0  0
  2  3  1  0  0  0  0
  2 22  1  0  0  0  0
  3  4  1  0  0  0  0
  3 23  1  0  0  0  0
  3 24  1  0  0  0  0
  4  5  1  0  0  0  0
  4 25  1  0  0  0  0
  4 26  1  0  0  0  0
  5  6  1  0  0  0  0
  5 27  1  0  0  0  0
  5 28  1  0  0  0  0
  6  7  1  0  0  0  0
  6 17  1  0  0  0  0
  6 29  1  0  0  0  0
  7  8  1  0  0  0  0
  8  9  2  0  0  0  0
  8 10  2  0  0  0  0
  8 11  1  0  0  0  0
 11 12  1  0  0  0  0
 11 30  1  0  0  0  0
 11 31  1  0  0  0  0
 12 16  2  0  0  0  0
 12 13  1  0  0  0  0
 13 14  2  0  0  0  0
 13 32  1  0  0  0  0
 14 15  1  0  0  0  0
 14 33  1  0  0  0  0
 15 16  1  0  0  0  0
 17 18  1  0  0  0  0
 17 34  1  0  0  0  0
 18 35  1  0  0  0  0
 18 36  1  0  0  0  0
 18 37  1  0  0  0  0
M  CHG  1   7  -1
M  END
> <s_m_source_file>
AV-unprocessed.smi

> <i_m_source_file_index>
2451

> <i_lp_mmshare_version>
43012

> <i_f3d_flags>
0

> <s_epik_input>
W0NIM11bQ0BASF0xW0NIMl1bQ0gyXVtDSDJdW0NASF0oW0NASF0xW0NIM10pW05IXVMoPU8pKD1PKVtDSDJdYzJbY0hdW2NIXW9uMg==

> <s_epik_cmdline>
J2VwaWtfcHl0aG9uJywgJy1waCcsICc3LjAnLCAnLXRuJywgJzgnLCAnLW1hJywgJzIwMCcsICctbWV0YWxfYmluZGluZycsICctaW1hZScsICc8aW5maWxlLm1hZT4nLCAnLW9tYWUnLCAnPG91dGZpbGUubWFlPic=

> <r_lp_tautomer_probability>
1

> <r_epik_Ionization_Penalty>
5.22693

> <r_epik_Ionization_Penalty_Charging>
5.22693

> <r_epik_Ionization_Penalty_Neutral>
2.67702e-10

> <r_epik_State_Penalty>
5.22685

> <r_epik_Charging_Adjusted_Penalty>
10.4538

> <i_epik_Tot_Q>
-1

> <i_epik_Tot_abs_Q>
1

> <r_epik_Metal_State_Penalty>
1.28716

> <b_epik_Metal_Only>
1

> <s_lp_Force_Field>
OPLS_2005

> <r_lp_Energy>
12.2025

> <b_lp_Chiralities_Consistent>
1

> <s_lp_Variant>
AV-unprocessed.smi:2451-14

> <Gold.Version>
5.8.1

> <Gold.Id.Protein>
6NUR|6NUR_protein|mol2

> <Gold.PLP.Fitness>
45.1679

> <Gold.PLP.PLP>
-36.4585

> <Gold.PLP.part.hbond>
-3.0000

> <Gold.PLP.part.metal>
0.0000

> <Gold.PLP.part.buried>
-5.8270

> <Gold.PLP.part.nonpolar>
-27.4920

> <Gold.PLP.part.repulsive>
0.0783

> <Gold.PLP.ligand.clash>
0.0000

> <Gold.PLP.ligand.torsion>
0.6526

> <Gold.PLP.Chemscore.Hbond>
2.9920

> <Gold.PLP.Chemscore.CHOScore>
0.0000

> <Gold.PLP.Chemscore.Metal>
0.0000

> <Gold.Chemscore.Hbonds>
donor molecule, donor type, donor heavy atom, donor atom, acceptor molecule, acceptor atom, score
      P1  H  7989  7998       L1     9  0.99
      P1  H  7997  8009       L1    10  1.00
      P1  H 10752 10763       L1    15  1.00

> <Gold.PLP.Chemscore.Internal.Correction>
1.0387

> <Gold.Rescore>
     Score         DG    S(hbond)    S(metal)    S(lipo)     H(rot)  DE(clash)    DE(int)     intcor
     20.23     -23.06       2.79        0.00     101.17       1.40       0.05       2.77       ----

> <Gold.Chemscore.Fitness>
20.2302

> <Gold.Chemscore.DG>
-23.0556

> <Gold.Chemscore.ZeroCoef>
-5.4800

> <Gold.Chemscore.Hbond>
2.7903

> <Gold.Chemscore.Metal>
0.0000

> <Gold.Chemscore.Lipo>
101.1665

> <Gold.Chemscore.Internal_Hbond>
0.0000

> <Gold.Chemscore.DEClash>
0.0544

> <Gold.Chemscore.DEInternal>
2.7710

> <Gold.Chemscore.Rot>
1.3986

> <Gold.Chemscore.Internal.Correction>
   9.000000E+99

> <Gold.Chemscore.Hbonds>
donor molecule, donor type, donor heavy atom, donor atom, acceptor molecule, acceptor atom, score
      P1  H  7989  7998       L1     9  0.93
      P1  H  7997  8009       L1    10  0.82
      P1  H 10752 10763       L1    15  0.46

> <Gold.Chemscore.Hbond.Weighted>
-9.3195

> <Gold.Chemscore.Metal.Weighted>
-0.0000

> <Gold.Chemscore.Lipo.Weighted>
-11.8365

> <Gold.Chemscore.Internal_Hbond.Weighted>
0.0000

> <Gold.Chemscore.DEClash.Weighted>
0.0544

> <Gold.Chemscore.DEInternal.Weighted>
2.7710

> <Gold.Chemscore.Rot.Weighted>
3.5804

> <Gold.Chemscore.Internal.Correction.Weighted>
   9.000000E+99

> <Gold.Protein.RotatedTorsions>
[ 6907 6896 6895 6894 ] final   12.73 input  -60.11 | X-H torsion
[ 7974 7965 7964 7962 ] final  -67.25 input  175.53 | X-H torsion
[ 8008 7997 7996 7995 ] final -164.29 input   59.86 | X-H torsion
[ 10167 10162 10161 10158 ] final  136.73 input  -65.29 | X-H torsion
[ 10718 10713 10712 10709 ] final  106.96 input   66.30 | X-H torsion
[ 10763 10752 10751 10750 ] final   94.41 input  -60.55 | X-H torsion
[ 11005 11000 10999 10996 ] final -168.26 input  -57.11 | X-H torsion

> <Gold.Protein.ActiveResidues>
 VAL166  LYS551  ARG553  GLY616  TRP617  ASP618  TYR619  PRO620  LYS621  CYS622 
 ASP623  PHE694  ASN695  SER759  ASP760  ASP761  ALA762  ILE779  LEU786  VAL792 
 PHE793  MET794  SER795  GLU796  ALA797  LYS798  CYS799  TRP800  GLU811  SER814 

> <Gold.Protein.RotatedAtoms>
  151.7750  135.0776  160.0365 H   0  0  0  0  0  0  0  0  0  0  0  0  # atno 6907 bound_to 6896
  152.3262  133.5904  159.5787 H   0  0  0  0  0  0  0  0  0  0  0  0  # atno 6908 bound_to 6896
  150.7397  133.9852  159.3631 H   0  0  0  0  0  0  0  0  0  0  0  0  # atno 6909 bound_to 6896
  145.7315  140.8994  143.0577 H   0  0  0  0  0  0  0  0  0  0  0  0  # atno 7974 bound_to 7965
  155.8334  140.0937  157.1778 H   0  0  0  0  0  0  0  0  0  0  0  0  # atno 8008 bound_to 7997
  154.3980  140.1414  156.3702 H   0  0  0  0  0  0  0  0  0  0  0  0  # atno 8009 bound_to 7997
  155.8141  140.3448  155.5478 H   0  0  0  0  0  0  0  0  0  0  0  0  # atno 8010 bound_to 7997
  139.5169  144.6448  151.5469 H   0  0  0  0  0  0  0  0  0  0  0  0  # atno 10167 bound_to 10162
  157.6647  131.0862  150.6085 H   0  0  0  0  0  0  0  0  0  0  0  0  # atno 10718 bound_to 10713
  153.2414  135.4290  155.0701 H   0  0  0  0  0  0  0  0  0  0  0  0  # atno 10763 bound_to 10752
  154.8342  135.3403  154.6644 H   0  0  0  0  0  0  0  0  0  0  0  0  # atno 10764 bound_to 10752
  153.7068  135.7025  153.5104 H   0  0  0  0  0  0  0  0  0  0  0  0  # atno 10765 bound_to 10752
  140.5440  134.5494  157.5106 H   0  0  0  0  0  0  0  0  0  0  0  0  # atno 11005 bound_to 11000
  144.6892  139.9338  143.7472 LP  0  0  0  0  0  0  0  0  0  0  0  0  # atno 17320 bound_to 7965
  146.0533  139.3532  143.0626 LP  0  0  0  0  0  0  0  0  0  0  0  0  # atno 17321 bound_to 7965
  140.6229  143.9224  150.6541 LP  0  0  0  0  0  0  0  0  0  0  0  0  # atno 17342 bound_to 10162
  140.2503  143.3598  152.1411 LP  0  0  0  0  0  0  0  0  0  0  0  0  # atno 17343 bound_to 10162
  156.6386  130.4452  149.5760 LP  0  0  0  0  0  0  0  0  0  0  0  0  # atno 17370 bound_to 10713
  156.2226  130.6746  151.1384 LP  0  0  0  0  0  0  0  0  0  0  0  0  # atno 17371 bound_to 10713
  139.9489  134.7652  156.0495 LP  0  0  0  0  0  0  0  0  0  0  0  0  # atno 17394 bound_to 11000
  141.1211  133.6613  156.3216 LP  0  0  0  0  0  0  0  0  0  0  0  0  # atno 17395 bound_to 11000

$$$$
