AV-unprocessed.smi:102|AV-procd|sdf|969|dock2
  -GOLD-   2262017513D 1   1.00000     0.00000
 Structure written by MMmdl.
 43 44  0  0  0  0  0  0  0  0  2 V2000
  148.9105  130.6880  156.8021 C   0  0  0  0  0  0  0  0  0  0  0  0
  149.1519  131.9050  157.6851 C   0  0  0  0  0  0  0  0  0  0  0  0
  150.2660  132.4206  157.7795 O   0  0  0  0  0  0  0  0  0  0  0  0
  148.0390  132.3095  158.3151 O   0  0  0  0  0  0  0  0  0  0  0  0
  148.0995  133.4143  159.2017 C   0  0  0  0  0  0  0  0  0  0  0  0
  147.9610  134.7218  158.4066 C   0  0  2  0  0  0  0  0  0  0  0  0
  149.2151  135.0979  157.8399 O   0  0  0  0  0  0  0  0  0  0  0  0
  149.6742  136.2815  158.4188 C   0  0  1  0  0  0  0  0  0  0  0  0
  150.6596  136.9655  157.4812 N   0  0  0  0  0  0  0  0  0  0  0  0
  150.5035  138.2930  157.1090 C   0  0  0  0  0  0  0  0  0  0  0  0
  151.3943  138.9128  156.3088 C   0  0  0  0  0  0  0  0  0  0  0  0
  151.2075  140.2001  155.9701 F   0  0  0  0  0  0  0  0  0  0  0  0
  152.5678  138.1844  155.8353 C   0  0  0  0  0  0  0  0  0  0  0  0
  153.3549  138.7390  155.0698 O   0  0  0  0  0  0  0  0  0  0  0  0
  152.7436  136.9076  156.2804 N   0  5  0  0  0  0  0  0  0  0  0  0
  151.8556  136.2851  157.1106 C   0  0  0  0  0  0  0  0  0  0  0  0
  152.0518  135.1582  157.5652 O   0  0  0  0  0  0  0  0  0  0  0  0
  148.3793  137.0582  158.7103 C   0  0  1  0  0  0  0  0  0  0  0  0
  147.8111  137.6089  157.5239 O   0  0  0  0  0  0  0  0  0  0  0  0
  146.8501  138.5448  157.6019 C   0  0  0  0  0  0  0  0  0  0  0  0
  146.3645  138.9904  156.2293 C   0  0  0  0  0  0  0  0  0  0  0  0
  146.3832  139.0210  158.6365 O   0  0  0  0  0  0  0  0  0  0  0  0
  147.4878  135.9370  159.2250 C   0  0  2  0  0  0  0  0  0  0  0  0
  147.6963  135.7633  160.6243 O   0  0  0  0  0  0  0  0  0  0  0  0
  147.0613  136.5486  161.5119 C   0  0  0  0  0  0  0  0  0  0  0  0
  147.4852  136.2615  162.9460 C   0  0  0  0  0  0  0  0  0  0  0  0
  146.2294  137.4168  161.2490 O   0  0  0  0  0  0  0  0  0  0  0  0
  148.0207  130.8323  156.1892 H   0  0  0  0  0  0  0  0  0  0  0  0
  148.7685  129.7988  157.4165 H   0  0  0  0  0  0  0  0  0  0  0  0
  149.7612  130.5194  156.1413 H   0  0  0  0  0  0  0  0  0  0  0  0
  147.2813  133.3284  159.9182 H   0  0  0  0  0  0  0  0  0  0  0  0
  149.0341  133.4059  159.7646 H   0  0  0  0  0  0  0  0  0  0  0  0
  147.2646  134.5724  157.5804 H   0  0  0  0  0  0  0  0  0  0  0  0
  150.2475  136.0649  159.3220 H   0  0  0  0  0  0  0  0  0  0  0  0
  149.6682  138.8702  157.4728 H   0  0  0  0  0  0  0  0  0  0  0  0
  148.5734  137.8334  159.4535 H   0  0  0  0  0  0  0  0  0  0  0  0
  147.1948  139.3890  155.6458 H   0  0  0  0  0  0  0  0  0  0  0  0
  145.6052  139.7668  156.3242 H   0  0  0  0  0  0  0  0  0  0  0  0
  145.9326  138.1483  155.6884 H   0  0  0  0  0  0  0  0  0  0  0  0
  146.4315  136.1319  159.0319 H   0  0  0  0  0  0  0  0  0  0  0  0
  147.4243  135.1932  163.1539 H   0  0  0  0  0  0  0  0  0  0  0  0
  146.8396  136.7880  163.6491 H   0  0  0  0  0  0  0  0  0  0  0  0
  148.5125  136.5886  163.1079 H   0  0  0  0  0  0  0  0  0  0  0  0
  1  2  1  0  0  0  0
  1 28  1  0  0  0  0
  1 29  1  0  0  0  0
  1 30  1  0  0  0  0
  2  3  2  0  0  0  0
  2  4  1  0  0  0  0
  4  5  1  0  0  0  0
  5  6  1  0  0  0  0
  5 31  1  0  0  0  0
  5 32  1  0  0  0  0
  6 23  1  0  0  0  0
  6  7  1  0  0  0  0
  6 33  1  0  0  0  0
  7  8  1  0  0  0  0
  8  9  1  0  0  0  0
  8 18  1  0  0  0  0
  8 34  1  0  0  0  0
  9 16  1  0  0  0  0
  9 10  1  0  0  0  0
 10 11  2  0  0  0  0
 10 35  1  0  0  0  0
 11 12  1  0  0  0  0
 11 13  1  0  0  0  0
 13 14  2  0  0  0  0
 13 15  1  0  0  0  0
 15 16  1  0  0  0  0
 16 17  2  0  0  0  0
 18 19  1  0  0  0  0
 18 23  1  0  0  0  0
 18 36  1  0  0  0  0
 19 20  1  0  0  0  0
 20 21  1  0  0  0  0
 20 22  2  0  0  0  0
 21 37  1  0  0  0  0
 21 38  1  0  0  0  0
 21 39  1  0  0  0  0
 23 24  1  0  0  0  0
 23 40  1  0  0  0  0
 24 25  1  0  0  0  0
 25 26  1  0  0  0  0
 25 27  2  0  0  0  0
 26 41  1  0  0  0  0
 26 42  1  0  0  0  0
 26 43  1  0  0  0  0
M  CHG  1  15  -1
M  END
> <s_m_source_file>
AV-unprocessed.smi

> <i_m_source_file_index>
102

> <i_lp_mmshare_version>
43012

> <i_f3d_flags>
0

> <s_epik_input>
W0NIM11DKD1PKU9bQ0gyXVtDQEBIXTFPW0NASF0oW0NAQEhdKE9DKD1PKVtDSDNdKVtDQEhdMU9DKD1PKVtDSDNdKW4yW2NIXWMoRiljKD1PKVtuSF1jMj1P

> <s_epik_cmdline>
J2VwaWtfcHl0aG9uJywgJy1waCcsICc3LjAnLCAnLXRuJywgJzgnLCAnLW1hJywgJzIwMCcsICctbWV0YWxfYmluZGluZycsICctaW1hZScsICc8aW5maWxlLm1hZT4nLCAnLW9tYWUnLCAnPG91dGZpbGUubWFlPic=

> <r_epik_Ionization_Penalty>
1.40304

> <r_epik_Ionization_Penalty_Charging>
1.43915e-08

> <r_epik_Ionization_Penalty_Neutral>
1.40304

> <r_epik_State_Penalty>
1.48536

> <r_epik_Charging_Adjusted_Penalty>
1.48536

> <i_epik_Tot_Q>
-1

> <i_epik_Tot_abs_Q>
1

> <r_epik_Metal_State_Penalty>
0.00663881

> <b_epik_Metal_Only>
0

> <s_epik_Chemistry_Notes>
This compound has an ester and may undergo hydrolysis at high or low pH. This compound contains an acetal/aminal-like group ( X-CH(R)-Y where X, Y are N, S, or O) that may be acid/base labile, releasing an aldehyde.

> <s_lp_Force_Field>
OPLS_2005

> <r_lp_Energy>
30.6684

> <b_lp_Chiralities_Consistent>
1

> <s_lp_Variant>
AV-unprocessed.smi:102-25

> <Gold.Version>
5.8.1

> <Gold.Id.Protein>
6NUR|6NUR_protein|mol2

> <Gold.PLP.Fitness>
40.8465

> <Gold.PLP.PLP>
-28.3625

> <Gold.PLP.part.hbond>
-6.7123

> <Gold.PLP.part.metal>
0.0000

> <Gold.PLP.part.buried>
-4.7413

> <Gold.PLP.part.nonpolar>
-18.8091

> <Gold.PLP.part.repulsive>
0.0000

> <Gold.PLP.ligand.clash>
0.0000

> <Gold.PLP.ligand.torsion>
0.8113

> <Gold.PLP.Chemscore.Hbond>
4.6240

> <Gold.PLP.Chemscore.CHOScore>
0.0000

> <Gold.PLP.Chemscore.Metal>
0.0000

> <Gold.Chemscore.Hbonds>
donor molecule, donor type, donor heavy atom, donor atom, acceptor molecule, acceptor atom, score
      P1  H  6896  6907       L1     3  1.00
      P1  H  6934  6947       L1    27  1.00
      P1  H  7997  8009       L1    14  1.00
      P1  H 10752 10764       L1    15  1.70

> <Gold.PLP.Chemscore.Internal.Correction>
0.2346

> <Gold.Rescore>
     Score         DG    S(hbond)    S(metal)    S(lipo)     H(rot)  DE(clash)    DE(int)     intcor
      5.61      -9.41       3.08        0.00      33.02       4.00       0.24       3.56       ----

> <Gold.Chemscore.Fitness>
5.6057

> <Gold.Chemscore.DG>
-9.4054

> <Gold.Chemscore.ZeroCoef>
-5.4800

> <Gold.Chemscore.Hbond>
3.0808

> <Gold.Chemscore.Metal>
0.0000

> <Gold.Chemscore.Lipo>
33.0162

> <Gold.Chemscore.Internal_Hbond>
0.0000

> <Gold.Chemscore.DEClash>
0.2446

> <Gold.Chemscore.DEInternal>
3.5551

> <Gold.Chemscore.Rot>
3.9951

> <Gold.Chemscore.Internal.Correction>
   9.000000E+99

> <Gold.Chemscore.Hbonds>
donor molecule, donor type, donor heavy atom, donor atom, acceptor molecule, acceptor atom, score
      P1  H  6896  6907       L1     3  0.93
      P1  H  6934  6947       L1    27  0.65
      P1  H  7997  8009       L1    14  0.87
      P1  H 10752 10764       L1    15  0.25

> <Gold.Chemscore.Hbond.Weighted>
-10.2899

> <Gold.Chemscore.Metal.Weighted>
-0.0000

> <Gold.Chemscore.Lipo.Weighted>
-3.8629

> <Gold.Chemscore.Internal_Hbond.Weighted>
0.0000

> <Gold.Chemscore.DEClash.Weighted>
0.2446

> <Gold.Chemscore.DEInternal.Weighted>
3.5551

> <Gold.Chemscore.Rot.Weighted>
10.2274

> <Gold.Chemscore.Internal.Correction.Weighted>
   9.000000E+99

> <Gold.Protein.RotatedTorsions>
[ 6907 6896 6895 6894 ] final -161.71 input  -60.11 | X-H torsion
[ 7974 7965 7964 7962 ] final  -20.37 input  175.53 | X-H torsion
[ 8008 7997 7996 7995 ] final -129.60 input   59.86 | X-H torsion
[ 10167 10162 10161 10158 ] final   -6.81 input  -65.29 | X-H torsion
[ 10718 10713 10712 10709 ] final   18.12 input   66.30 | X-H torsion
[ 10763 10752 10751 10750 ] final  -12.86 input  -60.55 | X-H torsion
[ 11005 11000 10999 10996 ] final  -92.64 input  -57.11 | X-H torsion

> <Gold.Protein.ActiveResidues>
 VAL166  LYS551  ARG553  GLY616  TRP617  ASP618  TYR619  PRO620  LYS621  CYS622 
 ASP623  PHE694  ASN695  SER759  ASP760  ASP761  ALA762  ILE779  LEU786  VAL792 
 PHE793  MET794  SER795  GLU796  ALA797  LYS798  CYS799  TRP800  GLU811  SER814 

> <Gold.Protein.RotatedAtoms>
  151.3689  133.3862  159.2697 H   0  0  0  0  0  0  0  0  0  0  0  0  # atno 6907 bound_to 6896
  150.9666  134.9047  159.7773 H   0  0  0  0  0  0  0  0  0  0  0  0  # atno 6908 bound_to 6896
  152.5169  134.3650  159.9350 H   0  0  0  0  0  0  0  0  0  0  0  0  # atno 6909 bound_to 6896
  146.1792  140.4192  142.8501 H   0  0  0  0  0  0  0  0  0  0  0  0  # atno 7974 bound_to 7965
  155.2818  140.0444  157.3016 H   0  0  0  0  0  0  0  0  0  0  0  0  # atno 8008 bound_to 7997
  154.5592  140.2341  155.8330 H   0  0  0  0  0  0  0  0  0  0  0  0  # atno 8009 bound_to 7997
  156.2033  140.3019  155.9580 H   0  0  0  0  0  0  0  0  0  0  0  0  # atno 8010 bound_to 7997
  140.7009  143.6152  150.8666 H   0  0  0  0  0  0  0  0  0  0  0  0  # atno 10167 bound_to 10162
  157.0918  130.6431  149.5850 H   0  0  0  0  0  0  0  0  0  0  0  0  # atno 10718 bound_to 10713
  153.5047  135.7017  153.5813 H   0  0  0  0  0  0  0  0  0  0  0  0  # atno 10763 bound_to 10752
  153.3929  135.3891  155.1935 H   0  0  0  0  0  0  0  0  0  0  0  0  # atno 10764 bound_to 10752
  154.8708  135.3862  154.4521 H   0  0  0  0  0  0  0  0  0  0  0  0  # atno 10765 bound_to 10752
  141.1517  133.7834  157.0048 H   0  0  0  0  0  0  0  0  0  0  0  0  # atno 11005 bound_to 11000
  144.8286  140.6669  143.6306 LP  0  0  0  0  0  0  0  0  0  0  0  0  # atno 17320 bound_to 7965
  145.4126  139.1577  143.4118 LP  0  0  0  0  0  0  0  0  0  0  0  0  # atno 17321 bound_to 7965
  139.9874  143.5885  152.2922 LP  0  0  0  0  0  0  0  0  0  0  0  0  # atno 17342 bound_to 10162
  139.6527  144.7661  151.2115 LP  0  0  0  0  0  0  0  0  0  0  0  0  # atno 17343 bound_to 10162
  155.9896  130.4944  150.7221 LP  0  0  0  0  0  0  0  0  0  0  0  0  # atno 17370 bound_to 10713
  157.4715  131.0893  151.0637 LP  0  0  0  0  0  0  0  0  0  0  0  0  # atno 17371 bound_to 10713
  140.0916  134.9589  157.1785 LP  0  0  0  0  0  0  0  0  0  0  0  0  # atno 17394 bound_to 11000
  140.3438  134.2674  155.7208 LP  0  0  0  0  0  0  0  0  0  0  0  0  # atno 17395 bound_to 11000

$$$$
