AV-unprocessed.smi:1675|AV-procd|sdf|6717|dock2
  -GOLD-   22720 7463D 1   1.00000     0.00000
 Structure written by MMmdl.
 40 42  0  0  0  0  0  0  0  0  1 V2000
  145.0021  137.9815  152.2509 N   0  0  0  0  0  0  0  0  0  0  0  0
  146.2856  138.3355  152.1477 C   0  0  0  0  0  0  0  0  0  0  0  0
  146.7927  138.6497  151.0726 O   0  0  0  0  0  0  0  0  0  0  0  0
  147.1157  138.3343  153.4351 C   0  0  0  0  0  0  0  0  0  0  0  0
  147.5512  139.6740  153.7905 N   0  0  0  0  0  0  0  0  0  0  0  0
  148.5747  140.0399  154.6434 C   0  0  0  0  0  0  0  0  0  0  0  0
  148.5790  141.4060  154.6518 C   0  0  0  0  0  0  0  0  0  0  0  0
  149.4128  142.2989  155.3709 N   0  0  0  0  0  0  0  0  0  0  0  0
  150.3799  141.9875  156.2518 C   0  0  0  0  0  0  0  0  0  0  0  0
  150.6948  140.8376  156.5574 O   0  0  0  0  0  0  0  0  0  0  0  0
  151.1032  143.1754  156.8966 C   0  0  0  0  0  0  0  0  0  0  0  0
  152.0030  142.7700  158.0858 C   0  0  2  0  0  0  0  0  0  0  0  0
  151.2652  142.3473  159.3772 C   0  0  0  0  0  0  0  0  0  0  0  0
  151.9537  143.1975  160.4616 C   0  0  2  0  0  0  0  0  0  0  0  0
  151.4775  144.6557  160.3325 C   0  0  0  0  0  0  0  0  0  0  0  0
  152.1898  145.1304  159.0528 C   0  0  0  0  0  0  0  0  0  0  0  0
  152.9592  143.8717  158.6005 C   0  0  1  0  0  0  0  0  0  0  0  0
  153.3851  143.2870  159.9438 C   0  0  0  0  0  0  0  0  0  0  0  0
  147.5287  141.8019  153.7836 C   0  0  0  0  0  0  0  0  0  0  0  0
  146.9165  140.7503  153.2614 N   0  0  0  0  0  0  0  0  0  0  0  0
  144.4205  137.9670  151.4257 H   0  0  0  0  0  0  0  0  0  0  0  0
  144.6169  137.7280  153.1491 H   0  0  0  0  0  0  0  0  0  0  0  0
  146.5383  137.9268  154.2664 H   0  0  0  0  0  0  0  0  0  0  0  0
  147.9867  137.6907  153.3028 H   0  0  0  0  0  0  0  0  0  0  0  0
  149.1827  139.3090  155.1557 H   0  0  0  0  0  0  0  0  0  0  0  0
  149.2665  143.2812  155.1889 H   0  0  0  0  0  0  0  0  0  0  0  0
  151.7097  143.6803  156.1433 H   0  0  0  0  0  0  0  0  0  0  0  0
  150.3463  143.8931  157.2134 H   0  0  0  0  0  0  0  0  0  0  0  0
  152.6244  141.9326  157.7621 H   0  0  0  0  0  0  0  0  0  0  0  0
  150.1918  142.5377  159.3388 H   0  0  0  0  0  0  0  0  0  0  0  0
  151.4051  141.2824  159.5660 H   0  0  0  0  0  0  0  0  0  0  0  0
  151.8502  142.7911  161.4682 H   0  0  0  0  0  0  0  0  0  0  0  0
  150.3921  144.7320  160.2581 H   0  0  0  0  0  0  0  0  0  0  0  0
  151.7966  145.2479  161.1909 H   0  0  0  0  0  0  0  0  0  0  0  0
  151.4985  145.5103  158.3013 H   0  0  0  0  0  0  0  0  0  0  0  0
  152.8856  145.9368  159.2878 H   0  0  0  0  0  0  0  0  0  0  0  0
  153.7823  144.0864  157.9182 H   0  0  0  0  0  0  0  0  0  0  0  0
  154.0160  143.9582  160.5291 H   0  0  0  0  0  0  0  0  0  0  0  0
  153.8771  142.3160  159.8614 H   0  0  0  0  0  0  0  0  0  0  0  0
  147.1978  142.7955  153.5193 H   0  0  0  0  0  0  0  0  0  0  0  0
  1  2  1  0  0  0  0
  1 21  1  0  0  0  0
  1 22  1  0  0  0  0
  2  3  2  0  0  0  0
  2  4  1  0  0  0  0
  4  5  1  0  0  0  0
  4 23  1  0  0  0  0
  4 24  1  0  0  0  0
  5 20  1  0  0  0  0
  5  6  1  0  0  0  0
  6  7  2  0  0  0  0
  6 25  1  0  0  0  0
  7  8  1  0  0  0  0
  7 19  1  0  0  0  0
  8  9  1  0  0  0  0
  8 26  1  0  0  0  0
  9 10  2  0  0  0  0
  9 11  1  0  0  0  0
 11 12  1  0  0  0  0
 11 27  1  0  0  0  0
 11 28  1  0  0  0  0
 12 17  1  0  0  0  0
 12 13  1  0  0  0  0
 12 29  1  0  0  0  0
 13 14  1  0  0  0  0
 13 30  1  0  0  0  0
 13 31  1  0  0  0  0
 14 18  1  0  0  0  0
 14 15  1  0  0  0  0
 14 32  1  0  0  0  0
 15 16  1  0  0  0  0
 15 33  1  0  0  0  0
 15 34  1  0  0  0  0
 16 17  1  0  0  0  0
 16 35  1  0  0  0  0
 16 36  1  0  0  0  0
 17 18  1  0  0  0  0
 17 37  1  0  0  0  0
 18 38  1  0  0  0  0
 18 39  1  0  0  0  0
 19 20  2  0  0  0  0
 19 40  1  0  0  0  0
M  END
> <s_m_source_file>
AV-unprocessed.smi

> <i_m_source_file_index>
1675

> <i_lp_mmshare_version>
43012

> <i_f3d_flags>
0

> <s_epik_input>
W05IMl1DKD1PKVtDSDJdbjFbY0hdYyhbY0hdbjEpW05IXUMoPU8pW0NIMl1bQ0BIXShbQ0gyXVtDQEBIXTIzKVtDQEBIXShbQ0gyXTMpW0NIMl1bQ0gyXTI=

> <s_epik_cmdline>
J2VwaWtfcHl0aG9uJywgJy1waCcsICc3LjAnLCAnLXRuJywgJzgnLCAnLW1hJywgJzIwMCcsICctbWV0YWxfYmluZGluZycsICctaW1hZScsICc8aW5maWxlLm1hZT4nLCAnLW9tYWUnLCAnPG91dGZpbGUubWFlPic=

> <r_lp_tautomer_probability>
1

> <r_epik_Ionization_Penalty>
2.17494e-05

> <r_epik_Ionization_Penalty_Charging>
0

> <r_epik_Ionization_Penalty_Neutral>
2.17494e-05

> <r_epik_State_Penalty>
-0

> <r_epik_Charging_Adjusted_Penalty>
0

> <i_epik_Tot_Q>
0

> <i_epik_Tot_abs_Q>
0

> <r_epik_Metal_State_Penalty>
-0

> <b_epik_Metal_Only>
0

> <s_lp_Force_Field>
OPLS_2005

> <r_lp_Energy>
53.8438

> <b_lp_Chiralities_Consistent>
1

> <s_lp_Variant>
AV-unprocessed.smi:1675-3

> <Gold.Version>
5.8.1

> <Gold.Id.Protein>
6NUR|6NUR_protein|mol2

> <Gold.PLP.Fitness>
50.7230

> <Gold.PLP.PLP>
-42.6738

> <Gold.PLP.part.hbond>
-3.8845

> <Gold.PLP.part.metal>
0.0000

> <Gold.PLP.part.buried>
-5.0970

> <Gold.PLP.part.nonpolar>
-35.8640

> <Gold.PLP.part.repulsive>
1.1113

> <Gold.PLP.ligand.clash>
0.0000

> <Gold.PLP.ligand.torsion>
0.4681

> <Gold.PLP.Chemscore.Hbond>
2.9920

> <Gold.PLP.Chemscore.CHOScore>
0.0000

> <Gold.PLP.Chemscore.Metal>
0.0000

> <Gold.Chemscore.Hbonds>
donor molecule, donor type, donor heavy atom, donor atom, acceptor molecule, acceptor atom, score
      L1  H     1    21       P1 10171  1.00
      L1  H     8    26       P1  8028  1.00
      P1  H  7954  7966       L1     3  0.99

> <Gold.PLP.Chemscore.Internal.Correction>
0.0095

> <Gold.Rescore>
     Score         DG    S(hbond)    S(metal)    S(lipo)     H(rot)  DE(clash)    DE(int)     intcor
     21.25     -23.16       2.95        0.00     114.00       2.15       0.18       1.73       ----

> <Gold.Chemscore.Fitness>
21.2468

> <Gold.Chemscore.DG>
-23.1559

> <Gold.Chemscore.ZeroCoef>
-5.4800

> <Gold.Chemscore.Hbond>
2.9457

> <Gold.Chemscore.Metal>
0.0000

> <Gold.Chemscore.Lipo>
113.9974

> <Gold.Chemscore.Internal_Hbond>
0.0000

> <Gold.Chemscore.DEClash>
0.1774

> <Gold.Chemscore.DEInternal>
1.7318

> <Gold.Chemscore.Rot>
2.1486

> <Gold.Chemscore.Internal.Correction>
   9.000000E+99

> <Gold.Chemscore.Hbonds>
donor molecule, donor type, donor heavy atom, donor atom, acceptor molecule, acceptor atom, score
      L1  H     1    21       P1 10171  0.98
      L1  H     8    26       P1  8028  0.92
      P1  H  7954  7966       L1     3  0.93

> <Gold.Chemscore.Hbond.Weighted>
-9.8386

> <Gold.Chemscore.Metal.Weighted>
-0.0000

> <Gold.Chemscore.Lipo.Weighted>
-13.3377

> <Gold.Chemscore.Internal_Hbond.Weighted>
0.0000

> <Gold.Chemscore.DEClash.Weighted>
0.1774

> <Gold.Chemscore.DEInternal.Weighted>
1.7318

> <Gold.Chemscore.Rot.Weighted>
5.5004

> <Gold.Chemscore.Internal.Correction.Weighted>
   9.000000E+99

> <Gold.Protein.RotatedTorsions>
[ 6907 6896 6895 6894 ] final   95.79 input  -60.11 | X-H torsion
[ 7974 7965 7964 7962 ] final   58.81 input  175.53 | X-H torsion
[ 8008 7997 7996 7995 ] final -164.15 input   59.86 | X-H torsion
[ 10167 10162 10161 10158 ] final -165.64 input  -65.29 | X-H torsion
[ 10718 10713 10712 10709 ] final -122.96 input   66.30 | X-H torsion
[ 10763 10752 10751 10750 ] final  -91.21 input  -60.55 | X-H torsion
[ 11005 11000 10999 10996 ] final  -91.80 input  -57.11 | X-H torsion

> <Gold.Protein.ActiveResidues>
 VAL166  LYS551  ARG553  GLY616  TRP617  ASP618  TYR619  PRO620  LYS621  CYS622 
 ASP623  PHE694  ASN695  SER759  ASP760  ASP761  ALA762  ILE779  LEU786  VAL792 
 PHE793  MET794  SER795  GLU796  ALA797  LYS798  CYS799  TRP800  GLU811  SER814 

> <Gold.Protein.RotatedAtoms>
  152.5441  134.0985  159.8307 H   0  0  0  0  0  0  0  0  0  0  0  0  # atno 6907 bound_to 6896
  151.1066  133.5197  159.2615 H   0  0  0  0  0  0  0  0  0  0  0  0  # atno 6908 bound_to 6896
  151.1931  135.0420  159.8895 H   0  0  0  0  0  0  0  0  0  0  0  0  # atno 6909 bound_to 6896
  145.9140  139.3676  143.0518 H   0  0  0  0  0  0  0  0  0  0  0  0  # atno 7974 bound_to 7965
  155.8315  140.0934  157.1790 H   0  0  0  0  0  0  0  0  0  0  0  0  # atno 8008 bound_to 7997
  154.3980  140.1418  156.3680 H   0  0  0  0  0  0  0  0  0  0  0  0  # atno 8009 bound_to 7997
  155.8161  140.3448  155.5489 H   0  0  0  0  0  0  0  0  0  0  0  0  # atno 8010 bound_to 7997
  139.6168  144.0703  152.1895 H   0  0  0  0  0  0  0  0  0  0  0  0  # atno 10167 bound_to 10162
  156.1462  130.6501  150.9845 H   0  0  0  0  0  0  0  0  0  0  0  0  # atno 10718 bound_to 10713
  154.6737  135.5276  153.8172 H   0  0  0  0  0  0  0  0  0  0  0  0  # atno 10763 bound_to 10752
  153.0518  135.6535  154.0684 H   0  0  0  0  0  0  0  0  0  0  0  0  # atno 10764 bound_to 10752
  154.0580  135.2964  155.3309 H   0  0  0  0  0  0  0  0  0  0  0  0  # atno 10765 bound_to 10752
  141.1537  133.7779  156.9930 H   0  0  0  0  0  0  0  0  0  0  0  0  # atno 11005 bound_to 11000
  145.8635  140.9461  143.0688 LP  0  0  0  0  0  0  0  0  0  0  0  0  # atno 17320 bound_to 7965
  144.6746  140.0561  143.7477 LP  0  0  0  0  0  0  0  0  0  0  0  0  # atno 17321 bound_to 7965
  140.0335  144.6062  150.7468 LP  0  0  0  0  0  0  0  0  0  0  0  0  # atno 17342 bound_to 10162
  140.7356  143.2743  151.3790 LP  0  0  0  0  0  0  0  0  0  0  0  0  # atno 17343 bound_to 10162
  157.6618  131.0879  150.7820 LP  0  0  0  0  0  0  0  0  0  0  0  0  # atno 17370 bound_to 10713
  156.7892  130.4884  149.5388 LP  0  0  0  0  0  0  0  0  0  0  0  0  # atno 17371 bound_to 10713
  140.0990  134.9547  157.1894 LP  0  0  0  0  0  0  0  0  0  0  0  0  # atno 17394 bound_to 11000
  140.3343  134.2774  155.7222 LP  0  0  0  0  0  0  0  0  0  0  0  0  # atno 17395 bound_to 11000

$$$$
