AV-unprocessed.smi:153|AV-procd|sdf|1250|dock2
  -GOLD-   2262018473D 1   1.00000     0.00000
 Structure written by MMmdl.
 60 63  0  0  0  0  0  0  0  0  2 V2000
  151.9669  145.6361  159.6849 C   0  0  0  0  0  0  0  0  0  0  0  0
  151.1882  144.3880  160.1363 C   0  0  2  0  0  0  0  0  0  0  0  0
  151.5070  144.2497  161.5223 O   0  0  0  0  0  0  0  0  0  0  0  0
  152.3026  143.0923  161.7572 C   0  0  0  0  0  0  0  0  0  0  0  0
  152.7589  142.6173  160.3815 C   0  0  0  0  0  0  0  0  0  0  0  0
  151.6165  143.0545  159.4806 C   0  0  1  0  0  0  0  0  0  0  0  0
  150.5469  142.1375  159.6439 O   0  0  0  0  0  0  0  0  0  0  0  0
  152.0055  143.0878  157.9757 C   0  0  0  0  0  0  0  0  0  0  0  0
  151.3830  142.0499  157.1605 N   0  0  0  0  0  0  0  0  0  0  0  0
  150.5036  142.2211  156.1164 C   0  0  0  0  0  0  0  0  0  0  0  0
  150.1028  141.1217  155.5413 N   0  0  0  0  0  0  0  0  0  0  0  0
  150.7613  140.1050  156.2246 C   0  0  0  0  0  0  0  0  0  0  0  0
  150.8006  138.6790  156.1168 C   0  0  0  0  0  0  0  0  0  0  0  0
  150.1007  137.9390  155.2083 N   0  0  0  0  0  0  0  0  0  0  0  0
  149.5186  138.5804  154.0358 C   0  0  0  0  0  0  0  0  0  0  0  0
  150.1696  136.4745  155.2241 C   0  0  0  0  0  0  0  0  0  0  0  0
  148.8732  135.8199  155.7435 C   0  0  2  0  0  0  0  0  0  0  0  0
  149.0469  135.5976  157.1288 O   0  0  0  0  0  0  0  0  0  0  0  0
  148.5641  134.4661  155.0665 C   0  0  0  0  0  0  0  0  0  0  0  0
  147.5491  134.5761  153.9891 N   0  3  0  0  0  0  0  0  0  0  0  0
  147.3114  133.3002  153.2684 C   0  0  0  0  0  0  0  0  0  0  0  0
  146.2721  133.4980  152.1517 C   0  0  0  0  0  0  0  0  0  0  0  0
  145.0675  134.0127  152.7050 O   0  0  0  0  0  0  0  0  0  0  0  0
  145.2639  135.2786  153.3222 C   0  0  0  0  0  0  0  0  0  0  0  0
  146.2679  135.1382  154.4785 C   0  0  0  0  0  0  0  0  0  0  0  0
  151.6191  138.0244  156.9835 N   0  0  0  0  0  0  0  0  0  0  0  0
  152.3443  138.6922  157.8832 C   0  0  0  0  0  0  0  0  0  0  0  0
  152.4065  140.0064  158.0904 N   0  0  0  0  0  0  0  0  0  0  0  0
  151.5862  140.6809  157.2356 C   0  0  0  0  0  0  0  0  0  0  0  0
  151.7659  145.8932  158.6489 H   0  0  0  0  0  0  0  0  0  0  0  0
  153.0430  145.5001  159.7937 H   0  0  0  0  0  0  0  0  0  0  0  0
  151.6844  146.5004  160.2862 H   0  0  0  0  0  0  0  0  0  0  0  0
  150.1198  144.5720  160.0121 H   0  0  0  0  0  0  0  0  0  0  0  0
  153.1398  143.3114  162.4200 H   0  0  0  0  0  0  0  0  0  0  0  0
  151.6816  142.3349  162.2371 H   0  0  0  0  0  0  0  0  0  0  0  0
  153.6774  143.1353  160.1019 H   0  0  0  0  0  0  0  0  0  0  0  0
  152.9590  141.5456  160.3465 H   0  0  0  0  0  0  0  0  0  0  0  0
  150.7510  141.3486  159.1653 H   0  0  0  0  0  0  0  0  0  0  0  0
  151.7865  144.0599  157.5335 H   0  0  0  0  0  0  0  0  0  0  0  0
  153.0855  142.9660  157.8838 H   0  0  0  0  0  0  0  0  0  0  0  0
  150.1697  143.1876  155.7736 H   0  0  0  0  0  0  0  0  0  0  0  0
  148.9240  139.4484  154.3226 H   0  0  0  0  0  0  0  0  0  0  0  0
  148.8589  137.8941  153.5042 H   0  0  0  0  0  0  0  0  0  0  0  0
  150.2977  138.8968  153.3421 H   0  0  0  0  0  0  0  0  0  0  0  0
  150.4456  136.0604  154.2542 H   0  0  0  0  0  0  0  0  0  0  0  0
  150.9925  136.2021  155.8864 H   0  0  0  0  0  0  0  0  0  0  0  0
  148.0490  136.5216  155.6198 H   0  0  0  0  0  0  0  0  0  0  0  0
  148.3928  136.0872  157.6031 H   0  0  0  0  0  0  0  0  0  0  0  0
  149.4635  134.0270  154.6364 H   0  0  0  0  0  0  0  0  0  0  0  0
  148.2230  133.7654  155.8306 H   0  0  0  0  0  0  0  0  0  0  0  0
  148.2382  132.9253  152.8356 H   0  0  0  0  0  0  0  0  0  0  0  0
  146.9592  132.5424  153.9705 H   0  0  0  0  0  0  0  0  0  0  0  0
  146.6505  134.1713  151.3810 H   0  0  0  0  0  0  0  0  0  0  0  0
  146.0578  132.5462  151.6654 H   0  0  0  0  0  0  0  0  0  0  0  0
  145.6143  136.0054  152.5876 H   0  0  0  0  0  0  0  0  0  0  0  0
  144.3068  135.6414  153.6976 H   0  0  0  0  0  0  0  0  0  0  0  0
  145.8570  134.4913  155.2553 H   0  0  0  0  0  0  0  0  0  0  0  0
  146.4411  136.1149  154.9321 H   0  0  0  0  0  0  0  0  0  0  0  0
  152.9634  138.0865  158.5285 H   0  0  0  0  0  0  0  0  0  0  0  0
  147.9090  135.2385  153.3173 H   0  0  0  0  0  0  0  0  0  0  0  0
  1  2  1  0  0  0  0
  1 30  1  0  0  0  0
  1 31  1  0  0  0  0
  1 32  1  0  0  0  0
  2  6  1  0  0  0  0
  2  3  1  0  0  0  0
  2 33  1  0  0  0  0
  3  4  1  0  0  0  0
  4  5  1  0  0  0  0
  4 34  1  0  0  0  0
  4 35  1  0  0  0  0
  5  6  1  0  0  0  0
  5 36  1  0  0  0  0
  5 37  1  0  0  0  0
  6  7  1  0  0  0  0
  6  8  1  0  0  0  0
  7 38  1  0  0  0  0
  8  9  1  0  0  0  0
  8 39  1  0  0  0  0
  8 40  1  0  0  0  0
  9 29  1  0  0  0  0
  9 10  1  0  0  0  0
 10 11  2  0  0  0  0
 10 41  1  0  0  0  0
 11 12  1  0  0  0  0
 12 29  2  0  0  0  0
 12 13  1  0  0  0  0
 13 14  1  0  0  0  0
 13 26  2  0  0  0  0
 14 15  1  0  0  0  0
 14 16  1  0  0  0  0
 15 42  1  0  0  0  0
 15 43  1  0  0  0  0
 15 44  1  0  0  0  0
 16 17  1  0  0  0  0
 16 45  1  0  0  0  0
 16 46  1  0  0  0  0
 17 18  1  0  0  0  0
 17 19  1  0  0  0  0
 17 47  1  0  0  0  0
 18 48  1  0  0  0  0
 19 20  1  0  0  0  0
 19 49  1  0  0  0  0
 19 50  1  0  0  0  0
 20 25  1  0  0  0  0
 20 21  1  0  0  0  0
 20 60  1  0  0  0  0
 21 22  1  0  0  0  0
 21 51  1  0  0  0  0
 21 52  1  0  0  0  0
 22 23  1  0  0  0  0
 22 53  1  0  0  0  0
 22 54  1  0  0  0  0
 23 24  1  0  0  0  0
 24 25  1  0  0  0  0
 24 55  1  0  0  0  0
 24 56  1  0  0  0  0
 25 57  1  0  0  0  0
 25 58  1  0  0  0  0
 26 27  1  0  0  0  0
 27 28  2  0  0  0  0
 27 59  1  0  0  0  0
 28 29  1  0  0  0  0
M  CHG  1  20   1
M  END
> <s_m_source_file>
AV-unprocessed.smi

> <i_m_source_file_index>
153

> <i_lp_mmshare_version>
43012

> <i_f3d_flags>
0

> <s_epik_input>
W0NIMl0xW0NIMl1PW0NAQEhdKFtDSDNdKVtDQEBdMShbT0hdKVtDSDJdbihbY0hdbjIpYyhjMjMpbltjSF1uYzNOKFtDSDNdKVtDSDJdW0NASF0oW09IXSlbQ0gyXU40W0NIMl1bQ0gyXU9bQ0gyXVtDSDJdNA==

> <s_epik_cmdline>
J2VwaWtfcHl0aG9uJywgJy1waCcsICc3LjAnLCAnLXRuJywgJzgnLCAnLW1hJywgJzIwMCcsICctbWV0YWxfYmluZGluZycsICctaW1hZScsICc8aW5maWxlLm1hZT4nLCAnLW9tYWUnLCAnPG91dGZpbGUubWFlPic=

> <r_lp_tautomer_probability>
1

> <r_epik_Ionization_Penalty>
0.403509

> <r_epik_Ionization_Penalty_Charging>
0.40072

> <r_epik_Ionization_Penalty_Neutral>
0.00278876

> <r_epik_State_Penalty>
0.400058

> <r_epik_Charging_Adjusted_Penalty>
0.800778

> <i_epik_Tot_Q>
1

> <i_epik_Tot_abs_Q>
1

> <r_epik_Metal_State_Penalty>
0.400321

> <b_epik_Metal_Only>
0

> <s_lp_Force_Field>
OPLS_2005

> <r_lp_Energy>
46.9593

> <b_lp_Chiralities_Consistent>
1

> <s_lp_Variant>
AV-unprocessed.smi:153-1

> <Gold.Version>
5.8.1

> <Gold.Id.Protein>
6NUR|6NUR_protein|mol2

> <Gold.PLP.Fitness>
53.1958

> <Gold.PLP.PLP>
-47.4078

> <Gold.PLP.part.hbond>
-3.5203

> <Gold.PLP.part.metal>
0.0000

> <Gold.PLP.part.buried>
-5.4178

> <Gold.PLP.part.nonpolar>
-40.1740

> <Gold.PLP.part.repulsive>
0.3602

> <Gold.PLP.ligand.clash>
0.0000

> <Gold.PLP.ligand.torsion>
2.3768

> <Gold.PLP.Chemscore.Hbond>
2.3861

> <Gold.PLP.Chemscore.CHOScore>
1.0000

> <Gold.PLP.Chemscore.Metal>
0.0000

> <Gold.Chemscore.Hbonds>
donor molecule, donor type, donor heavy atom, donor atom, acceptor molecule, acceptor atom, score
      L1  H    20    60       P1  7948  1.98
      L1  C    10    41       P1  8028  0.92

> <Gold.PLP.Chemscore.Internal.Correction>
0.3833

> <Gold.Rescore>
     Score         DG    S(hbond)    S(metal)    S(lipo)     H(rot)  DE(clash)    DE(int)     intcor
      7.34     -12.73       1.11        0.00     109.43       3.62       1.99       3.40       ----

> <Gold.Chemscore.Fitness>
7.3387

> <Gold.Chemscore.DG>
-12.7275

> <Gold.Chemscore.ZeroCoef>
-5.4800

> <Gold.Chemscore.Hbond>
1.1097

> <Gold.Chemscore.Metal>
0.0000

> <Gold.Chemscore.Lipo>
109.4315

> <Gold.Chemscore.Internal_Hbond>
0.0000

> <Gold.Chemscore.DEClash>
1.9860

> <Gold.Chemscore.DEInternal>
3.4028

> <Gold.Chemscore.Rot>
3.6182

> <Gold.Chemscore.Internal.Correction>
   9.000000E+99

> <Gold.Chemscore.Hbonds>
donor molecule, donor type, donor heavy atom, donor atom, acceptor molecule, acceptor atom, score
      L1  H    20    60       P1  7948  0.93

> <Gold.Chemscore.Hbond.Weighted>
-3.7065

> <Gold.Chemscore.Metal.Weighted>
-0.0000

> <Gold.Chemscore.Lipo.Weighted>
-12.8035

> <Gold.Chemscore.Internal_Hbond.Weighted>
0.0000

> <Gold.Chemscore.DEClash.Weighted>
1.9860

> <Gold.Chemscore.DEInternal.Weighted>
3.4028

> <Gold.Chemscore.Rot.Weighted>
9.2625

> <Gold.Chemscore.Internal.Correction.Weighted>
   9.000000E+99

> <Gold.Protein.RotatedTorsions>
[ 6907 6896 6895 6894 ] final  -81.28 input  -60.11 | X-H torsion
[ 7974 7965 7964 7962 ] final -154.11 input  175.53 | X-H torsion
[ 8008 7997 7996 7995 ] final   24.61 input   59.86 | X-H torsion
[ 10167 10162 10161 10158 ] final  164.71 input  -65.29 | X-H torsion
[ 10718 10713 10712 10709 ] final   18.91 input   66.30 | X-H torsion
[ 10763 10752 10751 10750 ] final -123.91 input  -60.55 | X-H torsion
[ 11005 11000 10999 10996 ] final   13.80 input  -57.11 | X-H torsion

> <Gold.Protein.ActiveResidues>
 VAL166  LYS551  ARG553  GLY616  TRP617  ASP618  TYR619  PRO620  LYS621  CYS622 
 ASP623  PHE694  ASN695  SER759  ASP760  ASP761  ALA762  ILE779  LEU786  VAL792 
 PHE793  MET794  SER795  GLU796  ALA797  LYS798  CYS799  TRP800  GLU811  SER814 

> <Gold.Protein.RotatedAtoms>
  150.6914  134.3841  159.5046 H   0  0  0  0  0  0  0  0  0  0  0  0  # atno 6907 bound_to 6896
  152.1639  134.8887  160.0549 H   0  0  0  0  0  0  0  0  0  0  0  0  # atno 6908 bound_to 6896
  151.9938  133.3766  159.4192 H   0  0  0  0  0  0  0  0  0  0  0  0  # atno 6909 bound_to 6896
  144.7706  140.4433  143.5910 H   0  0  0  0  0  0  0  0  0  0  0  0  # atno 7974 bound_to 7965
  154.9990  140.3123  155.4875 H   0  0  0  0  0  0  0  0  0  0  0  0  # atno 8008 bound_to 7997
  156.2928  140.2235  156.5039 H   0  0  0  0  0  0  0  0  0  0  0  0  # atno 8009 bound_to 7997
  154.7635  140.0457  157.0981 H   0  0  0  0  0  0  0  0  0  0  0  0  # atno 8010 bound_to 7997
  139.4893  144.4207  151.9189 H   0  0  0  0  0  0  0  0  0  0  0  0  # atno 10167 bound_to 10162
  157.1030  130.6476  149.5877 H   0  0  0  0  0  0  0  0  0  0  0  0  # atno 10718 bound_to 10713
  154.8715  135.4082  154.3019 H   0  0  0  0  0  0  0  0  0  0  0  0  # atno 10763 bound_to 10752
  153.3877  135.7014  153.6523 H   0  0  0  0  0  0  0  0  0  0  0  0  # atno 10764 bound_to 10752
  153.5319  135.3666  155.2651 H   0  0  0  0  0  0  0  0  0  0  0  0  # atno 10765 bound_to 10752
  140.4767  134.0977  155.7743 H   0  0  0  0  0  0  0  0  0  0  0  0  # atno 11005 bound_to 11000
  145.6336  139.1540  143.2955 LP  0  0  0  0  0  0  0  0  0  0  0  0  # atno 17320 bound_to 7965
  146.1849  140.6438  142.9172 LP  0  0  0  0  0  0  0  0  0  0  0  0  # atno 17321 bound_to 7965
  140.3651  144.2924  150.5927 LP  0  0  0  0  0  0  0  0  0  0  0  0  # atno 17342 bound_to 10162
  140.5368  143.2231  151.8149 LP  0  0  0  0  0  0  0  0  0  0  0  0  # atno 17343 bound_to 10162
  155.9869  130.4905  150.7099 LP  0  0  0  0  0  0  0  0  0  0  0  0  # atno 17370 bound_to 10713
  157.4624  131.0884  151.0731 LP  0  0  0  0  0  0  0  0  0  0  0  0  # atno 17371 bound_to 10713
  141.1551  133.8897  157.1998 LP  0  0  0  0  0  0  0  0  0  0  0  0  # atno 17394 bound_to 11000
  139.9852  135.0084  156.9845 LP  0  0  0  0  0  0  0  0  0  0  0  0  # atno 17395 bound_to 11000

$$$$
