AV-unprocessed.smi:1498|AV-procd|sdf|6060|dock1
  -GOLD-   22720 6173D 1   1.00000     0.00000
 Structure written by MMmdl.
 37 38  0  0  0  0  0  0  0  0  1 V2000
  152.4903  143.0021  163.0113 C   0  0  0  0  0  0  0  0  0  0  0  0
  153.0568  142.9780  161.6708 N   0  0  0  0  0  0  0  0  0  0  0  0
  152.0609  143.4491  160.7055 C   0  0  0  0  0  0  0  0  0  0  0  0
  152.6486  143.4117  159.2806 C   0  0  0  0  0  0  0  0  0  0  0  0
  153.0502  142.0301  158.9720 N   0  0  0  0  0  0  0  0  0  0  0  0
  152.4151  141.1753  158.1316 C   0  0  0  0  0  0  0  0  0  0  0  0
  152.7631  140.0024  157.9884 O   0  0  0  0  0  0  0  0  0  0  0  0
  151.4237  141.7413  157.4173 N   0  0  0  0  0  0  0  0  0  0  0  0
  150.5507  141.1130  156.4933 C   0  0  0  0  0  0  0  0  0  0  0  0
  150.7904  139.8553  155.8817 C   0  0  0  0  0  0  0  0  0  0  0  0
  149.8051  139.5260  155.0606 N   0  0  0  0  0  0  0  0  0  0  0  0
  148.9300  140.5606  155.1263 N   0  0  0  0  0  0  0  0  0  0  0  0
  147.7128  140.5263  154.3337 C   0  0  0  0  0  0  0  0  0  0  0  0
  147.4434  139.1240  153.7809 C   0  0  0  0  0  0  0  0  0  0  0  0
  148.2091  138.7117  152.7674 N   0  0  0  0  0  0  0  0  0  0  0  0
  146.5574  138.4198  154.2614 O   0  0  0  0  0  0  0  0  0  0  0  0
  149.3537  141.5460  155.9973 C   0  0  0  0  0  0  0  0  0  0  0  0
  154.0777  141.5842  159.9190 C   0  0  0  0  0  0  0  0  0  0  0  0
  153.4915  141.6178  161.3440 C   0  0  0  0  0  0  0  0  0  0  0  0
  152.1835  144.0140  163.2784 H   0  0  0  0  0  0  0  0  0  0  0  0
  153.2284  142.6744  163.7442 H   0  0  0  0  0  0  0  0  0  0  0  0
  151.6196  142.3489  163.0872 H   0  0  0  0  0  0  0  0  0  0  0  0
  151.1632  142.8309  160.7578 H   0  0  0  0  0  0  0  0  0  0  0  0
  151.7656  144.4685  160.9563 H   0  0  0  0  0  0  0  0  0  0  0  0
  151.9231  143.8277  158.5822 H   0  0  0  0  0  0  0  0  0  0  0  0
  153.5218  144.0629  159.2163 H   0  0  0  0  0  0  0  0  0  0  0  0
  151.2612  142.7250  157.5759 H   0  0  0  0  0  0  0  0  0  0  0  0
  151.6276  139.1839  156.0034 H   0  0  0  0  0  0  0  0  0  0  0  0
  146.8666  140.8406  154.9468 H   0  0  0  0  0  0  0  0  0  0  0  0
  147.8085  141.2506  153.5234 H   0  0  0  0  0  0  0  0  0  0  0  0
  148.0703  137.7945  152.3686 H   0  0  0  0  0  0  0  0  0  0  0  0
  148.9268  139.3215  152.4030 H   0  0  0  0  0  0  0  0  0  0  0  0
  148.7766  142.4420  156.1716 H   0  0  0  0  0  0  0  0  0  0  0  0
  154.4492  140.5835  159.6944 H   0  0  0  0  0  0  0  0  0  0  0  0
  154.9451  142.2427  159.8505 H   0  0  0  0  0  0  0  0  0  0  0  0
  154.2469  141.2951  162.0614 H   0  0  0  0  0  0  0  0  0  0  0  0
  152.6535  140.9230  161.4227 H   0  0  0  0  0  0  0  0  0  0  0  0
  1  2  1  0  0  0  0
  1 20  1  0  0  0  0
  1 21  1  0  0  0  0
  1 22  1  0  0  0  0
  2 19  1  0  0  0  0
  2  3  1  0  0  0  0
  3  4  1  0  0  0  0
  3 23  1  0  0  0  0
  3 24  1  0  0  0  0
  4  5  1  0  0  0  0
  4 25  1  0  0  0  0
  4 26  1  0  0  0  0
  5  6  1  0  0  0  0
  5 18  1  0  0  0  0
  6  7  2  0  0  0  0
  6  8  1  0  0  0  0
  8  9  1  0  0  0  0
  8 27  1  0  0  0  0
  9 17  2  0  0  0  0
  9 10  1  0  0  0  0
 10 11  2  0  0  0  0
 10 28  1  0  0  0  0
 11 12  1  0  0  0  0
 12 13  1  0  0  0  0
 12 17  1  0  0  0  0
 13 14  1  0  0  0  0
 13 29  1  0  0  0  0
 13 30  1  0  0  0  0
 14 15  1  0  0  0  0
 14 16  2  0  0  0  0
 15 31  1  0  0  0  0
 15 32  1  0  0  0  0
 17 33  1  0  0  0  0
 18 19  1  0  0  0  0
 18 34  1  0  0  0  0
 18 35  1  0  0  0  0
 19 36  1  0  0  0  0
 19 37  1  0  0  0  0
M  END
> <s_m_source_file>
AV-unprocessed.smi

> <i_m_source_file_index>
1498

> <i_lp_mmshare_version>
43012

> <i_f3d_flags>
0

> <s_epik_input>
W0NIM11OMVtDSDJdW0NIMl1OKFtDSDJdW0NIMl0xKUMoPU8pW05IXWMyW2NIXW5uKFtjSF0yKVtDSDJdQyg9TylbTkgyXQ==

> <s_epik_cmdline>
J2VwaWtfcHl0aG9uJywgJy1waCcsICc3LjAnLCAnLXRuJywgJzgnLCAnLW1hJywgJzIwMCcsICctbWV0YWxfYmluZGluZycsICctaW1hZScsICc8aW5maWxlLm1hZT4nLCAnLW9tYWUnLCAnPG91dGZpbGUubWFlPic=

> <r_lp_tautomer_probability>
1

> <r_epik_Ionization_Penalty>
0.623411

> <r_epik_Ionization_Penalty_Charging>
0

> <r_epik_Ionization_Penalty_Neutral>
0.623411

> <r_epik_State_Penalty>
0.639577

> <r_epik_Charging_Adjusted_Penalty>
0.639577

> <i_epik_Tot_Q>
0

> <i_epik_Tot_abs_Q>
0

> <r_epik_Metal_State_Penalty>
0.639574

> <b_epik_Metal_Only>
0

> <s_lp_Force_Field>
OPLS_2005

> <r_lp_Energy>
44.4241

> <b_lp_Chiralities_Consistent>
1

> <s_lp_Variant>
AV-unprocessed.smi:1498-2

> <Gold.Version>
5.8.1

> <Gold.Id.Protein>
6NUR|6NUR_protein|mol2

> <Gold.PLP.Fitness>
43.3017

> <Gold.PLP.PLP>
-32.5508

> <Gold.PLP.part.hbond>
-2.7379

> <Gold.PLP.part.metal>
0.0000

> <Gold.PLP.part.buried>
-1.8351

> <Gold.PLP.part.nonpolar>
-28.3301

> <Gold.PLP.part.repulsive>
0.4016

> <Gold.PLP.ligand.clash>
0.0000

> <Gold.PLP.ligand.torsion>
0.4389

> <Gold.PLP.Chemscore.Hbond>
2.8560

> <Gold.PLP.Chemscore.CHOScore>
1.0000

> <Gold.PLP.Chemscore.Metal>
0.0000

> <Gold.Chemscore.Hbonds>
donor molecule, donor type, donor heavy atom, donor atom, acceptor molecule, acceptor atom, score
      L1  H    15    31       P1  7948  0.86
      L1  H    15    32       P1  7957  0.96
      P1  H  7997  8009       L1     7  0.96
      L1  C    17    33       P1  8028  1.00

> <Gold.PLP.Chemscore.Internal.Correction>
0.0608

> <Gold.Rescore>
     Score         DG    S(hbond)    S(metal)    S(lipo)     H(rot)  DE(clash)    DE(int)     intcor
     17.87     -19.71       2.66        0.00      79.32       1.54       0.05       1.80       ----

> <Gold.Chemscore.Fitness>
17.8676

> <Gold.Chemscore.DG>
-19.7099

> <Gold.Chemscore.ZeroCoef>
-5.4800

> <Gold.Chemscore.Hbond>
2.6606

> <Gold.Chemscore.Metal>
0.0000

> <Gold.Chemscore.Lipo>
79.3164

> <Gold.Chemscore.Internal_Hbond>
0.0000

> <Gold.Chemscore.DEClash>
0.0471

> <Gold.Chemscore.DEInternal>
1.7952

> <Gold.Chemscore.Rot>
1.5377

> <Gold.Chemscore.Internal.Correction>
   9.000000E+99

> <Gold.Chemscore.Hbonds>
donor molecule, donor type, donor heavy atom, donor atom, acceptor molecule, acceptor atom, score
      L1  H    15    31       P1  7948  0.85
      L1  H    15    32       P1  7957  0.90
      P1  H  7997  8009       L1     7  0.49

> <Gold.Chemscore.Hbond.Weighted>
-8.8865

> <Gold.Chemscore.Metal.Weighted>
-0.0000

> <Gold.Chemscore.Lipo.Weighted>
-9.2800

> <Gold.Chemscore.Internal_Hbond.Weighted>
0.0000

> <Gold.Chemscore.DEClash.Weighted>
0.0471

> <Gold.Chemscore.DEInternal.Weighted>
1.7952

> <Gold.Chemscore.Rot.Weighted>
3.9366

> <Gold.Chemscore.Internal.Correction.Weighted>
   9.000000E+99

> <Gold.Protein.RotatedTorsions>
[ 6907 6896 6895 6894 ] final  -85.72 input  -60.11 | X-H torsion
[ 7974 7965 7964 7962 ] final -145.87 input  175.53 | X-H torsion
[ 8008 7997 7996 7995 ] final  158.90 input   59.86 | X-H torsion
[ 10167 10162 10161 10158 ] final  -42.07 input  -65.29 | X-H torsion
[ 10718 10713 10712 10709 ] final   83.91 input   66.30 | X-H torsion
[ 10763 10752 10751 10750 ] final  -70.66 input  -60.55 | X-H torsion
[ 11005 11000 10999 10996 ] final -165.20 input  -57.11 | X-H torsion

> <Gold.Protein.ActiveResidues>
 VAL166  LYS551  ARG553  GLY616  TRP617  ASP618  TYR619  PRO620  LYS621  CYS622 
 ASP623  PHE694  ASN695  SER759  ASP760  ASP761  ALA762  ILE779  LEU786  VAL792 
 PHE793  MET794  SER795  GLU796  ALA797  LYS798  CYS799  TRP800  GLU811  SER814 

> <Gold.Protein.RotatedAtoms>
  150.6869  134.3161  159.4766 H   0  0  0  0  0  0  0  0  0  0  0  0  # atno 6907 bound_to 6896
  152.1042  134.9318  160.0578 H   0  0  0  0  0  0  0  0  0  0  0  0  # atno 6908 bound_to 6896
  152.0585  133.4016  159.4444 H   0  0  0  0  0  0  0  0  0  0  0  0  # atno 6909 bound_to 6896
  144.8198  140.5528  143.5586 H   0  0  0  0  0  0  0  0  0  0  0  0  # atno 7974 bound_to 7965
  156.2273  140.1846  156.7330 H   0  0  0  0  0  0  0  0  0  0  0  0  # atno 8008 bound_to 7997
  154.5963  140.0643  156.9336 H   0  0  0  0  0  0  0  0  0  0  0  0  # atno 8009 bound_to 7997
  155.2250  140.3310  155.4313 H   0  0  0  0  0  0  0  0  0  0  0  0  # atno 8010 bound_to 7997
  140.6981  143.3058  151.3156 H   0  0  0  0  0  0  0  0  0  0  0  0  # atno 10167 bound_to 10162
  157.6888  131.0111  150.2594 H   0  0  0  0  0  0  0  0  0  0  0  0  # atno 10718 bound_to 10713
  154.4208  135.5987  153.6009 H   0  0  0  0  0  0  0  0  0  0  0  0  # atno 10763 bound_to 10752
  152.9794  135.5952  154.3957 H   0  0  0  0  0  0  0  0  0  0  0  0  # atno 10764 bound_to 10752
  154.3782  135.2841  155.2205 H   0  0  0  0  0  0  0  0  0  0  0  0  # atno 10765 bound_to 10752
  140.5784  134.5166  157.5174 H   0  0  0  0  0  0  0  0  0  0  0  0  # atno 11005 bound_to 11000
  145.5132  139.1478  143.3593 LP  0  0  0  0  0  0  0  0  0  0  0  0  # atno 17320 bound_to 7965
  146.2503  140.5272  142.8896 LP  0  0  0  0  0  0  0  0  0  0  0  0  # atno 17321 bound_to 7965
  139.6464  144.0444  152.2593 LP  0  0  0  0  0  0  0  0  0  0  0  0  # atno 17342 bound_to 10162
  139.9966  144.6323  150.7767 LP  0  0  0  0  0  0  0  0  0  0  0  0  # atno 17343 bound_to 10162
  156.3176  130.3781  149.7604 LP  0  0  0  0  0  0  0  0  0  0  0  0  # atno 17370 bound_to 10713
  156.5185  130.8204  151.3195 LP  0  0  0  0  0  0  0  0  0  0  0  0  # atno 17371 bound_to 10713
  139.9329  134.7930  156.0882 LP  0  0  0  0  0  0  0  0  0  0  0  0  # atno 17394 bound_to 11000
  141.1012  133.6676  156.2758 LP  0  0  0  0  0  0  0  0  0  0  0  0  # atno 17395 bound_to 11000

$$$$
