AV-unprocessed.smi:1596|AV-procd|sdf|6416|dock2
  -GOLD-   22720 7 53D 1   1.00000     0.00000
 Structure written by MMmdl.
 49 50  0  0  0  0  0  0  0  0  2 V2000
  155.1696  140.9890  162.8447 C   0  0  0  0  0  0  0  0  0  0  0  0
  154.1684  141.7658  163.7132 C   0  0  0  0  0  0  0  0  0  0  0  0
  153.7155  143.0148  163.0960 N   0  0  0  0  0  0  0  0  0  0  0  0
  153.9191  144.2797  163.8024 C   0  0  0  0  0  0  0  0  0  0  0  0
  154.8842  144.1627  164.9914 C   0  0  0  0  0  0  0  0  0  0  0  0
  152.9302  142.9754  161.9178 C   0  0  0  0  0  0  0  0  0  0  0  0
  152.9282  141.8849  161.0117 C   0  0  0  0  0  0  0  0  0  0  0  0
  152.1153  141.9255  159.8603 C   0  0  0  0  0  0  0  0  0  0  0  0
  151.2962  143.0471  159.6173 C   0  0  0  0  0  0  0  0  0  0  0  0
  150.5060  143.0510  158.4356 N   0  0  0  0  0  0  0  0  0  0  0  0
  149.8540  142.0246  157.8624 C   0  0  0  0  0  0  0  0  0  0  0  0
  149.8749  140.8597  158.2590 O   0  0  0  0  0  0  0  0  0  0  0  0
  149.1816  142.4237  156.7731 N   0  0  0  0  0  0  0  0  0  0  0  0
  148.3800  141.5574  155.9134 C   0  0  2  0  0  0  0  0  0  0  0  0
  149.2806  140.7973  154.9175 C   0  0  0  0  0  0  0  0  0  0  0  0
  148.4497  139.9348  153.9534 C   0  0  0  0  0  0  0  0  0  0  0  0
  147.4007  140.7828  153.2138 C   0  0  1  0  0  0  0  0  0  0  0  0
  146.6117  139.9475  152.3934 O   0  0  0  0  0  0  0  0  0  0  0  0
  146.4957  141.5330  154.2062 C   0  0  0  0  0  0  0  0  0  0  0  0
  147.3268  142.3985  155.1675 C   0  0  0  0  0  0  0  0  0  0  0  0
  151.3376  144.1154  160.5436 C   0  0  0  0  0  0  0  0  0  0  0  0
  152.1333  144.0344  161.6315 N   0  3  0  0  0  0  0  0  0  0  0  0
  155.4952  140.0832  163.3559 H   0  0  0  0  0  0  0  0  0  0  0  0
  156.0591  141.5811  162.6284 H   0  0  0  0  0  0  0  0  0  0  0  0
  154.7305  140.6852  161.8956 H   0  0  0  0  0  0  0  0  0  0  0  0
  153.3020  141.1325  163.9054 H   0  0  0  0  0  0  0  0  0  0  0  0
  154.5998  141.9677  164.6940 H   0  0  0  0  0  0  0  0  0  0  0  0
  154.3148  145.0133  163.0994 H   0  0  0  0  0  0  0  0  0  0  0  0
  152.9615  144.6871  164.1258 H   0  0  0  0  0  0  0  0  0  0  0  0
  154.9660  145.1178  165.5106 H   0  0  0  0  0  0  0  0  0  0  0  0
  155.8864  143.8833  164.6695 H   0  0  0  0  0  0  0  0  0  0  0  0
  154.5460  143.4223  165.7161 H   0  0  0  0  0  0  0  0  0  0  0  0
  153.5427  141.0123  161.1714 H   0  0  0  0  0  0  0  0  0  0  0  0
  152.1212  141.0937  159.1712 H   0  0  0  0  0  0  0  0  0  0  0  0
  150.4608  143.9329  157.9463 H   0  0  0  0  0  0  0  0  0  0  0  0
  149.2249  143.3993  156.5172 H   0  0  0  0  0  0  0  0  0  0  0  0
  147.8506  140.8313  156.5338 H   0  0  0  0  0  0  0  0  0  0  0  0
  149.8777  141.5069  154.3426 H   0  0  0  0  0  0  0  0  0  0  0  0
  149.9872  140.1639  155.4551 H   0  0  0  0  0  0  0  0  0  0  0  0
  149.1089  139.4439  153.2366 H   0  0  0  0  0  0  0  0  0  0  0  0
  147.9565  139.1403  154.5155 H   0  0  0  0  0  0  0  0  0  0  0  0
  147.9066  141.5033  152.5697 H   0  0  0  0  0  0  0  0  0  0  0  0
  145.7095  140.2189  152.4672 H   0  0  0  0  0  0  0  0  0  0  0  0
  145.7848  142.1600  153.6666 H   0  0  0  0  0  0  0  0  0  0  0  0
  145.9049  140.8197  154.7828 H   0  0  0  0  0  0  0  0  0  0  0  0
  146.6653  142.8893  155.8826 H   0  0  0  0  0  0  0  0  0  0  0  0
  147.8176  143.1935  154.6040 H   0  0  0  0  0  0  0  0  0  0  0  0
  150.7810  145.0364  160.4588 H   0  0  0  0  0  0  0  0  0  0  0  0
  152.1367  144.8241  162.2773 H   0  0  0  0  0  0  0  0  0  0  0  0
  1  2  1  0  0  0  0
  1 23  1  0  0  0  0
  1 24  1  0  0  0  0
  1 25  1  0  0  0  0
  2  3  1  0  0  0  0
  2 26  1  0  0  0  0
  2 27  1  0  0  0  0
  3  4  1  0  0  0  0
  3  6  1  0  0  0  0
  4  5  1  0  0  0  0
  4 28  1  0  0  0  0
  4 29  1  0  0  0  0
  5 30  1  0  0  0  0
  5 31  1  0  0  0  0
  5 32  1  0  0  0  0
  6 22  1  0  0  0  0
  6  7  2  0  0  0  0
  7  8  1  0  0  0  0
  7 33  1  0  0  0  0
  8  9  2  0  0  0  0
  8 34  1  0  0  0  0
  9 10  1  0  0  0  0
  9 21  1  0  0  0  0
 10 11  1  0  0  0  0
 10 35  1  0  0  0  0
 11 12  2  0  0  0  0
 11 13  1  0  0  0  0
 13 14  1  0  0  0  0
 13 36  1  0  0  0  0
 14 20  1  0  0  0  0
 14 15  1  0  0  0  0
 14 37  1  0  0  0  0
 15 16  1  0  0  0  0
 15 38  1  0  0  0  0
 15 39  1  0  0  0  0
 16 17  1  0  0  0  0
 16 40  1  0  0  0  0
 16 41  1  0  0  0  0
 17 18  1  0  0  0  0
 17 19  1  0  0  0  0
 17 42  1  0  0  0  0
 18 43  1  0  0  0  0
 19 20  1  0  0  0  0
 19 44  1  0  0  0  0
 19 45  1  0  0  0  0
 20 46  1  0  0  0  0
 20 47  1  0  0  0  0
 21 22  2  0  0  0  0
 21 48  1  0  0  0  0
 22 49  1  0  0  0  0
M  CHG  1  22   1
M  END
> <s_m_source_file>
AV-unprocessed.smi

> <i_m_source_file_index>
1596

> <i_lp_mmshare_version>
43012

> <i_f3d_flags>
0

> <s_epik_input>
W0NIM11bQ0gyXU4oW0NIMl1bQ0gzXSljMVtjSF1bY0hdYyhbY0hdbjEpW05IXUMoPU8pW05IXVtDQEBIXTJbQ0gyXVtDSDJdW0NAQEhdKFtPSF0pW0NIMl1bQ0gyXTI=

> <s_epik_cmdline>
J2VwaWtfcHl0aG9uJywgJy1waCcsICc3LjAnLCAnLXRuJywgJzgnLCAnLW1hJywgJzIwMCcsICctbWV0YWxfYmluZGluZycsICctaW1hZScsICc8aW5maWxlLm1hZT4nLCAnLW9tYWUnLCAnPG91dGZpbGUubWFlPic=

> <r_lp_tautomer_probability>
0.999994

> <r_epik_Ionization_Penalty>
0.224167

> <r_epik_Ionization_Penalty_Charging>
0.224146

> <r_epik_Ionization_Penalty_Neutral>
2.1696e-05

> <r_epik_State_Penalty>
0.0144855

> <r_epik_Charging_Adjusted_Penalty>
0.238631

> <i_epik_Tot_Q>
1

> <i_epik_Tot_abs_Q>
1

> <r_epik_Metal_State_Penalty>
0.0446449

> <b_epik_Metal_Only>
0

> <s_lp_Force_Field>
OPLS_2005

> <r_lp_Energy>
22.6617

> <b_lp_Chiralities_Consistent>
1

> <s_lp_Variant>
AV-unprocessed.smi:1596-1

> <Gold.Version>
5.8.1

> <Gold.Id.Protein>
6NUR|6NUR_protein|mol2

> <Gold.PLP.Fitness>
42.9213

> <Gold.PLP.PLP>
-38.5581

> <Gold.PLP.part.hbond>
-2.4654

> <Gold.PLP.part.metal>
0.0000

> <Gold.PLP.part.buried>
1.5390

> <Gold.PLP.part.nonpolar>
-36.9212

> <Gold.PLP.part.repulsive>
0.1405

> <Gold.PLP.ligand.clash>
0.0000

> <Gold.PLP.ligand.torsion>
0.8709

> <Gold.PLP.Chemscore.Hbond>
1.9913

> <Gold.PLP.Chemscore.CHOScore>
0.0000

> <Gold.PLP.Chemscore.Metal>
0.0000

> <Gold.Chemscore.Hbonds>
donor molecule, donor type, donor heavy atom, donor atom, acceptor molecule, acceptor atom, score
      L1  H    13    36       P1  8028  1.00
      L1  H    18    43       P1 10175  0.99

> <Gold.PLP.Chemscore.Internal.Correction>
0.1313

> <Gold.Rescore>
     Score         DG    S(hbond)    S(metal)    S(lipo)     H(rot)  DE(clash)    DE(int)     intcor
     12.81     -19.98       1.86        0.00     110.91       1.83       4.20       2.96       ----

> <Gold.Chemscore.Fitness>
12.8078

> <Gold.Chemscore.DG>
-19.9758

> <Gold.Chemscore.ZeroCoef>
-5.4800

> <Gold.Chemscore.Hbond>
1.8587

> <Gold.Chemscore.Metal>
0.0000

> <Gold.Chemscore.Lipo>
110.9150

> <Gold.Chemscore.Internal_Hbond>
0.0000

> <Gold.Chemscore.DEClash>
4.2046

> <Gold.Chemscore.DEInternal>
2.9633

> <Gold.Chemscore.Rot>
1.8317

> <Gold.Chemscore.Internal.Correction>
   9.000000E+99

> <Gold.Chemscore.Hbonds>
donor molecule, donor type, donor heavy atom, donor atom, acceptor molecule, acceptor atom, score
      L1  H    13    36       P1  8028  0.97
      L1  H    18    43       P1 10175  0.69

> <Gold.Chemscore.Hbond.Weighted>
-6.2079

> <Gold.Chemscore.Metal.Weighted>
-0.0000

> <Gold.Chemscore.Lipo.Weighted>
-12.9770

> <Gold.Chemscore.Internal_Hbond.Weighted>
0.0000

> <Gold.Chemscore.DEClash.Weighted>
4.2046

> <Gold.Chemscore.DEInternal.Weighted>
2.9633

> <Gold.Chemscore.Rot.Weighted>
4.6892

> <Gold.Chemscore.Internal.Correction.Weighted>
   9.000000E+99

> <Gold.Protein.RotatedTorsions>
[ 6907 6896 6895 6894 ] final   63.19 input  -60.11 | X-H torsion
[ 7974 7965 7964 7962 ] final -144.84 input  175.53 | X-H torsion
[ 8008 7997 7996 7995 ] final  -71.15 input   59.86 | X-H torsion
[ 10167 10162 10161 10158 ] final    3.48 input  -65.29 | X-H torsion
[ 10718 10713 10712 10709 ] final  -12.43 input   66.30 | X-H torsion
[ 10763 10752 10751 10750 ] final  -55.66 input  -60.55 | X-H torsion
[ 11005 11000 10999 10996 ] final   35.09 input  -57.11 | X-H torsion

> <Gold.Protein.ActiveResidues>
 VAL166  LYS551  ARG553  GLY616  TRP617  ASP618  TYR619  PRO620  LYS621  CYS622 
 ASP623  PHE694  ASN695  SER759  ASP760  ASP761  ALA762  ILE779  LEU786  VAL792 
 PHE793  MET794  SER795  GLU796  ALA797  LYS798  CYS799  TRP800  GLU811  SER814 

> <Gold.Protein.RotatedAtoms>
  152.4233  134.5915  159.9975 H   0  0  0  0  0  0  0  0  0  0  0  0  # atno 6907 bound_to 6896
  151.6059  133.3346  159.3065 H   0  0  0  0  0  0  0  0  0  0  0  0  # atno 6908 bound_to 6896
  150.8121  134.7320  159.6763 H   0  0  0  0  0  0  0  0  0  0  0  0  # atno 6909 bound_to 6896
  144.8269  140.5659  143.5541 H   0  0  0  0  0  0  0  0  0  0  0  0  # atno 7974 bound_to 7965
  154.5066  140.0821  156.7906 H   0  0  0  0  0  0  0  0  0  0  0  0  # atno 8008 bound_to 7997
  155.3880  140.3431  155.4232 H   0  0  0  0  0  0  0  0  0  0  0  0  # atno 8009 bound_to 7997
  156.1523  140.1562  156.8737 H   0  0  0  0  0  0  0  0  0  0  0  0  # atno 8010 bound_to 7997
  140.6584  143.7368  150.7694 H   0  0  0  0  0  0  0  0  0  0  0  0  # atno 10167 bound_to 10162
  156.6447  130.4938  149.6083 H   0  0  0  0  0  0  0  0  0  0  0  0  # atno 10718 bound_to 10713
  154.1944  135.6422  153.5069 H   0  0  0  0  0  0  0  0  0  0  0  0  # atno 10763 bound_to 10752
  153.0027  135.5436  154.6382 H   0  0  0  0  0  0  0  0  0  0  0  0  # atno 10764 bound_to 10752
  154.5778  135.2922  155.0736 H   0  0  0  0  0  0  0  0  0  0  0  0  # atno 10765 bound_to 10752
  140.2462  134.3357  155.7907 H   0  0  0  0  0  0  0  0  0  0  0  0  # atno 11005 bound_to 11000
  145.4981  139.1485  143.3672 LP  0  0  0  0  0  0  0  0  0  0  0  0  # atno 17320 bound_to 7965
  146.2574  140.5120  142.8868 LP  0  0  0  0  0  0  0  0  0  0  0  0  # atno 17321 bound_to 7965
  140.1032  143.4768  152.2413 LP  0  0  0  0  0  0  0  0  0  0  0  0  # atno 17342 bound_to 10162
  139.5811  144.7511  151.3637 LP  0  0  0  0  0  0  0  0  0  0  0  0  # atno 17343 bound_to 10162
  156.2131  130.6691  151.1291 LP  0  0  0  0  0  0  0  0  0  0  0  0  # atno 17370 bound_to 10713
  157.7160  131.0709  150.6325 LP  0  0  0  0  0  0  0  0  0  0  0  0  # atno 17371 bound_to 10713
  141.2206  133.7327  156.8964 LP  0  0  0  0  0  0  0  0  0  0  0  0  # atno 17394 bound_to 11000
  140.1604  134.9169  157.2707 LP  0  0  0  0  0  0  0  0  0  0  0  0  # atno 17395 bound_to 11000

$$$$
