AV-unprocessed.smi:716|AV-procd|sdf|3489|dock2
  -GOLD-   22720 0483D 1   1.00000     0.00000
 Structure written by MMmdl.
 48 50  0  0  0  0  0  0  0  0  1 V2000
  150.9460  138.3468  154.4751 C   0  0  0  0  0  0  0  0  0  0  0  0
  149.4853  137.9981  154.7684 C   0  0  0  0  0  0  0  0  0  0  0  0
  148.6819  139.1365  154.5055 O   0  0  0  0  0  0  0  0  0  0  0  0
  148.3764  139.8859  155.6748 C   0  0  1  0  0  0  0  0  0  0  0  0
  149.6283  140.1716  156.5153 C   0  0  0  0  0  0  0  0  0  0  0  0
  149.8051  141.4301  155.6630 C   0  0  2  0  0  0  0  0  0  0  0  0
  150.2750  142.5694  156.4413 N   0  0  0  0  0  0  0  0  0  0  0  0
  151.2651  142.5137  157.3433 C   0  0  0  0  0  0  0  0  0  0  0  0
  151.8192  141.4652  157.6743 O   0  0  0  0  0  0  0  0  0  0  0  0
  151.6973  143.8509  157.9564 C   0  0  0  0  0  0  0  0  0  0  0  0
  151.9863  143.7167  159.3902 N   0  0  0  0  0  0  0  0  0  0  0  0
  152.7495  142.6018  159.7000 N   0  0  0  0  0  0  0  0  0  0  0  0
  153.0429  142.3125  160.9246 C   0  0  0  0  0  0  0  0  0  0  0  0
  153.8558  141.0754  161.1681 C   0  0  0  0  0  0  0  0  0  0  0  0
  152.5822  143.1792  161.9924 C   0  0  0  0  0  0  0  0  0  0  0  0
  151.8429  144.2675  161.6887 C   0  0  0  0  0  0  0  0  0  0  0  0
  151.4891  144.5969  160.3093 C   0  0  0  0  0  0  0  0  0  0  0  0
  150.8018  145.5712  160.0046 O   0  0  0  0  0  0  0  0  0  0  0  0
  148.2760  141.4092  155.4050 C   0  0  0  0  0  0  0  0  0  0  0  0
  147.3367  142.1838  156.3400 C   0  0  0  0  0  0  0  0  0  0  0  0
  145.9632  142.2166  155.6646 C   0  0  0  0  0  0  0  0  0  0  0  0
  146.2336  142.0012  154.1720 C   0  0  0  0  0  0  0  0  0  0  0  0
  147.7527  141.8622  154.0432 C   0  0  0  0  0  0  0  0  0  0  0  0
  151.5959  137.4919  154.6629 H   0  0  0  0  0  0  0  0  0  0  0  0
  151.2856  139.1700  155.1042 H   0  0  0  0  0  0  0  0  0  0  0  0
  151.0763  138.6439  153.4342 H   0  0  0  0  0  0  0  0  0  0  0  0
  149.1679  137.1645  154.1402 H   0  0  0  0  0  0  0  0  0  0  0  0
  149.3806  137.6856  155.8081 H   0  0  0  0  0  0  0  0  0  0  0  0
  147.5303  139.4865  156.2372 H   0  0  0  0  0  0  0  0  0  0  0  0
  149.3954  140.3786  157.5616 H   0  0  0  0  0  0  0  0  0  0  0  0
  150.4342  139.4438  156.4199 H   0  0  0  0  0  0  0  0  0  0  0  0
  150.3873  141.2322  154.7598 H   0  0  0  0  0  0  0  0  0  0  0  0
  149.8628  143.4684  156.2368 H   0  0  0  0  0  0  0  0  0  0  0  0
  152.5863  144.2246  157.4442 H   0  0  0  0  0  0  0  0  0  0  0  0
  150.9196  144.5919  157.7655 H   0  0  0  0  0  0  0  0  0  0  0  0
  153.9428  140.8633  162.2340 H   0  0  0  0  0  0  0  0  0  0  0  0
  154.8628  141.1887  160.7656 H   0  0  0  0  0  0  0  0  0  0  0  0
  153.3965  140.2079  160.6927 H   0  0  0  0  0  0  0  0  0  0  0  0
  152.8330  142.9496  163.0177 H   0  0  0  0  0  0  0  0  0  0  0  0
  151.5005  144.9119  162.4847 H   0  0  0  0  0  0  0  0  0  0  0  0
  147.2777  141.7466  157.3372 H   0  0  0  0  0  0  0  0  0  0  0  0
  147.6808  143.2107  156.4675 H   0  0  0  0  0  0  0  0  0  0  0  0
  145.3340  141.4119  156.0470 H   0  0  0  0  0  0  0  0  0  0  0  0
  145.4470  143.1579  155.8567 H   0  0  0  0  0  0  0  0  0  0  0  0
  145.7433  141.0865  153.8363 H   0  0  0  0  0  0  0  0  0  0  0  0
  145.8538  142.8217  153.5625 H   0  0  0  0  0  0  0  0  0  0  0  0
  148.1799  142.8330  153.7894 H   0  0  0  0  0  0  0  0  0  0  0  0
  148.0233  141.1869  153.2318 H   0  0  0  0  0  0  0  0  0  0  0  0
  1  2  1  0  0  0  0
  1 24  1  0  0  0  0
  1 25  1  0  0  0  0
  1 26  1  0  0  0  0
  2  3  1  0  0  0  0
  2 27  1  0  0  0  0
  2 28  1  0  0  0  0
  3  4  1  0  0  0  0
  4 19  1  0  0  0  0
  4  5  1  0  0  0  0
  4 29  1  0  0  0  0
  5  6  1  0  0  0  0
  5 30  1  0  0  0  0
  5 31  1  0  0  0  0
  6  7  1  0  0  0  0
  6 19  1  0  0  0  0
  6 32  1  0  0  0  0
  7  8  1  0  0  0  0
  7 33  1  0  0  0  0
  8  9  2  0  0  0  0
  8 10  1  0  0  0  0
 10 11  1  0  0  0  0
 10 34  1  0  0  0  0
 10 35  1  0  0  0  0
 11 17  1  0  0  0  0
 11 12  1  0  0  0  0
 12 13  2  0  0  0  0
 13 14  1  0  0  0  0
 13 15  1  0  0  0  0
 14 36  1  0  0  0  0
 14 37  1  0  0  0  0
 14 38  1  0  0  0  0
 15 16  2  0  0  0  0
 15 39  1  0  0  0  0
 16 17  1  0  0  0  0
 16 40  1  0  0  0  0
 17 18  2  0  0  0  0
 19 23  1  0  0  0  0
 19 20  1  0  0  0  0
 20 21  1  0  0  0  0
 20 41  1  0  0  0  0
 20 42  1  0  0  0  0
 21 22  1  0  0  0  0
 21 43  1  0  0  0  0
 21 44  1  0  0  0  0
 22 23  1  0  0  0  0
 22 45  1  0  0  0  0
 22 46  1  0  0  0  0
 23 47  1  0  0  0  0
 23 48  1  0  0  0  0
M  END
> <s_m_source_file>
AV-unprocessed.smi

> <i_m_source_file_index>
716

> <i_lp_mmshare_version>
43012

> <i_f3d_flags>
0

> <s_epik_input>
W0NIMl0xW0NIMl1bQ0gyXVtDSDJdQzEyW0NASF0oT1tDSDJdW0NIM10pW0NIMl1bQ0BIXTJbTkhdQyg9TylbQ0gyXW4zbmMoW0NIM10pW2NIXVtjSF1jMz1P

> <s_epik_cmdline>
J2VwaWtfcHl0aG9uJywgJy1waCcsICc3LjAnLCAnLXRuJywgJzgnLCAnLW1hJywgJzIwMCcsICctbWV0YWxfYmluZGluZycsICctaW1hZScsICc8aW5maWxlLm1hZT4nLCAnLW9tYWUnLCAnPG91dGZpbGUubWFlPic=

> <r_lp_tautomer_probability>
1

> <r_epik_Ionization_Penalty>
4.75561e-08

> <r_epik_Ionization_Penalty_Charging>
2.86617e-08

> <r_epik_Ionization_Penalty_Neutral>
1.88944e-08

> <r_epik_State_Penalty>
-0

> <r_epik_Charging_Adjusted_Penalty>
2.86617e-08

> <i_epik_Tot_Q>
0

> <i_epik_Tot_abs_Q>
0

> <r_epik_Metal_State_Penalty>
-0

> <b_epik_Metal_Only>
0

> <s_lp_Force_Field>
OPLS_2005

> <r_lp_Energy>
50.6956

> <b_lp_Chiralities_Consistent>
1

> <s_lp_Variant>
AV-unprocessed.smi:716-4

> <Gold.Version>
5.8.1

> <Gold.Id.Protein>
6NUR|6NUR_protein|mol2

> <Gold.PLP.Fitness>
49.8455

> <Gold.PLP.PLP>
-48.8865

> <Gold.PLP.part.hbond>
-1.4417

> <Gold.PLP.part.metal>
0.0000

> <Gold.PLP.part.buried>
-5.9847

> <Gold.PLP.part.nonpolar>
-42.2773

> <Gold.PLP.part.repulsive>
0.4232

> <Gold.PLP.ligand.clash>
0.0000

> <Gold.PLP.ligand.torsion>
1.2249

> <Gold.PLP.Chemscore.Hbond>
1.0000

> <Gold.PLP.Chemscore.CHOScore>
0.0000

> <Gold.PLP.Chemscore.Metal>
0.0000

> <Gold.Chemscore.Hbonds>
donor molecule, donor type, donor heavy atom, donor atom, acceptor molecule, acceptor atom, score
      L1  H     7    33       P1  8028  1.00

> <Gold.PLP.Chemscore.Internal.Correction>
0.4089

> <Gold.Rescore>
     Score         DG    S(hbond)    S(metal)    S(lipo)     H(rot)  DE(clash)    DE(int)     intcor
     12.64     -16.99       1.00        0.00     107.79       1.73       0.05       4.30       ----

> <Gold.Chemscore.Fitness>
12.6437

> <Gold.Chemscore.DG>
-16.9884

> <Gold.Chemscore.ZeroCoef>
-5.4800

> <Gold.Chemscore.Hbond>
0.9994

> <Gold.Chemscore.Metal>
0.0000

> <Gold.Chemscore.Lipo>
107.7903

> <Gold.Chemscore.Internal_Hbond>
0.0000

> <Gold.Chemscore.DEClash>
0.0485

> <Gold.Chemscore.DEInternal>
4.2962

> <Gold.Chemscore.Rot>
1.7348

> <Gold.Chemscore.Internal.Correction>
   9.000000E+99

> <Gold.Chemscore.Hbonds>
donor molecule, donor type, donor heavy atom, donor atom, acceptor molecule, acceptor atom, score
      L1  H     7    33       P1  8028  1.00

> <Gold.Chemscore.Hbond.Weighted>
-3.3381

> <Gold.Chemscore.Metal.Weighted>
-0.0000

> <Gold.Chemscore.Lipo.Weighted>
-12.6115

> <Gold.Chemscore.Internal_Hbond.Weighted>
0.0000

> <Gold.Chemscore.DEClash.Weighted>
0.0485

> <Gold.Chemscore.DEInternal.Weighted>
4.2962

> <Gold.Chemscore.Rot.Weighted>
4.4411

> <Gold.Chemscore.Internal.Correction.Weighted>
   9.000000E+99

> <Gold.Protein.RotatedTorsions>
[ 6907 6896 6895 6894 ] final -179.42 input  -60.11 | X-H torsion
[ 7974 7965 7964 7962 ] final  162.67 input  175.53 | X-H torsion
[ 8008 7997 7996 7995 ] final  163.91 input   59.86 | X-H torsion
[ 10167 10162 10161 10158 ] final   40.08 input  -65.29 | X-H torsion
[ 10718 10713 10712 10709 ] final  -64.85 input   66.30 | X-H torsion
[ 10763 10752 10751 10750 ] final -127.01 input  -60.55 | X-H torsion
[ 11005 11000 10999 10996 ] final -160.96 input  -57.11 | X-H torsion

> <Gold.Protein.ActiveResidues>
 VAL166  LYS551  ARG553  GLY616  TRP617  ASP618  TYR619  PRO620  LYS621  CYS622 
 ASP623  PHE694  ASN695  SER759  ASP760  ASP761  ALA762  ILE779  LEU786  VAL792 
 PHE793  MET794  SER795  GLU796  ALA797  LYS798  CYS799  TRP800  GLU811  SER814 

> <Gold.Protein.RotatedAtoms>
  151.6531  133.3320  159.3156 H   0  0  0  0  0  0  0  0  0  0  0  0  # atno 6907 bound_to 6896
  150.7950  134.7007  159.6558 H   0  0  0  0  0  0  0  0  0  0  0  0  # atno 6908 bound_to 6896
  152.4036  134.6249  160.0112 H   0  0  0  0  0  0  0  0  0  0  0  0  # atno 6909 bound_to 6896
  144.7625  139.8073  143.6327 H   0  0  0  0  0  0  0  0  0  0  0  0  # atno 7974 bound_to 7965
  156.1921  140.1711  156.8072 H   0  0  0  0  0  0  0  0  0  0  0  0  # atno 8008 bound_to 7997
  154.5484  140.0722  156.8658 H   0  0  0  0  0  0  0  0  0  0  0  0  # atno 8009 bound_to 7997
  155.3077  140.3365  155.4247 H   0  0  0  0  0  0  0  0  0  0  0  0  # atno 8010 bound_to 7997
  140.3777  144.2021  150.6131 H   0  0  0  0  0  0  0  0  0  0  0  0  # atno 10167 bound_to 10162
  156.0704  130.4239  150.1480 H   0  0  0  0  0  0  0  0  0  0  0  0  # atno 10718 bound_to 10713
  154.8749  135.3976  154.3524 H   0  0  0  0  0  0  0  0  0  0  0  0  # atno 10763 bound_to 10752
  153.4307  135.7025  153.6238 H   0  0  0  0  0  0  0  0  0  0  0  0  # atno 10764 bound_to 10752
  153.4860  135.3758  155.2437 H   0  0  0  0  0  0  0  0  0  0  0  0  # atno 10765 bound_to 10752
  140.6257  134.4703  157.5226 H   0  0  0  0  0  0  0  0  0  0  0  0  # atno 11005 bound_to 11000
  146.1703  139.4850  142.9932 LP  0  0  0  0  0  0  0  0  0  0  0  0  # atno 17320 bound_to 7965
  145.6572  141.0249  143.1728 LP  0  0  0  0  0  0  0  0  0  0  0  0  # atno 17321 bound_to 7965
  140.4969  143.2330  151.8736 LP  0  0  0  0  0  0  0  0  0  0  0  0  # atno 17342 bound_to 10162
  139.4798  144.5103  151.8941 LP  0  0  0  0  0  0  0  0  0  0  0  0  # atno 17343 bound_to 10162
  156.9532  130.9781  151.3494 LP  0  0  0  0  0  0  0  0  0  0  0  0  # atno 17370 bound_to 10713
  157.5771  130.8351  149.8471 LP  0  0  0  0  0  0  0  0  0  0  0  0  # atno 17371 bound_to 10713
  139.9135  134.8294  156.1444 LP  0  0  0  0  0  0  0  0  0  0  0  0  # atno 17394 bound_to 11000
  141.0711  133.6796  156.2141 LP  0  0  0  0  0  0  0  0  0  0  0  0  # atno 17395 bound_to 11000

$$$$
