AV-unprocessed.smi:1178|AV-procd|sdf|4957|dock4
  -GOLD-   22720 3543D 1   1.00000     0.00000
 Structure written by MMmdl.
 32 33  0  0  0  0  0  0  0  0  2 V2000
  146.9549  137.9717  156.9928 O   0  0  0  0  0  0  0  0  0  0  0  0
  147.4360  137.0959  156.2744 C   0  0  0  0  0  0  0  0  0  0  0  0
  147.9574  137.4769  154.8776 C   0  0  0  0  0  0  0  0  0  0  0  0
  149.3033  138.0793  154.8579 N   0  0  0  0  0  0  0  0  0  0  0  0
  150.3777  137.2843  155.2949 C   0  0  0  0  0  0  0  0  0  0  0  0
  151.6431  137.7444  155.3082 C   0  0  0  0  0  0  0  0  0  0  0  0
  151.8866  139.1076  154.8529 C   0  0  0  0  0  0  0  0  0  0  0  0
  153.0357  139.5444  154.8579 O   0  0  0  0  0  0  0  0  0  0  0  0
  150.8116  139.8393  154.4373 N   0  5  0  0  0  0  0  0  0  0  0  0
  149.5301  139.3578  154.4283 C   0  0  0  0  0  0  0  0  0  0  0  0
  148.5758  140.0320  154.0406 O   0  0  0  0  0  0  0  0  0  0  0  0
  147.5309  135.8138  156.6614 N   0  0  0  0  0  0  0  0  0  0  0  0
  147.0752  135.2988  157.9429 C   0  0  0  0  0  0  0  0  0  0  0  0
  148.2103  135.3530  158.9777 C   0  0  0  0  0  0  0  0  0  0  0  0
  147.6929  135.2033  160.3438 N   0  0  0  0  0  0  0  0  0  0  0  0
  147.3047  134.0113  160.8529 C   0  0  0  0  0  0  0  0  0  0  0  0
  147.3481  132.9402  160.2485 O   0  0  0  0  0  0  0  0  0  0  0  0
  146.7751  134.0777  162.2904 C   0  0  0  0  0  0  0  0  0  0  0  0
  146.8763  135.8123  162.7397 S   0  0  0  0  0  0  0  0  0  0  0  0
  147.5298  136.2411  161.1818 C   0  0  0  0  0  0  0  0  0  0  0  0
  147.7998  137.4106  160.9098 O   0  0  0  0  0  0  0  0  0  0  0  0
  147.9333  136.5877  154.2455 H   0  0  0  0  0  0  0  0  0  0  0  0
  147.2378  138.1607  154.4255 H   0  0  0  0  0  0  0  0  0  0  0  0
  150.1122  136.2860  155.6107 H   0  0  0  0  0  0  0  0  0  0  0  0
  152.4574  137.1203  155.6454 H   0  0  0  0  0  0  0  0  0  0  0  0
  147.9314  135.1512  156.0125 H   0  0  0  0  0  0  0  0  0  0  0  0
  146.2223  135.8875  158.2840 H   0  0  0  0  0  0  0  0  0  0  0  0
  146.7309  134.2710  157.8164 H   0  0  0  0  0  0  0  0  0  0  0  0
  148.9426  134.5715  158.7665 H   0  0  0  0  0  0  0  0  0  0  0  0
  148.7579  136.2922  158.8798 H   0  0  0  0  0  0  0  0  0  0  0  0
  145.7432  133.7290  162.3376 H   0  0  0  0  0  0  0  0  0  0  0  0
  147.3886  133.4714  162.9571 H   0  0  0  0  0  0  0  0  0  0  0  0
  1  2  2  0  0  0  0
  2  3  1  0  0  0  0
  2 12  1  0  0  0  0
  3  4  1  0  0  0  0
  3 22  1  0  0  0  0
  3 23  1  0  0  0  0
  4 10  1  0  0  0  0
  4  5  1  0  0  0  0
  5  6  2  0  0  0  0
  5 24  1  0  0  0  0
  6  7  1  0  0  0  0
  6 25  1  0  0  0  0
  7  8  2  0  0  0  0
  7  9  1  0  0  0  0
  9 10  1  0  0  0  0
 10 11  2  0  0  0  0
 12 13  1  0  0  0  0
 12 26  1  0  0  0  0
 13 14  1  0  0  0  0
 13 27  1  0  0  0  0
 13 28  1  0  0  0  0
 14 15  1  0  0  0  0
 14 29  1  0  0  0  0
 14 30  1  0  0  0  0
 15 20  1  0  0  0  0
 15 16  1  0  0  0  0
 16 17  2  0  0  0  0
 16 18  1  0  0  0  0
 18 19  1  0  0  0  0
 18 31  1  0  0  0  0
 18 32  1  0  0  0  0
 19 20  1  0  0  0  0
 20 21  2  0  0  0  0
M  CHG  1   9  -1
M  END
> <s_m_source_file>
AV-unprocessed.smi

> <i_m_source_file_index>
1178

> <i_lp_mmshare_version>
43012

> <i_f3d_flags>
0

> <s_epik_input>
Tz1jMVtuSF1jKD1PKVtjSF1bY0hdbjFbQ0gyXUMoPU8pW05IXVtDSDJdW0NIMl1OMkMoPU8pW0NIMl1TQzI9Tw==

> <s_epik_cmdline>
J2VwaWtfcHl0aG9uJywgJy1waCcsICc3LjAnLCAnLXRuJywgJzgnLCAnLW1hJywgJzIwMCcsICctbWV0YWxfYmluZGluZycsICctaW1hZScsICc8aW5maWxlLm1hZT4nLCAnLW9tYWUnLCAnPG91dGZpbGUubWFlPic=

> <r_lp_tautomer_probability>
0.999537

> <r_epik_Ionization_Penalty>
3.05962

> <r_epik_Ionization_Penalty_Charging>
2.46074e-08

> <r_epik_Ionization_Penalty_Neutral>
3.05962

> <r_epik_State_Penalty>
3.05863

> <r_epik_Charging_Adjusted_Penalty>
3.05863

> <i_epik_Tot_Q>
-1

> <i_epik_Tot_abs_Q>
1

> <r_epik_Metal_State_Penalty>
0.458209

> <b_epik_Metal_Only>
1

> <s_lp_Force_Field>
OPLS_2005

> <r_lp_Energy>
17.4268

> <b_lp_Chiralities_Consistent>
1

> <s_lp_Variant>
AV-unprocessed.smi:1178-2

> <Gold.Version>
5.8.1

> <Gold.Id.Protein>
6NUR|6NUR_protein|mol2

> <Gold.PLP.Fitness>
42.1835

> <Gold.PLP.PLP>
-32.8834

> <Gold.PLP.part.hbond>
-5.0000

> <Gold.PLP.part.metal>
0.0000

> <Gold.PLP.part.buried>
-4.2506

> <Gold.PLP.part.nonpolar>
-24.0077

> <Gold.PLP.part.repulsive>
0.2622

> <Gold.PLP.ligand.clash>
0.0000

> <Gold.PLP.ligand.torsion>
0.7812

> <Gold.PLP.Chemscore.Hbond>
3.6100

> <Gold.PLP.Chemscore.CHOScore>
0.0000

> <Gold.PLP.Chemscore.Metal>
0.0000

> <Gold.Chemscore.Hbonds>
donor molecule, donor type, donor heavy atom, donor atom, acceptor molecule, acceptor atom, score
      P1  H  6931  6943       L1    21  0.77
      P1  H  6934  6947       L1    21  0.80
      P1  H  7989  7998       L1     9  0.85
      P1  H  7997  8010       L1     8  1.00

> <Gold.PLP.Chemscore.Internal.Correction>
0.0326

> <Gold.Rescore>
     Score         DG    S(hbond)    S(metal)    S(lipo)     H(rot)  DE(clash)    DE(int)     intcor
     13.17     -14.01       3.60        0.00      33.78       2.91       0.16       0.68       ----

> <Gold.Chemscore.Fitness>
13.1688

> <Gold.Chemscore.DG>
-14.0148

> <Gold.Chemscore.ZeroCoef>
-5.4800

> <Gold.Chemscore.Hbond>
3.6019

> <Gold.Chemscore.Metal>
0.0000

> <Gold.Chemscore.Lipo>
33.7767

> <Gold.Chemscore.Internal_Hbond>
0.0000

> <Gold.Chemscore.DEClash>
0.1639

> <Gold.Chemscore.DEInternal>
0.6821

> <Gold.Chemscore.Rot>
2.9092

> <Gold.Chemscore.Internal.Correction>
   9.000000E+99

> <Gold.Chemscore.Hbonds>
donor molecule, donor type, donor heavy atom, donor atom, acceptor molecule, acceptor atom, score
      P1  H  6931  6943       L1    21  0.75
      P1  H  6934  6947       L1    21  0.80
      P1  H  7989  7998       L1     9  0.15
      P1  H  7997  8010       L1     8  1.00

> <Gold.Chemscore.Hbond.Weighted>
-12.0303

> <Gold.Chemscore.Metal.Weighted>
-0.0000

> <Gold.Chemscore.Lipo.Weighted>
-3.9519

> <Gold.Chemscore.Internal_Hbond.Weighted>
0.0000

> <Gold.Chemscore.DEClash.Weighted>
0.1639

> <Gold.Chemscore.DEInternal.Weighted>
0.6821

> <Gold.Chemscore.Rot.Weighted>
7.4474

> <Gold.Chemscore.Internal.Correction.Weighted>
   9.000000E+99

> <Gold.Protein.RotatedTorsions>
[ 6907 6896 6895 6894 ] final    8.23 input  -60.11 | X-H torsion
[ 7974 7965 7964 7962 ] final  -34.08 input  175.53 | X-H torsion
[ 8008 7997 7996 7995 ] final   99.63 input   59.86 | X-H torsion
[ 10167 10162 10161 10158 ] final -142.38 input  -65.29 | X-H torsion
[ 10718 10713 10712 10709 ] final   46.37 input   66.30 | X-H torsion
[ 10763 10752 10751 10750 ] final  -94.49 input  -60.55 | X-H torsion
[ 11005 11000 10999 10996 ] final -150.17 input  -57.11 | X-H torsion

> <Gold.Protein.ActiveResidues>
 VAL166  LYS551  ARG553  GLY616  TRP617  ASP618  TYR619  PRO620  LYS621  CYS622 
 ASP623  PHE694  ASN695  SER759  ASP760  ASP761  ALA762  ILE779  LEU786  VAL792 
 PHE793  MET794  SER795  GLU796  ALA797  LYS798  CYS799  TRP800  GLU811  SER814 

> <Gold.Protein.RotatedAtoms>
  151.7027  135.0927  160.0253 H   0  0  0  0  0  0  0  0  0  0  0  0  # atno 6907 bound_to 6896
  152.3710  133.6415  159.6096 H   0  0  0  0  0  0  0  0  0  0  0  0  # atno 6908 bound_to 6896
  150.7674  133.9186  159.3432 H   0  0  0  0  0  0  0  0  0  0  0  0  # atno 6909 bound_to 6896
  146.0858  140.5995  142.8887 H   0  0  0  0  0  0  0  0  0  0  0  0  # atno 7974 bound_to 7965
  156.1123  140.3226  155.8091 H   0  0  0  0  0  0  0  0  0  0  0  0  # atno 8008 bound_to 7997
  155.4650  140.0542  157.3003 H   0  0  0  0  0  0  0  0  0  0  0  0  # atno 8009 bound_to 7997
  154.4769  140.2036  155.9871 H   0  0  0  0  0  0  0  0  0  0  0  0  # atno 8010 bound_to 7997
  139.8094  143.7723  152.2663 H   0  0  0  0  0  0  0  0  0  0  0  0  # atno 10167 bound_to 10162
  157.4474  130.8117  149.7754 H   0  0  0  0  0  0  0  0  0  0  0  0  # atno 10718 bound_to 10713
  154.7060  135.5155  153.8596 H   0  0  0  0  0  0  0  0  0  0  0  0  # atno 10763 bound_to 10752
  153.0741  135.6611  154.0191 H   0  0  0  0  0  0  0  0  0  0  0  0  # atno 10764 bound_to 10752
  154.0042  135.3008  155.3379 H   0  0  0  0  0  0  0  0  0  0  0  0  # atno 10765 bound_to 10752
  140.7430  134.3493  157.5143 H   0  0  0  0  0  0  0  0  0  0  0  0  # atno 11005 bound_to 11000
  144.7325  140.4712  143.6928 LP  0  0  0  0  0  0  0  0  0  0  0  0  # atno 17320 bound_to 7965
  145.6132  139.1515  143.3064 LP  0  0  0  0  0  0  0  0  0  0  0  0  # atno 17321 bound_to 7965
  139.7868  144.7425  151.0011 LP  0  0  0  0  0  0  0  0  0  0  0  0  # atno 17342 bound_to 10162
  140.7818  143.4484  151.0449 LP  0  0  0  0  0  0  0  0  0  0  0  0  # atno 17343 bound_to 10162
  155.9973  130.3901  150.2746 LP  0  0  0  0  0  0  0  0  0  0  0  0  # atno 17370 bound_to 10713
  157.0915  131.0171  151.3119 LP  0  0  0  0  0  0  0  0  0  0  0  0  # atno 17371 bound_to 10713
  139.8802  134.9093  156.2987 LP  0  0  0  0  0  0  0  0  0  0  0  0  # atno 17394 bound_to 11000
  140.9820  133.7262  156.0685 LP  0  0  0  0  0  0  0  0  0  0  0  0  # atno 17395 bound_to 11000

$$$$
