AV-unprocessed.smi:290|AV-procd|sdf|2217|dock7
  -GOLD-   2262022 53D 1   1.00000     0.00000
 Structure written by MMmdl.
 59 62  0  0  0  0  0  0  0  0  2 V2000
  153.1235  139.8196  159.0147 C   0  0  0  0  0  0  0  0  0  0  0  0
  152.2562  139.3989  157.8171 C   0  0  2  0  0  0  0  0  0  0  0  0
  153.0202  139.4021  156.6197 O   0  0  0  0  0  0  0  0  0  0  0  0
  152.1011  139.3967  155.5429 C   0  0  0  0  0  0  0  0  0  0  0  0
  151.0656  140.4253  155.9806 C   0  0  0  0  0  0  0  0  0  0  0  0
  151.0112  140.2714  157.5039 C   0  0  2  0  0  0  0  0  0  0  0  0
  151.1149  141.5630  158.0813 O   0  0  0  0  0  0  0  0  0  0  0  0
  149.6824  139.6331  157.9787 C   0  0  0  0  0  0  0  0  0  0  0  0
  149.4839  138.2766  157.4904 N   0  0  0  0  0  0  0  0  0  0  0  0
  150.1496  137.1456  157.9059 C   0  0  0  0  0  0  0  0  0  0  0  0
  149.7967  136.0404  157.3088 N   0  0  0  0  0  0  0  0  0  0  0  0
  148.8096  136.4372  156.4141 C   0  0  0  0  0  0  0  0  0  0  0  0
  147.9994  135.7622  155.4563 C   0  0  0  0  0  0  0  0  0  0  0  0
  148.0372  134.4368  155.1954 N   0  0  0  0  0  0  0  0  0  0  0  0
  149.3561  133.9324  154.8165 C   0  0  0  0  0  0  0  0  0  0  0  0
  149.1177  132.8284  153.7812 C   0  0  0  0  0  0  0  0  0  0  0  0
  147.8011  133.2854  153.1467 C   0  0  1  0  0  0  0  0  0  0  0  0
  147.0725  132.3213  152.2641 N   0  3  1  0  0  0  0  0  0  0  0  0
  146.9284  130.9935  152.9112 C   0  0  0  0  0  0  0  0  0  0  0  0
  145.7898  132.8162  151.6889 C   0  0  0  0  0  0  0  0  0  0  0  0
  145.2265  131.8949  150.5915 C   0  0  0  0  0  0  0  0  0  0  0  0
  146.0694  131.9135  149.4591 O   0  0  0  0  0  0  0  0  0  0  0  0
  147.0057  133.8586  154.3352 C   0  0  1  0  0  0  0  0  0  0  0  0
  146.1756  132.8486  155.1450 C   0  0  0  0  0  0  0  0  0  0  0  0
  147.0888  136.4921  154.7674 N   0  0  0  0  0  0  0  0  0  0  0  0
  146.9881  137.8080  154.9780 C   0  0  0  0  0  0  0  0  0  0  0  0
  147.6829  138.5732  155.8221 N   0  0  0  0  0  0  0  0  0  0  0  0
  148.5899  137.8392  156.5282 C   0  0  0  0  0  0  0  0  0  0  0  0
  148.0518  134.1535  152.5345 H   0  0  0  0  0  0  0  0  0  0  0  0
  146.3160  134.6203  153.9710 H   0  0  0  0  0  0  0  0  0  0  0  0
  152.5416  139.8360  159.9365 H   0  0  0  0  0  0  0  0  0  0  0  0
  153.5557  140.8100  158.8689 H   0  0  0  0  0  0  0  0  0  0  0  0
  153.9476  139.1206  159.1574 H   0  0  0  0  0  0  0  0  0  0  0  0
  151.9431  138.3649  157.9657 H   0  0  0  0  0  0  0  0  0  0  0  0
  152.5819  139.6566  154.5995 H   0  0  0  0  0  0  0  0  0  0  0  0
  151.6535  138.4063  155.4430 H   0  0  0  0  0  0  0  0  0  0  0  0
  151.4194  141.4185  155.6983 H   0  0  0  0  0  0  0  0  0  0  0  0
  150.1022  140.2738  155.4924 H   0  0  0  0  0  0  0  0  0  0  0  0
  150.5529  141.5987  158.8400 H   0  0  0  0  0  0  0  0  0  0  0  0
  149.6372  139.6132  159.0684 H   0  0  0  0  0  0  0  0  0  0  0  0
  148.8382  140.2417  157.6516 H   0  0  0  0  0  0  0  0  0  0  0  0
  150.9152  137.1677  158.6678 H   0  0  0  0  0  0  0  0  0  0  0  0
  149.9543  134.7329  154.3770 H   0  0  0  0  0  0  0  0  0  0  0  0
  149.8935  133.5555  155.6873 H   0  0  0  0  0  0  0  0  0  0  0  0
  149.9327  132.7423  153.0622 H   0  0  0  0  0  0  0  0  0  0  0  0
  149.0202  131.8758  154.3008 H   0  0  0  0  0  0  0  0  0  0  0  0
  146.2889  131.0586  153.7923 H   0  0  0  0  0  0  0  0  0  0  0  0
  147.8987  130.6064  153.2237 H   0  0  0  0  0  0  0  0  0  0  0  0
  146.5029  130.2538  152.2353 H   0  0  0  0  0  0  0  0  0  0  0  0
  145.0572  132.9353  152.4884 H   0  0  0  0  0  0  0  0  0  0  0  0
  145.9197  133.8021  151.2475 H   0  0  0  0  0  0  0  0  0  0  0  0
  145.0916  130.8700  150.9340 H   0  0  0  0  0  0  0  0  0  0  0  0
  144.2424  132.2515  150.2862 H   0  0  0  0  0  0  0  0  0  0  0  0
  146.8416  131.4015  149.6488 H   0  0  0  0  0  0  0  0  0  0  0  0
  145.4024  132.3843  154.5340 H   0  0  0  0  0  0  0  0  0  0  0  0
  145.6715  133.3464  155.9737 H   0  0  0  0  0  0  0  0  0  0  0  0
  146.7963  132.0613  155.5727 H   0  0  0  0  0  0  0  0  0  0  0  0
  146.2450  138.3210  154.3849 H   0  0  0  0  0  0  0  0  0  0  0  0
  147.6863  132.1723  151.4757 H   0  0  0  0  0  0  0  0  0  0  0  0
  1  2  1  0  0  0  0
  1 31  1  0  0  0  0
  1 32  1  0  0  0  0
  1 33  1  0  0  0  0
  2  6  1  0  0  0  0
  2  3  1  0  0  0  0
  2 34  1  0  0  0  0
  3  4  1  0  0  0  0
  4  5  1  0  0  0  0
  4 35  1  0  0  0  0
  4 36  1  0  0  0  0
  5  6  1  0  0  0  0
  5 37  1  0  0  0  0
  5 38  1  0  0  0  0
  6  7  1  0  0  0  0
  6  8  1  0  0  0  0
  7 39  1  0  0  0  0
  8  9  1  0  0  0  0
  8 40  1  0  0  0  0
  8 41  1  0  0  0  0
  9 28  1  0  0  0  0
  9 10  1  0  0  0  0
 10 11  2  0  0  0  0
 10 42  1  0  0  0  0
 11 12  1  0  0  0  0
 12 28  2  0  0  0  0
 12 13  1  0  0  0  0
 13 14  1  0  0  0  0
 13 25  2  0  0  0  0
 14 23  1  0  0  0  0
 14 15  1  0  0  0  0
 15 16  1  0  0  0  0
 15 43  1  0  0  0  0
 15 44  1  0  0  0  0
 16 17  1  0  0  0  0
 16 45  1  0  0  0  0
 16 46  1  0  0  0  0
 17 29  1  0  0  0  0
 17 18  1  0  0  0  0
 17 23  1  0  0  0  0
 18 19  1  0  0  0  0
 18 20  1  0  0  0  0
 18 59  1  0  0  0  0
 19 47  1  0  0  0  0
 19 48  1  0  0  0  0
 19 49  1  0  0  0  0
 20 21  1  0  0  0  0
 20 50  1  0  0  0  0
 20 51  1  0  0  0  0
 21 22  1  0  0  0  0
 21 52  1  0  0  0  0
 21 53  1  0  0  0  0
 22 54  1  0  0  0  0
 23 30  1  0  0  0  0
 23 24  1  0  0  0  0
 24 55  1  0  0  0  0
 24 56  1  0  0  0  0
 24 57  1  0  0  0  0
 25 26  1  0  0  0  0
 26 27  2  0  0  0  0
 26 58  1  0  0  0  0
 27 28  1  0  0  0  0
M  CHG  1  18   1
M  END
> <s_m_source_file>
AV-unprocessed.smi

> <i_m_source_file_index>
290

> <i_lp_mmshare_version>
43012

> <i_f3d_flags>
0

> <s_epik_input>
W0NIMl0xW0NIMl1PW0NAQEhdKFtDSDNdKVtDQEBdMShbT0hdKVtDSDJdbihbY0hdbjIpYyhjMjMpbltjSF1uYzNONFtDSDJdW0NIMl1bQ0BIXShbQ0BIXTRbQ0gzXSlOKFtDSDNdKVtDSDJdW0NIMl1bT0hd

> <s_epik_cmdline>
J2VwaWtfcHl0aG9uJywgJy1waCcsICc3LjAnLCAnLXRuJywgJzgnLCAnLW1hJywgJzIwMCcsICctbWV0YWxfYmluZGluZycsICctaW1hZScsICc8aW5maWxlLm1hZT4nLCAnLW9tYWUnLCAnPG91dGZpbGUubWFlPic=

> <r_lp_tautomer_probability>
1

> <r_epik_Ionization_Penalty>
0.0036983

> <r_epik_Ionization_Penalty_Charging>
0.0032725

> <r_epik_Ionization_Penalty_Neutral>
0.000425798

> <r_epik_State_Penalty>
-0

> <r_epik_Charging_Adjusted_Penalty>
0.0032725

> <i_epik_Tot_Q>
1

> <i_epik_Tot_abs_Q>
1

> <r_epik_Metal_State_Penalty>
-0

> <b_epik_Metal_Only>
0

> <s_lp_Force_Field>
OPLS_2005

> <r_lp_Energy>
65.9865

> <b_lp_Chiralities_Consistent>
1

> <s_lp_Variant>
AV-unprocessed.smi:290-3

> <Gold.Version>
5.8.1

> <Gold.Id.Protein>
6NUR|6NUR_protein|mol2

> <Gold.PLP.Fitness>
44.1660

> <Gold.PLP.PLP>
-35.5496

> <Gold.PLP.part.hbond>
-2.9635

> <Gold.PLP.part.metal>
0.0000

> <Gold.PLP.part.buried>
-5.7019

> <Gold.PLP.part.nonpolar>
-26.8518

> <Gold.PLP.part.repulsive>
0.1814

> <Gold.PLP.ligand.clash>
0.0130

> <Gold.PLP.ligand.torsion>
0.3761

> <Gold.PLP.Chemscore.Hbond>
3.0000

> <Gold.PLP.Chemscore.CHOScore>
0.0000

> <Gold.PLP.Chemscore.Metal>
0.0000

> <Gold.Chemscore.Hbonds>
donor molecule, donor type, donor heavy atom, donor atom, acceptor molecule, acceptor atom, score
      L1  H    18    59       P1 10747  0.59
      L1  H    22    54       P1 10747  0.41
      P1  H  7997  8009       L1     3  1.00

> <Gold.PLP.Chemscore.Internal.Correction>
0.3816

> <Gold.Rescore>
     Score         DG    S(hbond)    S(metal)    S(lipo)     H(rot)  DE(clash)    DE(int)     intcor
     14.71     -15.56       2.99        0.00      81.15       3.67       0.03       0.83       ----

> <Gold.Chemscore.Fitness>
14.7102

> <Gold.Chemscore.DG>
-15.5621

> <Gold.Chemscore.ZeroCoef>
-5.4800

> <Gold.Chemscore.Hbond>
2.9858

> <Gold.Chemscore.Metal>
0.0000

> <Gold.Chemscore.Lipo>
81.1462

> <Gold.Chemscore.Internal_Hbond>
0.0000

> <Gold.Chemscore.DEClash>
0.0263

> <Gold.Chemscore.DEInternal>
0.8257

> <Gold.Chemscore.Rot>
3.6658

> <Gold.Chemscore.Internal.Correction>
   9.000000E+99

> <Gold.Chemscore.Hbonds>
donor molecule, donor type, donor heavy atom, donor atom, acceptor molecule, acceptor atom, score
      L1  H    18    59       P1 10747  0.56
      L1  H    22    54       P1 10747  0.39
      P1  H  7997  8009       L1     3  0.77

> <Gold.Chemscore.Hbond.Weighted>
-9.9724

> <Gold.Chemscore.Metal.Weighted>
-0.0000

> <Gold.Chemscore.Lipo.Weighted>
-9.4941

> <Gold.Chemscore.Internal_Hbond.Weighted>
0.0000

> <Gold.Chemscore.DEClash.Weighted>
0.0263

> <Gold.Chemscore.DEInternal.Weighted>
0.8257

> <Gold.Chemscore.Rot.Weighted>
9.3844

> <Gold.Chemscore.Internal.Correction.Weighted>
   9.000000E+99

> <Gold.Protein.RotatedTorsions>
[ 6907 6896 6895 6894 ] final  -83.17 input  -60.11 | X-H torsion
[ 7974 7965 7964 7962 ] final  -80.12 input  175.53 | X-H torsion
[ 8008 7997 7996 7995 ] final -156.75 input   59.86 | X-H torsion
[ 10167 10162 10161 10158 ] final  -93.02 input  -65.29 | X-H torsion
[ 10718 10713 10712 10709 ] final   47.47 input   66.30 | X-H torsion
[ 10763 10752 10751 10750 ] final -133.06 input  -60.55 | X-H torsion
[ 11005 11000 10999 10996 ] final -154.65 input  -57.11 | X-H torsion

> <Gold.Protein.ActiveResidues>
 VAL166  LYS551  ARG553  GLY616  TRP617  ASP618  TYR619  PRO620  LYS621  CYS622 
 ASP623  PHE694  ASN695  SER759  ASP760  ASP761  ALA762  ILE779  LEU786  VAL792 
 PHE793  MET794  SER795  GLU796  ALA797  LYS798  CYS799  TRP800  GLU811  SER814 

> <Gold.Protein.RotatedAtoms>
  150.6888  134.3553  159.4926 H   0  0  0  0  0  0  0  0  0  0  0  0  # atno 6907 bound_to 6896
  152.1389  134.9075  160.0564 H   0  0  0  0  0  0  0  0  0  0  0  0  # atno 6908 bound_to 6896
  152.0216  133.3866  159.4297 H   0  0  0  0  0  0  0  0  0  0  0  0  # atno 6909 bound_to 6896
  145.5641  140.9477  143.1431 H   0  0  0  0  0  0  0  0  0  0  0  0  # atno 7974 bound_to 7965
  155.7219  140.0791  157.2327 H   0  0  0  0  0  0  0  0  0  0  0  0  # atno 8008 bound_to 7997
  154.4044  140.1611  156.2466 H   0  0  0  0  0  0  0  0  0  0  0  0  # atno 8009 bound_to 7997
  155.9189  140.3399  155.6160 H   0  0  0  0  0  0  0  0  0  0  0  0  # atno 8010 bound_to 7997
  140.3289  143.3006  151.9964 H   0  0  0  0  0  0  0  0  0  0  0  0  # atno 10167 bound_to 10162
  157.4588  130.8184  149.7865 H   0  0  0  0  0  0  0  0  0  0  0  0  # atno 10718 bound_to 10713
  154.8737  135.3778  154.4510 H   0  0  0  0  0  0  0  0  0  0  0  0  # atno 10763 bound_to 10752
  153.5187  135.7029  153.5748 H   0  0  0  0  0  0  0  0  0  0  0  0  # atno 10764 bound_to 10752
  153.4005  135.3949  155.1950 H   0  0  0  0  0  0  0  0  0  0  0  0  # atno 10765 bound_to 10752
  140.6950  134.4000  157.5215 H   0  0  0  0  0  0  0  0  0  0  0  0  # atno 11005 bound_to 11000
  144.7469  139.7297  143.7289 LP  0  0  0  0  0  0  0  0  0  0  0  0  # atno 17320 bound_to 7965
  146.1830  139.5032  142.9854 LP  0  0  0  0  0  0  0  0  0  0  0  0  # atno 17321 bound_to 7965
  139.4860  144.6251  151.7180 LP  0  0  0  0  0  0  0  0  0  0  0  0  # atno 17342 bound_to 10162
  140.5415  144.0571  150.6090 LP  0  0  0  0  0  0  0  0  0  0  0  0  # atno 17343 bound_to 10162
  156.0019  130.3875  150.2573 LP  0  0  0  0  0  0  0  0  0  0  0  0  # atno 17370 bound_to 10713
  157.0749  131.0127  151.3177 LP  0  0  0  0  0  0  0  0  0  0  0  0  # atno 17371 bound_to 10713
  139.8913  134.8784  156.2328 LP  0  0  0  0  0  0  0  0  0  0  0  0  # atno 17394 bound_to 11000
  141.0210  133.7041  156.1269 LP  0  0  0  0  0  0  0  0  0  0  0  0  # atno 17395 bound_to 11000

$$$$
