AV-unprocessed.smi:1921|AV-procd|sdf|7785|dock6
  -GOLD-   22720 9533D 1   1.00000     0.00000
 Structure written by MMmdl.
 27 28  0  0  0  0  0  0  0  0  1 V2000
  152.7384  144.5355  157.4353 C   0  0  0  0  0  0  0  0  0  0  0  0
  151.8587  143.3722  157.9132 C   0  0  2  0  0  0  0  0  0  0  0  0
  150.7661  143.1919  156.9626 N   0  0  0  0  0  0  0  0  0  0  0  0
  150.4249  142.0324  156.3814 C   0  0  0  0  0  0  0  0  0  0  0  0
  151.0122  140.9695  156.5858 O   0  0  0  0  0  0  0  0  0  0  0  0
  149.3722  142.1924  155.5601 N   0  0  0  0  0  0  0  0  0  0  0  0
  148.7162  141.2105  154.7721 C   0  0  0  0  0  0  0  0  0  0  0  0
  147.5093  141.3708  154.2166 N   0  0  0  0  0  0  0  0  0  0  0  0
  147.1097  140.2425  153.4959 C   0  0  0  0  0  0  0  0  0  0  0  0
  148.0314  139.2255  153.5127 C   0  0  0  0  0  0  0  0  0  0  0  0
  149.4469  139.6470  154.4391 S   0  0  0  0  0  0  0  0  0  0  0  0
  151.3873  143.6008  159.3398 C   0  0  0  0  0  0  0  0  0  0  0  0
  151.5474  144.9482  160.0039 C   0  0  0  0  0  0  0  0  0  0  0  0
  152.3678  143.7702  160.4765 C   0  0  0  0  0  0  0  0  0  0  0  0
  153.6006  144.6697  158.0890 H   0  0  0  0  0  0  0  0  0  0  0  0
  152.1834  145.4742  157.4215 H   0  0  0  0  0  0  0  0  0  0  0  0
  153.1166  144.3559  156.4282 H   0  0  0  0  0  0  0  0  0  0  0  0
  152.4787  142.4734  157.9025 H   0  0  0  0  0  0  0  0  0  0  0  0
  150.2264  144.0137  156.7333 H   0  0  0  0  0  0  0  0  0  0  0  0
  148.9960  143.1262  155.4898 H   0  0  0  0  0  0  0  0  0  0  0  0
  146.1503  140.2490  153.0002 H   0  0  0  0  0  0  0  0  0  0  0  0
  147.9637  138.2581  153.0379 H   0  0  0  0  0  0  0  0  0  0  0  0
  150.4687  143.0693  159.5824 H   0  0  0  0  0  0  0  0  0  0  0  0
  152.0659  145.7292  159.4511 H   0  0  0  0  0  0  0  0  0  0  0  0
  150.7392  145.2898  160.6474 H   0  0  0  0  0  0  0  0  0  0  0  0
  152.1067  143.3243  161.4339 H   0  0  0  0  0  0  0  0  0  0  0  0
  153.4296  143.7723  160.2379 H   0  0  0  0  0  0  0  0  0  0  0  0
  1  2  1  0  0  0  0
  1 15  1  0  0  0  0
  1 16  1  0  0  0  0
  1 17  1  0  0  0  0
  2  3  1  0  0  0  0
  2 12  1  0  0  0  0
  2 18  1  0  0  0  0
  3  4  1  0  0  0  0
  3 19  1  0  0  0  0
  4  5  2  0  0  0  0
  4  6  1  0  0  0  0
  6  7  1  0  0  0  0
  6 20  1  0  0  0  0
  7 11  1  0  0  0  0
  7  8  2  0  0  0  0
  8  9  1  0  0  0  0
  9 10  2  0  0  0  0
  9 21  1  0  0  0  0
 10 11  1  0  0  0  0
 10 22  1  0  0  0  0
 12 14  1  0  0  0  0
 12 13  1  0  0  0  0
 12 23  1  0  0  0  0
 13 14  1  0  0  0  0
 13 24  1  0  0  0  0
 13 25  1  0  0  0  0
 14 26  1  0  0  0  0
 14 27  1  0  0  0  0
M  END
> <s_m_source_file>
AV-unprocessed.smi

> <i_m_source_file_index>
1921

> <i_lp_mmshare_version>
43012

> <i_f3d_flags>
0

> <s_epik_input>
W0NIMl0xW0NIMl1bQ0hdMVtDQEhdKFtDSDNdKVtOSF1DKD1PKVtOSF1jMm5bY0hdW2NIXXMy

> <s_epik_cmdline>
J2VwaWtfcHl0aG9uJywgJy1waCcsICc3LjAnLCAnLXRuJywgJzgnLCAnLW1hJywgJzIwMCcsICctbWV0YWxfYmluZGluZycsICctaW1hZScsICc8aW5maWxlLm1hZT4nLCAnLW9tYWUnLCAnPG91dGZpbGUubWFlPic=

> <r_lp_tautomer_probability>
0.999

> <r_epik_Ionization_Penalty>
0.000426276

> <r_epik_Ionization_Penalty_Charging>
0

> <r_epik_Ionization_Penalty_Neutral>
0.000426276

> <r_epik_State_Penalty>
0.000177984

> <r_epik_Charging_Adjusted_Penalty>
0.000177984

> <i_epik_Tot_Q>
0

> <i_epik_Tot_abs_Q>
0

> <r_epik_Metal_State_Penalty>
-0

> <b_epik_Metal_Only>
0

> <s_lp_Force_Field>
OPLS_2005

> <r_lp_Energy>
11.4039

> <b_lp_Chiralities_Consistent>
1

> <s_lp_Variant>
AV-unprocessed.smi:1921-1

> <Gold.Version>
5.8.1

> <Gold.Id.Protein>
6NUR|6NUR_protein|mol2

> <Gold.PLP.Fitness>
40.7303

> <Gold.PLP.PLP>
-29.5459

> <Gold.PLP.part.hbond>
-2.0000

> <Gold.PLP.part.metal>
0.0000

> <Gold.PLP.part.buried>
-3.6881

> <Gold.PLP.part.nonpolar>
-24.5745

> <Gold.PLP.part.repulsive>
0.3652

> <Gold.PLP.ligand.clash>
0.0000

> <Gold.PLP.ligand.torsion>
0.8468

> <Gold.PLP.Chemscore.Hbond>
1.9440

> <Gold.PLP.Chemscore.CHOScore>
1.9948

> <Gold.PLP.Chemscore.Metal>
0.0000

> <Gold.Chemscore.Hbonds>
donor molecule, donor type, donor heavy atom, donor atom, acceptor molecule, acceptor atom, score
      L1  H     3    19       P1  8028  0.94
      L1  H     6    20       P1  8028  1.00
      L1  C     9    21       P1 10175  1.00
      L1  C    10    22       P1  7948  1.00

> <Gold.PLP.Chemscore.Internal.Correction>
1.0616

> <Gold.Rescore>
     Score         DG    S(hbond)    S(metal)    S(lipo)     H(rot)  DE(clash)    DE(int)     intcor
     15.79     -18.12       1.97        0.00      79.31       1.26       0.39       1.94       ----

> <Gold.Chemscore.Fitness>
15.7920

> <Gold.Chemscore.DG>
-18.1189

> <Gold.Chemscore.ZeroCoef>
-5.4800

> <Gold.Chemscore.Hbond>
1.9709

> <Gold.Chemscore.Metal>
0.0000

> <Gold.Chemscore.Lipo>
79.3126

> <Gold.Chemscore.Internal_Hbond>
0.0000

> <Gold.Chemscore.DEClash>
0.3857

> <Gold.Chemscore.DEInternal>
1.9412

> <Gold.Chemscore.Rot>
1.2591

> <Gold.Chemscore.Internal.Correction>
   9.000000E+99

> <Gold.Chemscore.Hbonds>
donor molecule, donor type, donor heavy atom, donor atom, acceptor molecule, acceptor atom, score
      L1  H     3    19       P1  8028  0.91
      L1  H     6    20       P1  8028  0.98

> <Gold.Chemscore.Hbond.Weighted>
-6.5827

> <Gold.Chemscore.Metal.Weighted>
-0.0000

> <Gold.Chemscore.Lipo.Weighted>
-9.2796

> <Gold.Chemscore.Internal_Hbond.Weighted>
0.0000

> <Gold.Chemscore.DEClash.Weighted>
0.3857

> <Gold.Chemscore.DEInternal.Weighted>
1.9412

> <Gold.Chemscore.Rot.Weighted>
3.2233

> <Gold.Chemscore.Internal.Correction.Weighted>
   9.000000E+99

> <Gold.Protein.RotatedTorsions>
[ 6907 6896 6895 6894 ] final  103.63 input  -60.11 | X-H torsion
[ 7974 7965 7964 7962 ] final  164.14 input  175.53 | X-H torsion
[ 8008 7997 7996 7995 ] final  115.48 input   59.86 | X-H torsion
[ 10167 10162 10161 10158 ] final -163.81 input  -65.29 | X-H torsion
[ 10718 10713 10712 10709 ] final -150.14 input   66.30 | X-H torsion
[ 10763 10752 10751 10750 ] final   38.12 input  -60.55 | X-H torsion
[ 11005 11000 10999 10996 ] final  162.50 input  -57.11 | X-H torsion

> <Gold.Protein.ActiveResidues>
 VAL166  LYS551  ARG553  GLY616  TRP617  ASP618  TYR619  PRO620  LYS621  CYS622 
 ASP623  PHE694  ASN695  SER759  ASP760  ASP761  ALA762  ILE779  LEU786  VAL792 
 PHE793  MET794  SER795  GLU796  ALA797  LYS798  CYS799  TRP800  GLU811  SER814 

> <Gold.Protein.RotatedAtoms>
  152.5289  133.9798  159.7800 H   0  0  0  0  0  0  0  0  0  0  0  0  # atno 6907 bound_to 6896
  151.0053  133.6008  159.2696 H   0  0  0  0  0  0  0  0  0  0  0  0  # atno 6908 bound_to 6896
  151.3102  135.0798  159.9323 H   0  0  0  0  0  0  0  0  0  0  0  0  # atno 6909 bound_to 6896
  144.7558  139.8283  143.6350 H   0  0  0  0  0  0  0  0  0  0  0  0  # atno 7974 bound_to 7965
  156.2384  140.2937  156.0375 H   0  0  0  0  0  0  0  0  0  0  0  0  # atno 8008 bound_to 7997
  155.2024  140.0410  157.2937 H   0  0  0  0  0  0  0  0  0  0  0  0  # atno 8009 bound_to 7997
  154.6121  140.2454  155.7662 H   0  0  0  0  0  0  0  0  0  0  0  0  # atno 8010 bound_to 7997
  139.6294  144.0468  152.2003 H   0  0  0  0  0  0  0  0  0  0  0  0  # atno 10167 bound_to 10162
  156.4422  130.8127  151.2357 H   0  0  0  0  0  0  0  0  0  0  0  0  # atno 10718 bound_to 10713
  153.0012  135.6258  154.2254 H   0  0  0  0  0  0  0  0  0  0  0  0  # atno 10763 bound_to 10752
  154.1996  135.2805  155.2997 H   0  0  0  0  0  0  0  0  0  0  0  0  # atno 10764 bound_to 10752
  154.5694  135.5681  153.7140 H   0  0  0  0  0  0  0  0  0  0  0  0  # atno 10765 bound_to 10752
  140.2264  134.8157  157.3272 H   0  0  0  0  0  0  0  0  0  0  0  0  # atno 11005 bound_to 11000
  146.1566  139.4667  143.0014 LP  0  0  0  0  0  0  0  0  0  0  0  0  # atno 17320 bound_to 7965
  145.6784  141.0198  143.1620 LP  0  0  0  0  0  0  0  0  0  0  0  0  # atno 17321 bound_to 7965
  140.0130  144.6210  150.7631 LP  0  0  0  0  0  0  0  0  0  0  0  0  # atno 17342 bound_to 10162
  140.7430  143.2840  151.3515 LP  0  0  0  0  0  0  0  0  0  0  0  0  # atno 17343 bound_to 10162
  157.7506  131.0164  150.3545 LP  0  0  0  0  0  0  0  0  0  0  0  0  # atno 17370 bound_to 10713
  156.3905  130.3897  149.7033 LP  0  0  0  0  0  0  0  0  0  0  0  0  # atno 17371 bound_to 10713
  140.1796  134.4506  155.7780 LP  0  0  0  0  0  0  0  0  0  0  0  0  # atno 17394 bound_to 11000
  141.2220  133.6978  156.7846 LP  0  0  0  0  0  0  0  0  0  0  0  0  # atno 17395 bound_to 11000

$$$$
