AV-unprocessed.smi:2780|AV-procd|sdf|10714|dock9
  -GOLD-   2272015153D 1   1.00000     0.00000
 Structure written by MMmdl.
 47 49  0  0  0  0  0  0  0  0  2 V2000
  147.7136  132.3493  153.3332 C   0  0  0  0  0  0  0  0  0  0  0  0
  146.5258  132.7812  152.4889 C   0  0  0  0  0  0  0  0  0  0  0  0
  145.6450  131.8594  152.0550 C   0  0  0  0  0  0  0  0  0  0  0  0
  144.4705  132.1604  151.1530 C   0  0  0  0  0  0  0  0  0  0  0  0
  144.6776  133.4776  150.4022 C   0  0  0  0  0  0  0  0  0  0  0  0
  145.0896  134.6108  151.3563 C   0  0  2  0  0  0  0  0  0  0  0  0
  145.1970  135.9297  150.5660 C   0  0  0  0  0  0  0  0  0  0  0  0
  146.3950  134.2791  152.1439 C   0  0  1  0  0  0  0  0  0  0  0  0
  146.5127  135.1948  153.3913 C   0  0  0  0  0  0  0  0  0  0  0  0
  147.8973  135.3056  153.8946 N   0  3  0  0  0  0  0  0  0  0  0  0
  148.1183  136.4422  154.8084 C   0  0  0  0  0  0  0  0  0  0  0  0
  149.6008  136.5619  155.1861 C   0  0  0  0  0  0  0  0  0  0  0  0
  150.0653  137.9345  155.1018 N   0  0  0  0  0  0  0  0  0  0  0  0
  150.0689  138.7477  154.0343 C   0  0  0  0  0  0  0  0  0  0  0  0
  150.5452  139.9712  154.2585 N   0  0  0  0  0  0  0  0  0  0  0  0
  150.8816  139.9727  155.5975 N   0  0  0  0  0  0  0  0  0  0  0  0
  150.5899  138.7455  156.0440 C   0  0  0  0  0  0  0  0  0  0  0  0
  150.7654  138.3191  157.4668 C   0  0  0  0  0  0  0  0  0  0  0  0
  149.6063  137.7742  158.2723 C   0  0  0  0  0  0  0  0  0  0  0  0
  150.1788  139.1278  158.6029 C   0  0  0  0  0  0  0  0  0  0  0  0
  148.6416  132.7427  152.9178 H   0  0  0  0  0  0  0  0  0  0  0  0
  147.8021  131.2627  153.3656 H   0  0  0  0  0  0  0  0  0  0  0  0
  147.6079  132.6958  154.3610 H   0  0  0  0  0  0  0  0  0  0  0  0
  145.7631  130.8238  152.3402 H   0  0  0  0  0  0  0  0  0  0  0  0
  144.3490  131.3449  150.4393 H   0  0  0  0  0  0  0  0  0  0  0  0
  143.5641  132.1952  151.7582 H   0  0  0  0  0  0  0  0  0  0  0  0
  145.4470  133.3444  149.6401 H   0  0  0  0  0  0  0  0  0  0  0  0
  143.7610  133.7381  149.8715 H   0  0  0  0  0  0  0  0  0  0  0  0
  144.2792  134.7232  152.0785 H   0  0  0  0  0  0  0  0  0  0  0  0
  146.0011  135.8851  149.8309 H   0  0  0  0  0  0  0  0  0  0  0  0
  145.3844  136.7882  151.2090 H   0  0  0  0  0  0  0  0  0  0  0  0
  144.2725  136.1365  150.0262 H   0  0  0  0  0  0  0  0  0  0  0  0
  147.2336  134.4966  151.4804 H   0  0  0  0  0  0  0  0  0  0  0  0
  146.1751  136.2062  153.1707 H   0  0  0  0  0  0  0  0  0  0  0  0
  145.8617  134.8220  154.1835 H   0  0  0  0  0  0  0  0  0  0  0  0
  148.1240  134.4527  154.3862 H   0  0  0  0  0  0  0  0  0  0  0  0
  147.7749  137.3597  154.3299 H   0  0  0  0  0  0  0  0  0  0  0  0
  147.5136  136.3010  155.7054 H   0  0  0  0  0  0  0  0  0  0  0  0
  149.7610  136.2107  156.2064 H   0  0  0  0  0  0  0  0  0  0  0  0
  150.2153  135.9353  154.5390 H   0  0  0  0  0  0  0  0  0  0  0  0
  149.7086  138.4372  153.0642 H   0  0  0  0  0  0  0  0  0  0  0  0
  151.7436  137.8654  157.6138 H   0  0  0  0  0  0  0  0  0  0  0  0
  148.6258  137.7475  157.8006 H   0  0  0  0  0  0  0  0  0  0  0  0
  149.8143  136.9579  158.9608 H   0  0  0  0  0  0  0  0  0  0  0  0
  150.7689  139.2166  159.5126 H   0  0  0  0  0  0  0  0  0  0  0  0
  149.5695  139.9943  158.3548 H   0  0  0  0  0  0  0  0  0  0  0  0
  148.5200  135.3978  153.1047 H   0  0  0  0  0  0  0  0  0  0  0  0
  1  2  1  0  0  0  0
  1 21  1  0  0  0  0
  1 22  1  0  0  0  0
  1 23  1  0  0  0  0
  2  8  1  0  0  0  0
  2  3  2  0  0  0  0
  3  4  1  0  0  0  0
  3 24  1  0  0  0  0
  4  5  1  0  0  0  0
  4 25  1  0  0  0  0
  4 26  1  0  0  0  0
  5  6  1  0  0  0  0
  5 27  1  0  0  0  0
  5 28  1  0  0  0  0
  6  7  1  0  0  0  0
  6  8  1  0  0  0  0
  6 29  1  0  0  0  0
  7 30  1  0  0  0  0
  7 31  1  0  0  0  0
  7 32  1  0  0  0  0
  8  9  1  0  0  0  0
  8 33  1  0  0  0  0
  9 10  1  0  0  0  0
  9 34  1  0  0  0  0
  9 35  1  0  0  0  0
 10 11  1  0  0  0  0
 10 36  1  0  0  0  0
 10 47  1  0  0  0  0
 11 12  1  0  0  0  0
 11 37  1  0  0  0  0
 11 38  1  0  0  0  0
 12 13  1  0  0  0  0
 12 39  1  0  0  0  0
 12 40  1  0  0  0  0
 13 17  1  0  0  0  0
 13 14  1  0  0  0  0
 14 15  2  0  0  0  0
 14 41  1  0  0  0  0
 15 16  1  0  0  0  0
 16 17  2  0  0  0  0
 17 18  1  0  0  0  0
 18 20  1  0  0  0  0
 18 19  1  0  0  0  0
 18 42  1  0  0  0  0
 19 20  1  0  0  0  0
 19 43  1  0  0  0  0
 19 44  1  0  0  0  0
 20 45  1  0  0  0  0
 20 46  1  0  0  0  0
M  CHG  1  10   1
M  END
> <s_m_source_file>
AV-unprocessed.smi

> <i_m_source_file_index>
2780

> <i_lp_mmshare_version>
43012

> <i_f3d_flags>
0

> <s_epik_input>
W0NIM11DMT1bQ0hdW0NIMl1bQ0gyXVtDQEBIXShbQ0gzXSlbQ0BIXTFbQ0gyXVtOSF1bQ0gyXVtDSDJdbjJbY0hdbm5jMltDSF0zW0NIMl1bQ0gyXTM=

> <s_epik_cmdline>
J2VwaWtfcHl0aG9uJywgJy1waCcsICc3LjAnLCAnLXRuJywgJzgnLCAnLW1hJywgJzIwMCcsICctbWV0YWxfYmluZGluZycsICctaW1hZScsICc8aW5maWxlLm1hZT4nLCAnLW9tYWUnLCAnPG91dGZpbGUubWFlPic=

> <r_lp_tautomer_probability>
1

> <r_epik_Ionization_Penalty>
0.00176214

> <r_epik_Ionization_Penalty_Charging>
0.00175191

> <r_epik_Ionization_Penalty_Neutral>
1.02377e-05

> <r_epik_State_Penalty>
-0

> <r_epik_Charging_Adjusted_Penalty>
0.00175191

> <i_epik_Tot_Q>
1

> <i_epik_Tot_abs_Q>
1

> <r_epik_Metal_State_Penalty>
-0

> <b_epik_Metal_Only>
0

> <s_lp_Force_Field>
OPLS_2005

> <r_lp_Energy>
22.2191

> <b_lp_Chiralities_Consistent>
1

> <s_lp_Variant>
AV-unprocessed.smi:2780-2

> <Gold.Version>
5.8.1

> <Gold.Id.Protein>
6NUR|6NUR_protein|mol2

> <Gold.PLP.Fitness>
43.3709

> <Gold.PLP.PLP>
-29.9912

> <Gold.PLP.part.hbond>
-1.8586

> <Gold.PLP.part.metal>
0.0000

> <Gold.PLP.part.buried>
-3.2794

> <Gold.PLP.part.nonpolar>
-24.2388

> <Gold.PLP.part.repulsive>
0.1429

> <Gold.PLP.ligand.clash>
0.0000

> <Gold.PLP.ligand.torsion>
0.6191

> <Gold.PLP.Chemscore.Hbond>
3.0000

> <Gold.PLP.Chemscore.CHOScore>
1.7907

> <Gold.PLP.Chemscore.Metal>
0.0000

> <Gold.Chemscore.Hbonds>
donor molecule, donor type, donor heavy atom, donor atom, acceptor molecule, acceptor atom, score
      L1  H    10    47       P1  7948  1.98
      P1  H  7989  7998       L1    15  1.00
      L1  C    14    41       P1  7948  0.88
      L1  C    14    41       P1  7957  0.84

> <Gold.PLP.Chemscore.Internal.Correction>
0.2459

> <Gold.Rescore>
     Score         DG    S(hbond)    S(metal)    S(lipo)     H(rot)  DE(clash)    DE(int)     intcor
     13.46     -14.32       1.89        0.00      64.97       1.98       0.03       0.83       ----

> <Gold.Chemscore.Fitness>
13.4562

> <Gold.Chemscore.DG>
-14.3200

> <Gold.Chemscore.ZeroCoef>
-5.4800

> <Gold.Chemscore.Hbond>
1.8883

> <Gold.Chemscore.Metal>
0.0000

> <Gold.Chemscore.Lipo>
64.9723

> <Gold.Chemscore.Internal_Hbond>
0.0000

> <Gold.Chemscore.DEClash>
0.0323

> <Gold.Chemscore.DEInternal>
0.8316

> <Gold.Chemscore.Rot>
1.9799

> <Gold.Chemscore.Internal.Correction>
   9.000000E+99

> <Gold.Chemscore.Hbonds>
donor molecule, donor type, donor heavy atom, donor atom, acceptor molecule, acceptor atom, score
      L1  H    10    47       P1  7948  0.84
      P1  H  7989  7998       L1    15  0.64

> <Gold.Chemscore.Hbond.Weighted>
-6.3068

> <Gold.Chemscore.Metal.Weighted>
-0.0000

> <Gold.Chemscore.Lipo.Weighted>
-7.6018

> <Gold.Chemscore.Internal_Hbond.Weighted>
0.0000

> <Gold.Chemscore.DEClash.Weighted>
0.0323

> <Gold.Chemscore.DEInternal.Weighted>
0.8316

> <Gold.Chemscore.Rot.Weighted>
5.0685

> <Gold.Chemscore.Internal.Correction.Weighted>
   9.000000E+99

> <Gold.Protein.RotatedTorsions>
[ 6907 6896 6895 6894 ] final   31.90 input  -60.11 | X-H torsion
[ 7974 7965 7964 7962 ] final  106.35 input  175.53 | X-H torsion
[ 8008 7997 7996 7995 ] final  -26.84 input   59.86 | X-H torsion
[ 10167 10162 10161 10158 ] final   10.43 input  -65.29 | X-H torsion
[ 10718 10713 10712 10709 ] final  -62.02 input   66.30 | X-H torsion
[ 10763 10752 10751 10750 ] final   73.90 input  -60.55 | X-H torsion
[ 11005 11000 10999 10996 ] final -100.12 input  -57.11 | X-H torsion

> <Gold.Protein.ActiveResidues>
 VAL166  LYS551  ARG553  GLY616  TRP617  ASP618  TYR619  PRO620  LYS621  CYS622 
 ASP623  PHE694  ASN695  SER759  ASP760  ASP761  ALA762  ILE779  LEU786  VAL792 
 PHE793  MET794  SER795  GLU796  ALA797  LYS798  CYS799  TRP800  GLU811  SER814 

> <Gold.Protein.RotatedAtoms>
  152.0668  134.9559  160.0574 H   0  0  0  0  0  0  0  0  0  0  0  0  # atno 6907 bound_to 6896
  152.0900  133.4191  159.4548 H   0  0  0  0  0  0  0  0  0  0  0  0  # atno 6908 bound_to 6896
  150.6837  134.2802  159.4667 H   0  0  0  0  0  0  0  0  0  0  0  0  # atno 6909 bound_to 6896
  145.3078  139.2549  143.3779 H   0  0  0  0  0  0  0  0  0  0  0  0  # atno 7974 bound_to 7965
  154.4406  140.1888  156.0838 H   0  0  0  0  0  0  0  0  0  0  0  0  # atno 8008 bound_to 7997
  156.0418  140.3319  155.7226 H   0  0  0  0  0  0  0  0  0  0  0  0  # atno 8009 bound_to 7997
  155.5688  140.0610  157.2802 H   0  0  0  0  0  0  0  0  0  0  0  0  # atno 8010 bound_to 7997
  140.6194  143.8236  150.7157 H   0  0  0  0  0  0  0  0  0  0  0  0  # atno 10167 bound_to 10162
  156.0882  130.4204  150.1077 H   0  0  0  0  0  0  0  0  0  0  0  0  # atno 10718 bound_to 10713
  153.0551  135.5046  154.7962 H   0  0  0  0  0  0  0  0  0  0  0  0  # atno 10763 bound_to 10752
  154.6794  135.2966  154.9636 H   0  0  0  0  0  0  0  0  0  0  0  0  # atno 10764 bound_to 10752
  154.0428  135.6714  153.4844 H   0  0  0  0  0  0  0  0  0  0  0  0  # atno 10765 bound_to 10752
  141.1283  133.8374  157.1060 H   0  0  0  0  0  0  0  0  0  0  0  0  # atno 11005 bound_to 11000
  146.3129  140.3607  142.8664 LP  0  0  0  0  0  0  0  0  0  0  0  0  # atno 17320 bound_to 7965
  144.9040  140.7678  143.5849 LP  0  0  0  0  0  0  0  0  0  0  0  0  # atno 17321 bound_to 7965
  140.1823  143.4104  152.1924 LP  0  0  0  0  0  0  0  0  0  0  0  0  # atno 17342 bound_to 10162
  139.5426  144.7270  151.4685 LP  0  0  0  0  0  0  0  0  0  0  0  0  # atno 17343 bound_to 10162
  156.9093  130.9646  151.3565 LP  0  0  0  0  0  0  0  0  0  0  0  0  # atno 17370 bound_to 10713
  157.6024  130.8522  149.8822 LP  0  0  0  0  0  0  0  0  0  0  0  0  # atno 17371 bound_to 10713
  140.0304  134.9904  157.0769 LP  0  0  0  0  0  0  0  0  0  0  0  0  # atno 17394 bound_to 11000
  140.4295  134.1796  155.7167 LP  0  0  0  0  0  0  0  0  0  0  0  0  # atno 17395 bound_to 11000

$$$$
