AV-unprocessed.smi:1073|AV-procd|sdf|4689|dock1
  -GOLD-   22720 3203D 1   1.00000     0.00000
 Structure written by MMmdl.
 44 44  0  0  0  0  0  0  0  0  1 V2000
  147.5777  136.0744  161.1536 C   0  0  0  0  0  0  0  0  0  0  0  0
  148.0717  136.8768  160.0454 N   0  0  0  0  0  0  0  0  0  0  0  0
  148.9818  136.4559  159.1551 C   0  0  0  0  0  0  0  0  0  0  0  0
  149.4806  135.3296  159.1867 O   0  0  0  0  0  0  0  0  0  0  0  0
  149.3670  137.4490  158.0503 C   0  0  2  0  0  0  0  0  0  0  0  0
  149.2497  136.8195  156.6413 C   0  0  0  0  0  0  0  0  0  0  0  0
  150.5378  136.1813  156.0720 C   0  0  0  0  0  0  0  0  0  0  0  0
  151.4906  137.2231  155.4618 C   0  0  0  0  0  0  0  0  0  0  0  0
  150.1911  135.1056  155.0313 C   0  0  0  0  0  0  0  0  0  0  0  0
  150.7208  137.9552  158.2822 N   0  0  0  0  0  0  0  0  0  0  0  0
  151.1505  139.2065  158.0569 C   0  0  0  0  0  0  0  0  0  0  0  0
  150.4334  140.0969  157.5987 O   0  0  0  0  0  0  0  0  0  0  0  0
  152.6258  139.4729  158.3882 C   0  0  0  0  0  0  0  0  0  0  0  0
  152.8261  140.6198  159.2894 N   0  0  0  0  0  0  0  0  0  0  0  0
  152.2703  141.8513  158.8909 C   0  0  0  0  0  0  0  0  0  0  0  0
  152.3874  142.9781  159.6190 C   0  0  0  0  0  0  0  0  0  0  0  0
  151.7231  144.2776  159.1914 C   0  0  0  0  0  0  0  0  0  0  0  0
  151.9008  145.2322  160.1049 F   0  0  0  0  0  0  0  0  0  0  0  0
  152.2502  144.6988  158.0426 F   0  0  0  0  0  0  0  0  0  0  0  0
  150.4125  144.1104  159.0095 F   0  0  0  0  0  0  0  0  0  0  0  0
  153.1000  142.8626  160.8763 C   0  0  0  0  0  0  0  0  0  0  0  0
  153.6252  141.6889  161.2792 C   0  0  0  0  0  0  0  0  0  0  0  0
  153.5035  140.4756  160.4676 C   0  0  0  0  0  0  0  0  0  0  0  0
  153.9789  139.3976  160.8249 O   0  0  0  0  0  0  0  0  0  0  0  0
  146.8494  136.6447  161.7302 H   0  0  0  0  0  0  0  0  0  0  0  0
  148.3928  135.7896  161.8200 H   0  0  0  0  0  0  0  0  0  0  0  0
  147.0913  135.1680  160.7908 H   0  0  0  0  0  0  0  0  0  0  0  0
  147.7031  137.8121  159.9506 H   0  0  0  0  0  0  0  0  0  0  0  0
  148.6577  138.2743  158.1267 H   0  0  0  0  0  0  0  0  0  0  0  0
  148.4645  136.0621  156.6707 H   0  0  0  0  0  0  0  0  0  0  0  0
  148.8986  137.5744  155.9356 H   0  0  0  0  0  0  0  0  0  0  0  0
  151.0659  135.6746  156.8795 H   0  0  0  0  0  0  0  0  0  0  0  0
  151.0069  137.7806  154.6591 H   0  0  0  0  0  0  0  0  0  0  0  0
  152.3771  136.7443  155.0451 H   0  0  0  0  0  0  0  0  0  0  0  0
  151.8371  137.9407  156.2045 H   0  0  0  0  0  0  0  0  0  0  0  0
  149.6588  135.5333  154.1811 H   0  0  0  0  0  0  0  0  0  0  0  0
  149.5598  134.3279  155.4624 H   0  0  0  0  0  0  0  0  0  0  0  0
  151.0910  134.6212  154.6510 H   0  0  0  0  0  0  0  0  0  0  0  0
  151.3823  137.2943  158.6642 H   0  0  0  0  0  0  0  0  0  0  0  0
  153.0644  138.5719  158.8212 H   0  0  0  0  0  0  0  0  0  0  0  0
  153.1622  139.6276  157.4511 H   0  0  0  0  0  0  0  0  0  0  0  0
  151.7299  141.8183  157.9559 H   0  0  0  0  0  0  0  0  0  0  0  0
  153.2170  143.7324  161.5059 H   0  0  0  0  0  0  0  0  0  0  0  0
  154.1497  141.6400  162.2222 H   0  0  0  0  0  0  0  0  0  0  0  0
  1  2  1  0  0  0  0
  1 25  1  0  0  0  0
  1 26  1  0  0  0  0
  1 27  1  0  0  0  0
  2  3  1  0  0  0  0
  2 28  1  0  0  0  0
  3  4  2  0  0  0  0
  3  5  1  0  0  0  0
  5  6  1  0  0  0  0
  5 10  1  0  0  0  0
  5 29  1  0  0  0  0
  6  7  1  0  0  0  0
  6 30  1  0  0  0  0
  6 31  1  0  0  0  0
  7  8  1  0  0  0  0
  7  9  1  0  0  0  0
  7 32  1  0  0  0  0
  8 33  1  0  0  0  0
  8 34  1  0  0  0  0
  8 35  1  0  0  0  0
  9 36  1  0  0  0  0
  9 37  1  0  0  0  0
  9 38  1  0  0  0  0
 10 11  1  0  0  0  0
 10 39  1  0  0  0  0
 11 12  2  0  0  0  0
 11 13  1  0  0  0  0
 13 14  1  0  0  0  0
 13 40  1  0  0  0  0
 13 41  1  0  0  0  0
 14 23  1  0  0  0  0
 14 15  1  0  0  0  0
 15 16  2  0  0  0  0
 15 42  1  0  0  0  0
 16 17  1  0  0  0  0
 16 21  1  0  0  0  0
 17 18  1  0  0  0  0
 17 19  1  0  0  0  0
 17 20  1  0  0  0  0
 21 22  2  0  0  0  0
 21 43  1  0  0  0  0
 22 23  1  0  0  0  0
 22 44  1  0  0  0  0
 23 24  2  0  0  0  0
M  END
> <s_m_source_file>
AV-unprocessed.smi

> <i_m_source_file_index>
1073

> <i_lp_mmshare_version>
43012

> <i_f3d_flags>
0

> <s_epik_input>
W0NIM11bTkhdQyg9TylbQ0BIXShbQ0gyXVtDSF0oW0NIM10pW0NIM10pW05IXUMoPU8pW0NIMl1uMVtjSF1jKEMoRikoRilGKVtjSF1bY0hdYzE9Tw==

> <s_epik_cmdline>
J2VwaWtfcHl0aG9uJywgJy1waCcsICc3LjAnLCAnLXRuJywgJzgnLCAnLW1hJywgJzIwMCcsICctbWV0YWxfYmluZGluZycsICctaW1hZScsICc8aW5maWxlLm1hZT4nLCAnLW9tYWUnLCAnPG91dGZpbGUubWFlPic=

> <r_lp_tautomer_probability>
1

> <r_epik_Ionization_Penalty>
7.02352e-08

> <r_epik_Ionization_Penalty_Charging>
1.57869e-08

> <r_epik_Ionization_Penalty_Neutral>
5.44484e-08

> <r_epik_State_Penalty>
-0

> <r_epik_Charging_Adjusted_Penalty>
1.57869e-08

> <i_epik_Tot_Q>
0

> <i_epik_Tot_abs_Q>
0

> <r_epik_Metal_State_Penalty>
-0

> <b_epik_Metal_Only>
0

> <s_lp_Force_Field>
OPLS_2005

> <r_lp_Energy>
18.1755

> <b_lp_Chiralities_Consistent>
1

> <s_lp_Variant>
AV-unprocessed.smi:1073-1

> <Gold.Version>
5.8.1

> <Gold.Id.Protein>
6NUR|6NUR_protein|mol2

> <Gold.PLP.Fitness>
48.5835

> <Gold.PLP.PLP>
-47.8464

> <Gold.PLP.part.hbond>
-1.0000

> <Gold.PLP.part.metal>
0.0000

> <Gold.PLP.part.buried>
-7.5815

> <Gold.PLP.part.nonpolar>
-40.5954

> <Gold.PLP.part.repulsive>
0.3105

> <Gold.PLP.ligand.clash>
0.0000

> <Gold.PLP.ligand.torsion>
1.2866

> <Gold.PLP.Chemscore.Hbond>
1.0000

> <Gold.PLP.Chemscore.CHOScore>
0.0000

> <Gold.PLP.Chemscore.Metal>
0.0000

> <Gold.Chemscore.Hbonds>
donor molecule, donor type, donor heavy atom, donor atom, acceptor molecule, acceptor atom, score
      P1  H  6896  6907       L1     4  0.86

> <Gold.PLP.Chemscore.Internal.Correction>
0.3102

> <Gold.Rescore>
     Score         DG    S(hbond)    S(metal)    S(lipo)     H(rot)  DE(clash)    DE(int)     intcor
     10.90     -11.81       1.00        0.00      80.70       2.51       0.04       0.87       ----

> <Gold.Chemscore.Fitness>
10.8964

> <Gold.Chemscore.DG>
-11.8075

> <Gold.Chemscore.ZeroCoef>
-5.4800

> <Gold.Chemscore.Hbond>
0.9951

> <Gold.Chemscore.Metal>
0.0000

> <Gold.Chemscore.Lipo>
80.7008

> <Gold.Chemscore.Internal_Hbond>
0.0000

> <Gold.Chemscore.DEClash>
0.0445

> <Gold.Chemscore.DEInternal>
0.8666

> <Gold.Chemscore.Rot>
2.5149

> <Gold.Chemscore.Internal.Correction>
   9.000000E+99

> <Gold.Chemscore.Hbonds>
donor molecule, donor type, donor heavy atom, donor atom, acceptor molecule, acceptor atom, score
      P1  H  6896  6907       L1     4  0.84

> <Gold.Chemscore.Hbond.Weighted>
-3.3236

> <Gold.Chemscore.Metal.Weighted>
-0.0000

> <Gold.Chemscore.Lipo.Weighted>
-9.4420

> <Gold.Chemscore.Internal_Hbond.Weighted>
0.0000

> <Gold.Chemscore.DEClash.Weighted>
0.0445

> <Gold.Chemscore.DEInternal.Weighted>
0.8666

> <Gold.Chemscore.Rot.Weighted>
6.4381

> <Gold.Chemscore.Internal.Correction.Weighted>
   9.000000E+99

> <Gold.Protein.RotatedTorsions>
[ 6907 6896 6895 6894 ] final  -56.22 input  -60.11 | X-H torsion
[ 7974 7965 7964 7962 ] final -161.40 input  175.53 | X-H torsion
[ 8008 7997 7996 7995 ] final  -37.82 input   59.86 | X-H torsion
[ 10167 10162 10161 10158 ] final   71.75 input  -65.29 | X-H torsion
[ 10718 10713 10712 10709 ] final   76.53 input   66.30 | X-H torsion
[ 10763 10752 10751 10750 ] final   37.28 input  -60.55 | X-H torsion
[ 11005 11000 10999 10996 ] final   17.00 input  -57.11 | X-H torsion

> <Gold.Protein.ActiveResidues>
 VAL166  LYS551  ARG553  GLY616  TRP617  ASP618  TYR619  PRO620  LYS621  CYS622 
 ASP623  PHE694  ASN695  SER759  ASP760  ASP761  ALA762  ILE779  LEU786  VAL792 
 PHE793  MET794  SER795  GLU796  ALA797  LYS798  CYS799  TRP800  GLU811  SER814 

> <Gold.Protein.RotatedAtoms>
  150.8186  134.7381  159.6751 H   0  0  0  0  0  0  0  0  0  0  0  0  # atno 6907 bound_to 6896
  152.4303  134.5787  159.9951 H   0  0  0  0  0  0  0  0  0  0  0  0  # atno 6908 bound_to 6896
  151.5977  133.3322  159.3077 H   0  0  0  0  0  0  0  0  0  0  0  0  # atno 6909 bound_to 6896
  144.7392  140.3403  143.6136 H   0  0  0  0  0  0  0  0  0  0  0  0  # atno 7974 bound_to 7965
  154.4047  140.1594  156.2599 H   0  0  0  0  0  0  0  0  0  0  0  0  # atno 8008 bound_to 7997
  155.9045  140.3431  155.6029 H   0  0  0  0  0  0  0  0  0  0  0  0  # atno 8009 bound_to 7997
  155.7408  140.0792  157.2237 H   0  0  0  0  0  0  0  0  0  0  0  0  # atno 8010 bound_to 7997
  140.0427  144.5376  150.7422 H   0  0  0  0  0  0  0  0  0  0  0  0  # atno 10167 bound_to 10162
  157.6677  130.9779  150.1511 H   0  0  0  0  0  0  0  0  0  0  0  0  # atno 10718 bound_to 10713
  153.0044  135.6282  154.2119 H   0  0  0  0  0  0  0  0  0  0  0  0  # atno 10763 bound_to 10752
  154.1862  135.2811  155.3038 H   0  0  0  0  0  0  0  0  0  0  0  0  # atno 10764 bound_to 10752
  154.5795  135.5651  153.7231 H   0  0  0  0  0  0  0  0  0  0  0  0  # atno 10765 bound_to 10752
  140.4408  134.1324  155.7690 H   0  0  0  0  0  0  0  0  0  0  0  0  # atno 11005 bound_to 11000
  145.7382  139.1756  143.2391 LP  0  0  0  0  0  0  0  0  0  0  0  0  # atno 17320 bound_to 7965
  146.1155  140.7375  142.9483 LP  0  0  0  0  0  0  0  0  0  0  0  0  # atno 17321 bound_to 7965
  140.7253  143.2629  151.4143 LP  0  0  0  0  0  0  0  0  0  0  0  0  # atno 17342 bound_to 10162
  139.6003  144.1309  152.2191 LP  0  0  0  0  0  0  0  0  0  0  0  0  # atno 17343 bound_to 10162
  156.2310  130.3682  149.8445 LP  0  0  0  0  0  0  0  0  0  0  0  0  # atno 17370 bound_to 10713
  156.6272  130.8650  151.3488 LP  0  0  0  0  0  0  0  0  0  0  0  0  # atno 17371 bound_to 10713
  141.1706  133.8616  157.1581 LP  0  0  0  0  0  0  0  0  0  0  0  0  # atno 17394 bound_to 11000
  140.0071  135.0004  157.0316 LP  0  0  0  0  0  0  0  0  0  0  0  0  # atno 17395 bound_to 11000

$$$$
