AV-unprocessed.smi:1473|AV-procd|sdf|5969|dock5
  -GOLD-   22720 6 53D 1   1.00000     0.00000
 Structure written by MMmdl.
 35 36  0  0  0  0  0  0  0  0  2 V2000
  149.2150  136.5360  156.7808 N   0  0  0  0  0  0  0  0  0  0  0  0
  150.1303  135.9297  155.4590 S   0  0  0  0  0  0  0  0  0  0  0  0
  151.5141  135.7003  155.9008 O   0  0  0  0  0  0  0  0  0  0  0  0
  149.3564  134.8771  154.7846 O   0  0  0  0  0  0  0  0  0  0  0  0
  150.1102  137.3348  154.4617 N   0  0  0  0  0  0  0  0  0  0  0  0
  151.1816  138.3242  154.5571 C   0  0  0  0  0  0  0  0  0  0  0  0
  150.6765  139.6894  154.9805 C   0  0  0  0  0  0  0  0  0  0  0  0
  149.6005  140.2948  154.3000 C   0  0  0  0  0  0  0  0  0  0  0  0
  149.1435  141.5529  154.7330 C   0  0  0  0  0  0  0  0  0  0  0  0
  149.7331  142.1556  155.7879 N   0  3  0  0  0  0  0  0  0  0  0  0
  150.7662  141.6223  156.4869 C   0  0  0  0  0  0  0  0  0  0  0  0
  151.2904  142.3601  157.5737 N   0  0  0  0  0  0  0  0  0  0  0  0
  152.2296  141.6622  158.4521 C   0  0  0  0  0  0  0  0  0  0  0  0
  152.4589  142.4587  159.7476 C   0  0  0  0  0  0  0  0  0  0  0  0
  152.8673  143.7840  159.4311 O   0  0  0  0  0  0  0  0  0  0  0  0
  151.8650  144.4804  158.7008 C   0  0  0  0  0  0  0  0  0  0  0  0
  151.6072  143.7706  157.3607 C   0  0  0  0  0  0  0  0  0  0  0  0
  151.2619  140.3574  156.0783 C   0  0  0  0  0  0  0  0  0  0  0  0
  148.2707  136.1518  156.8082 H   0  0  0  0  0  0  0  0  0  0  0  0
  149.2421  137.5539  156.8377 H   0  0  0  0  0  0  0  0  0  0  0  0
  149.7189  137.1959  153.5300 H   0  0  0  0  0  0  0  0  0  0  0  0
  151.9452  137.9678  155.2493 H   0  0  0  0  0  0  0  0  0  0  0  0
  151.6621  138.4121  153.5824 H   0  0  0  0  0  0  0  0  0  0  0  0
  149.1295  139.8017  153.4620 H   0  0  0  0  0  0  0  0  0  0  0  0
  148.3276  142.0914  154.2731 H   0  0  0  0  0  0  0  0  0  0  0  0
  151.8687  140.6689  158.7183 H   0  0  0  0  0  0  0  0  0  0  0  0
  153.1740  141.5293  157.9228 H   0  0  0  0  0  0  0  0  0  0  0  0
  151.5539  142.4797  160.3573 H   0  0  0  0  0  0  0  0  0  0  0  0
  153.2343  141.9823  160.3475 H   0  0  0  0  0  0  0  0  0  0  0  0
  150.9486  144.5439  159.2899 H   0  0  0  0  0  0  0  0  0  0  0  0
  152.1998  145.5028  158.5243 H   0  0  0  0  0  0  0  0  0  0  0  0
  152.4843  143.8493  156.7168 H   0  0  0  0  0  0  0  0  0  0  0  0
  150.7819  144.2764  156.8595 H   0  0  0  0  0  0  0  0  0  0  0  0
  152.0728  139.8721  156.6001 H   0  0  0  0  0  0  0  0  0  0  0  0
  149.3778  143.0674  156.0766 H   0  0  0  0  0  0  0  0  0  0  0  0
  1  2  1  0  0  0  0
  1 19  1  0  0  0  0
  1 20  1  0  0  0  0
  2  3  2  0  0  0  0
  2  4  2  0  0  0  0
  2  5  1  0  0  0  0
  5  6  1  0  0  0  0
  5 21  1  0  0  0  0
  6  7  1  0  0  0  0
  6 22  1  0  0  0  0
  6 23  1  0  0  0  0
  7 18  1  0  0  0  0
  7  8  2  0  0  0  0
  8  9  1  0  0  0  0
  8 24  1  0  0  0  0
  9 10  2  0  0  0  0
  9 25  1  0  0  0  0
 10 11  1  0  0  0  0
 10 35  1  0  0  0  0
 11 12  1  0  0  0  0
 11 18  2  0  0  0  0
 12 17  1  0  0  0  0
 12 13  1  0  0  0  0
 13 14  1  0  0  0  0
 13 26  1  0  0  0  0
 13 27  1  0  0  0  0
 14 15  1  0  0  0  0
 14 28  1  0  0  0  0
 14 29  1  0  0  0  0
 15 16  1  0  0  0  0
 16 17  1  0  0  0  0
 16 30  1  0  0  0  0
 16 31  1  0  0  0  0
 17 32  1  0  0  0  0
 17 33  1  0  0  0  0
 18 34  1  0  0  0  0
M  CHG  1  10   1
M  END
> <s_m_source_file>
AV-unprocessed.smi

> <i_m_source_file_index>
1473

> <i_lp_mmshare_version>
43012

> <i_f3d_flags>
0

> <s_epik_input>
W05IMl1TKD1PKSg9TylbTkhdW0NIMl1jMVtjSF1bY0hdbmMoW2NIXTEpTjJbQ0gyXVtDSDJdT1tDSDJdW0NIMl0y

> <s_epik_cmdline>
J2VwaWtfcHl0aG9uJywgJy1waCcsICc3LjAnLCAnLXRuJywgJzgnLCAnLW1hJywgJzIwMCcsICctbWV0YWxfYmluZGluZycsICctaW1hZScsICc8aW5maWxlLm1hZT4nLCAnLW9tYWUnLCAnPG91dGZpbGUubWFlPic=

> <r_lp_tautomer_probability>
0.999994

> <r_epik_Ionization_Penalty>
2.36475

> <r_epik_Ionization_Penalty_Charging>
1.69468

> <r_epik_Ionization_Penalty_Neutral>
0.670067

> <r_epik_State_Penalty>
1.95548

> <r_epik_Charging_Adjusted_Penalty>
3.65016

> <i_epik_Tot_Q>
1

> <i_epik_Tot_abs_Q>
1

> <r_epik_Metal_State_Penalty>
4.27053

> <b_epik_Metal_Only>
0

> <s_lp_Force_Field>
OPLS_2005

> <r_lp_Energy>
21.3801

> <b_lp_Chiralities_Consistent>
1

> <s_lp_Variant>
AV-unprocessed.smi:1473-4

> <Gold.Version>
5.8.1

> <Gold.Id.Protein>
6NUR|6NUR_protein|mol2

> <Gold.PLP.Fitness>
48.2279

> <Gold.PLP.PLP>
-36.4096

> <Gold.PLP.part.hbond>
-3.0000

> <Gold.PLP.part.metal>
0.0000

> <Gold.PLP.part.buried>
-2.8982

> <Gold.PLP.part.nonpolar>
-30.7227

> <Gold.PLP.part.repulsive>
0.4364

> <Gold.PLP.ligand.clash>
0.0000

> <Gold.PLP.ligand.torsion>
0.7781

> <Gold.PLP.Chemscore.Hbond>
3.9753

> <Gold.PLP.Chemscore.CHOScore>
0.0000

> <Gold.PLP.Chemscore.Metal>
0.0000

> <Gold.Chemscore.Hbonds>
donor molecule, donor type, donor heavy atom, donor atom, acceptor molecule, acceptor atom, score
      L1  H     5    21       P1  7948  0.98
      L1  H    10    35       P1  8028  1.98
      P1  H 10752 10763       L1     3  1.00

> <Gold.PLP.Chemscore.Internal.Correction>
1.4488

> <Gold.Rescore>
     Score         DG    S(hbond)    S(metal)    S(lipo)     H(rot)  DE(clash)    DE(int)     intcor
     18.87     -19.80       2.84        0.00      83.48       1.93       0.18       0.75       ----

> <Gold.Chemscore.Fitness>
18.8699

> <Gold.Chemscore.DG>
-19.7972

> <Gold.Chemscore.ZeroCoef>
-5.4800

> <Gold.Chemscore.Hbond>
2.8409

> <Gold.Chemscore.Metal>
0.0000

> <Gold.Chemscore.Lipo>
83.4791

> <Gold.Chemscore.Internal_Hbond>
0.0000

> <Gold.Chemscore.DEClash>
0.1765

> <Gold.Chemscore.DEInternal>
0.7508

> <Gold.Chemscore.Rot>
1.9292

> <Gold.Chemscore.Internal.Correction>
   9.000000E+99

> <Gold.Chemscore.Hbonds>
donor molecule, donor type, donor heavy atom, donor atom, acceptor molecule, acceptor atom, score
      L1  H     5    21       P1  7948  0.64
      L1  H    10    35       P1  8028  0.94
      P1  H 10752 10763       L1     3  1.00

> <Gold.Chemscore.Hbond.Weighted>
-9.4887

> <Gold.Chemscore.Metal.Weighted>
-0.0000

> <Gold.Chemscore.Lipo.Weighted>
-9.7671

> <Gold.Chemscore.Internal_Hbond.Weighted>
0.0000

> <Gold.Chemscore.DEClash.Weighted>
0.1765

> <Gold.Chemscore.DEInternal.Weighted>
0.7508

> <Gold.Chemscore.Rot.Weighted>
4.9386

> <Gold.Chemscore.Internal.Correction.Weighted>
   9.000000E+99

> <Gold.Protein.RotatedTorsions>
[ 6907 6896 6895 6894 ] final  153.83 input  -60.11 | X-H torsion
[ 7974 7965 7964 7962 ] final  136.17 input  175.53 | X-H torsion
[ 8008 7997 7996 7995 ] final   50.06 input   59.86 | X-H torsion
[ 10167 10162 10161 10158 ] final   99.04 input  -65.29 | X-H torsion
[ 10718 10713 10712 10709 ] final  125.14 input   66.30 | X-H torsion
[ 10763 10752 10751 10750 ] final   87.76 input  -60.55 | X-H torsion
[ 11005 11000 10999 10996 ] final   -9.89 input  -57.11 | X-H torsion

> <Gold.Protein.ActiveResidues>
 VAL166  LYS551  ARG553  GLY616  TRP617  ASP618  TYR619  PRO620  LYS621  CYS622 
 ASP623  PHE694  ASN695  SER759  ASP760  ASP761  ALA762  ILE779  LEU786  VAL792 
 PHE793  MET794  SER795  GLU796  ALA797  LYS798  CYS799  TRP800  GLU811  SER814 

> <Gold.Protein.RotatedAtoms>
  152.0671  133.4089  159.4442 H   0  0  0  0  0  0  0  0  0  0  0  0  # atno 6907 bound_to 6896
  150.6864  134.3134  159.4765 H   0  0  0  0  0  0  0  0  0  0  0  0  # atno 6908 bound_to 6896
  152.0961  134.9373  160.0621 H   0  0  0  0  0  0  0  0  0  0  0  0  # atno 6909 bound_to 6896
  144.9591  139.4730  143.5488 H   0  0  0  0  0  0  0  0  0  0  0  0  # atno 7974 bound_to 7965
  155.4126  140.3443  155.4265 H   0  0  0  0  0  0  0  0  0  0  0  0  # atno 8008 bound_to 7997
  156.1440  140.1550  156.8907 H   0  0  0  0  0  0  0  0  0  0  0  0  # atno 8009 bound_to 7997
  154.4995  140.0818  156.7748 H   0  0  0  0  0  0  0  0  0  0  0  0  # atno 8010 bound_to 7997
  139.7653  144.6941  151.0233 H   0  0  0  0  0  0  0  0  0  0  0  0  # atno 10167 bound_to 10162
  157.5528  131.1093  150.8673 H   0  0  0  0  0  0  0  0  0  0  0  0  # atno 10718 bound_to 10713
  153.1700  135.4532  154.9890 H   0  0  0  0  0  0  0  0  0  0  0  0  # atno 10763 bound_to 10752
  154.7959  135.3237  154.7670 H   0  0  0  0  0  0  0  0  0  0  0  0  # atno 10764 bound_to 10752
  153.8147  135.6952  153.4890 H   0  0  0  0  0  0  0  0  0  0  0  0  # atno 10765 bound_to 10752
  140.7389  133.8686  155.8952 H   0  0  0  0  0  0  0  0  0  0  0  0  # atno 11005 bound_to 11000
  146.3347  139.8729  142.8837 LP  0  0  0  0  0  0  0  0  0  0  0  0  # atno 17320 bound_to 7965
  145.2727  141.0114  143.3763 LP  0  0  0  0  0  0  0  0  0  0  0  0  # atno 17321 bound_to 7965
  140.7810  143.4649  151.0225 LP  0  0  0  0  0  0  0  0  0  0  0  0  # atno 17342 bound_to 10162
  139.8335  143.7660  152.3180 LP  0  0  0  0  0  0  0  0  0  0  0  0  # atno 17343 bound_to 10162
  156.9193  130.5309  149.5279 LP  0  0  0  0  0  0  0  0  0  0  0  0  # atno 17370 bound_to 10713
  156.0591  130.5647  150.9155 LP  0  0  0  0  0  0  0  0  0  0  0  0  # atno 17371 bound_to 10713
  140.9854  134.1350  157.4457 LP  0  0  0  0  0  0  0  0  0  0  0  0  # atno 17394 bound_to 11000
  139.8810  135.0024  156.6123 LP  0  0  0  0  0  0  0  0  0  0  0  0  # atno 17395 bound_to 11000

$$$$
