AV-unprocessed.smi:282|AV-procd|sdf|2121|dock9
  -GOLD-   2262021423D 1   1.00000     0.00000
 Structure written by MMmdl.
 65 69  0  0  0  0  0  0  0  0  2 V2000
  148.5058  128.7793  153.1594 C   0  0  0  0  0  0  0  0  0  0  0  0
  148.7799  130.2594  153.4583 C   0  0  0  0  0  0  0  0  0  0  0  0
  147.5113  131.0821  153.7919 C   0  0  2  0  0  0  0  0  0  0  0  0
  146.3981  130.9458  152.7322 C   0  0  0  0  0  0  0  0  0  0  0  0
  146.7433  131.6604  151.4741 N   0  3  1  0  0  0  0  0  0  0  0  0
  145.7443  131.4720  150.3900 C   0  0  0  0  0  0  0  0  0  0  0  0
  144.4736  132.3124  150.6193 C   0  0  0  0  0  0  0  0  0  0  0  0
  144.8211  133.7949  150.8114 C   0  0  0  0  0  0  0  0  0  0  0  0
  145.8537  133.9624  151.9350 C   0  0  0  0  0  0  0  0  0  0  0  0
  147.1049  133.0943  151.6750 C   0  0  1  0  0  0  0  0  0  0  0  0
  148.1712  133.2566  152.7764 C   0  0  0  0  0  0  0  0  0  0  0  0
  147.8189  132.5023  153.9788 N   0  0  0  0  0  0  0  0  0  0  0  0
  148.4140  132.8510  155.1480 C   0  0  0  0  0  0  0  0  0  0  0  0
  149.7582  133.0518  155.1843 N   0  0  0  0  0  0  0  0  0  0  0  0
  150.3595  133.3867  156.3297 C   0  0  0  0  0  0  0  0  0  0  0  0
  149.8151  133.5775  157.5326 N   0  0  0  0  0  0  0  0  0  0  0  0
  148.4645  133.3899  157.5003 C   0  0  0  0  0  0  0  0  0  0  0  0
  147.6919  133.0232  156.3625 C   0  0  0  0  0  0  0  0  0  0  0  0
  146.3504  132.9284  156.7132 N   0  0  0  0  0  0  0  0  0  0  0  0
  146.3327  133.2150  157.9861 C   0  0  0  0  0  0  0  0  0  0  0  0
  147.5560  133.5244  158.5363 N   0  0  0  0  0  0  0  0  0  0  0  0
  147.8281  133.8817  159.9202 C   0  0  0  0  0  0  0  0  0  0  0  0
  147.0595  135.1299  160.4627 C   0  0  0  0  0  0  0  0  0  0  0  0
  147.2034  136.3369  159.4931 C   0  0  0  0  0  0  0  0  0  0  0  0
  146.5959  137.5227  159.9676 O   0  0  0  0  0  0  0  0  0  0  0  0
  145.5583  134.8515  160.7356 C   0  0  0  0  0  0  0  0  0  0  0  0
  145.3388  133.8882  161.9154 C   0  0  0  0  0  0  0  0  0  0  0  0
  145.9473  134.4140  163.0877 O   0  0  0  0  0  0  0  0  0  0  0  0
  147.3556  134.5620  162.9611 C   0  0  0  0  0  0  0  0  0  0  0  0
  147.6836  135.5437  161.8196 C   0  0  0  0  0  0  0  0  0  0  0  0
  149.4417  128.2354  153.0299 H   0  0  0  0  0  0  0  0  0  0  0  0
  147.9277  128.6482  152.2453 H   0  0  0  0  0  0  0  0  0  0  0  0
  147.9599  128.3069  153.9765 H   0  0  0  0  0  0  0  0  0  0  0  0
  149.4659  130.3020  154.3051 H   0  0  0  0  0  0  0  0  0  0  0  0
  149.3150  130.7025  152.6181 H   0  0  0  0  0  0  0  0  0  0  0  0
  147.1100  130.6820  154.7217 H   0  0  0  0  0  0  0  0  0  0  0  0
  146.1910  129.8979  152.5187 H   0  0  0  0  0  0  0  0  0  0  0  0
  145.4733  131.3535  153.1407 H   0  0  0  0  0  0  0  0  0  0  0  0
  146.2054  131.7639  149.4456 H   0  0  0  0  0  0  0  0  0  0  0  0
  145.4924  130.4154  150.2927 H   0  0  0  0  0  0  0  0  0  0  0  0
  143.7976  132.1984  149.7714 H   0  0  0  0  0  0  0  0  0  0  0  0
  143.9311  131.9455  151.4909 H   0  0  0  0  0  0  0  0  0  0  0  0
  145.2221  134.2004  149.8816 H   0  0  0  0  0  0  0  0  0  0  0  0
  143.9210  134.3670  151.0382 H   0  0  0  0  0  0  0  0  0  0  0  0
  146.1395  135.0120  152.0109 H   0  0  0  0  0  0  0  0  0  0  0  0
  145.4009  133.7020  152.8923 H   0  0  0  0  0  0  0  0  0  0  0  0
  147.5512  133.4449  150.7431 H   0  0  0  0  0  0  0  0  0  0  0  0
  149.1358  132.9033  152.4103 H   0  0  0  0  0  0  0  0  0  0  0  0
  148.2963  134.3147  153.0116 H   0  0  0  0  0  0  0  0  0  0  0  0
  151.4293  133.5234  156.2741 H   0  0  0  0  0  0  0  0  0  0  0  0
  145.4179  133.2174  158.5603 H   0  0  0  0  0  0  0  0  0  0  0  0
  147.6181  132.9984  160.5209 H   0  0  0  0  0  0  0  0  0  0  0  0
  148.9022  134.0443  160.0166 H   0  0  0  0  0  0  0  0  0  0  0  0
  148.2555  136.5718  159.3280 H   0  0  0  0  0  0  0  0  0  0  0  0
  146.7853  136.0938  158.5157 H   0  0  0  0  0  0  0  0  0  0  0  0
  145.6700  137.4797  159.7839 H   0  0  0  0  0  0  0  0  0  0  0  0
  145.0565  135.7916  160.9696 H   0  0  0  0  0  0  0  0  0  0  0  0
  145.0571  134.4688  159.8476 H   0  0  0  0  0  0  0  0  0  0  0  0
  144.2715  133.7707  162.1028 H   0  0  0  0  0  0  0  0  0  0  0  0
  145.7292  132.8931  161.7002 H   0  0  0  0  0  0  0  0  0  0  0  0
  147.7479  134.9473  163.9023 H   0  0  0  0  0  0  0  0  0  0  0  0
  147.8245  133.5899  162.8079 H   0  0  0  0  0  0  0  0  0  0  0  0
  148.7645  135.6538  161.7243 H   0  0  0  0  0  0  0  0  0  0  0  0
  147.3087  136.5251  162.1132 H   0  0  0  0  0  0  0  0  0  0  0  0
  147.5870  131.2109  151.1485 H   0  0  0  0  0  0  0  0  0  0  0  0
  1  2  1  0  0  0  0
  1 31  1  0  0  0  0
  1 32  1  0  0  0  0
  1 33  1  0  0  0  0
  2  3  1  0  0  0  0
  2 34  1  0  0  0  0
  2 35  1  0  0  0  0
  3 12  1  0  0  0  0
  3  4  1  0  0  0  0
  3 36  1  0  0  0  0
  4  5  1  0  0  0  0
  4 37  1  0  0  0  0
  4 38  1  0  0  0  0
  5 10  1  0  0  0  0
  5  6  1  0  0  0  0
  5 65  1  0  0  0  0
  6  7  1  0  0  0  0
  6 39  1  0  0  0  0
  6 40  1  0  0  0  0
  7  8  1  0  0  0  0
  7 41  1  0  0  0  0
  7 42  1  0  0  0  0
  8  9  1  0  0  0  0
  8 43  1  0  0  0  0
  8 44  1  0  0  0  0
  9 10  1  0  0  0  0
  9 45  1  0  0  0  0
  9 46  1  0  0  0  0
 10 11  1  0  0  0  0
 10 47  1  0  0  0  0
 11 12  1  0  0  0  0
 11 48  1  0  0  0  0
 11 49  1  0  0  0  0
 12 13  1  0  0  0  0
 13 18  1  0  0  0  0
 13 14  2  0  0  0  0
 14 15  1  0  0  0  0
 15 16  2  0  0  0  0
 15 50  1  0  0  0  0
 16 17  1  0  0  0  0
 17 21  1  0  0  0  0
 17 18  2  0  0  0  0
 18 19  1  0  0  0  0
 19 20  2  0  0  0  0
 20 21  1  0  0  0  0
 20 51  1  0  0  0  0
 21 22  1  0  0  0  0
 22 23  1  0  0  0  0
 22 52  1  0  0  0  0
 22 53  1  0  0  0  0
 23 30  1  0  0  0  0
 23 24  1  0  0  0  0
 23 26  1  0  0  0  0
 24 25  1  0  0  0  0
 24 54  1  0  0  0  0
 24 55  1  0  0  0  0
 25 56  1  0  0  0  0
 26 27  1  0  0  0  0
 26 57  1  0  0  0  0
 26 58  1  0  0  0  0
 27 28  1  0  0  0  0
 27 59  1  0  0  0  0
 27 60  1  0  0  0  0
 28 29  1  0  0  0  0
 29 30  1  0  0  0  0
 29 61  1  0  0  0  0
 29 62  1  0  0  0  0
 30 63  1  0  0  0  0
 30 64  1  0  0  0  0
M  CHG  1   5   1
M  END
> <s_m_source_file>
AV-unprocessed.smi

> <i_m_source_file_index>
282

> <i_lp_mmshare_version>
43012

> <i_f3d_flags>
0

> <s_epik_input>
W0NIMl0xW0NIMl1bQ0gyXVtDSDJdW0NAQEhdKE4xMilbQ0gyXU4oW0NAQEhdKFtDSDJdMilbQ0gyXVtDSDNdKWMobltjSF1uMyljKGMzNCluW2NIXW40W0NIMl1DNShbQ0gyXVtPSF0pW0NIMl1bQ0gyXU9bQ0gyXVtDSDJdNQ==

> <s_epik_cmdline>
J2VwaWtfcHl0aG9uJywgJy1waCcsICc3LjAnLCAnLXRuJywgJzgnLCAnLW1hJywgJzIwMCcsICctbWV0YWxfYmluZGluZycsICctaW1hZScsICc8aW5maWxlLm1hZT4nLCAnLW9tYWUnLCAnPG91dGZpbGUubWFlPic=

> <r_lp_tautomer_probability>
1

> <r_epik_Ionization_Penalty>
0.00308583

> <r_epik_Ionization_Penalty_Charging>
0.00300384

> <r_epik_Ionization_Penalty_Neutral>
8.19894e-05

> <r_epik_State_Penalty>
-0

> <r_epik_Charging_Adjusted_Penalty>
0.00300384

> <i_epik_Tot_Q>
1

> <i_epik_Tot_abs_Q>
1

> <r_epik_Metal_State_Penalty>
-0

> <b_epik_Metal_Only>
0

> <s_lp_Force_Field>
OPLS_2005

> <r_lp_Energy>
61.1987

> <b_lp_Chiralities_Consistent>
1

> <s_lp_Variant>
AV-unprocessed.smi:282-5

> <Gold.Version>
5.8.1

> <Gold.Id.Protein>
6NUR|6NUR_protein|mol2

> <Gold.PLP.Fitness>
50.4576

> <Gold.PLP.PLP>
-43.7107

> <Gold.PLP.part.hbond>
-4.0000

> <Gold.PLP.part.metal>
0.0000

> <Gold.PLP.part.buried>
-6.2025

> <Gold.PLP.part.nonpolar>
-34.9298

> <Gold.PLP.part.repulsive>
0.0727

> <Gold.PLP.ligand.clash>
0.0000

> <Gold.PLP.ligand.torsion>
1.2678

> <Gold.PLP.Chemscore.Hbond>
3.0000

> <Gold.PLP.Chemscore.CHOScore>
0.0000

> <Gold.PLP.Chemscore.Metal>
0.0000

> <Gold.Chemscore.Hbonds>
donor molecule, donor type, donor heavy atom, donor atom, acceptor molecule, acceptor atom, score
      L1  H     5    65       P1 10747  1.00
      P1  H  6896  6908       L1    16  1.00
      P1  H  6934  6947       L1    25  1.00

> <Gold.PLP.Chemscore.Internal.Correction>
0.2824

> <Gold.Rescore>
     Score         DG    S(hbond)    S(metal)    S(lipo)     H(rot)  DE(clash)    DE(int)     intcor
     20.72     -22.04       2.92        0.00     106.31       2.20       0.05       1.27       ----

> <Gold.Chemscore.Fitness>
20.7165

> <Gold.Chemscore.DG>
-22.0432

> <Gold.Chemscore.ZeroCoef>
-5.4800

> <Gold.Chemscore.Hbond>
2.9244

> <Gold.Chemscore.Metal>
0.0000

> <Gold.Chemscore.Lipo>
106.3115

> <Gold.Chemscore.Internal_Hbond>
0.0000

> <Gold.Chemscore.DEClash>
0.0540

> <Gold.Chemscore.DEInternal>
1.2727

> <Gold.Chemscore.Rot>
2.2042

> <Gold.Chemscore.Internal.Correction>
   9.000000E+99

> <Gold.Chemscore.Hbonds>
donor molecule, donor type, donor heavy atom, donor atom, acceptor molecule, acceptor atom, score
      L1  H     5    65       P1 10747  1.00
      P1  H  6896  6908       L1    16  0.91
      P1  H  6934  6947       L1    25  0.92

> <Gold.Chemscore.Hbond.Weighted>
-9.7676

> <Gold.Chemscore.Metal.Weighted>
-0.0000

> <Gold.Chemscore.Lipo.Weighted>
-12.4384

> <Gold.Chemscore.Internal_Hbond.Weighted>
0.0000

> <Gold.Chemscore.DEClash.Weighted>
0.0540

> <Gold.Chemscore.DEInternal.Weighted>
1.2727

> <Gold.Chemscore.Rot.Weighted>
5.6429

> <Gold.Chemscore.Internal.Correction.Weighted>
   9.000000E+99

> <Gold.Protein.RotatedTorsions>
[ 6907 6896 6895 6894 ] final  106.51 input  -60.11 | X-H torsion
[ 7974 7965 7964 7962 ] final -136.45 input  175.53 | X-H torsion
[ 8008 7997 7996 7995 ] final  -26.22 input   59.86 | X-H torsion
[ 10167 10162 10161 10158 ] final  148.99 input  -65.29 | X-H torsion
[ 10718 10713 10712 10709 ] final  129.60 input   66.30 | X-H torsion
[ 10763 10752 10751 10750 ] final -123.01 input  -60.55 | X-H torsion
[ 11005 11000 10999 10996 ] final  -16.04 input  -57.11 | X-H torsion

> <Gold.Protein.ActiveResidues>
 VAL166  LYS551  ARG553  GLY616  TRP617  ASP618  TYR619  PRO620  LYS621  CYS622 
 ASP623  PHE694  ASN695  SER759  ASP760  ASP761  ALA762  ILE779  LEU786  VAL792 
 PHE793  MET794  SER795  GLU796  ALA797  LYS798  CYS799  TRP800  GLU811  SER814 

> <Gold.Protein.RotatedAtoms>
  152.5191  133.9370  159.7607 H   0  0  0  0  0  0  0  0  0  0  0  0  # atno 6907 bound_to 6896
  150.9708  133.6338  159.2745 H   0  0  0  0  0  0  0  0  0  0  0  0  # atno 6908 bound_to 6896
  151.3550  135.0898  159.9468 H   0  0  0  0  0  0  0  0  0  0  0  0  # atno 6909 bound_to 6896
  144.8926  140.6663  143.5135 H   0  0  0  0  0  0  0  0  0  0  0  0  # atno 7974 bound_to 7965
  154.4436  140.1905  156.0741 H   0  0  0  0  0  0  0  0  0  0  0  0  # atno 8008 bound_to 7997
  156.0489  140.3311  155.7301 H   0  0  0  0  0  0  0  0  0  0  0  0  # atno 8009 bound_to 7997
  155.5587  140.0601  157.2824 H   0  0  0  0  0  0  0  0  0  0  0  0  # atno 8010 bound_to 7997
  139.4867  144.5636  151.7185 H   0  0  0  0  0  0  0  0  0  0  0  0  # atno 10167 bound_to 10162
  157.5139  131.1097  150.9253 H   0  0  0  0  0  0  0  0  0  0  0  0  # atno 10718 bound_to 10713
  154.8700  135.4113  154.2874 H   0  0  0  0  0  0  0  0  0  0  0  0  # atno 10763 bound_to 10752
  153.3756  135.7009  153.6610 H   0  0  0  0  0  0  0  0  0  0  0  0  # atno 10764 bound_to 10752
  153.5454  135.3639  155.2708 H   0  0  0  0  0  0  0  0  0  0  0  0  # atno 10765 bound_to 10752
  140.8027  133.8201  155.9486 H   0  0  0  0  0  0  0  0  0  0  0  0  # atno 11005 bound_to 11000
  145.3756  139.1648  143.4308 LP  0  0  0  0  0  0  0  0  0  0  0  0  # atno 17320 bound_to 7965
  146.3063  140.3831  142.8686 LP  0  0  0  0  0  0  0  0  0  0  0  0  # atno 17321 bound_to 7965
  140.5210  144.0878  150.6023 LP  0  0  0  0  0  0  0  0  0  0  0  0  # atno 17342 bound_to 10162
  140.3836  143.2789  152.0141 LP  0  0  0  0  0  0  0  0  0  0  0  0  # atno 17343 bound_to 10162
  156.9885  130.5554  149.5301 LP  0  0  0  0  0  0  0  0  0  0  0  0  # atno 17370 bound_to 10713
  156.0307  130.5398  150.8527 LP  0  0  0  0  0  0  0  0  0  0  0  0  # atno 17371 bound_to 10713
  140.9278  134.2060  157.4884 LP  0  0  0  0  0  0  0  0  0  0  0  0  # atno 17394 bound_to 11000
  139.8720  134.9820  156.5138 LP  0  0  0  0  0  0  0  0  0  0  0  0  # atno 17395 bound_to 11000

$$$$
