AV-unprocessed.smi:1986|AV-procd|sdf|8053|dock4
  -GOLD-   2272010253D 1   1.00000     0.00000
 Structure written by MMmdl.
 48 49  0  0  0  0  0  0  0  0  2 V2000
  146.5248  131.7629  154.0061 C   0  0  0  0  0  0  0  0  0  0  0  0
  147.2156  132.8171  154.8912 C   0  0  0  0  0  0  0  0  0  0  0  0
  148.0951  133.8971  154.1752 C   0  0  2  0  0  0  0  0  0  0  0  0
  149.0934  133.1811  153.2328 C   0  0  0  0  0  0  0  0  0  0  0  0
  148.8986  134.6948  155.2479 C   0  0  0  0  0  0  0  0  0  0  0  0
  149.4846  135.9113  154.6917 N   0  0  0  0  0  0  0  0  0  0  0  0
  150.2968  136.7711  155.3282 C   0  0  0  0  0  0  0  0  0  0  0  0
  150.5618  136.6840  156.5261 O   0  0  0  0  0  0  0  0  0  0  0  0
  150.9650  137.8704  154.4851 C   0  0  0  0  0  0  0  0  0  0  0  0
  150.9099  139.2136  155.0877 N   0  0  0  0  0  0  0  0  0  0  0  0
  149.9211  140.0309  154.5630 N   0  0  0  0  0  0  0  0  0  0  0  0
  149.7842  141.2382  154.9969 C   0  0  0  0  0  0  0  0  0  0  0  0
  148.7938  142.0145  154.4470 O   0  0  0  0  0  0  0  0  0  0  0  0
  150.6477  141.7640  156.0315 C   0  0  0  0  0  0  0  0  0  0  0  0
  151.6088  140.9605  156.5373 C   0  0  0  0  0  0  0  0  0  0  0  0
  151.7949  139.5883  156.0636 C   0  0  0  0  0  0  0  0  0  0  0  0
  152.6807  138.8441  156.4843 O   0  0  0  0  0  0  0  0  0  0  0  0
  147.2184  134.8559  153.3993 N   0  3  0  0  0  0  0  0  0  0  0  0
  146.4158  134.2468  152.3006 C   0  0  0  0  0  0  0  0  0  0  0  0
  145.7714  135.3409  151.4380 C   0  0  0  0  0  0  0  0  0  0  0  0
  144.9213  136.1308  152.2562 O   0  0  0  0  0  0  0  0  0  0  0  0
  145.6487  136.7914  153.2815 C   0  0  0  0  0  0  0  0  0  0  0  0
  146.3434  135.7645  154.1949 C   0  0  0  0  0  0  0  0  0  0  0  0
  148.8240  142.8339  154.9166 H   0  0  0  0  0  0  0  0  0  0  0  0
  145.8778  131.1298  154.6134 H   0  0  0  0  0  0  0  0  0  0  0  0
  147.2420  131.1016  153.5204 H   0  0  0  0  0  0  0  0  0  0  0  0
  145.9002  132.2145  153.2364 H   0  0  0  0  0  0  0  0  0  0  0  0
  146.4221  133.3105  155.4530 H   0  0  0  0  0  0  0  0  0  0  0  0
  147.8170  132.2819  155.6272 H   0  0  0  0  0  0  0  0  0  0  0  0
  149.7109  132.4631  153.7712 H   0  0  0  0  0  0  0  0  0  0  0  0
  149.7878  133.8764  152.7615 H   0  0  0  0  0  0  0  0  0  0  0  0
  148.5804  132.6352  152.4408 H   0  0  0  0  0  0  0  0  0  0  0  0
  148.2529  134.9840  156.0763 H   0  0  0  0  0  0  0  0  0  0  0  0
  149.6631  134.0802  155.7218 H   0  0  0  0  0  0  0  0  0  0  0  0
  149.3146  136.0796  153.7102 H   0  0  0  0  0  0  0  0  0  0  0  0
  152.0013  137.5749  154.3113 H   0  0  0  0  0  0  0  0  0  0  0  0
  150.4989  137.8936  153.4985 H   0  0  0  0  0  0  0  0  0  0  0  0
  150.5192  142.7758  156.3867 H   0  0  0  0  0  0  0  0  0  0  0  0
  152.2602  141.3405  157.3105 H   0  0  0  0  0  0  0  0  0  0  0  0
  147.0226  133.6149  151.6568 H   0  0  0  0  0  0  0  0  0  0  0  0
  145.6280  133.6158  152.7133 H   0  0  0  0  0  0  0  0  0  0  0  0
  146.5300  135.9617  150.9579 H   0  0  0  0  0  0  0  0  0  0  0  0
  145.1757  134.8910  150.6433 H   0  0  0  0  0  0  0  0  0  0  0  0
  146.3763  137.4728  152.8387 H   0  0  0  0  0  0  0  0  0  0  0  0
  144.9586  137.4028  153.8632 H   0  0  0  0  0  0  0  0  0  0  0  0
  145.5998  135.1813  154.7391 H   0  0  0  0  0  0  0  0  0  0  0  0
  146.9089  136.3362  154.9284 H   0  0  0  0  0  0  0  0  0  0  0  0
  147.8728  135.4734  152.9397 H   0  0  0  0  0  0  0  0  0  0  0  0
  1  2  1  0  0  0  0
  1 25  1  0  0  0  0
  1 26  1  0  0  0  0
  1 27  1  0  0  0  0
  2  3  1  0  0  0  0
  2 28  1  0  0  0  0
  2 29  1  0  0  0  0
  3  4  1  0  0  0  0
  3  5  1  0  0  0  0
  3 18  1  0  0  0  0
  4 30  1  0  0  0  0
  4 31  1  0  0  0  0
  4 32  1  0  0  0  0
  5  6  1  0  0  0  0
  5 33  1  0  0  0  0
  5 34  1  0  0  0  0
  6  7  1  0  0  0  0
  6 35  1  0  0  0  0
  7  8  2  0  0  0  0
  7  9  1  0  0  0  0
  9 36  1  0  0  0  0
  9 37  1  0  0  0  0
  9 10  1  0  0  0  0
 10 11  1  0  0  0  0
 10 16  1  0  0  0  0
 11 12  2  0  0  0  0
 12 13  1  0  0  0  0
 12 14  1  0  0  0  0
 13 24  1  0  0  0  0
 14 38  1  0  0  0  0
 14 15  2  0  0  0  0
 15 39  1  0  0  0  0
 15 16  1  0  0  0  0
 16 17  2  0  0  0  0
 18 23  1  0  0  0  0
 18 19  1  0  0  0  0
 18 48  1  0  0  0  0
 19 20  1  0  0  0  0
 19 40  1  0  0  0  0
 19 41  1  0  0  0  0
 20 21  1  0  0  0  0
 20 42  1  0  0  0  0
 20 43  1  0  0  0  0
 21 22  1  0  0  0  0
 22 23  1  0  0  0  0
 22 44  1  0  0  0  0
 22 45  1  0  0  0  0
 23 46  1  0  0  0  0
 23 47  1  0  0  0  0
M  CHG  1  18   1
M  END
> <s_m_source_file>
AV-unprocessed.smi

> <i_m_source_file_index>
1986

> <i_lp_mmshare_version>
43012

> <i_f3d_flags>
0

> <s_epik_input>
W0NIMl0xW0NIMl1PW0NIMl1bQ0gyXU4xW0NAQF0oW0NIM10pKFtDSDJdW0NIM10pW0NIMl1bTkhdQyg9TylbQ0gyXW4yW25IXWMoPU8pW2NIXVtjSF1jMj1P

> <s_epik_cmdline>
J2VwaWtfcHl0aG9uJywgJy1waCcsICc3LjAnLCAnLXRuJywgJzgnLCAnLW1hJywgJzIwMCcsICctbWV0YWxfYmluZGluZycsICctaW1hZScsICc8aW5maWxlLm1hZT4nLCAnLW9tYWUnLCAnPG91dGZpbGUubWFlPic=

> <r_lp_tautomer_probability>
0.9996

> <r_epik_Ionization_Penalty>
2.73198

> <r_epik_Ionization_Penalty_Charging>
0.519658

> <r_epik_Ionization_Penalty_Neutral>
2.21233

> <r_epik_State_Penalty>
2.2852

> <r_epik_Charging_Adjusted_Penalty>
2.80486

> <i_epik_Tot_Q>
1

> <i_epik_Tot_abs_Q>
1

> <r_epik_Metal_State_Penalty>
2.2852

> <b_epik_Metal_Only>
0

> <s_lp_Force_Field>
OPLS_2005

> <r_lp_Energy>
41.4304

> <b_lp_Chiralities_Consistent>
1

> <s_lp_Variant>
AV-unprocessed.smi:1986-8

> <Gold.Version>
5.8.1

> <Gold.Id.Protein>
6NUR|6NUR_protein|mol2

> <Gold.PLP.Fitness>
49.3041

> <Gold.PLP.PLP>
-35.1904

> <Gold.PLP.part.hbond>
-5.9699

> <Gold.PLP.part.metal>
0.0000

> <Gold.PLP.part.buried>
-4.9023

> <Gold.PLP.part.nonpolar>
-23.8070

> <Gold.PLP.part.repulsive>
0.2812

> <Gold.PLP.ligand.clash>
0.0000

> <Gold.PLP.ligand.torsion>
0.7185

> <Gold.PLP.Chemscore.Hbond>
5.1136

> <Gold.PLP.Chemscore.CHOScore>
0.0000

> <Gold.PLP.Chemscore.Metal>
0.0000

> <Gold.Chemscore.Hbonds>
donor molecule, donor type, donor heavy atom, donor atom, acceptor molecule, acceptor atom, score
      L1  H     6    35       P1  7948  1.00
      L1  H    13    24       P1  8028  1.00
      L1  H    18    48       P1  7948  2.00
      P1  H  7989  7998       L1    11  0.01
      P1  H  7997  8009       L1    17  0.84
      P1  H  8011  8017       L1    13  0.06

> <Gold.PLP.Chemscore.Internal.Correction>
0.2098

> <Gold.Rescore>
     Score         DG    S(hbond)    S(metal)    S(lipo)     H(rot)  DE(clash)    DE(int)     intcor
     15.96     -17.15       3.86        0.00      58.33       3.15       0.32       0.87       ----

> <Gold.Chemscore.Fitness>
15.9594

> <Gold.Chemscore.DG>
-17.1521

> <Gold.Chemscore.ZeroCoef>
-5.4800

> <Gold.Chemscore.Hbond>
3.8645

> <Gold.Chemscore.Metal>
0.0000

> <Gold.Chemscore.Lipo>
58.3321

> <Gold.Chemscore.Internal_Hbond>
0.0000

> <Gold.Chemscore.DEClash>
0.3192

> <Gold.Chemscore.DEInternal>
0.8734

> <Gold.Chemscore.Rot>
3.1485

> <Gold.Chemscore.Internal.Correction>
   9.000000E+99

> <Gold.Chemscore.Hbonds>
donor molecule, donor type, donor heavy atom, donor atom, acceptor molecule, acceptor atom, score
      L1  H     6    35       P1  7948  0.78
      L1  H    13    24       P1  8028  0.95
      L1  H    18    48       P1  7948  1.00
      P1  H  7997  8009       L1    17  0.25
      P1  H  8011  8017       L1    13  0.01

> <Gold.Chemscore.Hbond.Weighted>
-12.9073

> <Gold.Chemscore.Metal.Weighted>
-0.0000

> <Gold.Chemscore.Lipo.Weighted>
-6.8249

> <Gold.Chemscore.Internal_Hbond.Weighted>
0.0000

> <Gold.Chemscore.DEClash.Weighted>
0.3192

> <Gold.Chemscore.DEInternal.Weighted>
0.8734

> <Gold.Chemscore.Rot.Weighted>
8.0601

> <Gold.Chemscore.Internal.Correction.Weighted>
   9.000000E+99

> <Gold.Protein.RotatedTorsions>
[ 6907 6896 6895 6894 ] final   11.31 input  -60.11 | X-H torsion
[ 7974 7965 7964 7962 ] final  101.42 input  175.53 | X-H torsion
[ 8008 7997 7996 7995 ] final -162.35 input   59.86 | X-H torsion
[ 10167 10162 10161 10158 ] final  -85.43 input  -65.29 | X-H torsion
[ 10718 10713 10712 10709 ] final   32.05 input   66.30 | X-H torsion
[ 10763 10752 10751 10750 ] final  -87.15 input  -60.55 | X-H torsion
[ 11005 11000 10999 10996 ] final  -52.34 input  -57.11 | X-H torsion

> <Gold.Protein.ActiveResidues>
 VAL166  LYS551  ARG553  GLY616  TRP617  ASP618  TYR619  PRO620  LYS621  CYS622 
 ASP623  PHE694  ASN695  SER759  ASP760  ASP761  ALA762  ILE779  LEU786  VAL792 
 PHE793  MET794  SER795  GLU796  ALA797  LYS798  CYS799  TRP800  GLU811  SER814 

> <Gold.Protein.RotatedAtoms>
  151.7523  135.0830  160.0332 H   0  0  0  0  0  0  0  0  0  0  0  0  # atno 6907 bound_to 6896
  152.3409  133.6061  159.5884 H   0  0  0  0  0  0  0  0  0  0  0  0  # atno 6908 bound_to 6896
  150.7478  133.9640  159.3566 H   0  0  0  0  0  0  0  0  0  0  0  0  # atno 6909 bound_to 6896
  145.3726  139.2395  143.3447 H   0  0  0  0  0  0  0  0  0  0  0  0  # atno 7974 bound_to 7965
  155.8055  140.0898  157.1933 H   0  0  0  0  0  0  0  0  0  0  0  0  # atno 8008 bound_to 7997
  154.3981  140.1464  156.3384 H   0  0  0  0  0  0  0  0  0  0  0  0  # atno 8009 bound_to 7997
  155.8419  140.3438  155.5640 H   0  0  0  0  0  0  0  0  0  0  0  0  # atno 8010 bound_to 7997
  140.4038  143.2651  151.9108 H   0  0  0  0  0  0  0  0  0  0  0  0  # atno 10167 bound_to 10162
  157.2803  130.7252  149.6553 H   0  0  0  0  0  0  0  0  0  0  0  0  # atno 10718 bound_to 10713
  154.6304  135.5423  153.7674 H   0  0  0  0  0  0  0  0  0  0  0  0  # atno 10763 bound_to 10752
  153.0282  135.6434  154.1309 H   0  0  0  0  0  0  0  0  0  0  0  0  # atno 10764 bound_to 10752
  154.1240  135.2918  155.3181 H   0  0  0  0  0  0  0  0  0  0  0  0  # atno 10765 bound_to 10752
  141.0919  133.6631  156.4010 H   0  0  0  0  0  0  0  0  0  0  0  0  # atno 11005 bound_to 11000
  146.2878  140.4379  142.8751 LP  0  0  0  0  0  0  0  0  0  0  0  0  # atno 17320 bound_to 7965
  144.8565  140.7078  143.6134 LP  0  0  0  0  0  0  0  0  0  0  0  0  # atno 17321 bound_to 7965
  139.4784  144.5607  151.8244 LP  0  0  0  0  0  0  0  0  0  0  0  0  # atno 17342 bound_to 10162
  140.4712  144.1585  150.5918 LP  0  0  0  0  0  0  0  0  0  0  0  0  # atno 17343 bound_to 10162
  155.9664  130.4340  150.5030 LP  0  0  0  0  0  0  0  0  0  0  0  0  # atno 17370 bound_to 10713
  157.2973  131.0638  151.2093 LP  0  0  0  0  0  0  0  0  0  0  0  0  # atno 17371 bound_to 10713
  140.5232  134.6284  157.5325 LP  0  0  0  0  0  0  0  0  0  0  0  0  # atno 17394 bound_to 11000
  139.9747  134.7235  155.9973 LP  0  0  0  0  0  0  0  0  0  0  0  0  # atno 17395 bound_to 11000

$$$$
