AV-unprocessed.smi:838|AV-procd|sdf|3908|dock4
  -GOLD-   22720 1373D 1   1.00000     0.00000
 Structure written by MMmdl.
 45 46  0  0  0  0  0  0  0  0  1 V2000
  153.1461  137.9238  155.9646 C   0  0  0  0  0  0  0  0  0  0  0  0
  152.4078  139.2641  155.9563 C   0  0  0  0  0  0  0  0  0  0  0  0
  152.7180  140.1007  156.8047 O   0  0  0  0  0  0  0  0  0  0  0  0
  151.4458  139.4842  155.0291 N   0  0  0  0  0  0  0  0  0  0  0  0
  151.0409  138.4848  154.0365 C   0  0  0  0  0  0  0  0  0  0  0  0
  149.5720  138.0940  154.2891 C   0  0  0  0  0  0  0  0  0  0  0  0
  148.7108  139.2765  154.2016 N   0  0  0  0  0  0  0  0  0  0  0  0
  147.3181  138.8775  154.4057 C   0  0  0  0  0  0  0  0  0  0  0  0
  146.5291  138.7237  153.0891 C   0  0  0  0  0  0  0  0  0  0  0  0
  146.7228  137.4049  152.4932 N   0  0  0  0  0  0  0  0  0  0  0  0
  145.7756  136.4636  152.3674 C   0  0  0  0  0  0  0  0  0  0  0  0
  144.6204  136.6023  152.7710 O   0  0  0  0  0  0  0  0  0  0  0  0
  146.2572  135.3728  151.7459 N   0  0  0  0  0  0  0  0  0  0  0  0
  145.5784  134.1636  151.4247 C   0  0  0  0  0  0  0  0  0  0  0  0
  144.3617  134.1439  150.8245 N   0  0  0  0  0  0  0  0  0  0  0  0
  143.7737  132.9617  150.5510 C   0  0  0  0  0  0  0  0  0  0  0  0
  144.3614  131.7228  150.8590 C   0  0  0  0  0  0  0  0  0  0  0  0
  145.6219  131.7249  151.4803 C   0  0  0  0  0  0  0  0  0  0  0  0
  146.2450  132.9573  151.7701 C   0  0  0  0  0  0  0  0  0  0  0  0
  147.6100  132.9619  152.4393 C   0  0  0  0  0  0  0  0  0  0  0  0
  149.1368  140.2775  155.1875 C   0  0  0  0  0  0  0  0  0  0  0  0
  150.6018  140.6793  154.9314 C   0  0  0  0  0  0  0  0  0  0  0  0
  153.6778  137.7691  155.0253 H   0  0  0  0  0  0  0  0  0  0  0  0
  152.4490  137.0998  156.1182 H   0  0  0  0  0  0  0  0  0  0  0  0
  153.8791  137.8938  156.7713 H   0  0  0  0  0  0  0  0  0  0  0  0
  151.1560  138.9022  153.0351 H   0  0  0  0  0  0  0  0  0  0  0  0
  151.6637  137.5901  154.0615 H   0  0  0  0  0  0  0  0  0  0  0  0
  149.2609  137.3587  153.5462 H   0  0  0  0  0  0  0  0  0  0  0  0
  149.4685  137.6254  155.2692 H   0  0  0  0  0  0  0  0  0  0  0  0
  147.2953  137.9182  154.9251 H   0  0  0  0  0  0  0  0  0  0  0  0
  146.8216  139.5941  155.0616 H   0  0  0  0  0  0  0  0  0  0  0  0
  145.4657  138.8243  153.3060 H   0  0  0  0  0  0  0  0  0  0  0  0
  146.7566  139.5212  152.3817 H   0  0  0  0  0  0  0  0  0  0  0  0
  147.6431  137.2034  152.1311 H   0  0  0  0  0  0  0  0  0  0  0  0
  147.2254  135.4107  151.4643 H   0  0  0  0  0  0  0  0  0  0  0  0
  142.8065  133.0058  150.0728 H   0  0  0  0  0  0  0  0  0  0  0  0
  143.8588  130.7964  150.6238 H   0  0  0  0  0  0  0  0  0  0  0  0
  146.1019  130.7902  151.7301 H   0  0  0  0  0  0  0  0  0  0  0  0
  147.9621  131.9481  152.6309 H   0  0  0  0  0  0  0  0  0  0  0  0
  147.5662  133.4871  153.3939 H   0  0  0  0  0  0  0  0  0  0  0  0
  148.3443  133.4574  151.8034 H   0  0  0  0  0  0  0  0  0  0  0  0
  148.5138  141.1681  155.1206 H   0  0  0  0  0  0  0  0  0  0  0  0
  149.0240  139.8826  156.1985 H   0  0  0  0  0  0  0  0  0  0  0  0
  150.8841  141.4704  155.6239 H   0  0  0  0  0  0  0  0  0  0  0  0
  150.7038  141.1113  153.9344 H   0  0  0  0  0  0  0  0  0  0  0  0
  1  2  1  0  0  0  0
  1 23  1  0  0  0  0
  1 24  1  0  0  0  0
  1 25  1  0  0  0  0
  2  3  2  0  0  0  0
  2  4  1  0  0  0  0
  4 22  1  0  0  0  0
  4  5  1  0  0  0  0
  5  6  1  0  0  0  0
  5 26  1  0  0  0  0
  5 27  1  0  0  0  0
  6  7  1  0  0  0  0
  6 28  1  0  0  0  0
  6 29  1  0  0  0  0
  7  8  1  0  0  0  0
  7 21  1  0  0  0  0
  8  9  1  0  0  0  0
  8 30  1  0  0  0  0
  8 31  1  0  0  0  0
  9 10  1  0  0  0  0
  9 32  1  0  0  0  0
  9 33  1  0  0  0  0
 10 11  1  0  0  0  0
 10 34  1  0  0  0  0
 11 12  2  0  0  0  0
 11 13  1  0  0  0  0
 13 14  1  0  0  0  0
 13 35  1  0  0  0  0
 14 19  1  0  0  0  0
 14 15  2  0  0  0  0
 15 16  1  0  0  0  0
 16 17  2  0  0  0  0
 16 36  1  0  0  0  0
 17 18  1  0  0  0  0
 17 37  1  0  0  0  0
 18 19  2  0  0  0  0
 18 38  1  0  0  0  0
 19 20  1  0  0  0  0
 20 39  1  0  0  0  0
 20 40  1  0  0  0  0
 20 41  1  0  0  0  0
 21 22  1  0  0  0  0
 21 42  1  0  0  0  0
 21 43  1  0  0  0  0
 22 44  1  0  0  0  0
 22 45  1  0  0  0  0
M  END
> <s_m_source_file>
AV-unprocessed.smi

> <i_m_source_file_index>
838

> <i_lp_mmshare_version>
43012

> <i_f3d_flags>
0

> <s_epik_input>
W0NIM11DKD1PKU4xW0NIMl1bQ0gyXU4oW0NIMl1bQ0gyXTEpW0NIMl1bQ0gyXVtOSF1DKD1PKVtOSF1jMm5bY0hdW2NIXVtjSF1jMltDSDNd

> <s_epik_cmdline>
J2VwaWtfcHl0aG9uJywgJy1waCcsICc3LjAnLCAnLXRuJywgJzgnLCAnLW1hJywgJzIwMCcsICctbWV0YWxfYmluZGluZycsICctaW1hZScsICc8aW5maWxlLm1hZT4nLCAnLW9tYWUnLCAnPG91dGZpbGUubWFlPic=

> <r_epik_Ionization_Penalty>
0.25102

> <r_epik_Ionization_Penalty_Charging>
0

> <r_epik_Ionization_Penalty_Neutral>
0.25102

> <r_epik_State_Penalty>
0.242297

> <r_epik_Charging_Adjusted_Penalty>
0.242297

> <i_epik_Tot_Q>
0

> <i_epik_Tot_abs_Q>
0

> <r_epik_Metal_State_Penalty>
0.242294

> <b_epik_Metal_Only>
0

> <s_lp_Force_Field>
OPLS_2005

> <r_lp_Energy>
40.132

> <b_lp_Chiralities_Consistent>
1

> <s_lp_Variant>
AV-unprocessed.smi:838-1

> <Gold.Version>
5.8.1

> <Gold.Id.Protein>
6NUR|6NUR_protein|mol2

> <Gold.PLP.Fitness>
44.2609

> <Gold.PLP.PLP>
-35.0916

> <Gold.PLP.part.hbond>
-2.9998

> <Gold.PLP.part.metal>
0.0000

> <Gold.PLP.part.buried>
-3.1586

> <Gold.PLP.part.nonpolar>
-30.7324

> <Gold.PLP.part.repulsive>
0.6267

> <Gold.PLP.ligand.clash>
0.0000

> <Gold.PLP.ligand.torsion>
1.1390

> <Gold.PLP.Chemscore.Hbond>
2.8096

> <Gold.PLP.Chemscore.CHOScore>
1.0000

> <Gold.PLP.Chemscore.Metal>
0.0000

> <Gold.Chemscore.Hbonds>
donor molecule, donor type, donor heavy atom, donor atom, acceptor molecule, acceptor atom, score
      L1  H    10    34       P1  7948  1.00
      L1  H    13    35       P1  7948  0.91
      P1  H  7997  8008       L1     3  0.72
      L1  C    16    36       P1 10186  1.00

> <Gold.PLP.Chemscore.Internal.Correction>
0.0185

> <Gold.Rescore>
     Score         DG    S(hbond)    S(metal)    S(lipo)     H(rot)  DE(clash)    DE(int)     intcor
     17.15     -18.85       2.58        0.00      74.38       1.54       0.56       1.14       ----

> <Gold.Chemscore.Fitness>
17.1476

> <Gold.Chemscore.DG>
-18.8527

> <Gold.Chemscore.ZeroCoef>
-5.4800

> <Gold.Chemscore.Hbond>
2.5818

> <Gold.Chemscore.Metal>
0.0000

> <Gold.Chemscore.Lipo>
74.3795

> <Gold.Chemscore.Internal_Hbond>
0.0000

> <Gold.Chemscore.DEClash>
0.5612

> <Gold.Chemscore.DEInternal>
1.1438

> <Gold.Chemscore.Rot>
1.5441

> <Gold.Chemscore.Internal.Correction>
   9.000000E+99

> <Gold.Chemscore.Hbonds>
donor molecule, donor type, donor heavy atom, donor atom, acceptor molecule, acceptor atom, score
      L1  H    10    34       P1  7948  0.98
      L1  H    13    35       P1  7948  0.84
      P1  H  7997  8008       L1     3  0.40

> <Gold.Chemscore.Hbond.Weighted>
-8.6233

> <Gold.Chemscore.Metal.Weighted>
-0.0000

> <Gold.Chemscore.Lipo.Weighted>
-8.7024

> <Gold.Chemscore.Internal_Hbond.Weighted>
0.0000

> <Gold.Chemscore.DEClash.Weighted>
0.5612

> <Gold.Chemscore.DEInternal.Weighted>
1.1438

> <Gold.Chemscore.Rot.Weighted>
3.9530

> <Gold.Chemscore.Internal.Correction.Weighted>
   9.000000E+99

> <Gold.Protein.RotatedTorsions>
[ 6907 6896 6895 6894 ] final  119.52 input  -60.11 | X-H torsion
[ 7974 7965 7964 7962 ] final -137.14 input  175.53 | X-H torsion
[ 8008 7997 7996 7995 ] final  -78.48 input   59.86 | X-H torsion
[ 10167 10162 10161 10158 ] final  -12.16 input  -65.29 | X-H torsion
[ 10718 10713 10712 10709 ] final    1.98 input   66.30 | X-H torsion
[ 10763 10752 10751 10750 ] final -114.57 input  -60.55 | X-H torsion
[ 11005 11000 10999 10996 ] final   -2.55 input  -57.11 | X-H torsion

> <Gold.Protein.ActiveResidues>
 VAL166  LYS551  ARG553  GLY616  TRP617  ASP618  TYR619  PRO620  LYS621  CYS622 
 ASP623  PHE694  ASN695  SER759  ASP760  ASP761  ALA762  ILE779  LEU786  VAL792 
 PHE793  MET794  SER795  GLU796  ALA797  LYS798  CYS799  TRP800  GLU811  SER814 

> <Gold.Protein.RotatedAtoms>
  152.4465  133.7547  159.6713 H   0  0  0  0  0  0  0  0  0  0  0  0  # atno 6907 bound_to 6896
  150.8367  133.7992  159.3083 H   0  0  0  0  0  0  0  0  0  0  0  0  # atno 6908 bound_to 6896
  151.5630  135.1067  160.0029 H   0  0  0  0  0  0  0  0  0  0  0  0  # atno 6909 bound_to 6896
  144.8867  140.6584  143.5171 H   0  0  0  0  0  0  0  0  0  0  0  0  # atno 7974 bound_to 7965
  154.5693  140.0693  156.8940 H   0  0  0  0  0  0  0  0  0  0  0  0  # atno 8008 bound_to 7997
  155.2663  140.3362  155.4250 H   0  0  0  0  0  0  0  0  0  0  0  0  # atno 8009 bound_to 7997
  156.2106  140.1757  156.7689 H   0  0  0  0  0  0  0  0  0  0  0  0  # atno 8010 bound_to 7997
  140.7155  143.5562  150.9246 H   0  0  0  0  0  0  0  0  0  0  0  0  # atno 10167 bound_to 10162
  156.8563  130.5571  149.5666 H   0  0  0  0  0  0  0  0  0  0  0  0  # atno 10718 bound_to 10713
  154.8446  135.4413  154.1527 H   0  0  0  0  0  0  0  0  0  0  0  0  # atno 10763 bound_to 10752
  153.2684  135.6943  153.7512 H   0  0  0  0  0  0  0  0  0  0  0  0  # atno 10764 bound_to 10752
  153.6762  135.3410  155.3141 H   0  0  0  0  0  0  0  0  0  0  0  0  # atno 10765 bound_to 10752
  140.6596  133.9332  155.8428 H   0  0  0  0  0  0  0  0  0  0  0  0  # atno 11005 bound_to 11000
  145.3857  139.1627  143.4256 LP  0  0  0  0  0  0  0  0  0  0  0  0  # atno 17320 bound_to 7965
  146.3028  140.3941  142.8698 LP  0  0  0  0  0  0  0  0  0  0  0  0  # atno 17321 bound_to 7965
  139.9287  143.6519  152.3081 LP  0  0  0  0  0  0  0  0  0  0  0  0  # atno 17342 bound_to 10162
  139.6962  144.7641  151.1352 LP  0  0  0  0  0  0  0  0  0  0  0  0  # atno 17343 bound_to 10162
  156.0801  130.5813  150.9547 LP  0  0  0  0  0  0  0  0  0  0  0  0  # atno 17370 bound_to 10713
  157.6275  131.0924  150.8505 LP  0  0  0  0  0  0  0  0  0  0  0  0  # atno 17371 bound_to 10713
  141.0475  134.0532  157.3825 LP  0  0  0  0  0  0  0  0  0  0  0  0  # atno 17394 bound_to 11000
  139.9017  135.0167  156.7301 LP  0  0  0  0  0  0  0  0  0  0  0  0  # atno 17395 bound_to 11000

$$$$
