AV-unprocessed.smi:2445|AV-procd|sdf|9637|dock10
  -GOLD-   2272013273D 1   1.00000     0.00000
 Structure written by MMmdl.
 40 41  0  0  0  0  0  0  0  0  1 V2000
  144.5737  132.0530  150.1746 C   0  0  0  0  0  0  0  0  0  0  0  0
  145.6673  131.8598  151.1694 C   0  0  0  0  0  0  0  0  0  0  0  0
  146.0678  130.6876  151.7610 C   0  0  0  0  0  0  0  0  0  0  0  0
  147.1273  130.8410  152.6579 N   0  0  0  0  0  0  0  0  0  0  0  0
  147.5362  132.1085  152.7571 C   0  0  0  0  0  0  0  0  0  0  0  0
  148.6542  132.5463  153.6521 C   0  0  2  0  0  0  0  0  0  0  0  0
  149.4133  131.3393  154.2299 C   0  0  0  0  0  0  0  0  0  0  0  0
  148.1560  133.5365  154.7274 C   0  0  0  0  0  0  0  0  0  0  0  0
  148.4144  134.9304  154.3794 N   0  0  0  0  0  0  0  0  0  0  0  0
  148.6738  135.9075  155.2589 C   0  0  0  0  0  0  0  0  0  0  0  0
  148.7218  135.7438  156.4781 O   0  0  0  0  0  0  0  0  0  0  0  0
  148.8807  137.0825  154.6481 N   0  0  0  0  0  0  0  0  0  0  0  0
  149.1847  138.3451  155.3226 C   0  0  2  0  0  0  0  0  0  0  0  0
  148.2991  139.4677  154.7825 C   0  0  0  0  0  0  0  0  0  0  0  0
  149.2772  140.5895  154.4489 C   0  0  0  0  0  0  0  0  0  0  0  0
  150.4666  139.8967  154.1156 O   0  0  0  0  0  0  0  0  0  0  0  0
  150.6226  138.8557  155.0686 C   0  0  2  0  0  0  0  0  0  0  0  0
  151.6658  137.8401  154.5748 C   0  0  0  0  0  0  0  0  0  0  0  0
  146.6231  133.2081  151.7261 S   0  0  0  0  0  0  0  0  0  0  0  0
  144.0345  131.1219  149.9980 H   0  0  0  0  0  0  0  0  0  0  0  0
  144.9749  132.3961  149.2209 H   0  0  0  0  0  0  0  0  0  0  0  0
  143.8571  132.7951  150.5272 H   0  0  0  0  0  0  0  0  0  0  0  0
  145.6550  129.7020  151.6038 H   0  0  0  0  0  0  0  0  0  0  0  0
  149.3625  133.0849  153.0204 H   0  0  0  0  0  0  0  0  0  0  0  0
  149.7705  130.6864  153.4328 H   0  0  0  0  0  0  0  0  0  0  0  0
  148.7760  130.7455  154.8855 H   0  0  0  0  0  0  0  0  0  0  0  0
  150.2841  131.6512  154.8066 H   0  0  0  0  0  0  0  0  0  0  0  0
  147.0872  133.3987  154.9008 H   0  0  0  0  0  0  0  0  0  0  0  0
  148.6488  133.3348  155.6788 H   0  0  0  0  0  0  0  0  0  0  0  0
  148.3995  135.1650  153.3976 H   0  0  0  0  0  0  0  0  0  0  0  0
  148.8271  137.1100  153.6405 H   0  0  0  0  0  0  0  0  0  0  0  0
  149.0244  138.2425  156.3976 H   0  0  0  0  0  0  0  0  0  0  0  0
  147.7849  139.1573  153.8715 H   0  0  0  0  0  0  0  0  0  0  0  0
  147.5394  139.7854  155.4970 H   0  0  0  0  0  0  0  0  0  0  0  0
  148.9330  141.2202  153.6291 H   0  0  0  0  0  0  0  0  0  0  0  0
  149.4553  141.2232  155.3193 H   0  0  0  0  0  0  0  0  0  0  0  0
  150.9929  139.3123  155.9883 H   0  0  0  0  0  0  0  0  0  0  0  0
  151.7950  137.0294  155.2923 H   0  0  0  0  0  0  0  0  0  0  0  0
  152.6356  138.3191  154.4415 H   0  0  0  0  0  0  0  0  0  0  0  0
  151.3825  137.4040  153.6167 H   0  0  0  0  0  0  0  0  0  0  0  0
  1  2  1  0  0  0  0
  1 20  1  0  0  0  0
  1 21  1  0  0  0  0
  1 22  1  0  0  0  0
  2 19  1  0  0  0  0
  2  3  2  0  0  0  0
  3  4  1  0  0  0  0
  3 23  1  0  0  0  0
  4  5  2  0  0  0  0
  5  6  1  0  0  0  0
  5 19  1  0  0  0  0
  6  7  1  0  0  0  0
  6  8  1  0  0  0  0
  6 24  1  0  0  0  0
  7 25  1  0  0  0  0
  7 26  1  0  0  0  0
  7 27  1  0  0  0  0
  8  9  1  0  0  0  0
  8 28  1  0  0  0  0
  8 29  1  0  0  0  0
  9 10  1  0  0  0  0
  9 30  1  0  0  0  0
 10 11  2  0  0  0  0
 10 12  1  0  0  0  0
 12 13  1  0  0  0  0
 12 31  1  0  0  0  0
 13 17  1  0  0  0  0
 13 14  1  0  0  0  0
 13 32  1  0  0  0  0
 14 15  1  0  0  0  0
 14 33  1  0  0  0  0
 14 34  1  0  0  0  0
 15 16  1  0  0  0  0
 15 35  1  0  0  0  0
 15 36  1  0  0  0  0
 16 17  1  0  0  0  0
 17 18  1  0  0  0  0
 17 37  1  0  0  0  0
 18 38  1  0  0  0  0
 18 39  1  0  0  0  0
 18 40  1  0  0  0  0
M  END
> <s_m_source_file>
AV-unprocessed.smi

> <i_m_source_file_index>
2445

> <i_lp_mmshare_version>
43012

> <i_f3d_flags>
0

> <s_epik_input>
W0NIM11jMVtjSF1uYyhzMSlbQ0BIXShbQ0gzXSlbQ0gyXVtOSF1DKD1PKVtOSF1bQ0BASF0yW0NIMl1bQ0gyXU9bQ0BIXTJbQ0gzXQ==

> <s_epik_cmdline>
J2VwaWtfcHl0aG9uJywgJy1waCcsICc3LjAnLCAnLXRuJywgJzgnLCAnLW1hJywgJzIwMCcsICctbWV0YWxfYmluZGluZycsICctaW1hZScsICc8aW5maWxlLm1hZT4nLCAnLW9tYWUnLCAnPG91dGZpbGUubWFlPic=

> <r_epik_Ionization_Penalty>
0.000649483

> <r_epik_Ionization_Penalty_Charging>
0

> <r_epik_Ionization_Penalty_Neutral>
0.000649483

> <r_epik_State_Penalty>
0.000379895

> <r_epik_Charging_Adjusted_Penalty>
0.000379895

> <i_epik_Tot_Q>
0

> <i_epik_Tot_abs_Q>
0

> <r_epik_Metal_State_Penalty>
-0

> <b_epik_Metal_Only>
0

> <s_lp_Force_Field>
OPLS_2005

> <r_lp_Energy>
6.28074

> <b_lp_Chiralities_Consistent>
1

> <s_lp_Variant>
AV-unprocessed.smi:2445-5

> <Gold.Version>
5.8.1

> <Gold.Id.Protein>
6NUR|6NUR_protein|mol2

> <Gold.PLP.Fitness>
39.4706

> <Gold.PLP.PLP>
-32.4577

> <Gold.PLP.part.hbond>
-3.0000

> <Gold.PLP.part.metal>
0.0000

> <Gold.PLP.part.buried>
-5.0705

> <Gold.PLP.part.nonpolar>
-26.5128

> <Gold.PLP.part.repulsive>
1.4429

> <Gold.PLP.ligand.clash>
0.0000

> <Gold.PLP.ligand.torsion>
0.9770

> <Gold.PLP.Chemscore.Hbond>
2.9600

> <Gold.PLP.Chemscore.CHOScore>
0.0000

> <Gold.PLP.Chemscore.Metal>
0.0000

> <Gold.Chemscore.Hbonds>
donor molecule, donor type, donor heavy atom, donor atom, acceptor molecule, acceptor atom, score
      L1  H     9    30       P1  7948  1.00
      L1  H    12    31       P1  7948  1.00
      P1  H  7989  7998       L1    16  1.00

> <Gold.PLP.Chemscore.Internal.Correction>
0.0869

> <Gold.Rescore>
     Score         DG    S(hbond)    S(metal)    S(lipo)     H(rot)  DE(clash)    DE(int)     intcor
     19.41     -20.45       2.75        0.00      82.87       1.53       0.08       0.95       ----

> <Gold.Chemscore.Fitness>
19.4136

> <Gold.Chemscore.DG>
-20.4453

> <Gold.Chemscore.ZeroCoef>
-5.4800

> <Gold.Chemscore.Hbond>
2.7524

> <Gold.Chemscore.Metal>
0.0000

> <Gold.Chemscore.Lipo>
82.8674

> <Gold.Chemscore.Internal_Hbond>
0.0000

> <Gold.Chemscore.DEClash>
0.0825

> <Gold.Chemscore.DEInternal>
0.9492

> <Gold.Chemscore.Rot>
1.5325

> <Gold.Chemscore.Internal.Correction>
   9.000000E+99

> <Gold.Chemscore.Hbonds>
donor molecule, donor type, donor heavy atom, donor atom, acceptor molecule, acceptor atom, score
      L1  H     9    30       P1  7948  0.91
      L1  H    12    31       P1  7948  0.93
      P1  H  7989  7998       L1    16  0.84

> <Gold.Chemscore.Hbond.Weighted>
-9.1931

> <Gold.Chemscore.Metal.Weighted>
-0.0000

> <Gold.Chemscore.Lipo.Weighted>
-9.6955

> <Gold.Chemscore.Internal_Hbond.Weighted>
0.0000

> <Gold.Chemscore.DEClash.Weighted>
0.0825

> <Gold.Chemscore.DEInternal.Weighted>
0.9492

> <Gold.Chemscore.Rot.Weighted>
3.9233

> <Gold.Chemscore.Internal.Correction.Weighted>
   9.000000E+99

> <Gold.Protein.RotatedTorsions>
[ 6907 6896 6895 6894 ] final  -75.87 input  -60.11 | X-H torsion
[ 7974 7965 7964 7962 ] final  125.75 input  175.53 | X-H torsion
[ 8008 7997 7996 7995 ] final  -82.64 input   59.86 | X-H torsion
[ 10167 10162 10161 10158 ] final -157.08 input  -65.29 | X-H torsion
[ 10718 10713 10712 10709 ] final  -14.15 input   66.30 | X-H torsion
[ 10763 10752 10751 10750 ] final  135.69 input  -60.55 | X-H torsion
[ 11005 11000 10999 10996 ] final   12.09 input  -57.11 | X-H torsion

> <Gold.Protein.ActiveResidues>
 VAL166  LYS551  ARG553  GLY616  TRP617  ASP618  TYR619  PRO620  LYS621  CYS622 
 ASP623  PHE694  ASN695  SER759  ASP760  ASP761  ALA762  ILE779  LEU786  VAL792 
 PHE793  MET794  SER795  GLU796  ALA797  LYS798  CYS799  TRP800  GLU811  SER814 

> <Gold.Protein.RotatedAtoms>
  150.7045  134.4656  159.5400 H   0  0  0  0  0  0  0  0  0  0  0  0  # atno 6907 bound_to 6896
  152.2322  134.8308  160.0481 H   0  0  0  0  0  0  0  0  0  0  0  0  # atno 6908 bound_to 6896
  151.9119  133.3528  159.3903 H   0  0  0  0  0  0  0  0  0  0  0  0  # atno 6909 bound_to 6896
  145.0695  139.3741  143.4965 H   0  0  0  0  0  0  0  0  0  0  0  0  # atno 7974 bound_to 7965
  154.6107  140.0630  156.9490 H   0  0  0  0  0  0  0  0  0  0  0  0  # atno 8008 bound_to 7997
  155.1977  140.3312  155.4330 H   0  0  0  0  0  0  0  0  0  0  0  0  # atno 8009 bound_to 7997
  156.2375  140.1870  156.7063 H   0  0  0  0  0  0  0  0  0  0  0  0  # atno 8010 bound_to 7997
  139.6799  143.9599  152.2331 H   0  0  0  0  0  0  0  0  0  0  0  0  # atno 10167 bound_to 10162
  156.6201  130.4873  149.6168 H   0  0  0  0  0  0  0  0  0  0  0  0  # atno 10718 bound_to 10713
  153.8442  135.3087  155.3428 H   0  0  0  0  0  0  0  0  0  0  0  0  # atno 10763 bound_to 10752
  154.7919  135.4777  154.0075 H   0  0  0  0  0  0  0  0  0  0  0  0  # atno 10764 bound_to 10752
  153.1557  135.6851  153.8908 H   0  0  0  0  0  0  0  0  0  0  0  0  # atno 10765 bound_to 10752
  140.4959  134.0794  155.7782 H   0  0  0  0  0  0  0  0  0  0  0  0  # atno 11005 bound_to 11000
  146.3528  140.0433  142.8641 LP  0  0  0  0  0  0  0  0  0  0  0  0  # atno 17320 bound_to 7965
  145.1310  140.9517  143.4544 LP  0  0  0  0  0  0  0  0  0  0  0  0  # atno 17321 bound_to 7965
  139.9386  144.6696  150.8289 LP  0  0  0  0  0  0  0  0  0  0  0  0  # atno 17342 bound_to 10162
  140.7648  143.3259  151.2516 LP  0  0  0  0  0  0  0  0  0  0  0  0  # atno 17343 bound_to 10162
  156.2319  130.6799  151.1471 LP  0  0  0  0  0  0  0  0  0  0  0  0  # atno 17370 bound_to 10713
  157.7230  131.0669  150.6055 LP  0  0  0  0  0  0  0  0  0  0  0  0  # atno 17371 bound_to 10713
  141.1460  133.9054  157.2214 LP  0  0  0  0  0  0  0  0  0  0  0  0  # atno 17394 bound_to 11000
  139.9741  135.0119  156.9588 LP  0  0  0  0  0  0  0  0  0  0  0  0  # atno 17395 bound_to 11000

$$$$
