AV-unprocessed.smi:287|AV-procd|sdf|2194|dock3
  -GOLD-   2262021593D 1   1.00000     0.00000
 Structure written by MMmdl.
 55 58  0  0  0  0  0  0  0  0  1 V2000
  145.1649  122.6536  148.2779 C   0  0  0  0  0  0  0  0  0  0  0  0
  146.5451  123.0837  148.6401 C   0  0  0  0  0  0  0  0  0  0  0  0
  147.1738  123.3424  149.8230 C   0  0  0  0  0  0  0  0  0  0  0  0
  148.5172  123.7149  149.5195 C   0  0  0  0  0  0  0  0  0  0  0  0
  149.5883  124.0907  150.5341 C   0  0  2  0  0  0  0  0  0  0  0  0
  150.9301  123.4556  150.1338 C   0  0  0  0  0  0  0  0  0  0  0  0
  149.3149  123.6002  151.8327 O   0  0  0  0  0  0  0  0  0  0  0  0
  149.7451  125.6216  150.6758 C   0  0  0  0  0  0  0  0  0  0  0  0
  149.8210  126.0564  152.0651 N   0  0  0  0  0  0  0  0  0  0  0  0
  148.9358  126.9422  152.5678 C   0  0  0  0  0  0  0  0  0  0  0  0
  148.9236  127.0518  153.9180 N   0  0  0  0  0  0  0  0  0  0  0  0
  148.0811  127.8983  154.5172 C   0  0  0  0  0  0  0  0  0  0  0  0
  147.1824  128.7136  153.9622 N   0  0  0  0  0  0  0  0  0  0  0  0
  147.1890  128.6080  152.6024 C   0  0  0  0  0  0  0  0  0  0  0  0
  148.0290  127.7577  151.8274 C   0  0  0  0  0  0  0  0  0  0  0  0
  147.7453  127.9442  150.4777 N   0  0  0  0  0  0  0  0  0  0  0  0
  146.7989  128.8431  150.4640 C   0  0  0  0  0  0  0  0  0  0  0  0
  146.4041  129.2937  151.7036 N   0  0  0  0  0  0  0  0  0  0  0  0
  145.3666  130.3133  152.0456 C   0  0  2  0  0  0  0  0  0  0  0  0
  144.7156  130.6793  150.8757 O   0  0  0  0  0  0  0  0  0  0  0  0
  144.1359  131.9551  151.0881 C   0  0  2  0  0  0  0  0  0  0  0  0
  143.7987  132.5953  149.7325 C   0  0  0  0  0  0  0  0  0  0  0  0
  144.8221  132.3354  148.7956 O   0  0  0  0  0  0  0  0  0  0  0  0
  145.1953  132.7071  151.9110 C   0  0  1  0  0  0  0  0  0  0  0  0
  144.5666  133.5705  152.8373 O   0  0  0  0  0  0  0  0  0  0  0  0
  145.9611  131.6038  152.6446 C   0  0  2  0  0  0  0  0  0  0  0  0
  147.3568  131.7420  152.4426 O   0  0  0  0  0  0  0  0  0  0  0  0
  148.5944  123.6619  148.1483 C   0  0  0  0  0  0  0  0  0  0  0  0
  149.6790  123.9318  147.1580 C   0  0  0  0  0  0  0  0  0  0  0  0
  147.4044  123.2771  147.6084 O   0  0  0  0  0  0  0  0  0  0  0  0
  144.6695  129.8091  152.7174 H   0  0  0  0  0  0  0  0  0  0  0  0
  143.2265  131.8017  151.6738 H   0  0  0  0  0  0  0  0  0  0  0  0
  145.8583  133.2781  151.2587 H   0  0  0  0  0  0  0  0  0  0  0  0
  145.7633  131.5980  153.7175 H   0  0  0  0  0  0  0  0  0  0  0  0
  144.6339  122.2753  149.1516 H   0  0  0  0  0  0  0  0  0  0  0  0
  145.1889  121.8615  147.5292 H   0  0  0  0  0  0  0  0  0  0  0  0
  144.5951  123.4890  147.8709 H   0  0  0  0  0  0  0  0  0  0  0  0
  146.7221  123.2681  150.8011 H   0  0  0  0  0  0  0  0  0  0  0  0
  151.2558  123.8036  149.1529 H   0  0  0  0  0  0  0  0  0  0  0  0
  150.8557  122.3682  150.0871 H   0  0  0  0  0  0  0  0  0  0  0  0
  151.7183  123.7032  150.8459 H   0  0  0  0  0  0  0  0  0  0  0  0
  149.4438  124.3024  152.4517 H   0  0  0  0  0  0  0  0  0  0  0  0
  150.6133  125.9773  150.1192 H   0  0  0  0  0  0  0  0  0  0  0  0
  148.8678  126.0966  150.2351 H   0  0  0  0  0  0  0  0  0  0  0  0
  150.5417  125.6178  152.6202 H   0  0  0  0  0  0  0  0  0  0  0  0
  148.1340  127.9247  155.5956 H   0  0  0  0  0  0  0  0  0  0  0  0
  146.3646  129.2064  149.5437 H   0  0  0  0  0  0  0  0  0  0  0  0
  142.8462  132.2270  149.3504 H   0  0  0  0  0  0  0  0  0  0  0  0
  143.7051  133.6761  149.8423 H   0  0  0  0  0  0  0  0  0  0  0  0
  144.9530  133.1106  148.2707 H   0  0  0  0  0  0  0  0  0  0  0  0
  144.2388  133.0505  153.5557 H   0  0  0  0  0  0  0  0  0  0  0  0
  147.5678  131.4041  151.5852 H   0  0  0  0  0  0  0  0  0  0  0  0
  150.1026  124.9248  147.3097 H   0  0  0  0  0  0  0  0  0  0  0  0
  149.3020  123.8820  146.1362 H   0  0  0  0  0  0  0  0  0  0  0  0
  150.4813  123.2005  147.2565 H   0  0  0  0  0  0  0  0  0  0  0  0
  1  2  1  0  0  0  0
  1 35  1  0  0  0  0
  1 36  1  0  0  0  0
  1 37  1  0  0  0  0
  2 30  1  0  0  0  0
  2  3  2  0  0  0  0
  3  4  1  0  0  0  0
  3 38  1  0  0  0  0
  4  5  1  0  0  0  0
  4 28  2  0  0  0  0
  5  6  1  0  0  0  0
  5  7  1  0  0  0  0
  5  8  1  0  0  0  0
  6 39  1  0  0  0  0
  6 40  1  0  0  0  0
  6 41  1  0  0  0  0
  7 42  1  0  0  0  0
  8  9  1  0  0  0  0
  8 43  1  0  0  0  0
  8 44  1  0  0  0  0
  9 10  1  0  0  0  0
  9 45  1  0  0  0  0
 10 15  1  0  0  0  0
 10 11  2  0  0  0  0
 11 12  1  0  0  0  0
 12 13  2  0  0  0  0
 12 46  1  0  0  0  0
 13 14  1  0  0  0  0
 14 18  1  0  0  0  0
 14 15  2  0  0  0  0
 15 16  1  0  0  0  0
 16 17  2  0  0  0  0
 17 18  1  0  0  0  0
 17 47  1  0  0  0  0
 18 19  1  0  0  0  0
 19 31  1  0  0  0  0
 19 26  1  0  0  0  0
 19 20  1  0  0  0  0
 20 21  1  0  0  0  0
 21 32  1  0  0  0  0
 21 22  1  0  0  0  0
 21 24  1  0  0  0  0
 22 23  1  0  0  0  0
 22 48  1  0  0  0  0
 22 49  1  0  0  0  0
 23 50  1  0  0  0  0
 24 33  1  0  0  0  0
 24 25  1  0  0  0  0
 24 26  1  0  0  0  0
 25 51  1  0  0  0  0
 26 34  1  0  0  0  0
 26 27  1  0  0  0  0
 27 52  1  0  0  0  0
 28 29  1  0  0  0  0
 28 30  1  0  0  0  0
 29 53  1  0  0  0  0
 29 54  1  0  0  0  0
 29 55  1  0  0  0  0
M  END
> <s_m_source_file>
AV-unprocessed.smi

> <i_m_source_file_index>
287

> <i_lp_mmshare_version>
43012

> <i_f3d_flags>
0

> <s_epik_input>
W0NIM11jMVtjSF1jKGMobzEpW0NIM10pW0NAQF0oW0NIM10pKFtPSF0pW0NIMl1bTkhdYyhuW2NIXW4yKWMoYzIzKW5bY0hdbjNbQ0BASF00T1tDQEhdKFtDSDJdW09IXSlbQ0BASF0oW09IXSlbQ0BIXTRbT0hd

> <s_epik_cmdline>
J2VwaWtfcHl0aG9uJywgJy1waCcsICc3LjAnLCAnLXRuJywgJzgnLCAnLW1hJywgJzIwMCcsICctbWV0YWxfYmluZGluZycsICctaW1hZScsICc8aW5maWxlLm1hZT4nLCAnLW9tYWUnLCAnPG91dGZpbGUubWFlPic=

> <r_lp_tautomer_probability>
1

> <r_epik_Ionization_Penalty>
0.000992612

> <r_epik_Ionization_Penalty_Charging>
0

> <r_epik_Ionization_Penalty_Neutral>
0.000992612

> <r_epik_State_Penalty>
-0

> <r_epik_Charging_Adjusted_Penalty>
0

> <i_epik_Tot_Q>
0

> <i_epik_Tot_abs_Q>
0

> <r_epik_Metal_State_Penalty>
-0

> <b_epik_Metal_Only>
0

> <s_epik_Chemistry_Notes>
This compound contains an acetal/aminal-like group ( X-CH(R)-Y where X, Y are N, S, or O) that may be acid/base labile, releasing an aldehyde.

> <s_lp_Force_Field>
OPLS_2005

> <r_lp_Energy>
43.2107

> <b_lp_Chiralities_Consistent>
1

> <s_lp_Variant>
AV-unprocessed.smi:287-18

> <Gold.Version>
5.8.1

> <Gold.Id.Protein>
6NUR|6NUR_protein|mol2

> <Gold.PLP.Fitness>
50.5498

> <Gold.PLP.PLP>
-47.7969

> <Gold.PLP.part.hbond>
-5.7378

> <Gold.PLP.part.metal>
0.0000

> <Gold.PLP.part.buried>
-5.4859

> <Gold.PLP.part.nonpolar>
-40.1241

> <Gold.PLP.part.repulsive>
1.6717

> <Gold.PLP.ligand.clash>
0.0000

> <Gold.PLP.ligand.torsion>
2.1101

> <Gold.PLP.Chemscore.Hbond>
2.2675

> <Gold.PLP.Chemscore.CHOScore>
0.0000

> <Gold.PLP.Chemscore.Metal>
0.0000

> <Gold.Chemscore.Hbonds>
donor molecule, donor type, donor heavy atom, donor atom, acceptor molecule, acceptor atom, score
      L1  H    23    50       P1  7921  0.71
      L1  H    25    51       P1 10957  0.16
      L1  H    27    52       P1 10747  0.96

> <Gold.PLP.Chemscore.Internal.Correction>
0.1705

> <Gold.Rescore>
     Score         DG    S(hbond)    S(metal)    S(lipo)     H(rot)  DE(clash)    DE(int)     intcor
      4.06      -8.55       1.82        0.00      89.53       5.27       2.68       1.80       ----

> <Gold.Chemscore.Fitness>
4.0646

> <Gold.Chemscore.DG>
-8.5472

> <Gold.Chemscore.ZeroCoef>
-5.4800

> <Gold.Chemscore.Hbond>
1.8193

> <Gold.Chemscore.Metal>
0.0000

> <Gold.Chemscore.Lipo>
89.5287

> <Gold.Chemscore.Internal_Hbond>
0.0000

> <Gold.Chemscore.DEClash>
2.6838

> <Gold.Chemscore.DEInternal>
1.7988

> <Gold.Chemscore.Rot>
5.2672

> <Gold.Chemscore.Internal.Correction>
   9.000000E+99

> <Gold.Chemscore.Hbonds>
donor molecule, donor type, donor heavy atom, donor atom, acceptor molecule, acceptor atom, score
      L1  H    23    50       P1  7921  0.27
      L1  H    25    51       P1 10957  0.14
      L1  H    27    52       P1 10747  0.89

> <Gold.Chemscore.Hbond.Weighted>
-6.0763

> <Gold.Chemscore.Metal.Weighted>
-0.0000

> <Gold.Chemscore.Lipo.Weighted>
-10.4749

> <Gold.Chemscore.Internal_Hbond.Weighted>
0.0000

> <Gold.Chemscore.DEClash.Weighted>
2.6838

> <Gold.Chemscore.DEInternal.Weighted>
1.7988

> <Gold.Chemscore.Rot.Weighted>
13.4839

> <Gold.Chemscore.Internal.Correction.Weighted>
   9.000000E+99

> <Gold.Protein.RotatedTorsions>
[ 6907 6896 6895 6894 ] final    7.26 input  -60.11 | X-H torsion
[ 7974 7965 7964 7962 ] final  -28.81 input  175.53 | X-H torsion
[ 8008 7997 7996 7995 ] final   -4.59 input   59.86 | X-H torsion
[ 10167 10162 10161 10158 ] final  111.99 input  -65.29 | X-H torsion
[ 10718 10713 10712 10709 ] final  136.54 input   66.30 | X-H torsion
[ 10763 10752 10751 10750 ] final  148.57 input  -60.55 | X-H torsion
[ 11005 11000 10999 10996 ] final    7.11 input  -57.11 | X-H torsion

> <Gold.Protein.ActiveResidues>
 VAL166  LYS551  ARG553  GLY616  TRP617  ASP618  TYR619  PRO620  LYS621  CYS622 
 ASP623  PHE694  ASN695  SER759  ASP760  ASP761  ALA762  ILE779  LEU786  VAL792 
 PHE793  MET794  SER795  GLU796  ALA797  LYS798  CYS799  TRP800  GLU811  SER814 

> <Gold.Protein.RotatedAtoms>
  151.6870  135.0952  160.0226 H   0  0  0  0  0  0  0  0  0  0  0  0  # atno 6907 bound_to 6896
  152.3801  133.6530  159.6163 H   0  0  0  0  0  0  0  0  0  0  0  0  # atno 6908 bound_to 6896
  150.7740  133.9044  159.3392 H   0  0  0  0  0  0  0  0  0  0  0  0  # atno 6909 bound_to 6896
  146.1262  140.5331  142.8714 H   0  0  0  0  0  0  0  0  0  0  0  0  # atno 7974 bound_to 7965
  154.6127  140.2480  155.7648 H   0  0  0  0  0  0  0  0  0  0  0  0  # atno 8008 bound_to 7997
  156.2380  140.2943  156.0317 H   0  0  0  0  0  0  0  0  0  0  0  0  # atno 8009 bound_to 7997
  155.2025  140.0395  157.2910 H   0  0  0  0  0  0  0  0  0  0  0  0  # atno 8010 bound_to 7997
  139.6569  144.7129  151.1939 H   0  0  0  0  0  0  0  0  0  0  0  0  # atno 10167 bound_to 10162
  157.4455  131.1061  151.0094 H   0  0  0  0  0  0  0  0  0  0  0  0  # atno 10718 bound_to 10713
  154.0569  135.2877  155.3331 H   0  0  0  0  0  0  0  0  0  0  0  0  # atno 10763 bound_to 10752
  154.6833  135.5255  153.8296 H   0  0  0  0  0  0  0  0  0  0  0  0  # atno 10764 bound_to 10752
  153.0538  135.6587  154.0761 H   0  0  0  0  0  0  0  0  0  0  0  0  # atno 10765 bound_to 10752
  140.5519  134.0275  155.7940 H   0  0  0  0  0  0  0  0  0  0  0  0  # atno 11005 bound_to 11000
  144.7644  140.5497  143.6713 LP  0  0  0  0  0  0  0  0  0  0  0  0  # atno 17320 bound_to 7965
  145.5361  139.1475  143.3473 LP  0  0  0  0  0  0  0  0  0  0  0  0  # atno 17321 bound_to 7965
  140.7563  143.6057  150.8655 LP  0  0  0  0  0  0  0  0  0  0  0  0  # atno 17342 bound_to 10162
  139.9711  143.6056  152.2973 LP  0  0  0  0  0  0  0  0  0  0  0  0  # atno 17343 bound_to 10162
  157.0942  130.5955  149.5446 LP  0  0  0  0  0  0  0  0  0  0  0  0  # atno 17370 bound_to 10713
  155.9966  130.5035  150.7502 LP  0  0  0  0  0  0  0  0  0  0  0  0  # atno 17371 bound_to 10713
  141.1167  133.9529  157.2809 LP  0  0  0  0  0  0  0  0  0  0  0  0  # atno 17394 bound_to 11000
  139.9451  135.0185  156.8827 LP  0  0  0  0  0  0  0  0  0  0  0  0  # atno 17395 bound_to 11000

$$$$
