AV-unprocessed.smi:66|AV-procd|sdf|619|dock4
  -GOLD-   2262016513D 1   1.00000     0.00000
 Structure written by MMmdl.
 28 30  0  0  0  0  0  0  0  0  2 V2000
  153.8504  140.1085  159.0516 O   0  0  0  0  0  0  0  0  0  0  0  0
  153.4066  141.2212  159.4097 C   0  0  0  0  0  0  0  0  0  0  0  0
  153.6201  141.7662  160.5158 O   0  5  0  0  0  0  0  0  0  0  0  0
  152.5241  141.9693  158.4026 C   0  0  2  0  0  0  0  0  0  0  0  0
  152.0392  143.3321  158.9326 C   0  0  0  0  0  0  0  0  0  0  0  0
  150.6853  143.5055  158.2563 C   0  0  2  0  0  0  0  0  0  0  0  0
  149.8468  144.4156  158.9365 O   0  0  0  0  0  0  0  0  0  0  0  0
  150.1416  142.0806  158.2779 C   0  0  0  0  0  0  0  0  0  0  0  0
  151.3049  141.2192  158.0764 N   0  0  0  0  0  0  0  0  0  0  0  0
  151.3908  140.5298  156.9128 C   0  0  0  0  0  0  0  0  0  0  0  0
  152.4224  139.6679  156.7013 N   0  0  0  0  0  0  0  0  0  0  0  0
  152.4890  138.9666  155.5648 C   0  0  0  0  0  0  0  0  0  0  0  0
  151.6455  138.9691  154.5293 N   0  0  0  0  0  0  0  0  0  0  0  0
  150.6098  139.8278  154.7449 C   0  0  0  0  0  0  0  0  0  0  0  0
  149.5423  140.1023  153.9167 N   0  0  0  0  0  0  0  0  0  0  0  0
  148.7768  141.0302  154.5805 C   0  0  0  0  0  0  0  0  0  0  0  0
  149.2404  141.3863  155.7480 N   0  0  0  0  0  0  0  0  0  0  0  0
  150.4047  140.6395  155.8954 C   0  0  0  0  0  0  0  0  0  0  0  0
  149.4039  139.6725  153.0137 H   0  0  0  0  0  0  0  0  0  0  0  0
  153.0995  142.1382  157.4897 H   0  0  0  0  0  0  0  0  0  0  0  0
  151.9117  143.3101  160.0168 H   0  0  0  0  0  0  0  0  0  0  0  0
  152.7303  144.1415  158.6961 H   0  0  0  0  0  0  0  0  0  0  0  0
  150.8246  143.8357  157.2258 H   0  0  0  0  0  0  0  0  0  0  0  0
  149.2434  144.7886  158.3126 H   0  0  0  0  0  0  0  0  0  0  0  0
  149.7286  141.8430  159.2595 H   0  0  0  0  0  0  0  0  0  0  0  0
  149.3390  141.9349  157.5536 H   0  0  0  0  0  0  0  0  0  0  0  0
  153.3386  138.3064  155.4736 H   0  0  0  0  0  0  0  0  0  0  0  0
  147.8637  141.4361  154.1704 H   0  0  0  0  0  0  0  0  0  0  0  0
  1  2  2  0  0  0  0
  2  3  1  0  0  0  0
  2  4  1  0  0  0  0
  4  5  1  0  0  0  0
  4 20  1  0  0  0  0
  4  9  1  0  0  0  0
  5  6  1  0  0  0  0
  5 21  1  0  0  0  0
  5 22  1  0  0  0  0
  6  7  1  0  0  0  0
  6  8  1  0  0  0  0
  6 23  1  0  0  0  0
  7 24  1  0  0  0  0
  8 25  1  0  0  0  0
  8 26  1  0  0  0  0
  8  9  1  0  0  0  0
  9 10  1  0  0  0  0
 10 11  1  0  0  0  0
 10 18  2  0  0  0  0
 11 12  2  0  0  0  0
 12 27  1  0  0  0  0
 12 13  1  0  0  0  0
 13 14  2  0  0  0  0
 14 15  1  0  0  0  0
 14 18  1  0  0  0  0
 15 16  1  0  0  0  0
 15 19  1  0  0  0  0
 16 17  2  0  0  0  0
 16 28  1  0  0  0  0
 17 18  1  0  0  0  0
M  CHG  1   3  -1
M  END
> <s_m_source_file>
AV-unprocessed.smi

> <i_m_source_file_index>
66

> <i_lp_mmshare_version>
43012

> <i_f3d_flags>
0

> <s_epik_input>
Tz1DKFtPSF0pW0NAQEhdMVtDSDJdW0NAQEhdKFtPSF0pW0NIMl1OMWMobltjSF1uMiljKGMyMylbbkhdW2NIXW4z

> <s_epik_cmdline>
J2VwaWtfcHl0aG9uJywgJy1waCcsICc3LjAnLCAnLXRuJywgJzgnLCAnLW1hJywgJzIwMCcsICctbWV0YWxfYmluZGluZycsICctaW1hZScsICc8aW5maWxlLm1hZT4nLCAnLW9tYWUnLCAnPG91dGZpbGUubWFlPic=

> <r_lp_tautomer_probability>
0.955585

> <r_epik_Ionization_Penalty>
0.00455415

> <r_epik_Ionization_Penalty_Charging>
0.000248217

> <r_epik_Ionization_Penalty_Neutral>
0.00430593

> <r_epik_State_Penalty>
0.0207074

> <r_epik_Charging_Adjusted_Penalty>
0.0209557

> <i_epik_Tot_Q>
-1

> <i_epik_Tot_abs_Q>
1

> <r_epik_Metal_State_Penalty>
0.337372

> <b_epik_Metal_Only>
0

> <s_lp_Force_Field>
OPLS_2005

> <r_lp_Energy>
28.2566

> <b_lp_Chiralities_Consistent>
1

> <s_lp_Variant>
AV-unprocessed.smi:66-3

> <Gold.Version>
5.8.1

> <Gold.Id.Protein>
6NUR|6NUR_protein|mol2

> <Gold.PLP.Fitness>
40.0399

> <Gold.PLP.PLP>
-28.3879

> <Gold.PLP.part.hbond>
-5.0000

> <Gold.PLP.part.metal>
0.0000

> <Gold.PLP.part.buried>
-3.1545

> <Gold.PLP.part.nonpolar>
-20.6457

> <Gold.PLP.part.repulsive>
1.1073

> <Gold.PLP.ligand.clash>
0.0000

> <Gold.PLP.ligand.torsion>
0.0663

> <Gold.PLP.Chemscore.Hbond>
3.8960

> <Gold.PLP.Chemscore.CHOScore>
0.0000

> <Gold.PLP.Chemscore.Metal>
0.0000

> <Gold.Chemscore.Hbonds>
donor molecule, donor type, donor heavy atom, donor atom, acceptor molecule, acceptor atom, score
      L1  H     7    24       P1  8029  0.94
      L1  H    15    19       P1  7957  0.82
      P1  H  7997  8009       L1     1  1.81

> <Gold.PLP.Chemscore.Internal.Correction>
0.0966

> <Gold.Rescore>
     Score         DG    S(hbond)    S(metal)    S(lipo)     H(rot)  DE(clash)    DE(int)     intcor
      7.18     -11.59       2.32        0.00      40.16       2.48       1.52       2.89       ----

> <Gold.Chemscore.Fitness>
7.1780

> <Gold.Chemscore.DG>
-11.5929

> <Gold.Chemscore.ZeroCoef>
-5.4800

> <Gold.Chemscore.Hbond>
2.3213

> <Gold.Chemscore.Metal>
0.0000

> <Gold.Chemscore.Lipo>
40.1622

> <Gold.Chemscore.Internal_Hbond>
0.0000

> <Gold.Chemscore.DEClash>
1.5219

> <Gold.Chemscore.DEInternal>
2.8930

> <Gold.Chemscore.Rot>
2.4762

> <Gold.Chemscore.Internal.Correction>
   9.000000E+99

> <Gold.Chemscore.Hbonds>
donor molecule, donor type, donor heavy atom, donor atom, acceptor molecule, acceptor atom, score
      L1  H     7    24       P1  8029  0.40
      L1  H    15    19       P1  7957  0.81
      P1  H  7997  8009       L1     1  0.77

> <Gold.Chemscore.Hbond.Weighted>
-7.7530

> <Gold.Chemscore.Metal.Weighted>
-0.0000

> <Gold.Chemscore.Lipo.Weighted>
-4.6990

> <Gold.Chemscore.Internal_Hbond.Weighted>
0.0000

> <Gold.Chemscore.DEClash.Weighted>
1.5219

> <Gold.Chemscore.DEInternal.Weighted>
2.8930

> <Gold.Chemscore.Rot.Weighted>
6.3391

> <Gold.Chemscore.Internal.Correction.Weighted>
   9.000000E+99

> <Gold.Protein.RotatedTorsions>
[ 6907 6896 6895 6894 ] final  113.89 input  -60.11 | X-H torsion
[ 7974 7965 7964 7962 ] final  -88.48 input  175.53 | X-H torsion
[ 8008 7997 7996 7995 ] final  136.53 input   59.86 | X-H torsion
[ 10167 10162 10161 10158 ] final   99.35 input  -65.29 | X-H torsion
[ 10718 10713 10712 10709 ] final  -70.53 input   66.30 | X-H torsion
[ 10763 10752 10751 10750 ] final  158.32 input  -60.55 | X-H torsion
[ 11005 11000 10999 10996 ] final  -23.30 input  -57.11 | X-H torsion

> <Gold.Protein.ActiveResidues>
 VAL166  LYS551  ARG553  GLY616  TRP617  ASP618  TYR619  PRO620  LYS621  CYS622 
 ASP623  PHE694  ASN695  SER759  ASP760  ASP761  ALA762  ILE779  LEU786  VAL792 
 PHE793  MET794  SER795  GLU796  ALA797  LYS798  CYS799  TRP800  GLU811  SER814 

> <Gold.Protein.RotatedAtoms>
  152.4834  133.8312  159.7103 H   0  0  0  0  0  0  0  0  0  0  0  0  # atno 6907 bound_to 6896
  150.8902  133.7245  159.2913 H   0  0  0  0  0  0  0  0  0  0  0  0  # atno 6908 bound_to 6896
  151.4720  135.1050  159.9806 H   0  0  0  0  0  0  0  0  0  0  0  0  # atno 6909 bound_to 6896
  145.4525  140.9561  143.2014 H   0  0  0  0  0  0  0  0  0  0  0  0  # atno 7974 bound_to 7965
  156.3004  140.2443  156.3761 H   0  0  0  0  0  0  0  0  0  0  0  0  # atno 8008 bound_to 7997
  154.8744  140.0415  157.1764 H   0  0  0  0  0  0  0  0  0  0  0  0  # atno 8009 bound_to 7997
  154.8761  140.2942  155.5456 H   0  0  0  0  0  0  0  0  0  0  0  0  # atno 8010 bound_to 7997
  139.7625  144.6949  151.0271 H   0  0  0  0  0  0  0  0  0  0  0  0  # atno 10167 bound_to 10162
  156.0404  130.4333  150.2309 H   0  0  0  0  0  0  0  0  0  0  0  0  # atno 10718 bound_to 10713
  154.2142  135.2785  155.2947 H   0  0  0  0  0  0  0  0  0  0  0  0  # atno 10763 bound_to 10752
  154.5754  135.5606  153.7137 H   0  0  0  0  0  0  0  0  0  0  0  0  # atno 10764 bound_to 10752
  153.0057  135.6331  154.2282 H   0  0  0  0  0  0  0  0  0  0  0  0  # atno 10765 bound_to 10752
  140.8738  133.7701  156.0219 H   0  0  0  0  0  0  0  0  0  0  0  0  # atno 11005 bound_to 11000
  144.8052  139.6064  143.7054 LP  0  0  0  0  0  0  0  0  0  0  0  0  # atno 17320 bound_to 7965
  146.2496  139.6171  142.9436 LP  0  0  0  0  0  0  0  0  0  0  0  0  # atno 17321 bound_to 7965
  140.7808  143.4680  151.0185 LP  0  0  0  0  0  0  0  0  0  0  0  0  # atno 17342 bound_to 10162
  139.8366  143.7620  152.3180 LP  0  0  0  0  0  0  0  0  0  0  0  0  # atno 17343 bound_to 10162
  157.0404  131.0033  151.3285 LP  0  0  0  0  0  0  0  0  0  0  0  0  # atno 17370 bound_to 10713
  157.5213  130.8000  149.7812 LP  0  0  0  0  0  0  0  0  0  0  0  0  # atno 17371 bound_to 10713
  140.8542  134.2918  157.5262 LP  0  0  0  0  0  0  0  0  0  0  0  0  # atno 17394 bound_to 11000
  139.8714  134.9484  156.3994 LP  0  0  0  0  0  0  0  0  0  0  0  0  # atno 17395 bound_to 11000

$$$$
