AV-unprocessed.smi:252|AV-procd|sdf|1942|dock7
  -GOLD-   2262021 73D 1   1.00000     0.00000
 Structure written by MMmdl.
 56 59  0  0  0  0  0  0  0  0  1 V2000
  151.7933  144.6986  159.7122 C   0  0  0  0  0  0  0  0  0  0  0  0
  151.8445  144.4230  158.2014 C   0  0  0  0  0  0  0  0  0  0  0  0
  151.5058  142.9763  157.8268 C   0  0  0  0  0  0  0  0  0  0  0  0
  152.1381  142.0325  158.3020 O   0  0  0  0  0  0  0  0  0  0  0  0
  150.4903  142.8208  156.9644 N   0  0  0  0  0  0  0  0  0  0  0  0
  149.9823  141.5430  156.4765 C   0  0  2  0  0  0  0  0  0  0  0  0
  149.7933  141.5786  154.9469 C   0  0  0  0  0  0  0  0  0  0  0  0
  149.1479  140.2745  154.4551 C   0  0  0  0  0  0  0  0  0  0  0  0
  147.8343  139.9943  155.2019 C   0  0  0  0  0  0  0  0  0  0  0  0
  148.0497  140.0022  156.6495 N   0  0  0  0  0  0  0  0  0  0  0  0
  147.0784  139.4714  157.4340 C   0  0  0  0  0  0  0  0  0  0  0  0
  145.9216  140.1559  157.6417 N   0  0  0  0  0  0  0  0  0  0  0  0
  144.9663  139.6439  158.4232 C   0  0  0  0  0  0  0  0  0  0  0  0
  144.9597  138.4836  159.0819 N   0  0  0  0  0  0  0  0  0  0  0  0
  146.1156  137.7904  158.8753 C   0  0  0  0  0  0  0  0  0  0  0  0
  147.2140  138.2055  158.0704 C   0  0  0  0  0  0  0  0  0  0  0  0
  148.2039  137.2297  158.0814 N   0  0  0  0  0  0  0  0  0  0  0  0
  147.7204  136.2942  158.8521 C   0  0  0  0  0  0  0  0  0  0  0  0
  146.4769  136.5544  159.3829 N   0  0  0  0  0  0  0  0  0  0  0  0
  145.7086  135.6901  160.2655 C   0  0  0  0  0  0  0  0  0  0  0  0
  145.6651  136.1678  161.7435 C   0  0  2  0  0  0  0  0  0  0  0  0
  144.9640  137.3941  161.8271 O   0  0  0  0  0  0  0  0  0  0  0  0
  147.0390  136.3393  162.3802 C   0  0  0  0  0  0  0  0  0  0  0  0
  147.3845  134.9177  162.8138 C   0  0  0  0  0  0  0  0  0  0  0  0
  146.1381  134.2864  163.0932 O   0  0  0  0  0  0  0  0  0  0  0  0
  145.0590  135.1382  162.7165 C   0  0  2  0  0  0  0  0  0  0  0  0
  143.8700  134.3144  162.2006 C   0  0  0  0  0  0  0  0  0  0  0  0
  148.6506  141.2251  157.1803 C   0  0  0  0  0  0  0  0  0  0  0  0
  152.0711  145.7313  159.9240 H   0  0  0  0  0  0  0  0  0  0  0  0
  152.4824  144.0534  160.2585 H   0  0  0  0  0  0  0  0  0  0  0  0
  150.7912  144.5396  160.1121 H   0  0  0  0  0  0  0  0  0  0  0  0
  151.1505  145.0866  157.6847 H   0  0  0  0  0  0  0  0  0  0  0  0
  152.8414  144.6572  157.8258 H   0  0  0  0  0  0  0  0  0  0  0  0
  150.0283  143.6518  156.6248 H   0  0  0  0  0  0  0  0  0  0  0  0
  150.6936  140.7535  156.7280 H   0  0  0  0  0  0  0  0  0  0  0  0
  149.1604  142.4227  154.6700 H   0  0  0  0  0  0  0  0  0  0  0  0
  150.7508  141.7287  154.4471 H   0  0  0  0  0  0  0  0  0  0  0  0
  148.9631  140.3287  153.3822 H   0  0  0  0  0  0  0  0  0  0  0  0
  149.8394  139.4451  154.6100 H   0  0  0  0  0  0  0  0  0  0  0  0
  147.0908  140.7499  154.9434 H   0  0  0  0  0  0  0  0  0  0  0  0
  147.4374  139.0282  154.8872 H   0  0  0  0  0  0  0  0  0  0  0  0
  144.0811  140.2517  158.5394 H   0  0  0  0  0  0  0  0  0  0  0  0
  148.2642  135.3844  159.0613 H   0  0  0  0  0  0  0  0  0  0  0  0
  144.6981  135.6175  159.8618 H   0  0  0  0  0  0  0  0  0  0  0  0
  146.1316  134.6870  160.2032 H   0  0  0  0  0  0  0  0  0  0  0  0
  145.4614  138.0566  161.3725 H   0  0  0  0  0  0  0  0  0  0  0  0
  147.7924  136.7872  161.7337 H   0  0  0  0  0  0  0  0  0  0  0  0
  146.9667  136.9682  163.2696 H   0  0  0  0  0  0  0  0  0  0  0  0
  147.8769  134.3777  162.0044 H   0  0  0  0  0  0  0  0  0  0  0  0
  148.0433  134.8983  163.6822 H   0  0  0  0  0  0  0  0  0  0  0  0
  144.7515  135.6553  163.6276 H   0  0  0  0  0  0  0  0  0  0  0  0
  143.0550  134.9631  161.8785 H   0  0  0  0  0  0  0  0  0  0  0  0
  143.4848  133.6628  162.9851 H   0  0  0  0  0  0  0  0  0  0  0  0
  144.1510  133.6801  161.3599 H   0  0  0  0  0  0  0  0  0  0  0  0
  148.8201  141.1482  158.2542 H   0  0  0  0  0  0  0  0  0  0  0  0
  147.9460  142.0455  157.0349 H   0  0  0  0  0  0  0  0  0  0  0  0
  1  2  1  0  0  0  0
  1 29  1  0  0  0  0
  1 30  1  0  0  0  0
  1 31  1  0  0  0  0
  2  3  1  0  0  0  0
  2 32  1  0  0  0  0
  2 33  1  0  0  0  0
  3  4  2  0  0  0  0
  3  5  1  0  0  0  0
  5  6  1  0  0  0  0
  5 34  1  0  0  0  0
  6 28  1  0  0  0  0
  6  7  1  0  0  0  0
  6 35  1  0  0  0  0
  7  8  1  0  0  0  0
  7 36  1  0  0  0  0
  7 37  1  0  0  0  0
  8  9  1  0  0  0  0
  8 38  1  0  0  0  0
  8 39  1  0  0  0  0
  9 10  1  0  0  0  0
  9 40  1  0  0  0  0
  9 41  1  0  0  0  0
 10 11  1  0  0  0  0
 10 28  1  0  0  0  0
 11 16  1  0  0  0  0
 11 12  2  0  0  0  0
 12 13  1  0  0  0  0
 13 14  2  0  0  0  0
 13 42  1  0  0  0  0
 14 15  1  0  0  0  0
 15 19  1  0  0  0  0
 15 16  2  0  0  0  0
 16 17  1  0  0  0  0
 17 18  2  0  0  0  0
 18 19  1  0  0  0  0
 18 43  1  0  0  0  0
 19 20  1  0  0  0  0
 20 21  1  0  0  0  0
 20 44  1  0  0  0  0
 20 45  1  0  0  0  0
 21 26  1  0  0  0  0
 21 22  1  0  0  0  0
 21 23  1  0  0  0  0
 22 46  1  0  0  0  0
 23 24  1  0  0  0  0
 23 47  1  0  0  0  0
 23 48  1  0  0  0  0
 24 25  1  0  0  0  0
 24 49  1  0  0  0  0
 24 50  1  0  0  0  0
 25 26  1  0  0  0  0
 26 27  1  0  0  0  0
 26 51  1  0  0  0  0
 27 52  1  0  0  0  0
 27 53  1  0  0  0  0
 27 54  1  0  0  0  0
 28 55  1  0  0  0  0
 28 56  1  0  0  0  0
M  END
> <s_m_source_file>
AV-unprocessed.smi

> <i_m_source_file_index>
252

> <i_lp_mmshare_version>
43012

> <i_f3d_flags>
0

> <s_epik_input>
W0NIM11bQ0gyXUMoPU8pW05IXVtDQEBIXTFbQ0gyXVtDSDJdW0NIMl1OKFtDSDJdMSljKG5bY0hdbjIpYyhjMjMpbltjSF1uM1tDSDJdW0NAQF00KFtPSF0pW0NIMl1bQ0gyXU9bQ0BIXTRbQ0gzXQ==

> <s_epik_cmdline>
J2VwaWtfcHl0aG9uJywgJy1waCcsICc3LjAnLCAnLXRuJywgJzgnLCAnLW1hJywgJzIwMCcsICctbWV0YWxfYmluZGluZycsICctaW1hZScsICc8aW5maWxlLm1hZT4nLCAnLW9tYWUnLCAnPG91dGZpbGUubWFlPic=

> <r_lp_tautomer_probability>
1

> <r_epik_Ionization_Penalty>
0.00182575

> <r_epik_Ionization_Penalty_Charging>
0

> <r_epik_Ionization_Penalty_Neutral>
0.00182575

> <r_epik_State_Penalty>
0.00104524

> <r_epik_Charging_Adjusted_Penalty>
0.00104524

> <i_epik_Tot_Q>
0

> <i_epik_Tot_abs_Q>
0

> <r_epik_Metal_State_Penalty>
-0

> <b_epik_Metal_Only>
0

> <s_lp_Force_Field>
OPLS_2005

> <r_lp_Energy>
36.2255

> <b_lp_Chiralities_Consistent>
1

> <s_lp_Variant>
AV-unprocessed.smi:252-7

> <Gold.Version>
5.8.1

> <Gold.Id.Protein>
6NUR|6NUR_protein|mol2

> <Gold.PLP.Fitness>
42.8588

> <Gold.PLP.PLP>
-40.6580

> <Gold.PLP.part.hbond>
-2.0000

> <Gold.PLP.part.metal>
0.0000

> <Gold.PLP.part.buried>
-6.3502

> <Gold.PLP.part.nonpolar>
-32.0167

> <Gold.PLP.part.repulsive>
0.0413

> <Gold.PLP.ligand.clash>
0.0000

> <Gold.PLP.ligand.torsion>
0.6017

> <Gold.PLP.Chemscore.Hbond>
1.0000

> <Gold.PLP.Chemscore.CHOScore>
0.0000

> <Gold.PLP.Chemscore.Metal>
0.0000

> <Gold.Chemscore.Hbonds>
donor molecule, donor type, donor heavy atom, donor atom, acceptor molecule, acceptor atom, score
      L1  H     5    34       P1  8028  1.00

> <Gold.PLP.Chemscore.Internal.Correction>
0.4042

> <Gold.Rescore>
     Score         DG    S(hbond)    S(metal)    S(lipo)     H(rot)  DE(clash)    DE(int)     intcor
     11.95     -13.05       1.00        0.00      95.45       2.70       0.50       0.61       ----

> <Gold.Chemscore.Fitness>
11.9486

> <Gold.Chemscore.DG>
-13.0548

> <Gold.Chemscore.ZeroCoef>
-5.4800

> <Gold.Chemscore.Hbond>
0.9968

> <Gold.Chemscore.Metal>
0.0000

> <Gold.Chemscore.Lipo>
95.4520

> <Gold.Chemscore.Internal_Hbond>
0.0000

> <Gold.Chemscore.DEClash>
0.4966

> <Gold.Chemscore.DEInternal>
0.6096

> <Gold.Chemscore.Rot>
2.7041

> <Gold.Chemscore.Internal.Correction>
   9.000000E+99

> <Gold.Chemscore.Hbonds>
donor molecule, donor type, donor heavy atom, donor atom, acceptor molecule, acceptor atom, score
      L1  H     5    34       P1  8028  1.00

> <Gold.Chemscore.Hbond.Weighted>
-3.3294

> <Gold.Chemscore.Metal.Weighted>
-0.0000

> <Gold.Chemscore.Lipo.Weighted>
-11.1679

> <Gold.Chemscore.Internal_Hbond.Weighted>
0.0000

> <Gold.Chemscore.DEClash.Weighted>
0.4966

> <Gold.Chemscore.DEInternal.Weighted>
0.6096

> <Gold.Chemscore.Rot.Weighted>
6.9225

> <Gold.Chemscore.Internal.Correction.Weighted>
   9.000000E+99

> <Gold.Protein.RotatedTorsions>
[ 6907 6896 6895 6894 ] final   40.57 input  -60.11 | X-H torsion
[ 7974 7965 7964 7962 ] final  125.34 input  175.53 | X-H torsion
[ 8008 7997 7996 7995 ] final  142.14 input   59.86 | X-H torsion
[ 10167 10162 10161 10158 ] final -169.22 input  -65.29 | X-H torsion
[ 10718 10713 10712 10709 ] final   80.47 input   66.30 | X-H torsion
[ 10763 10752 10751 10750 ] final  -41.21 input  -60.55 | X-H torsion
[ 11005 11000 10999 10996 ] final  -91.09 input  -57.11 | X-H torsion

> <Gold.Protein.ActiveResidues>
 VAL166  LYS551  ARG553  GLY616  TRP617  ASP618  TYR619  PRO620  LYS621  CYS622 
 ASP623  PHE694  ASN695  SER759  ASP760  ASP761  ALA762  ILE779  LEU786  VAL792 
 PHE793  MET794  SER795  GLU796  ALA797  LYS798  CYS799  TRP800  GLU811  SER814 

> <Gold.Protein.RotatedAtoms>
  152.1842  134.8728  160.0523 H   0  0  0  0  0  0  0  0  0  0  0  0  # atno 6907 bound_to 6896
  151.9641  133.3699  159.4054 H   0  0  0  0  0  0  0  0  0  0  0  0  # atno 6908 bound_to 6896
  150.6923  134.4133  159.5215 H   0  0  0  0  0  0  0  0  0  0  0  0  # atno 6909 bound_to 6896
  145.0741  139.3707  143.4942 H   0  0  0  0  0  0  0  0  0  0  0  0  # atno 7974 bound_to 7965
  156.2954  140.2296  156.4679 H   0  0  0  0  0  0  0  0  0  0  0  0  # atno 8008 bound_to 7997
  154.7961  140.0451  157.1258 H   0  0  0  0  0  0  0  0  0  0  0  0  # atno 8009 bound_to 7997
  154.9588  140.3051  155.5044 H   0  0  0  0  0  0  0  0  0  0  0  0  # atno 8010 bound_to 7997
  139.5936  144.1159  152.1663 H   0  0  0  0  0  0  0  0  0  0  0  0  # atno 10167 bound_to 10162
  157.6807  130.9961  150.2084 H   0  0  0  0  0  0  0  0  0  0  0  0  # atno 10718 bound_to 10713
  153.9588  135.6742  153.4745 H   0  0  0  0  0  0  0  0  0  0  0  0  # atno 10763 bound_to 10752
  153.0848  135.4904  154.8572 H   0  0  0  0  0  0  0  0  0  0  0  0  # atno 10764 bound_to 10752
  154.7284  135.3132  154.8891 H   0  0  0  0  0  0  0  0  0  0  0  0  # atno 10765 bound_to 10752
  141.1552  133.7734  156.9831 H   0  0  0  0  0  0  0  0  0  0  0  0  # atno 11005 bound_to 11000
  146.3529  140.0500  142.8636 LP  0  0  0  0  0  0  0  0  0  0  0  0  # atno 17320 bound_to 7965
  145.1257  140.9488  143.4574 LP  0  0  0  0  0  0  0  0  0  0  0  0  # atno 17321 bound_to 7965
  140.0739  144.5756  150.7171 LP  0  0  0  0  0  0  0  0  0  0  0  0  # atno 17342 bound_to 10162
  140.7194  143.2574  151.4329 LP  0  0  0  0  0  0  0  0  0  0  0  0  # atno 17343 bound_to 10162
  156.2760  130.3727  149.7983 LP  0  0  0  0  0  0  0  0  0  0  0  0  # atno 17370 bound_to 10713
  156.5686  130.8415  151.3350 LP  0  0  0  0  0  0  0  0  0  0  0  0  # atno 17371 bound_to 10713
  140.1053  134.9510  157.1984 LP  0  0  0  0  0  0  0  0  0  0  0  0  # atno 17394 bound_to 11000
  140.3265  134.2858  155.7236 LP  0  0  0  0  0  0  0  0  0  0  0  0  # atno 17395 bound_to 11000

$$$$
