AV-unprocessed.smi:65|AV-procd|sdf|613|dock6
  -GOLD-   2262016503D 1   1.00000     0.00000
 Structure written by MMmdl.
 25 26  0  0  0  0  0  0  0  0  1 V2000
  155.6365  139.9235  160.4050 N   0  0  0  0  0  0  0  0  0  0  0  0
  154.8411  140.8576  161.0222 C   0  0  0  0  0  0  0  0  0  0  0  0
  154.9663  140.9677  162.3453 N   0  0  0  0  0  0  0  0  0  0  0  0
  154.1824  141.8849  162.9507 C   0  0  0  0  0  0  0  0  0  0  0  0
  153.2790  142.6877  162.2250 C   0  0  0  0  0  0  0  0  0  0  0  0
  153.2326  142.4891  160.8244 C   0  0  0  0  0  0  0  0  0  0  0  0
  152.3614  143.2316  160.0043 N   0  0  0  0  0  0  0  0  0  0  0  0
  152.1645  144.6618  160.2031 C   0  0  0  0  0  0  0  0  0  0  0  0
  151.7894  145.2231  158.8258 C   0  0  0  0  0  0  0  0  0  0  0  0
  151.2689  144.0017  158.0668 C   0  0  1  0  0  0  0  0  0  0  0  0
  151.3898  144.1415  156.6672 O   0  0  0  0  0  0  0  0  0  0  0  0
  152.1349  142.8684  158.6141 C   0  0  0  0  0  0  0  0  0  0  0  0
  154.0236  141.5594  160.2351 N   0  0  0  0  0  0  0  0  0  0  0  0
  155.5881  139.7919  159.4051 H   0  0  0  0  0  0  0  0  0  0  0  0
  156.2597  139.3442  160.9484 H   0  0  0  0  0  0  0  0  0  0  0  0
  154.2741  141.9785  164.0226 H   0  0  0  0  0  0  0  0  0  0  0  0
  152.6554  143.4093  162.7313 H   0  0  0  0  0  0  0  0  0  0  0  0
  151.3522  144.8093  160.9154 H   0  0  0  0  0  0  0  0  0  0  0  0
  153.0569  145.1529  160.5926 H   0  0  0  0  0  0  0  0  0  0  0  0
  151.0633  146.0348  158.8802 H   0  0  0  0  0  0  0  0  0  0  0  0
  152.6870  145.6086  158.3398 H   0  0  0  0  0  0  0  0  0  0  0  0
  150.2238  143.8264  158.3268 H   0  0  0  0  0  0  0  0  0  0  0  0
  150.5729  144.4733  156.3272 H   0  0  0  0  0  0  0  0  0  0  0  0
  153.0935  142.8221  158.0949 H   0  0  0  0  0  0  0  0  0  0  0  0
  151.6423  141.8998  158.5212 H   0  0  0  0  0  0  0  0  0  0  0  0
  1  2  1  0  0  0  0
  1 14  1  0  0  0  0
  1 15  1  0  0  0  0
  2 13  1  0  0  0  0
  2  3  2  0  0  0  0
  3  4  1  0  0  0  0
  4  5  2  0  0  0  0
  4 16  1  0  0  0  0
  5  6  1  0  0  0  0
  5 17  1  0  0  0  0
  6  7  1  0  0  0  0
  6 13  2  0  0  0  0
  7 12  1  0  0  0  0
  7  8  1  0  0  0  0
  8  9  1  0  0  0  0
  8 18  1  0  0  0  0
  8 19  1  0  0  0  0
  9 10  1  0  0  0  0
  9 20  1  0  0  0  0
  9 21  1  0  0  0  0
 10 11  1  0  0  0  0
 10 12  1  0  0  0  0
 10 22  1  0  0  0  0
 11 23  1  0  0  0  0
 12 24  1  0  0  0  0
 12 25  1  0  0  0  0
M  END
> <s_m_source_file>
AV-unprocessed.smi

> <i_m_source_file_index>
65

> <i_lp_mmshare_version>
43012

> <i_f3d_flags>
0

> <s_epik_input>
W05IMl1jMW5bY0hdW2NIXWMobjEpTjJbQ0gyXVtDSDJdW0NAQEhdKFtPSF0pW0NIMl0y

> <s_epik_cmdline>
J2VwaWtfcHl0aG9uJywgJy1waCcsICc3LjAnLCAnLXRuJywgJzgnLCAnLW1hJywgJzIwMCcsICctbWV0YWxfYmluZGluZycsICctaW1hZScsICc8aW5maWxlLm1hZT4nLCAnLW9tYWUnLCAnPG91dGZpbGUubWFlPic=

> <r_lp_tautomer_probability>
1

> <r_epik_Ionization_Penalty>
0.99295

> <r_epik_Ionization_Penalty_Charging>
0

> <r_epik_Ionization_Penalty_Neutral>
0.99295

> <r_epik_State_Penalty>
0.750885

> <r_epik_Charging_Adjusted_Penalty>
0.750885

> <i_epik_Tot_Q>
0

> <i_epik_Tot_abs_Q>
0

> <r_epik_Metal_State_Penalty>
0.338511

> <b_epik_Metal_Only>
0

> <s_lp_Force_Field>
OPLS_2005

> <r_lp_Energy>
17.7727

> <b_lp_Chiralities_Consistent>
1

> <s_lp_Variant>
AV-unprocessed.smi:65-3

> <Gold.Version>
5.8.1

> <Gold.Id.Protein>
6NUR|6NUR_protein|mol2

> <Gold.PLP.Fitness>
37.1437

> <Gold.PLP.PLP>
-34.6522

> <Gold.PLP.part.hbond>
-2.0000

> <Gold.PLP.part.metal>
0.0000

> <Gold.PLP.part.buried>
-2.5999

> <Gold.PLP.part.nonpolar>
-29.3533

> <Gold.PLP.part.repulsive>
0.0573

> <Gold.PLP.ligand.clash>
0.0000

> <Gold.PLP.ligand.torsion>
0.3592

> <Gold.PLP.Chemscore.Hbond>
1.0000

> <Gold.PLP.Chemscore.CHOScore>
0.0000

> <Gold.PLP.Chemscore.Metal>
0.0000

> <Gold.Chemscore.Hbonds>
donor molecule, donor type, donor heavy atom, donor atom, acceptor molecule, acceptor atom, score
      L1  H    11    23       P1  8028  1.00

> <Gold.PLP.Chemscore.Internal.Correction>
0.2099

> <Gold.Rescore>
     Score         DG    S(hbond)    S(metal)    S(lipo)     H(rot)  DE(clash)    DE(int)     intcor
     14.04     -14.36       1.00        0.00      69.23       1.00       0.11       0.21       ----

> <Gold.Chemscore.Fitness>
14.0426

> <Gold.Chemscore.DG>
-14.3593

> <Gold.Chemscore.ZeroCoef>
-5.4800

> <Gold.Chemscore.Hbond>
0.9997

> <Gold.Chemscore.Metal>
0.0000

> <Gold.Chemscore.Lipo>
69.2340

> <Gold.Chemscore.Internal_Hbond>
0.0000

> <Gold.Chemscore.DEClash>
0.1107

> <Gold.Chemscore.DEInternal>
0.2060

> <Gold.Chemscore.Rot>
1.0000

> <Gold.Chemscore.Internal.Correction>
   9.000000E+99

> <Gold.Chemscore.Hbonds>
donor molecule, donor type, donor heavy atom, donor atom, acceptor molecule, acceptor atom, score
      L1  H    11    23       P1  8028  1.00

> <Gold.Chemscore.Hbond.Weighted>
-3.3390

> <Gold.Chemscore.Metal.Weighted>
-0.0000

> <Gold.Chemscore.Lipo.Weighted>
-8.1004

> <Gold.Chemscore.Internal_Hbond.Weighted>
0.0000

> <Gold.Chemscore.DEClash.Weighted>
0.1107

> <Gold.Chemscore.DEInternal.Weighted>
0.2060

> <Gold.Chemscore.Rot.Weighted>
2.5600

> <Gold.Chemscore.Internal.Correction.Weighted>
   9.000000E+99

> <Gold.Protein.RotatedTorsions>
[ 6907 6896 6895 6894 ] final  -23.15 input  -60.11 | X-H torsion
[ 7974 7965 7964 7962 ] final  -85.01 input  175.53 | X-H torsion
[ 8008 7997 7996 7995 ] final   74.26 input   59.86 | X-H torsion
[ 10167 10162 10161 10158 ] final   13.28 input  -65.29 | X-H torsion
[ 10718 10713 10712 10709 ] final -147.67 input   66.30 | X-H torsion
[ 10763 10752 10751 10750 ] final -110.32 input  -60.55 | X-H torsion
[ 11005 11000 10999 10996 ] final   67.55 input  -57.11 | X-H torsion

> <Gold.Protein.ActiveResidues>
 VAL166  LYS551  ARG553  GLY616  TRP617  ASP618  TYR619  PRO620  LYS621  CYS622 
 ASP623  PHE694  ASN695  SER759  ASP760  ASP761  ALA762  ILE779  LEU786  VAL792 
 PHE793  MET794  SER795  GLU796  ALA797  LYS798  CYS799  TRP800  GLU811  SER814 

> <Gold.Protein.RotatedAtoms>
  151.2081  135.0470  159.8899 H   0  0  0  0  0  0  0  0  0  0  0  0  # atno 6907 bound_to 6896
  152.5427  134.0775  159.8231 H   0  0  0  0  0  0  0  0  0  0  0  0  # atno 6908 bound_to 6896
  151.0924  133.5258  159.2646 H   0  0  0  0  0  0  0  0  0  0  0  0  # atno 6909 bound_to 6896
  145.4989  140.9548  143.1770 H   0  0  0  0  0  0  0  0  0  0  0  0  # atno 7974 bound_to 7965
  155.7958  140.3478  155.5374 H   0  0  0  0  0  0  0  0  0  0  0  0  # atno 8008 bound_to 7997
  155.8588  140.0968  157.1647 H   0  0  0  0  0  0  0  0  0  0  0  0  # atno 8009 bound_to 7997
  154.4011  140.1362  156.3923 H   0  0  0  0  0  0  0  0  0  0  0  0  # atno 8010 bound_to 7997
  140.6013  143.8599  150.6968 H   0  0  0  0  0  0  0  0  0  0  0  0  # atno 10167 bound_to 10162
  156.4105  130.7979  151.2196 H   0  0  0  0  0  0  0  0  0  0  0  0  # atno 10718 bound_to 10713
  154.8241  135.4568  154.0867 H   0  0  0  0  0  0  0  0  0  0  0  0  # atno 10763 bound_to 10752
  153.2195  135.6892  153.8023 H   0  0  0  0  0  0  0  0  0  0  0  0  # atno 10764 bound_to 10752
  153.7445  135.3307  155.3287 H   0  0  0  0  0  0  0  0  0  0  0  0  # atno 10765 bound_to 10752
  139.9764  134.6815  156.0345 H   0  0  0  0  0  0  0  0  0  0  0  0  # atno 11005 bound_to 11000
  144.7791  139.6565  143.7162 LP  0  0  0  0  0  0  0  0  0  0  0  0  # atno 17320 bound_to 7965
  146.2238  139.5685  142.9601 LP  0  0  0  0  0  0  0  0  0  0  0  0  # atno 17321 bound_to 7965
  140.2146  143.3856  152.1691 LP  0  0  0  0  0  0  0  0  0  0  0  0  # atno 17342 bound_to 10162
  139.5293  144.7140  151.5115 LP  0  0  0  0  0  0  0  0  0  0  0  0  # atno 17343 bound_to 10162
  157.7507  131.0259  150.3939 LP  0  0  0  0  0  0  0  0  0  0  0  0  # atno 17370 bound_to 10713
  156.4236  130.3958  149.6808 LP  0  0  0  0  0  0  0  0  0  0  0  0  # atno 17371 bound_to 10713
  141.1441  133.6559  156.3815 LP  0  0  0  0  0  0  0  0  0  0  0  0  # atno 17394 bound_to 11000
  140.5186  134.6326  157.5310 LP  0  0  0  0  0  0  0  0  0  0  0  0  # atno 17395 bound_to 11000

$$$$
