AV-unprocessed.smi:2607|AV-procd|sdf|10199|dock2
  -GOLD-   2272014213D 1   1.00000     0.00000
 Structure written by MMmdl.
 22 23  0  0  0  0  0  0  0  0  1 V2000
  145.6798  135.3015  154.0423 C   0  0  0  0  0  0  0  0  0  0  0  0
  145.4234  135.6792  152.5705 C   0  0  2  0  0  0  0  0  0  0  0  0
  145.1835  134.4396  151.6933 C   0  0  0  0  0  0  0  0  0  0  0  0
  143.9877  134.2496  150.9546 C   0  0  0  0  0  0  0  0  0  0  0  0
  143.7848  133.1581  150.1836 N   0  0  0  0  0  0  0  0  0  0  0  0
  144.7826  132.2487  150.1455 C   0  0  0  0  0  0  0  0  0  0  0  0
  145.9774  132.4298  150.8716 C   0  0  0  0  0  0  0  0  0  0  0  0
  146.1806  133.5208  151.6416 N   0  0  0  0  0  0  0  0  0  0  0  0
  146.5057  136.5261  152.0837 N   0  0  0  0  0  0  0  0  0  0  0  0
  146.0893  137.7306  151.6719 C   0  0  0  0  0  0  0  0  0  0  0  0
  146.7951  138.6137  151.1911 O   0  0  0  0  0  0  0  0  0  0  0  0
  144.7737  137.8042  151.8881 N   0  0  0  0  0  0  0  0  0  0  0  0
  144.2848  136.6907  152.4310 C   0  0  0  0  0  0  0  0  0  0  0  0
  143.1203  136.5008  152.7793 O   0  0  0  0  0  0  0  0  0  0  0  0
  144.8499  134.7301  154.4602 H   0  0  0  0  0  0  0  0  0  0  0  0
  145.8143  136.1856  154.6675 H   0  0  0  0  0  0  0  0  0  0  0  0
  146.5789  134.6919  154.1382 H   0  0  0  0  0  0  0  0  0  0  0  0
  143.1816  134.9675  150.9719 H   0  0  0  0  0  0  0  0  0  0  0  0
  144.6283  131.3733  149.5323 H   0  0  0  0  0  0  0  0  0  0  0  0
  146.7714  131.6989  150.8347 H   0  0  0  0  0  0  0  0  0  0  0  0
  147.4636  136.2112  152.0349 H   0  0  0  0  0  0  0  0  0  0  0  0
  144.2157  138.6200  151.6825 H   0  0  0  0  0  0  0  0  0  0  0  0
  1  2  1  0  0  0  0
  1 15  1  0  0  0  0
  1 16  1  0  0  0  0
  1 17  1  0  0  0  0
  2 13  1  0  0  0  0
  2  3  1  0  0  0  0
  2  9  1  0  0  0  0
  3  8  1  0  0  0  0
  3  4  2  0  0  0  0
  4  5  1  0  0  0  0
  4 18  1  0  0  0  0
  5  6  2  0  0  0  0
  6  7  1  0  0  0  0
  6 19  1  0  0  0  0
  7  8  2  0  0  0  0
  7 20  1  0  0  0  0
  9 10  1  0  0  0  0
  9 21  1  0  0  0  0
 10 11  2  0  0  0  0
 10 12  1  0  0  0  0
 12 13  1  0  0  0  0
 12 22  1  0  0  0  0
 13 14  2  0  0  0  0
M  END
> <s_m_source_file>
AV-unprocessed.smi

> <i_m_source_file_index>
2607

> <i_lp_mmshare_version>
43012

> <i_f3d_flags>
0

> <s_epik_input>
Tz1DMVtOSF1DKD1PKVtOSF1bQ0BAXTEoW0NIM10pYzJbY0hdbltjSF1bY0hdbjI=

> <s_epik_cmdline>
J2VwaWtfcHl0aG9uJywgJy1waCcsICc3LjAnLCAnLXRuJywgJzgnLCAnLW1hJywgJzIwMCcsICctbWV0YWxfYmluZGluZycsICctaW1hZScsICc8aW5maWxlLm1hZT4nLCAnLW9tYWUnLCAnPG91dGZpbGUubWFlPic=

> <r_lp_tautomer_probability>
1

> <r_epik_Ionization_Penalty>
0.0333762

> <r_epik_Ionization_Penalty_Charging>
0

> <r_epik_Ionization_Penalty_Neutral>
0.0333762

> <r_epik_State_Penalty>
0.027503

> <r_epik_Charging_Adjusted_Penalty>
0.027503

> <i_epik_Tot_Q>
0

> <i_epik_Tot_abs_Q>
0

> <r_epik_Metal_State_Penalty>
0.445281

> <b_epik_Metal_Only>
0

> <s_lp_Force_Field>
OPLS_2005

> <r_lp_Energy>
24.1998

> <b_lp_Chiralities_Consistent>
1

> <s_lp_Variant>
AV-unprocessed.smi:2607-2

> <Gold.Version>
5.8.1

> <Gold.Id.Protein>
6NUR|6NUR_protein|mol2

> <Gold.PLP.Fitness>
32.1136

> <Gold.PLP.PLP>
-19.7590

> <Gold.PLP.part.hbond>
-3.2827

> <Gold.PLP.part.metal>
0.0000

> <Gold.PLP.part.buried>
-3.7848

> <Gold.PLP.part.nonpolar>
-14.7641

> <Gold.PLP.part.repulsive>
1.2687

> <Gold.PLP.ligand.clash>
0.0000

> <Gold.PLP.ligand.torsion>
0.0591

> <Gold.PLP.Chemscore.Hbond>
2.7199

> <Gold.PLP.Chemscore.CHOScore>
1.3985

> <Gold.PLP.Chemscore.Metal>
0.0000

> <Gold.Chemscore.Hbonds>
donor molecule, donor type, donor heavy atom, donor atom, acceptor molecule, acceptor atom, score
      L1  H     9    21       P1  7948  0.88
      L1  H    12    22       P1 10175  0.84
      P1  H  7954  7966       L1    11  1.00
      L1  C     4    18       P1 10186  0.39
      L1  C     7    20       P1 10747  1.00

> <Gold.PLP.Chemscore.Internal.Correction>
0.1175

> <Gold.Rescore>
     Score         DG    S(hbond)    S(metal)    S(lipo)     H(rot)  DE(clash)    DE(int)     intcor
     13.96     -15.39       2.61        0.00      32.03       1.00       0.50       0.92       ----

> <Gold.Chemscore.Fitness>
13.9639

> <Gold.Chemscore.DG>
-15.3889

> <Gold.Chemscore.ZeroCoef>
-5.4800

> <Gold.Chemscore.Hbond>
2.6110

> <Gold.Chemscore.Metal>
0.0000

> <Gold.Chemscore.Lipo>
32.0343

> <Gold.Chemscore.Internal_Hbond>
0.0000

> <Gold.Chemscore.DEClash>
0.5038

> <Gold.Chemscore.DEInternal>
0.9211

> <Gold.Chemscore.Rot>
1.0000

> <Gold.Chemscore.Internal.Correction>
   9.000000E+99

> <Gold.Chemscore.Hbonds>
donor molecule, donor type, donor heavy atom, donor atom, acceptor molecule, acceptor atom, score
      L1  H     9    21       P1  7948  0.85
      L1  H    12    22       P1 10175  0.77
      P1  H  7954  7966       L1    11  0.77

> <Gold.Chemscore.Hbond.Weighted>
-8.7208

> <Gold.Chemscore.Metal.Weighted>
-0.0000

> <Gold.Chemscore.Lipo.Weighted>
-3.7480

> <Gold.Chemscore.Internal_Hbond.Weighted>
0.0000

> <Gold.Chemscore.DEClash.Weighted>
0.5038

> <Gold.Chemscore.DEInternal.Weighted>
0.9211

> <Gold.Chemscore.Rot.Weighted>
2.5600

> <Gold.Chemscore.Internal.Correction.Weighted>
   9.000000E+99

> <Gold.Protein.RotatedTorsions>
[ 6907 6896 6895 6894 ] final  118.85 input  -60.11 | X-H torsion
[ 7974 7965 7964 7962 ] final   80.79 input  175.53 | X-H torsion
[ 8008 7997 7996 7995 ] final  117.03 input   59.86 | X-H torsion
[ 10167 10162 10161 10158 ] final -122.24 input  -65.29 | X-H torsion
[ 10718 10713 10712 10709 ] final -146.41 input   66.30 | X-H torsion
[ 10763 10752 10751 10750 ] final  -34.07 input  -60.55 | X-H torsion
[ 11005 11000 10999 10996 ] final -171.86 input  -57.11 | X-H torsion

> <Gold.Protein.ActiveResidues>
 VAL166  LYS551  ARG553  GLY616  TRP617  ASP618  TYR619  PRO620  LYS621  CYS622 
 ASP623  PHE694  ASN695  SER759  ASP760  ASP761  ALA762  ILE779  LEU786  VAL792 
 PHE793  MET794  SER795  GLU796  ALA797  LYS798  CYS799  TRP800  GLU811  SER814 

> <Gold.Protein.RotatedAtoms>
  152.4514  133.7636  159.6759 H   0  0  0  0  0  0  0  0  0  0  0  0  # atno 6907 bound_to 6896
  150.8427  133.7901  159.3061 H   0  0  0  0  0  0  0  0  0  0  0  0  # atno 6908 bound_to 6896
  151.5521  135.1070  160.0004 H   0  0  0  0  0  0  0  0  0  0  0  0  # atno 6909 bound_to 6896
  145.6467  139.2438  143.2000 H   0  0  0  0  0  0  0  0  0  0  0  0  # atno 7974 bound_to 7965
  156.2472  140.2905  156.0616 H   0  0  0  0  0  0  0  0  0  0  0  0  # atno 8008 bound_to 7997
  155.1770  140.0403  157.2892 H   0  0  0  0  0  0  0  0  0  0  0  0  # atno 8009 bound_to 7997
  154.6286  140.2494  155.7468 H   0  0  0  0  0  0  0  0  0  0  0  0  # atno 8010 bound_to 7997
  140.0164  143.5389  152.2240 H   0  0  0  0  0  0  0  0  0  0  0  0  # atno 10167 bound_to 10162
  156.3945  130.7903  151.2108 H   0  0  0  0  0  0  0  0  0  0  0  0  # atno 10718 bound_to 10713
  153.8406  135.6858  153.4803 H   0  0  0  0  0  0  0  0  0  0  0  0  # atno 10763 bound_to 10752
  153.1456  135.4639  154.9558 H   0  0  0  0  0  0  0  0  0  0  0  0  # atno 10764 bound_to 10752
  154.7846  135.3280  154.7860 H   0  0  0  0  0  0  0  0  0  0  0  0  # atno 10765 bound_to 10752
  140.5034  134.5871  157.4995 H   0  0  0  0  0  0  0  0  0  0  0  0  # atno 11005 bound_to 11000
  146.1237  140.7276  142.9445 LP  0  0  0  0  0  0  0  0  0  0  0  0  # atno 17320 bound_to 7965
  144.7137  140.4134  143.7060 LP  0  0  0  0  0  0  0  0  0  0  0  0  # atno 17321 bound_to 7965
  139.6170  144.7621  151.2824 LP  0  0  0  0  0  0  0  0  0  0  0  0  # atno 17342 bound_to 10162
  140.7361  143.6718  150.8075 LP  0  0  0  0  0  0  0  0  0  0  0  0  # atno 17343 bound_to 10162
  157.7501  131.0305  150.4141 LP  0  0  0  0  0  0  0  0  0  0  0  0  # atno 17370 bound_to 10713
  156.4409  130.3991  149.6698 LP  0  0  0  0  0  0  0  0  0  0  0  0  # atno 17371 bound_to 10713
  139.9700  134.7309  156.0061 LP  0  0  0  0  0  0  0  0  0  0  0  0  # atno 17394 bound_to 11000
  141.1423  133.6562  156.3766 LP  0  0  0  0  0  0  0  0  0  0  0  0  # atno 17395 bound_to 11000

$$$$
