AV-unprocessed.smi:227|AV-procd|sdf|1727|dock4
  -GOLD-   2262020213D 1   1.00000     0.00000
 Structure written by MMmdl.
 54 58  0  0  0  0  0  0  0  0  1 V2000
  147.4685  136.2896  153.8567 O   0  0  0  0  0  0  0  0  0  0  0  0
  146.7756  135.1403  154.2970 C   0  0  0  0  0  0  0  0  0  0  0  0
  147.7217  133.9167  154.4019 C   0  0  2  0  0  0  0  0  0  0  0  0
  149.0198  134.2863  155.1784 C   0  0  0  0  0  0  0  0  0  0  0  0
  148.8379  134.4304  156.6161 N   0  0  0  0  0  0  0  0  0  0  0  0
  149.2206  133.5388  157.5916 C   0  0  0  0  0  0  0  0  0  0  0  0
  148.9465  133.9012  158.8137 N   0  0  0  0  0  0  0  0  0  0  0  0
  148.3147  135.1323  158.6797 C   0  0  0  0  0  0  0  0  0  0  0  0
  147.7607  136.0812  159.5906 C   0  0  0  0  0  0  0  0  0  0  0  0
  147.7504  135.9457  160.9465 N   0  0  0  0  0  0  0  0  0  0  0  0
  147.1892  136.9732  161.8118 C   0  0  2  0  0  0  0  0  0  0  0  0
  147.5804  136.4720  163.2124 C   0  0  0  0  0  0  0  0  0  0  0  0
  147.4778  134.9515  163.0287 C   0  0  0  0  0  0  0  0  0  0  0  0
  147.0063  134.8554  161.5656 C   0  0  1  0  0  0  0  0  0  0  0  0
  145.5296  135.3046  161.4130 C   0  0  1  0  0  0  0  0  0  0  0  0
  144.5024  134.5942  162.3139 C   0  0  0  0  0  0  0  0  0  0  0  0
  144.7164  133.1995  162.2796 O   0  0  0  0  0  0  0  0  0  0  0  0
  145.6639  136.8232  161.6371 C   0  0  0  0  0  0  0  0  0  0  0  0
  147.1809  137.1879  159.0543 N   0  0  0  0  0  0  0  0  0  0  0  0
  147.1583  137.3733  157.7324 C   0  0  0  0  0  0  0  0  0  0  0  0
  147.6461  136.5865  156.7735 N   0  0  0  0  0  0  0  0  0  0  0  0
  148.2221  135.4674  157.2970 C   0  0  0  0  0  0  0  0  0  0  0  0
  148.0021  133.2913  152.9990 C   0  0  2  0  0  0  0  0  0  0  0  0
  146.7595  133.0369  152.1488 C   0  0  0  0  0  0  0  0  0  0  0  0
  146.2655  131.6693  152.6200 C   0  0  0  0  0  0  0  0  0  0  0  0
  147.3945  131.0257  153.1991 O   0  0  0  0  0  0  0  0  0  0  0  0
  148.5384  131.8526  153.0407 C   0  0  0  0  0  0  0  0  0  0  0  0
  148.0710  136.0322  153.1751 H   0  0  0  0  0  0  0  0  0  0  0  0
  146.3432  135.4017  155.2598 H   0  0  0  0  0  0  0  0  0  0  0  0
  145.9401  134.9392  153.6265 H   0  0  0  0  0  0  0  0  0  0  0  0
  147.2053  133.1631  154.9984 H   0  0  0  0  0  0  0  0  0  0  0  0
  149.7900  133.5337  155.0087 H   0  0  0  0  0  0  0  0  0  0  0  0
  149.4569  135.2075  154.7966 H   0  0  0  0  0  0  0  0  0  0  0  0
  149.7180  132.6058  157.3717 H   0  0  0  0  0  0  0  0  0  0  0  0
  147.5474  137.9864  161.6414 H   0  0  0  0  0  0  0  0  0  0  0  0
  148.6035  136.7590  163.4586 H   0  0  0  0  0  0  0  0  0  0  0  0
  146.9231  136.8517  163.9953 H   0  0  0  0  0  0  0  0  0  0  0  0
  148.4610  134.4925  163.1412 H   0  0  0  0  0  0  0  0  0  0  0  0
  146.8107  134.4725  163.7440 H   0  0  0  0  0  0  0  0  0  0  0  0
  147.2001  133.8711  161.1378 H   0  0  0  0  0  0  0  0  0  0  0  0
  145.2370  135.1306  160.3759 H   0  0  0  0  0  0  0  0  0  0  0  0
  144.6018  134.9348  163.3448 H   0  0  0  0  0  0  0  0  0  0  0  0
  143.4794  134.7962  161.9978 H   0  0  0  0  0  0  0  0  0  0  0  0
  145.5459  133.0131  162.6921 H   0  0  0  0  0  0  0  0  0  0  0  0
  145.1102  137.1857  162.5042 H   0  0  0  0  0  0  0  0  0  0  0  0
  145.3117  137.3715  160.7624 H   0  0  0  0  0  0  0  0  0  0  0  0
  146.6826  138.2825  157.3957 H   0  0  0  0  0  0  0  0  0  0  0  0
  148.6936  133.9374  152.4573 H   0  0  0  0  0  0  0  0  0  0  0  0
  145.9850  133.7988  152.1986 H   0  0  0  0  0  0  0  0  0  0  0  0
  147.0572  132.9643  151.1016 H   0  0  0  0  0  0  0  0  0  0  0  0
  145.4918  131.7733  153.3815 H   0  0  0  0  0  0  0  0  0  0  0  0
  145.8555  131.0816  151.7981 H   0  0  0  0  0  0  0  0  0  0  0  0
  149.0070  131.6058  152.0867 H   0  0  0  0  0  0  0  0  0  0  0  0
  149.2769  131.6540  153.8140 H   0  0  0  0  0  0  0  0  0  0  0  0
  1  2  1  0  0  0  0
  1 28  1  0  0  0  0
  2  3  1  0  0  0  0
  2 29  1  0  0  0  0
  2 30  1  0  0  0  0
  3  4  1  0  0  0  0
  3 23  1  0  0  0  0
  3 31  1  0  0  0  0
  4  5  1  0  0  0  0
  4 32  1  0  0  0  0
  4 33  1  0  0  0  0
  5 22  1  0  0  0  0
  5  6  1  0  0  0  0
  6  7  2  0  0  0  0
  6 34  1  0  0  0  0
  7  8  1  0  0  0  0
  8 22  2  0  0  0  0
  8  9  1  0  0  0  0
  9 10  1  0  0  0  0
  9 19  2  0  0  0  0
 10 14  1  0  0  0  0
 10 11  1  0  0  0  0
 11 18  1  0  0  0  0
 11 12  1  0  0  0  0
 11 35  1  0  0  0  0
 12 13  1  0  0  0  0
 12 36  1  0  0  0  0
 12 37  1  0  0  0  0
 13 14  1  0  0  0  0
 13 38  1  0  0  0  0
 13 39  1  0  0  0  0
 14 15  1  0  0  0  0
 14 40  1  0  0  0  0
 15 16  1  0  0  0  0
 15 18  1  0  0  0  0
 15 41  1  0  0  0  0
 16 17  1  0  0  0  0
 16 42  1  0  0  0  0
 16 43  1  0  0  0  0
 17 44  1  0  0  0  0
 18 45  1  0  0  0  0
 18 46  1  0  0  0  0
 19 20  1  0  0  0  0
 20 21  2  0  0  0  0
 20 47  1  0  0  0  0
 21 22  1  0  0  0  0
 23 27  1  0  0  0  0
 23 24  1  0  0  0  0
 23 48  1  0  0  0  0
 24 25  1  0  0  0  0
 24 49  1  0  0  0  0
 24 50  1  0  0  0  0
 25 26  1  0  0  0  0
 25 51  1  0  0  0  0
 25 52  1  0  0  0  0
 26 27  1  0  0  0  0
 27 53  1  0  0  0  0
 27 54  1  0  0  0  0
M  END
> <s_m_source_file>
AV-unprocessed.smi

> <i_m_source_file_index>
227

> <i_lp_mmshare_version>
43012

> <i_f3d_flags>
0

> <s_epik_input>
W0NIMl0xT1tDSDJdW0NIMl1bQ0BIXTFbQ0BIXShbQ0gyXVtPSF0pW0NIMl1uKFtjSF1uMiljKGMyMyluW2NIXW5jM04oW0NASF00NSlbQ0BASF0oW0NIMl1bQ0gyXTQpW0NASF0oW0NIMl01KVtDSDJdW09IXQ==

> <s_epik_cmdline>
J2VwaWtfcHl0aG9uJywgJy1waCcsICc3LjAnLCAnLXRuJywgJzgnLCAnLW1hJywgJzIwMCcsICctbWV0YWxfYmluZGluZycsICctaW1hZScsICc8aW5maWxlLm1hZT4nLCAnLW9tYWUnLCAnPG91dGZpbGUubWFlPic=

> <r_lp_tautomer_probability>
1

> <r_epik_Ionization_Penalty>
0.0055791

> <r_epik_Ionization_Penalty_Charging>
0

> <r_epik_Ionization_Penalty_Neutral>
0.0055791

> <r_epik_State_Penalty>
0.00401299

> <r_epik_Charging_Adjusted_Penalty>
0.00401299

> <i_epik_Tot_Q>
0

> <i_epik_Tot_abs_Q>
0

> <r_epik_Metal_State_Penalty>
-0

> <b_epik_Metal_Only>
0

> <s_lp_Force_Field>
OPLS_2005

> <r_lp_Energy>
89.6374

> <b_lp_Chiralities_Consistent>
1

> <s_lp_Variant>
AV-unprocessed.smi:227-1

> <Gold.Version>
5.8.1

> <Gold.Id.Protein>
6NUR|6NUR_protein|mol2

> <Gold.PLP.Fitness>
39.6604

> <Gold.PLP.PLP>
-34.9094

> <Gold.PLP.part.hbond>
-2.2967

> <Gold.PLP.part.metal>
0.0000

> <Gold.PLP.part.buried>
-2.8205

> <Gold.PLP.part.nonpolar>
-30.0722

> <Gold.PLP.part.repulsive>
0.1067

> <Gold.PLP.ligand.clash>
0.0000

> <Gold.PLP.ligand.torsion>
0.7219

> <Gold.PLP.Chemscore.Hbond>
2.0000

> <Gold.PLP.Chemscore.CHOScore>
0.0000

> <Gold.PLP.Chemscore.Metal>
0.0000

> <Gold.Chemscore.Hbonds>
donor molecule, donor type, donor heavy atom, donor atom, acceptor molecule, acceptor atom, score
      L1  H     1    28       P1  7948  1.00
      P1  H  6896  6909       L1     7  1.00

> <Gold.PLP.Chemscore.Internal.Correction>
0.1948

> <Gold.Rescore>
     Score         DG    S(hbond)    S(metal)    S(lipo)     H(rot)  DE(clash)    DE(int)     intcor
      9.28     -11.53       1.33        0.00      92.75       3.61       0.31       1.94       ----

> <Gold.Chemscore.Fitness>
9.2831

> <Gold.Chemscore.DG>
-11.5290

> <Gold.Chemscore.ZeroCoef>
-5.4800

> <Gold.Chemscore.Hbond>
1.3268

> <Gold.Chemscore.Metal>
0.0000

> <Gold.Chemscore.Lipo>
92.7487

> <Gold.Chemscore.Internal_Hbond>
0.0000

> <Gold.Chemscore.DEClash>
0.3097

> <Gold.Chemscore.DEInternal>
1.9362

> <Gold.Chemscore.Rot>
3.6071

> <Gold.Chemscore.Internal.Correction>
   9.000000E+99

> <Gold.Chemscore.Hbonds>
donor molecule, donor type, donor heavy atom, donor atom, acceptor molecule, acceptor atom, score
      L1  H     1    28       P1  7948  0.97
      P1  H  6896  6909       L1     7  0.15

> <Gold.Chemscore.Hbond.Weighted>
-4.4315

> <Gold.Chemscore.Metal.Weighted>
-0.0000

> <Gold.Chemscore.Lipo.Weighted>
-10.8516

> <Gold.Chemscore.Internal_Hbond.Weighted>
0.0000

> <Gold.Chemscore.DEClash.Weighted>
0.3097

> <Gold.Chemscore.DEInternal.Weighted>
1.9362

> <Gold.Chemscore.Rot.Weighted>
9.2342

> <Gold.Chemscore.Internal.Correction.Weighted>
   9.000000E+99

> <Gold.Protein.RotatedTorsions>
[ 6907 6896 6895 6894 ] final   30.44 input  -60.11 | X-H torsion
[ 7974 7965 7964 7962 ] final  -76.89 input  175.53 | X-H torsion
[ 8008 7997 7996 7995 ] final   30.14 input   59.86 | X-H torsion
[ 10167 10162 10161 10158 ] final  -30.02 input  -65.29 | X-H torsion
[ 10718 10713 10712 10709 ] final  -60.35 input   66.30 | X-H torsion
[ 10763 10752 10751 10750 ] final  -47.90 input  -60.55 | X-H torsion
[ 11005 11000 10999 10996 ] final  -91.07 input  -57.11 | X-H torsion

> <Gold.Protein.ActiveResidues>
 VAL166  LYS551  ARG553  GLY616  TRP617  ASP618  TYR619  PRO620  LYS621  CYS622 
 ASP623  PHE694  ASN695  SER759  ASP760  ASP761  ALA762  ILE779  LEU786  VAL792 
 PHE793  MET794  SER795  GLU796  ALA797  LYS798  CYS799  TRP800  GLU811  SER814 

> <Gold.Protein.RotatedAtoms>
  152.0460  134.9682  160.0574 H   0  0  0  0  0  0  0  0  0  0  0  0  # atno 6907 bound_to 6896
  152.1102  133.4292  159.4636 H   0  0  0  0  0  0  0  0  0  0  0  0  # atno 6908 bound_to 6896
  150.6843  134.2576  159.4579 H   0  0  0  0  0  0  0  0  0  0  0  0  # atno 6909 bound_to 6896
  145.6069  140.9396  143.1210 H   0  0  0  0  0  0  0  0  0  0  0  0  # atno 7974 bound_to 7965
  155.0857  140.3215  155.4588 H   0  0  0  0  0  0  0  0  0  0  0  0  # atno 8008 bound_to 7997
  156.2756  140.2087  156.5930 H   0  0  0  0  0  0  0  0  0  0  0  0  # atno 8009 bound_to 7997
  154.6943  140.0513  157.0382 H   0  0  0  0  0  0  0  0  0  0  0  0  # atno 8010 bound_to 7997
  140.7254  143.3881  151.1478 H   0  0  0  0  0  0  0  0  0  0  0  0  # atno 10167 bound_to 10162
  156.0997  130.4188  150.0842 H   0  0  0  0  0  0  0  0  0  0  0  0  # atno 10718 bound_to 10713
  154.0690  135.6607  153.4821 H   0  0  0  0  0  0  0  0  0  0  0  0  # atno 10763 bound_to 10752
  153.0398  135.5152  154.7586 H   0  0  0  0  0  0  0  0  0  0  0  0  # atno 10764 bound_to 10752
  154.6645  135.3020  154.9790 H   0  0  0  0  0  0  0  0  0  0  0  0  # atno 10765 bound_to 10752
  141.1553  133.7732  156.9827 H   0  0  0  0  0  0  0  0  0  0  0  0  # atno 11005 bound_to 11000
  144.7286  139.7796  143.7355 LP  0  0  0  0  0  0  0  0  0  0  0  0  # atno 17320 bound_to 7965
  146.1534  139.4624  143.0034 LP  0  0  0  0  0  0  0  0  0  0  0  0  # atno 17321 bound_to 7965
  139.7482  143.8819  152.3069 LP  0  0  0  0  0  0  0  0  0  0  0  0  # atno 17342 bound_to 10162
  139.8664  144.7091  150.9039 LP  0  0  0  0  0  0  0  0  0  0  0  0  # atno 17343 bound_to 10162
  156.8833  130.9564  151.3597 LP  0  0  0  0  0  0  0  0  0  0  0  0  # atno 17370 bound_to 10713
  157.6164  130.8622  149.9036 LP  0  0  0  0  0  0  0  0  0  0  0  0  # atno 17371 bound_to 10713
  140.1055  134.9509  157.1988 LP  0  0  0  0  0  0  0  0  0  0  0  0  # atno 17394 bound_to 11000
  140.3262  134.2861  155.7236 LP  0  0  0  0  0  0  0  0  0  0  0  0  # atno 17395 bound_to 11000

$$$$
