AV-unprocessed.smi:153|AV-procd|sdf|1254|dock4
  -GOLD-   2262018493D 1   1.00000     0.00000
 Structure written by MMmdl.
 60 63  0  0  0  0  0  0  0  0  2 V2000
  153.0964  144.6058  156.9955 C   0  0  0  0  0  0  0  0  0  0  0  0
  152.1861  144.2173  158.1666 C   0  0  2  0  0  0  0  0  0  0  0  0
  153.0009  143.7728  159.2439 O   0  0  0  0  0  0  0  0  0  0  0  0
  152.1756  143.0363  160.1248 C   0  0  0  0  0  0  0  0  0  0  0  0
  151.3786  142.1740  159.1581 C   0  0  0  0  0  0  0  0  0  0  0  0
  151.1331  143.0871  157.9529 C   0  0  1  0  0  0  0  0  0  0  0  0
  149.8491  143.6619  158.1183 O   0  0  0  0  0  0  0  0  0  0  0  0
  151.1812  142.2569  156.6349 C   0  0  0  0  0  0  0  0  0  0  0  0
  150.7046  140.8808  156.7214 N   0  0  0  0  0  0  0  0  0  0  0  0
  149.6002  140.4321  157.4075 C   0  0  0  0  0  0  0  0  0  0  0  0
  149.3670  139.1532  157.3126 N   0  0  0  0  0  0  0  0  0  0  0  0
  150.3611  138.6758  156.4645 C   0  0  0  0  0  0  0  0  0  0  0  0
  150.6897  137.3948  155.9183 C   0  0  0  0  0  0  0  0  0  0  0  0
  150.0216  136.2321  156.1741 N   0  0  0  0  0  0  0  0  0  0  0  0
  148.9816  136.1965  157.1959 C   0  0  0  0  0  0  0  0  0  0  0  0
  150.0691  135.1321  155.2071 C   0  0  0  0  0  0  0  0  0  0  0  0
  148.8402  134.2051  155.3068 C   0  0  1  0  0  0  0  0  0  0  0  0
  147.8649  134.6560  154.3874 O   0  0  0  0  0  0  0  0  0  0  0  0
  149.1945  132.7526  154.9297 C   0  0  0  0  0  0  0  0  0  0  0  0
  149.7454  131.9803  156.0731 N   0  3  0  0  0  0  0  0  0  0  0  0
  151.0329  132.5303  156.5599 C   0  0  0  0  0  0  0  0  0  0  0  0
  151.5939  131.6610  157.6979 C   0  0  0  0  0  0  0  0  0  0  0  0
  150.6395  131.5765  158.7489 O   0  0  0  0  0  0  0  0  0  0  0  0
  149.4279  130.9695  158.3179 C   0  0  0  0  0  0  0  0  0  0  0  0
  148.7942  131.8159  157.2007 C   0  0  0  0  0  0  0  0  0  0  0  0
  151.7550  137.3480  155.0738 N   0  0  0  0  0  0  0  0  0  0  0  0
  152.4476  138.4496  154.7770 C   0  0  0  0  0  0  0  0  0  0  0  0
  152.2548  139.6944  155.2099 N   0  0  0  0  0  0  0  0  0  0  0  0
  151.1971  139.7619  156.0674 C   0  0  0  0  0  0  0  0  0  0  0  0
  152.5250  145.0716  156.1945 H   0  0  0  0  0  0  0  0  0  0  0  0
  153.6368  143.7481  156.5959 H   0  0  0  0  0  0  0  0  0  0  0  0
  153.8394  145.3353  157.3181 H   0  0  0  0  0  0  0  0  0  0  0  0
  151.6900  145.1254  158.5165 H   0  0  0  0  0  0  0  0  0  0  0  0
  152.7607  142.4490  160.8326 H   0  0  0  0  0  0  0  0  0  0  0  0
  151.5260  143.7127  160.6827 H   0  0  0  0  0  0  0  0  0  0  0  0
  151.9987  141.3248  158.8670 H   0  0  0  0  0  0  0  0  0  0  0  0
  150.4672  141.7708  159.6022 H   0  0  0  0  0  0  0  0  0  0  0  0
  149.6118  144.1048  157.3178 H   0  0  0  0  0  0  0  0  0  0  0  0
  150.6349  142.7682  155.8419 H   0  0  0  0  0  0  0  0  0  0  0  0
  152.2140  142.2057  156.2867 H   0  0  0  0  0  0  0  0  0  0  0  0
  148.9656  141.0847  157.9888 H   0  0  0  0  0  0  0  0  0  0  0  0
  149.3596  136.5755  158.1459 H   0  0  0  0  0  0  0  0  0  0  0  0
  148.6350  135.1773  157.3678 H   0  0  0  0  0  0  0  0  0  0  0  0
  148.1208  136.7933  156.8931 H   0  0  0  0  0  0  0  0  0  0  0  0
  150.2249  135.4794  154.1848 H   0  0  0  0  0  0  0  0  0  0  0  0
  150.9645  134.5547  155.4393 H   0  0  0  0  0  0  0  0  0  0  0  0
  148.4322  134.2451  156.3162 H   0  0  0  0  0  0  0  0  0  0  0  0
  148.2936  135.1834  153.7295 H   0  0  0  0  0  0  0  0  0  0  0  0
  148.2938  132.2614  154.5569 H   0  0  0  0  0  0  0  0  0  0  0  0
  149.9127  132.7335  154.1084 H   0  0  0  0  0  0  0  0  0  0  0  0
  151.7535  132.5688  155.7418 H   0  0  0  0  0  0  0  0  0  0  0  0
  150.8855  133.5541  156.9078 H   0  0  0  0  0  0  0  0  0  0  0  0
  151.8468  130.6624  157.3379 H   0  0  0  0  0  0  0  0  0  0  0  0
  152.5119  132.1006  158.0885 H   0  0  0  0  0  0  0  0  0  0  0  0
  149.6180  129.9507  157.9757 H   0  0  0  0  0  0  0  0  0  0  0  0
  148.7474  130.8979  159.1665 H   0  0  0  0  0  0  0  0  0  0  0  0
  148.5140  132.7958  157.5907 H   0  0  0  0  0  0  0  0  0  0  0  0
  147.8781  131.3322  156.8647 H   0  0  0  0  0  0  0  0  0  0  0  0
  153.2757  138.3135  154.0971 H   0  0  0  0  0  0  0  0  0  0  0  0
  149.9483  131.0564  155.7177 H   0  0  0  0  0  0  0  0  0  0  0  0
  1  2  1  0  0  0  0
  1 30  1  0  0  0  0
  1 31  1  0  0  0  0
  1 32  1  0  0  0  0
  2  6  1  0  0  0  0
  2  3  1  0  0  0  0
  2 33  1  0  0  0  0
  3  4  1  0  0  0  0
  4  5  1  0  0  0  0
  4 34  1  0  0  0  0
  4 35  1  0  0  0  0
  5  6  1  0  0  0  0
  5 36  1  0  0  0  0
  5 37  1  0  0  0  0
  6  7  1  0  0  0  0
  6  8  1  0  0  0  0
  7 38  1  0  0  0  0
  8  9  1  0  0  0  0
  8 39  1  0  0  0  0
  8 40  1  0  0  0  0
  9 29  1  0  0  0  0
  9 10  1  0  0  0  0
 10 11  2  0  0  0  0
 10 41  1  0  0  0  0
 11 12  1  0  0  0  0
 12 29  2  0  0  0  0
 12 13  1  0  0  0  0
 13 14  1  0  0  0  0
 13 26  2  0  0  0  0
 14 15  1  0  0  0  0
 14 16  1  0  0  0  0
 15 42  1  0  0  0  0
 15 43  1  0  0  0  0
 15 44  1  0  0  0  0
 16 17  1  0  0  0  0
 16 45  1  0  0  0  0
 16 46  1  0  0  0  0
 17 18  1  0  0  0  0
 17 19  1  0  0  0  0
 17 47  1  0  0  0  0
 18 48  1  0  0  0  0
 19 20  1  0  0  0  0
 19 49  1  0  0  0  0
 19 50  1  0  0  0  0
 20 25  1  0  0  0  0
 20 21  1  0  0  0  0
 20 60  1  0  0  0  0
 21 22  1  0  0  0  0
 21 51  1  0  0  0  0
 21 52  1  0  0  0  0
 22 23  1  0  0  0  0
 22 53  1  0  0  0  0
 22 54  1  0  0  0  0
 23 24  1  0  0  0  0
 24 25  1  0  0  0  0
 24 55  1  0  0  0  0
 24 56  1  0  0  0  0
 25 57  1  0  0  0  0
 25 58  1  0  0  0  0
 26 27  1  0  0  0  0
 27 28  2  0  0  0  0
 27 59  1  0  0  0  0
 28 29  1  0  0  0  0
M  CHG  1  20   1
M  END
> <s_m_source_file>
AV-unprocessed.smi

> <i_m_source_file_index>
153

> <i_lp_mmshare_version>
43012

> <i_f3d_flags>
0

> <s_epik_input>
W0NIMl0xW0NIMl1PW0NAQEhdKFtDSDNdKVtDQEBdMShbT0hdKVtDSDJdbihbY0hdbjIpYyhjMjMpbltjSF1uYzNOKFtDSDNdKVtDSDJdW0NASF0oW09IXSlbQ0gyXU40W0NIMl1bQ0gyXU9bQ0gyXVtDSDJdNA==

> <s_epik_cmdline>
J2VwaWtfcHl0aG9uJywgJy1waCcsICc3LjAnLCAnLXRuJywgJzgnLCAnLW1hJywgJzIwMCcsICctbWV0YWxfYmluZGluZycsICctaW1hZScsICc8aW5maWxlLm1hZT4nLCAnLW9tYWUnLCAnPG91dGZpbGUubWFlPic=

> <r_lp_tautomer_probability>
1

> <r_epik_Ionization_Penalty>
0.403509

> <r_epik_Ionization_Penalty_Charging>
0.40072

> <r_epik_Ionization_Penalty_Neutral>
0.00278876

> <r_epik_State_Penalty>
0.400058

> <r_epik_Charging_Adjusted_Penalty>
0.800778

> <i_epik_Tot_Q>
1

> <i_epik_Tot_abs_Q>
1

> <r_epik_Metal_State_Penalty>
0.400321

> <b_epik_Metal_Only>
0

> <s_lp_Force_Field>
OPLS_2005

> <r_lp_Energy>
49.6176

> <b_lp_Chiralities_Consistent>
1

> <s_lp_Variant>
AV-unprocessed.smi:153-5

> <Gold.Version>
5.8.1

> <Gold.Id.Protein>
6NUR|6NUR_protein|mol2

> <Gold.PLP.Fitness>
56.2149

> <Gold.PLP.PLP>
-44.2599

> <Gold.PLP.part.hbond>
-6.0202

> <Gold.PLP.part.metal>
0.0000

> <Gold.PLP.part.buried>
-9.6334

> <Gold.PLP.part.nonpolar>
-29.8038

> <Gold.PLP.part.repulsive>
0.1171

> <Gold.PLP.ligand.clash>
0.0515

> <Gold.PLP.ligand.torsion>
1.8169

> <Gold.PLP.Chemscore.Hbond>
4.9200

> <Gold.PLP.Chemscore.CHOScore>
0.0000

> <Gold.PLP.Chemscore.Metal>
0.0000

> <Gold.Chemscore.Hbonds>
donor molecule, donor type, donor heavy atom, donor atom, acceptor molecule, acceptor atom, score
      L1  H     7    38       P1  8028  1.00
      L1  H    18    48       P1  7948  0.52
      P1  H  6896  6907       L1    23  0.15
      P1  H  7989  7998       L1    28  0.55
      P1  H  7997  8008       L1    28  0.07
      P1  H 10752 10765       L1    26  0.65

> <Gold.PLP.Chemscore.Internal.Correction>
0.8803

> <Gold.Rescore>
     Score         DG    S(hbond)    S(metal)    S(lipo)     H(rot)  DE(clash)    DE(int)     intcor
     12.42     -18.98       3.05        0.00     107.51       3.62       2.52       4.04       ----

> <Gold.Chemscore.Fitness>
12.4249

> <Gold.Chemscore.DG>
-18.9846

> <Gold.Chemscore.ZeroCoef>
-5.4800

> <Gold.Chemscore.Hbond>
3.0503

> <Gold.Chemscore.Metal>
0.0000

> <Gold.Chemscore.Lipo>
107.5145

> <Gold.Chemscore.Internal_Hbond>
0.0000

> <Gold.Chemscore.DEClash>
2.5214

> <Gold.Chemscore.DEInternal>
4.0384

> <Gold.Chemscore.Rot>
3.6182

> <Gold.Chemscore.Internal.Correction>
   9.000000E+99

> <Gold.Chemscore.Hbonds>
donor molecule, donor type, donor heavy atom, donor atom, acceptor molecule, acceptor atom, score
      L1  H     7    38       P1  8028  0.40
      L1  H    18    48       P1  7948  0.51
      P1  H  7989  7998       L1    28  0.17
      P1  H  7997  8008       L1    28  0.02
      P1  H 10752 10765       L1    26  0.41

> <Gold.Chemscore.Hbond.Weighted>
-10.1879

> <Gold.Chemscore.Metal.Weighted>
-0.0000

> <Gold.Chemscore.Lipo.Weighted>
-12.5792

> <Gold.Chemscore.Internal_Hbond.Weighted>
0.0000

> <Gold.Chemscore.DEClash.Weighted>
2.5214

> <Gold.Chemscore.DEInternal.Weighted>
4.0384

> <Gold.Chemscore.Rot.Weighted>
9.2625

> <Gold.Chemscore.Internal.Correction.Weighted>
   9.000000E+99

> <Gold.Protein.RotatedTorsions>
[ 6907 6896 6895 6894 ] final -164.76 input  -60.11 | X-H torsion
[ 7974 7965 7964 7962 ] final   -0.60 input  175.53 | X-H torsion
[ 8008 7997 7996 7995 ] final   -6.52 input   59.86 | X-H torsion
[ 10167 10162 10161 10158 ] final -136.97 input  -65.29 | X-H torsion
[ 10718 10713 10712 10709 ] final -163.33 input   66.30 | X-H torsion
[ 10763 10752 10751 10750 ] final  172.52 input  -60.55 | X-H torsion
[ 11005 11000 10999 10996 ] final  -78.95 input  -57.11 | X-H torsion

> <Gold.Protein.ActiveResidues>
 VAL166  LYS551  ARG553  GLY616  TRP617  ASP618  TYR619  PRO620  LYS621  CYS622 
 ASP623  PHE694  ASN695  SER759  ASP760  ASP761  ALA762  ILE779  LEU786  VAL792 
 PHE793  MET794  SER795  GLU796  ALA797  LYS798  CYS799  TRP800  GLU811  SER814 

> <Gold.Protein.RotatedAtoms>
  151.4169  133.3710  159.2750 H   0  0  0  0  0  0  0  0  0  0  0  0  # atno 6907 bound_to 6896
  150.9322  134.8737  159.7569 H   0  0  0  0  0  0  0  0  0  0  0  0  # atno 6908 bound_to 6896
  152.5033  134.4115  159.9502 H   0  0  0  0  0  0  0  0  0  0  0  0  # atno 6909 bound_to 6896
  146.2425  140.1295  142.8338 H   0  0  0  0  0  0  0  0  0  0  0  0  # atno 7974 bound_to 7965
  154.5929  140.2430  155.7896 H   0  0  0  0  0  0  0  0  0  0  0  0  # atno 8008 bound_to 7997
  156.2259  140.2982  156.0021 H   0  0  0  0  0  0  0  0  0  0  0  0  # atno 8009 bound_to 7997
  155.2342  140.0404  157.2957 H   0  0  0  0  0  0  0  0  0  0  0  0  # atno 8010 bound_to 7997
  139.8624  143.7060  152.2648 H   0  0  0  0  0  0  0  0  0  0  0  0  # atno 10167 bound_to 10162
  156.6232  130.8899  151.2962 H   0  0  0  0  0  0  0  0  0  0  0  0  # atno 10718 bound_to 10713
  154.4272  135.2759  155.1937 H   0  0  0  0  0  0  0  0  0  0  0  0  # atno 10763 bound_to 10752
  154.3858  135.6077  153.5819 H   0  0  0  0  0  0  0  0  0  0  0  0  # atno 10764 bound_to 10752
  152.9835  135.5891  154.4577 H   0  0  0  0  0  0  0  0  0  0  0  0  # atno 10765 bound_to 10752
  141.1666  133.7085  156.8049 H   0  0  0  0  0  0  0  0  0  0  0  0  # atno 11005 bound_to 11000
  145.0338  140.8892  143.5093 LP  0  0  0  0  0  0  0  0  0  0  0  0  # atno 17320 bound_to 7965
  145.1363  139.2600  143.5513 LP  0  0  0  0  0  0  0  0  0  0  0  0  # atno 17321 bound_to 7965
  139.7361  144.7571  151.0725 LP  0  0  0  0  0  0  0  0  0  0  0  0  # atno 17342 bound_to 10162
  140.7773  143.5029  150.9749 LP  0  0  0  0  0  0  0  0  0  0  0  0  # atno 17343 bound_to 10162
  157.7222  130.9573  150.1483 LP  0  0  0  0  0  0  0  0  0  0  0  0  # atno 17370 bound_to 10713
  156.2295  130.3681  149.8462 LP  0  0  0  0  0  0  0  0  0  0  0  0  # atno 17371 bound_to 10713
  140.2229  134.8743  157.3396 LP  0  0  0  0  0  0  0  0  0  0  0  0  # atno 17394 bound_to 11000
  140.1969  134.4302  155.7684 LP  0  0  0  0  0  0  0  0  0  0  0  0  # atno 17395 bound_to 11000

$$$$
