AV-unprocessed.smi:813|AV-procd|sdf|3820|dock4
  -GOLD-   22720 1263D 1   1.00000     0.00000
 Structure written by MMmdl.
 35 36  0  0  0  0  0  0  0  0  2 V2000
  149.7831  141.8322  155.5784 C   0  0  0  0  0  0  0  0  0  0  0  0
  150.0201  140.9944  156.8459 C   0  0  1  0  0  0  0  0  0  0  0  0
  150.2757  139.6138  156.4362 N   0  0  0  0  0  0  0  0  0  0  0  0
  151.1168  139.2227  155.4665 C   0  0  0  0  0  0  0  0  0  0  0  0
  151.7615  140.0638  154.8354 O   0  0  0  0  0  0  0  0  0  0  0  0
  151.1575  137.8828  155.2874 N   0  5  0  0  0  0  0  0  0  0  0  0
  151.9053  137.1193  156.1011 C   0  0  0  0  0  0  0  0  0  0  0  0
  151.9452  135.7814  155.9943 N   0  0  0  0  0  0  0  0  0  0  0  0
  152.7818  135.1838  156.9274 N   0  0  0  0  0  0  0  0  0  0  0  0
  153.3619  136.0922  157.7114 C   0  0  0  0  0  0  0  0  0  0  0  0
  152.9400  137.7592  157.3812 S   0  0  0  0  0  0  0  0  0  0  0  0
  151.2388  141.5681  157.5858 C   0  0  0  0  0  0  0  0  0  0  0  0
  152.2118  140.8565  157.8413 O   0  0  0  0  0  0  0  0  0  0  0  0
  151.1712  142.8665  157.9160 N   0  0  0  0  0  0  0  0  0  0  0  0
  152.2029  143.6060  158.6373 C   0  0  0  0  0  0  0  0  0  0  0  0
  152.4918  142.9714  160.0125 C   0  0  0  0  0  0  0  0  0  0  0  0
  151.8758  143.9137  161.0461 C   0  0  0  0  0  0  0  0  0  0  0  0
  151.9990  145.2941  160.4092 C   0  0  0  0  0  0  0  0  0  0  0  0
  151.7447  145.0500  158.9204 C   0  0  0  0  0  0  0  0  0  0  0  0
  149.5855  142.8760  155.8253 H   0  0  0  0  0  0  0  0  0  0  0  0
  148.9201  141.4611  155.0245 H   0  0  0  0  0  0  0  0  0  0  0  0
  150.6414  141.8051  154.9052 H   0  0  0  0  0  0  0  0  0  0  0  0
  149.1326  141.0366  157.4804 H   0  0  0  0  0  0  0  0  0  0  0  0
  149.7622  138.8930  156.9216 H   0  0  0  0  0  0  0  0  0  0  0  0
  154.0444  135.7790  158.4872 H   0  0  0  0  0  0  0  0  0  0  0  0
  150.3330  143.3727  157.6698 H   0  0  0  0  0  0  0  0  0  0  0  0
  153.1197  143.6248  158.0448 H   0  0  0  0  0  0  0  0  0  0  0  0
  152.1141  141.9526  160.1122 H   0  0  0  0  0  0  0  0  0  0  0  0
  153.5709  142.9272  160.1655 H   0  0  0  0  0  0  0  0  0  0  0  0
  150.8230  143.6661  161.1883 H   0  0  0  0  0  0  0  0  0  0  0  0
  152.3685  143.8518  162.0169 H   0  0  0  0  0  0  0  0  0  0  0  0
  151.3081  146.0192  160.8401 H   0  0  0  0  0  0  0  0  0  0  0  0
  153.0119  145.6731  160.5520 H   0  0  0  0  0  0  0  0  0  0  0  0
  152.2667  145.7761  158.2963 H   0  0  0  0  0  0  0  0  0  0  0  0
  150.6781  145.1628  158.7192 H   0  0  0  0  0  0  0  0  0  0  0  0
  1  2  1  0  0  0  0
  1 20  1  0  0  0  0
  1 21  1  0  0  0  0
  1 22  1  0  0  0  0
  2  3  1  0  0  0  0
  2 12  1  0  0  0  0
  2 23  1  0  0  0  0
  3  4  1  0  0  0  0
  3 24  1  0  0  0  0
  4  5  2  0  0  0  0
  4  6  1  0  0  0  0
  6  7  1  0  0  0  0
  7 11  1  0  0  0  0
  7  8  2  0  0  0  0
  8  9  1  0  0  0  0
  9 10  2  0  0  0  0
 10 11  1  0  0  0  0
 10 25  1  0  0  0  0
 12 13  2  0  0  0  0
 12 14  1  0  0  0  0
 14 15  1  0  0  0  0
 14 26  1  0  0  0  0
 15 19  1  0  0  0  0
 15 16  1  0  0  0  0
 15 27  1  0  0  0  0
 16 17  1  0  0  0  0
 16 28  1  0  0  0  0
 16 29  1  0  0  0  0
 17 18  1  0  0  0  0
 17 30  1  0  0  0  0
 17 31  1  0  0  0  0
 18 19  1  0  0  0  0
 18 32  1  0  0  0  0
 18 33  1  0  0  0  0
 19 34  1  0  0  0  0
 19 35  1  0  0  0  0
M  CHG  1   6  -1
M  END
> <s_m_source_file>
AV-unprocessed.smi

> <i_m_source_file_index>
813

> <i_lp_mmshare_version>
43012

> <i_f3d_flags>
0

> <s_epik_input>
W0NIMl0xW0NIMl1bQ0gyXVtDSDJdW0NIXTFbTkhdQyg9TylbQ0BIXShbQ0gzXSlbTkhdQyg9TylbTkhdYzJubltjSF1zMg==

> <s_epik_cmdline>
J2VwaWtfcHl0aG9uJywgJy1waCcsICc3LjAnLCAnLXRuJywgJzgnLCAnLW1hJywgJzIwMCcsICctbWV0YWxfYmluZGluZycsICctaW1hZScsICc8aW5maWxlLm1hZT4nLCAnLW9tYWUnLCAnPG91dGZpbGUubWFlPic=

> <r_lp_tautomer_probability>
1

> <r_epik_Ionization_Penalty>
3.13682

> <r_epik_Ionization_Penalty_Charging>
3.09647

> <r_epik_Ionization_Penalty_Neutral>
0.0403479

> <r_epik_State_Penalty>
3.09328

> <r_epik_Charging_Adjusted_Penalty>
6.18976

> <i_epik_Tot_Q>
-1

> <i_epik_Tot_abs_Q>
1

> <r_epik_Metal_State_Penalty>
0.461392

> <b_epik_Metal_Only>
1

> <s_lp_Force_Field>
OPLS_2005

> <r_lp_Energy>
15.2454

> <b_lp_Chiralities_Consistent>
1

> <s_lp_Variant>
AV-unprocessed.smi:813-4

> <Gold.Version>
5.8.1

> <Gold.Id.Protein>
6NUR|6NUR_protein|mol2

> <Gold.PLP.Fitness>
39.3625

> <Gold.PLP.PLP>
-35.5980

> <Gold.PLP.part.hbond>
-3.3545

> <Gold.PLP.part.metal>
0.0000

> <Gold.PLP.part.buried>
-4.8290

> <Gold.PLP.part.nonpolar>
-27.4649

> <Gold.PLP.part.repulsive>
0.1168

> <Gold.PLP.ligand.clash>
0.0000

> <Gold.PLP.ligand.torsion>
0.9105

> <Gold.PLP.Chemscore.Hbond>
1.8480

> <Gold.PLP.Chemscore.CHOScore>
0.0000

> <Gold.PLP.Chemscore.Metal>
0.0000

> <Gold.Chemscore.Hbonds>
donor molecule, donor type, donor heavy atom, donor atom, acceptor molecule, acceptor atom, score
      P1  H  7989  7998       L1     5  0.98

> <Gold.PLP.Chemscore.Internal.Correction>
0.0416

> <Gold.Rescore>
     Score         DG    S(hbond)    S(metal)    S(lipo)     H(rot)  DE(clash)    DE(int)     intcor
     12.59     -16.22       1.80        0.00      78.07       1.72       0.05       3.58       ----

> <Gold.Chemscore.Fitness>
12.5863

> <Gold.Chemscore.DG>
-16.2201

> <Gold.Chemscore.ZeroCoef>
-5.4800

> <Gold.Chemscore.Hbond>
1.7985

> <Gold.Chemscore.Metal>
0.0000

> <Gold.Chemscore.Lipo>
78.0748

> <Gold.Chemscore.Internal_Hbond>
0.0000

> <Gold.Chemscore.DEClash>
0.0509

> <Gold.Chemscore.DEInternal>
3.5829

> <Gold.Chemscore.Rot>
1.7194

> <Gold.Chemscore.Internal.Correction>
   9.000000E+99

> <Gold.Chemscore.Hbonds>
donor molecule, donor type, donor heavy atom, donor atom, acceptor molecule, acceptor atom, score
      P1  H  7989  7998       L1     5  0.90

> <Gold.Chemscore.Hbond.Weighted>
-6.0070

> <Gold.Chemscore.Metal.Weighted>
-0.0000

> <Gold.Chemscore.Lipo.Weighted>
-9.1348

> <Gold.Chemscore.Internal_Hbond.Weighted>
0.0000

> <Gold.Chemscore.DEClash.Weighted>
0.0509

> <Gold.Chemscore.DEInternal.Weighted>
3.5829

> <Gold.Chemscore.Rot.Weighted>
4.4016

> <Gold.Chemscore.Internal.Correction.Weighted>
   9.000000E+99

> <Gold.Protein.RotatedTorsions>
[ 6907 6896 6895 6894 ] final   59.33 input  -60.11 | X-H torsion
[ 7974 7965 7964 7962 ] final  117.59 input  175.53 | X-H torsion
[ 8008 7997 7996 7995 ] final  -76.77 input   59.86 | X-H torsion
[ 10167 10162 10161 10158 ] final -124.46 input  -65.29 | X-H torsion
[ 10718 10713 10712 10709 ] final   61.57 input   66.30 | X-H torsion
[ 10763 10752 10751 10750 ] final -137.32 input  -60.55 | X-H torsion
[ 11005 11000 10999 10996 ] final  126.54 input  -57.11 | X-H torsion

> <Gold.Protein.ActiveResidues>
 VAL166  LYS551  ARG553  GLY616  TRP617  ASP618  TYR619  PRO620  LYS621  CYS622 
 ASP623  PHE694  ASN695  SER759  ASP760  ASP761  ALA762  ILE779  LEU786  VAL792 
 PHE793  MET794  SER795  GLU796  ALA797  LYS798  CYS799  TRP800  GLU811  SER814 

> <Gold.Protein.RotatedAtoms>
  152.3905  134.6449  160.0109 H   0  0  0  0  0  0  0  0  0  0  0  0  # atno 6907 bound_to 6896
  151.6685  133.3309  159.3199 H   0  0  0  0  0  0  0  0  0  0  0  0  # atno 6908 bound_to 6896
  150.7822  134.6820  159.6494 H   0  0  0  0  0  0  0  0  0  0  0  0  # atno 6909 bound_to 6896
  145.1655  139.3131  143.4495 H   0  0  0  0  0  0  0  0  0  0  0  0  # atno 7974 bound_to 7965
  154.5535  140.0721  156.8706 H   0  0  0  0  0  0  0  0  0  0  0  0  # atno 8008 bound_to 7997
  155.2948  140.3380  155.4232 H   0  0  0  0  0  0  0  0  0  0  0  0  # atno 8009 bound_to 7997
  156.1982  140.1711  156.7941 H   0  0  0  0  0  0  0  0  0  0  0  0  # atno 8010 bound_to 7997
  139.9926  143.5625  152.2336 H   0  0  0  0  0  0  0  0  0  0  0  0  # atno 10167 bound_to 10162
  157.5838  130.9002  149.9478 H   0  0  0  0  0  0  0  0  0  0  0  0  # atno 10718 bound_to 10713
  154.8664  135.3646  154.5204 H   0  0  0  0  0  0  0  0  0  0  0  0  # atno 10763 bound_to 10752
  153.5834  135.7017  153.5458 H   0  0  0  0  0  0  0  0  0  0  0  0  # atno 10764 bound_to 10752
  153.3437  135.4091  155.1554 H   0  0  0  0  0  0  0  0  0  0  0  0  # atno 10765 bound_to 10752
  139.9461  134.9629  156.8722 H   0  0  0  0  0  0  0  0  0  0  0  0  # atno 11005 bound_to 11000
  146.3476  140.1781  142.8589 LP  0  0  0  0  0  0  0  0  0  0  0  0  # atno 17320 bound_to 7965
  145.0286  140.8853  143.5123 LP  0  0  0  0  0  0  0  0  0  0  0  0  # atno 17321 bound_to 7965
  139.6329  144.7646  151.2498 LP  0  0  0  0  0  0  0  0  0  0  0  0  # atno 17342 bound_to 10162
  140.7449  143.6448  150.8302 LP  0  0  0  0  0  0  0  0  0  0  0  0  # atno 17343 bound_to 10162
  156.0885  130.3665  150.0440 LP  0  0  0  0  0  0  0  0  0  0  0  0  # atno 17370 bound_to 10713
  156.8575  130.9480  151.3620 LP  0  0  0  0  0  0  0  0  0  0  0  0  # atno 17371 bound_to 10713
  140.5830  134.0334  155.7471 LP  0  0  0  0  0  0  0  0  0  0  0  0  # atno 17394 bound_to 11000
  141.1112  133.9613  157.2906 LP  0  0  0  0  0  0  0  0  0  0  0  0  # atno 17395 bound_to 11000

$$$$
