AV-unprocessed.smi:299|AV-procd|sdf|2265|dock9
  -GOLD-   2262022153D 1   1.00000     0.00000
 Structure written by MMmdl.
 42 43  0  0  0  0  0  0  0  0  2 V2000
  143.0917  134.7736  152.8180 C   0  0  0  0  0  0  0  0  0  0  0  0
  144.1943  133.8376  152.2806 C   0  0  2  0  0  0  0  0  0  0  0  0
  143.5450  132.8211  151.3150 C   0  0  0  0  0  0  0  0  0  0  0  0
  144.5708  131.8520  150.7238 C   0  0  0  0  0  0  0  0  0  0  0  0
  145.3191  131.1546  151.8588 C   0  0  0  0  0  0  0  0  0  0  0  0
  145.9617  132.1857  152.7972 C   0  0  0  0  0  0  0  0  0  0  0  0
  144.9575  133.1332  153.3643 N   0  3  1  0  0  0  0  0  0  0  0  0
  145.5643  134.0521  154.3725 C   0  0  0  0  0  0  0  0  0  0  0  0
  146.7558  134.8656  153.8302 C   0  0  0  0  0  0  0  0  0  0  0  0
  147.8199  135.1321  154.9081 C   0  0  0  0  0  0  0  0  0  0  0  0
  148.8287  136.0761  154.4415 N   0  0  0  0  0  0  0  0  0  0  0  0
  149.8321  136.5640  155.1893 C   0  0  0  0  0  0  0  0  0  0  0  0
  149.9965  136.2688  156.3727 O   0  0  0  0  0  0  0  0  0  0  0  0
  150.7878  137.5483  154.5100 C   0  0  0  0  0  0  0  0  0  0  0  0
  151.7596  138.0902  155.4426 N   0  0  0  0  0  0  0  0  0  0  0  0
  151.9922  139.3442  155.8358 C   0  0  0  0  0  0  0  0  0  0  0  0
  152.9861  139.4069  156.7084 N   0  0  0  0  0  0  0  0  0  0  0  0
  153.3700  138.0832  156.8435 N   0  0  0  0  0  0  0  0  0  0  0  0
  152.6453  137.2971  156.0955 N   0  0  0  0  0  0  0  0  0  0  0  0
  142.4524  135.1270  152.0084 H   0  0  0  0  0  0  0  0  0  0  0  0
  143.4978  135.6680  153.2893 H   0  0  0  0  0  0  0  0  0  0  0  0
  142.4529  134.2628  153.5394 H   0  0  0  0  0  0  0  0  0  0  0  0
  144.9024  134.4430  151.7118 H   0  0  0  0  0  0  0  0  0  0  0  0
  142.7727  132.2560  151.8393 H   0  0  0  0  0  0  0  0  0  0  0  0
  143.0411  133.3458  150.5022 H   0  0  0  0  0  0  0  0  0  0  0  0
  144.0744  131.1163  150.0903 H   0  0  0  0  0  0  0  0  0  0  0  0
  145.2734  132.3927  150.0884 H   0  0  0  0  0  0  0  0  0  0  0  0
  144.6324  130.5204  152.4214 H   0  0  0  0  0  0  0  0  0  0  0  0
  146.0848  130.4953  151.4489 H   0  0  0  0  0  0  0  0  0  0  0  0
  146.4645  131.6333  153.5886 H   0  0  0  0  0  0  0  0  0  0  0  0
  146.7325  132.7466  152.2663 H   0  0  0  0  0  0  0  0  0  0  0  0
  144.7992  134.7179  154.7747 H   0  0  0  0  0  0  0  0  0  0  0  0
  145.9494  133.4807  155.2136 H   0  0  0  0  0  0  0  0  0  0  0  0
  147.2147  134.3314  152.9972 H   0  0  0  0  0  0  0  0  0  0  0  0
  146.4151  135.8240  153.4402 H   0  0  0  0  0  0  0  0  0  0  0  0
  147.3546  135.5003  155.8243 H   0  0  0  0  0  0  0  0  0  0  0  0
  148.3262  134.2028  155.1707 H   0  0  0  0  0  0  0  0  0  0  0  0
  148.7656  136.3727  153.4784 H   0  0  0  0  0  0  0  0  0  0  0  0
  151.3165  137.0443  153.7000 H   0  0  0  0  0  0  0  0  0  0  0  0
  150.2276  138.3723  154.0653 H   0  0  0  0  0  0  0  0  0  0  0  0
  151.4399  140.2030  155.4840 H   0  0  0  0  0  0  0  0  0  0  0  0
  144.2809  132.5725  153.8622 H   0  0  0  0  0  0  0  0  0  0  0  0
  1  2  1  0  0  0  0
  1 20  1  0  0  0  0
  1 21  1  0  0  0  0
  1 22  1  0  0  0  0
  2  7  1  0  0  0  0
  2  3  1  0  0  0  0
  2 23  1  0  0  0  0
  3  4  1  0  0  0  0
  3 24  1  0  0  0  0
  3 25  1  0  0  0  0
  4  5  1  0  0  0  0
  4 26  1  0  0  0  0
  4 27  1  0  0  0  0
  5  6  1  0  0  0  0
  5 28  1  0  0  0  0
  5 29  1  0  0  0  0
  6  7  1  0  0  0  0
  6 30  1  0  0  0  0
  6 31  1  0  0  0  0
  7  8  1  0  0  0  0
  7 42  1  0  0  0  0
  8  9  1  0  0  0  0
  8 32  1  0  0  0  0
  8 33  1  0  0  0  0
  9 10  1  0  0  0  0
  9 34  1  0  0  0  0
  9 35  1  0  0  0  0
 10 11  1  0  0  0  0
 10 36  1  0  0  0  0
 10 37  1  0  0  0  0
 11 12  1  0  0  0  0
 11 38  1  0  0  0  0
 12 13  2  0  0  0  0
 12 14  1  0  0  0  0
 14 15  1  0  0  0  0
 14 39  1  0  0  0  0
 14 40  1  0  0  0  0
 15 19  1  0  0  0  0
 15 16  1  0  0  0  0
 16 17  2  0  0  0  0
 16 41  1  0  0  0  0
 17 18  1  0  0  0  0
 18 19  2  0  0  0  0
M  CHG  1   7   1
M  END
> <s_m_source_file>
AV-unprocessed.smi

> <i_m_source_file_index>
299

> <i_lp_mmshare_version>
43012

> <i_f3d_flags>
0

> <s_epik_input>
W0NIM11bQ0BASF0xW0NIMl1bQ0gyXVtDSDJdW0NIMl1OMVtDSDJdW0NIMl1bQ0gyXVtOSF1DKD1PKVtDSDJdbjJbY0hdbm5uMg==

> <s_epik_cmdline>
J2VwaWtfcHl0aG9uJywgJy1waCcsICc3LjAnLCAnLXRuJywgJzgnLCAnLW1hJywgJzIwMCcsICctbWV0YWxfYmluZGluZycsICctaW1hZScsICc8aW5maWxlLm1hZT4nLCAnLW9tYWUnLCAnPG91dGZpbGUubWFlPic=

> <r_lp_tautomer_probability>
1

> <r_epik_Ionization_Penalty>
0.000544863

> <r_epik_Ionization_Penalty_Charging>
0.000543475

> <r_epik_Ionization_Penalty_Neutral>
1.38784e-06

> <r_epik_State_Penalty>
0.000340025

> <r_epik_Charging_Adjusted_Penalty>
0.0008835

> <i_epik_Tot_Q>
1

> <i_epik_Tot_abs_Q>
1

> <r_epik_Metal_State_Penalty>
-0

> <b_epik_Metal_Only>
0

> <s_lp_Force_Field>
OPLS_2005

> <r_lp_Energy>
24.2757

> <b_lp_Chiralities_Consistent>
1

> <s_lp_Variant>
AV-unprocessed.smi:299-1

> <Gold.Version>
5.8.1

> <Gold.Id.Protein>
6NUR|6NUR_protein|mol2

> <Gold.PLP.Fitness>
43.1772

> <Gold.PLP.PLP>
-29.5605

> <Gold.PLP.part.hbond>
-4.5742

> <Gold.PLP.part.metal>
0.0000

> <Gold.PLP.part.buried>
-4.9633

> <Gold.PLP.part.nonpolar>
-20.9782

> <Gold.PLP.part.repulsive>
0.0221

> <Gold.PLP.ligand.clash>
0.0000

> <Gold.PLP.ligand.torsion>
0.3046

> <Gold.PLP.Chemscore.Hbond>
4.7200

> <Gold.PLP.Chemscore.CHOScore>
0.0000

> <Gold.PLP.Chemscore.Metal>
0.0000

> <Gold.Chemscore.Hbonds>
donor molecule, donor type, donor heavy atom, donor atom, acceptor molecule, acceptor atom, score
      L1  H     7    42       P1 10957  2.00
      L1  H    11    38       P1  7948  1.00
      P1  H  7997  8010       L1    17  1.00
      P1  H 10752 10765       L1    19  0.55

> <Gold.PLP.Chemscore.Internal.Correction>
0.0659

> <Gold.Rescore>
     Score         DG    S(hbond)    S(metal)    S(lipo)     H(rot)  DE(clash)    DE(int)     intcor
     14.15     -15.68       3.55        0.00      50.66       2.97       0.01       1.52       ----

> <Gold.Chemscore.Fitness>
14.1510

> <Gold.Chemscore.DG>
-15.6821

> <Gold.Chemscore.ZeroCoef>
-5.4800

> <Gold.Chemscore.Hbond>
3.5548

> <Gold.Chemscore.Metal>
0.0000

> <Gold.Chemscore.Lipo>
50.6594

> <Gold.Chemscore.Internal_Hbond>
0.0000

> <Gold.Chemscore.DEClash>
0.0073

> <Gold.Chemscore.DEInternal>
1.5238

> <Gold.Chemscore.Rot>
2.9680

> <Gold.Chemscore.Internal.Correction>
   9.000000E+99

> <Gold.Chemscore.Hbonds>
donor molecule, donor type, donor heavy atom, donor atom, acceptor molecule, acceptor atom, score
      L1  H     7    42       P1 10957  0.57
      L1  H    11    38       P1  7948  0.97
      P1  H  7997  8010       L1    17  0.37
      P1  H 10752 10765       L1    19  0.47

> <Gold.Chemscore.Hbond.Weighted>
-11.8730

> <Gold.Chemscore.Metal.Weighted>
-0.0000

> <Gold.Chemscore.Lipo.Weighted>
-5.9271

> <Gold.Chemscore.Internal_Hbond.Weighted>
0.0000

> <Gold.Chemscore.DEClash.Weighted>
0.0073

> <Gold.Chemscore.DEInternal.Weighted>
1.5238

> <Gold.Chemscore.Rot.Weighted>
7.5980

> <Gold.Chemscore.Internal.Correction.Weighted>
   9.000000E+99

> <Gold.Protein.RotatedTorsions>
[ 6907 6896 6895 6894 ] final  -50.61 input  -60.11 | X-H torsion
[ 7974 7965 7964 7962 ] final  147.54 input  175.53 | X-H torsion
[ 8008 7997 7996 7995 ] final   82.28 input   59.86 | X-H torsion
[ 10167 10162 10161 10158 ] final -115.07 input  -65.29 | X-H torsion
[ 10718 10713 10712 10709 ] final   45.75 input   66.30 | X-H torsion
[ 10763 10752 10751 10750 ] final -151.25 input  -60.55 | X-H torsion
[ 11005 11000 10999 10996 ] final   27.47 input  -57.11 | X-H torsion

> <Gold.Protein.ActiveResidues>
 VAL166  LYS551  ARG553  GLY616  TRP617  ASP618  TYR619  PRO620  LYS621  CYS622 
 ASP623  PHE694  ASN695  SER759  ASP760  ASP761  ALA762  ILE779  LEU786  VAL792 
 PHE793  MET794  SER795  GLU796  ALA797  LYS798  CYS799  TRP800  GLU811  SER814 

> <Gold.Protein.RotatedAtoms>
  150.8690  134.8060  159.7140 H   0  0  0  0  0  0  0  0  0  0  0  0  # atno 6907 bound_to 6896
  152.4702  134.4976  159.9724 H   0  0  0  0  0  0  0  0  0  0  0  0  # atno 6908 bound_to 6896
  151.5068  133.3454  159.2913 H   0  0  0  0  0  0  0  0  0  0  0  0  # atno 6909 bound_to 6896
  144.8584  139.6041  143.5942 H   0  0  0  0  0  0  0  0  0  0  0  0  # atno 7974 bound_to 7965
  155.9085  140.3429  155.6080 H   0  0  0  0  0  0  0  0  0  0  0  0  # atno 8008 bound_to 7997
  155.7416  140.0808  157.2262 H   0  0  0  0  0  0  0  0  0  0  0  0  # atno 8009 bound_to 7997
  154.4052  140.1569  156.2610 H   0  0  0  0  0  0  0  0  0  0  0  0  # atno 8010 bound_to 7997
  140.0940  143.4673  152.1852 H   0  0  0  0  0  0  0  0  0  0  0  0  # atno 10167 bound_to 10162
  157.4409  130.8081  149.7693 H   0  0  0  0  0  0  0  0  0  0  0  0  # atno 10718 bound_to 10713
  154.8069  135.3264  154.7407 H   0  0  0  0  0  0  0  0  0  0  0  0  # atno 10763 bound_to 10752
  153.8064  135.6899  153.4852 H   0  0  0  0  0  0  0  0  0  0  0  0  # atno 10764 bound_to 10752
  153.1821  135.4583  154.9986 H   0  0  0  0  0  0  0  0  0  0  0  0  # atno 10765 bound_to 10752
  140.3259  134.2491  155.7709 H   0  0  0  0  0  0  0  0  0  0  0  0  # atno 11005 bound_to 11000
  146.2841  139.6956  142.9208 LP  0  0  0  0  0  0  0  0  0  0  0  0  # atno 17320 bound_to 7965
  145.4361  141.0419  143.2883 LP  0  0  0  0  0  0  0  0  0  0  0  0  # atno 17321 bound_to 7965
  139.5708  144.7461  151.3895 LP  0  0  0  0  0  0  0  0  0  0  0  0  # atno 17342 bound_to 10162
  140.7013  143.7624  150.7408 LP  0  0  0  0  0  0  0  0  0  0  0  0  # atno 17343 bound_to 10162
  155.9948  130.3915  150.2843 LP  0  0  0  0  0  0  0  0  0  0  0  0  # atno 17370 bound_to 10713
  157.1008  131.0195  151.3086 LP  0  0  0  0  0  0  0  0  0  0  0  0  # atno 17371 bound_to 10713
  141.2075  133.7803  157.0114 LP  0  0  0  0  0  0  0  0  0  0  0  0  # atno 17394 bound_to 11000
  140.0901  134.9597  157.1763 LP  0  0  0  0  0  0  0  0  0  0  0  0  # atno 17395 bound_to 11000

$$$$
