AV-unprocessed.smi:2094|AV-procd|sdf|8552|dock4
  -GOLD-   2272011273D 1   1.00000     0.00000
 Structure written by MMmdl.
 36 37  0  0  0  0  0  0  0  0  2 V2000
  150.3985  140.4812  156.3887 O   0  0  0  0  0  0  0  0  0  0  0  0
  149.9845  141.6357  156.2784 C   0  0  0  0  0  0  0  0  0  0  0  0
  149.1074  142.0152  155.3377 N   0  0  0  0  0  0  0  0  0  0  0  0
  148.5419  141.1320  154.3243 C   0  0  0  0  0  0  0  0  0  0  0  0
  147.0047  141.2329  154.2779 C   0  0  0  0  0  0  0  0  0  0  0  0
  146.3891  140.1396  153.4844 N   0  3  0  0  0  0  0  0  0  0  0  0
  146.1613  138.9167  154.2987 C   0  0  0  0  0  0  0  0  0  0  0  0
  145.4050  137.8438  153.4968 C   0  0  0  0  0  0  0  0  0  0  0  0
  146.1475  137.5020  152.1989 C   0  0  0  0  0  0  0  0  0  0  0  0
  146.3992  138.7804  151.3894 C   0  0  0  0  0  0  0  0  0  0  0  0
  147.1375  139.8315  152.2354 C   0  0  0  0  0  0  0  0  0  0  0  0
  150.3374  142.6685  157.0636 N   0  0  0  0  0  0  0  0  0  0  0  0
  151.2265  142.6647  158.1703 C   0  0  0  0  0  0  0  0  0  0  0  0
  151.8225  141.5692  158.6561 N   0  0  0  0  0  0  0  0  0  0  0  0
  152.6423  141.8599  159.7495 C   0  0  0  0  0  0  0  0  0  0  0  0
  152.6575  143.1908  160.0855 C   0  0  0  0  0  0  0  0  0  0  0  0
  151.6369  144.1378  159.0362 S   0  0  0  0  0  0  0  0  0  0  0  0
  148.8203  142.9831  155.3143 H   0  0  0  0  0  0  0  0  0  0  0  0
  148.9614  141.4133  153.3581 H   0  0  0  0  0  0  0  0  0  0  0  0
  148.8727  140.1118  154.5204 H   0  0  0  0  0  0  0  0  0  0  0  0
  146.5767  141.2377  155.2816 H   0  0  0  0  0  0  0  0  0  0  0  0
  146.7459  142.1938  153.8302 H   0  0  0  0  0  0  0  0  0  0  0  0
  147.1198  138.5246  154.6429 H   0  0  0  0  0  0  0  0  0  0  0  0
  145.5832  139.1678  155.1888 H   0  0  0  0  0  0  0  0  0  0  0  0
  145.2803  136.9452  154.1019 H   0  0  0  0  0  0  0  0  0  0  0  0
  144.4011  138.2004  153.2625 H   0  0  0  0  0  0  0  0  0  0  0  0
  147.0978  137.0197  152.4324 H   0  0  0  0  0  0  0  0  0  0  0  0
  145.5707  136.7883  151.6100 H   0  0  0  0  0  0  0  0  0  0  0  0
  146.9794  138.5472  150.4960 H   0  0  0  0  0  0  0  0  0  0  0  0
  145.4489  139.1893  151.0435 H   0  0  0  0  0  0  0  0  0  0  0  0
  147.2700  140.7320  151.6373 H   0  0  0  0  0  0  0  0  0  0  0  0
  148.1369  139.4732  152.4879 H   0  0  0  0  0  0  0  0  0  0  0  0
  149.9216  143.5623  156.8465 H   0  0  0  0  0  0  0  0  0  0  0  0
  153.1803  141.0568  160.2309 H   0  0  0  0  0  0  0  0  0  0  0  0
  153.2049  143.6693  160.8837 H   0  0  0  0  0  0  0  0  0  0  0  0
  145.4744  140.4665  153.2080 H   0  0  0  0  0  0  0  0  0  0  0  0
  1  2  2  0  0  0  0
  2  3  1  0  0  0  0
  2 12  1  0  0  0  0
  3  4  1  0  0  0  0
  3 18  1  0  0  0  0
  4  5  1  0  0  0  0
  4 19  1  0  0  0  0
  4 20  1  0  0  0  0
  5  6  1  0  0  0  0
  5 21  1  0  0  0  0
  5 22  1  0  0  0  0
  6 11  1  0  0  0  0
  6  7  1  0  0  0  0
  6 36  1  0  0  0  0
  7  8  1  0  0  0  0
  7 23  1  0  0  0  0
  7 24  1  0  0  0  0
  8  9  1  0  0  0  0
  8 25  1  0  0  0  0
  8 26  1  0  0  0  0
  9 10  1  0  0  0  0
  9 27  1  0  0  0  0
  9 28  1  0  0  0  0
 10 11  1  0  0  0  0
 10 29  1  0  0  0  0
 10 30  1  0  0  0  0
 11 31  1  0  0  0  0
 11 32  1  0  0  0  0
 12 13  1  0  0  0  0
 12 33  1  0  0  0  0
 13 17  1  0  0  0  0
 13 14  2  0  0  0  0
 14 15  1  0  0  0  0
 15 16  2  0  0  0  0
 15 34  1  0  0  0  0
 16 17  1  0  0  0  0
 16 35  1  0  0  0  0
M  CHG  1   6   1
M  END
> <s_m_source_file>
AV-unprocessed.smi

> <i_m_source_file_index>
2094

> <i_lp_mmshare_version>
43012

> <i_f3d_flags>
0

> <s_epik_input>
czFbY0hdW2NIXW5jMVtOSF1DKD1PKVtOSF1bQ0gyXVtDSDJdTjJbQ0gyXVtDSDJdW0NIMl1bQ0gyXVtDSDJdMg==

> <s_epik_cmdline>
J2VwaWtfcHl0aG9uJywgJy1waCcsICc3LjAnLCAnLXRuJywgJzgnLCAnLW1hJywgJzIwMCcsICctbWV0YWxfYmluZGluZycsICctaW1hZScsICc8aW5maWxlLm1hZT4nLCAnLW9tYWUnLCAnPG91dGZpbGUubWFlPic=

> <r_lp_tautomer_probability>
0.999

> <r_epik_Ionization_Penalty>
0.00270619

> <r_epik_Ionization_Penalty_Charging>
0.00256589

> <r_epik_Ionization_Penalty_Neutral>
0.000140299

> <r_epik_State_Penalty>
0.00178258

> <r_epik_Charging_Adjusted_Penalty>
0.00434847

> <i_epik_Tot_Q>
1

> <i_epik_Tot_abs_Q>
1

> <r_epik_Metal_State_Penalty>
0.0571422

> <b_epik_Metal_Only>
0

> <s_lp_Force_Field>
OPLS_2005

> <r_lp_Energy>
13.6526

> <b_lp_Chiralities_Consistent>
1

> <s_lp_Variant>
AV-unprocessed.smi:2094-1

> <Gold.Version>
5.8.1

> <Gold.Id.Protein>
6NUR|6NUR_protein|mol2

> <Gold.PLP.Fitness>
45.5452

> <Gold.PLP.PLP>
-34.1485

> <Gold.PLP.part.hbond>
-3.0000

> <Gold.PLP.part.metal>
0.0000

> <Gold.PLP.part.buried>
2.6683

> <Gold.PLP.part.nonpolar>
-34.7127

> <Gold.PLP.part.repulsive>
0.3006

> <Gold.PLP.ligand.clash>
0.0000

> <Gold.PLP.ligand.torsion>
0.3149

> <Gold.PLP.Chemscore.Hbond>
4.0000

> <Gold.PLP.Chemscore.CHOScore>
0.0000

> <Gold.PLP.Chemscore.Metal>
0.0000

> <Gold.Chemscore.Hbonds>
donor molecule, donor type, donor heavy atom, donor atom, acceptor molecule, acceptor atom, score
      L1  H     3    18       P1  8028  1.00
      L1  H     6    36       P1 10175  2.00
      L1  H    12    33       P1  8028  1.00

> <Gold.PLP.Chemscore.Internal.Correction>
0.0265

> <Gold.Rescore>
     Score         DG    S(hbond)    S(metal)    S(lipo)     H(rot)  DE(clash)    DE(int)     intcor
     17.18     -20.76       2.94        0.00      82.03       1.61       2.03       1.55       ----

> <Gold.Chemscore.Fitness>
17.1845

> <Gold.Chemscore.DG>
-20.7606

> <Gold.Chemscore.ZeroCoef>
-5.4800

> <Gold.Chemscore.Hbond>
2.9383

> <Gold.Chemscore.Metal>
0.0000

> <Gold.Chemscore.Lipo>
82.0312

> <Gold.Chemscore.Internal_Hbond>
0.0000

> <Gold.Chemscore.DEClash>
2.0253

> <Gold.Chemscore.DEInternal>
1.5508

> <Gold.Chemscore.Rot>
1.6137

> <Gold.Chemscore.Internal.Correction>
   9.000000E+99

> <Gold.Chemscore.Hbonds>
donor molecule, donor type, donor heavy atom, donor atom, acceptor molecule, acceptor atom, score
      L1  H     3    18       P1  8028  0.99
      L1  H     6    36       P1 10175  0.93
      L1  H    12    33       P1  8028  0.95

> <Gold.Chemscore.Hbond.Weighted>
-9.8140

> <Gold.Chemscore.Metal.Weighted>
-0.0000

> <Gold.Chemscore.Lipo.Weighted>
-9.5977

> <Gold.Chemscore.Internal_Hbond.Weighted>
0.0000

> <Gold.Chemscore.DEClash.Weighted>
2.0253

> <Gold.Chemscore.DEInternal.Weighted>
1.5508

> <Gold.Chemscore.Rot.Weighted>
4.1310

> <Gold.Chemscore.Internal.Correction.Weighted>
   9.000000E+99

> <Gold.Protein.RotatedTorsions>
[ 6907 6896 6895 6894 ] final  117.51 input  -60.11 | X-H torsion
[ 7974 7965 7964 7962 ] final   17.73 input  175.53 | X-H torsion
[ 8008 7997 7996 7995 ] final  -94.90 input   59.86 | X-H torsion
[ 10167 10162 10161 10158 ] final  141.61 input  -65.29 | X-H torsion
[ 10718 10713 10712 10709 ] final  145.63 input   66.30 | X-H torsion
[ 10763 10752 10751 10750 ] final  129.15 input  -60.55 | X-H torsion
[ 11005 11000 10999 10996 ] final  -52.12 input  -57.11 | X-H torsion

> <Gold.Protein.ActiveResidues>
 VAL166  LYS551  ARG553  GLY616  TRP617  ASP618  TYR619  PRO620  LYS621  CYS622 
 ASP623  PHE694  ASN695  SER759  ASP760  ASP761  ALA762  ILE779  LEU786  VAL792 
 PHE793  MET794  SER795  GLU796  ALA797  LYS798  CYS799  TRP800  GLU811  SER814 

> <Gold.Protein.RotatedAtoms>
  152.4607  133.7815  159.6853 H   0  0  0  0  0  0  0  0  0  0  0  0  # atno 6907 bound_to 6896
  150.8549  133.7720  159.3018 H   0  0  0  0  0  0  0  0  0  0  0  0  # atno 6908 bound_to 6896
  151.5304  135.1071  159.9953 H   0  0  0  0  0  0  0  0  0  0  0  0  # atno 6909 bound_to 6896
  146.2209  139.8560  142.8613 H   0  0  0  0  0  0  0  0  0  0  0  0  # atno 7974 bound_to 7965
  154.7544  140.0485  157.0920 H   0  0  0  0  0  0  0  0  0  0  0  0  # atno 8008 bound_to 7997
  155.0017  140.3125  155.4845 H   0  0  0  0  0  0  0  0  0  0  0  0  # atno 8009 bound_to 7997
  156.2892  140.2200  156.5127 H   0  0  0  0  0  0  0  0  0  0  0  0  # atno 8010 bound_to 7997
  139.5016  144.6160  151.6162 H   0  0  0  0  0  0  0  0  0  0  0  0  # atno 10167 bound_to 10162
  157.3430  131.0939  151.1066 H   0  0  0  0  0  0  0  0  0  0  0  0  # atno 10718 bound_to 10713
  153.7371  135.3230  155.3297 H   0  0  0  0  0  0  0  0  0  0  0  0  # atno 10763 bound_to 10752
  154.8307  135.4536  154.1063 H   0  0  0  0  0  0  0  0  0  0  0  0  # atno 10764 bound_to 10752
  153.2228  135.6950  153.8062 H   0  0  0  0  0  0  0  0  0  0  0  0  # atno 10765 bound_to 10752
  141.0908  133.6633  156.3978 H   0  0  0  0  0  0  0  0  0  0  0  0  # atno 11005 bound_to 11000
  145.2752  141.0121  143.3749 LP  0  0  0  0  0  0  0  0  0  0  0  0  # atno 17320 bound_to 7965
  144.9192  139.4432  143.6549 LP  0  0  0  0  0  0  0  0  0  0  0  0  # atno 17321 bound_to 7965
  140.5848  143.9882  150.6289 LP  0  0  0  0  0  0  0  0  0  0  0  0  # atno 17342 bound_to 10162
  140.3043  143.3239  152.0941 LP  0  0  0  0  0  0  0  0  0  0  0  0  # atno 17343 bound_to 10162
  157.2271  130.6508  149.5834 LP  0  0  0  0  0  0  0  0  0  0  0  0  # atno 17370 bound_to 10713
  155.9710  130.4610  150.6095 LP  0  0  0  0  0  0  0  0  0  0  0  0  # atno 17371 bound_to 10713
  140.5257  134.6261  157.5333 LP  0  0  0  0  0  0  0  0  0  0  0  0  # atno 17394 bound_to 11000
  139.9733  134.7257  155.9998 LP  0  0  0  0  0  0  0  0  0  0  0  0  # atno 17395 bound_to 11000

$$$$
