AV-unprocessed.smi:3232|AV-procd|sdf|12342|dock6
  -GOLD-   2272018203D 1   1.00000     0.00000
 Structure written by MMmdl.
 40 41  0  0  0  0  0  0  0  0  2 V2000
  148.9532  133.2068  153.8338 C   0  0  0  0  0  0  0  0  0  0  0  0
  148.0346  133.0474  152.6150 C   0  0  0  0  0  0  0  0  0  0  0  0
  147.1571  134.2263  152.4161 N   0  3  1  0  0  0  0  0  0  0  0  0
  146.4202  134.2420  151.1351 C   0  0  0  0  0  0  0  0  0  0  0  0
  145.2277  135.1574  151.3788 C   0  0  0  0  0  0  0  0  0  0  0  0
  144.8485  134.8463  152.8220 C   0  0  0  0  0  0  0  0  0  0  0  0
  146.1718  134.4446  153.5053 C   0  0  2  0  0  0  0  0  0  0  0  0
  146.6989  135.4967  154.5038 C   0  0  0  0  0  0  0  0  0  0  0  0
  146.9136  136.7938  153.8734 N   0  0  0  0  0  0  0  0  0  0  0  0
  146.1836  137.8953  154.1080 C   0  0  0  0  0  0  0  0  0  0  0  0
  145.2750  137.9331  154.9387 O   0  0  0  0  0  0  0  0  0  0  0  0
  146.5241  139.1245  153.2516 C   0  0  2  0  0  0  0  0  0  0  0  0
  146.7085  138.7882  151.7603 C   0  0  0  0  0  0  0  0  0  0  0  0
  147.7036  139.7911  153.7864 N   0  0  0  0  0  0  0  0  0  0  0  0
  148.9685  139.3756  153.9012 C   0  0  0  0  0  0  0  0  0  0  0  0
  149.7765  140.2638  154.4621 N   0  0  0  0  0  0  0  0  0  0  0  0
  148.8866  141.2778  154.6768 C   0  0  0  0  0  0  0  0  0  0  0  0
  147.6309  141.0442  154.2954 N   0  0  0  0  0  0  0  0  0  0  0  0
  149.5400  132.3021  153.9943 H   0  0  0  0  0  0  0  0  0  0  0  0
  148.3771  133.3919  154.7406 H   0  0  0  0  0  0  0  0  0  0  0  0
  149.6543  134.0315  153.7053 H   0  0  0  0  0  0  0  0  0  0  0  0
  148.6237  132.8626  151.7156 H   0  0  0  0  0  0  0  0  0  0  0  0
  147.4081  132.1671  152.7648 H   0  0  0  0  0  0  0  0  0  0  0  0
  147.0459  134.5869  150.3115 H   0  0  0  0  0  0  0  0  0  0  0  0
  146.0674  133.2372  150.8963 H   0  0  0  0  0  0  0  0  0  0  0  0
  145.5360  136.2002  151.2928 H   0  0  0  0  0  0  0  0  0  0  0  0
  144.4102  134.9870  150.6773 H   0  0  0  0  0  0  0  0  0  0  0  0
  144.3412  135.6845  153.3006 H   0  0  0  0  0  0  0  0  0  0  0  0
  144.1596  134.0007  152.8416 H   0  0  0  0  0  0  0  0  0  0  0  0
  146.0045  133.5023  154.0304 H   0  0  0  0  0  0  0  0  0  0  0  0
  146.0076  135.6102  155.3408 H   0  0  0  0  0  0  0  0  0  0  0  0
  147.6467  135.1658  154.9298 H   0  0  0  0  0  0  0  0  0  0  0  0
  147.6442  136.8502  153.1778 H   0  0  0  0  0  0  0  0  0  0  0  0
  145.6808  139.8135  153.3297 H   0  0  0  0  0  0  0  0  0  0  0  0
  145.8216  138.3025  151.3516 H   0  0  0  0  0  0  0  0  0  0  0  0
  147.5583  138.1242  151.5961 H   0  0  0  0  0  0  0  0  0  0  0  0
  146.8816  139.6936  151.1779 H   0  0  0  0  0  0  0  0  0  0  0  0
  149.3022  138.4018  153.5736 H   0  0  0  0  0  0  0  0  0  0  0  0
  149.1717  142.2146  155.1327 H   0  0  0  0  0  0  0  0  0  0  0  0
  147.7479  135.0453  152.4126 H   0  0  0  0  0  0  0  0  0  0  0  0
  1  2  1  0  0  0  0
  1 19  1  0  0  0  0
  1 20  1  0  0  0  0
  1 21  1  0  0  0  0
  2  3  1  0  0  0  0
  2 22  1  0  0  0  0
  2 23  1  0  0  0  0
  3  7  1  0  0  0  0
  3  4  1  0  0  0  0
  3 40  1  0  0  0  0
  4  5  1  0  0  0  0
  4 24  1  0  0  0  0
  4 25  1  0  0  0  0
  5  6  1  0  0  0  0
  5 26  1  0  0  0  0
  5 27  1  0  0  0  0
  6  7  1  0  0  0  0
  6 28  1  0  0  0  0
  6 29  1  0  0  0  0
  7  8  1  0  0  0  0
  7 30  1  0  0  0  0
  8  9  1  0  0  0  0
  8 31  1  0  0  0  0
  8 32  1  0  0  0  0
  9 10  1  0  0  0  0
  9 33  1  0  0  0  0
 10 11  2  0  0  0  0
 10 12  1  0  0  0  0
 12 13  1  0  0  0  0
 12 14  1  0  0  0  0
 12 34  1  0  0  0  0
 13 35  1  0  0  0  0
 13 36  1  0  0  0  0
 13 37  1  0  0  0  0
 14 18  1  0  0  0  0
 14 15  1  0  0  0  0
 15 16  2  0  0  0  0
 15 38  1  0  0  0  0
 16 17  1  0  0  0  0
 17 18  2  0  0  0  0
 17 39  1  0  0  0  0
M  CHG  1   3   1
M  END
> <s_m_source_file>
AV-unprocessed.smi

> <i_m_source_file_index>
3232

> <i_lp_mmshare_version>
43012

> <i_f3d_flags>
0

> <s_epik_input>
W0NIM11bQ0gyXU4xW0NIMl1bQ0gyXVtDSDJdW0NASF0xW0NIMl1bTkhdQyg9TylbQ0BIXShbQ0gzXSluMltjSF1uW2NIXW4y

> <s_epik_cmdline>
J2VwaWtfcHl0aG9uJywgJy1waCcsICc3LjAnLCAnLXRuJywgJzgnLCAnLW1hJywgJzIwMCcsICctbWV0YWxfYmluZGluZycsICctaW1hZScsICc8aW5maWxlLm1hZT4nLCAnLW9tYWUnLCAnPG91dGZpbGUubWFlPic=

> <r_lp_tautomer_probability>
1

> <r_epik_Ionization_Penalty>
0.00177695

> <r_epik_Ionization_Penalty_Charging>
0.00176881

> <r_epik_Ionization_Penalty_Neutral>
8.13528e-06

> <r_epik_State_Penalty>
0.00119827

> <r_epik_Charging_Adjusted_Penalty>
0.00296709

> <i_epik_Tot_Q>
1

> <i_epik_Tot_abs_Q>
1

> <r_epik_Metal_State_Penalty>
-0

> <b_epik_Metal_Only>
0

> <s_lp_Force_Field>
OPLS_2005

> <r_lp_Energy>
32.398

> <b_lp_Chiralities_Consistent>
1

> <s_lp_Variant>
AV-unprocessed.smi:3232-4

> <Gold.Version>
5.8.1

> <Gold.Id.Protein>
6NUR|6NUR_protein|mol2

> <Gold.PLP.Fitness>
42.3467

> <Gold.PLP.PLP>
-27.6055

> <Gold.PLP.part.hbond>
-3.0000

> <Gold.PLP.part.metal>
0.0000

> <Gold.PLP.part.buried>
0.4947

> <Gold.PLP.part.nonpolar>
-26.2519

> <Gold.PLP.part.repulsive>
0.3320

> <Gold.PLP.ligand.clash>
0.0000

> <Gold.PLP.ligand.torsion>
0.5396

> <Gold.PLP.Chemscore.Hbond>
3.9600

> <Gold.PLP.Chemscore.CHOScore>
1.2872

> <Gold.PLP.Chemscore.Metal>
0.0000

> <Gold.Chemscore.Hbonds>
donor molecule, donor type, donor heavy atom, donor atom, acceptor molecule, acceptor atom, score
      L1  H     3    40       P1  7948  2.00
      L1  H     9    33       P1  7948  1.00
      P1  H  7989  7998       L1    16  0.60
      L1  C    15    38       P1  7948  0.44
      L1  C    17    39       P1  8028  0.91

> <Gold.PLP.Chemscore.Internal.Correction>
0.0788

> <Gold.Rescore>
     Score         DG    S(hbond)    S(metal)    S(lipo)     H(rot)  DE(clash)    DE(int)     intcor
     11.70     -13.62       2.74        0.00      45.88       2.49       1.35       0.57       ----

> <Gold.Chemscore.Fitness>
11.6972

> <Gold.Chemscore.DG>
-13.6169

> <Gold.Chemscore.ZeroCoef>
-5.4800

> <Gold.Chemscore.Hbond>
2.7363

> <Gold.Chemscore.Metal>
0.0000

> <Gold.Chemscore.Lipo>
45.8750

> <Gold.Chemscore.Internal_Hbond>
0.0000

> <Gold.Chemscore.DEClash>
1.3522

> <Gold.Chemscore.DEInternal>
0.5675

> <Gold.Chemscore.Rot>
2.4882

> <Gold.Chemscore.Internal.Correction>
   9.000000E+99

> <Gold.Chemscore.Hbonds>
donor molecule, donor type, donor heavy atom, donor atom, acceptor molecule, acceptor atom, score
      L1  H     3    40       P1  7948  0.95
      L1  H     9    33       P1  7948  0.98
      P1  H  7989  7998       L1    16  0.51

> <Gold.Chemscore.Hbond.Weighted>
-9.1392

> <Gold.Chemscore.Metal.Weighted>
-0.0000

> <Gold.Chemscore.Lipo.Weighted>
-5.3674

> <Gold.Chemscore.Internal_Hbond.Weighted>
0.0000

> <Gold.Chemscore.DEClash.Weighted>
1.3522

> <Gold.Chemscore.DEInternal.Weighted>
0.5675

> <Gold.Chemscore.Rot.Weighted>
6.3697

> <Gold.Chemscore.Internal.Correction.Weighted>
   9.000000E+99

> <Gold.Protein.RotatedTorsions>
[ 6907 6896 6895 6894 ] final  145.31 input  -60.11 | X-H torsion
[ 7974 7965 7964 7962 ] final  -74.76 input  175.53 | X-H torsion
[ 8008 7997 7996 7995 ] final  131.82 input   59.86 | X-H torsion
[ 10167 10162 10161 10158 ] final  108.05 input  -65.29 | X-H torsion
[ 10718 10713 10712 10709 ] final -139.47 input   66.30 | X-H torsion
[ 10763 10752 10751 10750 ] final   78.03 input  -60.55 | X-H torsion
[ 11005 11000 10999 10996 ] final -157.99 input  -57.11 | X-H torsion

> <Gold.Protein.ActiveResidues>
 VAL166  LYS551  ARG553  GLY616  TRP617  ASP618  TYR619  PRO620  LYS621  CYS622 
 ASP623  PHE694  ASN695  SER759  ASP760  ASP761  ALA762  ILE779  LEU786  VAL792 
 PHE793  MET794  SER795  GLU796  ALA797  LYS798  CYS799  TRP800  GLU811  SER814 

> <Gold.Protein.RotatedAtoms>
  152.1825  133.4717  159.4965 H   0  0  0  0  0  0  0  0  0  0  0  0  # atno 6907 bound_to 6896
  150.6937  134.1815  159.4259 H   0  0  0  0  0  0  0  0  0  0  0  0  # atno 6908 bound_to 6896
  151.9726  135.0068  160.0604 H   0  0  0  0  0  0  0  0  0  0  0  0  # atno 6909 bound_to 6896
  145.6349  140.9327  143.1067 H   0  0  0  0  0  0  0  0  0  0  0  0  # atno 7974 bound_to 7965
  156.2975  140.2561  156.2989 H   0  0  0  0  0  0  0  0  0  0  0  0  # atno 8008 bound_to 7997
  154.9437  140.0395  157.2128 H   0  0  0  0  0  0  0  0  0  0  0  0  # atno 8009 bound_to 7997
  154.8102  140.2843  155.5863 H   0  0  0  0  0  0  0  0  0  0  0  0  # atno 8010 bound_to 7997
  139.6877  144.7111  151.1403 H   0  0  0  0  0  0  0  0  0  0  0  0  # atno 10167 bound_to 10162
  156.3111  130.7482  151.1558 H   0  0  0  0  0  0  0  0  0  0  0  0  # atno 10718 bound_to 10713
  153.0843  135.4892  154.8565 H   0  0  0  0  0  0  0  0  0  0  0  0  # atno 10763 bound_to 10752
  154.7190  135.3035  154.9079 H   0  0  0  0  0  0  0  0  0  0  0  0  # atno 10764 bound_to 10752
  153.9749  135.6796  153.4801 H   0  0  0  0  0  0  0  0  0  0  0  0  # atno 10765 bound_to 10752
  140.6586  134.4374  157.5234 H   0  0  0  0  0  0  0  0  0  0  0  0  # atno 11005 bound_to 11000
  144.7179  139.8131  143.7392 LP  0  0  0  0  0  0  0  0  0  0  0  0  # atno 17320 bound_to 7965
  146.1327  139.4366  143.0158 LP  0  0  0  0  0  0  0  0  0  0  0  0  # atno 17321 bound_to 7965
  140.7673  143.5605  150.9104 LP  0  0  0  0  0  0  0  0  0  0  0  0  # atno 17342 bound_to 10162
  139.9280  143.6526  152.3082 LP  0  0  0  0  0  0  0  0  0  0  0  0  # atno 17343 bound_to 10162
  157.7391  131.0533  150.5253 LP  0  0  0  0  0  0  0  0  0  0  0  0  # atno 17370 bound_to 10713
  156.5392  130.4204  149.6162 LP  0  0  0  0  0  0  0  0  0  0  0  0  # atno 17371 bound_to 10713
  139.9021  134.8533  156.1854 LP  0  0  0  0  0  0  0  0  0  0  0  0  # atno 17394 bound_to 11000
  141.0483  133.6902  156.1723 LP  0  0  0  0  0  0  0  0  0  0  0  0  # atno 17395 bound_to 11000

$$$$
