AV-unprocessed.smi:3117|AV-procd|sdf|11880|dock4
  -GOLD-   2272017263D 1   1.00000     0.00000
 Structure written by MMmdl.
 37 37  0  0  0  0  0  0  0  0  2 V2000
  150.9867  140.2528  157.4956 C   0  0  0  0  0  0  0  0  0  0  0  0
  150.4460  141.6940  157.4708 C   0  0  2  0  0  0  0  0  0  0  0  0
  149.7887  141.9336  156.1668 N   0  3  0  0  0  0  0  0  0  0  0  0
  148.8307  140.8881  155.7470 C   0  0  0  0  0  0  0  0  0  0  0  0
  148.3791  141.0650  154.2816 C   0  0  0  0  0  0  0  0  0  0  0  0
  147.5315  139.8620  153.8353 C   0  0  0  0  0  0  0  0  0  0  0  0
  147.5994  142.3760  154.0688 C   0  0  0  0  0  0  0  0  0  0  0  0
  149.5294  141.0844  153.4585 O   0  0  0  0  0  0  0  0  0  0  0  0
  151.5403  142.7643  157.7232 C   0  0  1  0  0  0  0  0  0  0  0  0
  150.9725  144.1928  157.8147 C   0  0  0  0  0  0  0  0  0  0  0  0
  152.3256  142.4662  158.9146 N   0  0  0  0  0  0  0  0  0  0  0  0
  152.4509  143.2039  160.0754 C   0  0  0  0  0  0  0  0  0  0  0  0
  153.2824  142.5143  160.9102 C   0  0  0  0  0  0  0  0  0  0  0  0
  153.6172  141.3487  160.1662 C   0  0  0  0  0  0  0  0  0  0  0  0
  153.0423  141.3223  158.9748 N   0  0  0  0  0  0  0  0  0  0  0  0
  151.3910  139.9867  158.4725 H   0  0  0  0  0  0  0  0  0  0  0  0
  151.7788  140.1137  156.7590 H   0  0  0  0  0  0  0  0  0  0  0  0
  150.1963  139.5353  157.2728 H   0  0  0  0  0  0  0  0  0  0  0  0
  149.7019  141.7681  158.2661 H   0  0  0  0  0  0  0  0  0  0  0  0
  149.3022  142.8174  156.2127 H   0  0  0  0  0  0  0  0  0  0  0  0
  149.2991  139.9122  155.8838 H   0  0  0  0  0  0  0  0  0  0  0  0
  147.9603  140.9156  156.4040 H   0  0  0  0  0  0  0  0  0  0  0  0
  146.6212  139.7787  154.4304 H   0  0  0  0  0  0  0  0  0  0  0  0
  148.0803  138.9252  153.9423 H   0  0  0  0  0  0  0  0  0  0  0  0
  147.2328  139.9494  152.7899 H   0  0  0  0  0  0  0  0  0  0  0  0
  146.7082  142.4085  154.6967 H   0  0  0  0  0  0  0  0  0  0  0  0
  147.2742  142.4805  153.0330 H   0  0  0  0  0  0  0  0  0  0  0  0
  148.2025  143.2522  154.3085 H   0  0  0  0  0  0  0  0  0  0  0  0
  149.4794  140.3604  152.8521 H   0  0  0  0  0  0  0  0  0  0  0  0
  152.2256  142.7446  156.8730 H   0  0  0  0  0  0  0  0  0  0  0  0
  150.4957  144.4947  156.8822 H   0  0  0  0  0  0  0  0  0  0  0  0
  151.7641  144.9149  158.0180 H   0  0  0  0  0  0  0  0  0  0  0  0
  150.2315  144.2798  158.6099 H   0  0  0  0  0  0  0  0  0  0  0  0
  151.9434  144.1477  160.2100 H   0  0  0  0  0  0  0  0  0  0  0  0
  153.6018  142.7985  161.9020 H   0  0  0  0  0  0  0  0  0  0  0  0
  154.2553  140.5264  160.4546 H   0  0  0  0  0  0  0  0  0  0  0  0
  150.5022  142.0019  155.4550 H   0  0  0  0  0  0  0  0  0  0  0  0
  1  2  1  0  0  0  0
  1 16  1  0  0  0  0
  1 17  1  0  0  0  0
  1 18  1  0  0  0  0
  2  3  1  0  0  0  0
  2  9  1  0  0  0  0
  2 19  1  0  0  0  0
  3  4  1  0  0  0  0
  3 20  1  0  0  0  0
  3 37  1  0  0  0  0
  4  5  1  0  0  0  0
  4 21  1  0  0  0  0
  4 22  1  0  0  0  0
  5  6  1  0  0  0  0
  5  7  1  0  0  0  0
  5  8  1  0  0  0  0
  6 23  1  0  0  0  0
  6 24  1  0  0  0  0
  6 25  1  0  0  0  0
  7 26  1  0  0  0  0
  7 27  1  0  0  0  0
  7 28  1  0  0  0  0
  8 29  1  0  0  0  0
  9 10  1  0  0  0  0
  9 11  1  0  0  0  0
  9 30  1  0  0  0  0
 10 31  1  0  0  0  0
 10 32  1  0  0  0  0
 10 33  1  0  0  0  0
 11 15  1  0  0  0  0
 11 12  1  0  0  0  0
 12 13  2  0  0  0  0
 12 34  1  0  0  0  0
 13 14  1  0  0  0  0
 13 35  1  0  0  0  0
 14 15  2  0  0  0  0
 14 36  1  0  0  0  0
M  CHG  1   3   1
M  END
> <s_m_source_file>
AV-unprocessed.smi

> <i_m_source_file_index>
3117

> <i_lp_mmshare_version>
43012

> <i_f3d_flags>
0

> <s_epik_input>
W0NIM11DKFtDSDNdKShbT0hdKVtDSDJdW05IXVtDQEBIXShbQ0gzXSlbQ0BIXShbQ0gzXSluMVtjSF1bY0hdW2NIXW4x

> <s_epik_cmdline>
J2VwaWtfcHl0aG9uJywgJy1waCcsICc3LjAnLCAnLXRuJywgJzgnLCAnLW1hJywgJzIwMCcsICctbWV0YWxfYmluZGluZycsICctaW1hZScsICc8aW5maWxlLm1hZT4nLCAnLW9tYWUnLCAnPG91dGZpbGUubWFlPic=

> <r_lp_tautomer_probability>
1

> <r_epik_Ionization_Penalty>
0.0164263

> <r_epik_Ionization_Penalty_Charging>
0.0164138

> <r_epik_Ionization_Penalty_Neutral>
1.24697e-05

> <r_epik_State_Penalty>
0.0129543

> <r_epik_Charging_Adjusted_Penalty>
0.0293681

> <i_epik_Tot_Q>
1

> <i_epik_Tot_abs_Q>
1

> <r_epik_Metal_State_Penalty>
0.0129806

> <b_epik_Metal_Only>
0

> <s_lp_Force_Field>
OPLS_2005

> <r_lp_Energy>
14.6887

> <b_lp_Chiralities_Consistent>
1

> <s_lp_Variant>
AV-unprocessed.smi:3117-3

> <Gold.Version>
5.8.1

> <Gold.Id.Protein>
6NUR|6NUR_protein|mol2

> <Gold.PLP.Fitness>
45.3976

> <Gold.PLP.PLP>
-34.1065

> <Gold.PLP.part.hbond>
-3.9985

> <Gold.PLP.part.metal>
0.0000

> <Gold.PLP.part.buried>
-0.7897

> <Gold.PLP.part.nonpolar>
-27.9305

> <Gold.PLP.part.repulsive>
0.0846

> <Gold.PLP.ligand.clash>
0.0347

> <Gold.PLP.ligand.torsion>
0.1992

> <Gold.PLP.Chemscore.Hbond>
3.8776

> <Gold.PLP.Chemscore.CHOScore>
0.0000

> <Gold.PLP.Chemscore.Metal>
0.0000

> <Gold.Chemscore.Hbonds>
donor molecule, donor type, donor heavy atom, donor atom, acceptor molecule, acceptor atom, score
      L1  H     3    20       P1  8028  2.00
      L1  H     8    29       P1  7957  0.78
      P1  H  7989  7998       L1     8  0.08
      P1  H  8011  8017       L1     8  1.00

> <Gold.PLP.Chemscore.Internal.Correction>
0.0914

> <Gold.Rescore>
     Score         DG    S(hbond)    S(metal)    S(lipo)     H(rot)  DE(clash)    DE(int)     intcor
     14.42     -16.99       2.12        0.00      87.68       2.27       0.94       1.63       ----

> <Gold.Chemscore.Fitness>
14.4198

> <Gold.Chemscore.DG>
-16.9944

> <Gold.Chemscore.ZeroCoef>
-5.4800

> <Gold.Chemscore.Hbond>
2.1178

> <Gold.Chemscore.Metal>
0.0000

> <Gold.Chemscore.Lipo>
87.6799

> <Gold.Chemscore.Internal_Hbond>
0.0000

> <Gold.Chemscore.DEClash>
0.9434

> <Gold.Chemscore.DEInternal>
1.6313

> <Gold.Chemscore.Rot>
2.2725

> <Gold.Chemscore.Internal.Correction>
   9.000000E+99

> <Gold.Chemscore.Hbonds>
donor molecule, donor type, donor heavy atom, donor atom, acceptor molecule, acceptor atom, score
      L1  H     3    20       P1  8028  0.92
      L1  H     8    29       P1  7957  0.80
      P1  H  8011  8017       L1     8  0.24

> <Gold.Chemscore.Hbond.Weighted>
-7.0735

> <Gold.Chemscore.Metal.Weighted>
-0.0000

> <Gold.Chemscore.Lipo.Weighted>
-10.2586

> <Gold.Chemscore.Internal_Hbond.Weighted>
0.0000

> <Gold.Chemscore.DEClash.Weighted>
0.9434

> <Gold.Chemscore.DEInternal.Weighted>
1.6313

> <Gold.Chemscore.Rot.Weighted>
5.8176

> <Gold.Chemscore.Internal.Correction.Weighted>
   9.000000E+99

> <Gold.Protein.RotatedTorsions>
[ 6907 6896 6895 6894 ] final   -6.97 input  -60.11 | X-H torsion
[ 7974 7965 7964 7962 ] final   84.89 input  175.53 | X-H torsion
[ 8008 7997 7996 7995 ] final -111.80 input   59.86 | X-H torsion
[ 10167 10162 10161 10158 ] final   72.67 input  -65.29 | X-H torsion
[ 10718 10713 10712 10709 ] final  -33.60 input   66.30 | X-H torsion
[ 10763 10752 10751 10750 ] final   35.24 input  -60.55 | X-H torsion
[ 11005 11000 10999 10996 ] final -141.91 input  -57.11 | X-H torsion

> <Gold.Protein.ActiveResidues>
 VAL166  LYS551  ARG553  GLY616  TRP617  ASP618  TYR619  PRO620  LYS621  CYS622 
 ASP623  PHE694  ASN695  SER759  ASP760  ASP761  ALA762  ILE779  LEU786  VAL792 
 PHE793  MET794  SER795  GLU796  ALA797  LYS798  CYS799  TRP800  GLU811  SER814 

> <Gold.Protein.RotatedAtoms>
  151.4571  135.1035  159.9713 H   0  0  0  0  0  0  0  0  0  0  0  0  # atno 6907 bound_to 6896
  152.4867  133.8387  159.7151 H   0  0  0  0  0  0  0  0  0  0  0  0  # atno 6908 bound_to 6896
  150.8982  133.7093  159.2913 H   0  0  0  0  0  0  0  0  0  0  0  0  # atno 6909 bound_to 6896
  145.5928  139.2340  143.2290 H   0  0  0  0  0  0  0  0  0  0  0  0  # atno 7974 bound_to 7965
  154.9954  140.0395  157.2337 H   0  0  0  0  0  0  0  0  0  0  0  0  # atno 8008 bound_to 7997
  154.7591  140.2781  155.6206 H   0  0  0  0  0  0  0  0  0  0  0  0  # atno 8009 bound_to 7997
  156.2900  140.2632  156.2365 H   0  0  0  0  0  0  0  0  0  0  0  0  # atno 8010 bound_to 7997
  140.0328  144.5452  150.7493 H   0  0  0  0  0  0  0  0  0  0  0  0  # atno 10167 bound_to 10162
  156.3607  130.4323  149.7626 H   0  0  0  0  0  0  0  0  0  0  0  0  # atno 10718 bound_to 10713
  153.0128  135.6339  154.1795 H   0  0  0  0  0  0  0  0  0  0  0  0  # atno 10763 bound_to 10752
  154.1536  135.2827  155.3130 H   0  0  0  0  0  0  0  0  0  0  0  0  # atno 10764 bound_to 10752
  154.6035  135.5580  153.7459 H   0  0  0  0  0  0  0  0  0  0  0  0  # atno 10765 bound_to 10752
  140.8278  134.2554  157.4871 H   0  0  0  0  0  0  0  0  0  0  0  0  # atno 11005 bound_to 11000
  146.1634  140.6754  142.9267 LP  0  0  0  0  0  0  0  0  0  0  0  0  # atno 17320 bound_to 7965
  144.7344  140.4765  143.6914 LP  0  0  0  0  0  0  0  0  0  0  0  0  # atno 17321 bound_to 7965
  140.7294  143.2672  151.4004 LP  0  0  0  0  0  0  0  0  0  0  0  0  # atno 17342 bound_to 10162
  139.6065  144.1187  152.2254 LP  0  0  0  0  0  0  0  0  0  0  0  0  # atno 17343 bound_to 10162
  156.4791  130.8032  151.3048 LP  0  0  0  0  0  0  0  0  0  0  0  0  # atno 17370 bound_to 10713
  157.7473  131.0011  150.2952 LP  0  0  0  0  0  0  0  0  0  0  0  0  # atno 17371 bound_to 10713
  139.8706  134.9570  156.4254 LP  0  0  0  0  0  0  0  0  0  0  0  0  # atno 17394 bound_to 11000
  140.9031  133.7765  155.9703 LP  0  0  0  0  0  0  0  0  0  0  0  0  # atno 17395 bound_to 11000

$$$$
