AV-unprocessed.smi:2027|AV-procd|sdf|8212|dock5
  -GOLD-   2272010473D 1   1.00000     0.00000
 Structure written by MMmdl.
 50 52  0  0  0  0  0  0  0  0  2 V2000
  153.7022  142.1721  162.0338 C   0  0  0  0  0  0  0  0  0  0  0  0
  153.0186  142.0403  160.6840 C   0  0  0  0  0  0  0  0  0  0  0  0
  153.2466  140.8811  159.9088 C   0  0  0  0  0  0  0  0  0  0  0  0
  152.6273  140.7180  158.6506 C   0  0  0  0  0  0  0  0  0  0  0  0
  152.7053  139.6806  157.7375 N   0  0  0  0  0  0  0  0  0  0  0  0
  151.9033  140.1137  156.7695 C   0  0  0  0  0  0  0  0  0  0  0  0
  151.3194  141.3151  156.9442 N   0  0  0  0  0  0  0  0  0  0  0  0
  150.4121  141.9905  156.0338 C   0  0  0  0  0  0  0  0  0  0  0  0
  149.0923  141.2206  155.8369 C   0  0  1  0  0  0  0  0  0  0  0  0
  148.0023  142.0957  156.0550 O   0  0  0  0  0  0  0  0  0  0  0  0
  148.9789  140.6377  154.4143 C   0  0  0  0  0  0  0  0  0  0  0  0
  147.6391  140.0523  154.1516 N   0  3  1  0  0  0  0  0  0  0  0  0
  147.0147  140.6186  152.9323 C   0  0  0  0  0  0  0  0  0  0  0  0
  147.6420  138.5662  154.1574 C   0  0  0  0  0  0  0  0  0  0  0  0
  146.2836  138.0139  153.8212 C   0  0  0  0  0  0  0  0  0  0  0  0
  145.0638  138.2146  154.5285 C   0  0  0  0  0  0  0  0  0  0  0  0
  144.0375  137.5959  153.9690 N   0  0  0  0  0  0  0  0  0  0  0  0
  144.5642  136.9734  152.8947 N   0  0  0  0  0  0  0  0  0  0  0  0
  143.7074  136.1872  152.0332 C   0  0  0  0  0  0  0  0  0  0  0  0
  145.9180  137.2052  152.7816 C   0  0  0  0  0  0  0  0  0  0  0  0
  151.7673  141.7553  158.1849 C   0  0  0  0  0  0  0  0  0  0  0  0
  151.5329  142.9138  158.9462 C   0  0  0  0  0  0  0  0  0  0  0  0
  152.1596  143.0604  160.2016 C   0  0  0  0  0  0  0  0  0  0  0  0
  151.9001  144.3145  161.0174 C   0  0  0  0  0  0  0  0  0  0  0  0
  154.3219  141.3021  162.2533 H   0  0  0  0  0  0  0  0  0  0  0  0
  152.9625  142.2639  162.8294 H   0  0  0  0  0  0  0  0  0  0  0  0
  154.3441  143.0530  162.0535 H   0  0  0  0  0  0  0  0  0  0  0  0
  153.9002  140.1034  160.2764 H   0  0  0  0  0  0  0  0  0  0  0  0
  151.7332  139.5249  155.8796 H   0  0  0  0  0  0  0  0  0  0  0  0
  150.2166  142.9939  156.4152 H   0  0  0  0  0  0  0  0  0  0  0  0
  150.9224  142.1139  155.0779 H   0  0  0  0  0  0  0  0  0  0  0  0
  149.0384  140.4253  156.5799 H   0  0  0  0  0  0  0  0  0  0  0  0
  148.2975  142.9838  155.9180 H   0  0  0  0  0  0  0  0  0  0  0  0
  149.1871  141.4353  153.6988 H   0  0  0  0  0  0  0  0  0  0  0  0
  149.7424  139.8763  154.2462 H   0  0  0  0  0  0  0  0  0  0  0  0
  147.5846  140.3512  152.0415 H   0  0  0  0  0  0  0  0  0  0  0  0
  146.9656  141.7064  152.9925 H   0  0  0  0  0  0  0  0  0  0  0  0
  145.9934  140.2598  152.8052 H   0  0  0  0  0  0  0  0  0  0  0  0
  148.4021  138.2058  153.4624 H   0  0  0  0  0  0  0  0  0  0  0  0
  147.9473  138.1993  155.1367 H   0  0  0  0  0  0  0  0  0  0  0  0
  144.8950  138.7940  155.4244 H   0  0  0  0  0  0  0  0  0  0  0  0
  144.3105  135.6116  151.3304 H   0  0  0  0  0  0  0  0  0  0  0  0
  143.0437  136.8475  151.4739 H   0  0  0  0  0  0  0  0  0  0  0  0
  143.1085  135.4991  152.6310 H   0  0  0  0  0  0  0  0  0  0  0  0
  146.5024  136.7838  151.9767 H   0  0  0  0  0  0  0  0  0  0  0  0
  150.8753  143.6824  158.5679 H   0  0  0  0  0  0  0  0  0  0  0  0
  151.2164  144.9901  160.5026 H   0  0  0  0  0  0  0  0  0  0  0  0
  152.8308  144.8533  161.1967 H   0  0  0  0  0  0  0  0  0  0  0  0
  151.4562  144.0595  161.9800 H   0  0  0  0  0  0  0  0  0  0  0  0
  147.0601  140.3471  154.9254 H   0  0  0  0  0  0  0  0  0  0  0  0
  1  2  1  0  0  0  0
  1 25  1  0  0  0  0
  1 26  1  0  0  0  0
  1 27  1  0  0  0  0
  2 23  1  0  0  0  0
  2  3  2  0  0  0  0
  3  4  1  0  0  0  0
  3 28  1  0  0  0  0
  4 21  2  0  0  0  0
  4  5  1  0  0  0  0
  5  6  2  0  0  0  0
  6  7  1  0  0  0  0
  6 29  1  0  0  0  0
  7  8  1  0  0  0  0
  7 21  1  0  0  0  0
  8  9  1  0  0  0  0
  8 30  1  0  0  0  0
  8 31  1  0  0  0  0
  9 10  1  0  0  0  0
  9 11  1  0  0  0  0
  9 32  1  0  0  0  0
 10 33  1  0  0  0  0
 11 12  1  0  0  0  0
 11 34  1  0  0  0  0
 11 35  1  0  0  0  0
 12 13  1  0  0  0  0
 12 14  1  0  0  0  0
 12 50  1  0  0  0  0
 13 36  1  0  0  0  0
 13 37  1  0  0  0  0
 13 38  1  0  0  0  0
 14 15  1  0  0  0  0
 14 39  1  0  0  0  0
 14 40  1  0  0  0  0
 15 20  2  0  0  0  0
 15 16  1  0  0  0  0
 16 17  2  0  0  0  0
 16 41  1  0  0  0  0
 17 18  1  0  0  0  0
 18 19  1  0  0  0  0
 18 20  1  0  0  0  0
 19 42  1  0  0  0  0
 19 43  1  0  0  0  0
 19 44  1  0  0  0  0
 20 45  1  0  0  0  0
 21 22  1  0  0  0  0
 22 23  2  0  0  0  0
 22 46  1  0  0  0  0
 23 24  1  0  0  0  0
 24 47  1  0  0  0  0
 24 48  1  0  0  0  0
 24 49  1  0  0  0  0
M  CHG  1  12   1
M  END
> <s_m_source_file>
AV-unprocessed.smi

> <i_m_source_file_index>
2027

> <i_lp_mmshare_version>
43012

> <i_f3d_flags>
0

> <s_epik_input>
W0NIM11jKFtjSF0xKWMoW0NIM10pW2NIXWMoYzEyKW4oW2NIXW4yKVtDSDJdW0NASF0oW09IXSlbQ0gyXU4oW0NIM10pW0NIMl1jM1tjSF1ubihbQ0gzXSlbY0hdMw==

> <s_epik_cmdline>
J2VwaWtfcHl0aG9uJywgJy1waCcsICc3LjAnLCAnLXRuJywgJzgnLCAnLW1hJywgJzIwMCcsICctbWV0YWxfYmluZGluZycsICctaW1hZScsICc8aW5maWxlLm1hZT4nLCAnLW9tYWUnLCAnPG91dGZpbGUubWFlPic=

> <r_lp_tautomer_probability>
1

> <r_epik_Ionization_Penalty>
0.646578

> <r_epik_Ionization_Penalty_Charging>
0.559419

> <r_epik_Ionization_Penalty_Neutral>
0.087159

> <r_epik_State_Penalty>
0.661677

> <r_epik_Charging_Adjusted_Penalty>
1.2211

> <i_epik_Tot_Q>
1

> <i_epik_Tot_abs_Q>
1

> <r_epik_Metal_State_Penalty>
0.649174

> <b_epik_Metal_Only>
0

> <s_lp_Force_Field>
OPLS_2005

> <r_lp_Energy>
9.42611

> <b_lp_Chiralities_Consistent>
1

> <s_lp_Variant>
AV-unprocessed.smi:2027-4

> <Gold.Version>
5.8.1

> <Gold.Id.Protein>
6NUR|6NUR_protein|mol2

> <Gold.PLP.Fitness>
50.5288

> <Gold.PLP.PLP>
-44.2067

> <Gold.PLP.part.hbond>
-2.0000

> <Gold.PLP.part.metal>
0.0000

> <Gold.PLP.part.buried>
-4.3011

> <Gold.PLP.part.nonpolar>
-38.3748

> <Gold.PLP.part.repulsive>
0.1588

> <Gold.PLP.ligand.clash>
0.0000

> <Gold.PLP.ligand.torsion>
1.4834

> <Gold.PLP.Chemscore.Hbond>
2.0000

> <Gold.PLP.Chemscore.CHOScore>
1.0000

> <Gold.PLP.Chemscore.Metal>
0.0000

> <Gold.Chemscore.Hbonds>
donor molecule, donor type, donor heavy atom, donor atom, acceptor molecule, acceptor atom, score
      L1  H    10    33       P1  8028  1.00
      P1  H  7997  8008       L1     5  0.95
      L1  C    20    45       P1  7948  1.00

> <Gold.PLP.Chemscore.Internal.Correction>
0.2890

> <Gold.Rescore>
     Score         DG    S(hbond)    S(metal)    S(lipo)     H(rot)  DE(clash)    DE(int)     intcor
     15.71     -17.34       1.07        0.00     125.59       2.50       0.09       1.54       ----

> <Gold.Chemscore.Fitness>
15.7147

> <Gold.Chemscore.DG>
-17.3387

> <Gold.Chemscore.ZeroCoef>
-5.4800

> <Gold.Chemscore.Hbond>
1.0708

> <Gold.Chemscore.Metal>
0.0000

> <Gold.Chemscore.Lipo>
125.5935

> <Gold.Chemscore.Internal_Hbond>
0.0000

> <Gold.Chemscore.DEClash>
0.0862

> <Gold.Chemscore.DEInternal>
1.5377

> <Gold.Chemscore.Rot>
2.5047

> <Gold.Chemscore.Internal.Correction>
   9.000000E+99

> <Gold.Chemscore.Hbonds>
donor molecule, donor type, donor heavy atom, donor atom, acceptor molecule, acceptor atom, score
      L1  H    10    33       P1  8028  0.91
      P1  H  7997  8008       L1     5  0.06

> <Gold.Chemscore.Hbond.Weighted>
-3.5763

> <Gold.Chemscore.Metal.Weighted>
-0.0000

> <Gold.Chemscore.Lipo.Weighted>
-14.6944

> <Gold.Chemscore.Internal_Hbond.Weighted>
0.0000

> <Gold.Chemscore.DEClash.Weighted>
0.0862

> <Gold.Chemscore.DEInternal.Weighted>
1.5377

> <Gold.Chemscore.Rot.Weighted>
6.4120

> <Gold.Chemscore.Internal.Correction.Weighted>
   9.000000E+99

> <Gold.Protein.RotatedTorsions>
[ 6907 6896 6895 6894 ] final   51.97 input  -60.11 | X-H torsion
[ 7974 7965 7964 7962 ] final -116.08 input  175.53 | X-H torsion
[ 8008 7997 7996 7995 ] final  -75.68 input   59.86 | X-H torsion
[ 10167 10162 10161 10158 ] final  -79.26 input  -65.29 | X-H torsion
[ 10718 10713 10712 10709 ] final  152.65 input   66.30 | X-H torsion
[ 10763 10752 10751 10750 ] final -126.26 input  -60.55 | X-H torsion
[ 11005 11000 10999 10996 ] final  -84.09 input  -57.11 | X-H torsion

> <Gold.Protein.ActiveResidues>
 VAL166  LYS551  ARG553  GLY616  TRP617  ASP618  TYR619  PRO620  LYS621  CYS622 
 ASP623  PHE694  ASN695  SER759  ASP760  ASP761  ALA762  ILE779  LEU786  VAL792 
 PHE793  MET794  SER795  GLU796  ALA797  LYS798  CYS799  TRP800  GLU811  SER814 

> <Gold.Protein.RotatedAtoms>
  152.3183  134.7411  160.0319 H   0  0  0  0  0  0  0  0  0  0  0  0  # atno 6907 bound_to 6896
  151.7868  133.3350  159.3495 H   0  0  0  0  0  0  0  0  0  0  0  0  # atno 6908 bound_to 6896
  150.7356  134.5810  159.5983 H   0  0  0  0  0  0  0  0  0  0  0  0  # atno 6909 bound_to 6896
  145.1009  140.8551  143.3927 H   0  0  0  0  0  0  0  0  0  0  0  0  # atno 7974 bound_to 7965
  154.5438  140.0740  156.8554 H   0  0  0  0  0  0  0  0  0  0  0  0  # atno 8008 bound_to 7997
  155.3128  140.3391  155.4225 H   0  0  0  0  0  0  0  0  0  0  0  0  # atno 8009 bound_to 7997
  156.1899  140.1682  156.8098 H   0  0  0  0  0  0  0  0  0  0  0  0  # atno 8010 bound_to 7997
  140.4609  143.2454  151.8350 H   0  0  0  0  0  0  0  0  0  0  0  0  # atno 10167 bound_to 10162
  157.2550  131.0786  151.1704 H   0  0  0  0  0  0  0  0  0  0  0  0  # atno 10718 bound_to 10713
  154.8744  135.4001  154.3403 H   0  0  0  0  0  0  0  0  0  0  0  0  # atno 10763 bound_to 10752
  153.4203  135.7023  153.6304 H   0  0  0  0  0  0  0  0  0  0  0  0  # atno 10764 bound_to 10752
  153.4969  135.3736  155.2490 H   0  0  0  0  0  0  0  0  0  0  0  0  # atno 10765 bound_to 10752
  141.1653  133.7328  156.8816 H   0  0  0  0  0  0  0  0  0  0  0  0  # atno 11005 bound_to 11000
  145.0957  139.2858  143.5712 LP  0  0  0  0  0  0  0  0  0  0  0  0  # atno 17320 bound_to 7965
  146.3529  140.0508  142.8636 LP  0  0  0  0  0  0  0  0  0  0  0  0  # atno 17321 bound_to 7965
  139.4806  144.5009  151.9062 LP  0  0  0  0  0  0  0  0  0  0  0  0  # atno 17342 bound_to 10162
  140.4095  144.2388  150.5889 LP  0  0  0  0  0  0  0  0  0  0  0  0  # atno 17343 bound_to 10162
  157.3237  130.6950  149.6284 LP  0  0  0  0  0  0  0  0  0  0  0  0  # atno 17370 bound_to 10713
  155.9665  130.4328  150.4978 LP  0  0  0  0  0  0  0  0  0  0  0  0  # atno 17371 bound_to 10713
  140.1711  134.9099  157.2834 LP  0  0  0  0  0  0  0  0  0  0  0  0  # atno 17394 bound_to 11000
  140.2501  134.3693  155.7445 LP  0  0  0  0  0  0  0  0  0  0  0  0  # atno 17395 bound_to 11000

$$$$
