AV-unprocessed.smi:1702|AV-procd|sdf|6847|dock6
  -GOLD-   22720 8 23D 1   1.00000     0.00000
 Structure written by MMmdl.
 44 46  0  0  0  0  0  0  0  0  2 V2000
  144.7258  137.9267  154.4459 C   0  0  0  0  0  0  0  0  0  0  0  0
  145.7498  137.2230  153.5386 C   0  0  2  0  0  0  0  0  0  0  0  0
  146.9910  136.7360  154.3088 C   0  0  0  0  0  0  0  0  0  0  0  0
  147.9309  137.8931  154.6934 C   0  0  0  0  0  0  0  0  0  0  0  0
  148.3325  138.6778  153.4980 N   0  3  2  0  0  0  0  0  0  0  0  0
  149.3569  139.7069  153.8134 C   0  0  0  0  0  0  0  0  0  0  0  0
  149.1859  140.2952  155.2281 C   0  0  2  0  0  0  0  0  0  0  0  0
  147.8823  140.8346  155.3411 O   0  0  0  0  0  0  0  0  0  0  0  0
  150.2234  141.3968  155.5199 C   0  0  0  0  0  0  0  0  0  0  0  0
  151.1661  141.0129  156.5561 N   0  0  0  0  0  0  0  0  0  0  0  0
  151.9425  139.9123  156.5750 C   0  0  0  0  0  0  0  0  0  0  0  0
  152.7402  139.7469  157.6258 N   0  0  0  0  0  0  0  0  0  0  0  0
  152.4508  140.8730  158.3769 C   0  0  0  0  0  0  0  0  0  0  0  0
  152.9649  141.3019  159.6213 C   0  0  0  0  0  0  0  0  0  0  0  0
  152.5145  142.5042  160.2049 C   0  0  0  0  0  0  0  0  0  0  0  0
  153.0178  142.9009  161.3978 F   0  0  0  0  0  0  0  0  0  0  0  0
  151.5439  143.2944  159.5540 C   0  0  0  0  0  0  0  0  0  0  0  0
  151.1167  144.4475  160.1206 F   0  0  0  0  0  0  0  0  0  0  0  0
  151.0164  142.8871  158.3136 C   0  0  0  0  0  0  0  0  0  0  0  0
  151.4695  141.6872  157.7345 C   0  0  0  0  0  0  0  0  0  0  0  0
  147.1493  139.2238  152.7816 C   0  0  0  0  0  0  0  0  0  0  0  0
  146.1940  138.0963  152.3509 C   0  0  0  0  0  0  0  0  0  0  0  0
  145.1345  138.8232  154.9111 H   0  0  0  0  0  0  0  0  0  0  0  0
  144.3939  137.2638  155.2456 H   0  0  0  0  0  0  0  0  0  0  0  0
  143.8419  138.2228  153.8805 H   0  0  0  0  0  0  0  0  0  0  0  0
  145.2478  136.3443  153.1314 H   0  0  0  0  0  0  0  0  0  0  0  0
  146.6911  136.1844  155.2005 H   0  0  0  0  0  0  0  0  0  0  0  0
  147.5404  136.0275  153.6874 H   0  0  0  0  0  0  0  0  0  0  0  0
  147.4553  138.5504  155.4224 H   0  0  0  0  0  0  0  0  0  0  0  0
  148.8177  137.4800  155.1755 H   0  0  0  0  0  0  0  0  0  0  0  0
  150.3505  139.2717  153.6953 H   0  0  0  0  0  0  0  0  0  0  0  0
  149.2986  140.5241  153.0925 H   0  0  0  0  0  0  0  0  0  0  0  0
  149.2933  139.5134  155.9794 H   0  0  0  0  0  0  0  0  0  0  0  0
  147.9331  141.7745  155.2546 H   0  0  0  0  0  0  0  0  0  0  0  0
  150.7896  141.6281  154.6167 H   0  0  0  0  0  0  0  0  0  0  0  0
  149.7290  142.3213  155.8209 H   0  0  0  0  0  0  0  0  0  0  0  0
  151.9184  139.1899  155.7722 H   0  0  0  0  0  0  0  0  0  0  0  0
  153.7080  140.7053  160.1291 H   0  0  0  0  0  0  0  0  0  0  0  0
  150.2732  143.4913  157.8157 H   0  0  0  0  0  0  0  0  0  0  0  0
  146.6305  139.9388  153.4215 H   0  0  0  0  0  0  0  0  0  0  0  0
  147.4630  139.7734  151.8952 H   0  0  0  0  0  0  0  0  0  0  0  0
  146.6990  137.4682  151.6157 H   0  0  0  0  0  0  0  0  0  0  0  0
  145.3245  138.5146  151.8427 H   0  0  0  0  0  0  0  0  0  0  0  0
  148.7790  138.0224  152.8719 H   0  0  0  0  0  0  0  0  0  0  0  0
  1  2  1  0  0  0  0
  1 23  1  0  0  0  0
  1 24  1  0  0  0  0
  1 25  1  0  0  0  0
  2 22  1  0  0  0  0
  2  3  1  0  0  0  0
  2 26  1  0  0  0  0
  3  4  1  0  0  0  0
  3 27  1  0  0  0  0
  3 28  1  0  0  0  0
  4  5  1  0  0  0  0
  4 29  1  0  0  0  0
  4 30  1  0  0  0  0
  5  6  1  0  0  0  0
  5 21  1  0  0  0  0
  5 44  1  0  0  0  0
  6  7  1  0  0  0  0
  6 31  1  0  0  0  0
  6 32  1  0  0  0  0
  7  8  1  0  0  0  0
  7  9  1  0  0  0  0
  7 33  1  0  0  0  0
  8 34  1  0  0  0  0
  9 10  1  0  0  0  0
  9 35  1  0  0  0  0
  9 36  1  0  0  0  0
 10 20  1  0  0  0  0
 10 11  1  0  0  0  0
 11 12  2  0  0  0  0
 11 37  1  0  0  0  0
 12 13  1  0  0  0  0
 13 20  2  0  0  0  0
 13 14  1  0  0  0  0
 14 15  2  0  0  0  0
 14 38  1  0  0  0  0
 15 16  1  0  0  0  0
 15 17  1  0  0  0  0
 17 18  1  0  0  0  0
 17 19  2  0  0  0  0
 19 20  1  0  0  0  0
 19 39  1  0  0  0  0
 21 22  1  0  0  0  0
 21 40  1  0  0  0  0
 21 41  1  0  0  0  0
 22 42  1  0  0  0  0
 22 43  1  0  0  0  0
M  CHG  1   5   1
M  END
> <s_m_source_file>
AV-unprocessed.smi

> <i_m_source_file_index>
1702

> <i_lp_mmshare_version>
43012

> <i_f3d_flags>
0

> <s_epik_input>
W0NIM11bQ0hdMVtDSDJdW0NIMl1OKFtDSDJdW0NIMl0xKVtDSDJdW0NASF0oW09IXSlbQ0gyXW4oW2NIXW4yKWMoYzIzKVtjSF1jKEYpYyhGKVtjSF0z

> <s_epik_cmdline>
J2VwaWtfcHl0aG9uJywgJy1waCcsICc3LjAnLCAnLXRuJywgJzgnLCAnLW1hJywgJzIwMCcsICctbWV0YWxfYmluZGluZycsICctaW1hZScsICc8aW5maWxlLm1hZT4nLCAnLW9tYWUnLCAnPG91dGZpbGUubWFlPic=

> <r_epik_Ionization_Penalty>
0.0135195

> <r_epik_Ionization_Penalty_Charging>
0.00181365

> <r_epik_Ionization_Penalty_Neutral>
0.0117059

> <r_epik_State_Penalty>
0.00902283

> <r_epik_Charging_Adjusted_Penalty>
0.0108365

> <i_epik_Tot_Q>
1

> <i_epik_Tot_abs_Q>
1

> <r_epik_Metal_State_Penalty>
9.09181e-06

> <b_epik_Metal_Only>
0

> <s_lp_Force_Field>
OPLS_2005

> <r_lp_Energy>
24.0829

> <b_lp_Chiralities_Consistent>
1

> <s_lp_Variant>
AV-unprocessed.smi:1702-3

> <Gold.Version>
5.8.1

> <Gold.Id.Protein>
6NUR|6NUR_protein|mol2

> <Gold.PLP.Fitness>
46.6230

> <Gold.PLP.PLP>
-39.8434

> <Gold.PLP.part.hbond>
-3.0000

> <Gold.PLP.part.metal>
0.0000

> <Gold.PLP.part.buried>
0.4089

> <Gold.PLP.part.nonpolar>
-36.1730

> <Gold.PLP.part.repulsive>
0.0376

> <Gold.PLP.ligand.clash>
0.0000

> <Gold.PLP.ligand.torsion>
1.1416

> <Gold.PLP.Chemscore.Hbond>
3.0000

> <Gold.PLP.Chemscore.CHOScore>
0.0000

> <Gold.PLP.Chemscore.Metal>
0.0000

> <Gold.Chemscore.Hbonds>
donor molecule, donor type, donor heavy atom, donor atom, acceptor molecule, acceptor atom, score
      L1  H     5    44       P1  7948  1.95
      P1  H  7997  8010       L1    12  1.00

> <Gold.PLP.Chemscore.Internal.Correction>
0.0628

> <Gold.Rescore>
     Score         DG    S(hbond)    S(metal)    S(lipo)     H(rot)  DE(clash)    DE(int)     intcor
     12.61     -15.73       1.61        0.00      91.20       2.26       1.45       1.67       ----

> <Gold.Chemscore.Fitness>
12.6102

> <Gold.Chemscore.DG>
-15.7271

> <Gold.Chemscore.ZeroCoef>
-5.4800

> <Gold.Chemscore.Hbond>
1.6068

> <Gold.Chemscore.Metal>
0.0000

> <Gold.Chemscore.Lipo>
91.2030

> <Gold.Chemscore.Internal_Hbond>
0.0000

> <Gold.Chemscore.DEClash>
1.4485

> <Gold.Chemscore.DEInternal>
1.6684

> <Gold.Chemscore.Rot>
2.2619

> <Gold.Chemscore.Internal.Correction>
   9.000000E+99

> <Gold.Chemscore.Hbonds>
donor molecule, donor type, donor heavy atom, donor atom, acceptor molecule, acceptor atom, score
      L1  H     5    44       P1  7948  0.91
      P1  H  7997  8010       L1    12  0.25

> <Gold.Chemscore.Hbond.Weighted>
-5.3668

> <Gold.Chemscore.Metal.Weighted>
-0.0000

> <Gold.Chemscore.Lipo.Weighted>
-10.6707

> <Gold.Chemscore.Internal_Hbond.Weighted>
0.0000

> <Gold.Chemscore.DEClash.Weighted>
1.4485

> <Gold.Chemscore.DEInternal.Weighted>
1.6684

> <Gold.Chemscore.Rot.Weighted>
5.7904

> <Gold.Chemscore.Internal.Correction.Weighted>
   9.000000E+99

> <Gold.Protein.RotatedTorsions>
[ 6907 6896 6895 6894 ] final    5.52 input  -60.11 | X-H torsion
[ 7974 7965 7964 7962 ] final   57.02 input  175.53 | X-H torsion
[ 8008 7997 7996 7995 ] final   39.86 input   59.86 | X-H torsion
[ 10167 10162 10161 10158 ] final  -26.98 input  -65.29 | X-H torsion
[ 10718 10713 10712 10709 ] final   28.21 input   66.30 | X-H torsion
[ 10763 10752 10751 10750 ] final  -55.95 input  -60.55 | X-H torsion
[ 11005 11000 10999 10996 ] final   -4.47 input  -57.11 | X-H torsion

> <Gold.Protein.ActiveResidues>
 VAL166  LYS551  ARG553  GLY616  TRP617  ASP618  TYR619  PRO620  LYS621  CYS622 
 ASP623  PHE694  ASN695  SER759  ASP760  ASP761  ALA762  ILE779  LEU786  VAL792 
 PHE793  MET794  SER795  GLU796  ALA797  LYS798  CYS799  TRP800  GLU811  SER814 

> <Gold.Protein.RotatedAtoms>
  151.6589  135.0992  160.0175 H   0  0  0  0  0  0  0  0  0  0  0  0  # atno 6907 bound_to 6896
  152.3958  133.6741  159.6284 H   0  0  0  0  0  0  0  0  0  0  0  0  # atno 6908 bound_to 6896
  150.7866  133.8793  159.3322 H   0  0  0  0  0  0  0  0  0  0  0  0  # atno 6909 bound_to 6896
  145.9336  139.3828  143.0406 H   0  0  0  0  0  0  0  0  0  0  0  0  # atno 7974 bound_to 7965
  155.2436  140.3347  155.4289 H   0  0  0  0  0  0  0  0  0  0  0  0  # atno 8008 bound_to 7997
  156.2245  140.1823  156.7441 H   0  0  0  0  0  0  0  0  0  0  0  0  # atno 8009 bound_to 7997
  154.5877  140.0643  156.9180 H   0  0  0  0  0  0  0  0  0  0  0  0  # atno 8010 bound_to 7997
  140.7280  143.4132  151.1072 H   0  0  0  0  0  0  0  0  0  0  0  0  # atno 10167 bound_to 10162
  157.2304  130.7021  149.6311 H   0  0  0  0  0  0  0  0  0  0  0  0  # atno 10718 bound_to 10713
  154.1989  135.6414  153.5081 H   0  0  0  0  0  0  0  0  0  0  0  0  # atno 10763 bound_to 10752
  153.0016  135.5446  154.6336 H   0  0  0  0  0  0  0  0  0  0  0  0  # atno 10764 bound_to 10752
  154.5744  135.2919  155.0769 H   0  0  0  0  0  0  0  0  0  0  0  0  # atno 10765 bound_to 10752
  140.6806  133.9157  155.8553 H   0  0  0  0  0  0  0  0  0  0  0  0  # atno 11005 bound_to 11000
  145.8394  140.9589  143.0807 LP  0  0  0  0  0  0  0  0  0  0  0  0  # atno 17320 bound_to 7965
  144.6768  140.0264  143.7483 LP  0  0  0  0  0  0  0  0  0  0  0  0  # atno 17321 bound_to 7965
  139.7768  143.8414  152.3130 LP  0  0  0  0  0  0  0  0  0  0  0  0  # atno 17342 bound_to 10162
  139.8351  144.7236  150.9401 LP  0  0  0  0  0  0  0  0  0  0  0  0  # atno 17343 bound_to 10162
  155.9676  130.4490  150.5643 LP  0  0  0  0  0  0  0  0  0  0  0  0  # atno 17370 bound_to 10713
  157.3484  131.0729  151.1733 LP  0  0  0  0  0  0  0  0  0  0  0  0  # atno 17371 bound_to 10713
  141.0320  134.0742  157.4002 LP  0  0  0  0  0  0  0  0  0  0  0  0  # atno 17394 bound_to 11000
  139.8953  135.0140  156.6994 LP  0  0  0  0  0  0  0  0  0  0  0  0  # atno 17395 bound_to 11000

$$$$
