AV-unprocessed.smi:703|AV-procd|sdf|3433|dock5
  -GOLD-   22720 0423D 1   1.00000     0.00000
 Structure written by MMmdl.
 38 39  0  0  0  0  0  0  0  0  2 V2000
  143.8006  132.7027  148.1060 C   0  0  0  0  0  0  0  0  0  0  0  0
  143.9499  132.4251  149.6080 C   0  0  0  0  0  0  0  0  0  0  0  0
  143.6227  133.6118  150.4335 N   0  3  2  0  0  0  0  0  0  0  0  0
  144.5224  134.7708  150.2436 C   0  0  0  0  0  0  0  0  0  0  0  0
  144.4718  135.5398  151.5628 C   0  0  2  0  0  0  0  0  0  0  0  0
  145.6048  136.5598  151.7641 C   0  0  0  0  0  0  0  0  0  0  0  0
  144.3585  134.4229  152.6078 C   0  0  2  0  0  0  0  0  0  0  0  0
  145.6794  133.9036  152.9843 N   0  0  0  0  0  0  0  0  0  0  0  0
  146.5139  134.4303  154.4004 S   0  0  0  0  0  0  0  0  0  0  0  0
  146.6087  135.8975  154.3473 O   0  0  0  0  0  0  0  0  0  0  0  0
  145.8648  133.7674  155.5413 O   0  0  0  0  0  0  0  0  0  0  0  0
  148.1921  133.6823  154.1882 C   0  0  0  0  0  0  0  0  0  0  0  0
  149.0982  134.0377  155.3343 C   0  0  0  0  0  0  0  0  0  0  0  0
  150.2925  134.8099  155.3052 C   0  0  0  0  0  0  0  0  0  0  0  0
  150.7070  134.8073  156.6059 C   0  0  0  0  0  0  0  0  0  0  0  0
  149.8510  134.0895  157.3754 O   0  0  0  0  0  0  0  0  0  0  0  0
  148.8319  133.5954  156.5533 N   0  0  0  0  0  0  0  0  0  0  0  0
  143.5413  133.3350  151.8886 C   0  0  0  0  0  0  0  0  0  0  0  0
  143.9862  131.7975  147.5275 H   0  0  0  0  0  0  0  0  0  0  0  0
  144.5068  133.4594  147.7636 H   0  0  0  0  0  0  0  0  0  0  0  0
  142.7944  133.0472  147.8664 H   0  0  0  0  0  0  0  0  0  0  0  0
  143.2736  131.6138  149.8807 H   0  0  0  0  0  0  0  0  0  0  0  0
  144.9604  132.0813  149.8341 H   0  0  0  0  0  0  0  0  0  0  0  0
  145.5403  134.4241  150.0564 H   0  0  0  0  0  0  0  0  0  0  0  0
  144.2142  135.3817  149.3946 H   0  0  0  0  0  0  0  0  0  0  0  0
  143.5299  136.0912  151.5815 H   0  0  0  0  0  0  0  0  0  0  0  0
  146.5891  136.0954  151.6992 H   0  0  0  0  0  0  0  0  0  0  0  0
  145.5265  137.0443  152.7370 H   0  0  0  0  0  0  0  0  0  0  0  0
  145.5618  137.3396  151.0035 H   0  0  0  0  0  0  0  0  0  0  0  0
  143.8474  134.7722  153.5049 H   0  0  0  0  0  0  0  0  0  0  0  0
  145.9789  133.0161  152.5812 H   0  0  0  0  0  0  0  0  0  0  0  0
  148.0671  132.6008  154.1275 H   0  0  0  0  0  0  0  0  0  0  0  0
  148.6021  134.0145  153.2347 H   0  0  0  0  0  0  0  0  0  0  0  0
  150.7701  135.2897  154.4644 H   0  0  0  0  0  0  0  0  0  0  0  0
  151.5512  135.2453  157.1175 H   0  0  0  0  0  0  0  0  0  0  0  0
  142.4932  133.3925  152.1837 H   0  0  0  0  0  0  0  0  0  0  0  0
  143.8864  132.3299  152.1377 H   0  0  0  0  0  0  0  0  0  0  0  0
  142.6990  133.9174  150.1624 H   0  0  0  0  0  0  0  0  0  0  0  0
  1  2  1  0  0  0  0
  1 19  1  0  0  0  0
  1 20  1  0  0  0  0
  1 21  1  0  0  0  0
  2  3  1  0  0  0  0
  2 22  1  0  0  0  0
  2 23  1  0  0  0  0
  3 18  1  0  0  0  0
  3  4  1  0  0  0  0
  3 38  1  0  0  0  0
  4  5  1  0  0  0  0
  4 24  1  0  0  0  0
  4 25  1  0  0  0  0
  5  6  1  0  0  0  0
  5  7  1  0  0  0  0
  5 26  1  0  0  0  0
  6 27  1  0  0  0  0
  6 28  1  0  0  0  0
  6 29  1  0  0  0  0
  7  8  1  0  0  0  0
  7 18  1  0  0  0  0
  7 30  1  0  0  0  0
  8  9  1  0  0  0  0
  8 31  1  0  0  0  0
  9 10  2  0  0  0  0
  9 11  2  0  0  0  0
  9 12  1  0  0  0  0
 12 13  1  0  0  0  0
 12 32  1  0  0  0  0
 12 33  1  0  0  0  0
 13 17  2  0  0  0  0
 13 14  1  0  0  0  0
 14 15  2  0  0  0  0
 14 34  1  0  0  0  0
 15 16  1  0  0  0  0
 15 35  1  0  0  0  0
 16 17  1  0  0  0  0
 18 36  1  0  0  0  0
 18 37  1  0  0  0  0
M  CHG  1   3   1
M  END
> <s_m_source_file>
AV-unprocessed.smi

> <i_m_source_file_index>
703

> <i_lp_mmshare_version>
43012

> <i_f3d_flags>
0

> <s_epik_input>
W0NIM11bQ0gyXU4xW0NIMl1bQ0BASF0oW0NIM10pW0NASF0oW0NIMl0xKVtOSF1TKD1PKSg9TylbQ0gyXWMyW2NIXVtjSF1vbjI=

> <s_epik_cmdline>
J2VwaWtfcHl0aG9uJywgJy1waCcsICc3LjAnLCAnLXRuJywgJzgnLCAnLW1hJywgJzIwMCcsICctbWV0YWxfYmluZGluZycsICctaW1hZScsICc8aW5maWxlLm1hZT4nLCAnLW9tYWUnLCAnPG91dGZpbGUubWFlPic=

> <r_epik_Ionization_Penalty>
0.00324529

> <r_epik_Ionization_Penalty_Charging>
0.0019384

> <r_epik_Ionization_Penalty_Neutral>
0.00130689

> <r_epik_State_Penalty>
0.00218682

> <r_epik_Charging_Adjusted_Penalty>
0.00412522

> <i_epik_Tot_Q>
1

> <i_epik_Tot_abs_Q>
1

> <r_epik_Metal_State_Penalty>
0.310831

> <b_epik_Metal_Only>
0

> <s_lp_Force_Field>
OPLS_2005

> <r_lp_Energy>
18.8873

> <b_lp_Chiralities_Consistent>
1

> <s_lp_Variant>
AV-unprocessed.smi:703-8

> <Gold.Version>
5.8.1

> <Gold.Id.Protein>
6NUR|6NUR_protein|mol2

> <Gold.PLP.Fitness>
35.1384

> <Gold.PLP.PLP>
-27.6531

> <Gold.PLP.part.hbond>
-2.0000

> <Gold.PLP.part.metal>
0.0000

> <Gold.PLP.part.buried>
-1.5238

> <Gold.PLP.part.nonpolar>
-23.7903

> <Gold.PLP.part.repulsive>
0.1554

> <Gold.PLP.ligand.clash>
0.0000

> <Gold.PLP.ligand.torsion>
1.0487

> <Gold.PLP.Chemscore.Hbond>
2.8125

> <Gold.PLP.Chemscore.CHOScore>
0.0000

> <Gold.PLP.Chemscore.Metal>
0.0000

> <Gold.Chemscore.Hbonds>
donor molecule, donor type, donor heavy atom, donor atom, acceptor molecule, acceptor atom, score
      L1  H     3    38       P1 10186  2.00
      P1  H  6896  6907       L1    16  0.81

> <Gold.PLP.Chemscore.Internal.Correction>
1.1453

> <Gold.Rescore>
     Score         DG    S(hbond)    S(metal)    S(lipo)     H(rot)  DE(clash)    DE(int)     intcor
     12.82     -15.13       1.71        0.00      70.42       1.68       0.00       2.31       ----

> <Gold.Chemscore.Fitness>
12.8222

> <Gold.Chemscore.DG>
-15.1336

> <Gold.Chemscore.ZeroCoef>
-5.4800

> <Gold.Chemscore.Hbond>
1.7088

> <Gold.Chemscore.Metal>
0.0000

> <Gold.Chemscore.Lipo>
70.4218

> <Gold.Chemscore.Internal_Hbond>
0.0000

> <Gold.Chemscore.DEClash>
0.0009

> <Gold.Chemscore.DEInternal>
2.3105

> <Gold.Chemscore.Rot>
1.6770

> <Gold.Chemscore.Internal.Correction>
   9.000000E+99

> <Gold.Chemscore.Hbonds>
donor molecule, donor type, donor heavy atom, donor atom, acceptor molecule, acceptor atom, score
      L1  H     3    38       P1 10186  0.99
      P1  H  6896  6907       L1    16  0.41

> <Gold.Chemscore.Hbond.Weighted>
-5.7075

> <Gold.Chemscore.Metal.Weighted>
-0.0000

> <Gold.Chemscore.Lipo.Weighted>
-8.2394

> <Gold.Chemscore.Internal_Hbond.Weighted>
0.0000

> <Gold.Chemscore.DEClash.Weighted>
0.0009

> <Gold.Chemscore.DEInternal.Weighted>
2.3105

> <Gold.Chemscore.Rot.Weighted>
4.2932

> <Gold.Chemscore.Internal.Correction.Weighted>
   9.000000E+99

> <Gold.Protein.RotatedTorsions>
[ 6907 6896 6895 6894 ] final -107.10 input  -60.11 | X-H torsion
[ 7974 7965 7964 7962 ] final   -5.82 input  175.53 | X-H torsion
[ 8008 7997 7996 7995 ] final  -12.69 input   59.86 | X-H torsion
[ 10167 10162 10161 10158 ] final   31.26 input  -65.29 | X-H torsion
[ 10718 10713 10712 10709 ] final  110.89 input   66.30 | X-H torsion
[ 10763 10752 10751 10750 ] final  -43.78 input  -60.55 | X-H torsion
[ 11005 11000 10999 10996 ] final  -36.30 input  -57.11 | X-H torsion

> <Gold.Protein.ActiveResidues>
 VAL166  LYS551  ARG553  GLY616  TRP617  ASP618  TYR619  PRO620  LYS621  CYS622 
 ASP623  PHE694  ASN695  SER759  ASP760  ASP761  ALA762  ILE779  LEU786  VAL792 
 PHE793  MET794  SER795  GLU796  ALA797  LYS798  CYS799  TRP800  GLU811  SER814 

> <Gold.Protein.RotatedAtoms>
  150.7425  133.9877  159.3596 H   0  0  0  0  0  0  0  0  0  0  0  0  # atno 6907 bound_to 6896
  151.7823  135.0756  160.0385 H   0  0  0  0  0  0  0  0  0  0  0  0  # atno 6908 bound_to 6896
  152.3265  133.5874  159.5816 H   0  0  0  0  0  0  0  0  0  0  0  0  # atno 6909 bound_to 6896
  146.2345  140.2078  142.8335 H   0  0  0  0  0  0  0  0  0  0  0  0  # atno 7974 bound_to 7965
  154.5355  140.2269  155.8730 H   0  0  0  0  0  0  0  0  0  0  0  0  # atno 8008 bound_to 7997
  156.1807  140.3101  155.9106 H   0  0  0  0  0  0  0  0  0  0  0  0  # atno 8009 bound_to 7997
  155.3363  140.0448  157.3034 H   0  0  0  0  0  0  0  0  0  0  0  0  # atno 8010 bound_to 7997
  140.4605  144.0914  150.6211 H   0  0  0  0  0  0  0  0  0  0  0  0  # atno 10167 bound_to 10162
  157.6472  131.0941  150.6668 H   0  0  0  0  0  0  0  0  0  0  0  0  # atno 10718 bound_to 10713
  154.0013  135.6693  153.4759 H   0  0  0  0  0  0  0  0  0  0  0  0  # atno 10763 bound_to 10752
  153.0661  135.5000  154.8199 H   0  0  0  0  0  0  0  0  0  0  0  0  # atno 10764 bound_to 10752
  154.7051  135.3086  154.9246 H   0  0  0  0  0  0  0  0  0  0  0  0  # atno 10765 bound_to 10752
  140.9864  133.7028  156.1772 H   0  0  0  0  0  0  0  0  0  0  0  0  # atno 11005 bound_to 11000
  144.9731  140.8388  143.5443 LP  0  0  0  0  0  0  0  0  0  0  0  0  # atno 17320 bound_to 7965
  145.2062  139.2227  143.5167 LP  0  0  0  0  0  0  0  0  0  0  0  0  # atno 17321 bound_to 7965
  140.4100  143.2662  151.9845 LP  0  0  0  0  0  0  0  0  0  0  0  0  # atno 17342 bound_to 10162
  139.4806  144.5924  151.7749 LP  0  0  0  0  0  0  0  0  0  0  0  0  # atno 17343 bound_to 10162
  156.6984  130.4616  149.5580 LP  0  0  0  0  0  0  0  0  0  0  0  0  # atno 17370 bound_to 10713
  156.1812  130.6500  151.0954 LP  0  0  0  0  0  0  0  0  0  0  0  0  # atno 17371 bound_to 10713
  140.7108  134.4463  157.5581 LP  0  0  0  0  0  0  0  0  0  0  0  0  # atno 17394 bound_to 11000
  139.8972  134.8641  156.2053 LP  0  0  0  0  0  0  0  0  0  0  0  0  # atno 17395 bound_to 11000

$$$$
