AV-unprocessed.smi:2146|AV-procd|sdf|8741|dock4
  -GOLD-   2272011513D 1   1.00000     0.00000
 Structure written by MMmdl.
 45 46  0  0  0  0  0  0  0  0  2 V2000
  149.9030  135.0519  154.9866 C   0  0  0  0  0  0  0  0  0  0  0  0
  148.9007  133.9309  154.6248 C   0  0  1  0  0  0  0  0  0  0  0  0
  148.3204  133.2890  155.9187 C   0  0  0  0  0  0  0  0  0  0  0  0
  148.0122  134.2673  156.9587 N   0  0  0  0  0  0  0  0  0  0  0  0
  148.8753  134.6968  157.8918 C   0  0  0  0  0  0  0  0  0  0  0  0
  150.0326  134.2833  157.9754 O   0  0  0  0  0  0  0  0  0  0  0  0
  148.3366  135.7478  158.8728 C   0  0  0  0  0  0  0  0  0  0  0  0
  147.9921  135.1890  160.1907 N   0  0  0  0  0  0  0  0  0  0  0  0
  147.5160  133.8637  160.2111 C   0  0  0  0  0  0  0  0  0  0  0  0
  147.1712  133.2251  161.3452 C   0  0  0  0  0  0  0  0  0  0  0  0
  146.6029  131.8148  161.3211 C   0  0  0  0  0  0  0  0  0  0  0  0
  146.5913  131.3185  160.0839 F   0  0  0  0  0  0  0  0  0  0  0  0
  147.3209  130.9985  162.0934 F   0  0  0  0  0  0  0  0  0  0  0  0
  145.3518  131.8225  161.7791 F   0  0  0  0  0  0  0  0  0  0  0  0
  147.2882  133.9853  162.5743 C   0  0  0  0  0  0  0  0  0  0  0  0
  147.7261  135.2597  162.5707 C   0  0  0  0  0  0  0  0  0  0  0  0
  148.1060  135.9372  161.3288 C   0  0  0  0  0  0  0  0  0  0  0  0
  148.4994  137.1037  161.3127 O   0  0  0  0  0  0  0  0  0  0  0  0
  147.8514  134.4527  153.6877 N   0  3  0  0  0  0  0  0  0  0  0  0
  147.1253  133.3632  152.9777 C   0  0  0  0  0  0  0  0  0  0  0  0
  146.1113  133.9312  151.9717 C   0  0  0  0  0  0  0  0  0  0  0  0
  145.1926  134.7729  152.6508 O   0  0  0  0  0  0  0  0  0  0  0  0
  145.8487  135.8828  153.2442 C   0  0  0  0  0  0  0  0  0  0  0  0
  146.8670  135.3946  154.2896 C   0  0  0  0  0  0  0  0  0  0  0  0
  150.6874  134.6967  155.6546 H   0  0  0  0  0  0  0  0  0  0  0  0
  149.4005  135.8816  155.4838 H   0  0  0  0  0  0  0  0  0  0  0  0
  150.4195  135.4507  154.1156 H   0  0  0  0  0  0  0  0  0  0  0  0
  149.4441  133.1483  154.0927 H   0  0  0  0  0  0  0  0  0  0  0  0
  147.4036  132.7451  155.6883 H   0  0  0  0  0  0  0  0  0  0  0  0
  149.0138  132.5691  156.3549 H   0  0  0  0  0  0  0  0  0  0  0  0
  147.0776  134.6506  156.9644 H   0  0  0  0  0  0  0  0  0  0  0  0
  149.0816  136.5362  158.9950 H   0  0  0  0  0  0  0  0  0  0  0  0
  147.4764  136.2401  158.4165 H   0  0  0  0  0  0  0  0  0  0  0  0
  147.4381  133.4004  159.2379 H   0  0  0  0  0  0  0  0  0  0  0  0
  147.0237  133.5260  163.5154 H   0  0  0  0  0  0  0  0  0  0  0  0
  147.8013  135.7958  163.5054 H   0  0  0  0  0  0  0  0  0  0  0  0
  147.8140  132.7172  152.4369 H   0  0  0  0  0  0  0  0  0  0  0  0
  146.6081  132.7354  153.7051 H   0  0  0  0  0  0  0  0  0  0  0  0
  146.6153  134.4813  151.1752 H   0  0  0  0  0  0  0  0  0  0  0  0
  145.5591  133.1196  151.4977 H   0  0  0  0  0  0  0  0  0  0  0  0
  146.3373  136.4851  152.4764 H   0  0  0  0  0  0  0  0  0  0  0  0
  145.1020  136.5200  153.7184 H   0  0  0  0  0  0  0  0  0  0  0  0
  146.3506  134.9057  155.1176 H   0  0  0  0  0  0  0  0  0  0  0  0
  147.3665  136.2771  154.6874 H   0  0  0  0  0  0  0  0  0  0  0  0
  148.3422  134.9844  152.9830 H   0  0  0  0  0  0  0  0  0  0  0  0
  1  2  1  0  0  0  0
  1 25  1  0  0  0  0
  1 26  1  0  0  0  0
  1 27  1  0  0  0  0
  2  3  1  0  0  0  0
  2 19  1  0  0  0  0
  2 28  1  0  0  0  0
  3  4  1  0  0  0  0
  3 29  1  0  0  0  0
  3 30  1  0  0  0  0
  4  5  1  0  0  0  0
  4 31  1  0  0  0  0
  5  6  2  0  0  0  0
  5  7  1  0  0  0  0
  7  8  1  0  0  0  0
  7 32  1  0  0  0  0
  7 33  1  0  0  0  0
  8 17  1  0  0  0  0
  8  9  1  0  0  0  0
  9 10  2  0  0  0  0
  9 34  1  0  0  0  0
 10 11  1  0  0  0  0
 10 15  1  0  0  0  0
 11 12  1  0  0  0  0
 11 13  1  0  0  0  0
 11 14  1  0  0  0  0
 15 16  2  0  0  0  0
 15 35  1  0  0  0  0
 16 17  1  0  0  0  0
 16 36  1  0  0  0  0
 17 18  2  0  0  0  0
 19 24  1  0  0  0  0
 19 20  1  0  0  0  0
 19 45  1  0  0  0  0
 20 21  1  0  0  0  0
 20 37  1  0  0  0  0
 20 38  1  0  0  0  0
 21 22  1  0  0  0  0
 21 39  1  0  0  0  0
 21 40  1  0  0  0  0
 22 23  1  0  0  0  0
 23 24  1  0  0  0  0
 23 41  1  0  0  0  0
 23 42  1  0  0  0  0
 24 43  1  0  0  0  0
 24 44  1  0  0  0  0
M  CHG  1  19   1
M  END
> <s_m_source_file>
AV-unprocessed.smi

> <i_m_source_file_index>
2146

> <i_lp_mmshare_version>
43012

> <i_f3d_flags>
0

> <s_epik_input>
W0NIMl0xW0NIMl1PW0NIMl1bQ0gyXU4xW0NASF0oW0NIM10pW0NIMl1bTkhdQyg9TylbQ0gyXW4yW2NIXWMoQyhGKShGKUYpW2NIXVtjSF1jMj1P

> <s_epik_cmdline>
J2VwaWtfcHl0aG9uJywgJy1waCcsICc3LjAnLCAnLXRuJywgJzgnLCAnLW1hJywgJzIwMCcsICctbWV0YWxfYmluZGluZycsICctaW1hZScsICc8aW5maWxlLm1hZT4nLCAnLW9tYWUnLCAnPG91dGZpbGUubWFlPic=

> <r_lp_tautomer_probability>
1

> <r_epik_Ionization_Penalty>
0.656654

> <r_epik_Ionization_Penalty_Charging>
0.656653

> <r_epik_Ionization_Penalty_Neutral>
9.12373e-08

> <r_epik_State_Penalty>
0.675641

> <r_epik_Charging_Adjusted_Penalty>
1.33229

> <i_epik_Tot_Q>
1

> <i_epik_Tot_abs_Q>
1

> <r_epik_Metal_State_Penalty>
0.675692

> <b_epik_Metal_Only>
0

> <s_lp_Force_Field>
OPLS_2005

> <r_lp_Energy>
32.7302

> <b_lp_Chiralities_Consistent>
1

> <s_lp_Variant>
AV-unprocessed.smi:2146-4

> <Gold.Version>
5.8.1

> <Gold.Id.Protein>
6NUR|6NUR_protein|mol2

> <Gold.PLP.Fitness>
48.3359

> <Gold.PLP.PLP>
-38.2219

> <Gold.PLP.part.hbond>
-4.0000

> <Gold.PLP.part.metal>
0.0000

> <Gold.PLP.part.buried>
-2.9778

> <Gold.PLP.part.nonpolar>
-31.9967

> <Gold.PLP.part.repulsive>
0.1233

> <Gold.PLP.ligand.clash>
1.4092

> <Gold.PLP.ligand.torsion>
1.1967

> <Gold.PLP.Chemscore.Hbond>
4.5843

> <Gold.PLP.Chemscore.CHOScore>
0.0000

> <Gold.PLP.Chemscore.Metal>
0.0000

> <Gold.Chemscore.Hbonds>
donor molecule, donor type, donor heavy atom, donor atom, acceptor molecule, acceptor atom, score
      L1  H    19    45       P1  7948  2.00
      P1  H  6896  6908       L1     6  0.94
      P1  H  6931  6943       L1    18  0.67
      P1  H  6934  6947       L1    18  0.10

> <Gold.PLP.Chemscore.Internal.Correction>
0.1638

> <Gold.Rescore>
     Score         DG    S(hbond)    S(metal)    S(lipo)     H(rot)  DE(clash)    DE(int)     intcor
     18.76     -19.30       3.58        0.00      63.63       2.18       0.04       0.50       ----

> <Gold.Chemscore.Fitness>
18.7556

> <Gold.Chemscore.DG>
-19.2968

> <Gold.Chemscore.ZeroCoef>
-5.4800

> <Gold.Chemscore.Hbond>
3.5792

> <Gold.Chemscore.Metal>
0.0000

> <Gold.Chemscore.Lipo>
63.6271

> <Gold.Chemscore.Internal_Hbond>
0.0000

> <Gold.Chemscore.DEClash>
0.0406

> <Gold.Chemscore.DEInternal>
0.5006

> <Gold.Chemscore.Rot>
2.1805

> <Gold.Chemscore.Internal.Correction>
   9.000000E+99

> <Gold.Chemscore.Hbonds>
donor molecule, donor type, donor heavy atom, donor atom, acceptor molecule, acceptor atom, score
      L1  H    19    45       P1  7948  0.78
      P1  H  6896  6908       L1     6  0.83
      P1  H  6931  6943       L1    18  0.66
      P1  H  6934  6947       L1    18  0.12

> <Gold.Chemscore.Hbond.Weighted>
-11.9546

> <Gold.Chemscore.Metal.Weighted>
-0.0000

> <Gold.Chemscore.Lipo.Weighted>
-7.4444

> <Gold.Chemscore.Internal_Hbond.Weighted>
0.0000

> <Gold.Chemscore.DEClash.Weighted>
0.0406

> <Gold.Chemscore.DEInternal.Weighted>
0.5006

> <Gold.Chemscore.Rot.Weighted>
5.5822

> <Gold.Chemscore.Internal.Correction.Weighted>
   9.000000E+99

> <Gold.Protein.RotatedTorsions>
[ 6907 6896 6895 6894 ] final  143.49 input  -60.11 | X-H torsion
[ 7974 7965 7964 7962 ] final  156.38 input  175.53 | X-H torsion
[ 8008 7997 7996 7995 ] final  148.78 input   59.86 | X-H torsion
[ 10167 10162 10161 10158 ] final -176.35 input  -65.29 | X-H torsion
[ 10718 10713 10712 10709 ] final -164.08 input   66.30 | X-H torsion
[ 10763 10752 10751 10750 ] final -105.35 input  -60.55 | X-H torsion
[ 11005 11000 10999 10996 ] final    8.57 input  -57.11 | X-H torsion

> <Gold.Protein.ActiveResidues>
 VAL166  LYS551  ARG553  GLY616  TRP617  ASP618  TYR619  PRO620  LYS621  CYS622 
 ASP623  PHE694  ASN695  SER759  ASP760  ASP761  ALA762  ILE779  LEU786  VAL792 
 PHE793  MET794  SER795  GLU796  ALA797  LYS798  CYS799  TRP800  GLU811  SER814 

> <Gold.Protein.RotatedAtoms>
  152.2056  133.4873  159.5081 H   0  0  0  0  0  0  0  0  0  0  0  0  # atno 6907 bound_to 6896
  150.6979  134.1534  159.4158 H   0  0  0  0  0  0  0  0  0  0  0  0  # atno 6908 bound_to 6896
  151.9452  135.0195  160.0589 H   0  0  0  0  0  0  0  0  0  0  0  0  # atno 6909 bound_to 6896
  144.7966  139.7196  143.6199 H   0  0  0  0  0  0  0  0  0  0  0  0  # atno 7974 bound_to 7965
  156.2779  140.2119  156.5753 H   0  0  0  0  0  0  0  0  0  0  0  0  # atno 8008 bound_to 7997
  154.7102  140.0513  157.0566 H   0  0  0  0  0  0  0  0  0  0  0  0  # atno 8009 bound_to 7997
  155.0616  140.3167  155.4662 H   0  0  0  0  0  0  0  0  0  0  0  0  # atno 8010 bound_to 7997
  139.5534  144.2051  152.1117 H   0  0  0  0  0  0  0  0  0  0  0  0  # atno 10167 bound_to 10162
  156.6339  130.8941  151.2983 H   0  0  0  0  0  0  0  0  0  0  0  0  # atno 10718 bound_to 10713
  154.7941  135.4752  154.0119 H   0  0  0  0  0  0  0  0  0  0  0  0  # atno 10763 bound_to 10752
  153.1675  135.6819  153.8661 H   0  0  0  0  0  0  0  0  0  0  0  0  # atno 10764 bound_to 10752
  153.8254  135.3198  155.3392 H   0  0  0  0  0  0  0  0  0  0  0  0  # atno 10765 bound_to 10752
  140.5355  134.0425  155.7887 H   0  0  0  0  0  0  0  0  0  0  0  0  # atno 11005 bound_to 11000
  146.2236  139.5682  142.9602 LP  0  0  0  0  0  0  0  0  0  0  0  0  # atno 17320 bound_to 7965
  145.5657  141.0399  143.2202 LP  0  0  0  0  0  0  0  0  0  0  0  0  # atno 17321 bound_to 7965
  140.1551  144.5078  150.6665 LP  0  0  0  0  0  0  0  0  0  0  0  0  # atno 17342 bound_to 10162
  140.6802  143.2323  151.5405 LP  0  0  0  0  0  0  0  0  0  0  0  0  # atno 17343 bound_to 10162
  157.7192  130.9536  150.1370 LP  0  0  0  0  0  0  0  0  0  0  0  0  # atno 17370 bound_to 10713
  156.2213  130.3674  149.8553 LP  0  0  0  0  0  0  0  0  0  0  0  0  # atno 17371 bound_to 10713
  141.1257  133.9386  157.2639 LP  0  0  0  0  0  0  0  0  0  0  0  0  # atno 17394 bound_to 11000
  139.9532  135.0171  156.9053 LP  0  0  0  0  0  0  0  0  0  0  0  0  # atno 17395 bound_to 11000

$$$$
