AV-unprocessed.smi:2425|AV-procd|sdf|9575|dock6
  -GOLD-   2272013203D 1   1.00000     0.00000
 Structure written by MMmdl.
 35 36  0  0  0  0  0  0  0  0  3 V2000
  151.1674  145.0945  158.3546 C   0  0  0  0  0  0  0  0  0  0  0  0
  152.5422  144.5585  158.7806 C   0  0  0  0  0  0  0  0  0  0  0  0
  152.4950  143.1635  159.4222 C   0  0  0  0  0  0  0  0  0  0  0  0
  152.2246  142.1339  158.4068 N   0  0  0  0  0  0  0  0  0  0  0  0
  151.0765  141.9382  157.7386 C   0  0  0  0  0  0  0  0  0  0  0  0
  150.0628  142.6153  157.9087 O   0  0  0  0  0  0  0  0  0  0  0  0
  151.1864  140.9053  156.8857 N   0  0  0  0  0  0  0  0  0  0  0  0
  150.1964  140.3553  156.0213 C   0  0  0  0  0  0  0  0  0  0  0  0
  149.0033  141.0513  155.7067 C   0  0  0  0  0  0  0  0  0  0  0  0
  148.0917  140.4723  154.8044 C   0  0  0  0  0  0  0  0  0  0  0  0
  148.2982  139.2840  154.2040 N   0  0  0  0  0  0  0  0  0  0  0  0
  149.4410  138.6268  154.4896 C   0  0  0  0  0  0  0  0  0  0  0  0
  150.4255  139.1039  155.3852 C   0  0  0  0  0  0  0  0  0  0  0  0
  151.6369  138.2951  155.6194 N   0  3  0  0  0  0  0  0  0  0  0  0
  151.7042  137.1756  155.1222 O   0  0  0  0  0  0  0  0  0  0  0  0
  152.5342  138.7991  156.2866 O   0  5  0  0  0  0  0  0  0  0  0  0
  153.6980  142.7158  160.2775 C   0  0  0  0  0  0  0  0  0  0  0  0
  152.7322  142.0423  161.2556 C   0  0  0  0  0  0  0  0  0  0  0  0
  151.6344  142.9454  160.6884 C   0  0  0  0  0  0  0  0  0  0  0  0
  151.2656  146.0680  157.8742 H   0  0  0  0  0  0  0  0  0  0  0  0
  150.5020  145.2165  159.2093 H   0  0  0  0  0  0  0  0  0  0  0  0
  150.6839  144.4226  157.6451 H   0  0  0  0  0  0  0  0  0  0  0  0
  153.1851  144.5311  157.9002 H   0  0  0  0  0  0  0  0  0  0  0  0
  153.0115  145.2756  159.4541 H   0  0  0  0  0  0  0  0  0  0  0  0
  152.9927  141.5142  158.1949 H   0  0  0  0  0  0  0  0  0  0  0  0
  152.0543  140.3910  156.9294 H   0  0  0  0  0  0  0  0  0  0  0  0
  148.7788  142.0215  156.1223 H   0  0  0  0  0  0  0  0  0  0  0  0
  147.1762  140.9850  154.5489 H   0  0  0  0  0  0  0  0  0  0  0  0
  149.5687  137.6793  153.9872 H   0  0  0  0  0  0  0  0  0  0  0  0
  154.3962  142.0370  159.7860 H   0  0  0  0  0  0  0  0  0  0  0  0
  154.2244  143.5566  160.7326 H   0  0  0  0  0  0  0  0  0  0  0  0
  152.5697  140.9864  161.0338 H   0  0  0  0  0  0  0  0  0  0  0  0
  152.9597  142.2069  162.3092 H   0  0  0  0  0  0  0  0  0  0  0  0
  151.5120  143.8588  161.2729 H   0  0  0  0  0  0  0  0  0  0  0  0
  150.6751  142.4486  160.5411 H   0  0  0  0  0  0  0  0  0  0  0  0
  1  2  1  0  0  0  0
  1 20  1  0  0  0  0
  1 21  1  0  0  0  0
  1 22  1  0  0  0  0
  2  3  1  0  0  0  0
  2 23  1  0  0  0  0
  2 24  1  0  0  0  0
  3 19  1  0  0  0  0
  3  4  1  0  0  0  0
  3 17  1  0  0  0  0
  4  5  1  0  0  0  0
  4 25  1  0  0  0  0
  5  6  2  0  0  0  0
  5  7  1  0  0  0  0
  7  8  1  0  0  0  0
  7 26  1  0  0  0  0
  8 13  1  0  0  0  0
  8  9  2  0  0  0  0
  9 10  1  0  0  0  0
  9 27  1  0  0  0  0
 10 11  2  0  0  0  0
 10 28  1  0  0  0  0
 11 12  1  0  0  0  0
 12 13  2  0  0  0  0
 12 29  1  0  0  0  0
 13 14  1  0  0  0  0
 14 15  2  0  0  0  0
 14 16  1  0  0  0  0
 17 18  1  0  0  0  0
 17 30  1  0  0  0  0
 17 31  1  0  0  0  0
 18 19  1  0  0  0  0
 18 32  1  0  0  0  0
 18 33  1  0  0  0  0
 19 34  1  0  0  0  0
 19 35  1  0  0  0  0
M  CHG  1  14   1
M  CHG  1  16  -1
M  END
> <s_m_source_file>
AV-unprocessed.smi

> <i_m_source_file_index>
2425

> <i_lp_mmshare_version>
43012

> <i_f3d_flags>
0

> <s_epik_input>
W0NIMl0xW0NIMl1bQ0gyXUMxKFtDSDJdW0NIM10pW05IXUMoPU8pW05IXWMyW2NIXVtjSF1uW2NIXWMyW04rXSg9TylbTy1d

> <s_epik_cmdline>
J2VwaWtfcHl0aG9uJywgJy1waCcsICc3LjAnLCAnLXRuJywgJzgnLCAnLW1hJywgJzIwMCcsICctbWV0YWxfYmluZGluZycsICctaW1hZScsICc8aW5maWxlLm1hZT4nLCAnLW9tYWUnLCAnPG91dGZpbGUubWFlPic=

> <r_lp_tautomer_probability>
1

> <r_epik_Ionization_Penalty>
0.00016416

> <r_epik_Ionization_Penalty_Charging>
0

> <r_epik_Ionization_Penalty_Neutral>
0.00016416

> <r_epik_State_Penalty>
-0

> <r_epik_Charging_Adjusted_Penalty>
0

> <i_epik_Tot_Q>
0

> <i_epik_Tot_abs_Q>
2

> <r_epik_Metal_State_Penalty>
-0

> <b_epik_Metal_Only>
0

> <s_lp_Force_Field>
OPLS_2005

> <r_lp_Energy>
29.2252

> <b_lp_Chiralities_Consistent>
1

> <s_lp_Variant>
AV-unprocessed.smi:2425-1

> <Gold.Version>
5.8.1

> <Gold.Id.Protein>
6NUR|6NUR_protein|mol2

> <Gold.PLP.Fitness>
43.9772

> <Gold.PLP.PLP>
-35.8432

> <Gold.PLP.part.hbond>
-2.0000

> <Gold.PLP.part.metal>
0.0000

> <Gold.PLP.part.buried>
-3.5724

> <Gold.PLP.part.nonpolar>
-32.6412

> <Gold.PLP.part.repulsive>
1.5491

> <Gold.PLP.ligand.clash>
0.0000

> <Gold.PLP.ligand.torsion>
0.3979

> <Gold.PLP.Chemscore.Hbond>
1.8480

> <Gold.PLP.Chemscore.CHOScore>
1.0000

> <Gold.PLP.Chemscore.Metal>
0.0000

> <Gold.Chemscore.Hbonds>
donor molecule, donor type, donor heavy atom, donor atom, acceptor molecule, acceptor atom, score
      P1  H  7997  8010       L1    16  0.50
      P1  H 10752 10764       L1    15  0.75
      L1  C    12    29       P1  7948  0.79

> <Gold.PLP.Chemscore.Internal.Correction>
0.3857

> <Gold.Rescore>
     Score         DG    S(hbond)    S(metal)    S(lipo)     H(rot)  DE(clash)    DE(int)     intcor
     14.07     -19.03       1.42        0.00     102.10       1.23       0.23       4.73       ----

> <Gold.Chemscore.Fitness>
14.0679

> <Gold.Chemscore.DG>
-19.0314

> <Gold.Chemscore.ZeroCoef>
-5.4800

> <Gold.Chemscore.Hbond>
1.4221

> <Gold.Chemscore.Metal>
0.0000

> <Gold.Chemscore.Lipo>
102.1003

> <Gold.Chemscore.Internal_Hbond>
0.0000

> <Gold.Chemscore.DEClash>
0.2321

> <Gold.Chemscore.DEInternal>
4.7314

> <Gold.Chemscore.Rot>
1.2282

> <Gold.Chemscore.Internal.Correction>
   9.000000E+99

> <Gold.Chemscore.Hbonds>
donor molecule, donor type, donor heavy atom, donor atom, acceptor molecule, acceptor atom, score
      P1  H  7997  8010       L1    16  0.50
      P1  H 10752 10764       L1    15  0.73

> <Gold.Chemscore.Hbond.Weighted>
-4.7498

> <Gold.Chemscore.Metal.Weighted>
-0.0000

> <Gold.Chemscore.Lipo.Weighted>
-11.9457

> <Gold.Chemscore.Internal_Hbond.Weighted>
0.0000

> <Gold.Chemscore.DEClash.Weighted>
0.2321

> <Gold.Chemscore.DEInternal.Weighted>
4.7314

> <Gold.Chemscore.Rot.Weighted>
3.1441

> <Gold.Chemscore.Internal.Correction.Weighted>
   9.000000E+99

> <Gold.Protein.RotatedTorsions>
[ 6907 6896 6895 6894 ] final  -26.14 input  -60.11 | X-H torsion
[ 7974 7965 7964 7962 ] final   20.88 input  175.53 | X-H torsion
[ 8008 7997 7996 7995 ] final   74.63 input   59.86 | X-H torsion
[ 10167 10162 10161 10158 ] final   56.19 input  -65.29 | X-H torsion
[ 10718 10713 10712 10709 ] final  134.85 input   66.30 | X-H torsion
[ 10763 10752 10751 10750 ] final  -75.44 input  -60.55 | X-H torsion
[ 11005 11000 10999 10996 ] final -156.71 input  -57.11 | X-H torsion

> <Gold.Protein.ActiveResidues>
 VAL166  LYS551  ARG553  GLY616  TRP617  ASP618  TYR619  PRO620  LYS621  CYS622 
 ASP623  PHE694  ASN695  SER759  ASP760  ASP761  ALA762  ILE779  LEU786  VAL792 
 PHE793  MET794  SER795  GLU796  ALA797  LYS798  CYS799  TRP800  GLU811  SER814 

> <Gold.Protein.RotatedAtoms>
  151.1651  135.0292  159.8727 H   0  0  0  0  0  0  0  0  0  0  0  0  # atno 6907 bound_to 6896
  152.5450  134.1234  159.8419 H   0  0  0  0  0  0  0  0  0  0  0  0  # atno 6908 bound_to 6896
  151.1334  133.4975  159.2631 H   0  0  0  0  0  0  0  0  0  0  0  0  # atno 6909 bound_to 6896
  146.2094  139.8106  142.8701 H   0  0  0  0  0  0  0  0  0  0  0  0  # atno 7974 bound_to 7965
  155.8012  140.3476  155.5403 H   0  0  0  0  0  0  0  0  0  0  0  0  # atno 8008 bound_to 7997
  155.8536  140.0960  157.1679 H   0  0  0  0  0  0  0  0  0  0  0  0  # atno 8009 bound_to 7997
  154.4009  140.1372  156.3862 H   0  0  0  0  0  0  0  0  0  0  0  0  # atno 8010 bound_to 7997
  140.2114  144.3885  150.6487 H   0  0  0  0  0  0  0  0  0  0  0  0  # atno 10167 bound_to 10162
  157.4631  131.1075  150.9896 H   0  0  0  0  0  0  0  0  0  0  0  0  # atno 10718 bound_to 10713
  154.4866  135.5831  153.6428 H   0  0  0  0  0  0  0  0  0  0  0  0  # atno 10763 bound_to 10752
  152.9855  135.6102  154.3179 H   0  0  0  0  0  0  0  0  0  0  0  0  # atno 10764 bound_to 10752
  154.3074  135.2845  155.2561 H   0  0  0  0  0  0  0  0  0  0  0  0  # atno 10765 bound_to 10752
  140.6726  134.4231  157.5231 H   0  0  0  0  0  0  0  0  0  0  0  0  # atno 11005 bound_to 11000
  145.3200  141.0241  143.3506 LP  0  0  0  0  0  0  0  0  0  0  0  0  # atno 17320 bound_to 7965
  144.8874  139.4821  143.6694 LP  0  0  0  0  0  0  0  0  0  0  0  0  # atno 17321 bound_to 7965
  140.6321  143.2189  151.6473 LP  0  0  0  0  0  0  0  0  0  0  0  0  # atno 17342 bound_to 10162
  139.5179  144.3302  152.0833 LP  0  0  0  0  0  0  0  0  0  0  0  0  # atno 17343 bound_to 10162
  157.0686  130.5855  149.5398 LP  0  0  0  0  0  0  0  0  0  0  0  0  # atno 17370 bound_to 10713
  156.0038  130.5121  150.7757 LP  0  0  0  0  0  0  0  0  0  0  0  0  # atno 17371 bound_to 10713
  139.8977  134.8631  156.2034 LP  0  0  0  0  0  0  0  0  0  0  0  0  # atno 17394 bound_to 11000
  141.0380  133.6953  156.1547 LP  0  0  0  0  0  0  0  0  0  0  0  0  # atno 17395 bound_to 11000

$$$$
