AV-unprocessed.smi:2195|AV-procd|sdf|8904|dock6
  -GOLD-   2272012123D 1   1.00000     0.00000
 Structure written by MMmdl.
 39 41  0  0  0  0  0  0  0  0  1 V2000
  144.0701  132.4133  149.2545 C   0  0  0  0  0  0  0  0  0  0  0  0
  144.6165  133.4185  150.2470 C   0  0  0  0  0  0  0  0  0  0  0  0
  145.5918  133.0365  151.1894 C   0  0  0  0  0  0  0  0  0  0  0  0
  146.0943  133.9793  152.1064 C   0  0  0  0  0  0  0  0  0  0  0  0
  145.6356  135.3123  152.0974 C   0  0  0  0  0  0  0  0  0  0  0  0
  146.1842  136.1665  153.0289 O   0  0  0  0  0  0  0  0  0  0  0  0
  145.7018  137.5033  153.0872 C   0  0  0  0  0  0  0  0  0  0  0  0
  146.8589  138.4637  153.4079 C   0  0  2  0  0  0  0  0  0  0  0  0
  147.6339  138.6677  152.2428 O   0  0  0  0  0  0  0  0  0  0  0  0
  147.7319  138.0070  154.5930 C   0  0  0  0  0  0  0  0  0  0  0  0
  148.9109  138.8372  154.7615 N   0  0  0  0  0  0  0  0  0  0  0  0
  150.0469  138.7842  154.0399 C   0  0  0  0  0  0  0  0  0  0  0  0
  151.0132  139.6402  154.3600 N   0  0  0  0  0  0  0  0  0  0  0  0
  150.4364  140.3315  155.4115 C   0  0  0  0  0  0  0  0  0  0  0  0
  150.9445  141.3853  156.2043 C   0  0  0  0  0  0  0  0  0  0  0  0
  150.1635  141.9416  157.2387 C   0  0  0  0  0  0  0  0  0  0  0  0
  148.8656  141.4541  157.4964 C   0  0  0  0  0  0  0  0  0  0  0  0
  148.3378  140.4047  156.7198 C   0  0  0  0  0  0  0  0  0  0  0  0
  149.1199  139.8529  155.6882 C   0  0  0  0  0  0  0  0  0  0  0  0
  144.6527  135.6899  151.1480 C   0  0  0  0  0  0  0  0  0  0  0  0
  144.1487  134.7470  150.2309 C   0  0  0  0  0  0  0  0  0  0  0  0
  144.5651  131.4466  149.3529 H   0  0  0  0  0  0  0  0  0  0  0  0
  144.2199  132.7696  148.2351 H   0  0  0  0  0  0  0  0  0  0  0  0
  143.0016  132.2676  149.4146 H   0  0  0  0  0  0  0  0  0  0  0  0
  145.9594  132.0211  151.2140 H   0  0  0  0  0  0  0  0  0  0  0  0
  146.8428  133.6768  152.8240 H   0  0  0  0  0  0  0  0  0  0  0  0
  145.2200  137.7900  152.1508 H   0  0  0  0  0  0  0  0  0  0  0  0
  144.9555  137.5764  153.8800 H   0  0  0  0  0  0  0  0  0  0  0  0
  146.4222  139.4327  153.6528 H   0  0  0  0  0  0  0  0  0  0  0  0
  148.1276  137.8808  152.0689 H   0  0  0  0  0  0  0  0  0  0  0  0
  147.1555  138.0417  155.5184 H   0  0  0  0  0  0  0  0  0  0  0  0
  148.0513  136.9723  154.4639 H   0  0  0  0  0  0  0  0  0  0  0  0
  150.1717  138.0748  153.2348 H   0  0  0  0  0  0  0  0  0  0  0  0
  151.9375  141.7660  156.0164 H   0  0  0  0  0  0  0  0  0  0  0  0
  150.5628  142.7464  157.8381 H   0  0  0  0  0  0  0  0  0  0  0  0
  148.2756  141.8863  158.2914 H   0  0  0  0  0  0  0  0  0  0  0  0
  147.3449  140.0279  156.9158 H   0  0  0  0  0  0  0  0  0  0  0  0
  144.2677  136.6972  151.1027 H   0  0  0  0  0  0  0  0  0  0  0  0
  143.4001  135.0477  149.5125 H   0  0  0  0  0  0  0  0  0  0  0  0
  1  2  1  0  0  0  0
  1 22  1  0  0  0  0
  1 23  1  0  0  0  0
  1 24  1  0  0  0  0
  2 21  1  0  0  0  0
  2  3  2  0  0  0  0
  3  4  1  0  0  0  0
  3 25  1  0  0  0  0
  4  5  2  0  0  0  0
  4 26  1  0  0  0  0
  5  6  1  0  0  0  0
  5 20  1  0  0  0  0
  6  7  1  0  0  0  0
  7  8  1  0  0  0  0
  7 27  1  0  0  0  0
  7 28  1  0  0  0  0
  8  9  1  0  0  0  0
  8 10  1  0  0  0  0
  8 29  1  0  0  0  0
  9 30  1  0  0  0  0
 10 11  1  0  0  0  0
 10 31  1  0  0  0  0
 10 32  1  0  0  0  0
 11 19  1  0  0  0  0
 11 12  1  0  0  0  0
 12 13  2  0  0  0  0
 12 33  1  0  0  0  0
 13 14  1  0  0  0  0
 14 19  2  0  0  0  0
 14 15  1  0  0  0  0
 15 16  2  0  0  0  0
 15 34  1  0  0  0  0
 16 17  1  0  0  0  0
 16 35  1  0  0  0  0
 17 18  2  0  0  0  0
 17 36  1  0  0  0  0
 18 19  1  0  0  0  0
 18 37  1  0  0  0  0
 20 21  2  0  0  0  0
 20 38  1  0  0  0  0
 21 39  1  0  0  0  0
M  END
> <s_m_source_file>
AV-unprocessed.smi

> <i_m_source_file_index>
2195

> <i_lp_mmshare_version>
43012

> <i_f3d_flags>
0

> <s_epik_input>
W0NIM11jMVtjSF1bY0hdYyhbY0hdW2NIXTEpT1tDSDJdW0NASF0oW09IXSlbQ0gyXW4oW2NIXW4yKWMoYzIzKVtjSF1bY0hdW2NIXVtjSF0z

> <s_epik_cmdline>
J2VwaWtfcHl0aG9uJywgJy1waCcsICc3LjAnLCAnLXRuJywgJzgnLCAnLW1hJywgJzIwMCcsICctbWV0YWxfYmluZGluZycsICctaW1hZScsICc8aW5maWxlLm1hZT4nLCAnLW9tYWUnLCAnPG91dGZpbGUubWFlPic=

> <r_lp_tautomer_probability>
1

> <r_epik_Ionization_Penalty>
0.0609831

> <r_epik_Ionization_Penalty_Charging>
0

> <r_epik_Ionization_Penalty_Neutral>
0.0609831

> <r_epik_State_Penalty>
0.0529032

> <r_epik_Charging_Adjusted_Penalty>
0.0529032

> <i_epik_Tot_Q>
0

> <i_epik_Tot_abs_Q>
0

> <r_epik_Metal_State_Penalty>
5.53344e-05

> <b_epik_Metal_Only>
0

> <s_lp_Force_Field>
OPLS_2005

> <r_lp_Energy>
15.928

> <b_lp_Chiralities_Consistent>
1

> <s_lp_Variant>
AV-unprocessed.smi:2195-1

> <Gold.Version>
5.8.1

> <Gold.Id.Protein>
6NUR|6NUR_protein|mol2

> <Gold.PLP.Fitness>
44.1468

> <Gold.PLP.PLP>
-36.4953

> <Gold.PLP.part.hbond>
-3.0000

> <Gold.PLP.part.metal>
0.0000

> <Gold.PLP.part.buried>
-4.6897

> <Gold.PLP.part.nonpolar>
-29.8518

> <Gold.PLP.part.repulsive>
1.2875

> <Gold.PLP.ligand.clash>
0.0000

> <Gold.PLP.ligand.torsion>
0.6646

> <Gold.PLP.Chemscore.Hbond>
2.0000

> <Gold.PLP.Chemscore.CHOScore>
0.9716

> <Gold.PLP.Chemscore.Metal>
0.0000

> <Gold.Chemscore.Hbonds>
donor molecule, donor type, donor heavy atom, donor atom, acceptor molecule, acceptor atom, score
      L1  H     9    30       P1  7948  1.00
      P1  H  7989  7998       L1    13  1.00
      L1  C    12    33       P1  7948  0.95
      L1  C    12    33       P1  7949  0.03
      L1  C    12    33       P1  7957  0.03

> <Gold.PLP.Chemscore.Internal.Correction>
0.0659

> <Gold.Rescore>
     Score         DG    S(hbond)    S(metal)    S(lipo)     H(rot)  DE(clash)    DE(int)     intcor
     14.14     -15.93       1.95        0.00      81.41       2.19       0.32       1.47       ----

> <Gold.Chemscore.Fitness>
14.1353

> <Gold.Chemscore.DG>
-15.9310

> <Gold.Chemscore.ZeroCoef>
-5.4800

> <Gold.Chemscore.Hbond>
1.9540

> <Gold.Chemscore.Metal>
0.0000

> <Gold.Chemscore.Lipo>
81.4118

> <Gold.Chemscore.Internal_Hbond>
0.0000

> <Gold.Chemscore.DEClash>
0.3218

> <Gold.Chemscore.DEInternal>
1.4739

> <Gold.Chemscore.Rot>
2.1877

> <Gold.Chemscore.Internal.Correction>
   9.000000E+99

> <Gold.Chemscore.Hbonds>
donor molecule, donor type, donor heavy atom, donor atom, acceptor molecule, acceptor atom, score
      L1  H     9    30       P1  7948  1.00
      P1  H  7989  7998       L1    13  0.30

> <Gold.Chemscore.Hbond.Weighted>
-6.5263

> <Gold.Chemscore.Metal.Weighted>
-0.0000

> <Gold.Chemscore.Lipo.Weighted>
-9.5252

> <Gold.Chemscore.Internal_Hbond.Weighted>
0.0000

> <Gold.Chemscore.DEClash.Weighted>
0.3218

> <Gold.Chemscore.DEInternal.Weighted>
1.4739

> <Gold.Chemscore.Rot.Weighted>
5.6005

> <Gold.Chemscore.Internal.Correction.Weighted>
   9.000000E+99

> <Gold.Protein.RotatedTorsions>
[ 6907 6896 6895 6894 ] final   24.83 input  -60.11 | X-H torsion
[ 7974 7965 7964 7962 ] final   37.31 input  175.53 | X-H torsion
[ 8008 7997 7996 7995 ] final -145.76 input   59.86 | X-H torsion
[ 10167 10162 10161 10158 ] final  163.46 input  -65.29 | X-H torsion
[ 10718 10713 10712 10709 ] final -133.99 input   66.30 | X-H torsion
[ 10763 10752 10751 10750 ] final   91.27 input  -60.55 | X-H torsion
[ 11005 11000 10999 10996 ] final  -90.82 input  -57.11 | X-H torsion

> <Gold.Protein.ActiveResidues>
 VAL166  LYS551  ARG553  GLY616  TRP617  ASP618  TYR619  PRO620  LYS621  CYS622 
 ASP623  PHE694  ASN695  SER759  ASP760  ASP761  ALA762  ILE779  LEU786  VAL792 
 PHE793  MET794  SER795  GLU796  ALA797  LYS798  CYS799  TRP800  GLU811  SER814 

> <Gold.Protein.RotatedAtoms>
  151.9634  135.0112  160.0548 H   0  0  0  0  0  0  0  0  0  0  0  0  # atno 6907 bound_to 6896
  152.1848  133.4727  159.4985 H   0  0  0  0  0  0  0  0  0  0  0  0  # atno 6908 bound_to 6896
  150.6924  134.1705  159.4253 H   0  0  0  0  0  0  0  0  0  0  0  0  # atno 6909 bound_to 6896
  146.1147  139.5909  142.9329 H   0  0  0  0  0  0  0  0  0  0  0  0  # atno 7974 bound_to 7965
  155.5484  140.0614  157.2855 H   0  0  0  0  0  0  0  0  0  0  0  0  # atno 8008 bound_to 7997
  154.4428  140.1907  156.0706 H   0  0  0  0  0  0  0  0  0  0  0  0  # atno 8009 bound_to 7997
  156.0534  140.3281  155.7381 H   0  0  0  0  0  0  0  0  0  0  0  0  # atno 8010 bound_to 7997
  139.4874  144.4334  151.9042 H   0  0  0  0  0  0  0  0  0  0  0  0  # atno 10167 bound_to 10162
  156.2507  130.7151  151.1049 H   0  0  0  0  0  0  0  0  0  0  0  0  # atno 10718 bound_to 10713
  153.2064  135.4403  155.0328 H   0  0  0  0  0  0  0  0  0  0  0  0  # atno 10763 bound_to 10752
  154.8176  135.3322  154.7134 H   0  0  0  0  0  0  0  0  0  0  0  0  # atno 10764 bound_to 10752
  153.7575  135.6994  153.4988 H   0  0  0  0  0  0  0  0  0  0  0  0  # atno 10765 bound_to 10752
  141.1558  133.7716  156.9792 H   0  0  0  0  0  0  0  0  0  0  0  0  # atno 11005 bound_to 11000
  145.5592  141.0406  143.2236 LP  0  0  0  0  0  0  0  0  0  0  0  0  # atno 17320 bound_to 7965
  144.7542  139.7116  143.7261 LP  0  0  0  0  0  0  0  0  0  0  0  0  # atno 17321 bound_to 7965
  140.3783  144.2768  150.5911 LP  0  0  0  0  0  0  0  0  0  0  0  0  # atno 17342 bound_to 10162
  140.5256  143.2255  151.8319 LP  0  0  0  0  0  0  0  0  0  0  0  0  # atno 17343 bound_to 10162
  157.7213  131.0679  150.6123 LP  0  0  0  0  0  0  0  0  0  0  0  0  # atno 17370 bound_to 10713
  156.6203  130.4404  149.5825 LP  0  0  0  0  0  0  0  0  0  0  0  0  # atno 17371 bound_to 10713
  140.1077  134.9496  157.2019 LP  0  0  0  0  0  0  0  0  0  0  0  0  # atno 17394 bound_to 11000
  140.3234  134.2890  155.7241 LP  0  0  0  0  0  0  0  0  0  0  0  0  # atno 17395 bound_to 11000

$$$$
