AV-unprocessed.smi:1828|AV-procd|sdf|7424|dock9
  -GOLD-   22720 9103D 1   1.00000     0.00000
 Structure written by MMmdl.
 39 41  0  0  0  0  0  0  0  0  1 V2000
  153.4301  139.0801  154.6620 O   0  0  0  0  0  0  0  0  0  0  0  0
  152.4134  138.9753  155.6355 C   0  0  0  0  0  0  0  0  0  0  0  0
  151.0841  139.4517  155.1358 C   0  0  0  0  0  0  0  0  0  0  0  0
  150.3360  138.7153  154.3130 N   0  0  0  0  0  0  0  0  0  0  0  0
  149.2236  139.5108  154.1196 C   0  0  0  0  0  0  0  0  0  0  0  0
  148.0610  139.2923  153.3464 C   0  0  0  0  0  0  0  0  0  0  0  0
  147.0394  140.2638  153.3031 C   0  0  0  0  0  0  0  0  0  0  0  0
  147.1654  141.4651  154.0305 C   0  0  0  0  0  0  0  0  0  0  0  0
  148.3164  141.7034  154.8060 C   0  0  0  0  0  0  0  0  0  0  0  0
  149.3329  140.7304  154.8454 C   0  0  0  0  0  0  0  0  0  0  0  0
  150.5623  140.6532  155.4913 N   0  0  0  0  0  0  0  0  0  0  0  0
  151.1335  141.6705  156.3641 C   0  0  0  0  0  0  0  0  0  0  0  0
  150.3341  141.8472  157.6705 C   0  0  2  0  0  0  0  0  0  0  0  0
  149.3073  142.8029  157.4874 O   0  0  0  0  0  0  0  0  0  0  0  0
  151.2485  142.2021  158.8323 C   0  0  0  0  0  0  0  0  0  0  0  0
  151.0690  143.4067  159.5458 C   0  0  0  0  0  0  0  0  0  0  0  0
  151.9221  143.7281  160.6181 C   0  0  0  0  0  0  0  0  0  0  0  0
  152.9630  142.8515  160.9793 C   0  0  0  0  0  0  0  0  0  0  0  0
  153.1607  141.6493  160.2657 C   0  0  0  0  0  0  0  0  0  0  0  0
  154.2794  140.6923  160.6503 C   0  0  0  0  0  0  0  0  0  0  0  0
  155.3469  140.8895  159.8762 F   0  0  0  0  0  0  0  0  0  0  0  0
  154.6486  140.8607  161.9207 F   0  0  0  0  0  0  0  0  0  0  0  0
  153.8583  139.4387  160.4892 F   0  0  0  0  0  0  0  0  0  0  0  0
  152.2962  141.3296  159.1963 C   0  0  0  0  0  0  0  0  0  0  0  0
  153.9286  138.2775  154.6627 H   0  0  0  0  0  0  0  0  0  0  0  0
  152.3351  137.9413  155.9706 H   0  0  0  0  0  0  0  0  0  0  0  0
  152.7037  139.5647  156.5057 H   0  0  0  0  0  0  0  0  0  0  0  0
  147.9549  138.3748  152.7865 H   0  0  0  0  0  0  0  0  0  0  0  0
  146.1544  140.0861  152.7098 H   0  0  0  0  0  0  0  0  0  0  0  0
  146.3778  142.2036  153.9928 H   0  0  0  0  0  0  0  0  0  0  0  0
  148.4163  142.6223  155.3644 H   0  0  0  0  0  0  0  0  0  0  0  0
  152.1573  141.3741  156.5955 H   0  0  0  0  0  0  0  0  0  0  0  0
  151.2089  142.6163  155.8283 H   0  0  0  0  0  0  0  0  0  0  0  0
  149.8375  140.9050  157.9056 H   0  0  0  0  0  0  0  0  0  0  0  0
  149.5329  143.3456  156.7473 H   0  0  0  0  0  0  0  0  0  0  0  0
  150.2762  144.0880  159.2730 H   0  0  0  0  0  0  0  0  0  0  0  0
  151.7780  144.6486  161.1645 H   0  0  0  0  0  0  0  0  0  0  0  0
  153.6070  143.1087  161.8073 H   0  0  0  0  0  0  0  0  0  0  0  0
  152.4392  140.4075  158.6520 H   0  0  0  0  0  0  0  0  0  0  0  0
  1  2  1  0  0  0  0
  1 25  1  0  0  0  0
  2  3  1  0  0  0  0
  2 26  1  0  0  0  0
  2 27  1  0  0  0  0
  3 11  1  0  0  0  0
  3  4  2  0  0  0  0
  4  5  1  0  0  0  0
  5 10  2  0  0  0  0
  5  6  1  0  0  0  0
  6  7  2  0  0  0  0
  6 28  1  0  0  0  0
  7  8  1  0  0  0  0
  7 29  1  0  0  0  0
  8  9  2  0  0  0  0
  8 30  1  0  0  0  0
  9 10  1  0  0  0  0
  9 31  1  0  0  0  0
 10 11  1  0  0  0  0
 11 12  1  0  0  0  0
 12 13  1  0  0  0  0
 12 32  1  0  0  0  0
 12 33  1  0  0  0  0
 13 14  1  0  0  0  0
 13 15  1  0  0  0  0
 13 34  1  0  0  0  0
 14 35  1  0  0  0  0
 15 24  1  0  0  0  0
 15 16  2  0  0  0  0
 16 17  1  0  0  0  0
 16 36  1  0  0  0  0
 17 18  2  0  0  0  0
 17 37  1  0  0  0  0
 18 19  1  0  0  0  0
 18 38  1  0  0  0  0
 19 20  1  0  0  0  0
 19 24  2  0  0  0  0
 20 21  1  0  0  0  0
 20 22  1  0  0  0  0
 20 23  1  0  0  0  0
 24 39  1  0  0  0  0
M  END
> <s_m_source_file>
AV-unprocessed.smi

> <i_m_source_file_index>
1828

> <i_lp_mmshare_version>
43012

> <i_f3d_flags>
0

> <s_epik_input>
W2NIXTFbY0hdW2NIXVtjSF1jKGMxMiluKGMobjIpW0NIMl1bT0hdKVtDSDJdW0NASF0oW09IXSljM1tjSF1bY0hdW2NIXWMoQyhGKShGKUYpW2NIXTM=

> <s_epik_cmdline>
J2VwaWtfcHl0aG9uJywgJy1waCcsICc3LjAnLCAnLXRuJywgJzgnLCAnLW1hJywgJzIwMCcsICctbWV0YWxfYmluZGluZycsICctaW1hZScsICc8aW5maWxlLm1hZT4nLCAnLW9tYWUnLCAnPG91dGZpbGUubWFlPic=

> <r_epik_Ionization_Penalty>
0.0634719

> <r_epik_Ionization_Penalty_Charging>
0

> <r_epik_Ionization_Penalty_Neutral>
0.0634719

> <r_epik_State_Penalty>
0.0551572

> <r_epik_Charging_Adjusted_Penalty>
0.0551572

> <i_epik_Tot_Q>
0

> <i_epik_Tot_abs_Q>
0

> <r_epik_Metal_State_Penalty>
5.78034e-05

> <b_epik_Metal_Only>
0

> <s_lp_Force_Field>
OPLS_2005

> <r_lp_Energy>
12.8621

> <b_lp_Chiralities_Consistent>
1

> <s_lp_Variant>
AV-unprocessed.smi:1828-1

> <Gold.Version>
5.8.1

> <Gold.Id.Protein>
6NUR|6NUR_protein|mol2

> <Gold.PLP.Fitness>
55.8567

> <Gold.PLP.PLP>
-53.2215

> <Gold.PLP.part.hbond>
-2.0000

> <Gold.PLP.part.metal>
0.0000

> <Gold.PLP.part.buried>
0.7959

> <Gold.PLP.part.nonpolar>
-51.1953

> <Gold.PLP.part.repulsive>
0.1987

> <Gold.PLP.ligand.clash>
0.0000

> <Gold.PLP.ligand.torsion>
1.6601

> <Gold.PLP.Chemscore.Hbond>
1.7200

> <Gold.PLP.Chemscore.CHOScore>
0.0000

> <Gold.PLP.Chemscore.Metal>
0.0000

> <Gold.Chemscore.Hbonds>
donor molecule, donor type, donor heavy atom, donor atom, acceptor molecule, acceptor atom, score
      L1  H    14    35       P1  8028  0.85
      P1  H  7997  8008       L1     1  0.95

> <Gold.PLP.Chemscore.Internal.Correction>
0.7953

> <Gold.Rescore>
     Score         DG    S(hbond)    S(metal)    S(lipo)     H(rot)  DE(clash)    DE(int)     intcor
     13.76     -15.35       0.79        0.00     125.53       2.91       0.18       1.42       ----

> <Gold.Chemscore.Fitness>
13.7564

> <Gold.Chemscore.DG>
-15.3486

> <Gold.Chemscore.ZeroCoef>
-5.4800

> <Gold.Chemscore.Hbond>
0.7908

> <Gold.Chemscore.Metal>
0.0000

> <Gold.Chemscore.Lipo>
125.5319

> <Gold.Chemscore.Internal_Hbond>
0.0000

> <Gold.Chemscore.DEClash>
0.1768

> <Gold.Chemscore.DEInternal>
1.4154

> <Gold.Chemscore.Rot>
2.9141

> <Gold.Chemscore.Internal.Correction>
   9.000000E+99

> <Gold.Chemscore.Hbonds>
donor molecule, donor type, donor heavy atom, donor atom, acceptor molecule, acceptor atom, score
      L1  H    14    35       P1  8028  0.83
      P1  H  7997  8008       L1     1  0.05

> <Gold.Chemscore.Hbond.Weighted>
-2.6414

> <Gold.Chemscore.Metal.Weighted>
-0.0000

> <Gold.Chemscore.Lipo.Weighted>
-14.6872

> <Gold.Chemscore.Internal_Hbond.Weighted>
0.0000

> <Gold.Chemscore.DEClash.Weighted>
0.1768

> <Gold.Chemscore.DEInternal.Weighted>
1.4154

> <Gold.Chemscore.Rot.Weighted>
7.4600

> <Gold.Chemscore.Internal.Correction.Weighted>
   9.000000E+99

> <Gold.Protein.RotatedTorsions>
[ 6907 6896 6895 6894 ] final  -93.16 input  -60.11 | X-H torsion
[ 7974 7965 7964 7962 ] final  -47.97 input  175.53 | X-H torsion
[ 8008 7997 7996 7995 ] final    2.79 input   59.86 | X-H torsion
[ 10167 10162 10161 10158 ] final   94.32 input  -65.29 | X-H torsion
[ 10718 10713 10712 10709 ] final  128.04 input   66.30 | X-H torsion
[ 10763 10752 10751 10750 ] final -149.20 input  -60.55 | X-H torsion
[ 11005 11000 10999 10996 ] final -131.93 input  -57.11 | X-H torsion

> <Gold.Protein.ActiveResidues>
 VAL166  LYS551  ARG553  GLY616  TRP617  ASP618  TYR619  PRO620  LYS621  CYS622 
 ASP623  PHE694  ASN695  SER759  ASP760  ASP761  ALA762  ILE779  LEU786  VAL792 
 PHE793  MET794  SER795  GLU796  ALA797  LYS798  CYS799  TRP800  GLU811  SER814 

> <Gold.Protein.RotatedAtoms>
  150.6918  134.2011  159.4322 H   0  0  0  0  0  0  0  0  0  0  0  0  # atno 6907 bound_to 6896
  151.9977  134.9943  160.0573 H   0  0  0  0  0  0  0  0  0  0  0  0  # atno 6908 bound_to 6896
  152.1608  133.4546  159.4897 H   0  0  0  0  0  0  0  0  0  0  0  0  # atno 6909 bound_to 6896
  145.9560  140.7526  142.9481 H   0  0  0  0  0  0  0  0  0  0  0  0  # atno 7974 bound_to 7965
  154.6958  140.2663  155.6767 H   0  0  0  0  0  0  0  0  0  0  0  0  # atno 8008 bound_to 7997
  156.2748  140.2782  156.1475 H   0  0  0  0  0  0  0  0  0  0  0  0  # atno 8009 bound_to 7997
  155.0833  140.0373  157.2636 H   0  0  0  0  0  0  0  0  0  0  0  0  # atno 8010 bound_to 7997
  139.8095  144.6779  150.9659 H   0  0  0  0  0  0  0  0  0  0  0  0  # atno 10167 bound_to 10162
  157.5280  131.1098  150.9053 H   0  0  0  0  0  0  0  0  0  0  0  0  # atno 10718 bound_to 10713
  154.8191  135.3315  154.7091 H   0  0  0  0  0  0  0  0  0  0  0  0  # atno 10763 bound_to 10752
  153.7727  135.6924  153.4908 H   0  0  0  0  0  0  0  0  0  0  0  0  # atno 10764 bound_to 10752
  153.2034  135.4508  155.0242 H   0  0  0  0  0  0  0  0  0  0  0  0  # atno 10765 bound_to 10752
  140.9215  134.1438  157.4310 H   0  0  0  0  0  0  0  0  0  0  0  0  # atno 11005 bound_to 11000
  144.6805  140.2513  143.7331 LP  0  0  0  0  0  0  0  0  0  0  0  0  # atno 17320 bound_to 7965
  145.8105  139.2001  143.1995 LP  0  0  0  0  0  0  0  0  0  0  0  0  # atno 17321 bound_to 7965
  140.7818  143.4199  151.0857 LP  0  0  0  0  0  0  0  0  0  0  0  0  # atno 17342 bound_to 10162
  139.7867  143.8277  152.3146 LP  0  0  0  0  0  0  0  0  0  0  0  0  # atno 17343 bound_to 10162
  156.9643  130.5467  149.5287 LP  0  0  0  0  0  0  0  0  0  0  0  0  # atno 17370 bound_to 10713
  156.0401  130.5484  150.8750 LP  0  0  0  0  0  0  0  0  0  0  0  0  # atno 17371 bound_to 10713
  139.8776  134.9973  156.5840 LP  0  0  0  0  0  0  0  0  0  0  0  0  # atno 17394 bound_to 11000
  140.7981  133.8527  155.8703 LP  0  0  0  0  0  0  0  0  0  0  0  0  # atno 17395 bound_to 11000

$$$$
