AV-unprocessed.smi:1766|AV-procd|sdf|7136|dock5
  -GOLD-   22720 8373D 1   1.00000     0.00000
 Structure written by MMmdl.
 39 41  0  0  0  0  0  0  0  0  1 V2000
  156.1031  143.4476  164.9459 N   0  0  0  0  0  0  0  0  0  0  0  0
  155.3912  142.4070  165.3869 C   0  0  0  0  0  0  0  0  0  0  0  0
  154.9250  142.3685  166.5235 O   0  0  0  0  0  0  0  0  0  0  0  0
  155.1676  141.2466  164.4102 C   0  0  0  0  0  0  0  0  0  0  0  0
  154.3698  141.7445  163.2330 C   0  0  0  0  0  0  0  0  0  0  0  0
  153.6061  142.8370  163.3179 N   0  0  0  0  0  0  0  0  0  0  0  0
  153.0717  142.9407  162.0497 C   0  0  0  0  0  0  0  0  0  0  0  0
  152.1946  143.9024  161.4996 C   0  0  0  0  0  0  0  0  0  0  0  0
  151.7798  143.8041  160.1554 C   0  0  0  0  0  0  0  0  0  0  0  0
  152.2340  142.7438  159.3448 C   0  0  0  0  0  0  0  0  0  0  0  0
  153.1054  141.7734  159.8751 C   0  0  0  0  0  0  0  0  0  0  0  0
  153.5190  141.8773  161.2174 C   0  0  0  0  0  0  0  0  0  0  0  0
  154.3561  141.1142  162.0280 N   0  0  0  0  0  0  0  0  0  0  0  0
  155.0547  139.9003  161.6218 C   0  0  0  0  0  0  0  0  0  0  0  0
  154.0919  138.7679  161.2122 C   0  0  1  0  0  0  0  0  0  0  0  0
  154.3318  138.4528  159.8560 O   0  0  0  0  0  0  0  0  0  0  0  0
  154.2142  137.5505  162.1188 C   0  0  0  0  0  0  0  0  0  0  0  0
  154.5407  136.2929  161.5670 C   0  0  0  0  0  0  0  0  0  0  0  0
  154.6237  135.1549  162.3922 C   0  0  0  0  0  0  0  0  0  0  0  0
  154.3821  135.2677  163.7746 C   0  0  0  0  0  0  0  0  0  0  0  0
  154.4600  134.1731  164.5677 F   0  0  0  0  0  0  0  0  0  0  0  0
  154.0572  136.5192  164.3316 C   0  0  0  0  0  0  0  0  0  0  0  0
  153.9724  137.6574  163.5064 C   0  0  0  0  0  0  0  0  0  0  0  0
  156.2809  144.2292  165.5600 H   0  0  0  0  0  0  0  0  0  0  0  0
  156.4684  143.4473  164.0046 H   0  0  0  0  0  0  0  0  0  0  0  0
  156.1322  140.8436  164.1079 H   0  0  0  0  0  0  0  0  0  0  0  0
  154.6218  140.4356  164.8943 H   0  0  0  0  0  0  0  0  0  0  0  0
  151.8425  144.7190  162.1124 H   0  0  0  0  0  0  0  0  0  0  0  0
  151.1107  144.5455  159.7443 H   0  0  0  0  0  0  0  0  0  0  0  0
  151.9139  142.6764  158.3154 H   0  0  0  0  0  0  0  0  0  0  0  0
  153.4562  140.9631  159.2539 H   0  0  0  0  0  0  0  0  0  0  0  0
  155.7372  140.1440  160.8078 H   0  0  0  0  0  0  0  0  0  0  0  0
  155.6903  139.5716  162.4448 H   0  0  0  0  0  0  0  0  0  0  0  0
  153.0672  139.1332  161.2585 H   0  0  0  0  0  0  0  0  0  0  0  0
  154.4479  137.5177  159.7835 H   0  0  0  0  0  0  0  0  0  0  0  0
  154.7173  136.1939  160.5060 H   0  0  0  0  0  0  0  0  0  0  0  0
  154.8696  134.1947  161.9633 H   0  0  0  0  0  0  0  0  0  0  0  0
  153.8690  136.6058  165.3915 H   0  0  0  0  0  0  0  0  0  0  0  0
  153.7113  138.6112  163.9412 H   0  0  0  0  0  0  0  0  0  0  0  0
  1  2  1  0  0  0  0
  1 24  1  0  0  0  0
  1 25  1  0  0  0  0
  2  3  2  0  0  0  0
  2  4  1  0  0  0  0
  4  5  1  0  0  0  0
  4 26  1  0  0  0  0
  4 27  1  0  0  0  0
  5 13  1  0  0  0  0
  5  6  2  0  0  0  0
  6  7  1  0  0  0  0
  7 12  2  0  0  0  0
  7  8  1  0  0  0  0
  8  9  2  0  0  0  0
  8 28  1  0  0  0  0
  9 10  1  0  0  0  0
  9 29  1  0  0  0  0
 10 11  2  0  0  0  0
 10 30  1  0  0  0  0
 11 12  1  0  0  0  0
 11 31  1  0  0  0  0
 12 13  1  0  0  0  0
 13 14  1  0  0  0  0
 14 15  1  0  0  0  0
 14 32  1  0  0  0  0
 14 33  1  0  0  0  0
 15 16  1  0  0  0  0
 15 17  1  0  0  0  0
 15 34  1  0  0  0  0
 16 35  1  0  0  0  0
 17 23  1  0  0  0  0
 17 18  2  0  0  0  0
 18 19  1  0  0  0  0
 18 36  1  0  0  0  0
 19 20  2  0  0  0  0
 19 37  1  0  0  0  0
 20 21  1  0  0  0  0
 20 22  1  0  0  0  0
 22 23  2  0  0  0  0
 22 38  1  0  0  0  0
 23 39  1  0  0  0  0
M  END
> <s_m_source_file>
AV-unprocessed.smi

> <i_m_source_file_index>
1766

> <i_lp_mmshare_version>
43012

> <i_f3d_flags>
0

> <s_epik_input>
W2NIXTFbY0hdW2NIXVtjSF1jKGMxMiluKGMobjIpW0NIMl1DKD1PKVtOSDJdKVtDSDJdW0NASF0oW09IXSljM1tjSF1bY0hdYyhGKVtjSF1bY0hdMw==

> <s_epik_cmdline>
J2VwaWtfcHl0aG9uJywgJy1waCcsICc3LjAnLCAnLXRuJywgJzgnLCAnLW1hJywgJzIwMCcsICctbWV0YWxfYmluZGluZycsICctaW1hZScsICc8aW5maWxlLm1hZT4nLCAnLW9tYWUnLCAnPG91dGZpbGUubWFlPic=

> <r_epik_Ionization_Penalty>
0.0366901

> <r_epik_Ionization_Penalty_Charging>
0

> <r_epik_Ionization_Penalty_Neutral>
0.0366901

> <r_epik_State_Penalty>
0.0306642

> <r_epik_Charging_Adjusted_Penalty>
0.0306642

> <i_epik_Tot_Q>
0

> <i_epik_Tot_abs_Q>
0

> <r_epik_Metal_State_Penalty>
0.028853

> <b_epik_Metal_Only>
0

> <s_lp_Force_Field>
OPLS_2005

> <r_lp_Energy>
12.7053

> <b_lp_Chiralities_Consistent>
1

> <s_lp_Variant>
AV-unprocessed.smi:1766-2

> <Gold.Version>
5.8.1

> <Gold.Id.Protein>
6NUR|6NUR_protein|mol2

> <Gold.PLP.Fitness>
50.9362

> <Gold.PLP.PLP>
-53.0319

> <Gold.PLP.part.hbond>
-1.3898

> <Gold.PLP.part.metal>
0.0000

> <Gold.PLP.part.buried>
-2.5288

> <Gold.PLP.part.nonpolar>
-47.6226

> <Gold.PLP.part.repulsive>
0.1295

> <Gold.PLP.ligand.clash>
0.0000

> <Gold.PLP.ligand.torsion>
1.0714

> <Gold.PLP.Chemscore.Hbond>
0.0000

> <Gold.PLP.Chemscore.CHOScore>
0.0000

> <Gold.PLP.Chemscore.Metal>
0.0000

> <Gold.PLP.Chemscore.Internal.Correction>
0.0471

> <Gold.Rescore>
     Score         DG    S(hbond)    S(metal)    S(lipo)     H(rot)  DE(clash)    DE(int)     intcor
     11.65     -13.40       0.00        0.00     133.06       2.99       0.58       1.17       ----

> <Gold.Chemscore.Fitness>
11.6502

> <Gold.Chemscore.DG>
-13.4027

> <Gold.Chemscore.ZeroCoef>
-5.4800

> <Gold.Chemscore.Hbond>
0.0000

> <Gold.Chemscore.Metal>
0.0000

> <Gold.Chemscore.Lipo>
133.0579

> <Gold.Chemscore.Internal_Hbond>
0.0000

> <Gold.Chemscore.DEClash>
0.5800

> <Gold.Chemscore.DEInternal>
1.1725

> <Gold.Chemscore.Rot>
2.9864

> <Gold.Chemscore.Internal.Correction>
   9.000000E+99

> <Gold.Chemscore.Hbond.Weighted>
-0.0000

> <Gold.Chemscore.Metal.Weighted>
-0.0000

> <Gold.Chemscore.Lipo.Weighted>
-15.5678

> <Gold.Chemscore.Internal_Hbond.Weighted>
0.0000

> <Gold.Chemscore.DEClash.Weighted>
0.5800

> <Gold.Chemscore.DEInternal.Weighted>
1.1725

> <Gold.Chemscore.Rot.Weighted>
7.6451

> <Gold.Chemscore.Internal.Correction.Weighted>
   9.000000E+99

> <Gold.Protein.RotatedTorsions>
[ 6907 6896 6895 6894 ] final  116.13 input  -60.11 | X-H torsion
[ 7974 7965 7964 7962 ] final  -40.88 input  175.53 | X-H torsion
[ 8008 7997 7996 7995 ] final   -5.79 input   59.86 | X-H torsion
[ 10167 10162 10161 10158 ] final -169.90 input  -65.29 | X-H torsion
[ 10718 10713 10712 10709 ] final -154.10 input   66.30 | X-H torsion
[ 10763 10752 10751 10750 ] final  115.25 input  -60.55 | X-H torsion
[ 11005 11000 10999 10996 ] final  -99.23 input  -57.11 | X-H torsion

> <Gold.Protein.ActiveResidues>
 VAL166  LYS551  ARG553  GLY616  TRP617  ASP618  TYR619  PRO620  LYS621  CYS622 
 ASP623  PHE694  ASN695  SER759  ASP760  ASP761  ALA762  ILE779  LEU786  VAL792 
 PHE793  MET794  SER795  GLU796  ALA797  LYS798  CYS799  TRP800  GLU811  SER814 

> <Gold.Protein.RotatedAtoms>
  152.4697  133.8003  159.6948 H   0  0  0  0  0  0  0  0  0  0  0  0  # atno 6907 bound_to 6896
  150.8680  133.7537  159.2977 H   0  0  0  0  0  0  0  0  0  0  0  0  # atno 6908 bound_to 6896
  151.5081  135.1067  159.9898 H   0  0  0  0  0  0  0  0  0  0  0  0  # atno 6909 bound_to 6896
  146.0263  140.6787  142.9154 H   0  0  0  0  0  0  0  0  0  0  0  0  # atno 7974 bound_to 7965
  154.6003  140.2449  155.7801 H   0  0  0  0  0  0  0  0  0  0  0  0  # atno 8008 bound_to 7997
  156.2306  140.2968  156.0132 H   0  0  0  0  0  0  0  0  0  0  0  0  # atno 8009 bound_to 7997
  155.2222  140.0401  157.2940 H   0  0  0  0  0  0  0  0  0  0  0  0  # atno 8010 bound_to 7997
  139.5894  144.1245  152.1616 H   0  0  0  0  0  0  0  0  0  0  0  0  # atno 10167 bound_to 10162
  156.4947  130.8364  151.2585 H   0  0  0  0  0  0  0  0  0  0  0  0  # atno 10718 bound_to 10713
  153.5194  135.3601  155.2625 H   0  0  0  0  0  0  0  0  0  0  0  0  # atno 10763 bound_to 10752
  154.8736  135.4042  154.3277 H   0  0  0  0  0  0  0  0  0  0  0  0  # atno 10764 bound_to 10752
  153.3944  135.7073  153.6538 H   0  0  0  0  0  0  0  0  0  0  0  0  # atno 10765 bound_to 10752
  141.1316  133.8305  157.0944 H   0  0  0  0  0  0  0  0  0  0  0  0  # atno 11005 bound_to 11000
  144.7011  140.3656  143.7155 LP  0  0  0  0  0  0  0  0  0  0  0  0  # atno 17320 bound_to 7965
  145.7112  139.1685  143.2538 LP  0  0  0  0  0  0  0  0  0  0  0  0  # atno 17321 bound_to 7965
  140.0816  144.5695  150.7118 LP  0  0  0  0  0  0  0  0  0  0  0  0  # atno 17342 bound_to 10162
  140.7160  143.2545  151.4432 LP  0  0  0  0  0  0  0  0  0  0  0  0  # atno 17343 bound_to 10162
  157.7470  131.0001  150.2916 LP  0  0  0  0  0  0  0  0  0  0  0  0  # atno 17370 bound_to 10713
  156.3391  130.3812  149.7424 LP  0  0  0  0  0  0  0  0  0  0  0  0  # atno 17371 bound_to 10713
  140.0372  134.9872  157.0894 LP  0  0  0  0  0  0  0  0  0  0  0  0  # atno 17394 bound_to 11000
  140.4191  134.1899  155.7164 LP  0  0  0  0  0  0  0  0  0  0  0  0  # atno 17395 bound_to 11000

$$$$
