AV-unprocessed.smi:107|AV-procd|sdf|1018|dock10
  -GOLD-   2262018 23D 1   1.00000     0.00000
 Structure written by MMmdl.
 31 32  0  0  0  0  0  0  0  0  1 V2000
  150.5944  144.9575  159.4275 C   0  0  0  0  0  0  0  0  0  0  0  0
  151.2679  143.6341  159.1045 C   0  0  0  0  0  0  0  0  0  0  0  0
  151.0279  142.9580  157.9520 C   0  0  0  0  0  0  0  0  0  0  0  0
  151.6267  141.7484  157.6281 N   0  0  0  0  0  0  0  0  0  0  0  0
  151.3126  141.0448  156.3273 C   0  0  1  0  0  0  0  0  0  0  0  0
  150.9592  139.5774  156.5736 C   0  0  0  0  0  0  0  0  0  0  0  0
  149.8438  139.3681  155.5712 C   0  0  1  0  0  0  0  0  0  0  0  0
  149.0001  138.3063  155.9674 O   0  0  0  0  0  0  0  0  0  0  0  0
  149.1322  140.7230  155.5978 C   0  0  2  0  0  0  0  0  0  0  0  0
  148.3398  141.0240  154.3168 C   0  0  0  0  0  0  0  0  0  0  0  0
  149.2256  141.3252  153.2598 O   0  0  0  0  0  0  0  0  0  0  0  0
  150.2041  141.6560  155.7339 O   0  0  0  0  0  0  0  0  0  0  0  0
  152.5277  141.1582  158.5390 C   0  0  0  0  0  0  0  0  0  0  0  0
  153.0785  140.0771  158.3350 O   0  0  0  0  0  0  0  0  0  0  0  0
  152.7770  141.8534  159.7212 N   0  0  0  0  0  0  0  0  0  0  0  0
  152.2053  143.0756  160.0827 C   0  0  0  0  0  0  0  0  0  0  0  0
  152.5055  143.5920  161.1579 O   0  0  0  0  0  0  0  0  0  0  0  0
  153.4239  141.4361  160.3744 H   0  0  0  0  0  0  0  0  0  0  0  0
  149.9350  145.2833  158.6225 H   0  0  0  0  0  0  0  0  0  0  0  0
  151.3406  145.7374  159.5831 H   0  0  0  0  0  0  0  0  0  0  0  0
  149.9961  144.8690  160.3350 H   0  0  0  0  0  0  0  0  0  0  0  0
  150.3278  143.3874  157.2517 H   0  0  0  0  0  0  0  0  0  0  0  0
  152.1591  141.1797  155.6526 H   0  0  0  0  0  0  0  0  0  0  0  0
  151.8225  138.9290  156.4209 H   0  0  0  0  0  0  0  0  0  0  0  0
  150.5938  139.4516  157.5946 H   0  0  0  0  0  0  0  0  0  0  0  0
  150.2616  139.1698  154.5828 H   0  0  0  0  0  0  0  0  0  0  0  0
  149.3539  137.4980  155.6286 H   0  0  0  0  0  0  0  0  0  0  0  0
  148.4901  140.7788  156.4791 H   0  0  0  0  0  0  0  0  0  0  0  0
  147.6916  140.1900  154.0456 H   0  0  0  0  0  0  0  0  0  0  0  0
  147.7017  141.8957  154.4660 H   0  0  0  0  0  0  0  0  0  0  0  0
  149.2513  140.5874  152.6699 H   0  0  0  0  0  0  0  0  0  0  0  0
  1  2  1  0  0  0  0
  1 19  1  0  0  0  0
  1 20  1  0  0  0  0
  1 21  1  0  0  0  0
  2 16  1  0  0  0  0
  2  3  2  0  0  0  0
  3  4  1  0  0  0  0
  3 22  1  0  0  0  0
  4  5  1  0  0  0  0
  4 13  1  0  0  0  0
  5 12  1  0  0  0  0
  5  6  1  0  0  0  0
  5 23  1  0  0  0  0
  6  7  1  0  0  0  0
  6 24  1  0  0  0  0
  6 25  1  0  0  0  0
  7  8  1  0  0  0  0
  7  9  1  0  0  0  0
  7 26  1  0  0  0  0
  8 27  1  0  0  0  0
  9 10  1  0  0  0  0
  9 12  1  0  0  0  0
  9 28  1  0  0  0  0
 10 11  1  0  0  0  0
 10 29  1  0  0  0  0
 10 30  1  0  0  0  0
 11 31  1  0  0  0  0
 13 14  2  0  0  0  0
 13 15  1  0  0  0  0
 15 18  1  0  0  0  0
 15 16  1  0  0  0  0
 16 17  2  0  0  0  0
M  END
> <s_m_source_file>
AV-unprocessed.smi

> <i_m_source_file_index>
107

> <i_lp_mmshare_version>
43012

> <i_f3d_flags>
0

> <s_epik_input>
Tz1jMVtuSF1jKD1PKW4oW2NIXWMxW0NIM10pW0NAQEhdMltDSDJdW0NAQEhdKFtPSF0pW0NASF0oTzIpW0NIMl1bT0hd

> <s_epik_cmdline>
J2VwaWtfcHl0aG9uJywgJy1waCcsICc3LjAnLCAnLXRuJywgJzgnLCAnLW1hJywgJzIwMCcsICctbWV0YWxfYmluZGluZycsICctaW1hZScsICc8aW5maWxlLm1hZT4nLCAnLW9tYWUnLCAnPG91dGZpbGUubWFlPic=

> <r_lp_tautomer_probability>
0.999537

> <r_epik_Ionization_Penalty>
0.00121888

> <r_epik_Ionization_Penalty_Charging>
0.00121876

> <r_epik_Ionization_Penalty_Neutral>
1.19946e-07

> <r_epik_State_Penalty>
0.000805124

> <r_epik_Charging_Adjusted_Penalty>
0.00202389

> <i_epik_Tot_Q>
0

> <i_epik_Tot_abs_Q>
0

> <r_epik_Metal_State_Penalty>
0.662472

> <b_epik_Metal_Only>
0

> <s_epik_Chemistry_Notes>
This compound contains an acetal/aminal-like group ( X-CH(R)-Y where X, Y are N, S, or O) that may be acid/base labile, releasing an aldehyde.

> <s_lp_Force_Field>
OPLS_2005

> <r_lp_Energy>
25.0544

> <b_lp_Chiralities_Consistent>
1

> <s_lp_Variant>
AV-unprocessed.smi:107-6

> <Gold.Version>
5.8.1

> <Gold.Id.Protein>
6NUR|6NUR_protein|mol2

> <Gold.PLP.Fitness>
40.3146

> <Gold.PLP.PLP>
-29.2250

> <Gold.PLP.part.hbond>
-3.6292

> <Gold.PLP.part.metal>
0.0000

> <Gold.PLP.part.buried>
-5.5071

> <Gold.PLP.part.nonpolar>
-19.7798

> <Gold.PLP.part.repulsive>
0.2760

> <Gold.PLP.ligand.clash>
0.0000

> <Gold.PLP.ligand.torsion>
0.3520

> <Gold.PLP.Chemscore.Hbond>
2.9280

> <Gold.PLP.Chemscore.CHOScore>
1.0000

> <Gold.PLP.Chemscore.Metal>
0.0000

> <Gold.Chemscore.Hbonds>
donor molecule, donor type, donor heavy atom, donor atom, acceptor molecule, acceptor atom, score
      L1  H    11    31       P1  7957  0.93
      P1  H  7997  8008       L1    14  1.00
      P1  H  8011  8017       L1    11  0.95
      L1  C     3    22       P1  8028  1.00

> <Gold.PLP.Chemscore.Internal.Correction>
0.0096

> <Gold.Rescore>
     Score         DG    S(hbond)    S(metal)    S(lipo)     H(rot)  DE(clash)    DE(int)     intcor
     10.87     -12.34       2.42        0.00      49.26       2.73       0.02       1.45       ----

> <Gold.Chemscore.Fitness>
10.8658

> <Gold.Chemscore.DG>
-12.3433

> <Gold.Chemscore.ZeroCoef>
-5.4800

> <Gold.Chemscore.Hbond>
2.4180

> <Gold.Chemscore.Metal>
0.0000

> <Gold.Chemscore.Lipo>
49.2640

> <Gold.Chemscore.Internal_Hbond>
0.0000

> <Gold.Chemscore.DEClash>
0.0239

> <Gold.Chemscore.DEInternal>
1.4536

> <Gold.Chemscore.Rot>
2.7253

> <Gold.Chemscore.Internal.Correction>
   9.000000E+99

> <Gold.Chemscore.Hbonds>
donor molecule, donor type, donor heavy atom, donor atom, acceptor molecule, acceptor atom, score
      L1  H    11    31       P1  7957  0.89
      P1  H  7997  8008       L1    14  0.85
      P1  H  8011  8017       L1    11  0.20

> <Gold.Chemscore.Hbond.Weighted>
-8.0763

> <Gold.Chemscore.Metal.Weighted>
-0.0000

> <Gold.Chemscore.Lipo.Weighted>
-5.7639

> <Gold.Chemscore.Internal_Hbond.Weighted>
0.0000

> <Gold.Chemscore.DEClash.Weighted>
0.0239

> <Gold.Chemscore.DEInternal.Weighted>
1.4536

> <Gold.Chemscore.Rot.Weighted>
6.9769

> <Gold.Chemscore.Internal.Correction.Weighted>
   9.000000E+99

> <Gold.Protein.RotatedTorsions>
[ 6907 6896 6895 6894 ] final -102.45 input  -60.11 | X-H torsion
[ 7974 7965 7964 7962 ] final  118.73 input  175.53 | X-H torsion
[ 8008 7997 7996 7995 ] final  -78.69 input   59.86 | X-H torsion
[ 10167 10162 10161 10158 ] final   29.54 input  -65.29 | X-H torsion
[ 10718 10713 10712 10709 ] final -125.55 input   66.30 | X-H torsion
[ 10763 10752 10751 10750 ] final   48.15 input  -60.55 | X-H torsion
[ 11005 11000 10999 10996 ] final   97.39 input  -57.11 | X-H torsion

> <Gold.Protein.ActiveResidues>
 VAL166  LYS551  ARG553  GLY616  TRP617  ASP618  TYR619  PRO620  LYS621  CYS622 
 ASP623  PHE694  ASN695  SER759  ASP760  ASP761  ALA762  ILE779  LEU786  VAL792 
 PHE793  MET794  SER795  GLU796  ALA797  LYS798  CYS799  TRP800  GLU811  SER814 

> <Gold.Protein.RotatedAtoms>
  150.7196  134.0580  159.3820 H   0  0  0  0  0  0  0  0  0  0  0  0  # atno 6907 bound_to 6896
  151.8559  135.0539  160.0473 H   0  0  0  0  0  0  0  0  0  0  0  0  # atno 6908 bound_to 6896
  152.2755  133.5385  159.5502 H   0  0  0  0  0  0  0  0  0  0  0  0  # atno 6909 bound_to 6896
  145.1516  139.3207  143.4563 H   0  0  0  0  0  0  0  0  0  0  0  0  # atno 7974 bound_to 7965
  154.5713  140.0690  156.8968 H   0  0  0  0  0  0  0  0  0  0  0  0  # atno 8008 bound_to 7997
  155.2629  140.3360  155.4253 H   0  0  0  0  0  0  0  0  0  0  0  0  # atno 8009 bound_to 7997
  156.2120  140.1763  156.7658 H   0  0  0  0  0  0  0  0  0  0  0  0  # atno 8010 bound_to 7997
  140.4757  144.0694  150.6250 H   0  0  0  0  0  0  0  0  0  0  0  0  # atno 10167 bound_to 10162
  156.1685  130.6651  151.0148 H   0  0  0  0  0  0  0  0  0  0  0  0  # atno 10718 bound_to 10713
  152.9794  135.5953  154.3880 H   0  0  0  0  0  0  0  0  0  0  0  0  # atno 10763 bound_to 10752
  154.3538  135.2767  155.2359 H   0  0  0  0  0  0  0  0  0  0  0  0  # atno 10764 bound_to 10752
  154.4387  135.6018  153.6170 H   0  0  0  0  0  0  0  0  0  0  0  0  # atno 10765 bound_to 10752
  139.8776  134.8998  156.4300 H   0  0  0  0  0  0  0  0  0  0  0  0  # atno 11005 bound_to 11000
  146.3494  140.1592  142.8591 LP  0  0  0  0  0  0  0  0  0  0  0  0  # atno 17320 bound_to 7965
  145.0425  140.8956  143.5044 LP  0  0  0  0  0  0  0  0  0  0  0  0  # atno 17321 bound_to 7965
  140.3921  143.2747  152.0047 LP  0  0  0  0  0  0  0  0  0  0  0  0  # atno 17342 bound_to 10162
  139.4825  144.6068  151.7506 LP  0  0  0  0  0  0  0  0  0  0  0  0  # atno 17343 bound_to 10162
  157.6785  131.0844  150.7431 LP  0  0  0  0  0  0  0  0  0  0  0  0  # atno 17370 bound_to 10713
  156.7490  130.4763  149.5460 LP  0  0  0  0  0  0  0  0  0  0  0  0  # atno 17371 bound_to 10713
  140.9073  133.7736  155.9750 LP  0  0  0  0  0  0  0  0  0  0  0  0  # atno 17394 bound_to 11000
  140.8585  134.2869  157.5245 LP  0  0  0  0  0  0  0  0  0  0  0  0  # atno 17395 bound_to 11000

$$$$
