AV-unprocessed.smi:2706|AV-procd|sdf|10449|dock2
  -GOLD-   2272014493D 1   1.00000     0.00000
 Structure written by MMmdl.
 44 47  0  0  0  0  0  0  0  0  2 V2000
  150.8869  141.6652  156.2267 C   0  0  0  0  0  0  0  0  0  0  0  0
  150.5573  140.5448  155.3523 N   0  0  0  0  0  0  0  0  0  0  0  0
  151.4520  139.3979  155.2618 C   0  0  0  0  0  0  0  0  0  0  0  0
  149.3140  140.5163  154.6856 C   0  0  0  0  0  0  0  0  0  0  0  0
  148.5033  141.6624  154.5082 C   0  0  0  0  0  0  0  0  0  0  0  0
  147.2767  141.5476  153.8264 C   0  0  0  0  0  0  0  0  0  0  0  0
  146.8706  140.2933  153.3312 C   0  0  0  0  0  0  0  0  0  0  0  0
  147.7025  139.1633  153.5311 C   0  0  0  0  0  0  0  0  0  0  0  0
  147.4172  137.8443  153.0796 N   0  0  0  0  0  0  0  0  0  0  0  0
  146.2297  137.2428  152.8845 C   0  0  0  0  0  0  0  0  0  0  0  0
  145.1281  137.7500  153.0924 O   0  0  0  0  0  0  0  0  0  0  0  0
  146.3922  135.9921  152.4302 N   0  0  0  0  0  0  0  0  0  0  0  0
  145.3391  135.0844  152.1066 C   0  0  2  0  0  0  0  0  0  0  0  0
  145.6949  133.6078  152.0246 C   0  0  1  0  0  0  0  0  0  0  0  0
  144.6998  132.4529  151.9572 C   0  0  2  0  0  0  0  0  0  0  0  0
  145.1827  131.4758  150.8652 C   0  0  0  0  0  0  0  0  0  0  0  0
  144.9099  132.2681  149.5628 C   0  0  0  0  0  0  0  0  0  0  0  0
  144.3086  133.5859  150.0941 C   0  0  1  0  0  0  0  0  0  0  0  0
  143.4758  133.0483  151.2591 C   0  0  0  0  0  0  0  0  0  0  0  0
  145.4298  134.3745  150.7643 C   0  0  1  0  0  0  0  0  0  0  0  0
  148.8720  139.3345  154.1899 N   0  3  0  0  0  0  0  0  0  0  0  0
  150.1741  141.7321  157.0494 H   0  0  0  0  0  0  0  0  0  0  0  0
  150.8691  142.6043  155.6721 H   0  0  0  0  0  0  0  0  0  0  0  0
  151.8829  141.5535  156.6553 H   0  0  0  0  0  0  0  0  0  0  0  0
  150.9606  138.4972  155.6316 H   0  0  0  0  0  0  0  0  0  0  0  0
  152.3549  139.5513  155.8534 H   0  0  0  0  0  0  0  0  0  0  0  0
  151.7570  139.2303  154.2283 H   0  0  0  0  0  0  0  0  0  0  0  0
  148.8023  142.6300  154.8830 H   0  0  0  0  0  0  0  0  0  0  0  0
  146.6520  142.4170  153.6825 H   0  0  0  0  0  0  0  0  0  0  0  0
  145.9307  140.2355  152.8059 H   0  0  0  0  0  0  0  0  0  0  0  0
  148.2283  137.2757  152.8863 H   0  0  0  0  0  0  0  0  0  0  0  0
  147.3334  135.6535  152.2929 H   0  0  0  0  0  0  0  0  0  0  0  0
  144.3472  135.3435  152.4705 H   0  0  0  0  0  0  0  0  0  0  0  0
  146.7252  133.3299  152.2416 H   0  0  0  0  0  0  0  0  0  0  0  0
  144.5119  131.9979  152.9300 H   0  0  0  0  0  0  0  0  0  0  0  0
  146.2352  131.2135  150.9799 H   0  0  0  0  0  0  0  0  0  0  0  0
  144.6032  130.5517  150.8830 H   0  0  0  0  0  0  0  0  0  0  0  0
  145.8159  132.4329  148.9783 H   0  0  0  0  0  0  0  0  0  0  0  0
  144.1955  131.7380  148.9315 H   0  0  0  0  0  0  0  0  0  0  0  0
  143.7615  134.1722  149.3553 H   0  0  0  0  0  0  0  0  0  0  0  0
  142.7397  132.3002  150.9579 H   0  0  0  0  0  0  0  0  0  0  0  0
  142.9587  133.8156  151.8343 H   0  0  0  0  0  0  0  0  0  0  0  0
  146.2811  134.6145  150.1295 H   0  0  0  0  0  0  0  0  0  0  0  0
  149.4676  138.5182  154.3269 H   0  0  0  0  0  0  0  0  0  0  0  0
  1  2  1  0  0  0  0
  1 22  1  0  0  0  0
  1 23  1  0  0  0  0
  1 24  1  0  0  0  0
  2  3  1  0  0  0  0
  2  4  1  0  0  0  0
  3 25  1  0  0  0  0
  3 26  1  0  0  0  0
  3 27  1  0  0  0  0
  4 21  1  0  0  0  0
  4  5  2  0  0  0  0
  5  6  1  0  0  0  0
  5 28  1  0  0  0  0
  6  7  2  0  0  0  0
  6 29  1  0  0  0  0
  7  8  1  0  0  0  0
  7 30  1  0  0  0  0
  8  9  1  0  0  0  0
  8 21  2  0  0  0  0
  9 10  1  0  0  0  0
  9 31  1  0  0  0  0
 10 11  2  0  0  0  0
 10 12  1  0  0  0  0
 12 13  1  0  0  0  0
 12 32  1  0  0  0  0
 13 20  1  0  0  0  0
 13 14  1  0  0  0  0
 13 33  1  0  0  0  0
 14 20  1  0  0  0  0
 14 15  1  0  0  0  0
 14 34  1  0  0  0  0
 15 19  1  0  0  0  0
 15 16  1  0  0  0  0
 15 35  1  0  0  0  0
 16 17  1  0  0  0  0
 16 36  1  0  0  0  0
 16 37  1  0  0  0  0
 17 18  1  0  0  0  0
 17 38  1  0  0  0  0
 17 39  1  0  0  0  0
 18 19  1  0  0  0  0
 18 20  1  0  0  0  0
 18 40  1  0  0  0  0
 19 41  1  0  0  0  0
 19 42  1  0  0  0  0
 20 43  1  0  0  0  0
 21 44  1  0  0  0  0
M  CHG  1  21   1
M  END
> <s_m_source_file>
AV-unprocessed.smi

> <i_m_source_file_index>
2706

> <i_lp_mmshare_version>
43012

> <i_f3d_flags>
0

> <s_epik_input>
W0NIM11OKFtDSDNdKWMxW2NIXVtjSF1bY0hdYyhuMSlbTkhdQyg9TylbTkhdW0NASF0yW0NAQEhdM1tDQEBIXShbQ0gyXTQpW0NIMl1bQ0gyXVtDQEBIXTRbQ0BIXTIz

> <s_epik_cmdline>
J2VwaWtfcHl0aG9uJywgJy1waCcsICc3LjAnLCAnLXRuJywgJzgnLCAnLW1hJywgJzIwMCcsICctbWV0YWxfYmluZGluZycsICctaW1hZScsICc8aW5maWxlLm1hZT4nLCAnLW9tYWUnLCAnPG91dGZpbGUubWFlPic=

> <r_lp_tautomer_probability>
0.999994

> <r_epik_Ionization_Penalty>
1.8105

> <r_epik_Ionization_Penalty_Charging>
1.79227

> <r_epik_Ionization_Penalty_Neutral>
0.0182286

> <r_epik_State_Penalty>
1.90588

> <r_epik_Charging_Adjusted_Penalty>
3.69815

> <i_epik_Tot_Q>
1

> <i_epik_Tot_abs_Q>
1

> <r_epik_Metal_State_Penalty>
1.93501

> <b_epik_Metal_Only>
0

> <s_lp_Force_Field>
OPLS_2005

> <r_lp_Energy>
85.2099

> <b_lp_Chiralities_Consistent>
1

> <s_lp_Variant>
AV-unprocessed.smi:2706-6

> <Gold.Version>
5.8.1

> <Gold.Id.Protein>
6NUR|6NUR_protein|mol2

> <Gold.PLP.Fitness>
46.9094

> <Gold.PLP.PLP>
-42.4753

> <Gold.PLP.part.hbond>
-2.4919

> <Gold.PLP.part.metal>
0.0000

> <Gold.PLP.part.buried>
-2.6054

> <Gold.PLP.part.nonpolar>
-37.7233

> <Gold.PLP.part.repulsive>
0.3623

> <Gold.PLP.ligand.clash>
0.0000

> <Gold.PLP.ligand.torsion>
0.4645

> <Gold.PLP.Chemscore.Hbond>
1.7760

> <Gold.PLP.Chemscore.CHOScore>
0.0000

> <Gold.PLP.Chemscore.Metal>
0.0000

> <Gold.Chemscore.Hbonds>
donor molecule, donor type, donor heavy atom, donor atom, acceptor molecule, acceptor atom, score
      L1  H     9    31       P1  7948  0.94
      L1  H    12    32       P1  7948  0.83

> <Gold.PLP.Chemscore.Internal.Correction>
0.0352

> <Gold.Rescore>
     Score         DG    S(hbond)    S(metal)    S(lipo)     H(rot)  DE(clash)    DE(int)     intcor
     19.43     -20.03       1.87        0.00      92.99       1.00       0.10       0.49       ----

> <Gold.Chemscore.Fitness>
19.4329

> <Gold.Chemscore.DG>
-20.0298

> <Gold.Chemscore.ZeroCoef>
-5.4800

> <Gold.Chemscore.Hbond>
1.8652

> <Gold.Chemscore.Metal>
0.0000

> <Gold.Chemscore.Lipo>
92.9928

> <Gold.Chemscore.Internal_Hbond>
0.0000

> <Gold.Chemscore.DEClash>
0.1045

> <Gold.Chemscore.DEInternal>
0.4924

> <Gold.Chemscore.Rot>
1.0000

> <Gold.Chemscore.Internal.Correction>
   9.000000E+99

> <Gold.Chemscore.Hbonds>
donor molecule, donor type, donor heavy atom, donor atom, acceptor molecule, acceptor atom, score
      L1  H     9    31       P1  7948  0.90
      L1  H    12    32       P1  7948  0.83

> <Gold.Chemscore.Hbond.Weighted>
-6.2297

> <Gold.Chemscore.Metal.Weighted>
-0.0000

> <Gold.Chemscore.Lipo.Weighted>
-10.8802

> <Gold.Chemscore.Internal_Hbond.Weighted>
0.0000

> <Gold.Chemscore.DEClash.Weighted>
0.1045

> <Gold.Chemscore.DEInternal.Weighted>
0.4924

> <Gold.Chemscore.Rot.Weighted>
2.5600

> <Gold.Chemscore.Internal.Correction.Weighted>
   9.000000E+99

> <Gold.Protein.RotatedTorsions>
[ 6907 6896 6895 6894 ] final -177.48 input  -60.11 | X-H torsion
[ 7974 7965 7964 7962 ] final  -58.62 input  175.53 | X-H torsion
[ 8008 7997 7996 7995 ] final -151.97 input   59.86 | X-H torsion
[ 10167 10162 10161 10158 ] final  -51.33 input  -65.29 | X-H torsion
[ 10718 10713 10712 10709 ] final  -86.16 input   66.30 | X-H torsion
[ 10763 10752 10751 10750 ] final   89.31 input  -60.55 | X-H torsion
[ 11005 11000 10999 10996 ] final  -51.11 input  -57.11 | X-H torsion

> <Gold.Protein.ActiveResidues>
 VAL166  LYS551  ARG553  GLY616  TRP617  ASP618  TYR619  PRO620  LYS621  CYS622 
 ASP623  PHE694  ASN695  SER759  ASP760  ASP761  ALA762  ILE779  LEU786  VAL792 
 PHE793  MET794  SER795  GLU796  ALA797  LYS798  CYS799  TRP800  GLU811  SER814 

> <Gold.Protein.RotatedAtoms>
  151.6217  133.3338  159.3089 H   0  0  0  0  0  0  0  0  0  0  0  0  # atno 6907 bound_to 6896
  150.8102  134.7256  159.6692 H   0  0  0  0  0  0  0  0  0  0  0  0  # atno 6908 bound_to 6896
  152.4199  134.5979  160.0043 H   0  0  0  0  0  0  0  0  0  0  0  0  # atno 6909 bound_to 6896
  145.8372  140.8441  143.0053 H   0  0  0  0  0  0  0  0  0  0  0  0  # atno 7974 bound_to 7965
  155.6478  140.0708  157.2597 H   0  0  0  0  0  0  0  0  0  0  0  0  # atno 8008 bound_to 7997
  154.4169  140.1739  156.1692 H   0  0  0  0  0  0  0  0  0  0  0  0  # atno 8009 bound_to 7997
  155.9802  140.3354  155.6659 H   0  0  0  0  0  0  0  0  0  0  0  0  # atno 8010 bound_to 7997
  140.6594  143.2624  151.4488 H   0  0  0  0  0  0  0  0  0  0  0  0  # atno 10167 bound_to 10162
  155.9991  130.4755  150.4673 H   0  0  0  0  0  0  0  0  0  0  0  0  # atno 10718 bound_to 10713
  153.1858  135.4475  155.0087 H   0  0  0  0  0  0  0  0  0  0  0  0  # atno 10763 bound_to 10752
  154.8059  135.3274  154.7434 H   0  0  0  0  0  0  0  0  0  0  0  0  # atno 10764 bound_to 10752
  153.7893  135.6971  153.4929 H   0  0  0  0  0  0  0  0  0  0  0  0  # atno 10765 bound_to 10752
  141.0853  133.6644  156.3829 H   0  0  0  0  0  0  0  0  0  0  0  0  # atno 11005 bound_to 11000
  144.6736  140.0758  143.7471 LP  0  0  0  0  0  0  0  0  0  0  0  0  # atno 17320 bound_to 7965
  145.9506  139.2731  143.1214 LP  0  0  0  0  0  0  0  0  0  0  0  0  # atno 17321 bound_to 7965
  139.5824  144.1681  152.1985 LP  0  0  0  0  0  0  0  0  0  0  0  0  # atno 17342 bound_to 10162
  140.1010  144.5540  150.6989 LP  0  0  0  0  0  0  0  0  0  0  0  0  # atno 17343 bound_to 10162
  157.2691  131.0583  151.2271 LP  0  0  0  0  0  0  0  0  0  0  0  0  # atno 17370 bound_to 10713
  157.3358  130.7008  149.6352 LP  0  0  0  0  0  0  0  0  0  0  0  0  # atno 17371 bound_to 10713
  140.5377  134.6151  157.5370 LP  0  0  0  0  0  0  0  0  0  0  0  0  # atno 17394 bound_to 11000
  139.9670  134.7355  156.0117 LP  0  0  0  0  0  0  0  0  0  0  0  0  # atno 17395 bound_to 11000

$$$$
