AV-unprocessed.smi:2721|AV-procd|sdf|10500|dock3
  -GOLD-   2272014543D 1   1.00000     0.00000
 Structure written by MMmdl.
 29 30  0  0  0  0  0  0  0  0  2 V2000
  151.2252  138.4045  154.9807 C   0  0  0  0  0  0  0  0  0  0  0  0
  151.0817  139.6630  155.6808 N   0  0  0  0  0  0  0  0  0  0  0  0
  151.3325  139.9439  157.0065 C   0  0  0  0  0  0  0  0  0  0  0  0
  151.0488  141.2662  157.2069 C   0  0  0  0  0  0  0  0  0  0  0  0
  151.1743  142.0793  158.4689 C   0  0  1  0  0  0  0  0  0  0  0  0
  152.5336  142.0971  158.9011 O   0  0  0  0  0  0  0  0  0  0  0  0
  152.7395  142.7615  160.1431 C   0  0  0  0  0  0  0  0  0  0  0  0
  152.3512  144.2404  160.0085 C   0  0  0  0  0  0  0  0  0  0  0  0
  150.9008  144.3638  159.5327 C   0  0  0  0  0  0  0  0  0  0  0  0
  150.6943  143.5363  158.2549 C   0  0  2  0  0  0  0  0  0  0  0  0
  149.2797  143.5859  157.8384 N   0  3  0  0  0  0  0  0  0  0  0  0
  150.6266  141.7105  155.9211 C   0  0  0  0  0  0  0  0  0  0  0  0
  150.6483  140.7508  155.0117 N   0  0  0  0  0  0  0  0  0  0  0  0
  150.5775  141.6188  159.2586 H   0  0  0  0  0  0  0  0  0  0  0  0
  151.2825  143.9856  157.4531 H   0  0  0  0  0  0  0  0  0  0  0  0
  151.7706  137.6923  155.6004 H   0  0  0  0  0  0  0  0  0  0  0  0
  151.7740  138.5562  154.0506 H   0  0  0  0  0  0  0  0  0  0  0  0
  150.2400  137.9965  154.7531 H   0  0  0  0  0  0  0  0  0  0  0  0
  151.6898  139.1888  157.6914 H   0  0  0  0  0  0  0  0  0  0  0  0
  152.1625  142.2748  160.9308 H   0  0  0  0  0  0  0  0  0  0  0  0
  153.7907  142.6740  160.4186 H   0  0  0  0  0  0  0  0  0  0  0  0
  152.4820  144.7541  160.9613 H   0  0  0  0  0  0  0  0  0  0  0  0
  153.0163  144.7289  159.2950 H   0  0  0  0  0  0  0  0  0  0  0  0
  150.2311  144.0110  160.3186 H   0  0  0  0  0  0  0  0  0  0  0  0
  150.6536  145.4114  159.3563 H   0  0  0  0  0  0  0  0  0  0  0  0
  149.2233  143.6103  156.8302 H   0  0  0  0  0  0  0  0  0  0  0  0
  148.8469  144.4155  158.2194 H   0  0  0  0  0  0  0  0  0  0  0  0
  150.3113  142.6993  155.6229 H   0  0  0  0  0  0  0  0  0  0  0  0
  148.7974  142.7681  158.1828 H   0  0  0  0  0  0  0  0  0  0  0  0
  1  2  1  0  0  0  0
  1 16  1  0  0  0  0
  1 17  1  0  0  0  0
  1 18  1  0  0  0  0
  2 13  1  0  0  0  0
  2  3  1  0  0  0  0
  3  4  2  0  0  0  0
  3 19  1  0  0  0  0
  4  5  1  0  0  0  0
  4 12  1  0  0  0  0
  5 14  1  0  0  0  0
  5 10  1  0  0  0  0
  5  6  1  0  0  0  0
  6  7  1  0  0  0  0
  7  8  1  0  0  0  0
  7 20  1  0  0  0  0
  7 21  1  0  0  0  0
  8  9  1  0  0  0  0
  8 22  1  0  0  0  0
  8 23  1  0  0  0  0
  9 10  1  0  0  0  0
  9 24  1  0  0  0  0
  9 25  1  0  0  0  0
 10 15  1  0  0  0  0
 10 11  1  0  0  0  0
 11 26  1  0  0  0  0
 11 27  1  0  0  0  0
 11 29  1  0  0  0  0
 12 13  2  0  0  0  0
 12 28  1  0  0  0  0
M  CHG  1  11   1
M  END
> <s_m_source_file>
AV-unprocessed.smi

> <i_m_source_file_index>
2721

> <i_lp_mmshare_version>
43012

> <i_f3d_flags>
0

> <s_epik_input>
W0NIM11uMVtjSF1jKFtjSF1uMSlbQ0BIXTJPW0NIMl1bQ0gyXVtDSDJdW0NAQEhdMltOSDJd

> <s_epik_cmdline>
J2VwaWtfcHl0aG9uJywgJy1waCcsICc3LjAnLCAnLXRuJywgJzgnLCAnLW1hJywgJzIwMCcsICctbWV0YWxfYmluZGluZycsICctaW1hZScsICc8aW5maWxlLm1hZT4nLCAnLW9tYWUnLCAnPG91dGZpbGUubWFlPic=

> <r_lp_tautomer_probability>
1

> <r_epik_Ionization_Penalty>
0.0061467

> <r_epik_Ionization_Penalty_Charging>
0.00611941

> <r_epik_Ionization_Penalty_Neutral>
2.72888e-05

> <r_epik_State_Penalty>
0.00451057

> <r_epik_Charging_Adjusted_Penalty>
0.01063

> <i_epik_Tot_Q>
1

> <i_epik_Tot_abs_Q>
1

> <r_epik_Metal_State_Penalty>
-0

> <b_epik_Metal_Only>
0

> <s_lp_Force_Field>
OPLS_2005

> <r_lp_Energy>
11.0235

> <b_lp_Chiralities_Consistent>
1

> <s_lp_Variant>
AV-unprocessed.smi:2721-1

> <Gold.Version>
5.8.1

> <Gold.Id.Protein>
6NUR|6NUR_protein|mol2

> <Gold.PLP.Fitness>
41.4220

> <Gold.PLP.PLP>
-27.8821

> <Gold.PLP.part.hbond>
-2.7853

> <Gold.PLP.part.metal>
0.0000

> <Gold.PLP.part.buried>
-1.8824

> <Gold.PLP.part.nonpolar>
-22.9021

> <Gold.PLP.part.repulsive>
0.1116

> <Gold.PLP.ligand.clash>
0.0000

> <Gold.PLP.ligand.torsion>
0.0115

> <Gold.PLP.Chemscore.Hbond>
3.5200

> <Gold.PLP.Chemscore.CHOScore>
1.0000

> <Gold.PLP.Chemscore.Metal>
0.0000

> <Gold.Chemscore.Hbonds>
donor molecule, donor type, donor heavy atom, donor atom, acceptor molecule, acceptor atom, score
      L1  H    11    26       P1  8028  1.44
      L1  H    11    27       P1  8029  1.18
      P1  H  7989  7998       L1    13  0.86
      L1  C    12    28       P1  8028  1.00

> <Gold.PLP.Chemscore.Internal.Correction>
0.0029

> <Gold.Rescore>
     Score         DG    S(hbond)    S(metal)    S(lipo)     H(rot)  DE(clash)    DE(int)     intcor
     16.30     -17.35       1.60        0.00      77.72       1.00       0.04       1.01       ----

> <Gold.Chemscore.Fitness>
16.3004

> <Gold.Chemscore.DG>
-17.3451

> <Gold.Chemscore.ZeroCoef>
-5.4800

> <Gold.Chemscore.Hbond>
1.5963

> <Gold.Chemscore.Metal>
0.0000

> <Gold.Chemscore.Lipo>
77.7229

> <Gold.Chemscore.Internal_Hbond>
0.0000

> <Gold.Chemscore.DEClash>
0.0351

> <Gold.Chemscore.DEInternal>
1.0096

> <Gold.Chemscore.Rot>
1.0000

> <Gold.Chemscore.Internal.Correction>
   9.000000E+99

> <Gold.Chemscore.Hbonds>
donor molecule, donor type, donor heavy atom, donor atom, acceptor molecule, acceptor atom, score
      L1  H    11    26       P1  8028  0.63
      L1  H    11    27       P1  8029  0.16
      P1  H  7989  7998       L1    13  0.56

> <Gold.Chemscore.Hbond.Weighted>
-5.3315

> <Gold.Chemscore.Metal.Weighted>
-0.0000

> <Gold.Chemscore.Lipo.Weighted>
-9.0936

> <Gold.Chemscore.Internal_Hbond.Weighted>
0.0000

> <Gold.Chemscore.DEClash.Weighted>
0.0351

> <Gold.Chemscore.DEInternal.Weighted>
1.0096

> <Gold.Chemscore.Rot.Weighted>
2.5600

> <Gold.Chemscore.Internal.Correction.Weighted>
   9.000000E+99

> <Gold.Protein.RotatedTorsions>
[ 6907 6896 6895 6894 ] final   59.80 input  -60.11 | X-H torsion
[ 7974 7965 7964 7962 ] final  -36.57 input  175.53 | X-H torsion
[ 8008 7997 7996 7995 ] final  100.74 input   59.86 | X-H torsion
[ 10167 10162 10161 10158 ] final  -41.44 input  -65.29 | X-H torsion
[ 10718 10713 10712 10709 ] final -141.06 input   66.30 | X-H torsion
[ 10763 10752 10751 10750 ] final   91.87 input  -60.55 | X-H torsion
[ 11005 11000 10999 10996 ] final  -10.47 input  -57.11 | X-H torsion

> <Gold.Protein.ActiveResidues>
 VAL166  LYS551  ARG553  GLY616  TRP617  ASP618  TYR619  PRO620  LYS621  CYS622 
 ASP623  PHE694  ASN695  SER759  ASP760  ASP761  ALA762  ILE779  LEU786  VAL792 
 PHE793  MET794  SER795  GLU796  ALA797  LYS798  CYS799  TRP800  GLU811  SER814 

> <Gold.Protein.RotatedAtoms>
  152.3947  134.6384  160.0093 H   0  0  0  0  0  0  0  0  0  0  0  0  # atno 6907 bound_to 6896
  151.6608  133.3311  159.3181 H   0  0  0  0  0  0  0  0  0  0  0  0  # atno 6908 bound_to 6896
  150.7857  134.6883  159.6527 H   0  0  0  0  0  0  0  0  0  0  0  0  # atno 6909 bound_to 6896
  146.0650  140.6294  142.8979 H   0  0  0  0  0  0  0  0  0  0  0  0  # atno 7974 bound_to 7965
  156.1232  140.3208  155.8239 H   0  0  0  0  0  0  0  0  0  0  0  0  # atno 8008 bound_to 7997
  155.4466  140.0529  157.3022 H   0  0  0  0  0  0  0  0  0  0  0  0  # atno 8009 bound_to 7997
  154.4843  140.2066  155.9705 H   0  0  0  0  0  0  0  0  0  0  0  0  # atno 8010 bound_to 7997
  140.7002  143.3094  151.3067 H   0  0  0  0  0  0  0  0  0  0  0  0  # atno 10167 bound_to 10162
  156.3296  130.7579  151.1694 H   0  0  0  0  0  0  0  0  0  0  0  0  # atno 10718 bound_to 10713
  153.2130  135.4382  155.0402 H   0  0  0  0  0  0  0  0  0  0  0  0  # atno 10763 bound_to 10752
  154.8210  135.3337  154.7040 H   0  0  0  0  0  0  0  0  0  0  0  0  # atno 10764 bound_to 10752
  153.7477  135.7000  153.5008 H   0  0  0  0  0  0  0  0  0  0  0  0  # atno 10765 bound_to 10752
  140.7451  133.8638  155.8999 H   0  0  0  0  0  0  0  0  0  0  0  0  # atno 11005 bound_to 11000
  144.7197  140.4331  143.7017 LP  0  0  0  0  0  0  0  0  0  0  0  0  # atno 17320 bound_to 7965
  145.6493  139.1562  143.2871 LP  0  0  0  0  0  0  0  0  0  0  0  0  # atno 17321 bound_to 7965
  139.6512  144.0359  152.2627 LP  0  0  0  0  0  0  0  0  0  0  0  0  # atno 17342 bound_to 10162
  139.9896  144.6371  150.7826 LP  0  0  0  0  0  0  0  0  0  0  0  0  # atno 17343 bound_to 10162
  157.7428  131.0485  150.4997 LP  0  0  0  0  0  0  0  0  0  0  0  0  # atno 17370 bound_to 10713
  156.5161  130.4151  149.6275 LP  0  0  0  0  0  0  0  0  0  0  0  0  # atno 17371 bound_to 10713
  140.9802  134.1416  157.4501 LP  0  0  0  0  0  0  0  0  0  0  0  0  # atno 17394 bound_to 11000
  139.8798  135.0008  156.6030 LP  0  0  0  0  0  0  0  0  0  0  0  0  # atno 17395 bound_to 11000

$$$$
