AV-unprocessed.smi:252|AV-procd|sdf|1936|dock9
  -GOLD-   2262021 63D 1   1.00000     0.00000
 Structure written by MMmdl.
 56 59  0  0  0  0  0  0  0  0  1 V2000
  147.5502  127.1108  151.4969 C   0  0  0  0  0  0  0  0  0  0  0  0
  147.6507  128.3440  152.4084 C   0  0  0  0  0  0  0  0  0  0  0  0
  146.3965  129.2236  152.3858 C   0  0  0  0  0  0  0  0  0  0  0  0
  145.2974  128.7656  152.7002 O   0  0  0  0  0  0  0  0  0  0  0  0
  146.5808  130.4976  152.0075 N   0  0  0  0  0  0  0  0  0  0  0  0
  145.5327  131.5080  151.9070 C   0  0  2  0  0  0  0  0  0  0  0  0
  144.8674  131.4643  150.5172 C   0  0  0  0  0  0  0  0  0  0  0  0
  143.8419  132.5990  150.3774 C   0  0  0  0  0  0  0  0  0  0  0  0
  144.4840  133.9623  150.6788 C   0  0  0  0  0  0  0  0  0  0  0  0
  145.1345  133.9513  151.9902 N   0  0  0  0  0  0  0  0  0  0  0  0
  145.4654  135.1473  152.5402 C   0  0  0  0  0  0  0  0  0  0  0  0
  144.9418  136.2962  152.0338 N   0  0  0  0  0  0  0  0  0  0  0  0
  145.2762  137.4790  152.5578 C   0  0  0  0  0  0  0  0  0  0  0  0
  146.1010  137.7384  153.5738 N   0  0  0  0  0  0  0  0  0  0  0  0
  146.6203  136.5901  154.0949 C   0  0  0  0  0  0  0  0  0  0  0  0
  146.3587  135.2658  153.6424 C   0  0  0  0  0  0  0  0  0  0  0  0
  147.0613  134.3536  154.4214 N   0  0  0  0  0  0  0  0  0  0  0  0
  147.7094  135.0963  155.2763 C   0  0  0  0  0  0  0  0  0  0  0  0
  147.4981  136.4512  155.1562 N   0  0  0  0  0  0  0  0  0  0  0  0
  148.0897  137.5020  155.9708 C   0  0  0  0  0  0  0  0  0  0  0  0
  149.3826  138.1065  155.3621 C   0  0  1  0  0  0  0  0  0  0  0  0
  149.1177  138.4412  154.0101 O   0  0  0  0  0  0  0  0  0  0  0  0
  149.8557  139.3734  156.0710 C   0  0  0  0  0  0  0  0  0  0  0  0
  151.3619  139.3433  155.8615 C   0  0  0  0  0  0  0  0  0  0  0  0
  151.6624  137.9686  156.0203 O   0  0  0  0  0  0  0  0  0  0  0  0
  150.6453  137.1985  155.3852 C   0  0  1  0  0  0  0  0  0  0  0  0
  150.5287  135.8657  156.1414 C   0  0  0  0  0  0  0  0  0  0  0  0
  146.1339  132.8996  152.1763 C   0  0  0  0  0  0  0  0  0  0  0  0
  148.4817  126.5446  151.5115 H   0  0  0  0  0  0  0  0  0  0  0  0
  147.3534  127.3951  150.4624 H   0  0  0  0  0  0  0  0  0  0  0  0
  146.7534  126.4397  151.8201 H   0  0  0  0  0  0  0  0  0  0  0  0
  147.8365  128.0285  153.4355 H   0  0  0  0  0  0  0  0  0  0  0  0
  148.5090  128.9452  152.1046 H   0  0  0  0  0  0  0  0  0  0  0  0
  147.5176  130.7885  151.7681 H   0  0  0  0  0  0  0  0  0  0  0  0
  144.7743  131.3165  152.6689 H   0  0  0  0  0  0  0  0  0  0  0  0
  145.6254  131.5622  149.7388 H   0  0  0  0  0  0  0  0  0  0  0  0
  144.3787  130.5024  150.3585 H   0  0  0  0  0  0  0  0  0  0  0  0
  143.4172  132.5998  149.3733 H   0  0  0  0  0  0  0  0  0  0  0  0
  143.0129  132.4271  151.0651 H   0  0  0  0  0  0  0  0  0  0  0  0
  145.2218  134.2034  149.9121 H   0  0  0  0  0  0  0  0  0  0  0  0
  143.7177  134.7378  150.6460 H   0  0  0  0  0  0  0  0  0  0  0  0
  144.8190  138.3412  152.0951 H   0  0  0  0  0  0  0  0  0  0  0  0
  148.3619  134.6717  156.0253 H   0  0  0  0  0  0  0  0  0  0  0  0
  147.3332  138.2759  156.1043 H   0  0  0  0  0  0  0  0  0  0  0  0
  148.2907  137.0923  156.9614 H   0  0  0  0  0  0  0  0  0  0  0  0
  148.7783  137.6757  153.5721 H   0  0  0  0  0  0  0  0  0  0  0  0
  149.3884  140.2878  155.7028 H   0  0  0  0  0  0  0  0  0  0  0  0
  149.6511  139.3036  157.1400 H   0  0  0  0  0  0  0  0  0  0  0  0
  151.6278  139.6673  154.8541 H   0  0  0  0  0  0  0  0  0  0  0  0
  151.9020  139.9600  156.5800 H   0  0  0  0  0  0  0  0  0  0  0  0
  150.9799  136.9869  154.3678 H   0  0  0  0  0  0  0  0  0  0  0  0
  149.7719  135.2199  155.6959 H   0  0  0  0  0  0  0  0  0  0  0  0
  150.2738  136.0202  157.1901 H   0  0  0  0  0  0  0  0  0  0  0  0
  151.4747  135.3247  156.1135 H   0  0  0  0  0  0  0  0  0  0  0  0
  146.5522  132.9224  153.1822 H   0  0  0  0  0  0  0  0  0  0  0  0
  146.9623  133.0881  151.4915 H   0  0  0  0  0  0  0  0  0  0  0  0
  1  2  1  0  0  0  0
  1 29  1  0  0  0  0
  1 30  1  0  0  0  0
  1 31  1  0  0  0  0
  2  3  1  0  0  0  0
  2 32  1  0  0  0  0
  2 33  1  0  0  0  0
  3  4  2  0  0  0  0
  3  5  1  0  0  0  0
  5  6  1  0  0  0  0
  5 34  1  0  0  0  0
  6 28  1  0  0  0  0
  6  7  1  0  0  0  0
  6 35  1  0  0  0  0
  7  8  1  0  0  0  0
  7 36  1  0  0  0  0
  7 37  1  0  0  0  0
  8  9  1  0  0  0  0
  8 38  1  0  0  0  0
  8 39  1  0  0  0  0
  9 10  1  0  0  0  0
  9 40  1  0  0  0  0
  9 41  1  0  0  0  0
 10 11  1  0  0  0  0
 10 28  1  0  0  0  0
 11 16  1  0  0  0  0
 11 12  2  0  0  0  0
 12 13  1  0  0  0  0
 13 14  2  0  0  0  0
 13 42  1  0  0  0  0
 14 15  1  0  0  0  0
 15 19  1  0  0  0  0
 15 16  2  0  0  0  0
 16 17  1  0  0  0  0
 17 18  2  0  0  0  0
 18 19  1  0  0  0  0
 18 43  1  0  0  0  0
 19 20  1  0  0  0  0
 20 21  1  0  0  0  0
 20 44  1  0  0  0  0
 20 45  1  0  0  0  0
 21 26  1  0  0  0  0
 21 22  1  0  0  0  0
 21 23  1  0  0  0  0
 22 46  1  0  0  0  0
 23 24  1  0  0  0  0
 23 47  1  0  0  0  0
 23 48  1  0  0  0  0
 24 25  1  0  0  0  0
 24 49  1  0  0  0  0
 24 50  1  0  0  0  0
 25 26  1  0  0  0  0
 26 27  1  0  0  0  0
 26 51  1  0  0  0  0
 27 52  1  0  0  0  0
 27 53  1  0  0  0  0
 27 54  1  0  0  0  0
 28 55  1  0  0  0  0
 28 56  1  0  0  0  0
M  END
> <s_m_source_file>
AV-unprocessed.smi

> <i_m_source_file_index>
252

> <i_lp_mmshare_version>
43012

> <i_f3d_flags>
0

> <s_epik_input>
W0NIM11bQ0gyXUMoPU8pW05IXVtDQEBIXTFbQ0gyXVtDSDJdW0NIMl1OKFtDSDJdMSljKG5bY0hdbjIpYyhjMjMpbltjSF1uM1tDSDJdW0NAQF00KFtPSF0pW0NIMl1bQ0gyXU9bQ0BIXTRbQ0gzXQ==

> <s_epik_cmdline>
J2VwaWtfcHl0aG9uJywgJy1waCcsICc3LjAnLCAnLXRuJywgJzgnLCAnLW1hJywgJzIwMCcsICctbWV0YWxfYmluZGluZycsICctaW1hZScsICc8aW5maWxlLm1hZT4nLCAnLW9tYWUnLCAnPG91dGZpbGUubWFlPic=

> <r_lp_tautomer_probability>
1

> <r_epik_Ionization_Penalty>
0.00182575

> <r_epik_Ionization_Penalty_Charging>
0

> <r_epik_Ionization_Penalty_Neutral>
0.00182575

> <r_epik_State_Penalty>
0.00104524

> <r_epik_Charging_Adjusted_Penalty>
0.00104524

> <i_epik_Tot_Q>
0

> <i_epik_Tot_abs_Q>
0

> <r_epik_Metal_State_Penalty>
-0

> <b_epik_Metal_Only>
0

> <s_lp_Force_Field>
OPLS_2005

> <r_lp_Energy>
34.3477

> <b_lp_Chiralities_Consistent>
1

> <s_lp_Variant>
AV-unprocessed.smi:252-1

> <Gold.Version>
5.8.1

> <Gold.Id.Protein>
6NUR|6NUR_protein|mol2

> <Gold.PLP.Fitness>
49.2750

> <Gold.PLP.PLP>
-39.7612

> <Gold.PLP.part.hbond>
-3.0000

> <Gold.PLP.part.metal>
0.0000

> <Gold.PLP.part.buried>
-1.7218

> <Gold.PLP.part.nonpolar>
-34.7706

> <Gold.PLP.part.repulsive>
0.7107

> <Gold.PLP.ligand.clash>
0.0000

> <Gold.PLP.ligand.torsion>
1.3554

> <Gold.PLP.Chemscore.Hbond>
2.0000

> <Gold.PLP.Chemscore.CHOScore>
1.9340

> <Gold.PLP.Chemscore.Metal>
0.0000

> <Gold.Chemscore.Hbonds>
donor molecule, donor type, donor heavy atom, donor atom, acceptor molecule, acceptor atom, score
      L1  H     5    34       P1 10747  0.80
      L1  H    22    46       P1  7948  0.47
      L1  C    13    42       P1 10171  1.00
      L1  C    13    42       P1 10175  1.00

> <Gold.PLP.Chemscore.Internal.Correction>
0.4225

> <Gold.Rescore>
     Score         DG    S(hbond)    S(metal)    S(lipo)     H(rot)  DE(clash)    DE(int)     intcor
     10.46     -15.50       1.91        0.00      90.28       2.70       2.19       2.85       ----

> <Gold.Chemscore.Fitness>
10.4570

> <Gold.Chemscore.DG>
-15.5039

> <Gold.Chemscore.ZeroCoef>
-5.4800

> <Gold.Chemscore.Hbond>
1.9112

> <Gold.Chemscore.Metal>
0.0000

> <Gold.Chemscore.Lipo>
90.2813

> <Gold.Chemscore.Internal_Hbond>
0.0000

> <Gold.Chemscore.DEClash>
2.1934

> <Gold.Chemscore.DEInternal>
2.8535

> <Gold.Chemscore.Rot>
2.7041

> <Gold.Chemscore.Internal.Correction>
   9.000000E+99

> <Gold.Chemscore.Hbonds>
donor molecule, donor type, donor heavy atom, donor atom, acceptor molecule, acceptor atom, score
      L1  H     5    34       P1 10747  0.75
      L1  H    22    46       P1  7948  0.45

> <Gold.Chemscore.Hbond.Weighted>
-6.3834

> <Gold.Chemscore.Metal.Weighted>
-0.0000

> <Gold.Chemscore.Lipo.Weighted>
-10.5629

> <Gold.Chemscore.Internal_Hbond.Weighted>
0.0000

> <Gold.Chemscore.DEClash.Weighted>
2.1934

> <Gold.Chemscore.DEInternal.Weighted>
2.8535

> <Gold.Chemscore.Rot.Weighted>
6.9225

> <Gold.Chemscore.Internal.Correction.Weighted>
   9.000000E+99

> <Gold.Protein.RotatedTorsions>
[ 6907 6896 6895 6894 ] final   21.35 input  -60.11 | X-H torsion
[ 7974 7965 7964 7962 ] final  -53.81 input  175.53 | X-H torsion
[ 8008 7997 7996 7995 ] final  -88.43 input   59.86 | X-H torsion
[ 10167 10162 10161 10158 ] final   -5.11 input  -65.29 | X-H torsion
[ 10718 10713 10712 10709 ] final  -22.97 input   66.30 | X-H torsion
[ 10763 10752 10751 10750 ] final -160.93 input  -60.55 | X-H torsion
[ 11005 11000 10999 10996 ] final  -17.93 input  -57.11 | X-H torsion

> <Gold.Protein.ActiveResidues>
 VAL166  LYS551  ARG553  GLY616  TRP617  ASP618  TYR619  PRO620  LYS621  CYS622 
 ASP623  PHE694  ASN695  SER759  ASP760  ASP761  ALA762  ILE779  LEU786  VAL792 
 PHE793  MET794  SER795  GLU796  ALA797  LYS798  CYS799  TRP800  GLU811  SER814 

> <Gold.Protein.RotatedAtoms>
  151.9104  135.0341  160.0513 H   0  0  0  0  0  0  0  0  0  0  0  0  # atno 6907 bound_to 6896
  152.2284  133.5034  159.5210 H   0  0  0  0  0  0  0  0  0  0  0  0  # atno 6908 bound_to 6896
  150.7018  134.1166  159.4062 H   0  0  0  0  0  0  0  0  0  0  0  0  # atno 6909 bound_to 6896
  145.8926  140.8058  142.9784 H   0  0  0  0  0  0  0  0  0  0  0  0  # atno 7974 bound_to 7965
  154.6747  140.0553  157.0203 H   0  0  0  0  0  0  0  0  0  0  0  0  # atno 8008 bound_to 7997
  155.1037  140.3231  155.4521 H   0  0  0  0  0  0  0  0  0  0  0  0  # atno 8009 bound_to 7997
  156.2671  140.2026  156.6163 H   0  0  0  0  0  0  0  0  0  0  0  0  # atno 8010 bound_to 7997
  140.6951  143.6346  150.8491 H   0  0  0  0  0  0  0  0  0  0  0  0  # atno 10167 bound_to 10162
  156.4974  130.4580  149.6721 H   0  0  0  0  0  0  0  0  0  0  0  0  # atno 10718 bound_to 10713
  154.7348  135.3054  154.8830 H   0  0  0  0  0  0  0  0  0  0  0  0  # atno 10763 bound_to 10752
  153.9662  135.6747  153.4750 H   0  0  0  0  0  0  0  0  0  0  0  0  # atno 10764 bound_to 10752
  153.0952  135.4939  154.8687 H   0  0  0  0  0  0  0  0  0  0  0  0  # atno 10765 bound_to 10752
  140.8218  133.8063  155.9667 H   0  0  0  0  0  0  0  0  0  0  0  0  # atno 11005 bound_to 11000
  144.6731  140.1553  143.7427 LP  0  0  0  0  0  0  0  0  0  0  0  0  # atno 17320 bound_to 7965
  145.8890  139.2365  143.1561 LP  0  0  0  0  0  0  0  0  0  0  0  0  # atno 17321 bound_to 7965
  140.0063  143.5690  152.2856 LP  0  0  0  0  0  0  0  0  0  0  0  0  # atno 17342 bound_to 10162
  139.6398  144.7653  151.2363 LP  0  0  0  0  0  0  0  0  0  0  0  0  # atno 17343 bound_to 10162
  156.3367  130.7360  151.2299 LP  0  0  0  0  0  0  0  0  0  0  0  0  # atno 17370 bound_to 10713
  157.7467  131.0415  150.4649 LP  0  0  0  0  0  0  0  0  0  0  0  0  # atno 17371 bound_to 10713
  140.9091  134.2283  157.4996 LP  0  0  0  0  0  0  0  0  0  0  0  0  # atno 17394 bound_to 11000
  139.8708  134.9742  156.4837 LP  0  0  0  0  0  0  0  0  0  0  0  0  # atno 17395 bound_to 11000

$$$$
