AV-unprocessed.smi:494|AV-procd|sdf|2713|dock10
  -GOLD-   2262023163D 1   1.00000     0.00000
 Structure written by MMmdl.
 49 50  0  0  0  0  0  0  0  0  2 V2000
  150.7953  130.5391  154.9123 C   0  0  0  0  0  0  0  0  0  0  0  0
  150.5647  131.8025  155.6908 C   0  0  0  0  0  0  0  0  0  0  0  0
  150.8991  131.8457  156.9693 N   0  0  0  0  0  0  0  0  0  0  0  0
  150.5678  133.1306  157.4096 O   0  0  0  0  0  0  0  0  0  0  0  0
  150.0432  133.8203  156.3653 C   0  0  0  0  0  0  0  0  0  0  0  0
  149.6181  135.2245  156.6352 C   0  0  0  0  0  0  0  0  0  0  0  0
  150.0106  133.0371  155.2440 C   0  0  0  0  0  0  0  0  0  0  0  0
  149.5094  133.3868  153.8658 C   0  0  0  0  0  0  0  0  0  0  0  0
  147.9852  133.5075  153.8787 C   0  0  0  0  0  0  0  0  0  0  0  0
  147.2946  132.5532  154.2328 O   0  0  0  0  0  0  0  0  0  0  0  0
  147.4753  134.6829  153.4789 N   0  0  0  0  0  0  0  0  0  0  0  0
  146.0583  135.0412  153.4362 C   0  0  0  0  0  0  0  0  0  0  0  0
  145.5638  135.4484  152.0106 C   0  0  0  0  0  0  0  0  0  0  0  0
  146.1641  136.7937  151.6703 N   0  3  0  0  0  0  0  0  0  0  0  0
  145.9753  137.8787  152.6669 C   0  0  0  0  0  0  0  0  0  0  0  0
  145.8630  137.2988  150.3046 C   0  0  0  0  0  0  0  0  0  0  0  0
  145.9946  134.3702  150.9698 C   0  0  0  0  0  0  0  0  0  0  0  0
  145.3062  133.0034  151.1578 C   0  0  0  0  0  0  0  0  0  0  0  0
  143.7771  133.1291  151.1821 C   0  0  0  0  0  0  0  0  0  0  0  0
  143.3188  134.1464  152.2350 C   0  0  0  0  0  0  0  0  0  0  0  0
  143.9990  135.5083  152.0075 C   0  0  0  0  0  0  0  0  0  0  0  0
  151.8311  130.4703  154.5797 H   0  0  0  0  0  0  0  0  0  0  0  0
  150.1594  130.4960  154.0281 H   0  0  0  0  0  0  0  0  0  0  0  0
  150.5779  129.6563  155.5141 H   0  0  0  0  0  0  0  0  0  0  0  0
  148.5343  135.2871  156.7317 H   0  0  0  0  0  0  0  0  0  0  0  0
  149.9245  135.8848  155.8237 H   0  0  0  0  0  0  0  0  0  0  0  0
  150.0618  135.5990  157.5579 H   0  0  0  0  0  0  0  0  0  0  0  0
  149.9334  134.3277  153.5130 H   0  0  0  0  0  0  0  0  0  0  0  0
  149.8037  132.6321  153.1354 H   0  0  0  0  0  0  0  0  0  0  0  0
  148.1288  135.4049  153.2116 H   0  0  0  0  0  0  0  0  0  0  0  0
  145.4543  134.2364  153.8547 H   0  0  0  0  0  0  0  0  0  0  0  0
  145.9322  135.8569  154.1450 H   0  0  0  0  0  0  0  0  0  0  0  0
  144.9188  138.0444  152.8805 H   0  0  0  0  0  0  0  0  0  0  0  0
  146.3898  138.8178  152.2989 H   0  0  0  0  0  0  0  0  0  0  0  0
  146.4976  137.6648  153.5991 H   0  0  0  0  0  0  0  0  0  0  0  0
  144.8354  137.6560  150.2300 H   0  0  0  0  0  0  0  0  0  0  0  0
  146.0192  136.5479  149.5325 H   0  0  0  0  0  0  0  0  0  0  0  0
  146.5187  138.1358  150.0632 H   0  0  0  0  0  0  0  0  0  0  0  0
  145.7743  134.7265  149.9627 H   0  0  0  0  0  0  0  0  0  0  0  0
  147.0722  134.2083  151.0035 H   0  0  0  0  0  0  0  0  0  0  0  0
  145.6026  132.3326  150.3508 H   0  0  0  0  0  0  0  0  0  0  0  0
  145.6508  132.5293  152.0768 H   0  0  0  0  0  0  0  0  0  0  0  0
  143.4230  133.4390  150.1980 H   0  0  0  0  0  0  0  0  0  0  0  0
  143.3250  132.1567  151.3800 H   0  0  0  0  0  0  0  0  0  0  0  0
  142.2366  134.2657  152.1756 H   0  0  0  0  0  0  0  0  0  0  0  0
  143.5203  133.7711  153.2378 H   0  0  0  0  0  0  0  0  0  0  0  0
  143.6339  136.2281  152.7407 H   0  0  0  0  0  0  0  0  0  0  0  0
  143.6316  135.8531  151.0413 H   0  0  0  0  0  0  0  0  0  0  0  0
  147.1604  136.6262  151.6682 H   0  0  0  0  0  0  0  0  0  0  0  0
  1  2  1  0  0  0  0
  1 22  1  0  0  0  0
  1 23  1  0  0  0  0
  1 24  1  0  0  0  0
  2  7  1  0  0  0  0
  2  3  2  0  0  0  0
  3  4  1  0  0  0  0
  4  5  1  0  0  0  0
  5  6  1  0  0  0  0
  5  7  2  0  0  0  0
  6 25  1  0  0  0  0
  6 26  1  0  0  0  0
  6 27  1  0  0  0  0
  7  8  1  0  0  0  0
  8  9  1  0  0  0  0
  8 28  1  0  0  0  0
  8 29  1  0  0  0  0
  9 10  2  0  0  0  0
  9 11  1  0  0  0  0
 11 12  1  0  0  0  0
 11 30  1  0  0  0  0
 12 13  1  0  0  0  0
 12 31  1  0  0  0  0
 12 32  1  0  0  0  0
 13 21  1  0  0  0  0
 13 14  1  0  0  0  0
 13 17  1  0  0  0  0
 14 15  1  0  0  0  0
 14 16  1  0  0  0  0
 14 49  1  0  0  0  0
 15 33  1  0  0  0  0
 15 34  1  0  0  0  0
 15 35  1  0  0  0  0
 16 36  1  0  0  0  0
 16 37  1  0  0  0  0
 16 38  1  0  0  0  0
 17 18  1  0  0  0  0
 17 39  1  0  0  0  0
 17 40  1  0  0  0  0
 18 19  1  0  0  0  0
 18 41  1  0  0  0  0
 18 42  1  0  0  0  0
 19 20  1  0  0  0  0
 19 43  1  0  0  0  0
 19 44  1  0  0  0  0
 20 21  1  0  0  0  0
 20 45  1  0  0  0  0
 20 46  1  0  0  0  0
 21 47  1  0  0  0  0
 21 48  1  0  0  0  0
M  CHG  1  14   1
M  END
> <s_m_source_file>
AV-unprocessed.smi

> <i_m_source_file_index>
494

> <i_lp_mmshare_version>
43012

> <i_f3d_flags>
0

> <s_epik_input>
W0NIM11jMW5vYyhbQ0gzXSljMVtDSDJdQyg9TylbTkhdW0NIMl1DMihOKFtDSDNdKVtDSDNdKVtDSDJdW0NIMl1bQ0gyXVtDSDJdW0NIMl0y

> <s_epik_cmdline>
J2VwaWtfcHl0aG9uJywgJy1waCcsICc3LjAnLCAnLXRuJywgJzgnLCAnLW1hJywgJzIwMCcsICctbWV0YWxfYmluZGluZycsICctaW1hZScsICc8aW5maWxlLm1hZT4nLCAnLW9tYWUnLCAnPG91dGZpbGUubWFlPic=

> <r_epik_Ionization_Penalty>
0.00230711

> <r_epik_Ionization_Penalty_Charging>
0.00230702

> <r_epik_Ionization_Penalty_Neutral>
8.72116e-08

> <r_epik_State_Penalty>
0.00159123

> <r_epik_Charging_Adjusted_Penalty>
0.00389825

> <i_epik_Tot_Q>
1

> <i_epik_Tot_abs_Q>
1

> <r_epik_Metal_State_Penalty>
-0

> <b_epik_Metal_Only>
0

> <s_lp_Force_Field>
OPLS_2005

> <r_lp_Energy>
28.1912

> <b_lp_Chiralities_Consistent>
1

> <s_lp_Variant>
AV-unprocessed.smi:494-1

> <Gold.Version>
5.8.1

> <Gold.Id.Protein>
6NUR|6NUR_protein|mol2

> <Gold.PLP.Fitness>
45.9525

> <Gold.PLP.PLP>
-34.3978

> <Gold.PLP.part.hbond>
-3.0000

> <Gold.PLP.part.metal>
0.0000

> <Gold.PLP.part.buried>
-0.7554

> <Gold.PLP.part.nonpolar>
-31.3999

> <Gold.PLP.part.repulsive>
0.1295

> <Gold.PLP.ligand.clash>
0.0000

> <Gold.PLP.ligand.torsion>
0.2605

> <Gold.PLP.Chemscore.Hbond>
3.9833

> <Gold.PLP.Chemscore.CHOScore>
0.0000

> <Gold.PLP.Chemscore.Metal>
0.0000

> <Gold.Chemscore.Hbonds>
donor molecule, donor type, donor heavy atom, donor atom, acceptor molecule, acceptor atom, score
      L1  H    11    30       P1  7948  0.91
      L1  H    14    49       P1  7948  2.00
      P1  H  6896  6909       L1     4  1.00

> <Gold.PLP.Chemscore.Internal.Correction>
0.1258

> <Gold.Rescore>
     Score         DG    S(hbond)    S(metal)    S(lipo)     H(rot)  DE(clash)    DE(int)     intcor
     18.57     -20.44       2.88        0.00      82.19       1.68       1.61       0.26       ----

> <Gold.Chemscore.Fitness>
18.5695

> <Gold.Chemscore.DG>
-20.4393

> <Gold.Chemscore.ZeroCoef>
-5.4800

> <Gold.Chemscore.Hbond>
2.8838

> <Gold.Chemscore.Metal>
0.0000

> <Gold.Chemscore.Lipo>
82.1866

> <Gold.Chemscore.Internal_Hbond>
0.0000

> <Gold.Chemscore.DEClash>
1.6056

> <Gold.Chemscore.DEInternal>
0.2642

> <Gold.Chemscore.Rot>
1.6752

> <Gold.Chemscore.Internal.Correction>
   9.000000E+99

> <Gold.Chemscore.Hbonds>
donor molecule, donor type, donor heavy atom, donor atom, acceptor molecule, acceptor atom, score
      L1  H    11    30       P1  7948  0.88
      L1  H    14    49       P1  7948  1.00
      P1  H  6896  6909       L1     4  0.77

> <Gold.Chemscore.Hbond.Weighted>
-9.6319

> <Gold.Chemscore.Metal.Weighted>
-0.0000

> <Gold.Chemscore.Lipo.Weighted>
-9.6158

> <Gold.Chemscore.Internal_Hbond.Weighted>
0.0000

> <Gold.Chemscore.DEClash.Weighted>
1.6056

> <Gold.Chemscore.DEInternal.Weighted>
0.2642

> <Gold.Chemscore.Rot.Weighted>
4.2884

> <Gold.Chemscore.Internal.Correction.Weighted>
   9.000000E+99

> <Gold.Protein.RotatedTorsions>
[ 6907 6896 6895 6894 ] final  -29.01 input  -60.11 | X-H torsion
[ 7974 7965 7964 7962 ] final   89.37 input  175.53 | X-H torsion
[ 8008 7997 7996 7995 ] final  -94.41 input   59.86 | X-H torsion
[ 10167 10162 10161 10158 ] final -128.01 input  -65.29 | X-H torsion
[ 10718 10713 10712 10709 ] final -128.35 input   66.30 | X-H torsion
[ 10763 10752 10751 10750 ] final   87.45 input  -60.55 | X-H torsion
[ 11005 11000 10999 10996 ] final  -42.11 input  -57.11 | X-H torsion

> <Gold.Protein.ActiveResidues>
 VAL166  LYS551  ARG553  GLY616  TRP617  ASP618  TYR619  PRO620  LYS621  CYS622 
 ASP623  PHE694  ASN695  SER759  ASP760  ASP761  ALA762  ILE779  LEU786  VAL792 
 PHE793  MET794  SER795  GLU796  ALA797  LYS798  CYS799  TRP800  GLU811  SER814 

> <Gold.Protein.RotatedAtoms>
  151.1250  135.0100  159.8555 H   0  0  0  0  0  0  0  0  0  0  0  0  # atno 6907 bound_to 6896
  152.5449  134.1677  159.8594 H   0  0  0  0  0  0  0  0  0  0  0  0  # atno 6908 bound_to 6896
  151.1739  133.4722  159.2627 H   0  0  0  0  0  0  0  0  0  0  0  0  # atno 6909 bound_to 6896
  145.5332  139.2284  143.2607 H   0  0  0  0  0  0  0  0  0  0  0  0  # atno 7974 bound_to 7965
  154.7481  140.0489  157.0869 H   0  0  0  0  0  0  0  0  0  0  0  0  # atno 8008 bound_to 7997
  155.0093  140.3134  155.4817 H   0  0  0  0  0  0  0  0  0  0  0  0  # atno 8009 bound_to 7997
  156.2879  140.2187  156.5206 H   0  0  0  0  0  0  0  0  0  0  0  0  # atno 8010 bound_to 7997
  139.9548  143.6015  152.2464 H   0  0  0  0  0  0  0  0  0  0  0  0  # atno 10167 bound_to 10162
  156.1943  130.6816  151.0462 H   0  0  0  0  0  0  0  0  0  0  0  0  # atno 10718 bound_to 10713
  153.1669  135.4543  154.9850 H   0  0  0  0  0  0  0  0  0  0  0  0  # atno 10763 bound_to 10752
  154.7938  135.3230  154.7717 H   0  0  0  0  0  0  0  0  0  0  0  0  # atno 10764 bound_to 10752
  153.8198  135.6948  153.4883 H   0  0  0  0  0  0  0  0  0  0  0  0  # atno 10765 bound_to 10752
  141.0293  133.6827  156.2550 H   0  0  0  0  0  0  0  0  0  0  0  0  # atno 11005 bound_to 11000
  146.2030  140.6149  142.9094 LP  0  0  0  0  0  0  0  0  0  0  0  0  # atno 17320 bound_to 7965
  144.7615  140.5432  143.6732 LP  0  0  0  0  0  0  0  0  0  0  0  0  # atno 17321 bound_to 7965
  139.6600  144.7662  151.1982 LP  0  0  0  0  0  0  0  0  0  0  0  0  # atno 17342 bound_to 10162
  140.7571  143.6026  150.8685 LP  0  0  0  0  0  0  0  0  0  0  0  0  # atno 17343 bound_to 10162
  157.6948  131.0798  150.7001 LP  0  0  0  0  0  0  0  0  0  0  0  0  # atno 17370 bound_to 10713
  156.7058  130.4637  149.5560 LP  0  0  0  0  0  0  0  0  0  0  0  0  # atno 17371 bound_to 10713
  140.6435  134.5141  157.5571 LP  0  0  0  0  0  0  0  0  0  0  0  0  # atno 17394 bound_to 11000
  139.9197  134.8174  156.1251 LP  0  0  0  0  0  0  0  0  0  0  0  0  # atno 17395 bound_to 11000

$$$$
