AV-unprocessed.smi:1324|AV-procd|sdf|5470|dock3
  -GOLD-   22720 5 43D 1   1.00000     0.00000
 Structure written by MMmdl.
 43 44  0  0  0  0  0  0  0  0  1 V2000
  146.4007  138.0374  152.2506 C   0  0  0  0  0  0  0  0  0  0  0  0
  147.2349  139.0838  152.9575 C   0  0  0  0  0  0  0  0  0  0  0  0
  146.5766  140.2882  153.1429 N   0  0  0  0  0  0  0  0  0  0  0  0
  147.2566  141.3047  153.7899 C   0  0  0  0  0  0  0  0  0  0  0  0
  146.4626  142.5883  153.9572 C   0  0  0  0  0  0  0  0  0  0  0  0
  148.5315  141.1326  154.2227 C   0  0  0  0  0  0  0  0  0  0  0  0
  149.3193  142.2291  154.9399 C   0  0  0  0  0  0  0  0  0  0  0  0
  149.8571  141.8820  156.3310 C   0  0  0  0  0  0  0  0  0  0  0  0
  149.7142  140.7512  156.7971 O   0  0  0  0  0  0  0  0  0  0  0  0
  150.4764  142.8770  156.9847 N   0  0  0  0  0  0  0  0  0  0  0  0
  151.0663  142.7813  158.3185 C   0  0  0  0  0  0  0  0  0  0  0  0
  151.4759  144.1953  158.7925 C   0  0  0  0  0  0  0  0  0  0  0  0
  152.4581  144.2848  159.9742 C   0  0  0  0  0  0  0  0  0  0  0  0
  152.2900  143.2170  161.0660 C   0  0  0  0  0  0  0  0  0  0  0  0
  153.0580  141.9232  160.7488 C   0  0  0  0  0  0  0  0  0  0  0  0
  152.4262  141.0537  159.6526 C   0  0  0  0  0  0  0  0  0  0  0  0
  152.2159  141.7529  158.2969 C   0  0  0  0  0  0  0  0  0  0  0  0
  149.1892  139.8269  153.9804 C   0  0  0  0  0  0  0  0  0  0  0  0
  150.3505  139.6167  154.3282 O   0  0  0  0  0  0  0  0  0  0  0  0
  148.4508  138.8237  153.3314 N   0  0  0  0  0  0  0  0  0  0  0  0
  145.6298  140.4592  152.8358 H   0  0  0  0  0  0  0  0  0  0  0  0
  146.8858  137.0612  152.2889 H   0  0  0  0  0  0  0  0  0  0  0  0
  146.2615  138.3091  151.2038 H   0  0  0  0  0  0  0  0  0  0  0  0
  145.4206  137.9475  152.7202 H   0  0  0  0  0  0  0  0  0  0  0  0
  146.3201  142.8128  155.0144 H   0  0  0  0  0  0  0  0  0  0  0  0
  145.4772  142.5151  153.4952 H   0  0  0  0  0  0  0  0  0  0  0  0
  146.9878  143.4237  153.4934 H   0  0  0  0  0  0  0  0  0  0  0  0
  148.7201  143.1374  155.0135 H   0  0  0  0  0  0  0  0  0  0  0  0
  150.1700  142.5085  154.3183 H   0  0  0  0  0  0  0  0  0  0  0  0
  150.5442  143.7727  156.5237 H   0  0  0  0  0  0  0  0  0  0  0  0
  150.2966  142.3996  158.9920 H   0  0  0  0  0  0  0  0  0  0  0  0
  151.9099  144.7514  157.9601 H   0  0  0  0  0  0  0  0  0  0  0  0
  150.5671  144.7368  159.0583 H   0  0  0  0  0  0  0  0  0  0  0  0
  153.4813  144.2573  159.5977 H   0  0  0  0  0  0  0  0  0  0  0  0
  152.3480  145.2719  160.4246 H   0  0  0  0  0  0  0  0  0  0  0  0
  152.6950  143.6204  161.9946 H   0  0  0  0  0  0  0  0  0  0  0  0
  151.2363  143.0157  161.2629 H   0  0  0  0  0  0  0  0  0  0  0  0
  154.0882  142.1611  160.4815 H   0  0  0  0  0  0  0  0  0  0  0  0
  153.1223  141.3261  161.6589 H   0  0  0  0  0  0  0  0  0  0  0  0
  153.0688  140.1863  159.4985 H   0  0  0  0  0  0  0  0  0  0  0  0
  151.4765  140.6521  160.0078 H   0  0  0  0  0  0  0  0  0  0  0  0
  151.9774  140.9715  157.5738 H   0  0  0  0  0  0  0  0  0  0  0  0
  153.1414  142.2095  157.9441 H   0  0  0  0  0  0  0  0  0  0  0  0
  1 22  1  0  0  0  0
  1 23  1  0  0  0  0
  1 24  1  0  0  0  0
  1  2  1  0  0  0  0
  2  3  1  0  0  0  0
  2 20  2  0  0  0  0
  3  4  1  0  0  0  0
  3 21  1  0  0  0  0
  4  6  2  0  0  0  0
  4  5  1  0  0  0  0
  5 25  1  0  0  0  0
  5 26  1  0  0  0  0
  5 27  1  0  0  0  0
  6 18  1  0  0  0  0
  6  7  1  0  0  0  0
  7  8  1  0  0  0  0
  7 28  1  0  0  0  0
  7 29  1  0  0  0  0
  8  9  2  0  0  0  0
  8 10  1  0  0  0  0
 10 11  1  0  0  0  0
 10 30  1  0  0  0  0
 11 17  1  0  0  0  0
 11 12  1  0  0  0  0
 11 31  1  0  0  0  0
 12 13  1  0  0  0  0
 12 32  1  0  0  0  0
 12 33  1  0  0  0  0
 13 14  1  0  0  0  0
 13 34  1  0  0  0  0
 13 35  1  0  0  0  0
 14 15  1  0  0  0  0
 14 36  1  0  0  0  0
 14 37  1  0  0  0  0
 15 16  1  0  0  0  0
 15 38  1  0  0  0  0
 15 39  1  0  0  0  0
 16 17  1  0  0  0  0
 16 40  1  0  0  0  0
 16 41  1  0  0  0  0
 17 42  1  0  0  0  0
 17 43  1  0  0  0  0
 18 19  2  0  0  0  0
 18 20  1  0  0  0  0
M  END
> <s_m_source_file>
AV-unprocessed.smi

> <i_m_source_file_index>
1324

> <i_lp_mmshare_version>
43012

> <i_f3d_flags>
0

> <s_epik_input>
W0NIM11jMW5jKFtDSDNdKWMoYyg9TylbbkhdMSlbQ0gyXUMoPU8pW05IXVtDSF0yW0NIMl1bQ0gyXVtDSDJdW0NIMl1bQ0gyXVtDSDJdMg==

> <s_epik_cmdline>
J2VwaWtfcHl0aG9uJywgJy1waCcsICc3LjAnLCAnLXRuJywgJzgnLCAnLW1hJywgJzIwMCcsICctbWV0YWxfYmluZGluZycsICctaW1hZScsICc8aW5maWxlLm1hZT4nLCAnLW9tYWUnLCAnPG91dGZpbGUubWFlPic=

> <r_lp_tautomer_probability>
0.156392

> <r_epik_Ionization_Penalty>
0.0140222

> <r_epik_Ionization_Penalty_Charging>
0.0138986

> <r_epik_Ionization_Penalty_Neutral>
0.000123575

> <r_epik_State_Penalty>
1.53084

> <r_epik_Charging_Adjusted_Penalty>
1.54474

> <i_epik_Tot_Q>
0

> <i_epik_Tot_abs_Q>
0

> <r_epik_Metal_State_Penalty>
1.70646

> <b_epik_Metal_Only>
0

> <s_lp_Force_Field>
OPLS_2005

> <r_lp_Energy>
20.3035

> <b_lp_Chiralities_Consistent>
1

> <s_lp_Variant>
AV-unprocessed.smi:1324-2

> <Gold.Version>
5.8.1

> <Gold.Id.Protein>
6NUR|6NUR_protein|mol2

> <Gold.PLP.Fitness>
47.7135

> <Gold.PLP.PLP>
-40.3725

> <Gold.PLP.part.hbond>
-3.0000

> <Gold.PLP.part.metal>
0.0000

> <Gold.PLP.part.buried>
0.8290

> <Gold.PLP.part.nonpolar>
-39.9249

> <Gold.PLP.part.repulsive>
2.4349

> <Gold.PLP.ligand.clash>
0.0000

> <Gold.PLP.ligand.torsion>
0.0634

> <Gold.PLP.Chemscore.Hbond>
2.4829

> <Gold.PLP.Chemscore.CHOScore>
0.0000

> <Gold.PLP.Chemscore.Metal>
0.0000

> <Gold.Chemscore.Hbonds>
donor molecule, donor type, donor heavy atom, donor atom, acceptor molecule, acceptor atom, score
      L1  H     3    21       P1 10175  1.00
      L1  H    10    30       P1  8028  0.41
      P1  H  7989  7998       L1    19  1.00

> <Gold.PLP.Chemscore.Internal.Correction>
0.0191

> <Gold.Rescore>
     Score         DG    S(hbond)    S(metal)    S(lipo)     H(rot)  DE(clash)    DE(int)     intcor
     18.64     -22.81       2.60        0.00     106.31       1.48       2.06       2.11       ----

> <Gold.Chemscore.Fitness>
18.6390

> <Gold.Chemscore.DG>
-22.8126

> <Gold.Chemscore.ZeroCoef>
-5.4800

> <Gold.Chemscore.Hbond>
2.5999

> <Gold.Chemscore.Metal>
0.0000

> <Gold.Chemscore.Lipo>
106.3092

> <Gold.Chemscore.Internal_Hbond>
0.0000

> <Gold.Chemscore.DEClash>
2.0620

> <Gold.Chemscore.DEInternal>
2.1116

> <Gold.Chemscore.Rot>
1.4801

> <Gold.Chemscore.Internal.Correction>
   9.000000E+99

> <Gold.Chemscore.Hbonds>
donor molecule, donor type, donor heavy atom, donor atom, acceptor molecule, acceptor atom, score
      L1  H     3    21       P1 10175  0.77
      L1  H    10    30       P1  8028  0.39
      P1  H  7989  7998       L1    19  0.81

> <Gold.Chemscore.Hbond.Weighted>
-8.6836

> <Gold.Chemscore.Metal.Weighted>
-0.0000

> <Gold.Chemscore.Lipo.Weighted>
-12.4382

> <Gold.Chemscore.Internal_Hbond.Weighted>
0.0000

> <Gold.Chemscore.DEClash.Weighted>
2.0620

> <Gold.Chemscore.DEInternal.Weighted>
2.1116

> <Gold.Chemscore.Rot.Weighted>
3.7891

> <Gold.Chemscore.Internal.Correction.Weighted>
   9.000000E+99

> <Gold.Protein.RotatedTorsions>
[ 6907 6896 6895 6894 ] final   95.01 input  -60.11 | X-H torsion
[ 7974 7965 7964 7962 ] final  127.57 input  175.53 | X-H torsion
[ 8008 7997 7996 7995 ] final -148.22 input   59.86 | X-H torsion
[ 10167 10162 10161 10158 ] final  -71.47 input  -65.29 | X-H torsion
[ 10718 10713 10712 10709 ] final   10.94 input   66.30 | X-H torsion
[ 10763 10752 10751 10750 ] final  -52.50 input  -60.55 | X-H torsion
[ 11005 11000 10999 10996 ] final -123.94 input  -57.11 | X-H torsion

> <Gold.Protein.ActiveResidues>
 VAL166  LYS551  ARG553  GLY616  TRP617  ASP618  TYR619  PRO620  LYS621  CYS622 
 ASP623  PHE694  ASN695  SER759  ASP760  ASP761  ALA762  ILE779  LEU786  VAL792 
 PHE793  MET794  SER795  GLU796  ALA797  LYS798  CYS799  TRP800  GLU811  SER814 

> <Gold.Protein.RotatedAtoms>
  152.5446  134.1106  159.8356 H   0  0  0  0  0  0  0  0  0  0  0  0  # atno 6907 bound_to 6896
  151.1173  133.5122  159.2611 H   0  0  0  0  0  0  0  0  0  0  0  0  # atno 6908 bound_to 6896
  151.1818  135.0374  159.8850 H   0  0  0  0  0  0  0  0  0  0  0  0  # atno 6909 bound_to 6896
  145.0491  139.3898  143.5063 H   0  0  0  0  0  0  0  0  0  0  0  0  # atno 7974 bound_to 7965
  155.5881  140.0650  157.2766 H   0  0  0  0  0  0  0  0  0  0  0  0  # atno 8008 bound_to 7997
  154.4313  140.1840  156.1093 H   0  0  0  0  0  0  0  0  0  0  0  0  # atno 8009 bound_to 7997
  156.0254  140.3312  155.7086 H   0  0  0  0  0  0  0  0  0  0  0  0  # atno 8010 bound_to 7997
  140.5271  143.2325  151.7329 H   0  0  0  0  0  0  0  0  0  0  0  0  # atno 10167 bound_to 10162
  156.9883  130.6032  149.5683 H   0  0  0  0  0  0  0  0  0  0  0  0  # atno 10718 bound_to 10713
  154.1437  135.6501  153.4948 H   0  0  0  0  0  0  0  0  0  0  0  0  # atno 10763 bound_to 10752
  153.0158  135.5321  154.6878 H   0  0  0  0  0  0  0  0  0  0  0  0  # atno 10764 bound_to 10752
  154.6147  135.2958  155.0364 H   0  0  0  0  0  0  0  0  0  0  0  0  # atno 10765 bound_to 10752
  140.9880  134.0579  157.3688 H   0  0  0  0  0  0  0  0  0  0  0  0  # atno 11005 bound_to 11000
  146.3516  140.0132  142.8665 LP  0  0  0  0  0  0  0  0  0  0  0  0  # atno 17320 bound_to 7965
  145.1549  140.9643  143.4411 LP  0  0  0  0  0  0  0  0  0  0  0  0  # atno 17321 bound_to 7965
  139.4942  144.4170  152.0019 LP  0  0  0  0  0  0  0  0  0  0  0  0  # atno 17342 bound_to 10162
  140.3270  144.3361  150.5996 LP  0  0  0  0  0  0  0  0  0  0  0  0  # atno 17343 bound_to 10162
  156.0217  130.5312  150.8294 LP  0  0  0  0  0  0  0  0  0  0  0  0  # atno 17370 bound_to 10713
  157.5477  131.0943  150.9740 LP  0  0  0  0  0  0  0  0  0  0  0  0  # atno 17371 bound_to 10713
  139.8979  135.0152  156.7124 LP  0  0  0  0  0  0  0  0  0  0  0  0  # atno 17394 bound_to 11000
  140.7084  133.9245  155.8069 LP  0  0  0  0  0  0  0  0  0  0  0  0  # atno 17395 bound_to 11000

$$$$
