AV-unprocessed.smi:1352|AV-procd|sdf|5528|dock2
  -GOLD-   22720 5113D 1   1.00000     0.00000
 Structure written by MMmdl.
 47 48  0  0  0  0  0  0  0  0  2 V2000
  152.8935  138.2689  154.7962 C   0  0  0  0  0  0  0  0  0  0  0  0
  151.4231  137.9490  154.4913 C   0  0  2  0  0  0  0  0  0  0  0  0
  150.4757  138.9013  155.2430 C   0  0  0  0  0  0  0  0  0  0  0  0
  148.9980  138.5481  154.9935 C   0  0  1  0  0  0  0  0  0  0  0  0
  148.5138  138.9512  153.5894 C   0  0  0  0  0  0  0  0  0  0  0  0
  148.7402  137.0582  155.2945 C   0  0  0  0  0  0  0  0  0  0  0  0
  149.6604  136.1740  154.5321 N   0  3  2  0  0  0  0  0  0  0  0  0
  149.3259  134.7373  154.7014 C   0  0  0  0  0  0  0  0  0  0  0  0
  149.5452  134.2498  156.1467 C   0  0  0  0  0  0  0  0  0  0  0  0
  148.3551  134.4464  156.9658 N   0  0  0  0  0  0  0  0  0  0  0  0
  148.3548  134.9316  158.2167 C   0  0  0  0  0  0  0  0  0  0  0  0
  149.3849  135.2416  158.8168 O   0  0  0  0  0  0  0  0  0  0  0  0
  146.9803  135.0617  158.8886 C   0  0  0  0  0  0  0  0  0  0  0  0
  147.0441  135.0314  160.3595 N   0  0  0  0  0  0  0  0  0  0  0  0
  146.4461  133.9313  161.0061 C   0  0  0  0  0  0  0  0  0  0  0  0
  146.4487  133.8062  162.3427 C   0  0  0  0  0  0  0  0  0  0  0  0
  147.0868  134.8390  163.1236 C   0  0  0  0  0  0  0  0  0  0  0  0
  147.6648  135.8939  162.5153 C   0  0  0  0  0  0  0  0  0  0  0  0
  147.6674  136.0328  161.0544 C   0  0  0  0  0  0  0  0  0  0  0  0
  148.1977  136.9898  160.4893 O   0  0  0  0  0  0  0  0  0  0  0  0
  151.0847  136.4837  154.8270 C   0  0  0  0  0  0  0  0  0  0  0  0
  153.1160  138.1437  155.8564 H   0  0  0  0  0  0  0  0  0  0  0  0
  153.1363  139.2966  154.5249 H   0  0  0  0  0  0  0  0  0  0  0  0
  153.5627  137.6149  154.2362 H   0  0  0  0  0  0  0  0  0  0  0  0
  151.2786  138.0927  153.4200 H   0  0  0  0  0  0  0  0  0  0  0  0
  150.6793  138.8393  156.3132 H   0  0  0  0  0  0  0  0  0  0  0  0
  150.6697  139.9359  154.9569 H   0  0  0  0  0  0  0  0  0  0  0  0
  148.4039  139.1303  155.6991 H   0  0  0  0  0  0  0  0  0  0  0  0
  149.0238  138.3932  152.8044 H   0  0  0  0  0  0  0  0  0  0  0  0
  148.6839  140.0124  153.4060 H   0  0  0  0  0  0  0  0  0  0  0  0
  147.4446  138.7688  153.4790 H   0  0  0  0  0  0  0  0  0  0  0  0
  148.8675  136.8670  156.3614 H   0  0  0  0  0  0  0  0  0  0  0  0
  147.7036  136.8152  155.0563 H   0  0  0  0  0  0  0  0  0  0  0  0
  148.2991  134.5550  154.3805 H   0  0  0  0  0  0  0  0  0  0  0  0
  149.9625  134.1463  154.0416 H   0  0  0  0  0  0  0  0  0  0  0  0
  149.8332  133.1969  156.1557 H   0  0  0  0  0  0  0  0  0  0  0  0
  150.3573  134.7967  156.6239 H   0  0  0  0  0  0  0  0  0  0  0  0
  147.4660  134.2135  156.5467 H   0  0  0  0  0  0  0  0  0  0  0  0
  146.4994  135.9836  158.5561 H   0  0  0  0  0  0  0  0  0  0  0  0
  146.3438  134.2579  158.5163 H   0  0  0  0  0  0  0  0  0  0  0  0
  145.9959  133.1998  160.3508 H   0  0  0  0  0  0  0  0  0  0  0  0
  145.9887  132.9540  162.8209 H   0  0  0  0  0  0  0  0  0  0  0  0
  147.1017  134.7653  164.2011 H   0  0  0  0  0  0  0  0  0  0  0  0
  148.1384  136.6563  163.1162 H   0  0  0  0  0  0  0  0  0  0  0  0
  151.7375  135.8315  154.2482 H   0  0  0  0  0  0  0  0  0  0  0  0
  151.2902  136.2794  155.8793 H   0  0  0  0  0  0  0  0  0  0  0  0
  149.5068  136.3881  153.5568 H   0  0  0  0  0  0  0  0  0  0  0  0
  1  2  1  0  0  0  0
  1 22  1  0  0  0  0
  1 23  1  0  0  0  0
  1 24  1  0  0  0  0
  2 21  1  0  0  0  0
  2  3  1  0  0  0  0
  2 25  1  0  0  0  0
  3  4  1  0  0  0  0
  3 26  1  0  0  0  0
  3 27  1  0  0  0  0
  4  5  1  0  0  0  0
  4  6  1  0  0  0  0
  4 28  1  0  0  0  0
  5 29  1  0  0  0  0
  5 30  1  0  0  0  0
  5 31  1  0  0  0  0
  6  7  1  0  0  0  0
  6 32  1  0  0  0  0
  6 33  1  0  0  0  0
  7  8  1  0  0  0  0
  7 21  1  0  0  0  0
  7 47  1  0  0  0  0
  8  9  1  0  0  0  0
  8 34  1  0  0  0  0
  8 35  1  0  0  0  0
  9 10  1  0  0  0  0
  9 36  1  0  0  0  0
  9 37  1  0  0  0  0
 10 11  1  0  0  0  0
 10 38  1  0  0  0  0
 11 12  2  0  0  0  0
 11 13  1  0  0  0  0
 13 14  1  0  0  0  0
 13 39  1  0  0  0  0
 13 40  1  0  0  0  0
 14 19  1  0  0  0  0
 14 15  1  0  0  0  0
 15 16  2  0  0  0  0
 15 41  1  0  0  0  0
 16 17  1  0  0  0  0
 16 42  1  0  0  0  0
 17 18  2  0  0  0  0
 17 43  1  0  0  0  0
 18 19  1  0  0  0  0
 18 44  1  0  0  0  0
 19 20  2  0  0  0  0
 21 45  1  0  0  0  0
 21 46  1  0  0  0  0
M  CHG  1   7   1
M  END
> <s_m_source_file>
AV-unprocessed.smi

> <i_m_source_file_index>
1352

> <i_lp_mmshare_version>
43012

> <i_f3d_flags>
0

> <s_epik_input>
W0NIM11bQ0BASF0xW0NIMl1bQ0BASF0oW0NIM10pW0NIMl1OKFtDSDJdMSlbQ0gyXVtDSDJdW05IXUMoPU8pW0NIMl1uMltjSF1bY0hdW2NIXVtjSF1jMj1P

> <s_epik_cmdline>
J2VwaWtfcHl0aG9uJywgJy1waCcsICc3LjAnLCAnLXRuJywgJzgnLCAnLW1hJywgJzIwMCcsICctbWV0YWxfYmluZGluZycsICctaW1hZScsICc8aW5maWxlLm1hZT4nLCAnLW9tYWUnLCAnPG91dGZpbGUubWFlPic=

> <r_lp_tautomer_probability>
1

> <r_epik_Ionization_Penalty>
0.00156146

> <r_epik_Ionization_Penalty_Charging>
0.00156138

> <r_epik_Ionization_Penalty_Neutral>
8.12891e-08

> <r_epik_State_Penalty>
0.00104868

> <r_epik_Charging_Adjusted_Penalty>
0.00261006

> <i_epik_Tot_Q>
1

> <i_epik_Tot_abs_Q>
1

> <r_epik_Metal_State_Penalty>
-0

> <b_epik_Metal_Only>
0

> <s_lp_Force_Field>
OPLS_2005

> <r_lp_Energy>
27.9536

> <b_lp_Chiralities_Consistent>
1

> <s_lp_Variant>
AV-unprocessed.smi:1352-1

> <Gold.Version>
5.8.1

> <Gold.Id.Protein>
6NUR|6NUR_protein|mol2

> <Gold.PLP.Fitness>
50.0731

> <Gold.PLP.PLP>
-37.8987

> <Gold.PLP.part.hbond>
-4.0000

> <Gold.PLP.part.metal>
0.0000

> <Gold.PLP.part.buried>
-1.1267

> <Gold.PLP.part.nonpolar>
-33.1317

> <Gold.PLP.part.repulsive>
0.0761

> <Gold.PLP.ligand.clash>
0.0000

> <Gold.PLP.ligand.torsion>
0.6603

> <Gold.PLP.Chemscore.Hbond>
4.4720

> <Gold.PLP.Chemscore.CHOScore>
0.0000

> <Gold.PLP.Chemscore.Metal>
0.0000

> <Gold.Chemscore.Hbonds>
donor molecule, donor type, donor heavy atom, donor atom, acceptor molecule, acceptor atom, score
      L1  H     7    47       P1  7948  2.00
      P1  H  6896  6908       L1    12  1.00
      P1  H  6931  6943       L1    20  0.76
      P1  H  6934  6947       L1    20  0.22

> <Gold.PLP.Chemscore.Internal.Correction>
0.0790

> <Gold.Rescore>
     Score         DG    S(hbond)    S(metal)    S(lipo)     H(rot)  DE(clash)    DE(int)     intcor
     20.41     -22.26       3.40        0.00      86.56       1.83       0.31       1.54       ----

> <Gold.Chemscore.Fitness>
20.4099

> <Gold.Chemscore.DG>
-22.2606

> <Gold.Chemscore.ZeroCoef>
-5.4800

> <Gold.Chemscore.Hbond>
3.3966

> <Gold.Chemscore.Metal>
0.0000

> <Gold.Chemscore.Lipo>
86.5649

> <Gold.Chemscore.Internal_Hbond>
0.0000

> <Gold.Chemscore.DEClash>
0.3062

> <Gold.Chemscore.DEInternal>
1.5445

> <Gold.Chemscore.Rot>
1.8329

> <Gold.Chemscore.Internal.Correction>
   9.000000E+99

> <Gold.Chemscore.Hbonds>
donor molecule, donor type, donor heavy atom, donor atom, acceptor molecule, acceptor atom, score
      L1  H     7    47       P1  7948  0.65
      P1  H  6896  6908       L1    12  0.99
      P1  H  6931  6943       L1    20  0.55
      P1  H  6934  6947       L1    20  0.20

> <Gold.Chemscore.Hbond.Weighted>
-11.3447

> <Gold.Chemscore.Metal.Weighted>
-0.0000

> <Gold.Chemscore.Lipo.Weighted>
-10.1281

> <Gold.Chemscore.Internal_Hbond.Weighted>
0.0000

> <Gold.Chemscore.DEClash.Weighted>
0.3062

> <Gold.Chemscore.DEInternal.Weighted>
1.5445

> <Gold.Chemscore.Rot.Weighted>
4.6922

> <Gold.Chemscore.Internal.Correction.Weighted>
   9.000000E+99

> <Gold.Protein.RotatedTorsions>
[ 6907 6896 6895 6894 ] final -178.55 input  -60.11 | X-H torsion
[ 7974 7965 7964 7962 ] final  105.53 input  175.53 | X-H torsion
[ 8008 7997 7996 7995 ] final  -34.88 input   59.86 | X-H torsion
[ 10167 10162 10161 10158 ] final   24.30 input  -65.29 | X-H torsion
[ 10718 10713 10712 10709 ] final -176.35 input   66.30 | X-H torsion
[ 10763 10752 10751 10750 ] final  -71.67 input  -60.55 | X-H torsion
[ 11005 11000 10999 10996 ] final  -98.78 input  -57.11 | X-H torsion

> <Gold.Protein.ActiveResidues>
 VAL166  LYS551  ARG553  GLY616  TRP617  ASP618  TYR619  PRO620  LYS621  CYS622 
 ASP623  PHE694  ASN695  SER759  ASP760  ASP761  ALA762  ILE779  LEU786  VAL792 
 PHE793  MET794  SER795  GLU796  ALA797  LYS798  CYS799  TRP800  GLU811  SER814 

> <Gold.Protein.RotatedAtoms>
  151.6390  133.3327  159.3125 H   0  0  0  0  0  0  0  0  0  0  0  0  # atno 6907 bound_to 6896
  150.8017  134.7120  159.6618 H   0  0  0  0  0  0  0  0  0  0  0  0  # atno 6908 bound_to 6896
  152.4110  134.6128  160.0081 H   0  0  0  0  0  0  0  0  0  0  0  0  # atno 6909 bound_to 6896
  145.3184  139.2520  143.3725 H   0  0  0  0  0  0  0  0  0  0  0  0  # atno 7974 bound_to 7965
  154.4109  140.1672  156.2122 H   0  0  0  0  0  0  0  0  0  0  0  0  # atno 8008 bound_to 7997
  155.9434  140.3406  155.6324 H   0  0  0  0  0  0  0  0  0  0  0  0  # atno 8009 bound_to 7997
  155.6960  140.0739  157.2420 H   0  0  0  0  0  0  0  0  0  0  0  0  # atno 8010 bound_to 7997
  140.5199  144.0020  150.6412 H   0  0  0  0  0  0  0  0  0  0  0  0  # atno 10167 bound_to 10162
  156.8133  130.9594  151.3115 H   0  0  0  0  0  0  0  0  0  0  0  0  # atno 10718 bound_to 10713
  154.4349  135.5955  153.6092 H   0  0  0  0  0  0  0  0  0  0  0  0  # atno 10763 bound_to 10752
  152.9801  135.5984  154.3793 H   0  0  0  0  0  0  0  0  0  0  0  0  # atno 10764 bound_to 10752
  154.3636  135.2841  155.2285 H   0  0  0  0  0  0  0  0  0  0  0  0  # atno 10765 bound_to 10752
  141.1332  133.8271  157.0885 H   0  0  0  0  0  0  0  0  0  0  0  0  # atno 11005 bound_to 11000
  146.3091  140.3736  142.8676 LP  0  0  0  0  0  0  0  0  0  0  0  0  # atno 17320 bound_to 7965
  144.8959  140.7582  143.5897 LP  0  0  0  0  0  0  0  0  0  0  0  0  # atno 17321 bound_to 7965
  140.3366  143.3045  152.0632 LP  0  0  0  0  0  0  0  0  0  0  0  0  # atno 17342 bound_to 10162
  139.4920  144.6472  151.6753 LP  0  0  0  0  0  0  0  0  0  0  0  0  # atno 17343 bound_to 10162
  157.6494  130.8872  149.9603 LP  0  0  0  0  0  0  0  0  0  0  0  0  # atno 17370 bound_to 10713
  156.1031  130.3654  150.0182 LP  0  0  0  0  0  0  0  0  0  0  0  0  # atno 17371 bound_to 10713
  140.0407  134.9856  157.0956 LP  0  0  0  0  0  0  0  0  0  0  0  0  # atno 17394 bound_to 11000
  140.4140  134.1951  155.7163 LP  0  0  0  0  0  0  0  0  0  0  0  0  # atno 17395 bound_to 11000

$$$$
