AV-unprocessed.smi:574|AV-procd|sdf|2975|dock8
  -GOLD-   2262023483D 1   1.00000     0.00000
 Structure written by MMmdl.
 40 41  0  0  0  0  0  0  0  0  1 V2000
  146.8796  136.2026  154.9992 C   0  0  0  0  0  0  0  0  0  0  0  0
  148.2940  136.3968  155.5345 C   0  0  0  0  0  0  0  0  0  0  0  0
  148.4959  136.4357  156.7477 O   0  0  0  0  0  0  0  0  0  0  0  0
  149.2640  136.5195  154.6165 N   0  0  0  0  0  0  0  0  0  0  0  0
  150.6783  136.7110  154.9135 C   0  0  0  0  0  0  0  0  0  0  0  0
  151.2298  137.9803  154.2400 C   0  0  0  0  0  0  0  0  0  0  0  0
  150.9792  139.1654  155.0500 N   0  0  0  0  0  0  0  0  0  0  0  0
  151.7394  139.5732  156.0785 C   0  0  0  0  0  0  0  0  0  0  0  0
  152.7747  139.0046  156.4270 O   0  0  0  0  0  0  0  0  0  0  0  0
  151.2945  140.8380  156.7553 C   0  0  0  0  0  0  0  0  0  0  0  0
  152.1661  141.3862  157.6326 N   0  0  0  0  0  0  0  0  0  0  0  0
  151.8137  142.5087  158.2711 C   0  0  0  0  0  0  0  0  0  0  0  0
  152.7341  143.0556  159.1747 N   0  0  0  0  0  0  0  0  0  0  0  0
  153.7061  142.2244  159.8844 C   0  0  0  0  0  0  0  0  0  0  0  0
  153.1436  141.8443  161.2662 C   0  0  0  0  0  0  0  0  0  0  0  0
  152.8385  143.0303  161.9977 O   0  0  0  0  0  0  0  0  0  0  0  0
  151.8867  143.8571  161.3309 C   0  0  0  0  0  0  0  0  0  0  0  0
  152.4347  144.2593  159.9495 C   0  0  0  0  0  0  0  0  0  0  0  0
  150.6475  143.1453  158.1096 N   0  0  0  0  0  0  0  0  0  0  0  0
  149.7549  142.6116  157.2505 C   0  0  0  0  0  0  0  0  0  0  0  0
  150.0238  141.4301  156.5327 C   0  0  0  0  0  0  0  0  0  0  0  0
  148.8162  140.7690  155.4833 Cl  0  0  0  0  0  0  0  0  0  0  0  0
  146.8437  135.3616  154.3063 H   0  0  0  0  0  0  0  0  0  0  0  0
  146.5468  137.0983  154.4743 H   0  0  0  0  0  0  0  0  0  0  0  0
  146.1807  136.0040  155.8122 H   0  0  0  0  0  0  0  0  0  0  0  0
  149.0035  136.4750  153.6418 H   0  0  0  0  0  0  0  0  0  0  0  0
  150.8334  136.7513  155.9932 H   0  0  0  0  0  0  0  0  0  0  0  0
  151.2149  135.8316  154.5567 H   0  0  0  0  0  0  0  0  0  0  0  0
  152.2988  137.8793  154.0450 H   0  0  0  0  0  0  0  0  0  0  0  0
  150.7503  138.1314  153.2725 H   0  0  0  0  0  0  0  0  0  0  0  0
  150.1589  139.7094  154.8237 H   0  0  0  0  0  0  0  0  0  0  0  0
  153.9834  141.3309  159.3257 H   0  0  0  0  0  0  0  0  0  0  0  0
  154.6274  142.7947  160.0076 H   0  0  0  0  0  0  0  0  0  0  0  0
  152.2505  141.2253  161.1662 H   0  0  0  0  0  0  0  0  0  0  0  0
  153.8765  141.2623  161.8251 H   0  0  0  0  0  0  0  0  0  0  0  0
  150.9352  143.3316  161.2352 H   0  0  0  0  0  0  0  0  0  0  0  0
  151.7031  144.7446  161.9365 H   0  0  0  0  0  0  0  0  0  0  0  0
  153.3551  144.8311  160.0726 H   0  0  0  0  0  0  0  0  0  0  0  0
  151.7386  144.9246  159.4398 H   0  0  0  0  0  0  0  0  0  0  0  0
  148.8123  143.1276  157.1438 H   0  0  0  0  0  0  0  0  0  0  0  0
  1  2  1  0  0  0  0
  1 23  1  0  0  0  0
  1 24  1  0  0  0  0
  1 25  1  0  0  0  0
  2  3  2  0  0  0  0
  2  4  1  0  0  0  0
  4  5  1  0  0  0  0
  4 26  1  0  0  0  0
  5  6  1  0  0  0  0
  5 27  1  0  0  0  0
  5 28  1  0  0  0  0
  6  7  1  0  0  0  0
  6 29  1  0  0  0  0
  6 30  1  0  0  0  0
  7  8  1  0  0  0  0
  7 31  1  0  0  0  0
  8  9  2  0  0  0  0
  8 10  1  0  0  0  0
 10 21  1  0  0  0  0
 10 11  2  0  0  0  0
 11 12  1  0  0  0  0
 12 13  1  0  0  0  0
 12 19  2  0  0  0  0
 13 18  1  0  0  0  0
 13 14  1  0  0  0  0
 14 15  1  0  0  0  0
 14 32  1  0  0  0  0
 14 33  1  0  0  0  0
 15 16  1  0  0  0  0
 15 34  1  0  0  0  0
 15 35  1  0  0  0  0
 16 17  1  0  0  0  0
 17 18  1  0  0  0  0
 17 36  1  0  0  0  0
 17 37  1  0  0  0  0
 18 38  1  0  0  0  0
 18 39  1  0  0  0  0
 19 20  1  0  0  0  0
 20 21  2  0  0  0  0
 20 40  1  0  0  0  0
 21 22  1  0  0  0  0
M  END
> <s_m_source_file>
AV-unprocessed.smi

> <i_m_source_file_index>
574

> <i_lp_mmshare_version>
43012

> <i_f3d_flags>
0

> <s_epik_input>
W0NIM11DKD1PKVtOSF1bQ0gyXVtDSDJdW05IXUMoPU8pYzFuYyhuW2NIXWMxQ2wpTjJbQ0gyXVtDSDJdT1tDSDJdW0NIMl0y

> <s_epik_cmdline>
J2VwaWtfcHl0aG9uJywgJy1waCcsICc3LjAnLCAnLXRuJywgJzgnLCAnLW1hJywgJzIwMCcsICctbWV0YWxfYmluZGluZycsICctaW1hZScsICc8aW5maWxlLm1hZT4nLCAnLW9tYWUnLCAnPG91dGZpbGUubWFlPic=

> <r_lp_tautomer_probability>
1

> <r_epik_Ionization_Penalty>
4.61473e-05

> <r_epik_Ionization_Penalty_Charging>
0

> <r_epik_Ionization_Penalty_Neutral>
4.61473e-05

> <r_epik_State_Penalty>
-0

> <r_epik_Charging_Adjusted_Penalty>
0

> <i_epik_Tot_Q>
0

> <i_epik_Tot_abs_Q>
0

> <r_epik_Metal_State_Penalty>
0.0410325

> <b_epik_Metal_Only>
0

> <s_lp_Force_Field>
OPLS_2005

> <r_lp_Energy>
11.2452

> <b_lp_Chiralities_Consistent>
1

> <s_lp_Variant>
AV-unprocessed.smi:574-1

> <Gold.Version>
5.8.1

> <Gold.Id.Protein>
6NUR|6NUR_protein|mol2

> <Gold.PLP.Fitness>
43.3966

> <Gold.PLP.PLP>
-36.0185

> <Gold.PLP.part.hbond>
-2.0000

> <Gold.PLP.part.metal>
0.0000

> <Gold.PLP.part.buried>
-0.4561

> <Gold.PLP.part.nonpolar>
-32.8317

> <Gold.PLP.part.repulsive>
0.3749

> <Gold.PLP.ligand.clash>
0.0000

> <Gold.PLP.ligand.torsion>
0.5259

> <Gold.PLP.Chemscore.Hbond>
2.0000

> <Gold.PLP.Chemscore.CHOScore>
0.7423

> <Gold.PLP.Chemscore.Metal>
0.0000

> <Gold.Chemscore.Hbonds>
donor molecule, donor type, donor heavy atom, donor atom, acceptor molecule, acceptor atom, score
      L1  H     4    26       P1  7948  1.00
      P1  H  7997  8010       L1     9  1.00
      L1  C    20    40       P1  8028  0.67

> <Gold.PLP.Chemscore.Internal.Correction>
0.2029

> <Gold.Rescore>
     Score         DG    S(hbond)    S(metal)    S(lipo)     H(rot)  DE(clash)    DE(int)     intcor
     14.09     -17.75       1.95        0.00      86.25       1.70       1.79       1.87       ----

> <Gold.Chemscore.Fitness>
14.0945

> <Gold.Chemscore.DG>
-17.7509

> <Gold.Chemscore.ZeroCoef>
-5.4800

> <Gold.Chemscore.Hbond>
1.9523

> <Gold.Chemscore.Metal>
0.0000

> <Gold.Chemscore.Lipo>
86.2484

> <Gold.Chemscore.Internal_Hbond>
0.0000

> <Gold.Chemscore.DEClash>
1.7907

> <Gold.Chemscore.DEInternal>
1.8657

> <Gold.Chemscore.Rot>
1.6957

> <Gold.Chemscore.Internal.Correction>
   9.000000E+99

> <Gold.Chemscore.Hbonds>
donor molecule, donor type, donor heavy atom, donor atom, acceptor molecule, acceptor atom, score
      L1  H     4    26       P1  7948  0.99
      P1  H  7997  8010       L1     9  0.95

> <Gold.Chemscore.Hbond.Weighted>
-6.5208

> <Gold.Chemscore.Metal.Weighted>
-0.0000

> <Gold.Chemscore.Lipo.Weighted>
-10.0911

> <Gold.Chemscore.Internal_Hbond.Weighted>
0.0000

> <Gold.Chemscore.DEClash.Weighted>
1.7907

> <Gold.Chemscore.DEInternal.Weighted>
1.8657

> <Gold.Chemscore.Rot.Weighted>
4.3410

> <Gold.Chemscore.Internal.Correction.Weighted>
   9.000000E+99

> <Gold.Protein.RotatedTorsions>
[ 6907 6896 6895 6894 ] final  -44.01 input  -60.11 | X-H torsion
[ 7974 7965 7964 7962 ] final -110.26 input  175.53 | X-H torsion
[ 8008 7997 7996 7995 ] final   62.91 input   59.86 | X-H torsion
[ 10167 10162 10161 10158 ] final  -81.04 input  -65.29 | X-H torsion
[ 10718 10713 10712 10709 ] final  147.53 input   66.30 | X-H torsion
[ 10763 10752 10751 10750 ] final   82.98 input  -60.55 | X-H torsion
[ 11005 11000 10999 10996 ] final  -21.06 input  -57.11 | X-H torsion

> <Gold.Protein.ActiveResidues>
 VAL166  LYS551  ARG553  GLY616  TRP617  ASP618  TYR619  PRO620  LYS621  CYS622 
 ASP623  PHE694  ASN695  SER759  ASP760  ASP761  ALA762  ILE779  LEU786  VAL792 
 PHE793  MET794  SER795  GLU796  ALA797  LYS798  CYS799  TRP800  GLU811  SER814 

> <Gold.Protein.RotatedAtoms>
  150.9375  134.8787  159.7590 H   0  0  0  0  0  0  0  0  0  0  0  0  # atno 6907 bound_to 6896
  152.5066  134.3989  159.9419 H   0  0  0  0  0  0  0  0  0  0  0  0  # atno 6908 bound_to 6896
  151.4012  133.3717  159.2767 H   0  0  0  0  0  0  0  0  0  0  0  0  # atno 6909 bound_to 6896
  145.1705  140.8923  143.3538 H   0  0  0  0  0  0  0  0  0  0  0  0  # atno 7974 bound_to 7965
  155.6218  140.3496  155.4654 H   0  0  0  0  0  0  0  0  0  0  0  0  # atno 8008 bound_to 7997
  156.0073  140.1226  157.0513 H   0  0  0  0  0  0  0  0  0  0  0  0  # atno 8009 bound_to 7997
  154.4268  140.1088  156.5766 H   0  0  0  0  0  0  0  0  0  0  0  0  # atno 8010 bound_to 7997
  140.4448  143.2502  151.8574 H   0  0  0  0  0  0  0  0  0  0  0  0  # atno 10167 bound_to 10162
  157.3198  131.0902  151.1250 H   0  0  0  0  0  0  0  0  0  0  0  0  # atno 10718 bound_to 10713
  153.1250  135.4708  154.9258 H   0  0  0  0  0  0  0  0  0  0  0  0  # atno 10763 bound_to 10752
  154.7612  135.3132  154.8377 H   0  0  0  0  0  0  0  0  0  0  0  0  # atno 10764 bound_to 10752
  153.8933  135.6882  153.4813 H   0  0  0  0  0  0  0  0  0  0  0  0  # atno 10765 bound_to 10752
  140.8524  133.7847  155.9981 H   0  0  0  0  0  0  0  0  0  0  0  0  # atno 11005 bound_to 11000
  145.0238  139.3401  143.6059 LP  0  0  0  0  0  0  0  0  0  0  0  0  # atno 17320 bound_to 7965
  146.3469  139.9549  142.8724 LP  0  0  0  0  0  0  0  0  0  0  0  0  # atno 17321 bound_to 7965
  139.4792  144.5188  151.8830 LP  0  0  0  0  0  0  0  0  0  0  0  0  # atno 17342 bound_to 10162
  140.4277  144.2158  150.5887 LP  0  0  0  0  0  0  0  0  0  0  0  0  # atno 17343 bound_to 10162
  157.2539  130.6627  149.5944 LP  0  0  0  0  0  0  0  0  0  0  0  0  # atno 17370 bound_to 10713
  155.9685  130.4530  150.5794 LP  0  0  0  0  0  0  0  0  0  0  0  0  # atno 17371 bound_to 10713
  140.8775  134.2652  157.5161 LP  0  0  0  0  0  0  0  0  0  0  0  0  # atno 17394 bound_to 11000
  139.8704  134.9598  156.4344 LP  0  0  0  0  0  0  0  0  0  0  0  0  # atno 17395 bound_to 11000

$$$$
