AV-unprocessed.smi:2229|AV-procd|sdf|9029|dock1
  -GOLD-   2272012233D 1   1.00000     0.00000
 Structure written by MMmdl.
 44 45  0  0  0  0  0  0  0  0  1 V2000
  148.9010  140.2859  157.4135 C   0  0  0  0  0  0  0  0  0  0  0  0
  149.4147  141.3563  156.4387 C   0  0  0  0  0  0  0  0  0  0  0  0
  148.7174  141.2190  155.0743 C   0  0  0  0  0  0  0  0  0  0  0  0
  150.9530  141.3010  156.3305 C   0  0  0  0  0  0  0  0  0  0  0  0
  151.6748  141.4879  157.6759 C   0  0  0  0  0  0  0  0  0  0  0  0
  151.3800  142.8412  158.3653 C   0  0  2  0  0  0  0  0  0  0  0  0
  151.8662  144.0623  157.5764 C   0  0  0  0  0  0  0  0  0  0  0  0
  151.9064  145.1834  158.6096 C   0  0  0  0  0  0  0  0  0  0  0  0
  152.3952  144.5071  159.8913 C   0  0  0  0  0  0  0  0  0  0  0  0
  151.9838  143.0237  159.7822 C   0  0  2  0  0  0  0  0  0  0  0  0
  153.1237  142.1378  159.9924 N   0  0  0  0  0  0  0  0  0  0  0  0
  153.8253  141.9825  161.1254 C   0  0  0  0  0  0  0  0  0  0  0  0
  153.6189  142.6511  162.1369 O   0  0  0  0  0  0  0  0  0  0  0  0
  154.9127  140.8938  161.1451 C   0  0  0  0  0  0  0  0  0  0  0  0
  154.4369  139.5524  160.7852 N   0  0  0  0  0  0  0  0  0  0  0  0
  154.4229  138.4933  161.6694 C   0  0  0  0  0  0  0  0  0  0  0  0
  153.8968  137.4377  161.1487 N   0  0  0  0  0  0  0  0  0  0  0  0
  153.5764  137.8543  159.9004 N   0  0  0  0  0  0  0  0  0  0  0  0
  153.8859  139.1278  159.6512 C   0  0  0  0  0  0  0  0  0  0  0  0
  153.6839  139.7637  158.6187 O   0  0  0  0  0  0  0  0  0  0  0  0
  153.1320  137.2087  159.2633 H   0  0  0  0  0  0  0  0  0  0  0  0
  149.1336  139.2817  157.0576 H   0  0  0  0  0  0  0  0  0  0  0  0
  147.8198  140.3529  157.5378 H   0  0  0  0  0  0  0  0  0  0  0  0
  149.3502  140.4021  158.4003 H   0  0  0  0  0  0  0  0  0  0  0  0
  149.1412  142.3273  156.8539 H   0  0  0  0  0  0  0  0  0  0  0  0
  148.9982  140.2898  154.5778 H   0  0  0  0  0  0  0  0  0  0  0  0
  148.9662  142.0446  154.4079 H   0  0  0  0  0  0  0  0  0  0  0  0
  147.6331  141.2192  155.1879 H   0  0  0  0  0  0  0  0  0  0  0  0
  151.2341  140.3335  155.9137 H   0  0  0  0  0  0  0  0  0  0  0  0
  151.3026  142.0500  155.6187 H   0  0  0  0  0  0  0  0  0  0  0  0
  151.3753  140.6852  158.3498 H   0  0  0  0  0  0  0  0  0  0  0  0
  152.7491  141.3767  157.5212 H   0  0  0  0  0  0  0  0  0  0  0  0
  150.2977  142.9343  158.4710 H   0  0  0  0  0  0  0  0  0  0  0  0
  152.8706  143.8845  157.1887 H   0  0  0  0  0  0  0  0  0  0  0  0
  151.2200  144.3040  156.7323 H   0  0  0  0  0  0  0  0  0  0  0  0
  152.5441  146.0135  158.3044 H   0  0  0  0  0  0  0  0  0  0  0  0
  150.9002  145.5757  158.7622 H   0  0  0  0  0  0  0  0  0  0  0  0
  153.4803  144.6050  159.9554 H   0  0  0  0  0  0  0  0  0  0  0  0
  151.9794  144.9814  160.7807 H   0  0  0  0  0  0  0  0  0  0  0  0
  151.2180  142.7891  160.5240 H   0  0  0  0  0  0  0  0  0  0  0  0
  153.3759  141.5507  159.2108 H   0  0  0  0  0  0  0  0  0  0  0  0
  155.7049  141.1885  160.4553 H   0  0  0  0  0  0  0  0  0  0  0  0
  155.3673  140.8713  162.1370 H   0  0  0  0  0  0  0  0  0  0  0  0
  154.8240  138.6253  162.6758 H   0  0  0  0  0  0  0  0  0  0  0  0
  1  2  1  0  0  0  0
  1 22  1  0  0  0  0
  1 23  1  0  0  0  0
  1 24  1  0  0  0  0
  2  3  1  0  0  0  0
  2  4  1  0  0  0  0
  2 25  1  0  0  0  0
  3 26  1  0  0  0  0
  3 27  1  0  0  0  0
  3 28  1  0  0  0  0
  4  5  1  0  0  0  0
  4 29  1  0  0  0  0
  4 30  1  0  0  0  0
  5  6  1  0  0  0  0
  5 31  1  0  0  0  0
  5 32  1  0  0  0  0
  6 10  1  0  0  0  0
  6  7  1  0  0  0  0
  6 33  1  0  0  0  0
  7  8  1  0  0  0  0
  7 34  1  0  0  0  0
  7 35  1  0  0  0  0
  8  9  1  0  0  0  0
  8 36  1  0  0  0  0
  8 37  1  0  0  0  0
  9 10  1  0  0  0  0
  9 38  1  0  0  0  0
  9 39  1  0  0  0  0
 10 11  1  0  0  0  0
 10 40  1  0  0  0  0
 11 12  1  0  0  0  0
 11 41  1  0  0  0  0
 12 13  2  0  0  0  0
 12 14  1  0  0  0  0
 14 15  1  0  0  0  0
 14 42  1  0  0  0  0
 14 43  1  0  0  0  0
 15 19  1  0  0  0  0
 15 16  1  0  0  0  0
 16 17  2  0  0  0  0
 16 44  1  0  0  0  0
 17 18  1  0  0  0  0
 18 21  1  0  0  0  0
 18 19  1  0  0  0  0
 19 20  2  0  0  0  0
M  END
> <s_m_source_file>
AV-unprocessed.smi

> <i_m_source_file_index>
2229

> <i_lp_mmshare_version>
43012

> <i_f3d_flags>
0

> <s_epik_input>
W0NIM11bQ0hdKFtDSDNdKVtDSDJdW0NIMl1bQ0BASF0xW0NIMl1bQ0gyXVtDSDJdW0NASF0xW05IXUMoPU8pW0NIMl1uMltjSF1uW25IXWMyPU8=

> <s_epik_cmdline>
J2VwaWtfcHl0aG9uJywgJy1waCcsICc3LjAnLCAnLXRuJywgJzgnLCAnLW1hJywgJzIwMCcsICctbWV0YWxfYmluZGluZycsICctaW1hZScsICc8aW5maWxlLm1hZT4nLCAnLW9tYWUnLCAnPG91dGZpbGUubWFlPic=

> <r_lp_tautomer_probability>
1

> <r_epik_Ionization_Penalty>
4.14174e-05

> <r_epik_Ionization_Penalty_Charging>
4.13165e-05

> <r_epik_Ionization_Penalty_Neutral>
1.00911e-07

> <r_epik_State_Penalty>
-0

> <r_epik_Charging_Adjusted_Penalty>
4.13165e-05

> <i_epik_Tot_Q>
0

> <i_epik_Tot_abs_Q>
0

> <r_epik_Metal_State_Penalty>
0.0399369

> <b_epik_Metal_Only>
0

> <s_lp_Force_Field>
OPLS_2005

> <r_lp_Energy>
36.2175

> <b_lp_Chiralities_Consistent>
1

> <s_lp_Variant>
AV-unprocessed.smi:2229-3

> <Gold.Version>
5.8.1

> <Gold.Id.Protein>
6NUR|6NUR_protein|mol2

> <Gold.PLP.Fitness>
44.3811

> <Gold.PLP.PLP>
-41.4472

> <Gold.PLP.part.hbond>
-1.0000

> <Gold.PLP.part.metal>
0.0000

> <Gold.PLP.part.buried>
-6.6570

> <Gold.PLP.part.nonpolar>
-33.7610

> <Gold.PLP.part.repulsive>
0.1969

> <Gold.PLP.ligand.clash>
0.0000

> <Gold.PLP.ligand.torsion>
0.0704

> <Gold.PLP.Chemscore.Hbond>
1.0000

> <Gold.PLP.Chemscore.CHOScore>
0.0000

> <Gold.PLP.Chemscore.Metal>
0.0000

> <Gold.Chemscore.Hbonds>
donor molecule, donor type, donor heavy atom, donor atom, acceptor molecule, acceptor atom, score
      P1  H  7997  8010       L1    20  1.00

> <Gold.PLP.Chemscore.Internal.Correction>
0.0747

> <Gold.Rescore>
     Score         DG    S(hbond)    S(metal)    S(lipo)     H(rot)  DE(clash)    DE(int)     intcor
     12.94     -13.28       0.93        0.00      97.67       2.64       0.01       0.32       ----

> <Gold.Chemscore.Fitness>
12.9412

> <Gold.Chemscore.DG>
-13.2795

> <Gold.Chemscore.ZeroCoef>
-5.4800

> <Gold.Chemscore.Hbond>
0.9347

> <Gold.Chemscore.Metal>
0.0000

> <Gold.Chemscore.Lipo>
97.6737

> <Gold.Chemscore.Internal_Hbond>
0.0000

> <Gold.Chemscore.DEClash>
0.0149

> <Gold.Chemscore.DEInternal>
0.3235

> <Gold.Chemscore.Rot>
2.6368

> <Gold.Chemscore.Internal.Correction>
   9.000000E+99

> <Gold.Chemscore.Hbonds>
donor molecule, donor type, donor heavy atom, donor atom, acceptor molecule, acceptor atom, score
      P1  H  7997  8010       L1    20  0.98

> <Gold.Chemscore.Hbond.Weighted>
-3.1218

> <Gold.Chemscore.Metal.Weighted>
-0.0000

> <Gold.Chemscore.Lipo.Weighted>
-11.4278

> <Gold.Chemscore.Internal_Hbond.Weighted>
0.0000

> <Gold.Chemscore.DEClash.Weighted>
0.0149

> <Gold.Chemscore.DEInternal.Weighted>
0.3235

> <Gold.Chemscore.Rot.Weighted>
6.7501

> <Gold.Chemscore.Internal.Correction.Weighted>
   9.000000E+99

> <Gold.Protein.RotatedTorsions>
[ 6907 6896 6895 6894 ] final -142.32 input  -60.11 | X-H torsion
[ 7974 7965 7964 7962 ] final  -37.66 input  175.53 | X-H torsion
[ 8008 7997 7996 7995 ] final   12.08 input   59.86 | X-H torsion
[ 10167 10162 10161 10158 ] final  -17.16 input  -65.29 | X-H torsion
[ 10718 10713 10712 10709 ] final  169.23 input   66.30 | X-H torsion
[ 10763 10752 10751 10750 ] final -168.86 input  -60.55 | X-H torsion
[ 11005 11000 10999 10996 ] final  108.23 input  -57.11 | X-H torsion

> <Gold.Protein.ActiveResidues>
 VAL166  LYS551  ARG553  GLY616  TRP617  ASP618  TYR619  PRO620  LYS621  CYS622 
 ASP623  PHE694  ASN695  SER759  ASP760  ASP761  ALA762  ILE779  LEU786  VAL792 
 PHE793  MET794  SER795  GLU796  ALA797  LYS798  CYS799  TRP800  GLU811  SER814 

> <Gold.Protein.RotatedAtoms>
  151.0855  133.5356  159.2617 H   0  0  0  0  0  0  0  0  0  0  0  0  # atno 6907 bound_to 6896
  151.2243  135.0530  159.8972 H   0  0  0  0  0  0  0  0  0  0  0  0  # atno 6908 bound_to 6896
  152.5428  134.0653  159.8224 H   0  0  0  0  0  0  0  0  0  0  0  0  # atno 6909 bound_to 6896
  146.0555  140.6421  142.9021 H   0  0  0  0  0  0  0  0  0  0  0  0  # atno 7974 bound_to 7965
  154.8157  140.2875  155.5822 H   0  0  0  0  0  0  0  0  0  0  0  0  # atno 8008 bound_to 7997
  156.2993  140.2560  156.2984 H   0  0  0  0  0  0  0  0  0  0  0  0  # atno 8009 bound_to 7997
  154.9396  140.0381  157.2079 H   0  0  0  0  0  0  0  0  0  0  0  0  # atno 8010 bound_to 7997
  140.7243  143.5043  150.9829 H   0  0  0  0  0  0  0  0  0  0  0  0  # atno 10167 bound_to 10162
  157.0256  131.0244  151.2761 H   0  0  0  0  0  0  0  0  0  0  0  0  # atno 10718 bound_to 10713
  154.6584  135.2921  154.9898 H   0  0  0  0  0  0  0  0  0  0  0  0  # atno 10763 bound_to 10752
  154.0967  135.6583  153.4865 H   0  0  0  0  0  0  0  0  0  0  0  0  # atno 10764 bound_to 10752
  153.0415  135.5233  154.7523 H   0  0  0  0  0  0  0  0  0  0  0  0  # atno 10765 bound_to 10752
  139.8841  134.9424  156.5941 H   0  0  0  0  0  0  0  0  0  0  0  0  # atno 11005 bound_to 11000
  144.7146  140.4162  143.7054 LP  0  0  0  0  0  0  0  0  0  0  0  0  # atno 17320 bound_to 7965
  145.6650  139.1588  143.2787 LP  0  0  0  0  0  0  0  0  0  0  0  0  # atno 17321 bound_to 7965
  139.8754  143.7139  152.3162 LP  0  0  0  0  0  0  0  0  0  0  0  0  # atno 17342 bound_to 10162
  139.7403  144.7561  151.0663 LP  0  0  0  0  0  0  0  0  0  0  0  0  # atno 17343 bound_to 10162
  157.5216  130.8002  149.7816 LP  0  0  0  0  0  0  0  0  0  0  0  0  # atno 17370 bound_to 10713
  156.0087  130.3843  150.2340 LP  0  0  0  0  0  0  0  0  0  0  0  0  # atno 17371 bound_to 10713
  140.7933  133.8564  155.8665 LP  0  0  0  0  0  0  0  0  0  0  0  0  # atno 17394 bound_to 11000
  140.9657  134.1597  157.4617 LP  0  0  0  0  0  0  0  0  0  0  0  0  # atno 17395 bound_to 11000

$$$$
