AV-unprocessed.smi:2603|AV-procd|sdf|10186|dock5
  -GOLD-   2272014203D 1   1.00000     0.00000
 Structure written by MMmdl.
 35 36  0  0  0  0  0  0  0  0  1 V2000
  153.2342  142.7859  162.3535 C   0  0  0  0  0  0  0  0  0  0  0  0
  152.6608  144.1008  161.8199 C   0  0  0  0  0  0  0  0  0  0  0  0
  151.4175  143.8399  161.1939 O   0  0  0  0  0  0  0  0  0  0  0  0
  151.0916  144.8181  160.2192 C   0  0  1  0  0  0  0  0  0  0  0  0
  152.1199  144.9589  159.1320 C   0  0  0  0  0  0  0  0  0  0  0  0
  150.8144  144.2365  158.8492 C   0  0  1  0  0  0  0  0  0  0  0  0
  150.8582  142.8177  158.7058 N   0  0  0  0  0  0  0  0  0  0  0  0
  150.8970  142.1459  157.5466 C   0  0  0  0  0  0  0  0  0  0  0  0
  150.9463  142.6882  156.4427 O   0  0  0  0  0  0  0  0  0  0  0  0
  150.8584  140.6214  157.6500 C   0  0  0  0  0  0  0  0  0  0  0  0
  151.0402  140.0189  156.2799 C   0  0  0  0  0  0  0  0  0  0  0  0
  152.0156  139.0714  155.8505 C   0  0  0  0  0  0  0  0  0  0  0  0
  153.1169  138.4220  156.6386 C   0  0  0  0  0  0  0  0  0  0  0  0
  151.8739  138.7625  154.5727 N   0  0  0  0  0  0  0  0  0  0  0  0
  150.7814  139.5059  154.1165 O   0  0  0  0  0  0  0  0  0  0  0  0
  150.3016  140.2423  155.1503 C   0  0  0  0  0  0  0  0  0  0  0  0
  149.1205  141.1058  154.8621 C   0  0  0  0  0  0  0  0  0  0  0  0
  154.1941  142.9502  162.8432 H   0  0  0  0  0  0  0  0  0  0  0  0
  153.3888  142.0696  161.5463 H   0  0  0  0  0  0  0  0  0  0  0  0
  152.5611  142.3315  163.0810 H   0  0  0  0  0  0  0  0  0  0  0  0
  152.5269  144.8094  162.6386 H   0  0  0  0  0  0  0  0  0  0  0  0
  153.3543  144.5472  161.1058 H   0  0  0  0  0  0  0  0  0  0  0  0
  150.5160  145.6750  160.5654 H   0  0  0  0  0  0  0  0  0  0  0  0
  152.2518  145.9451  158.6915 H   0  0  0  0  0  0  0  0  0  0  0  0
  153.0268  144.3619  159.2136 H   0  0  0  0  0  0  0  0  0  0  0  0
  150.0916  144.7772  158.2399 H   0  0  0  0  0  0  0  0  0  0  0  0
  150.8127  142.2798  159.5591 H   0  0  0  0  0  0  0  0  0  0  0  0
  151.6402  140.2919  158.3351 H   0  0  0  0  0  0  0  0  0  0  0  0
  149.9149  140.3135  158.1023 H   0  0  0  0  0  0  0  0  0  0  0  0
  153.0261  138.6284  157.7044 H   0  0  0  0  0  0  0  0  0  0  0  0
  154.0939  138.7807  156.3145 H   0  0  0  0  0  0  0  0  0  0  0  0
  153.1015  137.3393  156.5133 H   0  0  0  0  0  0  0  0  0  0  0  0
  148.5764  141.3413  155.7769 H   0  0  0  0  0  0  0  0  0  0  0  0
  148.4307  140.6065  154.1815 H   0  0  0  0  0  0  0  0  0  0  0  0
  149.4320  142.0436  154.4028 H   0  0  0  0  0  0  0  0  0  0  0  0
  1  2  1  0  0  0  0
  1 18  1  0  0  0  0
  1 19  1  0  0  0  0
  1 20  1  0  0  0  0
  2  3  1  0  0  0  0
  2 21  1  0  0  0  0
  2 22  1  0  0  0  0
  3  4  1  0  0  0  0
  4  6  1  0  0  0  0
  4  5  1  0  0  0  0
  4 23  1  0  0  0  0
  5  6  1  0  0  0  0
  5 24  1  0  0  0  0
  5 25  1  0  0  0  0
  6  7  1  0  0  0  0
  6 26  1  0  0  0  0
  7  8  1  0  0  0  0
  7 27  1  0  0  0  0
  8  9  2  0  0  0  0
  8 10  1  0  0  0  0
 10 11  1  0  0  0  0
 10 28  1  0  0  0  0
 10 29  1  0  0  0  0
 11 16  2  0  0  0  0
 11 12  1  0  0  0  0
 12 13  1  0  0  0  0
 12 14  2  0  0  0  0
 13 30  1  0  0  0  0
 13 31  1  0  0  0  0
 13 32  1  0  0  0  0
 14 15  1  0  0  0  0
 15 16  1  0  0  0  0
 16 17  1  0  0  0  0
 17 33  1  0  0  0  0
 17 34  1  0  0  0  0
 17 35  1  0  0  0  0
M  END
> <s_m_source_file>
AV-unprocessed.smi

> <i_m_source_file_index>
2603

> <i_lp_mmshare_version>
43012

> <i_f3d_flags>
0

> <s_epik_input>
W0NIM11bQ0gyXU9bQ0BASF0xW0NIMl1bQ0BIXTFbTkhdQyg9TylbQ0gyXWMyYyhbQ0gzXSlub2MyW0NIM10=

> <s_epik_cmdline>
J2VwaWtfcHl0aG9uJywgJy1waCcsICc3LjAnLCAnLXRuJywgJzgnLCAnLW1hJywgJzIwMCcsICctbWV0YWxfYmluZGluZycsICctaW1hZScsICc8aW5maWxlLm1hZT4nLCAnLW9tYWUnLCAnPG91dGZpbGUubWFlPic=

> <r_lp_tautomer_probability>
1

> <r_epik_Ionization_Penalty>
2.37325e-08

> <r_epik_Ionization_Penalty_Charging>
0

> <r_epik_Ionization_Penalty_Neutral>
2.37325e-08

> <r_epik_State_Penalty>
-0

> <r_epik_Charging_Adjusted_Penalty>
0

> <i_epik_Tot_Q>
0

> <i_epik_Tot_abs_Q>
0

> <r_epik_Metal_State_Penalty>
-0

> <b_epik_Metal_Only>
0

> <s_lp_Force_Field>
OPLS_2005

> <r_lp_Energy>
11.0439

> <b_lp_Chiralities_Consistent>
1

> <s_lp_Variant>
AV-unprocessed.smi:2603-2

> <Gold.Version>
5.8.1

> <Gold.Id.Protein>
6NUR|6NUR_protein|mol2

> <Gold.PLP.Fitness>
37.6864

> <Gold.PLP.PLP>
-36.6407

> <Gold.PLP.part.hbond>
-1.7531

> <Gold.PLP.part.metal>
0.0000

> <Gold.PLP.part.buried>
-4.7275

> <Gold.PLP.part.nonpolar>
-30.8634

> <Gold.PLP.part.repulsive>
1.4293

> <Gold.PLP.ligand.clash>
0.0000

> <Gold.PLP.ligand.torsion>
0.7935

> <Gold.PLP.Chemscore.Hbond>
0.6500

> <Gold.PLP.Chemscore.CHOScore>
0.0000

> <Gold.PLP.Chemscore.Metal>
0.0000

> <Gold.Chemscore.Hbonds>
donor molecule, donor type, donor heavy atom, donor atom, acceptor molecule, acceptor atom, score
      P1  H  7989  7998       L1    15  0.57

> <Gold.PLP.Chemscore.Internal.Correction>
0.6826

> <Gold.Rescore>
     Score         DG    S(hbond)    S(metal)    S(lipo)     H(rot)  DE(clash)    DE(int)     intcor
     10.19     -12.04       0.00        0.00      93.11       1.69       0.02       1.83       ----

> <Gold.Chemscore.Fitness>
10.1866

> <Gold.Chemscore.DG>
-12.0412

> <Gold.Chemscore.ZeroCoef>
-5.4800

> <Gold.Chemscore.Hbond>
0.0006

> <Gold.Chemscore.Metal>
0.0000

> <Gold.Chemscore.Lipo>
93.1118

> <Gold.Chemscore.Internal_Hbond>
0.0000

> <Gold.Chemscore.DEClash>
0.0249

> <Gold.Chemscore.DEInternal>
1.8298

> <Gold.Chemscore.Rot>
1.6933

> <Gold.Chemscore.Internal.Correction>
   9.000000E+99

> <Gold.Chemscore.Hbonds>
donor molecule, donor type, donor heavy atom, donor atom, acceptor molecule, acceptor atom, score
      P1  H  7989  7998       L1    15  0.01

> <Gold.Chemscore.Hbond.Weighted>
-0.0019

> <Gold.Chemscore.Metal.Weighted>
-0.0000

> <Gold.Chemscore.Lipo.Weighted>
-10.8941

> <Gold.Chemscore.Internal_Hbond.Weighted>
0.0000

> <Gold.Chemscore.DEClash.Weighted>
0.0249

> <Gold.Chemscore.DEInternal.Weighted>
1.8298

> <Gold.Chemscore.Rot.Weighted>
4.3348

> <Gold.Chemscore.Internal.Correction.Weighted>
   9.000000E+99

> <Gold.Protein.RotatedTorsions>
[ 6907 6896 6895 6894 ] final  -55.11 input  -60.11 | X-H torsion
[ 7974 7965 7964 7962 ] final  -43.56 input  175.53 | X-H torsion
[ 8008 7997 7996 7995 ] final  163.69 input   59.86 | X-H torsion
[ 10167 10162 10161 10158 ] final  158.56 input  -65.29 | X-H torsion
[ 10718 10713 10712 10709 ] final  -57.33 input   66.30 | X-H torsion
[ 10763 10752 10751 10750 ] final -177.05 input  -60.55 | X-H torsion
[ 11005 11000 10999 10996 ] final   -1.06 input  -57.11 | X-H torsion

> <Gold.Protein.ActiveResidues>
 VAL166  LYS551  ARG553  GLY616  TRP617  ASP618  TYR619  PRO620  LYS621  CYS622 
 ASP623  PHE694  ASN695  SER759  ASP760  ASP761  ALA762  ILE779  LEU786  VAL792 
 PHE793  MET794  SER795  GLU796  ALA797  LYS798  CYS799  TRP800  GLU811  SER814 

> <Gold.Protein.RotatedAtoms>
  150.8279  134.7519  159.6828 H   0  0  0  0  0  0  0  0  0  0  0  0  # atno 6907 bound_to 6896
  152.4388  134.5630  159.9909 H   0  0  0  0  0  0  0  0  0  0  0  0  # atno 6908 bound_to 6896
  151.5798  133.3341  159.3042 H   0  0  0  0  0  0  0  0  0  0  0  0  # atno 6909 bound_to 6896
  146.0007  140.7078  142.9272 H   0  0  0  0  0  0  0  0  0  0  0  0  # atno 7974 bound_to 7965
  156.1937  140.1717  156.8040 H   0  0  0  0  0  0  0  0  0  0  0  0  # atno 8008 bound_to 7997
  154.5503  140.0719  156.8689 H   0  0  0  0  0  0  0  0  0  0  0  0  # atno 8009 bound_to 7997
  155.3041  140.3363  155.4249 H   0  0  0  0  0  0  0  0  0  0  0  0  # atno 8010 bound_to 7997
  139.4827  144.4813  151.8440 H   0  0  0  0  0  0  0  0  0  0  0  0  # atno 10167 bound_to 10162
  156.1219  130.4165  150.0426 H   0  0  0  0  0  0  0  0  0  0  0  0  # atno 10718 bound_to 10713
  154.5649  135.2823  155.0884 H   0  0  0  0  0  0  0  0  0  0  0  0  # atno 10763 bound_to 10752
  154.2278  135.6379  153.5169 H   0  0  0  0  0  0  0  0  0  0  0  0  # atno 10764 bound_to 10752
  153.0040  135.5530  154.6254 H   0  0  0  0  0  0  0  0  0  0  0  0  # atno 10765 bound_to 10752
  140.6431  133.9471  155.8337 H   0  0  0  0  0  0  0  0  0  0  0  0  # atno 11005 bound_to 11000
  144.6918  140.3228  143.7229 LP  0  0  0  0  0  0  0  0  0  0  0  0  # atno 17320 bound_to 7965
  145.7492  139.1788  143.2331 LP  0  0  0  0  0  0  0  0  0  0  0  0  # atno 17321 bound_to 7965
  140.4289  144.2142  150.5887 LP  0  0  0  0  0  0  0  0  0  0  0  0  # atno 17342 bound_to 10162
  140.4799  143.2383  151.8970 LP  0  0  0  0  0  0  0  0  0  0  0  0  # atno 17343 bound_to 10162
  156.8361  130.9409  151.3634 LP  0  0  0  0  0  0  0  0  0  0  0  0  # atno 17370 bound_to 10713
  157.6402  130.8799  149.9434 LP  0  0  0  0  0  0  0  0  0  0  0  0  # atno 17371 bound_to 10713
  141.0592  134.0371  157.3681 LP  0  0  0  0  0  0  0  0  0  0  0  0  # atno 17394 bound_to 11000
  139.9073  135.0182  156.7540 LP  0  0  0  0  0  0  0  0  0  0  0  0  # atno 17395 bound_to 11000

$$$$
