AV-unprocessed.smi:21|AV-procd|sdf|139|dock9
  -GOLD-   2262015343D 1   1.00000     0.00000
 Structure written by MMmdl.
 62 65  0  0  0  0  0  0  0  0  2 V2000
  152.8853  143.2883  161.3411 C   0  0  0  0  0  0  0  0  0  0  0  0
  151.7138  143.9898  160.9549 O   0  0  0  0  0  0  0  0  0  0  0  0
  151.7543  144.4811  159.6213 C   0  0  1  0  0  0  0  0  0  0  0  0
  152.0895  143.3210  158.6927 C   0  0  0  0  0  0  0  0  0  0  0  0
  150.7355  142.6474  158.4499 C   0  0  2  0  0  0  0  0  0  0  0  0
  150.6735  141.8123  157.1536 C   0  0  0  0  0  0  0  0  0  0  0  0
  151.2536  140.4774  157.3133 N   0  0  0  0  0  0  0  0  0  0  0  0
  152.3463  140.3140  158.2637 C   0  0  0  0  0  0  0  0  0  0  0  0
  151.0686  139.5508  156.3324 C   0  0  0  0  0  0  0  0  0  0  0  0
  151.0420  139.9853  155.0447 N   0  0  0  0  0  0  0  0  0  0  0  0
  150.8745  139.1259  154.0372 C   0  0  0  0  0  0  0  0  0  0  0  0
  150.7267  137.8028  154.0891 N   0  0  0  0  0  0  0  0  0  0  0  0
  150.7619  137.3490  155.3734 C   0  0  0  0  0  0  0  0  0  0  0  0
  150.9169  138.1462  156.5456 C   0  0  0  0  0  0  0  0  0  0  0  0
  150.9023  137.3235  157.6672 N   0  0  0  0  0  0  0  0  0  0  0  0
  150.7421  136.1212  157.1889 C   0  0  0  0  0  0  0  0  0  0  0  0
  150.6722  136.0400  155.8175 N   0  0  0  0  0  0  0  0  0  0  0  0
  150.5165  134.8249  155.0296 C   0  0  0  0  0  0  0  0  0  0  0  0
  150.4856  133.5163  155.8682 C   0  0  2  0  0  0  0  0  0  0  0  0
  151.7788  133.3109  156.6933 C   0  0  0  0  0  0  0  0  0  0  0  0
  151.5878  132.3433  157.7047 O   0  0  0  0  0  0  0  0  0  0  0  0
  150.1692  132.2709  154.9992 C   0  0  2  0  0  0  0  0  0  0  0  0
  149.0240  132.4599  154.0176 C   0  0  0  0  0  0  0  0  0  0  0  0
  148.6648  131.0225  153.6596 C   0  0  0  0  0  0  0  0  0  0  0  0
  148.9379  130.2578  154.8282 O   0  0  0  0  0  0  0  0  0  0  0  0
  149.6542  131.0501  155.7698 C   0  0  0  0  0  0  0  0  0  0  0  0
  149.7617  143.7631  158.4273 N   0  3  1  0  0  0  0  0  0  0  0  0
  148.4071  143.3955  158.8956 C   0  0  0  0  0  0  0  0  0  0  0  0
  150.3530  144.9105  159.1578 C   0  0  0  0  0  0  0  0  0  0  0  0
  152.4912  145.2805  159.5255 H   0  0  0  0  0  0  0  0  0  0  0  0
  150.5112  142.0152  159.3112 H   0  0  0  0  0  0  0  0  0  0  0  0
  152.7882  142.9607  162.3760 H   0  0  0  0  0  0  0  0  0  0  0  0
  153.7756  143.9137  161.2709 H   0  0  0  0  0  0  0  0  0  0  0  0
  153.0324  142.4018  160.7229 H   0  0  0  0  0  0  0  0  0  0  0  0
  152.4864  143.7129  157.7549 H   0  0  0  0  0  0  0  0  0  0  0  0
  152.8353  142.6445  159.1118 H   0  0  0  0  0  0  0  0  0  0  0  0
  149.6320  141.6807  156.8594 H   0  0  0  0  0  0  0  0  0  0  0  0
  151.1336  142.3576  156.3293 H   0  0  0  0  0  0  0  0  0  0  0  0
  152.3934  139.2886  158.6322 H   0  0  0  0  0  0  0  0  0  0  0  0
  152.2054  140.9663  159.1258 H   0  0  0  0  0  0  0  0  0  0  0  0
  153.3012  140.5683  157.8031 H   0  0  0  0  0  0  0  0  0  0  0  0
  150.8601  139.5594  153.0479 H   0  0  0  0  0  0  0  0  0  0  0  0
  150.6853  135.2520  157.8284 H   0  0  0  0  0  0  0  0  0  0  0  0
  149.5917  134.9163  154.4592 H   0  0  0  0  0  0  0  0  0  0  0  0
  151.3104  134.7907  154.2839 H   0  0  0  0  0  0  0  0  0  0  0  0
  149.6676  133.6199  156.5830 H   0  0  0  0  0  0  0  0  0  0  0  0
  152.5902  132.9512  156.0613 H   0  0  0  0  0  0  0  0  0  0  0  0
  152.1206  134.2450  157.1389 H   0  0  0  0  0  0  0  0  0  0  0  0
  150.9648  131.7035  157.3949 H   0  0  0  0  0  0  0  0  0  0  0  0
  151.0614  131.9675  154.4500 H   0  0  0  0  0  0  0  0  0  0  0  0
  148.1777  132.9430  154.5085 H   0  0  0  0  0  0  0  0  0  0  0  0
  149.2854  133.0508  153.1411 H   0  0  0  0  0  0  0  0  0  0  0  0
  147.6259  130.9181  153.3464 H   0  0  0  0  0  0  0  0  0  0  0  0
  149.3019  130.6622  152.8510 H   0  0  0  0  0  0  0  0  0  0  0  0
  150.4587  130.4739  156.2274 H   0  0  0  0  0  0  0  0  0  0  0  0
  148.9635  131.3527  156.5582 H   0  0  0  0  0  0  0  0  0  0  0  0
  148.4238  143.0852  159.9413 H   0  0  0  0  0  0  0  0  0  0  0  0
  148.0003  142.5767  158.3017 H   0  0  0  0  0  0  0  0  0  0  0  0
  147.7295  144.2446  158.8019 H   0  0  0  0  0  0  0  0  0  0  0  0
  149.7275  145.2470  159.9857 H   0  0  0  0  0  0  0  0  0  0  0  0
  150.4305  145.7422  158.4568 H   0  0  0  0  0  0  0  0  0  0  0  0
  149.6799  144.0553  157.4637 H   0  0  0  0  0  0  0  0  0  0  0  0
  1  2  1  0  0  0  0
  1 32  1  0  0  0  0
  1 33  1  0  0  0  0
  1 34  1  0  0  0  0
  2  3  1  0  0  0  0
  3 30  1  0  0  0  0
  3 29  1  0  0  0  0
  3  4  1  0  0  0  0
  4  5  1  0  0  0  0
  4 35  1  0  0  0  0
  4 36  1  0  0  0  0
  5 31  1  0  0  0  0
  5  6  1  0  0  0  0
  5 27  1  0  0  0  0
  6  7  1  0  0  0  0
  6 37  1  0  0  0  0
  6 38  1  0  0  0  0
  7  8  1  0  0  0  0
  7  9  1  0  0  0  0
  8 39  1  0  0  0  0
  8 40  1  0  0  0  0
  8 41  1  0  0  0  0
  9 14  1  0  0  0  0
  9 10  2  0  0  0  0
 10 11  1  0  0  0  0
 11 12  2  0  0  0  0
 11 42  1  0  0  0  0
 12 13  1  0  0  0  0
 13 17  1  0  0  0  0
 13 14  2  0  0  0  0
 14 15  1  0  0  0  0
 15 16  2  0  0  0  0
 16 17  1  0  0  0  0
 16 43  1  0  0  0  0
 17 18  1  0  0  0  0
 18 19  1  0  0  0  0
 18 44  1  0  0  0  0
 18 45  1  0  0  0  0
 19 20  1  0  0  0  0
 19 22  1  0  0  0  0
 19 46  1  0  0  0  0
 20 21  1  0  0  0  0
 20 47  1  0  0  0  0
 20 48  1  0  0  0  0
 21 49  1  0  0  0  0
 22 26  1  0  0  0  0
 22 23  1  0  0  0  0
 22 50  1  0  0  0  0
 23 24  1  0  0  0  0
 23 51  1  0  0  0  0
 23 52  1  0  0  0  0
 24 25  1  0  0  0  0
 24 53  1  0  0  0  0
 24 54  1  0  0  0  0
 25 26  1  0  0  0  0
 26 55  1  0  0  0  0
 26 56  1  0  0  0  0
 27 28  1  0  0  0  0
 27 29  1  0  0  0  0
 27 62  1  0  0  0  0
 28 57  1  0  0  0  0
 28 58  1  0  0  0  0
 28 59  1  0  0  0  0
 29 60  1  0  0  0  0
 29 61  1  0  0  0  0
M  CHG  1  27   1
M  END
> <s_m_source_file>
AV-unprocessed.smi

> <i_m_source_file_index>
21

> <i_lp_mmshare_version>
43012

> <i_f3d_flags>
0

> <s_epik_input>
W0NIM11PW0NASF0xW0NIMl1bQ0BIXShOKFtDSDNdKVtDSDJdMSlbQ0gyXU4oW0NIM10pYyhuW2NIXW4yKWMoYzIzKW5bY0hdbjNbQ0gyXVtDQEhdKFtDSDJdW09IXSlbQ0BASF00W0NIMl1bQ0gyXU9bQ0gyXTQ=

> <s_epik_cmdline>
J2VwaWtfcHl0aG9uJywgJy1waCcsICc3LjAnLCAnLXRuJywgJzgnLCAnLW1hJywgJzIwMCcsICctbWV0YWxfYmluZGluZycsICctaW1hZScsICc8aW5maWxlLm1hZT4nLCAnLW9tYWUnLCAnPG91dGZpbGUubWFlPic=

> <r_lp_tautomer_probability>
1

> <r_epik_Ionization_Penalty>
0.0157465

> <r_epik_Ionization_Penalty_Charging>
0.015354

> <r_epik_Ionization_Penalty_Neutral>
0.000392529

> <r_epik_State_Penalty>
0.0120612

> <r_epik_Charging_Adjusted_Penalty>
0.0274152

> <i_epik_Tot_Q>
1

> <i_epik_Tot_abs_Q>
1

> <r_epik_Metal_State_Penalty>
0.0121253

> <b_epik_Metal_Only>
0

> <s_lp_Force_Field>
OPLS_2005

> <r_lp_Energy>
57.752

> <b_lp_Chiralities_Consistent>
1

> <s_lp_Variant>
AV-unprocessed.smi:21-19

> <Gold.Version>
5.8.1

> <Gold.Id.Protein>
6NUR|6NUR_protein|mol2

> <Gold.PLP.Fitness>
53.4168

> <Gold.PLP.PLP>
-44.0300

> <Gold.PLP.part.hbond>
-3.8730

> <Gold.PLP.part.metal>
0.0000

> <Gold.PLP.part.buried>
-4.2100

> <Gold.PLP.part.nonpolar>
-36.8235

> <Gold.PLP.part.repulsive>
0.5169

> <Gold.PLP.ligand.clash>
0.0000

> <Gold.PLP.ligand.torsion>
1.5517

> <Gold.PLP.Chemscore.Hbond>
2.9825

> <Gold.PLP.Chemscore.CHOScore>
1.0000

> <Gold.PLP.Chemscore.Metal>
0.0000

> <Gold.Chemscore.Hbonds>
donor molecule, donor type, donor heavy atom, donor atom, acceptor molecule, acceptor atom, score
      L1  H    27    62       P1  8028  1.89
      P1  H  6896  6909       L1    21  1.00
      L1  C    11    42       P1  7957  1.00

> <Gold.PLP.Chemscore.Internal.Correction>
0.5427

> <Gold.Rescore>
     Score         DG    S(hbond)    S(metal)    S(lipo)     H(rot)  DE(clash)    DE(int)     intcor
      9.48     -12.40       0.72        0.00     105.78       3.08       0.30       2.61       ----

> <Gold.Chemscore.Fitness>
9.4834

> <Gold.Chemscore.DG>
-12.3982

> <Gold.Chemscore.ZeroCoef>
-5.4800

> <Gold.Chemscore.Hbond>
0.7235

> <Gold.Chemscore.Metal>
0.0000

> <Gold.Chemscore.Lipo>
105.7761

> <Gold.Chemscore.Internal_Hbond>
0.0000

> <Gold.Chemscore.DEClash>
0.3017

> <Gold.Chemscore.DEInternal>
2.6131

> <Gold.Chemscore.Rot>
3.0758

> <Gold.Chemscore.Internal.Correction>
   9.000000E+99

> <Gold.Chemscore.Hbonds>
donor molecule, donor type, donor heavy atom, donor atom, acceptor molecule, acceptor atom, score
      L1  H    27    62       P1  8028  0.36
      P1  H  6896  6909       L1    21  0.45

> <Gold.Chemscore.Hbond.Weighted>
-2.4165

> <Gold.Chemscore.Metal.Weighted>
-0.0000

> <Gold.Chemscore.Lipo.Weighted>
-12.3758

> <Gold.Chemscore.Internal_Hbond.Weighted>
0.0000

> <Gold.Chemscore.DEClash.Weighted>
0.3017

> <Gold.Chemscore.DEInternal.Weighted>
2.6131

> <Gold.Chemscore.Rot.Weighted>
7.8741

> <Gold.Chemscore.Internal.Correction.Weighted>
   9.000000E+99

> <Gold.Protein.RotatedTorsions>
[ 6907 6896 6895 6894 ] final  -44.76 input  -60.11 | X-H torsion
[ 7974 7965 7964 7962 ] final -135.01 input  175.53 | X-H torsion
[ 8008 7997 7996 7995 ] final  145.94 input   59.86 | X-H torsion
[ 10167 10162 10161 10158 ] final   29.14 input  -65.29 | X-H torsion
[ 10718 10713 10712 10709 ] final   50.68 input   66.30 | X-H torsion
[ 10763 10752 10751 10750 ] final  -38.20 input  -60.55 | X-H torsion
[ 11005 11000 10999 10996 ] final    4.90 input  -57.11 | X-H torsion

> <Gold.Protein.ActiveResidues>
 VAL166  LYS551  ARG553  GLY616  TRP617  ASP618  TYR619  PRO620  LYS621  CYS622 
 ASP623  PHE694  ASN695  SER759  ASP760  ASP761  ALA762  ILE779  LEU786  VAL792 
 PHE793  MET794  SER795  GLU796  ALA797  LYS798  CYS799  TRP800  GLU811  SER814 

> <Gold.Protein.RotatedAtoms>
  150.9293  134.8709  159.7540 H   0  0  0  0  0  0  0  0  0  0  0  0  # atno 6907 bound_to 6896
  152.5030  134.4102  159.9456 H   0  0  0  0  0  0  0  0  0  0  0  0  # atno 6908 bound_to 6896
  151.4131  133.3681  159.2781 H   0  0  0  0  0  0  0  0  0  0  0  0  # atno 6909 bound_to 6896
  144.9051  140.6823  143.5060 H   0  0  0  0  0  0  0  0  0  0  0  0  # atno 7974 bound_to 7965
  156.2869  140.2195  156.5297 H   0  0  0  0  0  0  0  0  0  0  0  0  # atno 8008 bound_to 7997
  154.7459  140.0484  157.0874 H   0  0  0  0  0  0  0  0  0  0  0  0  # atno 8009 bound_to 7997
  155.0171  140.3120  155.4810 H   0  0  0  0  0  0  0  0  0  0  0  0  # atno 8010 bound_to 7997
  140.4792  144.0643  150.6260 H   0  0  0  0  0  0  0  0  0  0  0  0  # atno 10167 bound_to 10162
  157.4908  130.8375  149.8201 H   0  0  0  0  0  0  0  0  0  0  0  0  # atno 10718 bound_to 10713
  153.9090  135.6794  153.4752 H   0  0  0  0  0  0  0  0  0  0  0  0  # atno 10763 bound_to 10752
  153.1089  135.4792  154.8997 H   0  0  0  0  0  0  0  0  0  0  0  0  # atno 10764 bound_to 10752
  154.7537  135.3191  154.8465 H   0  0  0  0  0  0  0  0  0  0  0  0  # atno 10765 bound_to 10752
  140.5767  134.0051  155.8031 H   0  0  0  0  0  0  0  0  0  0  0  0  # atno 11005 bound_to 11000
  145.3549  139.1696  143.4414 LP  0  0  0  0  0  0  0  0  0  0  0  0  # atno 17320 bound_to 7965
  146.3129  140.3605  142.8664 LP  0  0  0  0  0  0  0  0  0  0  0  0  # atno 17321 bound_to 7965
  140.3880  143.2767  152.0094 LP  0  0  0  0  0  0  0  0  0  0  0  0  # atno 17342 bound_to 10162
  139.4830  144.6101  151.7450 LP  0  0  0  0  0  0  0  0  0  0  0  0  # atno 17343 bound_to 10162
  156.0172  130.3809  150.2072 LP  0  0  0  0  0  0  0  0  0  0  0  0  # atno 17370 bound_to 10713
  157.0261  130.9993  151.3326 LP  0  0  0  0  0  0  0  0  0  0  0  0  # atno 17371 bound_to 10713
  141.1022  133.9750  157.3059 LP  0  0  0  0  0  0  0  0  0  0  0  0  # atno 17394 bound_to 11000
  139.9336  135.0198  156.8483 LP  0  0  0  0  0  0  0  0  0  0  0  0  # atno 17395 bound_to 11000

$$$$
