AV-unprocessed.smi:3238|AV-procd|sdf|12375|dock3
  -GOLD-   2272018233D 1   1.00000     0.00000
 Structure written by MMmdl.
 37 39  0  0  0  0  0  0  0  0  1 V2000
  150.0500  134.2006  154.7564 C   0  0  0  0  0  0  0  0  0  0  0  0
  149.9488  135.6059  154.3952 N   0  0  0  0  0  0  0  0  0  0  0  0
  150.6503  136.5891  154.9792 C   0  0  0  0  0  0  0  0  0  0  0  0
  151.4687  136.3936  155.8776 O   0  0  0  0  0  0  0  0  0  0  0  0
  150.3966  138.0097  154.4702 C   0  0  0  0  0  0  0  0  0  0  0  0
  151.0243  139.0178  155.3791 C   0  0  0  0  0  0  0  0  0  0  0  0
  152.1441  139.6487  155.0446 N   0  0  0  0  0  0  0  0  0  0  0  0
  152.3954  140.4723  156.1512 O   0  0  0  0  0  0  0  0  0  0  0  0
  151.3763  140.2511  157.0155 C   0  0  0  0  0  0  0  0  0  0  0  0
  151.3894  140.9401  158.3393 C   0  0  0  0  0  0  0  0  0  0  0  0
  152.2531  142.2163  158.3326 C   0  0  2  0  0  0  0  0  0  0  0  0
  152.7387  142.6902  159.7202 C   0  0  0  0  0  0  0  0  0  0  0  0
  152.3508  144.1809  159.7273 C   0  0  2  0  0  0  0  0  0  0  0  0
  150.8264  144.3025  159.9053 C   0  0  0  0  0  0  0  0  0  0  0  0
  150.2896  143.8434  158.5371 C   0  0  0  0  0  0  0  0  0  0  0  0
  151.5765  143.4855  157.7648 C   0  0  1  0  0  0  0  0  0  0  0  0
  152.5277  144.5694  158.2629 C   0  0  0  0  0  0  0  0  0  0  0  0
  150.4962  139.3484  156.5906 N   0  0  0  0  0  0  0  0  0  0  0  0
  149.4036  133.6041  154.1127 H   0  0  0  0  0  0  0  0  0  0  0  0
  149.7404  134.0436  155.7904 H   0  0  0  0  0  0  0  0  0  0  0  0
  151.0731  133.8404  154.6401 H   0  0  0  0  0  0  0  0  0  0  0  0
  149.2952  135.8502  153.6649 H   0  0  0  0  0  0  0  0  0  0  0  0
  150.8003  138.1192  153.4623 H   0  0  0  0  0  0  0  0  0  0  0  0
  149.3234  138.1930  154.4028 H   0  0  0  0  0  0  0  0  0  0  0  0
  150.3616  141.1907  158.6036 H   0  0  0  0  0  0  0  0  0  0  0  0
  151.7421  140.2319  159.0890 H   0  0  0  0  0  0  0  0  0  0  0  0
  153.1291  142.0175  157.7121 H   0  0  0  0  0  0  0  0  0  0  0  0
  152.2747  142.1467  160.5443 H   0  0  0  0  0  0  0  0  0  0  0  0
  153.8184  142.5646  159.8090 H   0  0  0  0  0  0  0  0  0  0  0  0
  152.9225  144.7789  160.4374 H   0  0  0  0  0  0  0  0  0  0  0  0
  150.4548  143.6877  160.7258 H   0  0  0  0  0  0  0  0  0  0  0  0
  150.5375  145.3355  160.1032 H   0  0  0  0  0  0  0  0  0  0  0  0
  149.5848  143.0165  158.6144 H   0  0  0  0  0  0  0  0  0  0  0  0
  149.7683  144.6647  158.0437 H   0  0  0  0  0  0  0  0  0  0  0  0
  151.4431  143.4602  156.6830 H   0  0  0  0  0  0  0  0  0  0  0  0
  152.1868  145.5818  158.0390 H   0  0  0  0  0  0  0  0  0  0  0  0
  153.5515  144.4499  157.9035 H   0  0  0  0  0  0  0  0  0  0  0  0
  1  2  1  0  0  0  0
  1 19  1  0  0  0  0
  1 20  1  0  0  0  0
  1 21  1  0  0  0  0
  2  3  1  0  0  0  0
  2 22  1  0  0  0  0
  3  4  2  0  0  0  0
  3  5  1  0  0  0  0
  5  6  1  0  0  0  0
  5 23  1  0  0  0  0
  5 24  1  0  0  0  0
  6 18  1  0  0  0  0
  6  7  2  0  0  0  0
  7  8  1  0  0  0  0
  8  9  1  0  0  0  0
  9 10  1  0  0  0  0
  9 18  2  0  0  0  0
 10 11  1  0  0  0  0
 10 25  1  0  0  0  0
 10 26  1  0  0  0  0
 11 16  1  0  0  0  0
 11 12  1  0  0  0  0
 11 27  1  0  0  0  0
 12 13  1  0  0  0  0
 12 28  1  0  0  0  0
 12 29  1  0  0  0  0
 13 17  1  0  0  0  0
 13 14  1  0  0  0  0
 13 30  1  0  0  0  0
 14 15  1  0  0  0  0
 14 31  1  0  0  0  0
 14 32  1  0  0  0  0
 15 16  1  0  0  0  0
 15 33  1  0  0  0  0
 15 34  1  0  0  0  0
 16 17  1  0  0  0  0
 16 35  1  0  0  0  0
 17 36  1  0  0  0  0
 17 37  1  0  0  0  0
M  END
> <s_m_source_file>
AV-unprocessed.smi

> <i_m_source_file_index>
3238

> <i_lp_mmshare_version>
43012

> <i_f3d_flags>
0

> <s_epik_input>
W0NIM11bTkhdQyg9TylbQ0gyXWMxbm9jKG4xKVtDSDJdW0NASF0oW0NIMl1bQ0BIXTIzKVtDQEhdKFtDSDJdMylbQ0gyXVtDSDJdMg==

> <s_epik_cmdline>
J2VwaWtfcHl0aG9uJywgJy1waCcsICc3LjAnLCAnLXRuJywgJzgnLCAnLW1hJywgJzIwMCcsICctbWV0YWxfYmluZGluZycsICctaW1hZScsICc8aW5maWxlLm1hZT4nLCAnLW9tYWUnLCAnPG91dGZpbGUubWFlPic=

> <r_lp_tautomer_probability>
1

> <r_epik_Ionization_Penalty>
1.02915e-07

> <r_epik_Ionization_Penalty_Charging>
0

> <r_epik_Ionization_Penalty_Neutral>
1.02915e-07

> <r_epik_State_Penalty>
-0

> <r_epik_Charging_Adjusted_Penalty>
0

> <i_epik_Tot_Q>
0

> <i_epik_Tot_abs_Q>
0

> <r_epik_Metal_State_Penalty>
-0

> <b_epik_Metal_Only>
0

> <s_lp_Force_Field>
OPLS_2005

> <r_lp_Energy>
47.7222

> <b_lp_Chiralities_Consistent>
1

> <s_lp_Variant>
AV-unprocessed.smi:3238-1

> <Gold.Version>
5.8.1

> <Gold.Id.Protein>
6NUR|6NUR_protein|mol2

> <Gold.PLP.Fitness>
46.0301

> <Gold.PLP.PLP>
-36.3877

> <Gold.PLP.part.hbond>
-4.5907

> <Gold.PLP.part.metal>
0.0000

> <Gold.PLP.part.buried>
-1.8063

> <Gold.PLP.part.nonpolar>
-30.3074

> <Gold.PLP.part.repulsive>
0.1252

> <Gold.PLP.ligand.clash>
0.0000

> <Gold.PLP.ligand.torsion>
0.8143

> <Gold.PLP.Chemscore.Hbond>
3.7520

> <Gold.PLP.Chemscore.CHOScore>
0.0000

> <Gold.PLP.Chemscore.Metal>
0.0000

> <Gold.Chemscore.Hbonds>
donor molecule, donor type, donor heavy atom, donor atom, acceptor molecule, acceptor atom, score
      L1  H     2    22       P1  7948  0.96
      P1  H  7989  7998       L1     7  0.83
      P1  H  7997  8008       L1     8  0.91
      P1  H 10752 10765       L1     4  0.96

> <Gold.PLP.Chemscore.Internal.Correction>
0.0151

> <Gold.Rescore>
     Score         DG    S(hbond)    S(metal)    S(lipo)     H(rot)  DE(clash)    DE(int)     intcor
     19.21     -20.37       2.56        0.00      94.72       1.85       0.35       0.81       ----

> <Gold.Chemscore.Fitness>
19.2082

> <Gold.Chemscore.DG>
-20.3650

> <Gold.Chemscore.ZeroCoef>
-5.4800

> <Gold.Chemscore.Hbond>
2.5561

> <Gold.Chemscore.Metal>
0.0000

> <Gold.Chemscore.Lipo>
94.7155

> <Gold.Chemscore.Internal_Hbond>
0.0000

> <Gold.Chemscore.DEClash>
0.3461

> <Gold.Chemscore.DEInternal>
0.8108

> <Gold.Chemscore.Rot>
1.8492

> <Gold.Chemscore.Internal.Correction>
   9.000000E+99

> <Gold.Chemscore.Hbonds>
donor molecule, donor type, donor heavy atom, donor atom, acceptor molecule, acceptor atom, score
      L1  H     2    22       P1  7948  0.60
      P1  H  7989  7998       L1     7  0.29
      P1  H  7997  8008       L1     8  0.19
      P1  H 10752 10765       L1     4  0.27

> <Gold.Chemscore.Hbond.Weighted>
-8.5373

> <Gold.Chemscore.Metal.Weighted>
-0.0000

> <Gold.Chemscore.Lipo.Weighted>
-11.0817

> <Gold.Chemscore.Internal_Hbond.Weighted>
0.0000

> <Gold.Chemscore.DEClash.Weighted>
0.3461

> <Gold.Chemscore.DEInternal.Weighted>
0.8108

> <Gold.Chemscore.Rot.Weighted>
4.7340

> <Gold.Chemscore.Internal.Correction.Weighted>
   9.000000E+99

> <Gold.Protein.RotatedTorsions>
[ 6907 6896 6895 6894 ] final   75.88 input  -60.11 | X-H torsion
[ 7974 7965 7964 7962 ] final   52.15 input  175.53 | X-H torsion
[ 8008 7997 7996 7995 ] final  -43.90 input   59.86 | X-H torsion
[ 10167 10162 10161 10158 ] final -128.94 input  -65.29 | X-H torsion
[ 10718 10713 10712 10709 ] final -152.86 input   66.30 | X-H torsion
[ 10763 10752 10751 10750 ] final -166.93 input  -60.55 | X-H torsion
[ 11005 11000 10999 10996 ] final  -28.87 input  -57.11 | X-H torsion

> <Gold.Protein.ActiveResidues>
 VAL166  LYS551  ARG553  GLY616  TRP617  ASP618  TYR619  PRO620  LYS621  CYS622 
 ASP623  PHE694  ASN695  SER759  ASP760  ASP761  ALA762  ILE779  LEU786  VAL792 
 PHE793  MET794  SER795  GLU796  ALA797  LYS798  CYS799  TRP800  GLU811  SER814 

> <Gold.Protein.RotatedAtoms>
  152.5047  134.4053  159.9429 H   0  0  0  0  0  0  0  0  0  0  0  0  # atno 6907 bound_to 6896
  151.4018  133.3749  159.2741 H   0  0  0  0  0  0  0  0  0  0  0  0  # atno 6908 bound_to 6896
  150.9356  134.8790  159.7638 H   0  0  0  0  0  0  0  0  0  0  0  0  # atno 6909 bound_to 6896
  145.9842  139.4273  143.0113 H   0  0  0  0  0  0  0  0  0  0  0  0  # atno 7974 bound_to 7965
  154.3997  140.1436  156.3594 H   0  0  0  0  0  0  0  0  0  0  0  0  # atno 8008 bound_to 7997
  155.8195  140.3470  155.5484 H   0  0  0  0  0  0  0  0  0  0  0  0  # atno 8009 bound_to 7997
  155.8303  140.0911  157.1787 H   0  0  0  0  0  0  0  0  0  0  0  0  # atno 8010 bound_to 7997
  139.9450  143.6120  152.2492 H   0  0  0  0  0  0  0  0  0  0  0  0  # atno 10167 bound_to 10162
  156.4782  130.8290  151.2518 H   0  0  0  0  0  0  0  0  0  0  0  0  # atno 10718 bound_to 10713
  154.6783  135.2950  154.9648 H   0  0  0  0  0  0  0  0  0  0  0  0  # atno 10763 bound_to 10752
  154.0651  135.6626  153.4821 H   0  0  0  0  0  0  0  0  0  0  0  0  # atno 10764 bound_to 10752
  153.0531  135.5161  154.7814 H   0  0  0  0  0  0  0  0  0  0  0  0  # atno 10765 bound_to 10752
  140.9246  133.7377  156.0850 H   0  0  0  0  0  0  0  0  0  0  0  0  # atno 11005 bound_to 11000
  145.7724  140.9891  143.1142 LP  0  0  0  0  0  0  0  0  0  0  0  0  # atno 17320 bound_to 7965
  144.6870  139.9464  143.7476 LP  0  0  0  0  0  0  0  0  0  0  0  0  # atno 17321 bound_to 7965
  139.6674  144.7662  151.1848 LP  0  0  0  0  0  0  0  0  0  0  0  0  # atno 17342 bound_to 10162
  140.7600  143.5917  150.8789 LP  0  0  0  0  0  0  0  0  0  0  0  0  # atno 17343 bound_to 10162
  157.7485  131.0054  150.3111 LP  0  0  0  0  0  0  0  0  0  0  0  0  # atno 17370 bound_to 10713
  156.3549  130.3837  149.7299 LP  0  0  0  0  0  0  0  0  0  0  0  0  # atno 17371 bound_to 10713
  140.7942  134.3582  157.5456 LP  0  0  0  0  0  0  0  0  0  0  0  0  # atno 17394 bound_to 11000
  139.8783  134.9159  156.3141 LP  0  0  0  0  0  0  0  0  0  0  0  0  # atno 17395 bound_to 11000

$$$$
