AV-unprocessed.smi:2505|AV-procd|sdf|9856|dock3
  -GOLD-   2272013483D 1   1.00000     0.00000
 Structure written by MMmdl.
 48 52  0  0  0  0  0  0  0  0  1 V2000
  146.3515  137.3357  155.2680 O   0  0  0  0  0  0  0  0  0  0  0  0
  147.0590  136.9982  154.3223 C   0  0  0  0  0  0  0  0  0  0  0  0
  148.2666  137.5200  154.0347 N   0  0  0  0  0  0  0  0  0  0  0  0
  149.0000  138.5300  154.7126 C   0  0  0  0  0  0  0  0  0  0  0  0
  150.3167  138.8015  154.2858 C   0  0  0  0  0  0  0  0  0  0  0  0
  151.0854  139.7378  154.8808 N   0  0  0  0  0  0  0  0  0  0  0  0
  150.5373  140.4102  155.8962 C   0  0  0  0  0  0  0  0  0  0  0  0
  151.4065  141.4196  156.5798 C   0  0  0  0  0  0  0  0  0  0  0  0
  151.9051  141.1869  157.9915 C   0  0  0  0  0  0  0  0  0  0  0  0
  150.8730  142.2484  157.7305 C   0  0  0  0  0  0  0  0  0  0  0  0
  149.3119  140.2344  156.3981 N   0  0  0  0  0  0  0  0  0  0  0  0
  148.5354  139.2990  155.8088 C   0  0  0  0  0  0  0  0  0  0  0  0
  146.6584  136.0502  153.4573 N   0  0  0  0  0  0  0  0  0  0  0  0
  145.4065  135.2909  153.4847 C   0  0  1  0  0  0  0  0  0  0  0  0
  144.2278  136.1008  152.9200 C   0  0  2  0  0  0  0  0  0  0  0  0
  143.0902  136.4957  153.8224 C   0  0  0  0  0  0  0  0  0  0  0  0
  142.0588  135.3921  153.5727 C   0  0  0  0  0  0  0  0  0  0  0  0
  142.8197  134.2984  153.0654 O   0  0  0  0  0  0  0  0  0  0  0  0
  143.8099  134.8335  152.1903 C   0  0  2  0  0  0  0  0  0  0  0  0
  145.2396  134.2694  152.3326 C   0  0  0  0  0  0  0  0  0  0  0  0
  146.1184  134.3857  151.0839 C   0  0  0  0  0  0  0  0  0  0  0  0
  145.9070  133.1030  150.2771 C   0  0  0  0  0  0  0  0  0  0  0  0
  145.4587  132.0490  151.2947 C   0  0  0  0  0  0  0  0  0  0  0  0
  145.3694  132.7792  152.6387 C   0  0  0  0  0  0  0  0  0  0  0  0
  148.7123  137.1495  153.2078 H   0  0  0  0  0  0  0  0  0  0  0  0
  150.7600  138.2617  153.4617 H   0  0  0  0  0  0  0  0  0  0  0  0
  152.0809  141.9027  155.8753 H   0  0  0  0  0  0  0  0  0  0  0  0
  151.5767  140.2845  158.5038 H   0  0  0  0  0  0  0  0  0  0  0  0
  152.9157  141.5141  158.2261 H   0  0  0  0  0  0  0  0  0  0  0  0
  151.1919  143.2870  157.7893 H   0  0  0  0  0  0  0  0  0  0  0  0
  149.8578  142.0527  158.0703 H   0  0  0  0  0  0  0  0  0  0  0  0
  147.5544  139.1813  156.2398 H   0  0  0  0  0  0  0  0  0  0  0  0
  147.2865  135.8386  152.6954 H   0  0  0  0  0  0  0  0  0  0  0  0
  145.1638  134.8586  154.4582 H   0  0  0  0  0  0  0  0  0  0  0  0
  144.5460  136.8758  152.2201 H   0  0  0  0  0  0  0  0  0  0  0  0
  143.4056  136.5027  154.8661 H   0  0  0  0  0  0  0  0  0  0  0  0
  142.6886  137.4816  153.5873 H   0  0  0  0  0  0  0  0  0  0  0  0
  141.5096  135.1164  154.4731 H   0  0  0  0  0  0  0  0  0  0  0  0
  141.3388  135.7052  152.8150 H   0  0  0  0  0  0  0  0  0  0  0  0
  143.4524  134.9996  151.1729 H   0  0  0  0  0  0  0  0  0  0  0  0
  145.8928  135.2733  150.4918 H   0  0  0  0  0  0  0  0  0  0  0  0
  147.1713  134.4494  151.3613 H   0  0  0  0  0  0  0  0  0  0  0  0
  145.1242  133.2533  149.5326 H   0  0  0  0  0  0  0  0  0  0  0  0
  146.8127  132.8063  149.7473 H   0  0  0  0  0  0  0  0  0  0  0  0
  144.4831  131.6520  151.0117 H   0  0  0  0  0  0  0  0  0  0  0  0
  146.1528  131.2093  151.3452 H   0  0  0  0  0  0  0  0  0  0  0  0
  146.2814  132.5950  153.2069 H   0  0  0  0  0  0  0  0  0  0  0  0
  144.5462  132.3982  153.2433 H   0  0  0  0  0  0  0  0  0  0  0  0
  1  2  2  0  0  0  0
  2  3  1  0  0  0  0
  2 13  1  0  0  0  0
  3  4  1  0  0  0  0
  3 25  1  0  0  0  0
  4 12  1  0  0  0  0
  4  5  2  0  0  0  0
  5  6  1  0  0  0  0
  5 26  1  0  0  0  0
  6  7  2  0  0  0  0
  7  8  1  0  0  0  0
  7 11  1  0  0  0  0
  8 10  1  0  0  0  0
  8  9  1  0  0  0  0
  8 27  1  0  0  0  0
  9 10  1  0  0  0  0
  9 28  1  0  0  0  0
  9 29  1  0  0  0  0
 10 30  1  0  0  0  0
 10 31  1  0  0  0  0
 11 12  2  0  0  0  0
 12 32  1  0  0  0  0
 13 14  1  0  0  0  0
 13 33  1  0  0  0  0
 14 20  1  0  0  0  0
 14 15  1  0  0  0  0
 14 34  1  0  0  0  0
 15 19  1  0  0  0  0
 15 16  1  0  0  0  0
 15 35  1  0  0  0  0
 16 17  1  0  0  0  0
 16 36  1  0  0  0  0
 16 37  1  0  0  0  0
 17 18  1  0  0  0  0
 17 38  1  0  0  0  0
 17 39  1  0  0  0  0
 18 19  1  0  0  0  0
 19 20  1  0  0  0  0
 19 40  1  0  0  0  0
 20 24  1  0  0  0  0
 20 21  1  0  0  0  0
 21 22  1  0  0  0  0
 21 41  1  0  0  0  0
 21 42  1  0  0  0  0
 22 23  1  0  0  0  0
 22 43  1  0  0  0  0
 22 44  1  0  0  0  0
 23 24  1  0  0  0  0
 23 45  1  0  0  0  0
 23 46  1  0  0  0  0
 24 47  1  0  0  0  0
 24 48  1  0  0  0  0
M  END
> <s_m_source_file>
AV-unprocessed.smi

> <i_m_source_file_index>
2505

> <i_lp_mmshare_version>
43012

> <i_f3d_flags>
0

> <s_epik_input>
W0NIMl0xW0NIMl1bQ0hdMWMobltjSF0yKW5bY0hdYzJbTkhdQyg9TylbTkhdW0NAQEhdM1tDQEBIXShbQ0gyXVtDSDJdTzQpW0NASF00QzM1W0NIMl1bQ0gyXVtDSDJdW0NIMl01

> <s_epik_cmdline>
J2VwaWtfcHl0aG9uJywgJy1waCcsICc3LjAnLCAnLXRuJywgJzgnLCAnLW1hJywgJzIwMCcsICctbWV0YWxfYmluZGluZycsICctaW1hZScsICc8aW5maWxlLm1hZT4nLCAnLW9tYWUnLCAnPG91dGZpbGUubWFlPic=

> <r_lp_tautomer_probability>
1

> <r_epik_Ionization_Penalty>
2.6075e-05

> <r_epik_Ionization_Penalty_Charging>
0

> <r_epik_Ionization_Penalty_Neutral>
2.6075e-05

> <r_epik_State_Penalty>
-0

> <r_epik_Charging_Adjusted_Penalty>
0

> <i_epik_Tot_Q>
0

> <i_epik_Tot_abs_Q>
0

> <r_epik_Metal_State_Penalty>
-0

> <b_epik_Metal_Only>
0

> <s_lp_Force_Field>
OPLS_2005

> <r_lp_Energy>
62.9039

> <b_lp_Chiralities_Consistent>
1

> <s_lp_Variant>
AV-unprocessed.smi:2505-4

> <Gold.Version>
5.8.1

> <Gold.Id.Protein>
6NUR|6NUR_protein|mol2

> <Gold.PLP.Fitness>
43.4326

> <Gold.PLP.PLP>
-34.7380

> <Gold.PLP.part.hbond>
-3.0000

> <Gold.PLP.part.metal>
0.0000

> <Gold.PLP.part.buried>
-6.1993

> <Gold.PLP.part.nonpolar>
-24.8176

> <Gold.PLP.part.repulsive>
0.3648

> <Gold.PLP.ligand.clash>
0.0000

> <Gold.PLP.ligand.torsion>
0.2203

> <Gold.PLP.Chemscore.Hbond>
2.9440

> <Gold.PLP.Chemscore.CHOScore>
0.0000

> <Gold.PLP.Chemscore.Metal>
0.0000

> <Gold.Chemscore.Hbonds>
donor molecule, donor type, donor heavy atom, donor atom, acceptor molecule, acceptor atom, score
      L1  H     3    25       P1  7948  1.00
      L1  H    13    33       P1  7948  0.94
      P1  H  7989  7998       L1     6  1.00

> <Gold.PLP.Chemscore.Internal.Correction>
0.3032

> <Gold.Rescore>
     Score         DG    S(hbond)    S(metal)    S(lipo)     H(rot)  DE(clash)    DE(int)     intcor
     19.34     -21.14       2.55        0.00      86.85       1.17       0.02       1.79       ----

> <Gold.Chemscore.Fitness>
19.3400

> <Gold.Chemscore.DG>
-21.1419

> <Gold.Chemscore.ZeroCoef>
-5.4800

> <Gold.Chemscore.Hbond>
2.5469

> <Gold.Chemscore.Metal>
0.0000

> <Gold.Chemscore.Lipo>
86.8530

> <Gold.Chemscore.Internal_Hbond>
0.0000

> <Gold.Chemscore.DEClash>
0.0158

> <Gold.Chemscore.DEInternal>
1.7862

> <Gold.Chemscore.Rot>
1.1744

> <Gold.Chemscore.Internal.Correction>
   9.000000E+99

> <Gold.Chemscore.Hbonds>
donor molecule, donor type, donor heavy atom, donor atom, acceptor molecule, acceptor atom, score
      L1  H     3    25       P1  7948  0.99
      L1  H    13    33       P1  7948  0.91
      P1  H  7989  7998       L1     6  0.41

> <Gold.Chemscore.Hbond.Weighted>
-8.5066

> <Gold.Chemscore.Metal.Weighted>
-0.0000

> <Gold.Chemscore.Lipo.Weighted>
-10.1618

> <Gold.Chemscore.Internal_Hbond.Weighted>
0.0000

> <Gold.Chemscore.DEClash.Weighted>
0.0158

> <Gold.Chemscore.DEInternal.Weighted>
1.7862

> <Gold.Chemscore.Rot.Weighted>
3.0064

> <Gold.Chemscore.Internal.Correction.Weighted>
   9.000000E+99

> <Gold.Protein.RotatedTorsions>
[ 6907 6896 6895 6894 ] final   48.39 input  -60.11 | X-H torsion
[ 7974 7965 7964 7962 ] final -135.82 input  175.53 | X-H torsion
[ 8008 7997 7996 7995 ] final  -91.46 input   59.86 | X-H torsion
[ 10167 10162 10161 10158 ] final -106.76 input  -65.29 | X-H torsion
[ 10718 10713 10712 10709 ] final -113.15 input   66.30 | X-H torsion
[ 10763 10752 10751 10750 ] final   50.93 input  -60.55 | X-H torsion
[ 11005 11000 10999 10996 ] final  121.89 input  -57.11 | X-H torsion

> <Gold.Protein.ActiveResidues>
 VAL166  LYS551  ARG553  GLY616  TRP617  ASP618  TYR619  PRO620  LYS621  CYS622 
 ASP623  PHE694  ASN695  SER759  ASP760  ASP761  ALA762  ILE779  LEU786  VAL792 
 PHE793  MET794  SER795  GLU796  ALA797  LYS798  CYS799  TRP800  GLU811  SER814 

> <Gold.Protein.RotatedAtoms>
  152.2790  134.7850  160.0400 H   0  0  0  0  0  0  0  0  0  0  0  0  # atno 6907 bound_to 6896
  151.8436  133.3422  159.3659 H   0  0  0  0  0  0  0  0  0  0  0  0  # atno 6908 bound_to 6896
  150.7182  134.5296  159.5738 H   0  0  0  0  0  0  0  0  0  0  0  0  # atno 6909 bound_to 6896
  144.8980  140.6733  143.5103 H   0  0  0  0  0  0  0  0  0  0  0  0  # atno 7974 bound_to 7965
  154.7110  140.0519  157.0550 H   0  0  0  0  0  0  0  0  0  0  0  0  # atno 8008 bound_to 7997
  155.0555  140.3184  155.4659 H   0  0  0  0  0  0  0  0  0  0  0  0  # atno 8009 bound_to 7997
  156.2789  140.2108  156.5681 H   0  0  0  0  0  0  0  0  0  0  0  0  # atno 8010 bound_to 7997
  140.1843  143.3942  152.1257 H   0  0  0  0  0  0  0  0  0  0  0  0  # atno 10167 bound_to 10162
  156.0749  130.5958  150.8604 H   0  0  0  0  0  0  0  0  0  0  0  0  # atno 10718 bound_to 10713
  152.9784  135.5863  154.4332 H   0  0  0  0  0  0  0  0  0  0  0  0  # atno 10763 bound_to 10752
  154.3943  135.2768  155.2138 H   0  0  0  0  0  0  0  0  0  0  0  0  # atno 10764 bound_to 10752
  154.3996  135.6106  153.5944 H   0  0  0  0  0  0  0  0  0  0  0  0  # atno 10765 bound_to 10752
  139.9245  134.9640  156.8027 H   0  0  0  0  0  0  0  0  0  0  0  0  # atno 11005 bound_to 11000
  145.3665  139.1669  143.4355 LP  0  0  0  0  0  0  0  0  0  0  0  0  # atno 17320 bound_to 7965
  146.3092  140.3733  142.8676 LP  0  0  0  0  0  0  0  0  0  0  0  0  # atno 17321 bound_to 7965
  139.5283  144.7129  151.5149 LP  0  0  0  0  0  0  0  0  0  0  0  0  # atno 17342 bound_to 10162
  140.6499  143.8718  150.6775 LP  0  0  0  0  0  0  0  0  0  0  0  0  # atno 17343 bound_to 10162
  157.5839  131.0946  150.9227 LP  0  0  0  0  0  0  0  0  0  0  0  0  # atno 17370 bound_to 10713
  156.9417  130.5387  149.5280 LP  0  0  0  0  0  0  0  0  0  0  0  0  # atno 17371 bound_to 10713
  140.6376  133.9847  155.7692 LP  0  0  0  0  0  0  0  0  0  0  0  0  # atno 17394 bound_to 11000
  141.0792  134.0088  157.3411 LP  0  0  0  0  0  0  0  0  0  0  0  0  # atno 17395 bound_to 11000

$$$$
