AV-unprocessed.smi:1059|AV-procd|sdf|4654|dock4
  -GOLD-   22720 3163D 1   1.00000     0.00000
 Structure written by MMmdl.
 55 56  0  0  0  0  0  0  0  0  2 V2000
  152.2849  142.8186  160.0135 C   0  0  0  0  0  0  0  0  0  0  0  0
  152.1738  142.7975  158.4811 C   0  0  0  0  0  0  0  0  0  0  0  0
  151.6480  144.1519  157.9695 C   0  0  0  0  0  0  0  0  0  0  0  0
  151.3023  141.6045  158.0169 C   0  0  0  0  0  0  0  0  0  0  0  0
  152.0265  140.5372  157.1717 C   0  0  0  0  0  0  0  0  0  0  0  0
  152.9821  139.9316  157.6594 O   0  0  0  0  0  0  0  0  0  0  0  0
  151.5874  140.2888  155.9131 N   0  0  0  0  0  0  0  0  0  0  0  0
  152.2071  139.2814  155.0428 C   0  0  0  0  0  0  0  0  0  0  0  0
  151.2508  138.0835  154.9034 C   0  0  0  0  0  0  0  0  0  0  0  0
  149.8703  138.5283  154.3755 C   0  0  0  0  0  0  0  0  0  0  0  0
  148.9429  137.4016  154.4170 N   0  0  0  0  0  0  0  0  0  0  0  0
  147.6154  137.4871  154.2505 C   0  0  0  0  0  0  0  0  0  0  0  0
  147.0230  138.5467  154.0473 O   0  0  0  0  0  0  0  0  0  0  0  0
  147.0373  136.2753  154.3168 N   0  0  0  0  0  0  0  0  0  0  0  0
  145.6582  135.9497  154.2101 C   0  0  0  0  0  0  0  0  0  0  0  0
  144.7566  136.9917  153.9026 C   0  0  0  0  0  0  0  0  0  0  0  0
  143.3803  136.7123  153.7765 C   0  0  0  0  0  0  0  0  0  0  0  0
  142.9241  135.3893  153.9516 C   0  0  0  0  0  0  0  0  0  0  0  0
  141.5650  135.0659  153.8385 N   0  0  0  0  0  0  0  0  0  0  0  0
  140.7126  136.2409  153.7400 C   0  0  0  0  0  0  0  0  0  0  0  0
  141.3118  134.0129  152.8661 C   0  0  0  0  0  0  0  0  0  0  0  0
  143.8200  134.4125  154.2290 N   0  3  0  0  0  0  0  0  0  0  0  0
  145.1453  134.6376  154.3590 C   0  0  0  0  0  0  0  0  0  0  0  0
  149.3206  139.7266  155.1833 C   0  0  0  0  0  0  0  0  0  0  0  0
  150.3710  140.8452  155.3053 C   0  0  0  0  0  0  0  0  0  0  0  0
  151.3081  142.9500  160.4803 H   0  0  0  0  0  0  0  0  0  0  0  0
  152.9264  143.6332  160.3507 H   0  0  0  0  0  0  0  0  0  0  0  0
  152.7122  141.8893  160.3917 H   0  0  0  0  0  0  0  0  0  0  0  0
  153.1850  142.6615  158.0940 H   0  0  0  0  0  0  0  0  0  0  0  0
  150.6371  144.3442  158.3299 H   0  0  0  0  0  0  0  0  0  0  0  0
  151.6241  144.1985  156.8814 H   0  0  0  0  0  0  0  0  0  0  0  0
  152.2812  144.9711  158.3110 H   0  0  0  0  0  0  0  0  0  0  0  0
  150.8948  141.0986  158.8932 H   0  0  0  0  0  0  0  0  0  0  0  0
  150.4546  141.9951  157.4530 H   0  0  0  0  0  0  0  0  0  0  0  0
  152.4022  139.7212  154.0635 H   0  0  0  0  0  0  0  0  0  0  0  0
  153.1763  138.9416  155.4103 H   0  0  0  0  0  0  0  0  0  0  0  0
  151.6848  137.3374  154.2367 H   0  0  0  0  0  0  0  0  0  0  0  0
  151.1396  137.6018  155.8762 H   0  0  0  0  0  0  0  0  0  0  0  0
  149.9986  138.8419  153.3377 H   0  0  0  0  0  0  0  0  0  0  0  0
  149.3457  136.4895  154.5751 H   0  0  0  0  0  0  0  0  0  0  0  0
  147.6645  135.4891  154.4051 H   0  0  0  0  0  0  0  0  0  0  0  0
  145.1136  138.0028  153.7700 H   0  0  0  0  0  0  0  0  0  0  0  0
  142.6849  137.5070  153.5487 H   0  0  0  0  0  0  0  0  0  0  0  0
  140.9585  136.9666  154.5163 H   0  0  0  0  0  0  0  0  0  0  0  0
  139.6666  135.9590  153.8626 H   0  0  0  0  0  0  0  0  0  0  0  0
  140.8237  136.7240  152.7684 H   0  0  0  0  0  0  0  0  0  0  0  0
  141.9781  133.1650  153.0298 H   0  0  0  0  0  0  0  0  0  0  0  0
  141.4588  134.3758  151.8481 H   0  0  0  0  0  0  0  0  0  0  0  0
  140.2856  133.6559  152.9556 H   0  0  0  0  0  0  0  0  0  0  0  0
  145.7356  133.7575  154.5650 H   0  0  0  0  0  0  0  0  0  0  0  0
  148.4190  140.1192  154.7116 H   0  0  0  0  0  0  0  0  0  0  0  0
  149.0286  139.3984  156.1822 H   0  0  0  0  0  0  0  0  0  0  0  0
  149.9457  141.6845  155.8522 H   0  0  0  0  0  0  0  0  0  0  0  0
  150.6124  141.2368  154.3160 H   0  0  0  0  0  0  0  0  0  0  0  0
  143.4789  133.4580  154.3439 H   0  0  0  0  0  0  0  0  0  0  0  0
  1  2  1  0  0  0  0
  1 26  1  0  0  0  0
  1 27  1  0  0  0  0
  1 28  1  0  0  0  0
  2  3  1  0  0  0  0
  2  4  1  0  0  0  0
  2 29  1  0  0  0  0
  3 30  1  0  0  0  0
  3 31  1  0  0  0  0
  3 32  1  0  0  0  0
  4  5  1  0  0  0  0
  4 33  1  0  0  0  0
  4 34  1  0  0  0  0
  5  6  2  0  0  0  0
  5  7  1  0  0  0  0
  7 25  1  0  0  0  0
  7  8  1  0  0  0  0
  8  9  1  0  0  0  0
  8 35  1  0  0  0  0
  8 36  1  0  0  0  0
  9 10  1  0  0  0  0
  9 37  1  0  0  0  0
  9 38  1  0  0  0  0
 10 11  1  0  0  0  0
 10 24  1  0  0  0  0
 10 39  1  0  0  0  0
 11 12  1  0  0  0  0
 11 40  1  0  0  0  0
 12 13  2  0  0  0  0
 12 14  1  0  0  0  0
 14 15  1  0  0  0  0
 14 41  1  0  0  0  0
 15 23  1  0  0  0  0
 15 16  2  0  0  0  0
 16 17  1  0  0  0  0
 16 42  1  0  0  0  0
 17 18  2  0  0  0  0
 17 43  1  0  0  0  0
 18 19  1  0  0  0  0
 18 22  1  0  0  0  0
 19 20  1  0  0  0  0
 19 21  1  0  0  0  0
 20 44  1  0  0  0  0
 20 45  1  0  0  0  0
 20 46  1  0  0  0  0
 21 47  1  0  0  0  0
 21 48  1  0  0  0  0
 21 49  1  0  0  0  0
 22 23  2  0  0  0  0
 22 55  1  0  0  0  0
 23 50  1  0  0  0  0
 24 25  1  0  0  0  0
 24 51  1  0  0  0  0
 24 52  1  0  0  0  0
 25 53  1  0  0  0  0
 25 54  1  0  0  0  0
M  CHG  1  22   1
M  END
> <s_m_source_file>
AV-unprocessed.smi

> <i_m_source_file_index>
1059

> <i_lp_mmshare_version>
43012

> <i_f3d_flags>
0

> <s_epik_input>
W0NIM11bQ0hdKFtDSDNdKVtDSDJdQyg9TylOMVtDSDJdW0NIMl1bQ0hdKFtDSDJdW0NIMl0xKVtOSF1DKD1PKVtOSF1jMltjSF1bY0hdYyhOKFtDSDNdKVtDSDNdKW5bY0hdMg==

> <s_epik_cmdline>
J2VwaWtfcHl0aG9uJywgJy1waCcsICc3LjAnLCAnLXRuJywgJzgnLCAnLW1hJywgJzIwMCcsICctbWV0YWxfYmluZGluZycsICctaW1hZScsICc8aW5maWxlLm1hZT4nLCAnLW9tYWUnLCAnPG91dGZpbGUubWFlPic=

> <r_lp_tautomer_probability>
0.999994

> <r_epik_Ionization_Penalty>
0.255783

> <r_epik_Ionization_Penalty_Charging>
0.255763

> <r_epik_Ionization_Penalty_Neutral>
1.99447e-05

> <r_epik_State_Penalty>
0.247288

> <r_epik_Charging_Adjusted_Penalty>
0.503051

> <i_epik_Tot_Q>
1

> <i_epik_Tot_abs_Q>
1

> <r_epik_Metal_State_Penalty>
0.537004

> <b_epik_Metal_Only>
0

> <s_lp_Force_Field>
OPLS_2005

> <r_lp_Energy>
38.2328

> <b_lp_Chiralities_Consistent>
1

> <s_lp_Variant>
AV-unprocessed.smi:1059-1

> <Gold.Version>
5.8.1

> <Gold.Id.Protein>
6NUR|6NUR_protein|mol2

> <Gold.PLP.Fitness>
47.7308

> <Gold.PLP.PLP>
-41.3555

> <Gold.PLP.part.hbond>
-4.1876

> <Gold.PLP.part.metal>
0.0000

> <Gold.PLP.part.buried>
-1.0103

> <Gold.PLP.part.nonpolar>
-35.7246

> <Gold.PLP.part.repulsive>
0.3117

> <Gold.PLP.ligand.clash>
1.4678

> <Gold.PLP.ligand.torsion>
1.0245

> <Gold.PLP.Chemscore.Hbond>
3.2215

> <Gold.PLP.Chemscore.CHOScore>
0.0000

> <Gold.PLP.Chemscore.Metal>
0.0000

> <Gold.Chemscore.Hbonds>
donor molecule, donor type, donor heavy atom, donor atom, acceptor molecule, acceptor atom, score
      L1  H    22    55       P1 10957  2.00
      P1  H  7997  8010       L1     6  0.99
      P1  H 11000 11005       L1    19  0.15

> <Gold.PLP.Chemscore.Internal.Correction>
0.2276

> <Gold.Rescore>
     Score         DG    S(hbond)    S(metal)    S(lipo)     H(rot)  DE(clash)    DE(int)     intcor
     15.73     -19.64       1.94        0.00      99.63       1.55       0.21       3.70       ----

> <Gold.Chemscore.Fitness>
15.7257

> <Gold.Chemscore.DG>
-19.6406

> <Gold.Chemscore.ZeroCoef>
-5.4800

> <Gold.Chemscore.Hbond>
1.9389

> <Gold.Chemscore.Metal>
0.0000

> <Gold.Chemscore.Lipo>
99.6272

> <Gold.Chemscore.Internal_Hbond>
0.0000

> <Gold.Chemscore.DEClash>
0.2099

> <Gold.Chemscore.DEInternal>
3.7050

> <Gold.Chemscore.Rot>
1.5514

> <Gold.Chemscore.Internal.Correction>
   9.000000E+99

> <Gold.Chemscore.Hbonds>
donor molecule, donor type, donor heavy atom, donor atom, acceptor molecule, acceptor atom, score
      L1  H    22    55       P1 10957  0.99
      P1  H  7997  8010       L1     6  0.94
      P1  H 11000 11005       L1    19  0.01

> <Gold.Chemscore.Hbond.Weighted>
-6.4758

> <Gold.Chemscore.Metal.Weighted>
-0.0000

> <Gold.Chemscore.Lipo.Weighted>
-11.6564

> <Gold.Chemscore.Internal_Hbond.Weighted>
0.0000

> <Gold.Chemscore.DEClash.Weighted>
0.2099

> <Gold.Chemscore.DEInternal.Weighted>
3.7050

> <Gold.Chemscore.Rot.Weighted>
3.9716

> <Gold.Chemscore.Internal.Correction.Weighted>
   9.000000E+99

> <Gold.Protein.RotatedTorsions>
[ 6907 6896 6895 6894 ] final  -54.52 input  -60.11 | X-H torsion
[ 7974 7965 7964 7962 ] final   60.49 input  175.53 | X-H torsion
[ 8008 7997 7996 7995 ] final   33.09 input   59.86 | X-H torsion
[ 10167 10162 10161 10158 ] final  -44.05 input  -65.29 | X-H torsion
[ 10718 10713 10712 10709 ] final   93.00 input   66.30 | X-H torsion
[ 10763 10752 10751 10750 ] final -114.35 input  -60.55 | X-H torsion
[ 11005 11000 10999 10996 ] final    8.54 input  -57.11 | X-H torsion

> <Gold.Protein.ActiveResidues>
 VAL166  LYS551  ARG553  GLY616  TRP617  ASP618  TYR619  PRO620  LYS621  CYS622 
 ASP623  PHE694  ASN695  SER759  ASP760  ASP761  ALA762  ILE779  LEU786  VAL792 
 PHE793  MET794  SER795  GLU796  ALA797  LYS798  CYS799  TRP800  GLU811  SER814 

> <Gold.Protein.RotatedAtoms>
  150.8330  134.7592  159.6869 H   0  0  0  0  0  0  0  0  0  0  0  0  # atno 6907 bound_to 6896
  152.4432  134.5545  159.9886 H   0  0  0  0  0  0  0  0  0  0  0  0  # atno 6908 bound_to 6896
  151.5702  133.3353  159.3024 H   0  0  0  0  0  0  0  0  0  0  0  0  # atno 6909 bound_to 6896
  145.8954  139.3542  143.0624 H   0  0  0  0  0  0  0  0  0  0  0  0  # atno 7974 bound_to 7965
  155.1330  140.3259  155.4470 H   0  0  0  0  0  0  0  0  0  0  0  0  # atno 8008 bound_to 7997
  156.2628  140.2007  156.6397 H   0  0  0  0  0  0  0  0  0  0  0  0  # atno 8009 bound_to 7997
  154.6599  140.0548  157.0037 H   0  0  0  0  0  0  0  0  0  0  0  0  # atno 8010 bound_to 7997
  140.6911  143.2950  151.3440 H   0  0  0  0  0  0  0  0  0  0  0  0  # atno 10167 bound_to 10162
  157.6956  131.0463  150.3967 H   0  0  0  0  0  0  0  0  0  0  0  0  # atno 10718 bound_to 10713
  154.8436  135.4421  154.1493 H   0  0  0  0  0  0  0  0  0  0  0  0  # atno 10763 bound_to 10752
  153.2658  135.6940  153.7538 H   0  0  0  0  0  0  0  0  0  0  0  0  # atno 10764 bound_to 10752
  153.6797  135.3405  155.3150 H   0  0  0  0  0  0  0  0  0  0  0  0  # atno 10765 bound_to 10752
  140.5358  134.0422  155.7888 H   0  0  0  0  0  0  0  0  0  0  0  0  # atno 11005 bound_to 11000
  145.8857  140.9335  143.0578 LP  0  0  0  0  0  0  0  0  0  0  0  0  # atno 17320 bound_to 7965
  144.6732  140.0838  143.7468 LP  0  0  0  0  0  0  0  0  0  0  0  0  # atno 17321 bound_to 7965
  139.6315  144.0711  152.2480 LP  0  0  0  0  0  0  0  0  0  0  0  0  # atno 17342 bound_to 10162
  140.0188  144.6169  150.7584 LP  0  0  0  0  0  0  0  0  0  0  0  0  # atno 17343 bound_to 10162
  156.4364  130.3982  149.6726 LP  0  0  0  0  0  0  0  0  0  0  0  0  # atno 17370 bound_to 10713
  156.3925  130.7634  151.2636 LP  0  0  0  0  0  0  0  0  0  0  0  0  # atno 17371 bound_to 10713
  141.1255  133.9390  157.2643 LP  0  0  0  0  0  0  0  0  0  0  0  0  # atno 17394 bound_to 11000
  139.9530  135.0171  156.9047 LP  0  0  0  0  0  0  0  0  0  0  0  0  # atno 17395 bound_to 11000

$$$$
