AV-unprocessed.smi:2142|AV-procd|sdf|8721|dock4
  -GOLD-   2272011483D 1   1.00000     0.00000
 Structure written by MMmdl.
 39 40  0  0  0  0  0  0  0  0  2 V2000
  145.5116  145.4828  152.2230 C   0  0  0  0  0  0  0  0  0  0  0  0
  145.0148  144.7870  153.3527 O   0  0  0  0  0  0  0  0  0  0  0  0
  145.9837  143.9279  153.9306 C   0  0  0  0  0  0  0  0  0  0  0  0
  145.3201  142.6016  154.3138 C   0  0  0  0  0  0  0  0  0  0  0  0
  145.9046  142.1245  155.5221 O   0  0  0  0  0  0  0  0  0  0  0  0
  147.2559  141.8440  155.5334 C   0  0  0  0  0  0  0  0  0  0  0  0
  147.9171  141.6645  154.3036 C   0  0  0  0  0  0  0  0  0  0  0  0
  149.2936  141.3702  154.3133 C   0  0  0  0  0  0  0  0  0  0  0  0
  149.9784  141.2579  155.5432 C   0  0  0  0  0  0  0  0  0  0  0  0
  151.2902  140.9770  155.5945 N   0  5  0  0  0  0  0  0  0  0  0  0
  151.9052  140.7755  156.7912 C   0  0  0  0  0  0  0  0  0  0  0  0
  152.4072  139.7048  157.1419 O   0  0  0  0  0  0  0  0  0  0  0  0
  151.9922  141.8933  157.7742 C   0  0  0  0  0  0  0  0  0  0  0  0
  152.4331  141.6608  158.9711 N   0  0  0  0  0  0  0  0  0  0  0  0
  152.5573  142.6580  159.9164 N   0  0  0  0  0  0  0  0  0  0  0  0
  153.3189  142.2829  161.1059 C   0  0  0  0  0  0  0  0  0  0  0  0
  152.0099  143.8937  159.8093 C   0  0  0  0  0  0  0  0  0  0  0  0
  152.1444  144.7778  160.6555 O   0  0  0  0  0  0  0  0  0  0  0  0
  151.1573  144.1566  158.5655 C   0  0  0  0  0  0  0  0  0  0  0  0
  151.6015  143.3017  157.3624 C   0  0  0  0  0  0  0  0  0  0  0  0
  149.2171  141.4660  156.7158 C   0  0  0  0  0  0  0  0  0  0  0  0
  147.8969  141.7487  156.7232 N   0  0  0  0  0  0  0  0  0  0  0  0
  144.7334  146.1315  151.8208 H   0  0  0  0  0  0  0  0  0  0  0  0
  145.8143  144.7914  151.4355 H   0  0  0  0  0  0  0  0  0  0  0  0
  146.3660  146.1068  152.4886 H   0  0  0  0  0  0  0  0  0  0  0  0
  146.7741  143.7396  153.2028 H   0  0  0  0  0  0  0  0  0  0  0  0
  146.4460  144.3900  154.8043 H   0  0  0  0  0  0  0  0  0  0  0  0
  144.2421  142.7343  154.4185 H   0  0  0  0  0  0  0  0  0  0  0  0
  145.4933  141.8759  153.5174 H   0  0  0  0  0  0  0  0  0  0  0  0
  147.3799  141.7479  153.3707 H   0  0  0  0  0  0  0  0  0  0  0  0
  149.8185  141.2266  153.3799 H   0  0  0  0  0  0  0  0  0  0  0  0
  152.6995  142.3631  162.0003 H   0  0  0  0  0  0  0  0  0  0  0  0
  154.1842  142.9355  161.2288 H   0  0  0  0  0  0  0  0  0  0  0  0
  153.6862  141.2569  161.0496 H   0  0  0  0  0  0  0  0  0  0  0  0
  150.1241  143.9194  158.8218 H   0  0  0  0  0  0  0  0  0  0  0  0
  151.1826  145.2161  158.3087 H   0  0  0  0  0  0  0  0  0  0  0  0
  152.4451  143.7755  156.8594 H   0  0  0  0  0  0  0  0  0  0  0  0
  150.7840  143.2822  156.6409 H   0  0  0  0  0  0  0  0  0  0  0  0
  149.6841  141.3987  157.6878 H   0  0  0  0  0  0  0  0  0  0  0  0
  1  2  1  0  0  0  0
  1 23  1  0  0  0  0
  1 24  1  0  0  0  0
  1 25  1  0  0  0  0
  2  3  1  0  0  0  0
  3  4  1  0  0  0  0
  3 26  1  0  0  0  0
  3 27  1  0  0  0  0
  4  5  1  0  0  0  0
  4 28  1  0  0  0  0
  4 29  1  0  0  0  0
  5  6  1  0  0  0  0
  6 22  1  0  0  0  0
  6  7  2  0  0  0  0
  7  8  1  0  0  0  0
  7 30  1  0  0  0  0
  8  9  2  0  0  0  0
  8 31  1  0  0  0  0
  9 10  1  0  0  0  0
  9 21  1  0  0  0  0
 10 11  1  0  0  0  0
 11 12  2  0  0  0  0
 11 13  1  0  0  0  0
 13 20  1  0  0  0  0
 13 14  2  0  0  0  0
 14 15  1  0  0  0  0
 15 16  1  0  0  0  0
 15 17  1  0  0  0  0
 16 32  1  0  0  0  0
 16 33  1  0  0  0  0
 16 34  1  0  0  0  0
 17 18  2  0  0  0  0
 17 19  1  0  0  0  0
 19 20  1  0  0  0  0
 19 35  1  0  0  0  0
 19 36  1  0  0  0  0
 20 37  1  0  0  0  0
 20 38  1  0  0  0  0
 21 22  2  0  0  0  0
 21 39  1  0  0  0  0
M  CHG  1  10  -1
M  END
> <s_m_source_file>
AV-unprocessed.smi

> <i_m_source_file_index>
2142

> <i_lp_mmshare_version>
43012

> <i_f3d_flags>
0

> <s_epik_input>
W0NIM11PW0NIMl1bQ0gyXU9jMVtjSF1bY0hdYyhbY0hdbjEpW05IXUMoPU8pQzI9Tk4oW0NIM10pQyg9TylbQ0gyXVtDSDJdMg==

> <s_epik_cmdline>
J2VwaWtfcHl0aG9uJywgJy1waCcsICc3LjAnLCAnLXRuJywgJzgnLCAnLW1hJywgJzIwMCcsICctbWV0YWxfYmluZGluZycsICctaW1hZScsICc8aW5maWxlLm1hZT4nLCAnLW9tYWUnLCAnPG91dGZpbGUubWFlPic=

> <r_lp_tautomer_probability>
1

> <r_epik_Ionization_Penalty>
5.98992

> <r_epik_Ionization_Penalty_Charging>
5.98968

> <r_epik_Ionization_Penalty_Neutral>
0.000245408

> <r_epik_State_Penalty>
5.98965

> <r_epik_Charging_Adjusted_Penalty>
11.9793

> <i_epik_Tot_Q>
-1

> <i_epik_Tot_abs_Q>
1

> <r_epik_Metal_State_Penalty>
1.94325

> <b_epik_Metal_Only>
1

> <s_epik_Chemistry_Notes>
This compound has an imine and may undergo hydrolysis.

> <s_lp_Force_Field>
OPLS_2005

> <r_lp_Energy>
19.7207

> <b_lp_Chiralities_Consistent>
1

> <s_lp_Variant>
AV-unprocessed.smi:2142-2

> <Gold.Version>
5.8.1

> <Gold.Id.Protein>
6NUR|6NUR_protein|mol2

> <Gold.PLP.Fitness>
42.1157

> <Gold.PLP.PLP>
-39.7592

> <Gold.PLP.part.hbond>
-2.0000

> <Gold.PLP.part.metal>
0.0000

> <Gold.PLP.part.buried>
-5.7950

> <Gold.PLP.part.nonpolar>
-32.2058

> <Gold.PLP.part.repulsive>
0.5144

> <Gold.PLP.ligand.clash>
0.0000

> <Gold.PLP.ligand.torsion>
1.4408

> <Gold.PLP.Chemscore.Hbond>
1.4696

> <Gold.PLP.Chemscore.CHOScore>
0.0000

> <Gold.PLP.Chemscore.Metal>
0.0000

> <Gold.Chemscore.Hbonds>
donor molecule, donor type, donor heavy atom, donor atom, acceptor molecule, acceptor atom, score
      P1  H  7989  7998       L1    10  0.46
      P1  H  7997  8010       L1    12  0.66

> <Gold.PLP.Chemscore.Internal.Correction>
0.8295

> <Gold.Rescore>
     Score         DG    S(hbond)    S(metal)    S(lipo)     H(rot)  DE(clash)    DE(int)     intcor
     12.14     -14.83       1.16        0.00      84.10       1.71       0.41       2.28       ----

> <Gold.Chemscore.Fitness>
12.1436

> <Gold.Chemscore.DG>
-14.8333

> <Gold.Chemscore.ZeroCoef>
-5.4800

> <Gold.Chemscore.Hbond>
1.1639

> <Gold.Chemscore.Metal>
0.0000

> <Gold.Chemscore.Lipo>
84.1038

> <Gold.Chemscore.Internal_Hbond>
0.0000

> <Gold.Chemscore.DEClash>
0.4136

> <Gold.Chemscore.DEInternal>
2.2761

> <Gold.Chemscore.Rot>
1.7087

> <Gold.Chemscore.Internal.Correction>
   9.000000E+99

> <Gold.Chemscore.Hbonds>
donor molecule, donor type, donor heavy atom, donor atom, acceptor molecule, acceptor atom, score
      P1  H  7989  7998       L1    10  0.09
      P1  H  7997  8010       L1    12  0.09

> <Gold.Chemscore.Hbond.Weighted>
-3.8873

> <Gold.Chemscore.Metal.Weighted>
-0.0000

> <Gold.Chemscore.Lipo.Weighted>
-9.8401

> <Gold.Chemscore.Internal_Hbond.Weighted>
0.0000

> <Gold.Chemscore.DEClash.Weighted>
0.4136

> <Gold.Chemscore.DEInternal.Weighted>
2.2761

> <Gold.Chemscore.Rot.Weighted>
4.3742

> <Gold.Chemscore.Internal.Correction.Weighted>
   9.000000E+99

> <Gold.Protein.RotatedTorsions>
[ 6907 6896 6895 6894 ] final   82.08 input  -60.11 | X-H torsion
[ 7974 7965 7964 7962 ] final  128.15 input  175.53 | X-H torsion
[ 8008 7997 7996 7995 ] final   73.41 input   59.86 | X-H torsion
[ 10167 10162 10161 10158 ] final   22.61 input  -65.29 | X-H torsion
[ 10718 10713 10712 10709 ] final  135.13 input   66.30 | X-H torsion
[ 10763 10752 10751 10750 ] final  135.10 input  -60.55 | X-H torsion
[ 11005 11000 10999 10996 ] final   11.28 input  -57.11 | X-H torsion

> <Gold.Protein.ActiveResidues>
 VAL166  LYS551  ARG553  GLY616  TRP617  ASP618  TYR619  PRO620  LYS621  CYS622 
 ASP623  PHE694  ASN695  SER759  ASP760  ASP761  ALA762  ILE779  LEU786  VAL792 
 PHE793  MET794  SER795  GLU796  ALA797  LYS798  CYS799  TRP800  GLU811  SER814 

> <Gold.Protein.RotatedAtoms>
  152.5288  134.3104  159.9111 H   0  0  0  0  0  0  0  0  0  0  0  0  # atno 6907 bound_to 6896
  151.3054  133.4097  159.2650 H   0  0  0  0  0  0  0  0  0  0  0  0  # atno 6908 bound_to 6896
  151.0083  134.9393  159.8050 H   0  0  0  0  0  0  0  0  0  0  0  0  # atno 6909 bound_to 6896
  145.0427  139.3949  143.5094 H   0  0  0  0  0  0  0  0  0  0  0  0  # atno 7974 bound_to 7965
  155.7833  140.3481  155.5309 H   0  0  0  0  0  0  0  0  0  0  0  0  # atno 8008 bound_to 7997
  155.8707  140.0986  157.1573 H   0  0  0  0  0  0  0  0  0  0  0  0  # atno 8009 bound_to 7997
  154.4017  140.1341  156.4061 H   0  0  0  0  0  0  0  0  0  0  0  0  # atno 8010 bound_to 7997
  140.5335  143.9800  150.6478 H   0  0  0  0  0  0  0  0  0  0  0  0  # atno 10167 bound_to 10162
  157.4602  131.1073  150.9929 H   0  0  0  0  0  0  0  0  0  0  0  0  # atno 10718 bound_to 10713
  153.8344  135.3099  155.3421 H   0  0  0  0  0  0  0  0  0  0  0  0  # atno 10763 bound_to 10752
  154.7959  135.4755  154.0164 H   0  0  0  0  0  0  0  0  0  0  0  0  # atno 10764 bound_to 10752
  153.1614  135.6861  153.8828 H   0  0  0  0  0  0  0  0  0  0  0  0  # atno 10765 bound_to 10752
  140.5050  134.0708  155.7803 H   0  0  0  0  0  0  0  0  0  0  0  0  # atno 11005 bound_to 11000
  146.3511  140.0036  142.8674 LP  0  0  0  0  0  0  0  0  0  0  0  0  # atno 17320 bound_to 7965
  145.1627  140.9681  143.4367 LP  0  0  0  0  0  0  0  0  0  0  0  0  # atno 17321 bound_to 7965
  140.3182  143.3154  152.0811 LP  0  0  0  0  0  0  0  0  0  0  0  0  # atno 17342 bound_to 10162
  139.4962  144.6591  151.6505 LP  0  0  0  0  0  0  0  0  0  0  0  0  # atno 17343 bound_to 10162
  157.0729  130.5871  149.5406 LP  0  0  0  0  0  0  0  0  0  0  0  0  # atno 17370 bound_to 10713
  156.0025  130.5107  150.7714 LP  0  0  0  0  0  0  0  0  0  0  0  0  # atno 17371 bound_to 10713
  141.1415  133.9129  157.2314 LP  0  0  0  0  0  0  0  0  0  0  0  0  # atno 17394 bound_to 11000
  139.9691  135.0133  156.9465 LP  0  0  0  0  0  0  0  0  0  0  0  0  # atno 17395 bound_to 11000

$$$$
