AV-unprocessed.smi:1978|AV-procd|sdf|7997|dock3
  -GOLD-   2272010183D 1   1.00000     0.00000
 Structure written by MMmdl.
 45 46  0  0  0  0  0  0  0  0  2 V2000
  150.0555  142.0698  157.7988 C   0  0  0  0  0  0  0  0  0  0  0  0
  150.0063  141.2946  156.5267 C   0  0  0  0  0  0  0  0  0  0  0  0
  148.9782  140.8990  155.7175 C   0  0  0  0  0  0  0  0  0  0  0  0
  149.6424  140.1960  154.6776 C   0  0  0  0  0  0  0  0  0  0  0  0
  148.9118  139.6100  153.6123 N   0  0  0  0  0  0  0  0  0  0  0  0
  147.7266  138.9807  153.6832 C   0  0  0  0  0  0  0  0  0  0  0  0
  147.0842  138.7888  154.7160 O   0  0  0  0  0  0  0  0  0  0  0  0
  147.3107  138.5802  152.4728 N   0  0  0  0  0  0  0  0  0  0  0  0
  146.0559  137.8803  152.2165 C   0  0  0  0  0  0  0  0  0  0  0  0
  145.8590  136.6562  153.1480 C   0  0  1  0  0  0  0  0  0  0  0  0
  144.4209  136.5573  153.6975 C   0  0  0  0  0  0  0  0  0  0  0  0
  146.3016  135.3676  152.5235 N   0  3  1  0  0  0  0  0  0  0  0  0
  146.8477  134.3795  153.5000 C   0  0  0  0  0  0  0  0  0  0  0  0
  147.5349  133.2068  152.7856 C   0  0  0  0  0  0  0  0  0  0  0  0
  146.5631  132.5135  151.8281 C   0  0  0  0  0  0  0  0  0  0  0  0
  145.9813  133.5403  150.8512 C   0  0  0  0  0  0  0  0  0  0  0  0
  145.3183  134.7243  151.5884 C   0  0  2  0  0  0  0  0  0  0  0  0
  144.7214  135.6942  150.5479 C   0  0  0  0  0  0  0  0  0  0  0  0
  150.9565  140.1633  154.8381 N   0  0  0  0  0  0  0  0  0  0  0  0
  151.1964  140.8673  156.0241 O   0  0  0  0  0  0  0  0  0  0  0  0
  149.1161  142.5955  157.9709 H   0  0  0  0  0  0  0  0  0  0  0  0
  150.8556  142.8097  157.7715 H   0  0  0  0  0  0  0  0  0  0  0  0
  150.2341  141.4088  158.6468 H   0  0  0  0  0  0  0  0  0  0  0  0
  147.9229  141.0848  155.8515 H   0  0  0  0  0  0  0  0  0  0  0  0
  149.3325  139.6884  152.6983 H   0  0  0  0  0  0  0  0  0  0  0  0
  147.8997  138.7724  151.6755 H   0  0  0  0  0  0  0  0  0  0  0  0
  145.2505  138.6009  152.3573 H   0  0  0  0  0  0  0  0  0  0  0  0
  146.0256  137.5868  151.1666 H   0  0  0  0  0  0  0  0  0  0  0  0
  146.4630  136.8068  154.0403 H   0  0  0  0  0  0  0  0  0  0  0  0
  144.1978  137.3924  154.3621 H   0  0  0  0  0  0  0  0  0  0  0  0
  144.2821  135.6432  154.2759 H   0  0  0  0  0  0  0  0  0  0  0  0
  143.6726  136.5746  152.9058 H   0  0  0  0  0  0  0  0  0  0  0  0
  147.5781  134.8428  154.1606 H   0  0  0  0  0  0  0  0  0  0  0  0
  146.0453  134.0004  154.1339 H   0  0  0  0  0  0  0  0  0  0  0  0
  148.4034  133.5692  152.2340 H   0  0  0  0  0  0  0  0  0  0  0  0
  147.9086  132.4907  153.5180 H   0  0  0  0  0  0  0  0  0  0  0  0
  147.0728  131.7188  151.2824 H   0  0  0  0  0  0  0  0  0  0  0  0
  145.7585  132.0406  152.3929 H   0  0  0  0  0  0  0  0  0  0  0  0
  146.7735  133.9096  150.1981 H   0  0  0  0  0  0  0  0  0  0  0  0
  145.2555  133.0471  150.2035 H   0  0  0  0  0  0  0  0  0  0  0  0
  144.4937  134.3249  152.1803 H   0  0  0  0  0  0  0  0  0  0  0  0
  144.1225  135.1555  149.8129 H   0  0  0  0  0  0  0  0  0  0  0  0
  145.5015  136.2303  150.0062 H   0  0  0  0  0  0  0  0  0  0  0  0
  144.0537  136.4256  151.0026 H   0  0  0  0  0  0  0  0  0  0  0  0
  147.0832  135.6267  151.9388 H   0  0  0  0  0  0  0  0  0  0  0  0
  1  2  1  0  0  0  0
  1 21  1  0  0  0  0
  1 22  1  0  0  0  0
  1 23  1  0  0  0  0
  2 20  1  0  0  0  0
  2  3  2  0  0  0  0
  3  4  1  0  0  0  0
  3 24  1  0  0  0  0
  4  5  1  0  0  0  0
  4 19  2  0  0  0  0
  5  6  1  0  0  0  0
  5 25  1  0  0  0  0
  6  7  2  0  0  0  0
  6  8  1  0  0  0  0
  8  9  1  0  0  0  0
  8 26  1  0  0  0  0
  9 10  1  0  0  0  0
  9 27  1  0  0  0  0
  9 28  1  0  0  0  0
 10 11  1  0  0  0  0
 10 12  1  0  0  0  0
 10 29  1  0  0  0  0
 11 30  1  0  0  0  0
 11 31  1  0  0  0  0
 11 32  1  0  0  0  0
 12 17  1  0  0  0  0
 12 13  1  0  0  0  0
 12 45  1  0  0  0  0
 13 14  1  0  0  0  0
 13 33  1  0  0  0  0
 13 34  1  0  0  0  0
 14 15  1  0  0  0  0
 14 35  1  0  0  0  0
 14 36  1  0  0  0  0
 15 16  1  0  0  0  0
 15 37  1  0  0  0  0
 15 38  1  0  0  0  0
 16 17  1  0  0  0  0
 16 39  1  0  0  0  0
 16 40  1  0  0  0  0
 17 18  1  0  0  0  0
 17 41  1  0  0  0  0
 18 42  1  0  0  0  0
 18 43  1  0  0  0  0
 18 44  1  0  0  0  0
 19 20  1  0  0  0  0
M  CHG  1  12   1
M  END
> <s_m_source_file>
AV-unprocessed.smi

> <i_m_source_file_index>
1978

> <i_lp_mmshare_version>
43012

> <i_f3d_flags>
0

> <s_epik_input>
W0NIM11jMVtjSF1jKG5vMSlbTkhdQyg9TylbTkhdW0NIMl1bQ0BIXShbQ0gzXSlOMltDSDJdW0NIMl1bQ0gyXVtDSDJdW0NASF0yW0NIM10=

> <s_epik_cmdline>
J2VwaWtfcHl0aG9uJywgJy1waCcsICc3LjAnLCAnLXRuJywgJzgnLCAnLW1hJywgJzIwMCcsICctbWV0YWxfYmluZGluZycsICctaW1hZScsICc8aW5maWxlLm1hZT4nLCAnLW9tYWUnLCAnPG91dGZpbGUubWFlPic=

> <r_epik_Ionization_Penalty>
0.00265971

> <r_epik_Ionization_Penalty_Charging>
0.00262393

> <r_epik_Ionization_Penalty_Neutral>
3.57846e-05

> <r_epik_State_Penalty>
0.00182566

> <r_epik_Charging_Adjusted_Penalty>
0.00444959

> <i_epik_Tot_Q>
1

> <i_epik_Tot_abs_Q>
1

> <r_epik_Metal_State_Penalty>
0.0216344

> <b_epik_Metal_Only>
0

> <s_lp_Force_Field>
OPLS_2005

> <r_lp_Energy>
19.4961

> <b_lp_Chiralities_Consistent>
1

> <s_lp_Variant>
AV-unprocessed.smi:1978-6

> <Gold.Version>
5.8.1

> <Gold.Id.Protein>
6NUR|6NUR_protein|mol2

> <Gold.PLP.Fitness>
44.2021

> <Gold.PLP.PLP>
-32.5941

> <Gold.PLP.part.hbond>
-4.8073

> <Gold.PLP.part.metal>
0.0000

> <Gold.PLP.part.buried>
-1.6048

> <Gold.PLP.part.nonpolar>
-25.9638

> <Gold.PLP.part.repulsive>
0.4104

> <Gold.PLP.ligand.clash>
0.0000

> <Gold.PLP.ligand.torsion>
1.3818

> <Gold.PLP.Chemscore.Hbond>
4.7520

> <Gold.PLP.Chemscore.CHOScore>
0.0000

> <Gold.PLP.Chemscore.Metal>
0.0000

> <Gold.Chemscore.Hbonds>
donor molecule, donor type, donor heavy atom, donor atom, acceptor molecule, acceptor atom, score
      L1  H     5    25       P1  7957  1.00
      L1  H     8    26       P1  7957  0.56
      L1  H    12    45       P1  7948  1.92
      P1  H  7989  7998       L1    19  1.00

> <Gold.PLP.Chemscore.Internal.Correction>
0.1156

> <Gold.Rescore>
     Score         DG    S(hbond)    S(metal)    S(lipo)     H(rot)  DE(clash)    DE(int)     intcor
     15.80     -20.47       3.51        0.00      61.88       1.55       0.13       4.54       ----

> <Gold.Chemscore.Fitness>
15.7958

> <Gold.Chemscore.DG>
-20.4699

> <Gold.Chemscore.ZeroCoef>
-5.4800

> <Gold.Chemscore.Hbond>
3.5064

> <Gold.Chemscore.Metal>
0.0000

> <Gold.Chemscore.Lipo>
61.8766

> <Gold.Chemscore.Internal_Hbond>
0.0000

> <Gold.Chemscore.DEClash>
0.1312

> <Gold.Chemscore.DEInternal>
4.5429

> <Gold.Chemscore.Rot>
1.5474

> <Gold.Chemscore.Internal.Correction>
   9.000000E+99

> <Gold.Chemscore.Hbonds>
donor molecule, donor type, donor heavy atom, donor atom, acceptor molecule, acceptor atom, score
      L1  H     5    25       P1  7957  0.99
      L1  H     8    26       P1  7957  0.44
      L1  H    12    45       P1  7948  0.92
      P1  H  7989  7998       L1    19  0.51

> <Gold.Chemscore.Hbond.Weighted>
-11.7115

> <Gold.Chemscore.Metal.Weighted>
-0.0000

> <Gold.Chemscore.Lipo.Weighted>
-7.2396

> <Gold.Chemscore.Internal_Hbond.Weighted>
0.0000

> <Gold.Chemscore.DEClash.Weighted>
0.1312

> <Gold.Chemscore.DEInternal.Weighted>
4.5429

> <Gold.Chemscore.Rot.Weighted>
3.9612

> <Gold.Chemscore.Internal.Correction.Weighted>
   9.000000E+99

> <Gold.Protein.RotatedTorsions>
[ 6907 6896 6895 6894 ] final   -3.26 input  -60.11 | X-H torsion
[ 7974 7965 7964 7962 ] final   40.10 input  175.53 | X-H torsion
[ 8008 7997 7996 7995 ] final  -89.16 input   59.86 | X-H torsion
[ 10167 10162 10161 10158 ] final  -24.83 input  -65.29 | X-H torsion
[ 10718 10713 10712 10709 ] final -137.63 input   66.30 | X-H torsion
[ 10763 10752 10751 10750 ] final  150.17 input  -60.55 | X-H torsion
[ 11005 11000 10999 10996 ] final -106.61 input  -57.11 | X-H torsion

> <Gold.Protein.ActiveResidues>
 VAL166  LYS551  ARG553  GLY616  TRP617  ASP618  TYR619  PRO620  LYS621  CYS622 
 ASP623  PHE694  ASN695  SER759  ASP760  ASP761  ALA762  ILE779  LEU786  VAL792 
 PHE793  MET794  SER795  GLU796  ALA797  LYS798  CYS799  TRP800  GLU811  SER814 

> <Gold.Protein.RotatedAtoms>
  151.5167  135.1066  159.9867 H   0  0  0  0  0  0  0  0  0  0  0  0  # atno 6907 bound_to 6896
  152.4638  133.7875  159.6894 H   0  0  0  0  0  0  0  0  0  0  0  0  # atno 6908 bound_to 6896
  150.8612  133.7576  159.3017 H   0  0  0  0  0  0  0  0  0  0  0  0  # atno 6909 bound_to 6896
  146.0932  139.5573  142.9462 H   0  0  0  0  0  0  0  0  0  0  0  0  # atno 7974 bound_to 7965
  154.6833  140.0545  157.0288 H   0  0  0  0  0  0  0  0  0  0  0  0  # atno 8008 bound_to 7997
  155.0921  140.3220  155.4552 H   0  0  0  0  0  0  0  0  0  0  0  0  # atno 8009 bound_to 7997
  156.2702  140.2046  156.6048 H   0  0  0  0  0  0  0  0  0  0  0  0  # atno 8010 bound_to 7997
  140.7287  143.4318  151.0790 H   0  0  0  0  0  0  0  0  0  0  0  0  # atno 10167 bound_to 10162
  156.2902  130.7371  151.1394 H   0  0  0  0  0  0  0  0  0  0  0  0  # atno 10718 bound_to 10713
  154.0831  135.2858  155.3286 H   0  0  0  0  0  0  0  0  0  0  0  0  # atno 10763 bound_to 10752
  154.6670  135.5313  153.8093 H   0  0  0  0  0  0  0  0  0  0  0  0  # atno 10764 bound_to 10752
  153.0441  135.6548  154.1005 H   0  0  0  0  0  0  0  0  0  0  0  0  # atno 10765 bound_to 10752
  141.0996  133.8908  157.1876 H   0  0  0  0  0  0  0  0  0  0  0  0  # atno 11005 bound_to 11000
  145.5999  141.0357  143.2024 LP  0  0  0  0  0  0  0  0  0  0  0  0  # atno 17320 bound_to 7965
  144.7375  139.7542  143.7323 LP  0  0  0  0  0  0  0  0  0  0  0  0  # atno 17321 bound_to 7965
  139.7976  143.8129  152.3159 LP  0  0  0  0  0  0  0  0  0  0  0  0  # atno 17342 bound_to 10162
  139.8135  144.7326  150.9666 LP  0  0  0  0  0  0  0  0  0  0  0  0  # atno 17343 bound_to 10162
  157.7340  131.0585  150.5546 LP  0  0  0  0  0  0  0  0  0  0  0  0  # atno 17370 bound_to 10713
  156.5661  130.4268  149.6040 LP  0  0  0  0  0  0  0  0  0  0  0  0  # atno 17371 bound_to 10713
  139.9843  135.0087  156.9825 LP  0  0  0  0  0  0  0  0  0  0  0  0  # atno 17394 bound_to 11000
  140.5055  134.1054  155.7259 LP  0  0  0  0  0  0  0  0  0  0  0  0  # atno 17395 bound_to 11000

$$$$
