AV-unprocessed.smi:1540|AV-procd|sdf|6199|dock2
  -GOLD-   22720 6363D 1   1.00000     0.00000
 Structure written by MMmdl.
 33 33  0  0  0  0  0  0  0  0  1 V2000
  147.2174  135.1325  162.1922 C   0  0  0  0  0  0  0  0  0  0  0  0
  147.8513  136.0655  161.4660 C   0  0  0  0  0  0  0  0  0  0  0  0
  147.9630  136.0485  159.9576 C   0  0  0  0  0  0  0  0  0  0  0  0
  149.3304  136.0490  159.5654 O   0  0  0  0  0  0  0  0  0  0  0  0
  149.6031  136.6147  158.2854 C   0  0  1  0  0  0  0  0  0  0  0  0
  148.7573  135.8545  157.2527 C   0  0  0  0  0  0  0  0  0  0  0  0
  149.2794  138.1181  158.2814 C   0  0  0  0  0  0  0  0  0  0  0  0
  148.1098  138.4870  158.3870 O   0  0  0  0  0  0  0  0  0  0  0  0
  150.3461  138.9371  158.1936 N   0  0  0  0  0  0  0  0  0  0  0  0
  150.3940  140.3407  158.1637 C   0  0  0  0  0  0  0  0  0  0  0  0
  151.2014  141.1079  158.9419 C   0  0  0  0  0  0  0  0  0  0  0  0
  151.1894  142.5597  158.8699 C   0  0  0  0  0  0  0  0  0  0  0  0
  152.1544  143.4047  159.6870 C   0  0  0  0  0  0  0  0  0  0  0  0
  152.9204  142.6446  160.4708 F   0  0  0  0  0  0  0  0  0  0  0  0
  152.9507  144.0964  158.8733 F   0  0  0  0  0  0  0  0  0  0  0  0
  151.4965  144.2708  160.4578 F   0  0  0  0  0  0  0  0  0  0  0  0
  150.3388  143.1096  157.9837 C   0  0  0  0  0  0  0  0  0  0  0  0
  149.4897  142.3287  157.1961 N   0  0  0  0  0  0  0  0  0  0  0  0
  149.4561  140.9775  157.2244 C   0  0  0  0  0  0  0  0  0  0  0  0
  148.6787  140.3600  156.4973 O   0  0  0  0  0  0  0  0  0  0  0  0
  148.8681  142.8171  156.5678 H   0  0  0  0  0  0  0  0  0  0  0  0
  146.7349  134.2874  161.7232 H   0  0  0  0  0  0  0  0  0  0  0  0
  147.1738  135.2028  163.2691 H   0  0  0  0  0  0  0  0  0  0  0  0
  148.3232  136.8964  161.9697 H   0  0  0  0  0  0  0  0  0  0  0  0
  147.4416  135.1741  159.5655 H   0  0  0  0  0  0  0  0  0  0  0  0
  147.4602  136.9343  159.5674 H   0  0  0  0  0  0  0  0  0  0  0  0
  150.6559  136.4618  158.0401 H   0  0  0  0  0  0  0  0  0  0  0  0
  148.8987  136.2580  156.2493 H   0  0  0  0  0  0  0  0  0  0  0  0
  147.6937  135.9051  157.4888 H   0  0  0  0  0  0  0  0  0  0  0  0
  149.0371  134.8012  157.2256 H   0  0  0  0  0  0  0  0  0  0  0  0
  151.2506  138.4879  158.1899 H   0  0  0  0  0  0  0  0  0  0  0  0
  151.8673  140.6609  159.6615 H   0  0  0  0  0  0  0  0  0  0  0  0
  150.2463  144.1711  157.8068 H   0  0  0  0  0  0  0  0  0  0  0  0
  1  2  2  0  0  0  0
  1 22  1  0  0  0  0
  1 23  1  0  0  0  0
  2  3  1  0  0  0  0
  2 24  1  0  0  0  0
  3  4  1  0  0  0  0
  3 25  1  0  0  0  0
  3 26  1  0  0  0  0
  4  5  1  0  0  0  0
  5  6  1  0  0  0  0
  5  7  1  0  0  0  0
  5 27  1  0  0  0  0
  6 28  1  0  0  0  0
  6 29  1  0  0  0  0
  6 30  1  0  0  0  0
  7  8  2  0  0  0  0
  7  9  1  0  0  0  0
  9 10  1  0  0  0  0
  9 31  1  0  0  0  0
 10 19  1  0  0  0  0
 10 11  2  0  0  0  0
 11 12  1  0  0  0  0
 11 32  1  0  0  0  0
 12 13  1  0  0  0  0
 12 17  2  0  0  0  0
 13 14  1  0  0  0  0
 13 15  1  0  0  0  0
 13 16  1  0  0  0  0
 17 18  1  0  0  0  0
 17 33  1  0  0  0  0
 18 21  1  0  0  0  0
 18 19  1  0  0  0  0
 19 20  2  0  0  0  0
M  END
> <s_m_source_file>
AV-unprocessed.smi

> <i_m_source_file_index>
1540

> <i_lp_mmshare_version>
43012

> <i_f3d_flags>
0

> <s_epik_input>
W0NIMl09W0NIXVtDSDJdT1tDQEhdKFtDSDNdKUMoPU8pW05IXWMxW2NIXWMoQyhGKShGKUYpW2NIXVtuSF1jMT1P

> <s_epik_cmdline>
J2VwaWtfcHl0aG9uJywgJy1waCcsICc3LjAnLCAnLXRuJywgJzgnLCAnLW1hJywgJzIwMCcsICctbWV0YWxfYmluZGluZycsICctaW1hZScsICc8aW5maWxlLm1hZT4nLCAnLW9tYWUnLCAnPG91dGZpbGUubWFlPic=

> <r_lp_tautomer_probability>
0.999

> <r_epik_Ionization_Penalty>
0.0086731

> <r_epik_Ionization_Penalty_Charging>
0.00867296

> <r_epik_Ionization_Penalty_Neutral>
1.3954e-07

> <r_epik_State_Penalty>
0.00654787

> <r_epik_Charging_Adjusted_Penalty>
0.0152208

> <i_epik_Tot_Q>
0

> <i_epik_Tot_abs_Q>
0

> <r_epik_Metal_State_Penalty>
0.320056

> <b_epik_Metal_Only>
0

> <s_lp_Force_Field>
OPLS_2005

> <r_lp_Energy>
18.3286

> <b_lp_Chiralities_Consistent>
1

> <s_lp_Variant>
AV-unprocessed.smi:1540-2

> <Gold.Version>
5.8.1

> <Gold.Id.Protein>
6NUR|6NUR_protein|mol2

> <Gold.PLP.Fitness>
43.5847

> <Gold.PLP.PLP>
-37.9041

> <Gold.PLP.part.hbond>
-3.0000

> <Gold.PLP.part.metal>
0.0000

> <Gold.PLP.part.buried>
-3.9678

> <Gold.PLP.part.nonpolar>
-30.7069

> <Gold.PLP.part.repulsive>
0.1859

> <Gold.PLP.ligand.clash>
0.0000

> <Gold.PLP.ligand.torsion>
0.7458

> <Gold.PLP.Chemscore.Hbond>
1.6880

> <Gold.PLP.Chemscore.CHOScore>
0.6318

> <Gold.PLP.Chemscore.Metal>
0.0000

> <Gold.Chemscore.Hbonds>
donor molecule, donor type, donor heavy atom, donor atom, acceptor molecule, acceptor atom, score
      L1  H    18    21       P1  8028  0.56
      P1  H  6896  6907       L1     4  1.00
      L1  C    17    33       P1  8028  0.61

> <Gold.PLP.Chemscore.Internal.Correction>
0.2128

> <Gold.Rescore>
     Score         DG    S(hbond)    S(metal)    S(lipo)     H(rot)  DE(clash)    DE(int)     intcor
     12.14     -14.33       1.92        0.00      60.52       1.81       0.05       2.13       ----

> <Gold.Chemscore.Fitness>
12.1446

> <Gold.Chemscore.DG>
-14.3293

> <Gold.Chemscore.ZeroCoef>
-5.4800

> <Gold.Chemscore.Hbond>
1.9157

> <Gold.Chemscore.Metal>
0.0000

> <Gold.Chemscore.Lipo>
60.5176

> <Gold.Chemscore.Internal_Hbond>
0.0000

> <Gold.Chemscore.DEClash>
0.0498

> <Gold.Chemscore.DEInternal>
2.1348

> <Gold.Chemscore.Rot>
1.8084

> <Gold.Chemscore.Internal.Correction>
   9.000000E+99

> <Gold.Chemscore.Hbonds>
donor molecule, donor type, donor heavy atom, donor atom, acceptor molecule, acceptor atom, score
      L1  H    18    21       P1  8028  0.55
      P1  H  6896  6907       L1     4  0.25

> <Gold.Chemscore.Hbond.Weighted>
-6.3983

> <Gold.Chemscore.Metal.Weighted>
-0.0000

> <Gold.Chemscore.Lipo.Weighted>
-7.0806

> <Gold.Chemscore.Internal_Hbond.Weighted>
0.0000

> <Gold.Chemscore.DEClash.Weighted>
0.0498

> <Gold.Chemscore.DEInternal.Weighted>
2.1348

> <Gold.Chemscore.Rot.Weighted>
4.6296

> <Gold.Chemscore.Internal.Correction.Weighted>
   9.000000E+99

> <Gold.Protein.RotatedTorsions>
[ 6907 6896 6895 6894 ] final  -51.03 input  -60.11 | X-H torsion
[ 7974 7965 7964 7962 ] final  -99.82 input  175.53 | X-H torsion
[ 8008 7997 7996 7995 ] final -112.09 input   59.86 | X-H torsion
[ 10167 10162 10161 10158 ] final   -4.35 input  -65.29 | X-H torsion
[ 10718 10713 10712 10709 ] final  117.08 input   66.30 | X-H torsion
[ 10763 10752 10751 10750 ] final  -75.95 input  -60.55 | X-H torsion
[ 11005 11000 10999 10996 ] final  101.31 input  -57.11 | X-H torsion

> <Gold.Protein.ActiveResidues>
 VAL166  LYS551  ARG553  GLY616  TRP617  ASP618  TYR619  PRO620  LYS621  CYS622 
 ASP623  PHE694  ASN695  SER759  ASP760  ASP761  ALA762  ILE779  LEU786  VAL792 
 PHE793  MET794  SER795  GLU796  ALA797  LYS798  CYS799  TRP800  GLU811  SER814 

> <Gold.Protein.RotatedAtoms>
  150.8650  134.8011  159.7111 H   0  0  0  0  0  0  0  0  0  0  0  0  # atno 6907 bound_to 6896
  152.4674  134.5039  159.9743 H   0  0  0  0  0  0  0  0  0  0  0  0  # atno 6908 bound_to 6896
  151.5136  133.3441  159.2925 H   0  0  0  0  0  0  0  0  0  0  0  0  # atno 6909 bound_to 6896
  145.3026  140.9381  143.2815 H   0  0  0  0  0  0  0  0  0  0  0  0  # atno 7974 bound_to 7965
  154.9998  140.0394  157.2355 H   0  0  0  0  0  0  0  0  0  0  0  0  # atno 8008 bound_to 7997
  154.7554  140.2774  155.6235 H   0  0  0  0  0  0  0  0  0  0  0  0  # atno 8009 bound_to 7997
  156.2893  140.2639  156.2318 H   0  0  0  0  0  0  0  0  0  0  0  0  # atno 8010 bound_to 7997
  140.6924  143.6434  150.8415 H   0  0  0  0  0  0  0  0  0  0  0  0  # atno 10167 bound_to 10162
  157.6119  131.1033  150.7564 H   0  0  0  0  0  0  0  0  0  0  0  0  # atno 10718 bound_to 10713
  154.4933  135.5814  153.6476 H   0  0  0  0  0  0  0  0  0  0  0  0  # atno 10763 bound_to 10752
  152.9866  135.6118  154.3096 H   0  0  0  0  0  0  0  0  0  0  0  0  # atno 10764 bound_to 10752
  154.2998  135.2847  155.2596 H   0  0  0  0  0  0  0  0  0  0  0  0  # atno 10765 bound_to 10752
  139.8773  134.9177  156.4887 H   0  0  0  0  0  0  0  0  0  0  0  0  # atno 11005 bound_to 11000
  144.9081  139.4563  143.6600 LP  0  0  0  0  0  0  0  0  0  0  0  0  # atno 17320 bound_to 7965
  146.3146  139.7873  142.8993 LP  0  0  0  0  0  0  0  0  0  0  0  0  # atno 17321 bound_to 7965
  140.0148  143.5604  152.2824 LP  0  0  0  0  0  0  0  0  0  0  0  0  # atno 17342 bound_to 10162
  139.6341  144.7648  151.2474 LP  0  0  0  0  0  0  0  0  0  0  0  0  # atno 17343 bound_to 10162
  156.7939  130.4899  149.5380 LP  0  0  0  0  0  0  0  0  0  0  0  0  # atno 17370 bound_to 10713
  156.1226  130.6121  151.0216 LP  0  0  0  0  0  0  0  0  0  0  0  0  # atno 17371 bound_to 10713
  140.8674  133.8014  155.9328 LP  0  0  0  0  0  0  0  0  0  0  0  0  # atno 17394 bound_to 11000
  140.8987  134.2405  157.5054 LP  0  0  0  0  0  0  0  0  0  0  0  0  # atno 17395 bound_to 11000

$$$$
