AV-unprocessed.smi:895|AV-procd|sdf|4073|dock6
  -GOLD-   22720 1563D 1   1.00000     0.00000
 Structure written by MMmdl.
 44 45  0  0  0  0  0  0  0  0  1 V2000
  151.8470  138.0830  156.1128 C   0  0  0  0  0  0  0  0  0  0  0  0
  151.0852  137.4343  154.9446 C   0  0  0  0  0  0  0  0  0  0  0  0
  149.9659  138.3713  154.4491 C   0  0  0  0  0  0  0  0  0  0  0  0
  152.0373  137.2846  153.9102 O   0  0  0  0  0  0  0  0  0  0  0  0
  150.5899  136.0236  155.3557 C   0  0  0  0  0  0  0  0  0  0  0  0
  149.6448  135.4304  154.4136 N   0  0  0  0  0  0  0  0  0  0  0  0
  148.9684  134.2916  154.6140 C   0  0  0  0  0  0  0  0  0  0  0  0
  149.0684  133.6006  155.6274 O   0  0  0  0  0  0  0  0  0  0  0  0
  148.1694  134.0025  153.5771 N   0  0  0  0  0  0  0  0  0  0  0  0
  147.2859  132.8407  153.4754 C   0  0  2  0  0  0  0  0  0  0  0  0
  148.0990  131.5795  153.8296 C   0  0  0  0  0  0  0  0  0  0  0  0
  147.2757  130.2952  153.6532 C   0  0  0  0  0  0  0  0  0  0  0  0
  146.7182  130.1904  152.2273 C   0  0  0  0  0  0  0  0  0  0  0  0
  145.8750  131.4251  151.8792 C   0  0  0  0  0  0  0  0  0  0  0  0
  146.6800  132.7325  152.0499 C   0  0  1  0  0  0  0  0  0  0  0  0
  145.8678  133.8953  151.7105 N   0  0  0  0  0  0  0  0  0  0  0  0
  145.2903  134.2031  150.4959 C   0  0  0  0  0  0  0  0  0  0  0  0
  144.6552  135.4035  150.6363 C   0  0  0  0  0  0  0  0  0  0  0  0
  144.9053  135.7611  151.9902 C   0  0  0  0  0  0  0  0  0  0  0  0
  145.6307  134.8590  152.6295 N   0  0  0  0  0  0  0  0  0  0  0  0
  151.1896  138.2529  156.9658 H   0  0  0  0  0  0  0  0  0  0  0  0
  152.2696  139.0475  155.8281 H   0  0  0  0  0  0  0  0  0  0  0  0
  152.6687  137.4508  156.4521 H   0  0  0  0  0  0  0  0  0  0  0  0
  149.1905  138.4897  155.2066 H   0  0  0  0  0  0  0  0  0  0  0  0
  149.4907  137.9975  153.5416 H   0  0  0  0  0  0  0  0  0  0  0  0
  150.3549  139.3641  154.2200 H   0  0  0  0  0  0  0  0  0  0  0  0
  151.5810  137.0615  153.1126 H   0  0  0  0  0  0  0  0  0  0  0  0
  151.4271  135.3487  155.5454 H   0  0  0  0  0  0  0  0  0  0  0  0
  150.0524  136.0984  156.3016 H   0  0  0  0  0  0  0  0  0  0  0  0
  149.4957  135.9266  153.5474 H   0  0  0  0  0  0  0  0  0  0  0  0
  148.1662  134.6393  152.7942 H   0  0  0  0  0  0  0  0  0  0  0  0
  146.4739  132.9229  154.2006 H   0  0  0  0  0  0  0  0  0  0  0  0
  148.9867  131.5230  153.1975 H   0  0  0  0  0  0  0  0  0  0  0  0
  148.4574  131.6445  154.8576 H   0  0  0  0  0  0  0  0  0  0  0  0
  147.8933  129.4246  153.8758 H   0  0  0  0  0  0  0  0  0  0  0  0
  146.4539  130.2844  154.3703 H   0  0  0  0  0  0  0  0  0  0  0  0
  147.5397  130.0927  151.5165 H   0  0  0  0  0  0  0  0  0  0  0  0
  146.1140  129.2880  152.1298 H   0  0  0  0  0  0  0  0  0  0  0  0
  145.5114  131.3434  150.8544 H   0  0  0  0  0  0  0  0  0  0  0  0
  144.9919  131.4401  152.5192 H   0  0  0  0  0  0  0  0  0  0  0  0
  147.5042  132.7017  151.3352 H   0  0  0  0  0  0  0  0  0  0  0  0
  145.3833  133.5518  149.6394 H   0  0  0  0  0  0  0  0  0  0  0  0
  144.1004  135.9459  149.8854 H   0  0  0  0  0  0  0  0  0  0  0  0
  144.5853  136.6441  152.5232 H   0  0  0  0  0  0  0  0  0  0  0  0
  1  2  1  0  0  0  0
  1 21  1  0  0  0  0
  1 22  1  0  0  0  0
  1 23  1  0  0  0  0
  2  3  1  0  0  0  0
  2  4  1  0  0  0  0
  2  5  1  0  0  0  0
  3 24  1  0  0  0  0
  3 25  1  0  0  0  0
  3 26  1  0  0  0  0
  4 27  1  0  0  0  0
  5  6  1  0  0  0  0
  5 28  1  0  0  0  0
  5 29  1  0  0  0  0
  6  7  1  0  0  0  0
  6 30  1  0  0  0  0
  7  8  2  0  0  0  0
  7  9  1  0  0  0  0
  9 10  1  0  0  0  0
  9 31  1  0  0  0  0
 10 15  1  0  0  0  0
 10 11  1  0  0  0  0
 10 32  1  0  0  0  0
 11 12  1  0  0  0  0
 11 33  1  0  0  0  0
 11 34  1  0  0  0  0
 12 13  1  0  0  0  0
 12 35  1  0  0  0  0
 12 36  1  0  0  0  0
 13 14  1  0  0  0  0
 13 37  1  0  0  0  0
 13 38  1  0  0  0  0
 14 15  1  0  0  0  0
 14 39  1  0  0  0  0
 14 40  1  0  0  0  0
 15 16  1  0  0  0  0
 15 41  1  0  0  0  0
 16 20  1  0  0  0  0
 16 17  1  0  0  0  0
 17 18  2  0  0  0  0
 17 42  1  0  0  0  0
 18 19  1  0  0  0  0
 18 43  1  0  0  0  0
 19 20  2  0  0  0  0
 19 44  1  0  0  0  0
M  END
> <s_m_source_file>
AV-unprocessed.smi

> <i_m_source_file_index>
895

> <i_lp_mmshare_version>
43012

> <i_f3d_flags>
0

> <s_epik_input>
W0NIM11DKFtDSDNdKShbT0hdKVtDSDJdW05IXUMoPU8pW05IXVtDQEBIXTFbQ0gyXVtDSDJdW0NIMl1bQ0gyXVtDQEhdMW4yW2NIXVtjSF1bY0hdbjI=

> <s_epik_cmdline>
J2VwaWtfcHl0aG9uJywgJy1waCcsICc3LjAnLCAnLXRuJywgJzgnLCAnLW1hJywgJzIwMCcsICctbWV0YWxfYmluZGluZycsICctaW1hZScsICc8aW5maWxlLm1hZT4nLCAnLW9tYWUnLCAnPG91dGZpbGUubWFlPic=

> <r_lp_tautomer_probability>
1

> <r_epik_Ionization_Penalty>
0.000440451

> <r_epik_Ionization_Penalty_Charging>
0

> <r_epik_Ionization_Penalty_Neutral>
0.000440451

> <r_epik_State_Penalty>
-0

> <r_epik_Charging_Adjusted_Penalty>
0

> <i_epik_Tot_Q>
0

> <i_epik_Tot_abs_Q>
0

> <r_epik_Metal_State_Penalty>
-0

> <b_epik_Metal_Only>
0

> <s_lp_Force_Field>
OPLS_2005

> <r_lp_Energy>
10.7008

> <b_lp_Chiralities_Consistent>
1

> <s_lp_Variant>
AV-unprocessed.smi:895-1

> <Gold.Version>
5.8.1

> <Gold.Id.Protein>
6NUR|6NUR_protein|mol2

> <Gold.PLP.Fitness>
47.2492

> <Gold.PLP.PLP>
-33.9492

> <Gold.PLP.part.hbond>
-4.3010

> <Gold.PLP.part.metal>
0.0000

> <Gold.PLP.part.buried>
-2.8691

> <Gold.PLP.part.nonpolar>
-27.2434

> <Gold.PLP.part.repulsive>
0.1472

> <Gold.PLP.ligand.clash>
0.0000

> <Gold.PLP.ligand.torsion>
0.3049

> <Gold.PLP.Chemscore.Hbond>
3.9920

> <Gold.PLP.Chemscore.CHOScore>
0.6296

> <Gold.PLP.Chemscore.Metal>
0.0000

> <Gold.Chemscore.Hbonds>
donor molecule, donor type, donor heavy atom, donor atom, acceptor molecule, acceptor atom, score
      L1  H     4    27       P1  7949  1.00
      L1  H     6    30       P1  7948  1.00
      L1  H     9    31       P1  7948  0.99
      P1  H 10752 10764       L1     4  0.85
      L1  C    17    42       P1  7921  0.63

> <Gold.PLP.Chemscore.Internal.Correction>
0.0449

> <Gold.Rescore>
     Score         DG    S(hbond)    S(metal)    S(lipo)     H(rot)  DE(clash)    DE(int)     intcor
     14.50     -17.63       2.65        0.00      76.30       2.19       0.01       3.12       ----

> <Gold.Chemscore.Fitness>
14.5030

> <Gold.Chemscore.DG>
-17.6327

> <Gold.Chemscore.ZeroCoef>
-5.4800

> <Gold.Chemscore.Hbond>
2.6456

> <Gold.Chemscore.Metal>
0.0000

> <Gold.Chemscore.Lipo>
76.3047

> <Gold.Chemscore.Internal_Hbond>
0.0000

> <Gold.Chemscore.DEClash>
0.0102

> <Gold.Chemscore.DEInternal>
3.1195

> <Gold.Chemscore.Rot>
2.1919

> <Gold.Chemscore.Internal.Correction>
   9.000000E+99

> <Gold.Chemscore.Hbonds>
donor molecule, donor type, donor heavy atom, donor atom, acceptor molecule, acceptor atom, score
      L1  H     4    27       P1  7949  0.90
      L1  H     6    30       P1  7948  0.39
      L1  H     9    31       P1  7948  0.56
      P1  H 10752 10764       L1     4  0.12

> <Gold.Chemscore.Hbond.Weighted>
-8.8364

> <Gold.Chemscore.Metal.Weighted>
-0.0000

> <Gold.Chemscore.Lipo.Weighted>
-8.9277

> <Gold.Chemscore.Internal_Hbond.Weighted>
0.0000

> <Gold.Chemscore.DEClash.Weighted>
0.0102

> <Gold.Chemscore.DEInternal.Weighted>
3.1195

> <Gold.Chemscore.Rot.Weighted>
5.6113

> <Gold.Chemscore.Internal.Correction.Weighted>
   9.000000E+99

> <Gold.Protein.RotatedTorsions>
[ 6907 6896 6895 6894 ] final  -81.61 input  -60.11 | X-H torsion
[ 7974 7965 7964 7962 ] final -108.06 input  175.53 | X-H torsion
[ 8008 7997 7996 7995 ] final    0.80 input   59.86 | X-H torsion
[ 10167 10162 10161 10158 ] final  -84.96 input  -65.29 | X-H torsion
[ 10718 10713 10712 10709 ] final  155.86 input   66.30 | X-H torsion
[ 10763 10752 10751 10750 ] final  -92.43 input  -60.55 | X-H torsion
[ 11005 11000 10999 10996 ] final   -6.84 input  -57.11 | X-H torsion

> <Gold.Protein.ActiveResidues>
 VAL166  LYS551  ARG553  GLY616  TRP617  ASP618  TYR619  PRO620  LYS621  CYS622 
 ASP623  PHE694  ASN695  SER759  ASP760  ASP761  ALA762  ILE779  LEU786  VAL792 
 PHE793  MET794  SER795  GLU796  ALA797  LYS798  CYS799  TRP800  GLU811  SER814 

> <Gold.Protein.RotatedAtoms>
  150.6909  134.3791  159.5025 H   0  0  0  0  0  0  0  0  0  0  0  0  # atno 6907 bound_to 6896
  152.1596  134.8920  160.0551 H   0  0  0  0  0  0  0  0  0  0  0  0  # atno 6908 bound_to 6896
  151.9987  133.3782  159.4210 H   0  0  0  0  0  0  0  0  0  0  0  0  # atno 6909 bound_to 6896
  145.1976  140.9042  143.3388 H   0  0  0  0  0  0  0  0  0  0  0  0  # atno 7974 bound_to 7965
  154.6723  140.2614  155.6994 H   0  0  0  0  0  0  0  0  0  0  0  0  # atno 8008 bound_to 7997
  156.2664  140.2827  156.1159 H   0  0  0  0  0  0  0  0  0  0  0  0  # atno 8009 bound_to 7997
  155.1151  140.0376  157.2725 H   0  0  0  0  0  0  0  0  0  0  0  0  # atno 8010 bound_to 7997
  140.4083  143.2633  151.9052 H   0  0  0  0  0  0  0  0  0  0  0  0  # atno 10167 bound_to 10162
  157.2128  131.0701  151.1959 H   0  0  0  0  0  0  0  0  0  0  0  0  # atno 10718 bound_to 10713
  154.6860  135.5231  153.8327 H   0  0  0  0  0  0  0  0  0  0  0  0  # atno 10763 bound_to 10752
  153.0598  135.6564  154.0500 H   0  0  0  0  0  0  0  0  0  0  0  0  # atno 10764 bound_to 10752
  154.0381  135.2979  155.3339 H   0  0  0  0  0  0  0  0  0  0  0  0  # atno 10765 bound_to 10752
  140.7063  133.8947  155.8719 H   0  0  0  0  0  0  0  0  0  0  0  0  # atno 11005 bound_to 11000
  144.9979  139.3626  143.6182 LP  0  0  0  0  0  0  0  0  0  0  0  0  # atno 17320 bound_to 7965
  146.3424  139.9190  142.8769 LP  0  0  0  0  0  0  0  0  0  0  0  0  # atno 17321 bound_to 7965
  139.4783  144.5564  151.8308 LP  0  0  0  0  0  0  0  0  0  0  0  0  # atno 17342 bound_to 10162
  140.4666  144.1646  150.5912 LP  0  0  0  0  0  0  0  0  0  0  0  0  # atno 17343 bound_to 10162
  157.3655  130.7154  149.6530 LP  0  0  0  0  0  0  0  0  0  0  0  0  # atno 17370 bound_to 10713
  155.9689  130.4213  150.4465 LP  0  0  0  0  0  0  0  0  0  0  0  0  # atno 17371 bound_to 10713
  141.0122  134.1005  157.4210 LP  0  0  0  0  0  0  0  0  0  0  0  0  # atno 17394 bound_to 11000
  139.8883  135.0097  156.6614 LP  0  0  0  0  0  0  0  0  0  0  0  0  # atno 17395 bound_to 11000

$$$$
