AV-unprocessed.smi:34|AV-procd|sdf|218|dock3
  -GOLD-   2262015533D 1   1.00000     0.00000
 Structure written by MMmdl.
 55 59  0  0  0  0  0  0  0  0  1 V2000
  151.0327  142.2712  156.4760 O   0  0  0  0  0  0  0  0  0  0  0  0
  151.5880  141.8903  157.5069 C   0  0  0  0  0  0  0  0  0  0  0  0
  152.0913  140.5369  157.6611 N   0  0  0  0  0  0  0  0  0  0  0  0
  152.1028  139.5388  156.7466 C   0  0  0  0  0  0  0  0  0  0  0  0
  152.5605  139.7158  155.4796 N   0  0  0  0  0  0  0  0  0  0  0  0
  152.5501  138.6989  154.6134 C   0  0  0  0  0  0  0  0  0  0  0  0
  152.1339  137.4460  154.8051 N   0  0  0  0  0  0  0  0  0  0  0  0
  151.6744  137.2563  156.0758 C   0  0  0  0  0  0  0  0  0  0  0  0
  151.6302  138.2471  157.0967 C   0  0  0  0  0  0  0  0  0  0  0  0
  151.1088  137.7004  158.2615 N   0  0  0  0  0  0  0  0  0  0  0  0
  150.8589  136.4593  157.9433 C   0  0  0  0  0  0  0  0  0  0  0  0
  151.1692  136.1041  156.6492 N   0  0  0  0  0  0  0  0  0  0  0  0
  150.9915  134.7541  156.0187 C   0  0  1  0  0  0  0  0  0  0  0  0
  150.3309  133.9004  156.9101 O   0  0  0  0  0  0  0  0  0  0  0  0
  149.0939  133.4675  156.3474 C   0  0  2  0  0  0  0  0  0  0  0  0
  148.7260  132.0778  156.8785 C   0  0  0  0  0  0  0  0  0  0  0  0
  148.0978  131.3333  155.8478 O   0  0  0  0  0  0  0  0  0  0  0  0
  148.8264  130.5165  155.0627 C   0  0  0  0  0  0  0  0  0  0  0  0
  150.0002  130.2180  155.2924 O   0  0  0  0  0  0  0  0  0  0  0  0
  148.0614  130.0081  153.8874 C   0  0  0  0  0  0  0  0  0  0  0  0
  148.5859  128.9345  153.1301 C   0  0  0  0  0  0  0  0  0  0  0  0
  147.8836  128.4307  152.0179 C   0  0  0  0  0  0  0  0  0  0  0  0
  146.6488  128.9949  151.6485 C   0  0  0  0  0  0  0  0  0  0  0  0
  146.1174  130.0645  152.3923 C   0  0  0  0  0  0  0  0  0  0  0  0
  146.8179  130.5696  153.5052 C   0  0  0  0  0  0  0  0  0  0  0  0
  149.3590  133.5240  154.8459 C   0  0  1  0  0  0  0  0  0  0  0  0
  148.2566  133.5203  154.0943 F   0  0  0  0  0  0  0  0  0  0  0  0
  150.1714  134.7991  154.7125 C   0  0  1  0  0  0  0  0  0  0  0  0
  149.3398  135.9427  154.6023 O   0  0  0  0  0  0  0  0  0  0  0  0
  151.7046  142.7744  158.7136 C   0  0  0  0  0  0  0  0  0  0  0  0
  152.3182  142.2881  159.8898 C   0  0  0  0  0  0  0  0  0  0  0  0
  152.4242  143.1084  161.0298 C   0  0  0  0  0  0  0  0  0  0  0  0
  151.9089  144.4182  161.0062 C   0  0  0  0  0  0  0  0  0  0  0  0
  151.2833  144.9057  159.8433 C   0  0  0  0  0  0  0  0  0  0  0  0
  151.1774  144.0866  158.7023 C   0  0  0  0  0  0  0  0  0  0  0  0
  152.4814  140.3122  158.5647 H   0  0  0  0  0  0  0  0  0  0  0  0
  152.9293  138.9211  153.6270 H   0  0  0  0  0  0  0  0  0  0  0  0
  150.4391  135.7606  158.6523 H   0  0  0  0  0  0  0  0  0  0  0  0
  152.0070  134.3859  155.8677 H   0  0  0  0  0  0  0  0  0  0  0  0
  148.3199  134.1873  156.6163 H   0  0  0  0  0  0  0  0  0  0  0  0
  149.6137  131.5576  157.2412 H   0  0  0  0  0  0  0  0  0  0  0  0
  148.0364  132.1756  157.7179 H   0  0  0  0  0  0  0  0  0  0  0  0
  149.5318  128.4844  153.3949 H   0  0  0  0  0  0  0  0  0  0  0  0
  148.2935  127.6098  151.4481 H   0  0  0  0  0  0  0  0  0  0  0  0
  146.1103  128.6079  150.7960 H   0  0  0  0  0  0  0  0  0  0  0  0
  145.1703  130.4999  152.1097 H   0  0  0  0  0  0  0  0  0  0  0  0
  146.3818  131.3919  154.0534 H   0  0  0  0  0  0  0  0  0  0  0  0
  149.9608  132.6675  154.5389 H   0  0  0  0  0  0  0  0  0  0  0  0
  150.8419  134.7697  153.8532 H   0  0  0  0  0  0  0  0  0  0  0  0
  149.1976  136.1231  153.6856 H   0  0  0  0  0  0  0  0  0  0  0  0
  152.7192  141.2852  159.9230 H   0  0  0  0  0  0  0  0  0  0  0  0
  152.9008  142.7320  161.9228 H   0  0  0  0  0  0  0  0  0  0  0  0
  151.9906  145.0472  161.8804 H   0  0  0  0  0  0  0  0  0  0  0  0
  150.8821  145.9083  159.8267 H   0  0  0  0  0  0  0  0  0  0  0  0
  150.6855  144.4762  157.8226 H   0  0  0  0  0  0  0  0  0  0  0  0
  1  2  2  0  0  0  0
  2  3  1  0  0  0  0
  2 30  1  0  0  0  0
  3  4  1  0  0  0  0
  3 36  1  0  0  0  0
  4  9  1  0  0  0  0
  4  5  2  0  0  0  0
  5  6  1  0  0  0  0
  6  7  2  0  0  0  0
  6 37  1  0  0  0  0
  7  8  1  0  0  0  0
  8 12  1  0  0  0  0
  8  9  2  0  0  0  0
  9 10  1  0  0  0  0
 10 11  2  0  0  0  0
 11 12  1  0  0  0  0
 11 38  1  0  0  0  0
 12 13  1  0  0  0  0
 13 28  1  0  0  0  0
 13 14  1  0  0  0  0
 13 39  1  0  0  0  0
 14 15  1  0  0  0  0
 15 16  1  0  0  0  0
 15 26  1  0  0  0  0
 15 40  1  0  0  0  0
 16 17  1  0  0  0  0
 16 41  1  0  0  0  0
 16 42  1  0  0  0  0
 17 18  1  0  0  0  0
 18 19  2  0  0  0  0
 18 20  1  0  0  0  0
 20 25  1  0  0  0  0
 20 21  2  0  0  0  0
 21 22  1  0  0  0  0
 21 43  1  0  0  0  0
 22 23  2  0  0  0  0
 22 44  1  0  0  0  0
 23 24  1  0  0  0  0
 23 45  1  0  0  0  0
 24 25  2  0  0  0  0
 24 46  1  0  0  0  0
 25 47  1  0  0  0  0
 26 27  1  0  0  0  0
 26 28  1  0  0  0  0
 26 48  1  0  0  0  0
 28 29  1  0  0  0  0
 28 49  1  0  0  0  0
 29 50  1  0  0  0  0
 30 35  1  0  0  0  0
 30 31  2  0  0  0  0
 31 32  1  0  0  0  0
 31 51  1  0  0  0  0
 32 33  2  0  0  0  0
 32 52  1  0  0  0  0
 33 34  1  0  0  0  0
 33 53  1  0  0  0  0
 34 35  2  0  0  0  0
 34 54  1  0  0  0  0
 35 55  1  0  0  0  0
M  END
> <s_m_source_file>
AV-unprocessed.smi

> <i_m_source_file_index>
34

> <i_lp_mmshare_version>
43012

> <i_f3d_flags>
0

> <s_epik_input>
W2NIXTFbY0hdW2NIXVtjSF1bY0hdYzFDKD1PKVtOSF1jKG5bY0hdbjIpYyhjMjMpbltjSF1uM1tDQEBIXTRPW0NASF0oW0NAQEhdKEYpW0NASF00W09IXSlbQ0gyXU9DKD1PKWM1W2NIXVtjSF1bY0hdW2NIXVtjSF01

> <s_epik_cmdline>
J2VwaWtfcHl0aG9uJywgJy1waCcsICc3LjAnLCAnLXRuJywgJzgnLCAnLW1hJywgJzIwMCcsICctbWV0YWxfYmluZGluZycsICctaW1hZScsICc8aW5maWxlLm1hZT4nLCAnLW9tYWUnLCAnPG91dGZpbGUubWFlPic=

> <r_lp_tautomer_probability>
1

> <r_epik_Ionization_Penalty>
0.00257489

> <r_epik_Ionization_Penalty_Charging>
0

> <r_epik_Ionization_Penalty_Neutral>
0.00257489

> <r_epik_State_Penalty>
0.00519398

> <r_epik_Charging_Adjusted_Penalty>
0.00519398

> <i_epik_Tot_Q>
0

> <i_epik_Tot_abs_Q>
0

> <r_epik_Metal_State_Penalty>
0.335891

> <b_epik_Metal_Only>
0

> <s_epik_Chemistry_Notes>
This compound has an ester and may undergo hydrolysis at high or low pH. This compound contains an acetal/aminal-like group ( X-CH(R)-Y where X, Y are N, S, or O) that may be acid/base labile, releasing an aldehyde.

> <s_lp_Force_Field>
OPLS_2005

> <r_lp_Energy>
55.7216

> <b_lp_Chiralities_Consistent>
1

> <s_lp_Variant>
AV-unprocessed.smi:34-4

> <Gold.Version>
5.8.1

> <Gold.Id.Protein>
6NUR|6NUR_protein|mol2

> <Gold.PLP.Fitness>
62.9141

> <Gold.PLP.PLP>
-56.3470

> <Gold.PLP.part.hbond>
-3.8289

> <Gold.PLP.part.metal>
0.0000

> <Gold.PLP.part.buried>
-7.6681

> <Gold.PLP.part.nonpolar>
-46.6567

> <Gold.PLP.part.repulsive>
0.2811

> <Gold.PLP.ligand.clash>
0.0000

> <Gold.PLP.ligand.torsion>
1.3439

> <Gold.PLP.Chemscore.Hbond>
2.8980

> <Gold.PLP.Chemscore.CHOScore>
0.0000

> <Gold.PLP.Chemscore.Metal>
0.0000

> <Gold.Chemscore.Hbonds>
donor molecule, donor type, donor heavy atom, donor atom, acceptor molecule, acceptor atom, score
      L1  H    29    50       P1  7948  1.00
      P1  H  6896  6909       L1    14  0.09
      P1  H  7997  8010       L1     5  1.00
      P1  H 10752 10764       L1     7  0.75

> <Gold.PLP.Chemscore.Internal.Correction>
0.5608

> <Gold.Rescore>
     Score         DG    S(hbond)    S(metal)    S(lipo)     H(rot)  DE(clash)    DE(int)     intcor
     16.97     -20.91       2.22        0.00     127.96       2.72       0.47       3.47       ----

> <Gold.Chemscore.Fitness>
16.9716

> <Gold.Chemscore.DG>
-20.9133

> <Gold.Chemscore.ZeroCoef>
-5.4800

> <Gold.Chemscore.Hbond>
2.2244

> <Gold.Chemscore.Metal>
0.0000

> <Gold.Chemscore.Lipo>
127.9551

> <Gold.Chemscore.Internal_Hbond>
0.0000

> <Gold.Chemscore.DEClash>
0.4715

> <Gold.Chemscore.DEInternal>
3.4702

> <Gold.Chemscore.Rot>
2.7215

> <Gold.Chemscore.Internal.Correction>
   9.000000E+99

> <Gold.Chemscore.Hbonds>
donor molecule, donor type, donor heavy atom, donor atom, acceptor molecule, acceptor atom, score
      L1  H    29    50       P1  7948  0.88
      P1  H  6896  6909       L1    14  0.11
      P1  H  7997  8010       L1     5  0.16
      P1  H 10752 10764       L1     7  0.36

> <Gold.Chemscore.Hbond.Weighted>
-7.4296

> <Gold.Chemscore.Metal.Weighted>
-0.0000

> <Gold.Chemscore.Lipo.Weighted>
-14.9707

> <Gold.Chemscore.Internal_Hbond.Weighted>
0.0000

> <Gold.Chemscore.DEClash.Weighted>
0.4715

> <Gold.Chemscore.DEInternal.Weighted>
3.4702

> <Gold.Chemscore.Rot.Weighted>
6.9670

> <Gold.Chemscore.Internal.Correction.Weighted>
   9.000000E+99

> <Gold.Protein.RotatedTorsions>
[ 6907 6896 6895 6894 ] final   -3.97 input  -60.11 | X-H torsion
[ 7974 7965 7964 7962 ] final   30.87 input  175.53 | X-H torsion
[ 8008 7997 7996 7995 ] final  107.98 input   59.86 | X-H torsion
[ 10167 10162 10161 10158 ] final   32.12 input  -65.29 | X-H torsion
[ 10718 10713 10712 10709 ] final -178.09 input   66.30 | X-H torsion
[ 10763 10752 10751 10750 ] final  -78.77 input  -60.55 | X-H torsion
[ 11005 11000 10999 10996 ] final  114.45 input  -57.11 | X-H torsion

> <Gold.Protein.ActiveResidues>
 VAL166  LYS551  ARG553  GLY616  TRP617  ASP618  TYR619  PRO620  LYS621  CYS622 
 ASP623  PHE694  ASN695  SER759  ASP760  ASP761  ALA762  ILE779  LEU786  VAL792 
 PHE793  MET794  SER795  GLU796  ALA797  LYS798  CYS799  TRP800  GLU811  SER814 

> <Gold.Protein.RotatedAtoms>
  151.5051  135.1063  159.9838 H   0  0  0  0  0  0  0  0  0  0  0  0  # atno 6907 bound_to 6896
  152.4685  133.7973  159.6944 H   0  0  0  0  0  0  0  0  0  0  0  0  # atno 6908 bound_to 6896
  150.8681  133.7481  159.2996 H   0  0  0  0  0  0  0  0  0  0  0  0  # atno 6909 bound_to 6896
  146.1585  139.6732  142.9050 H   0  0  0  0  0  0  0  0  0  0  0  0  # atno 7974 bound_to 7965
  156.1867  140.3085  155.9253 H   0  0  0  0  0  0  0  0  0  0  0  0  # atno 8008 bound_to 7997
  155.3264  140.0458  157.3058 H   0  0  0  0  0  0  0  0  0  0  0  0  # atno 8009 bound_to 7997
  154.5404  140.2260  155.8660 H   0  0  0  0  0  0  0  0  0  0  0  0  # atno 8010 bound_to 7997
  140.4527  144.1024  150.6195 H   0  0  0  0  0  0  0  0  0  0  0  0  # atno 10167 bound_to 10162
  156.8391  130.9680  151.3101 H   0  0  0  0  0  0  0  0  0  0  0  0  # atno 10718 bound_to 10713
  154.5301  135.5718  153.6752 H   0  0  0  0  0  0  0  0  0  0  0  0  # atno 10763 bound_to 10752
  152.9937  135.6203  154.2640 H   0  0  0  0  0  0  0  0  0  0  0  0  # atno 10764 bound_to 10752
  154.2565  135.2857  155.2775 H   0  0  0  0  0  0  0  0  0  0  0  0  # atno 10765 bound_to 10752
  139.8981  134.9568  156.6894 H   0  0  0  0  0  0  0  0  0  0  0  0  # atno 11005 bound_to 11000
  145.4647  141.0434  143.2732 LP  0  0  0  0  0  0  0  0  0  0  0  0  # atno 17320 bound_to 7965
  144.7995  139.6168  143.7078 LP  0  0  0  0  0  0  0  0  0  0  0  0  # atno 17321 bound_to 7965
  140.4188  143.2621  151.9741 LP  0  0  0  0  0  0  0  0  0  0  0  0  # atno 17342 bound_to 10162
  139.4798  144.5850  151.7869 LP  0  0  0  0  0  0  0  0  0  0  0  0  # atno 17343 bound_to 10162
  157.6365  130.8771  149.9369 LP  0  0  0  0  0  0  0  0  0  0  0  0  # atno 17370 bound_to 10713
  156.0891  130.3665  150.0430 LP  0  0  0  0  0  0  0  0  0  0  0  0  # atno 17371 bound_to 10713
  140.7236  133.9119  155.8164 LP  0  0  0  0  0  0  0  0  0  0  0  0  # atno 17394 bound_to 11000
  141.0208  134.0892  157.4123 LP  0  0  0  0  0  0  0  0  0  0  0  0  # atno 17395 bound_to 11000

$$$$
