AV-unprocessed.smi:1261|AV-procd|sdf|5303|dock2
  -GOLD-   22720 4423D 1   1.00000     0.00000
 Structure written by MMmdl.
 49 50  0  0  0  0  0  0  0  0  3 V2000
  145.4193  130.7616  151.2445 C   0  0  0  0  0  0  0  0  0  0  0  0
  145.5366  132.0697  152.0399 C   0  0  2  0  0  0  0  0  0  0  0  0
  144.2792  132.9413  151.8722 C   0  0  0  0  0  0  0  0  0  0  0  0
  144.4233  134.2718  152.6319 C   0  0  2  0  0  0  0  0  0  0  0  0
  143.1842  135.1591  152.4464 C   0  0  0  0  0  0  0  0  0  0  0  0
  145.7089  135.0000  152.1852 C   0  0  0  0  0  0  0  0  0  0  0  0
  146.9204  134.1562  152.3604 N   0  3  1  0  0  0  0  0  0  0  0  0
  147.3609  134.0419  153.7768 C   0  0  0  0  0  0  0  0  0  0  0  0
  148.6324  133.1917  153.9330 C   0  0  0  0  0  0  0  0  0  0  0  0
  149.1779  133.2154  155.3709 C   0  0  0  0  0  0  0  0  0  0  0  0
  148.0984  133.2170  156.3505 N   0  0  0  0  0  0  0  0  0  0  0  0
  148.2418  133.5251  157.6487 C   0  0  0  0  0  0  0  0  0  0  0  0
  149.3281  133.8148  158.1530 O   0  0  0  0  0  0  0  0  0  0  0  0
  146.9612  133.4880  158.4964 C   0  0  0  0  0  0  0  0  0  0  0  0
  147.1532  133.9701  159.8720 N   0  0  0  0  0  0  0  0  0  0  0  0
  147.4612  135.3944  159.9614 N   0  5  0  0  0  0  0  0  0  0  0  0
  147.6334  135.9595  161.1859 C   0  0  0  0  0  0  0  0  0  0  0  0
  147.8756  137.1543  161.3406 O   0  0  0  0  0  0  0  0  0  0  0  0
  147.5284  135.1029  162.3556 C   0  0  0  0  0  0  0  0  0  0  0  0
  147.2675  133.7856  162.2421 C   0  0  0  0  0  0  0  0  0  0  0  0
  147.0685  133.1393  160.9507 C   0  0  0  0  0  0  0  0  0  0  0  0
  146.8356  131.9351  160.8386 O   0  0  0  0  0  0  0  0  0  0  0  0
  146.7974  132.8633  151.6316 C   0  0  0  0  0  0  0  0  0  0  0  0
  145.3250  130.9536  150.1751 H   0  0  0  0  0  0  0  0  0  0  0  0
  144.5463  130.1884  151.5578 H   0  0  0  0  0  0  0  0  0  0  0  0
  146.2966  130.1311  151.3933 H   0  0  0  0  0  0  0  0  0  0  0  0
  145.6213  131.7949  153.0916 H   0  0  0  0  0  0  0  0  0  0  0  0
  144.1075  133.1394  150.8129 H   0  0  0  0  0  0  0  0  0  0  0  0
  143.4028  132.4006  152.2318 H   0  0  0  0  0  0  0  0  0  0  0  0
  144.5030  134.0484  153.6968 H   0  0  0  0  0  0  0  0  0  0  0  0
  143.0395  135.4266  151.3990 H   0  0  0  0  0  0  0  0  0  0  0  0
  143.2742  136.0844  153.0167 H   0  0  0  0  0  0  0  0  0  0  0  0
  142.2823  134.6499  152.7875 H   0  0  0  0  0  0  0  0  0  0  0  0
  145.6299  135.2678  151.1304 H   0  0  0  0  0  0  0  0  0  0  0  0
  145.8272  135.9404  152.7252 H   0  0  0  0  0  0  0  0  0  0  0  0
  147.5797  135.0405  154.1571 H   0  0  0  0  0  0  0  0  0  0  0  0
  146.5602  133.6487  154.4028 H   0  0  0  0  0  0  0  0  0  0  0  0
  148.4278  132.1598  153.6496 H   0  0  0  0  0  0  0  0  0  0  0  0
  149.4010  133.5536  153.2486 H   0  0  0  0  0  0  0  0  0  0  0  0
  149.7978  132.3367  155.5502 H   0  0  0  0  0  0  0  0  0  0  0  0
  149.8191  134.0852  155.5238 H   0  0  0  0  0  0  0  0  0  0  0  0
  147.1743  132.9798  156.0193 H   0  0  0  0  0  0  0  0  0  0  0  0
  146.1851  134.0845  158.0129 H   0  0  0  0  0  0  0  0  0  0  0  0
  146.5868  132.4627  158.4964 H   0  0  0  0  0  0  0  0  0  0  0  0
  147.6656  135.5322  163.3371 H   0  0  0  0  0  0  0  0  0  0  0  0
  147.2007  133.1873  163.1384 H   0  0  0  0  0  0  0  0  0  0  0  0
  147.6909  132.2555  151.7662 H   0  0  0  0  0  0  0  0  0  0  0  0
  146.7517  133.0861  150.5645 H   0  0  0  0  0  0  0  0  0  0  0  0
  147.6649  134.6621  151.9019 H   0  0  0  0  0  0  0  0  0  0  0  0
  1  2  1  0  0  0  0
  1 24  1  0  0  0  0
  1 25  1  0  0  0  0
  1 26  1  0  0  0  0
  2 23  1  0  0  0  0
  2  3  1  0  0  0  0
  2 27  1  0  0  0  0
  3  4  1  0  0  0  0
  3 28  1  0  0  0  0
  3 29  1  0  0  0  0
  4  5  1  0  0  0  0
  4  6  1  0  0  0  0
  4 30  1  0  0  0  0
  5 31  1  0  0  0  0
  5 32  1  0  0  0  0
  5 33  1  0  0  0  0
  6  7  1  0  0  0  0
  6 34  1  0  0  0  0
  6 35  1  0  0  0  0
  7  8  1  0  0  0  0
  7 23  1  0  0  0  0
  7 49  1  0  0  0  0
  8  9  1  0  0  0  0
  8 36  1  0  0  0  0
  8 37  1  0  0  0  0
  9 10  1  0  0  0  0
  9 38  1  0  0  0  0
  9 39  1  0  0  0  0
 10 11  1  0  0  0  0
 10 40  1  0  0  0  0
 10 41  1  0  0  0  0
 11 12  1  0  0  0  0
 11 42  1  0  0  0  0
 12 13  2  0  0  0  0
 12 14  1  0  0  0  0
 14 43  1  0  0  0  0
 14 44  1  0  0  0  0
 14 15  1  0  0  0  0
 15 16  1  0  0  0  0
 15 21  1  0  0  0  0
 16 17  1  0  0  0  0
 17 18  2  0  0  0  0
 17 19  1  0  0  0  0
 19 45  1  0  0  0  0
 19 20  2  0  0  0  0
 20 46  1  0  0  0  0
 20 21  1  0  0  0  0
 21 22  2  0  0  0  0
 23 47  1  0  0  0  0
 23 48  1  0  0  0  0
M  CHG  1   7   1
M  CHG  1  16  -1
M  END
> <s_m_source_file>
AV-unprocessed.smi

> <i_m_source_file_index>
1261

> <i_lp_mmshare_version>
43012

> <i_f3d_flags>
0

> <s_epik_input>
W0NIM11bQ0BASF0xW0NIMl1bQ0BASF0oW0NIM10pW0NIMl1OKFtDSDJdMSlbQ0gyXVtDSDJdW0NIMl1bTkhdQyg9TylbQ0gyXW4yW25IXWMoPU8pW2NIXVtjSF1jMj1P

> <s_epik_cmdline>
J2VwaWtfcHl0aG9uJywgJy1waCcsICc3LjAnLCAnLXRuJywgJzgnLCAnLW1hJywgJzIwMCcsICctbWV0YWxfYmluZGluZycsICctaW1hZScsICc8aW5maWxlLm1hZT4nLCAnLW9tYWUnLCAnPG91dGZpbGUubWFlPic=

> <r_lp_tautomer_probability>
1

> <r_epik_Ionization_Penalty>
0.0955723

> <r_epik_Ionization_Penalty_Charging>
0.0955723

> <r_epik_Ionization_Penalty_Neutral>
2.68632e-08

> <r_epik_State_Penalty>
0.0334406

> <r_epik_Charging_Adjusted_Penalty>
0.129013

> <i_epik_Tot_Q>
0

> <i_epik_Tot_abs_Q>
2

> <r_epik_Metal_State_Penalty>
0.0334406

> <b_epik_Metal_Only>
0

> <s_lp_Force_Field>
OPLS_2005

> <r_lp_Energy>
31.7782

> <b_lp_Chiralities_Consistent>
1

> <s_lp_Variant>
AV-unprocessed.smi:1261-3

> <Gold.Version>
5.8.1

> <Gold.Id.Protein>
6NUR|6NUR_protein|mol2

> <Gold.PLP.Fitness>
51.4253

> <Gold.PLP.PLP>
-37.6102

> <Gold.PLP.part.hbond>
-4.0000

> <Gold.PLP.part.metal>
0.0000

> <Gold.PLP.part.buried>
-4.0354

> <Gold.PLP.part.nonpolar>
-29.2500

> <Gold.PLP.part.repulsive>
0.0158

> <Gold.PLP.ligand.clash>
0.0000

> <Gold.PLP.ligand.torsion>
0.3395

> <Gold.PLP.Chemscore.Hbond>
4.8080

> <Gold.PLP.Chemscore.CHOScore>
0.0000

> <Gold.PLP.Chemscore.Metal>
0.0000

> <Gold.Chemscore.Hbonds>
donor molecule, donor type, donor heavy atom, donor atom, acceptor molecule, acceptor atom, score
      L1  H     7    49       P1  7948  2.00
      P1  H  6896  6907       L1    13  1.00
      P1  H  6931  6943       L1    18  1.00
      P1  H  6934  6947       L1    18  0.74

> <Gold.PLP.Chemscore.Internal.Correction>
0.0700

> <Gold.Rescore>
     Score         DG    S(hbond)    S(metal)    S(lipo)     H(rot)  DE(clash)    DE(int)     intcor
     18.81     -20.34       3.72        0.00      75.32       2.49       0.03       1.51       ----

> <Gold.Chemscore.Fitness>
18.8073

> <Gold.Chemscore.DG>
-20.3412

> <Gold.Chemscore.ZeroCoef>
-5.4800

> <Gold.Chemscore.Hbond>
3.7223

> <Gold.Chemscore.Metal>
0.0000

> <Gold.Chemscore.Lipo>
75.3218

> <Gold.Chemscore.Internal_Hbond>
0.0000

> <Gold.Chemscore.DEClash>
0.0272

> <Gold.Chemscore.DEInternal>
1.5066

> <Gold.Chemscore.Rot>
2.4938

> <Gold.Chemscore.Internal.Correction>
   9.000000E+99

> <Gold.Chemscore.Hbonds>
donor molecule, donor type, donor heavy atom, donor atom, acceptor molecule, acceptor atom, score
      L1  H     7    49       P1  7948  0.42
      P1  H  6896  6907       L1    13  1.00
      P1  H  6931  6943       L1    18  0.97
      P1  H  6934  6947       L1    18  0.69

> <Gold.Chemscore.Hbond.Weighted>
-12.4325

> <Gold.Chemscore.Metal.Weighted>
-0.0000

> <Gold.Chemscore.Lipo.Weighted>
-8.8127

> <Gold.Chemscore.Internal_Hbond.Weighted>
0.0000

> <Gold.Chemscore.DEClash.Weighted>
0.0272

> <Gold.Chemscore.DEInternal.Weighted>
1.5066

> <Gold.Chemscore.Rot.Weighted>
6.3840

> <Gold.Chemscore.Internal.Correction.Weighted>
   9.000000E+99

> <Gold.Protein.RotatedTorsions>
[ 6907 6896 6895 6894 ] final -101.94 input  -60.11 | X-H torsion
[ 7974 7965 7964 7962 ] final   86.14 input  175.53 | X-H torsion
[ 8008 7997 7996 7995 ] final   28.40 input   59.86 | X-H torsion
[ 10167 10162 10161 10158 ] final  -92.45 input  -65.29 | X-H torsion
[ 10718 10713 10712 10709 ] final   41.94 input   66.30 | X-H torsion
[ 10763 10752 10751 10750 ] final   16.89 input  -60.55 | X-H torsion
[ 11005 11000 10999 10996 ] final  -99.12 input  -57.11 | X-H torsion

> <Gold.Protein.ActiveResidues>
 VAL166  LYS551  ARG553  GLY616  TRP617  ASP618  TYR619  PRO620  LYS621  CYS622 
 ASP623  PHE694  ASN695  SER759  ASP760  ASP761  ALA762  ILE779  LEU786  VAL792 
 PHE793  MET794  SER795  GLU796  ALA797  LYS798  CYS799  TRP800  GLU811  SER814 

> <Gold.Protein.RotatedAtoms>
  150.7175  134.0657  159.3846 H   0  0  0  0  0  0  0  0  0  0  0  0  # atno 6907 bound_to 6896
  151.8638  135.0512  160.0481 H   0  0  0  0  0  0  0  0  0  0  0  0  # atno 6908 bound_to 6896
  152.2697  133.5335  159.5468 H   0  0  0  0  0  0  0  0  0  0  0  0  # atno 6909 bound_to 6896
  145.5762  139.2319  143.2379 H   0  0  0  0  0  0  0  0  0  0  0  0  # atno 7974 bound_to 7965
  155.0581  140.3187  155.4670 H   0  0  0  0  0  0  0  0  0  0  0  0  # atno 8008 bound_to 7997
  156.2819  140.2134  156.5652 H   0  0  0  0  0  0  0  0  0  0  0  0  # atno 8009 bound_to 7997
  154.7155  140.0494  157.0578 H   0  0  0  0  0  0  0  0  0  0  0  0  # atno 8010 bound_to 7997
  140.3346  143.2975  151.9903 H   0  0  0  0  0  0  0  0  0  0  0  0  # atno 10167 bound_to 10162
  157.3993  130.7851  149.7335 H   0  0  0  0  0  0  0  0  0  0  0  0  # atno 10718 bound_to 10713
  153.1389  135.6756  153.9058 H   0  0  0  0  0  0  0  0  0  0  0  0  # atno 10763 bound_to 10752
  153.8521  135.3092  155.3434 H   0  0  0  0  0  0  0  0  0  0  0  0  # atno 10764 bound_to 10752
  154.7771  135.4908  153.9850 H   0  0  0  0  0  0  0  0  0  0  0  0  # atno 10765 bound_to 10752
  141.1320  133.8297  157.0930 H   0  0  0  0  0  0  0  0  0  0  0  0  # atno 11005 bound_to 11000
  146.1749  140.6588  142.9216 LP  0  0  0  0  0  0  0  0  0  0  0  0  # atno 17320 bound_to 7965
  144.7415  140.4954  143.6866 LP  0  0  0  0  0  0  0  0  0  0  0  0  # atno 17321 bound_to 7965
  139.4850  144.6207  151.7261 LP  0  0  0  0  0  0  0  0  0  0  0  0  # atno 17342 bound_to 10162
  140.5365  144.0647  150.6072 LP  0  0  0  0  0  0  0  0  0  0  0  0  # atno 17343 bound_to 10162
  155.9819  130.4015  150.3447 LP  0  0  0  0  0  0  0  0  0  0  0  0  # atno 17370 bound_to 10713
  157.1573  131.0336  151.2857 LP  0  0  0  0  0  0  0  0  0  0  0  0  # atno 17371 bound_to 10713
  140.0381  134.9868  157.0909 LP  0  0  0  0  0  0  0  0  0  0  0  0  # atno 17394 bound_to 11000
  140.4179  134.1912  155.7164 LP  0  0  0  0  0  0  0  0  0  0  0  0  # atno 17395 bound_to 11000

$$$$
