AV-unprocessed.smi:2270|AV-procd|sdf|9158|dock5
  -GOLD-   2272012363D 1   1.00000     0.00000
 Structure written by MMmdl.
 52 53  0  0  0  0  0  0  0  0  1 V2000
  153.3086  141.4103  160.3477 C   0  0  0  0  0  0  0  0  0  0  0  0
  152.7105  142.5718  159.5821 C   0  0  0  0  0  0  0  0  0  0  0  0
  152.9915  143.9017  159.9512 C   0  0  0  0  0  0  0  0  0  0  0  0
  152.4017  144.9361  159.2031 C   0  0  0  0  0  0  0  0  0  0  0  0
  151.5606  144.6001  158.1248 C   0  0  0  0  0  0  0  0  0  0  0  0
  151.3299  143.2395  157.8204 C   0  0  0  0  0  0  0  0  0  0  0  0
  150.4698  143.0072  156.7146 N   0  0  0  0  0  0  0  0  0  0  0  0
  150.1414  141.8324  156.1490 C   0  0  0  0  0  0  0  0  0  0  0  0
  150.5388  140.7267  156.5178 O   0  0  0  0  0  0  0  0  0  0  0  0
  149.3150  142.0102  155.1086 N   0  0  0  0  0  0  0  0  0  0  0  0
  148.7888  140.9417  154.2645 C   0  0  0  0  0  0  0  0  0  0  0  0
  147.2964  140.6160  154.5585 C   0  0  2  0  0  0  0  0  0  0  0  0
  146.6912  139.5241  153.6196 C   0  0  0  0  0  0  0  0  0  0  0  0
  147.0867  138.0624  153.9090 C   0  0  0  0  0  0  0  0  0  0  0  0
  146.8775  139.8643  152.1311 C   0  0  0  0  0  0  0  0  0  0  0  0
  146.4379  141.7975  154.7721 N   0  0  0  0  0  0  0  0  0  0  0  0
  146.1980  142.5601  153.5428 C   0  0  0  0  0  0  0  0  0  0  0  0
  145.4324  143.8644  153.8304 C   0  0  0  0  0  0  0  0  0  0  0  0
  144.1474  143.5960  154.4724 N   0  0  0  0  0  0  0  0  0  0  0  0
  143.4141  144.8244  154.7358 C   0  0  0  0  0  0  0  0  0  0  0  0
  144.3797  142.8353  155.6982 C   0  0  0  0  0  0  0  0  0  0  0  0
  145.1473  141.5302  155.4162 C   0  0  0  0  0  0  0  0  0  0  0  0
  151.9030  142.2494  158.5488 N   0  0  0  0  0  0  0  0  0  0  0  0
  154.1865  141.7249  160.9125 H   0  0  0  0  0  0  0  0  0  0  0  0
  153.6122  140.6137  159.6675 H   0  0  0  0  0  0  0  0  0  0  0  0
  152.5776  141.0054  161.0476 H   0  0  0  0  0  0  0  0  0  0  0  0
  153.6404  144.1259  160.7851 H   0  0  0  0  0  0  0  0  0  0  0  0
  152.5904  145.9700  159.4515 H   0  0  0  0  0  0  0  0  0  0  0  0
  151.0999  145.3827  157.5397 H   0  0  0  0  0  0  0  0  0  0  0  0
  150.0636  143.8330  156.3007 H   0  0  0  0  0  0  0  0  0  0  0  0
  149.0373  142.9520  154.8748 H   0  0  0  0  0  0  0  0  0  0  0  0
  148.9317  141.2246  153.2215 H   0  0  0  0  0  0  0  0  0  0  0  0
  149.4139  140.0633  154.4218 H   0  0  0  0  0  0  0  0  0  0  0  0
  147.3134  140.1086  155.5243 H   0  0  0  0  0  0  0  0  0  0  0  0
  145.6139  139.5610  153.7846 H   0  0  0  0  0  0  0  0  0  0  0  0
  148.1034  137.8334  153.5989 H   0  0  0  0  0  0  0  0  0  0  0  0
  146.4383  137.3825  153.3558 H   0  0  0  0  0  0  0  0  0  0  0  0
  146.9835  137.8052  154.9620 H   0  0  0  0  0  0  0  0  0  0  0  0
  147.9247  139.8013  151.8340 H   0  0  0  0  0  0  0  0  0  0  0  0
  146.5285  140.8740  151.9121 H   0  0  0  0  0  0  0  0  0  0  0  0
  146.3148  139.1778  151.4982 H   0  0  0  0  0  0  0  0  0  0  0  0
  147.1475  142.8041  153.0654 H   0  0  0  0  0  0  0  0  0  0  0  0
  145.6311  141.9650  152.8266 H   0  0  0  0  0  0  0  0  0  0  0  0
  146.0395  144.5135  154.4635 H   0  0  0  0  0  0  0  0  0  0  0  0
  145.2718  144.4016  152.8952 H   0  0  0  0  0  0  0  0  0  0  0  0
  142.4487  144.6068  155.1938 H   0  0  0  0  0  0  0  0  0  0  0  0
  143.2268  145.3679  153.8095 H   0  0  0  0  0  0  0  0  0  0  0  0
  143.9701  145.4792  155.4081 H   0  0  0  0  0  0  0  0  0  0  0  0
  144.9385  143.4401  156.4143 H   0  0  0  0  0  0  0  0  0  0  0  0
  143.4257  142.5967  156.1694 H   0  0  0  0  0  0  0  0  0  0  0  0
  144.5350  140.8841  154.7864 H   0  0  0  0  0  0  0  0  0  0  0  0
  145.2867  141.0099  156.3578 H   0  0  0  0  0  0  0  0  0  0  0  0
  1  2  1  0  0  0  0
  1 24  1  0  0  0  0
  1 25  1  0  0  0  0
  1 26  1  0  0  0  0
  2 23  1  0  0  0  0
  2  3  2  0  0  0  0
  3  4  1  0  0  0  0
  3 27  1  0  0  0  0
  4  5  2  0  0  0  0
  4 28  1  0  0  0  0
  5  6  1  0  0  0  0
  5 29  1  0  0  0  0
  6  7  1  0  0  0  0
  6 23  2  0  0  0  0
  7  8  1  0  0  0  0
  7 30  1  0  0  0  0
  8  9  2  0  0  0  0
  8 10  1  0  0  0  0
 10 11  1  0  0  0  0
 10 31  1  0  0  0  0
 11 12  1  0  0  0  0
 11 32  1  0  0  0  0
 11 33  1  0  0  0  0
 12 13  1  0  0  0  0
 12 16  1  0  0  0  0
 12 34  1  0  0  0  0
 13 14  1  0  0  0  0
 13 15  1  0  0  0  0
 13 35  1  0  0  0  0
 14 36  1  0  0  0  0
 14 37  1  0  0  0  0
 14 38  1  0  0  0  0
 15 39  1  0  0  0  0
 15 40  1  0  0  0  0
 15 41  1  0  0  0  0
 16 22  1  0  0  0  0
 16 17  1  0  0  0  0
 17 18  1  0  0  0  0
 17 42  1  0  0  0  0
 17 43  1  0  0  0  0
 18 19  1  0  0  0  0
 18 44  1  0  0  0  0
 18 45  1  0  0  0  0
 19 20  1  0  0  0  0
 19 21  1  0  0  0  0
 20 46  1  0  0  0  0
 20 47  1  0  0  0  0
 20 48  1  0  0  0  0
 21 22  1  0  0  0  0
 21 49  1  0  0  0  0
 21 50  1  0  0  0  0
 22 51  1  0  0  0  0
 22 52  1  0  0  0  0
M  END
> <s_m_source_file>
AV-unprocessed.smi

> <i_m_source_file_index>
2270

> <i_lp_mmshare_version>
43012

> <i_f3d_flags>
0

> <s_epik_input>
W0NIM11jMVtjSF1bY0hdW2NIXWMobjEpW05IXUMoPU8pW05IXVtDSDJdW0NASF0oW0NIXShbQ0gzXSlbQ0gzXSlOMltDSDJdW0NIMl1OKFtDSDNdKVtDSDJdW0NIMl0y

> <s_epik_cmdline>
J2VwaWtfcHl0aG9uJywgJy1waCcsICc3LjAnLCAnLXRuJywgJzgnLCAnLW1hJywgJzIwMCcsICctbWV0YWxfYmluZGluZycsICctaW1hZScsICc8aW5maWxlLm1hZT4nLCAnLW9tYWUnLCAnPG91dGZpbGUubWFlPic=

> <r_epik_Ionization_Penalty>
2.57754

> <r_epik_Ionization_Penalty_Charging>
0

> <r_epik_Ionization_Penalty_Neutral>
2.57754

> <r_epik_State_Penalty>
2.00874

> <r_epik_Charging_Adjusted_Penalty>
2.00874

> <i_epik_Tot_Q>
0

> <i_epik_Tot_abs_Q>
0

> <r_epik_Metal_State_Penalty>
2.00874

> <b_epik_Metal_Only>
0

> <s_lp_Force_Field>
OPLS_2005

> <r_lp_Energy>
48.2009

> <b_lp_Chiralities_Consistent>
1

> <s_lp_Variant>
AV-unprocessed.smi:2270-5

> <Gold.Version>
5.8.1

> <Gold.Id.Protein>
6NUR|6NUR_protein|mol2

> <Gold.PLP.Fitness>
49.2461

> <Gold.PLP.PLP>
-44.1435

> <Gold.PLP.part.hbond>
-2.0000

> <Gold.PLP.part.metal>
0.0000

> <Gold.PLP.part.buried>
-5.8394

> <Gold.PLP.part.nonpolar>
-37.8118

> <Gold.PLP.part.repulsive>
0.5476

> <Gold.PLP.ligand.clash>
0.0000

> <Gold.PLP.ligand.torsion>
0.6588

> <Gold.PLP.Chemscore.Hbond>
1.9920

> <Gold.PLP.Chemscore.CHOScore>
0.0000

> <Gold.PLP.Chemscore.Metal>
0.0000

> <Gold.Chemscore.Hbonds>
donor molecule, donor type, donor heavy atom, donor atom, acceptor molecule, acceptor atom, score
      L1  H     7    30       P1  8028  1.00
      L1  H    10    31       P1  8028  0.85

> <Gold.PLP.Chemscore.Internal.Correction>
0.4443

> <Gold.Rescore>
     Score         DG    S(hbond)    S(metal)    S(lipo)     H(rot)  DE(clash)    DE(int)     intcor
     18.44     -20.60       1.90        0.00     109.20       1.56       0.28       1.88       ----

> <Gold.Chemscore.Fitness>
18.4399

> <Gold.Chemscore.DG>
-20.6026

> <Gold.Chemscore.ZeroCoef>
-5.4800

> <Gold.Chemscore.Hbond>
1.8992

> <Gold.Chemscore.Metal>
0.0000

> <Gold.Chemscore.Lipo>
109.1951

> <Gold.Chemscore.Internal_Hbond>
0.0000

> <Gold.Chemscore.DEClash>
0.2788

> <Gold.Chemscore.DEInternal>
1.8839

> <Gold.Chemscore.Rot>
1.5612

> <Gold.Chemscore.Internal.Correction>
   9.000000E+99

> <Gold.Chemscore.Hbonds>
donor molecule, donor type, donor heavy atom, donor atom, acceptor molecule, acceptor atom, score
      L1  H     7    30       P1  8028  0.97
      L1  H    10    31       P1  8028  0.83

> <Gold.Chemscore.Hbond.Weighted>
-6.3434

> <Gold.Chemscore.Metal.Weighted>
-0.0000

> <Gold.Chemscore.Lipo.Weighted>
-12.7758

> <Gold.Chemscore.Internal_Hbond.Weighted>
0.0000

> <Gold.Chemscore.DEClash.Weighted>
0.2788

> <Gold.Chemscore.DEInternal.Weighted>
1.8839

> <Gold.Chemscore.Rot.Weighted>
3.9966

> <Gold.Chemscore.Internal.Correction.Weighted>
   9.000000E+99

> <Gold.Protein.RotatedTorsions>
[ 6907 6896 6895 6894 ] final -174.57 input  -60.11 | X-H torsion
[ 7974 7965 7964 7962 ] final -154.05 input  175.53 | X-H torsion
[ 8008 7997 7996 7995 ] final -115.42 input   59.86 | X-H torsion
[ 10167 10162 10161 10158 ] final   52.00 input  -65.29 | X-H torsion
[ 10718 10713 10712 10709 ] final -101.70 input   66.30 | X-H torsion
[ 10763 10752 10751 10750 ] final  -28.03 input  -60.55 | X-H torsion
[ 11005 11000 10999 10996 ] final -100.86 input  -57.11 | X-H torsion

> <Gold.Protein.ActiveResidues>
 VAL166  LYS551  ARG553  GLY616  TRP617  ASP618  TYR619  PRO620  LYS621  CYS622 
 ASP623  PHE694  ASN695  SER759  ASP760  ASP761  ALA762  ILE779  LEU786  VAL792 
 PHE793  MET794  SER795  GLU796  ALA797  LYS798  CYS799  TRP800  GLU811  SER814 

> <Gold.Protein.RotatedAtoms>
  151.5745  133.3385  159.2995 H   0  0  0  0  0  0  0  0  0  0  0  0  # atno 6907 bound_to 6896
  150.8348  134.7620  159.6895 H   0  0  0  0  0  0  0  0  0  0  0  0  # atno 6908 bound_to 6896
  152.4426  134.5566  159.9933 H   0  0  0  0  0  0  0  0  0  0  0  0  # atno 6909 bound_to 6896
  144.7709  140.4442  143.5908 H   0  0  0  0  0  0  0  0  0  0  0  0  # atno 7974 bound_to 7965
  155.0518  140.0393  157.2546 H   0  0  0  0  0  0  0  0  0  0  0  0  # atno 8008 bound_to 7997
  154.7131  140.2697  155.6586 H   0  0  0  0  0  0  0  0  0  0  0  0  # atno 8009 bound_to 7997
  156.2795  140.2717  156.1779 H   0  0  0  0  0  0  0  0  0  0  0  0  # atno 8010 bound_to 7997
  140.2560  144.3426  150.6333 H   0  0  0  0  0  0  0  0  0  0  0  0  # atno 10167 bound_to 10162
  156.0203  130.5385  150.7001 H   0  0  0  0  0  0  0  0  0  0  0  0  # atno 10718 bound_to 10713
  153.7418  135.6932  153.4965 H   0  0  0  0  0  0  0  0  0  0  0  0  # atno 10763 bound_to 10752
  153.2064  135.4418  155.0327 H   0  0  0  0  0  0  0  0  0  0  0  0  # atno 10764 bound_to 10752
  154.8218  135.3426  154.6943 H   0  0  0  0  0  0  0  0  0  0  0  0  # atno 10765 bound_to 10752
  141.1254  133.8432  157.1157 H   0  0  0  0  0  0  0  0  0  0  0  0  # atno 11005 bound_to 11000
  145.6327  139.1538  143.2960 LP  0  0  0  0  0  0  0  0  0  0  0  0  # atno 17320 bound_to 7965
  146.1855  140.6429  142.9170 LP  0  0  0  0  0  0  0  0  0  0  0  0  # atno 17321 bound_to 7965
  140.6003  143.2167  151.7084 LP  0  0  0  0  0  0  0  0  0  0  0  0  # atno 17342 bound_to 10162
  139.5031  144.3803  152.0383 LP  0  0  0  0  0  0  0  0  0  0  0  0  # atno 17343 bound_to 10162
  157.4663  131.0888  151.0691 LP  0  0  0  0  0  0  0  0  0  0  0  0  # atno 17370 bound_to 10713
  157.1165  130.6043  149.5494 LP  0  0  0  0  0  0  0  0  0  0  0  0  # atno 17371 bound_to 10713
  140.0248  134.9929  157.0663 LP  0  0  0  0  0  0  0  0  0  0  0  0  # atno 17394 bound_to 11000
  140.4381  134.1710  155.7172 LP  0  0  0  0  0  0  0  0  0  0  0  0  # atno 17395 bound_to 11000

$$$$
