AV-unprocessed.smi:269|AV-procd|sdf|2043|dock4
  -GOLD-   2262021263D 1   1.00000     0.00000
 Structure written by MMmdl.
 61 64  0  0  0  0  0  0  0  0  1 V2000
  151.9513  145.1879  159.0530 C   0  0  0  0  0  0  0  0  0  0  0  0
  150.7636  144.2163  159.0452 C   0  0  0  0  0  0  0  0  0  0  0  0
  150.5379  143.6626  157.7158 N   0  0  0  0  0  0  0  0  0  0  0  0
  150.8287  142.4063  157.3439 C   0  0  0  0  0  0  0  0  0  0  0  0
  151.3471  141.5793  158.0938 O   0  0  0  0  0  0  0  0  0  0  0  0
  150.4628  142.0132  155.9082 C   0  0  0  0  0  0  0  0  0  0  0  0
  149.9188  140.6431  155.7728 N   0  0  0  0  0  0  0  0  0  0  0  0
  149.0866  140.5661  154.5665 C   0  0  0  0  0  0  0  0  0  0  0  0
  148.5912  139.1238  154.3554 C   0  0  0  0  0  0  0  0  0  0  0  0
  147.8397  138.6763  155.5205 N   0  0  0  0  0  0  0  0  0  0  0  0
  147.2343  137.4821  155.3537 C   0  0  0  0  0  0  0  0  0  0  0  0
  147.6255  136.4749  156.1718 N   0  0  0  0  0  0  0  0  0  0  0  0
  147.0639  135.2674  156.0588 C   0  0  0  0  0  0  0  0  0  0  0  0
  146.1155  134.8632  155.2106 N   0  0  0  0  0  0  0  0  0  0  0  0
  145.7222  135.8755  154.3848 C   0  0  0  0  0  0  0  0  0  0  0  0
  146.2215  137.2082  154.3914 C   0  0  0  0  0  0  0  0  0  0  0  0
  145.5749  137.9611  153.4192 N   0  0  0  0  0  0  0  0  0  0  0  0
  144.7419  137.1211  152.8684 C   0  0  0  0  0  0  0  0  0  0  0  0
  144.7753  135.8406  153.3751 N   0  0  0  0  0  0  0  0  0  0  0  0
  143.9605  134.7111  152.9492 C   0  0  0  0  0  0  0  0  0  0  0  0
  144.6731  133.7163  151.9849 C   0  0  0  0  0  0  0  0  0  0  0  0
  145.4654  134.4816  150.8860 C   0  0  0  0  0  0  0  0  0  0  0  0
  144.6757  135.4603  150.2402 O   0  0  0  0  0  0  0  0  0  0  0  0
  145.6438  132.8124  152.7864 C   0  0  0  0  0  0  0  0  0  0  0  0
  146.1464  131.6016  151.9786 C   0  0  0  0  0  0  0  0  0  0  0  0
  145.0441  130.8434  151.4986 O   0  0  0  0  0  0  0  0  0  0  0  0
  144.2063  131.5826  150.6196 C   0  0  0  0  0  0  0  0  0  0  0  0
  143.6006  132.7869  151.3625 C   0  0  0  0  0  0  0  0  0  0  0  0
  148.6198  138.7840  156.7469 C   0  0  0  0  0  0  0  0  0  0  0  0
  149.1205  140.2278  156.9371 C   0  0  0  0  0  0  0  0  0  0  0  0
  152.1344  145.5681  160.0582 H   0  0  0  0  0  0  0  0  0  0  0  0
  151.7676  146.0449  158.4043 H   0  0  0  0  0  0  0  0  0  0  0  0
  152.8637  144.6983  158.7107 H   0  0  0  0  0  0  0  0  0  0  0  0
  150.9595  143.3904  159.7296 H   0  0  0  0  0  0  0  0  0  0  0  0
  149.8626  144.7135  159.4081 H   0  0  0  0  0  0  0  0  0  0  0  0
  150.1107  144.2720  157.0331 H   0  0  0  0  0  0  0  0  0  0  0  0
  149.7525  142.7348  155.4995 H   0  0  0  0  0  0  0  0  0  0  0  0
  151.3702  142.1015  155.3088 H   0  0  0  0  0  0  0  0  0  0  0  0
  148.2384  141.2494  154.6417 H   0  0  0  0  0  0  0  0  0  0  0  0
  149.6670  140.8736  153.6955 H   0  0  0  0  0  0  0  0  0  0  0  0
  147.9570  139.0761  153.4692 H   0  0  0  0  0  0  0  0  0  0  0  0
  149.4392  138.4605  154.1790 H   0  0  0  0  0  0  0  0  0  0  0  0
  147.4273  134.5169  156.7455 H   0  0  0  0  0  0  0  0  0  0  0  0
  144.0804  137.4134  152.0658 H   0  0  0  0  0  0  0  0  0  0  0  0
  143.6232  134.1883  153.8452 H   0  0  0  0  0  0  0  0  0  0  0  0
  143.0553  135.1065  152.4867 H   0  0  0  0  0  0  0  0  0  0  0  0
  146.3425  134.9713  151.3087 H   0  0  0  0  0  0  0  0  0  0  0  0
  145.8448  133.8091  150.1186 H   0  0  0  0  0  0  0  0  0  0  0  0
  144.7468  135.3353  149.3062 H   0  0  0  0  0  0  0  0  0  0  0  0
  146.4975  133.3875  153.1467 H   0  0  0  0  0  0  0  0  0  0  0  0
  145.1361  132.4344  153.6747 H   0  0  0  0  0  0  0  0  0  0  0  0
  146.7844  131.9073  151.1489 H   0  0  0  0  0  0  0  0  0  0  0  0
  146.7562  130.9606  152.6157 H   0  0  0  0  0  0  0  0  0  0  0  0
  144.7639  131.8933  149.7358 H   0  0  0  0  0  0  0  0  0  0  0  0
  143.4097  130.9264  150.2686 H   0  0  0  0  0  0  0  0  0  0  0  0
  142.9552  132.4011  152.1531 H   0  0  0  0  0  0  0  0  0  0  0  0
  142.9453  133.3444  150.6930 H   0  0  0  0  0  0  0  0  0  0  0  0
  148.0053  138.4900  157.5988 H   0  0  0  0  0  0  0  0  0  0  0  0
  149.4695  138.1010  156.7140 H   0  0  0  0  0  0  0  0  0  0  0  0
  149.7142  140.2618  157.8505 H   0  0  0  0  0  0  0  0  0  0  0  0
  148.2778  140.9067  157.0802 H   0  0  0  0  0  0  0  0  0  0  0  0
  1  2  1  0  0  0  0
  1 31  1  0  0  0  0
  1 32  1  0  0  0  0
  1 33  1  0  0  0  0
  2  3  1  0  0  0  0
  2 34  1  0  0  0  0
  2 35  1  0  0  0  0
  3  4  1  0  0  0  0
  3 36  1  0  0  0  0
  4  5  2  0  0  0  0
  4  6  1  0  0  0  0
  6  7  1  0  0  0  0
  6 37  1  0  0  0  0
  6 38  1  0  0  0  0
  7 30  1  0  0  0  0
  7  8  1  0  0  0  0
  8  9  1  0  0  0  0
  8 39  1  0  0  0  0
  8 40  1  0  0  0  0
  9 10  1  0  0  0  0
  9 41  1  0  0  0  0
  9 42  1  0  0  0  0
 10 11  1  0  0  0  0
 10 29  1  0  0  0  0
 11 16  1  0  0  0  0
 11 12  2  0  0  0  0
 12 13  1  0  0  0  0
 13 14  2  0  0  0  0
 13 43  1  0  0  0  0
 14 15  1  0  0  0  0
 15 19  1  0  0  0  0
 15 16  2  0  0  0  0
 16 17  1  0  0  0  0
 17 18  2  0  0  0  0
 18 19  1  0  0  0  0
 18 44  1  0  0  0  0
 19 20  1  0  0  0  0
 20 21  1  0  0  0  0
 20 45  1  0  0  0  0
 20 46  1  0  0  0  0
 21 28  1  0  0  0  0
 21 22  1  0  0  0  0
 21 24  1  0  0  0  0
 22 23  1  0  0  0  0
 22 47  1  0  0  0  0
 22 48  1  0  0  0  0
 23 49  1  0  0  0  0
 24 25  1  0  0  0  0
 24 50  1  0  0  0  0
 24 51  1  0  0  0  0
 25 26  1  0  0  0  0
 25 52  1  0  0  0  0
 25 53  1  0  0  0  0
 26 27  1  0  0  0  0
 27 28  1  0  0  0  0
 27 54  1  0  0  0  0
 27 55  1  0  0  0  0
 28 56  1  0  0  0  0
 28 57  1  0  0  0  0
 29 30  1  0  0  0  0
 29 58  1  0  0  0  0
 29 59  1  0  0  0  0
 30 60  1  0  0  0  0
 30 61  1  0  0  0  0
M  END
> <s_m_source_file>
AV-unprocessed.smi

> <i_m_source_file_index>
269

> <i_lp_mmshare_version>
43012

> <i_f3d_flags>
0

> <s_epik_input>
W0NIM11bQ0gyXVtOSF1DKD1PKVtDSDJdTjFbQ0gyXVtDSDJdTihbQ0gyXVtDSDJdMSljKG5bY0hdbjIpYyhjMjMpbltjSF1uM1tDSDJdQzQoW0NIMl1bT0hdKVtDSDJdW0NIMl1PW0NIMl1bQ0gyXTQ=

> <s_epik_cmdline>
J2VwaWtfcHl0aG9uJywgJy1waCcsICc3LjAnLCAnLXRuJywgJzgnLCAnLW1hJywgJzIwMCcsICctbWV0YWxfYmluZGluZycsICctaW1hZScsICc8aW5maWxlLm1hZT4nLCAnLW9tYWUnLCAnPG91dGZpbGUubWFlPic=

> <r_lp_tautomer_probability>
1

> <r_epik_Ionization_Penalty>
0.90547

> <r_epik_Ionization_Penalty_Charging>
0

> <r_epik_Ionization_Penalty_Neutral>
0.90547

> <r_epik_State_Penalty>
0.940417

> <r_epik_Charging_Adjusted_Penalty>
0.940417

> <i_epik_Tot_Q>
0

> <i_epik_Tot_abs_Q>
0

> <r_epik_Metal_State_Penalty>
0.947257

> <b_epik_Metal_Only>
0

> <s_lp_Force_Field>
OPLS_2005

> <r_lp_Energy>
47.1209

> <b_lp_Chiralities_Consistent>
1

> <s_lp_Variant>
AV-unprocessed.smi:269-2

> <Gold.Version>
5.8.1

> <Gold.Id.Protein>
6NUR|6NUR_protein|mol2

> <Gold.PLP.Fitness>
46.8450

> <Gold.PLP.PLP>
-40.1585

> <Gold.PLP.part.hbond>
-2.3987

> <Gold.PLP.part.metal>
0.0000

> <Gold.PLP.part.buried>
-9.0970

> <Gold.PLP.part.nonpolar>
-30.1366

> <Gold.PLP.part.repulsive>
0.5292

> <Gold.PLP.ligand.clash>
0.0000

> <Gold.PLP.ligand.torsion>
1.3394

> <Gold.PLP.Chemscore.Hbond>
2.0000

> <Gold.PLP.Chemscore.CHOScore>
1.0000

> <Gold.PLP.Chemscore.Metal>
0.0000

> <Gold.Chemscore.Hbonds>
donor molecule, donor type, donor heavy atom, donor atom, acceptor molecule, acceptor atom, score
      L1  H     3    36       P1  8028  1.00
      L1  H    23    49       P1  7921  0.45
      L1  C    18    44       P1 10171  0.96

> <Gold.PLP.Chemscore.Internal.Correction>
0.3652

> <Gold.Rescore>
     Score         DG    S(hbond)    S(metal)    S(lipo)     H(rot)  DE(clash)    DE(int)     intcor
     11.87     -14.41       1.95        0.00      93.19       3.32       0.15       2.39       ----

> <Gold.Chemscore.Fitness>
11.8715

> <Gold.Chemscore.DG>
-14.4100

> <Gold.Chemscore.ZeroCoef>
-5.4800

> <Gold.Chemscore.Hbond>
1.9547

> <Gold.Chemscore.Metal>
0.0000

> <Gold.Chemscore.Lipo>
93.1938

> <Gold.Chemscore.Internal_Hbond>
0.0000

> <Gold.Chemscore.DEClash>
0.1508

> <Gold.Chemscore.DEInternal>
2.3878

> <Gold.Chemscore.Rot>
3.3213

> <Gold.Chemscore.Internal.Correction>
   9.000000E+99

> <Gold.Chemscore.Hbonds>
donor molecule, donor type, donor heavy atom, donor atom, acceptor molecule, acceptor atom, score
      L1  H     3    36       P1  8028  0.81
      L1  H    23    49       P1  7921  0.44

> <Gold.Chemscore.Hbond.Weighted>
-6.5288

> <Gold.Chemscore.Metal.Weighted>
-0.0000

> <Gold.Chemscore.Lipo.Weighted>
-10.9037

> <Gold.Chemscore.Internal_Hbond.Weighted>
0.0000

> <Gold.Chemscore.DEClash.Weighted>
0.1508

> <Gold.Chemscore.DEInternal.Weighted>
2.3878

> <Gold.Chemscore.Rot.Weighted>
8.5024

> <Gold.Chemscore.Internal.Correction.Weighted>
   9.000000E+99

> <Gold.Protein.RotatedTorsions>
[ 6907 6896 6895 6894 ] final -122.18 input  -60.11 | X-H torsion
[ 7974 7965 7964 7962 ] final   21.83 input  175.53 | X-H torsion
[ 8008 7997 7996 7995 ] final  -57.38 input   59.86 | X-H torsion
[ 10167 10162 10161 10158 ] final   -5.66 input  -65.29 | X-H torsion
[ 10718 10713 10712 10709 ] final -100.15 input   66.30 | X-H torsion
[ 10763 10752 10751 10750 ] final  -96.37 input  -60.55 | X-H torsion
[ 11005 11000 10999 10996 ] final   94.25 input  -57.11 | X-H torsion

> <Gold.Protein.ActiveResidues>
 VAL166  LYS551  ARG553  GLY616  TRP617  ASP618  TYR619  PRO620  LYS621  CYS622 
 ASP623  PHE694  ASN695  SER759  ASP760  ASP761  ALA762  ILE779  LEU786  VAL792 
 PHE793  MET794  SER795  GLU796  ALA797  LYS798  CYS799  TRP800  GLU811  SER814 

> <Gold.Protein.RotatedAtoms>
  150.8552  133.7726  159.3011 H   0  0  0  0  0  0  0  0  0  0  0  0  # atno 6907 bound_to 6896
  151.5385  135.1067  159.9930 H   0  0  0  0  0  0  0  0  0  0  0  0  # atno 6908 bound_to 6896
  152.4584  133.7728  159.6864 H   0  0  0  0  0  0  0  0  0  0  0  0  # atno 6909 bound_to 6896
  146.2055  139.7971  142.8729 H   0  0  0  0  0  0  0  0  0  0  0  0  # atno 7974 bound_to 7965
  154.4266  140.1108  156.5788 H   0  0  0  0  0  0  0  0  0  0  0  0  # atno 8008 bound_to 7997
  155.6134  140.3494  155.4610 H   0  0  0  0  0  0  0  0  0  0  0  0  # atno 8009 bound_to 7997
  156.0081  140.1213  157.0471 H   0  0  0  0  0  0  0  0  0  0  0  0  # atno 8010 bound_to 7997
  140.6971  143.6282  150.8547 H   0  0  0  0  0  0  0  0  0  0  0  0  # atno 10167 bound_to 10162
  156.0154  130.5315  150.6775 H   0  0  0  0  0  0  0  0  0  0  0  0  # atno 10718 bound_to 10713
  154.7233  135.5086  153.8847 H   0  0  0  0  0  0  0  0  0  0  0  0  # atno 10763 bound_to 10752
  153.0882  135.6651  153.9915 H   0  0  0  0  0  0  0  0  0  0  0  0  # atno 10764 bound_to 10752
  153.9733  135.3036  155.3405 H   0  0  0  0  0  0  0  0  0  0  0  0  # atno 10765 bound_to 10752
  139.8800  134.8835  156.3837 H   0  0  0  0  0  0  0  0  0  0  0  0  # atno 11005 bound_to 11000
  145.3335  141.0272  143.3433 LP  0  0  0  0  0  0  0  0  0  0  0  0  # atno 17320 bound_to 7965
  144.8782  139.4941  143.6735 LP  0  0  0  0  0  0  0  0  0  0  0  0  # atno 17321 bound_to 7965
  140.0001  143.5753  152.2878 LP  0  0  0  0  0  0  0  0  0  0  0  0  # atno 17342 bound_to 10162
  139.6439  144.7657  151.2282 LP  0  0  0  0  0  0  0  0  0  0  0  0  # atno 17343 bound_to 10162
  157.4484  131.0869  151.0871 LP  0  0  0  0  0  0  0  0  0  0  0  0  # atno 17370 bound_to 10713
  157.1394  130.6136  149.5551 LP  0  0  0  0  0  0  0  0  0  0  0  0  # atno 17371 bound_to 10713
  140.9381  133.7533  156.0111 LP  0  0  0  0  0  0  0  0  0  0  0  0  # atno 17394 bound_to 11000
  140.8251  134.3243  157.5368 LP  0  0  0  0  0  0  0  0  0  0  0  0  # atno 17395 bound_to 11000

$$$$
