AV-unprocessed.smi:1433|AV-procd|sdf|5837|dock4
  -GOLD-   22720 5503D 1   1.00000     0.00000
 Structure written by MMmdl.
 44 45  0  0  0  0  0  0  0  0  1 V2000
  151.3857  144.9939  159.4953 C   0  0  0  0  0  0  0  0  0  0  0  0
  152.3964  144.1901  158.6590 C   0  0  2  0  0  0  0  0  0  0  0  0
  151.7308  143.2200  157.6626 C   0  0  0  0  0  0  0  0  0  0  0  0
  151.1473  142.0314  158.2955 N   0  0  0  0  0  0  0  0  0  0  0  0
  150.5427  141.0991  157.3145 C   0  0  1  0  0  0  0  0  0  0  0  0
  149.6825  141.8260  156.2477 C   0  0  0  0  0  0  0  0  0  0  0  0
  151.5872  140.2059  156.5895 C   0  0  0  0  0  0  0  0  0  0  0  0
  150.9577  139.1628  155.7893 N   0  0  0  0  0  0  0  0  0  0  0  0
  151.5775  138.0680  155.3257 C   0  0  0  0  0  0  0  0  0  0  0  0
  152.7547  137.8005  155.5655 O   0  0  0  0  0  0  0  0  0  0  0  0
  150.7393  137.1303  154.4551 C   0  0  0  0  0  0  0  0  0  0  0  0
  150.6887  135.7935  155.0215 N   0  0  0  0  0  0  0  0  0  0  0  0
  149.8278  134.7629  154.7063 C   0  0  0  0  0  0  0  0  0  0  0  0
  150.1498  133.7051  155.5072 C   0  0  0  0  0  0  0  0  0  0  0  0
  151.2341  134.1910  156.2904 C   0  0  0  0  0  0  0  0  0  0  0  0
  151.5553  135.4408  155.9972 N   0  0  0  0  0  0  0  0  0  0  0  0
  152.1894  141.3955  159.1071 C   0  0  0  0  0  0  0  0  0  0  0  0
  152.8103  142.3508  160.1420 C   0  0  1  0  0  0  0  0  0  0  0  0
  153.9543  141.6916  160.9200 C   0  0  0  0  0  0  0  0  0  0  0  0
  153.3337  143.4962  159.4787 O   0  0  0  0  0  0  0  0  0  0  0  0
  150.7589  145.6136  158.8536 H   0  0  0  0  0  0  0  0  0  0  0  0
  151.8982  145.6557  160.1937 H   0  0  0  0  0  0  0  0  0  0  0  0
  150.7223  144.3485  160.0704 H   0  0  0  0  0  0  0  0  0  0  0  0
  152.9743  144.9134  158.0831 H   0  0  0  0  0  0  0  0  0  0  0  0
  150.9742  143.7871  157.1246 H   0  0  0  0  0  0  0  0  0  0  0  0
  152.4715  142.9083  156.9245 H   0  0  0  0  0  0  0  0  0  0  0  0
  149.8749  140.4284  157.8576 H   0  0  0  0  0  0  0  0  0  0  0  0
  149.2872  141.1475  155.4923 H   0  0  0  0  0  0  0  0  0  0  0  0
  150.2626  142.5891  155.7278 H   0  0  0  0  0  0  0  0  0  0  0  0
  148.8052  142.3050  156.6800 H   0  0  0  0  0  0  0  0  0  0  0  0
  152.2305  140.8251  155.9613 H   0  0  0  0  0  0  0  0  0  0  0  0
  152.2322  139.6829  157.2935 H   0  0  0  0  0  0  0  0  0  0  0  0
  149.9883  139.2998  155.5403 H   0  0  0  0  0  0  0  0  0  0  0  0
  149.7211  137.5118  154.3670 H   0  0  0  0  0  0  0  0  0  0  0  0
  151.1553  137.0856  153.4472 H   0  0  0  0  0  0  0  0  0  0  0  0
  149.0653  134.8697  153.9486 H   0  0  0  0  0  0  0  0  0  0  0  0
  149.6810  132.7326  155.5319 H   0  0  0  0  0  0  0  0  0  0  0  0
  151.7932  133.6763  157.0577 H   0  0  0  0  0  0  0  0  0  0  0  0
  151.7818  140.5530  159.6624 H   0  0  0  0  0  0  0  0  0  0  0  0
  152.9713  140.9983  158.4579 H   0  0  0  0  0  0  0  0  0  0  0  0
  152.0464  142.6601  160.8560 H   0  0  0  0  0  0  0  0  0  0  0  0
  153.6061  140.8106  161.4600 H   0  0  0  0  0  0  0  0  0  0  0  0
  154.3779  142.3822  161.6494 H   0  0  0  0  0  0  0  0  0  0  0  0
  154.7575  141.3794  160.2518 H   0  0  0  0  0  0  0  0  0  0  0  0
  1  2  1  0  0  0  0
  1 21  1  0  0  0  0
  1 22  1  0  0  0  0
  1 23  1  0  0  0  0
  2 20  1  0  0  0  0
  2  3  1  0  0  0  0
  2 24  1  0  0  0  0
  3  4  1  0  0  0  0
  3 25  1  0  0  0  0
  3 26  1  0  0  0  0
  4  5  1  0  0  0  0
  4 17  1  0  0  0  0
  5  6  1  0  0  0  0
  5  7  1  0  0  0  0
  5 27  1  0  0  0  0
  6 28  1  0  0  0  0
  6 29  1  0  0  0  0
  6 30  1  0  0  0  0
  7  8  1  0  0  0  0
  7 31  1  0  0  0  0
  7 32  1  0  0  0  0
  8  9  1  0  0  0  0
  8 33  1  0  0  0  0
  9 10  2  0  0  0  0
  9 11  1  0  0  0  0
 11 12  1  0  0  0  0
 11 34  1  0  0  0  0
 11 35  1  0  0  0  0
 12 16  1  0  0  0  0
 12 13  1  0  0  0  0
 13 14  2  0  0  0  0
 13 36  1  0  0  0  0
 14 15  1  0  0  0  0
 14 37  1  0  0  0  0
 15 16  2  0  0  0  0
 15 38  1  0  0  0  0
 17 18  1  0  0  0  0
 17 39  1  0  0  0  0
 17 40  1  0  0  0  0
 18 19  1  0  0  0  0
 18 20  1  0  0  0  0
 18 41  1  0  0  0  0
 19 42  1  0  0  0  0
 19 43  1  0  0  0  0
 19 44  1  0  0  0  0
M  END
> <s_m_source_file>
AV-unprocessed.smi

> <i_m_source_file_index>
1433

> <i_lp_mmshare_version>
43012

> <i_f3d_flags>
0

> <s_epik_input>
W0NIM11bQ0BASF0xW0NIMl1OKFtDSDJdW0NASF0oTzEpW0NIM10pW0NASF0oW0NIM10pW0NIMl1bTkhdQyg9TylbQ0gyXW4yW2NIXVtjSF1bY0hdbjI=

> <s_epik_cmdline>
J2VwaWtfcHl0aG9uJywgJy1waCcsICc3LjAnLCAnLXRuJywgJzgnLCAnLW1hJywgJzIwMCcsICctbWV0YWxfYmluZGluZycsICctaW1hZScsICc8aW5maWxlLm1hZT4nLCAnLW9tYWUnLCAnPG91dGZpbGUubWFlPic=

> <r_lp_tautomer_probability>
1

> <r_epik_Ionization_Penalty>
0.196927

> <r_epik_Ionization_Penalty_Charging>
0

> <r_epik_Ionization_Penalty_Neutral>
0.196927

> <r_epik_State_Penalty>
0.186684

> <r_epik_Charging_Adjusted_Penalty>
0.186684

> <i_epik_Tot_Q>
0

> <i_epik_Tot_abs_Q>
0

> <r_epik_Metal_State_Penalty>
0.186682

> <b_epik_Metal_Only>
0

> <s_lp_Force_Field>
OPLS_2005

> <r_lp_Energy>
30.021

> <b_lp_Chiralities_Consistent>
1

> <s_lp_Variant>
AV-unprocessed.smi:1433-3

> <Gold.Version>
5.8.1

> <Gold.Id.Protein>
6NUR|6NUR_protein|mol2

> <Gold.PLP.Fitness>
44.5832

> <Gold.PLP.PLP>
-39.6900

> <Gold.PLP.part.hbond>
-1.9285

> <Gold.PLP.part.metal>
0.0000

> <Gold.PLP.part.buried>
-3.0298

> <Gold.PLP.part.nonpolar>
-34.4132

> <Gold.PLP.part.repulsive>
0.1430

> <Gold.PLP.ligand.clash>
0.0000

> <Gold.PLP.ligand.torsion>
0.5807

> <Gold.PLP.Chemscore.Hbond>
1.0000

> <Gold.PLP.Chemscore.CHOScore>
1.0000

> <Gold.PLP.Chemscore.Metal>
0.0000

> <Gold.Chemscore.Hbonds>
donor molecule, donor type, donor heavy atom, donor atom, acceptor molecule, acceptor atom, score
      P1  H 10752 10765       L1    16  0.95
      L1  C    13    36       P1  7948  1.00

> <Gold.PLP.Chemscore.Internal.Correction>
0.0545

> <Gold.Rescore>
     Score         DG    S(hbond)    S(metal)    S(lipo)     H(rot)  DE(clash)    DE(int)     intcor
     12.67     -14.83       0.62        0.00     101.61       1.80       0.19       1.98       ----

> <Gold.Chemscore.Fitness>
12.6658

> <Gold.Chemscore.DG>
-14.8278

> <Gold.Chemscore.ZeroCoef>
-5.4800

> <Gold.Chemscore.Hbond>
0.6218

> <Gold.Chemscore.Metal>
0.0000

> <Gold.Chemscore.Lipo>
101.6138

> <Gold.Chemscore.Internal_Hbond>
0.0000

> <Gold.Chemscore.DEClash>
0.1865

> <Gold.Chemscore.DEInternal>
1.9755

> <Gold.Chemscore.Rot>
1.8038

> <Gold.Chemscore.Internal.Correction>
   9.000000E+99

> <Gold.Chemscore.Hbonds>
donor molecule, donor type, donor heavy atom, donor atom, acceptor molecule, acceptor atom, score
      P1  H 10752 10765       L1    16  0.15

> <Gold.Chemscore.Hbond.Weighted>
-2.0767

> <Gold.Chemscore.Metal.Weighted>
-0.0000

> <Gold.Chemscore.Lipo.Weighted>
-11.8888

> <Gold.Chemscore.Internal_Hbond.Weighted>
0.0000

> <Gold.Chemscore.DEClash.Weighted>
0.1865

> <Gold.Chemscore.DEInternal.Weighted>
1.9755

> <Gold.Chemscore.Rot.Weighted>
4.6178

> <Gold.Chemscore.Internal.Correction.Weighted>
   9.000000E+99

> <Gold.Protein.RotatedTorsions>
[ 6907 6896 6895 6894 ] final  -40.06 input  -60.11 | X-H torsion
[ 7974 7965 7964 7962 ] final  179.58 input  175.53 | X-H torsion
[ 8008 7997 7996 7995 ] final   90.20 input   59.86 | X-H torsion
[ 10167 10162 10161 10158 ] final   96.71 input  -65.29 | X-H torsion
[ 10718 10713 10712 10709 ] final -163.89 input   66.30 | X-H torsion
[ 10763 10752 10751 10750 ] final -151.79 input  -60.55 | X-H torsion
[ 11005 11000 10999 10996 ] final   83.89 input  -57.11 | X-H torsion

> <Gold.Protein.ActiveResidues>
 VAL166  LYS551  ARG553  GLY616  TRP617  ASP618  TYR619  PRO620  LYS621  CYS622 
 ASP623  PHE694  ASN695  SER759  ASP760  ASP761  ALA762  ILE779  LEU786  VAL792 
 PHE793  MET794  SER795  GLU796  ALA797  LYS798  CYS799  TRP800  GLU811  SER814 

> <Gold.Protein.RotatedAtoms>
  150.9829  134.9180  159.7854 H   0  0  0  0  0  0  0  0  0  0  0  0  # atno 6907 bound_to 6896
  152.5227  134.3386  159.9219 H   0  0  0  0  0  0  0  0  0  0  0  0  # atno 6908 bound_to 6896
  151.3393  133.3928  159.2704 H   0  0  0  0  0  0  0  0  0  0  0  0  # atno 6909 bound_to 6896
  144.7144  140.0569  143.6433 H   0  0  0  0  0  0  0  0  0  0  0  0  # atno 7974 bound_to 7965
  156.0091  140.3352  155.6922 H   0  0  0  0  0  0  0  0  0  0  0  0  # atno 8008 bound_to 7997
  155.6183  140.0672  157.2703 H   0  0  0  0  0  0  0  0  0  0  0  0  # atno 8009 bound_to 7997
  154.4275  140.1781  156.1332 H   0  0  0  0  0  0  0  0  0  0  0  0  # atno 8010 bound_to 7997
  139.7868  144.6867  150.9946 H   0  0  0  0  0  0  0  0  0  0  0  0  # atno 10167 bound_to 10162
  156.6311  130.8930  151.2977 H   0  0  0  0  0  0  0  0  0  0  0  0  # atno 10718 bound_to 10713
  154.8035  135.3251  154.7490 H   0  0  0  0  0  0  0  0  0  0  0  0  # atno 10763 bound_to 10752
  153.8153  135.6892  153.4839 H   0  0  0  0  0  0  0  0  0  0  0  0  # atno 10764 bound_to 10752
  153.1766  135.4602  154.9917 H   0  0  0  0  0  0  0  0  0  0  0  0  # atno 10765 bound_to 10752
  139.9017  134.8177  156.2371 H   0  0  0  0  0  0  0  0  0  0  0  0  # atno 11005 bound_to 11000
  145.9897  139.3005  143.0992 LP  0  0  0  0  0  0  0  0  0  0  0  0  # atno 17320 bound_to 7965
  145.8917  140.9299  143.0548 LP  0  0  0  0  0  0  0  0  0  0  0  0  # atno 17321 bound_to 7965
  140.7820  143.4423  151.0533 LP  0  0  0  0  0  0  0  0  0  0  0  0  # atno 17342 bound_to 10162
  139.8101  143.7962  152.3170 LP  0  0  0  0  0  0  0  0  0  0  0  0  # atno 17343 bound_to 10162
  157.7199  130.9545  150.1399 LP  0  0  0  0  0  0  0  0  0  0  0  0  # atno 17370 bound_to 10713
  156.2234  130.3676  149.8529 LP  0  0  0  0  0  0  0  0  0  0  0  0  # atno 17371 bound_to 10713
  141.0308  133.6989  156.1427 LP  0  0  0  0  0  0  0  0  0  0  0  0  # atno 17394 bound_to 11000
  140.7099  134.4473  157.5582 LP  0  0  0  0  0  0  0  0  0  0  0  0  # atno 17395 bound_to 11000

$$$$
