AV-unprocessed.smi:252|AV-procd|sdf|1943|dock10
  -GOLD-   2262021 73D 1   1.00000     0.00000
 Structure written by MMmdl.
 56 59  0  0  0  0  0  0  0  0  1 V2000
  153.3563  142.2418  160.2794 C   0  0  0  0  0  0  0  0  0  0  0  0
  152.3707  143.2845  159.7283 C   0  0  0  0  0  0  0  0  0  0  0  0
  151.2075  142.6742  158.9398 C   0  0  0  0  0  0  0  0  0  0  0  0
  150.0419  142.8322  159.3048 O   0  0  0  0  0  0  0  0  0  0  0  0
  151.5467  141.9700  157.8489 N   0  0  0  0  0  0  0  0  0  0  0  0
  150.6100  141.2924  156.9585 C   0  0  1  0  0  0  0  0  0  0  0  0
  151.3766  140.6458  155.7909 C   0  0  0  0  0  0  0  0  0  0  0  0
  150.4157  139.8529  154.8920 C   0  0  0  0  0  0  0  0  0  0  0  0
  149.6209  138.8224  155.7093 C   0  0  0  0  0  0  0  0  0  0  0  0
  148.9380  139.4640  156.8322 N   0  0  0  0  0  0  0  0  0  0  0  0
  147.9497  138.7215  157.3928 C   0  0  0  0  0  0  0  0  0  0  0  0
  146.6482  139.0672  157.2003 N   0  0  0  0  0  0  0  0  0  0  0  0
  145.6689  138.3480  157.7559 C   0  0  0  0  0  0  0  0  0  0  0  0
  145.7647  137.2643  158.5280 N   0  0  0  0  0  0  0  0  0  0  0  0
  147.0668  136.9087  158.7221 C   0  0  0  0  0  0  0  0  0  0  0  0
  148.2096  137.5724  158.1921 C   0  0  0  0  0  0  0  0  0  0  0  0
  149.3656  136.9074  158.5840 N   0  0  0  0  0  0  0  0  0  0  0  0
  148.9318  135.9137  159.3097 C   0  0  0  0  0  0  0  0  0  0  0  0
  147.5647  135.8473  159.4578 N   0  0  0  0  0  0  0  0  0  0  0  0
  146.8176  134.8513  160.2101 C   0  0  0  0  0  0  0  0  0  0  0  0
  146.1777  135.3942  161.5183 C   0  0  2  0  0  0  0  0  0  0  0  0
  144.9297  135.9932  161.2249 O   0  0  0  0  0  0  0  0  0  0  0  0
  147.0464  136.4028  162.2608 C   0  0  0  0  0  0  0  0  0  0  0  0
  147.9919  135.5048  163.0527 C   0  0  0  0  0  0  0  0  0  0  0  0
  147.2529  134.3185  163.3294 O   0  0  0  0  0  0  0  0  0  0  0  0
  146.0140  134.3331  162.6241 C   0  0  2  0  0  0  0  0  0  0  0  0
  145.6281  132.9167  162.1726 C   0  0  0  0  0  0  0  0  0  0  0  0
  149.8040  140.2285  157.7317 C   0  0  0  0  0  0  0  0  0  0  0  0
  154.1751  142.7284  160.8097 H   0  0  0  0  0  0  0  0  0  0  0  0
  153.7920  141.6436  159.4782 H   0  0  0  0  0  0  0  0  0  0  0  0
  152.8683  141.5639  160.9806 H   0  0  0  0  0  0  0  0  0  0  0  0
  151.9624  143.8733  160.5502 H   0  0  0  0  0  0  0  0  0  0  0  0
  152.9064  143.9787  159.0795 H   0  0  0  0  0  0  0  0  0  0  0  0
  152.5273  141.8919  157.6219 H   0  0  0  0  0  0  0  0  0  0  0  0
  149.9177  142.0276  156.5434 H   0  0  0  0  0  0  0  0  0  0  0  0
  151.8892  141.4097  155.2049 H   0  0  0  0  0  0  0  0  0  0  0  0
  152.1477  139.9770  156.1764 H   0  0  0  0  0  0  0  0  0  0  0  0
  149.7244  140.5391  154.4010 H   0  0  0  0  0  0  0  0  0  0  0  0
  150.9713  139.3512  154.0995 H   0  0  0  0  0  0  0  0  0  0  0  0
  148.9182  138.3089  155.0539 H   0  0  0  0  0  0  0  0  0  0  0  0
  150.2952  138.0599  156.1008 H   0  0  0  0  0  0  0  0  0  0  0  0
  144.6647  138.6905  157.5540 H   0  0  0  0  0  0  0  0  0  0  0  0
  149.6023  135.2002  159.7664 H   0  0  0  0  0  0  0  0  0  0  0  0
  146.0488  134.4449  159.5520 H   0  0  0  0  0  0  0  0  0  0  0  0
  147.4926  134.0239  160.4323 H   0  0  0  0  0  0  0  0  0  0  0  0
  144.8764  136.8174  161.6839 H   0  0  0  0  0  0  0  0  0  0  0  0
  147.5648  137.1191  161.6249 H   0  0  0  0  0  0  0  0  0  0  0  0
  146.4400  136.9784  162.9626 H   0  0  0  0  0  0  0  0  0  0  0  0
  148.8638  135.2419  162.4532 H   0  0  0  0  0  0  0  0  0  0  0  0
  148.3426  135.9790  163.9697 H   0  0  0  0  0  0  0  0  0  0  0  0
  145.2658  134.6832  163.3379 H   0  0  0  0  0  0  0  0  0  0  0  0
  144.6994  132.9267  161.6014 H   0  0  0  0  0  0  0  0  0  0  0  0
  145.4804  132.2656  163.0343 H   0  0  0  0  0  0  0  0  0  0  0  0
  146.4025  132.4647  161.5530 H   0  0  0  0  0  0  0  0  0  0  0  0
  150.4827  139.5427  158.2414 H   0  0  0  0  0  0  0  0  0  0  0  0
  149.2004  140.7146  158.4996 H   0  0  0  0  0  0  0  0  0  0  0  0
  1  2  1  0  0  0  0
  1 29  1  0  0  0  0
  1 30  1  0  0  0  0
  1 31  1  0  0  0  0
  2  3  1  0  0  0  0
  2 32  1  0  0  0  0
  2 33  1  0  0  0  0
  3  4  2  0  0  0  0
  3  5  1  0  0  0  0
  5  6  1  0  0  0  0
  5 34  1  0  0  0  0
  6 28  1  0  0  0  0
  6  7  1  0  0  0  0
  6 35  1  0  0  0  0
  7  8  1  0  0  0  0
  7 36  1  0  0  0  0
  7 37  1  0  0  0  0
  8  9  1  0  0  0  0
  8 38  1  0  0  0  0
  8 39  1  0  0  0  0
  9 10  1  0  0  0  0
  9 40  1  0  0  0  0
  9 41  1  0  0  0  0
 10 11  1  0  0  0  0
 10 28  1  0  0  0  0
 11 16  1  0  0  0  0
 11 12  2  0  0  0  0
 12 13  1  0  0  0  0
 13 14  2  0  0  0  0
 13 42  1  0  0  0  0
 14 15  1  0  0  0  0
 15 19  1  0  0  0  0
 15 16  2  0  0  0  0
 16 17  1  0  0  0  0
 17 18  2  0  0  0  0
 18 19  1  0  0  0  0
 18 43  1  0  0  0  0
 19 20  1  0  0  0  0
 20 21  1  0  0  0  0
 20 44  1  0  0  0  0
 20 45  1  0  0  0  0
 21 26  1  0  0  0  0
 21 22  1  0  0  0  0
 21 23  1  0  0  0  0
 22 46  1  0  0  0  0
 23 24  1  0  0  0  0
 23 47  1  0  0  0  0
 23 48  1  0  0  0  0
 24 25  1  0  0  0  0
 24 49  1  0  0  0  0
 24 50  1  0  0  0  0
 25 26  1  0  0  0  0
 26 27  1  0  0  0  0
 26 51  1  0  0  0  0
 27 52  1  0  0  0  0
 27 53  1  0  0  0  0
 27 54  1  0  0  0  0
 28 55  1  0  0  0  0
 28 56  1  0  0  0  0
M  END
> <s_m_source_file>
AV-unprocessed.smi

> <i_m_source_file_index>
252

> <i_lp_mmshare_version>
43012

> <i_f3d_flags>
0

> <s_epik_input>
W0NIM11bQ0gyXUMoPU8pW05IXVtDQEBIXTFbQ0gyXVtDSDJdW0NIMl1OKFtDSDJdMSljKG5bY0hdbjIpYyhjMjMpbltjSF1uM1tDSDJdW0NAQF00KFtPSF0pW0NIMl1bQ0gyXU9bQ0BIXTRbQ0gzXQ==

> <s_epik_cmdline>
J2VwaWtfcHl0aG9uJywgJy1waCcsICc3LjAnLCAnLXRuJywgJzgnLCAnLW1hJywgJzIwMCcsICctbWV0YWxfYmluZGluZycsICctaW1hZScsICc8aW5maWxlLm1hZT4nLCAnLW9tYWUnLCAnPG91dGZpbGUubWFlPic=

> <r_lp_tautomer_probability>
1

> <r_epik_Ionization_Penalty>
0.00182575

> <r_epik_Ionization_Penalty_Charging>
0

> <r_epik_Ionization_Penalty_Neutral>
0.00182575

> <r_epik_State_Penalty>
0.00104524

> <r_epik_Charging_Adjusted_Penalty>
0.00104524

> <i_epik_Tot_Q>
0

> <i_epik_Tot_abs_Q>
0

> <r_epik_Metal_State_Penalty>
-0

> <b_epik_Metal_Only>
0

> <s_lp_Force_Field>
OPLS_2005

> <r_lp_Energy>
35.9235

> <b_lp_Chiralities_Consistent>
1

> <s_lp_Variant>
AV-unprocessed.smi:252-8

> <Gold.Version>
5.8.1

> <Gold.Id.Protein>
6NUR|6NUR_protein|mol2

> <Gold.PLP.Fitness>
39.2611

> <Gold.PLP.PLP>
-40.3339

> <Gold.PLP.part.hbond>
-2.0000

> <Gold.PLP.part.metal>
0.0000

> <Gold.PLP.part.buried>
-4.8671

> <Gold.PLP.part.nonpolar>
-33.3076

> <Gold.PLP.part.repulsive>
0.1609

> <Gold.PLP.ligand.clash>
0.0000

> <Gold.PLP.ligand.torsion>
0.7427

> <Gold.PLP.Chemscore.Hbond>
0.0000

> <Gold.PLP.Chemscore.CHOScore>
0.0000

> <Gold.PLP.Chemscore.Metal>
0.0000

> <Gold.PLP.Chemscore.Internal.Correction>
0.4127

> <Gold.Rescore>
     Score         DG    S(hbond)    S(metal)    S(lipo)     H(rot)  DE(clash)    DE(int)     intcor
      8.20      -9.09       0.00        0.00      90.02       2.70       0.12       0.77       ----

> <Gold.Chemscore.Fitness>
8.1998

> <Gold.Chemscore.DG>
-9.0894

> <Gold.Chemscore.ZeroCoef>
-5.4800

> <Gold.Chemscore.Hbond>
0.0000

> <Gold.Chemscore.Metal>
0.0000

> <Gold.Chemscore.Lipo>
90.0159

> <Gold.Chemscore.Internal_Hbond>
0.0000

> <Gold.Chemscore.DEClash>
0.1239

> <Gold.Chemscore.DEInternal>
0.7657

> <Gold.Chemscore.Rot>
2.7041

> <Gold.Chemscore.Internal.Correction>
   9.000000E+99

> <Gold.Chemscore.Hbond.Weighted>
-0.0000

> <Gold.Chemscore.Metal.Weighted>
-0.0000

> <Gold.Chemscore.Lipo.Weighted>
-10.5319

> <Gold.Chemscore.Internal_Hbond.Weighted>
0.0000

> <Gold.Chemscore.DEClash.Weighted>
0.1239

> <Gold.Chemscore.DEInternal.Weighted>
0.7657

> <Gold.Chemscore.Rot.Weighted>
6.9225

> <Gold.Chemscore.Internal.Correction.Weighted>
   9.000000E+99

> <Gold.Protein.RotatedTorsions>
[ 6907 6896 6895 6894 ] final  167.33 input  -60.11 | X-H torsion
[ 7974 7965 7964 7962 ] final   62.48 input  175.53 | X-H torsion
[ 8008 7997 7996 7995 ] final  109.15 input   59.86 | X-H torsion
[ 10167 10162 10161 10158 ] final   73.14 input  -65.29 | X-H torsion
[ 10718 10713 10712 10709 ] final  176.74 input   66.30 | X-H torsion
[ 10763 10752 10751 10750 ] final   -0.89 input  -60.55 | X-H torsion
[ 11005 11000 10999 10996 ] final  -39.74 input  -57.11 | X-H torsion

> <Gold.Protein.ActiveResidues>
 VAL166  LYS551  ARG553  GLY616  TRP617  ASP618  TYR619  PRO620  LYS621  CYS622 
 ASP623  PHE694  ASN695  SER759  ASP760  ASP761  ALA762  ILE779  LEU786  VAL792 
 PHE793  MET794  SER795  GLU796  ALA797  LYS798  CYS799  TRP800  GLU811  SER814 

> <Gold.Protein.RotatedAtoms>
  151.8650  133.3464  159.3716 H   0  0  0  0  0  0  0  0  0  0  0  0  # atno 6907 bound_to 6896
  150.7168  134.5168  159.5644 H   0  0  0  0  0  0  0  0  0  0  0  0  # atno 6908 bound_to 6896
  152.2690  134.7954  160.0468 H   0  0  0  0  0  0  0  0  0  0  0  0  # atno 6909 bound_to 6896
  145.8729  139.3390  143.0752 H   0  0  0  0  0  0  0  0  0  0  0  0  # atno 7974 bound_to 7965
  156.1958  140.3063  155.9424 H   0  0  0  0  0  0  0  0  0  0  0  0  # atno 8008 bound_to 7997
  155.3070  140.0449  157.3050 H   0  0  0  0  0  0  0  0  0  0  0  0  # atno 8009 bound_to 7997
  154.5507  140.2290  155.8498 H   0  0  0  0  0  0  0  0  0  0  0  0  # atno 8010 bound_to 7997
  140.0277  144.5490  150.7532 H   0  0  0  0  0  0  0  0  0  0  0  0  # atno 10167 bound_to 10162
  156.9156  130.9924  151.3013 H   0  0  0  0  0  0  0  0  0  0  0  0  # atno 10718 bound_to 10713
  153.3377  135.6979  153.6893 H   0  0  0  0  0  0  0  0  0  0  0  0  # atno 10763 bound_to 10752
  153.5670  135.3523  155.2823 H   0  0  0  0  0  0  0  0  0  0  0  0  # atno 10764 bound_to 10752
  154.8630  135.4263  154.2582 H   0  0  0  0  0  0  0  0  0  0  0  0  # atno 10765 bound_to 10752
  141.0124  133.6901  156.2228 H   0  0  0  0  0  0  0  0  0  0  0  0  # atno 11005 bound_to 11000
  145.9115  140.9176  143.0451 LP  0  0  0  0  0  0  0  0  0  0  0  0  # atno 17320 bound_to 7965
  144.6726  140.1167  143.7452 LP  0  0  0  0  0  0  0  0  0  0  0  0  # atno 17321 bound_to 7965
  140.7315  143.2695  151.3933 LP  0  0  0  0  0  0  0  0  0  0  0  0  # atno 17342 bound_to 10162
  139.6097  144.1124  152.2286 LP  0  0  0  0  0  0  0  0  0  0  0  0  # atno 17343 bound_to 10162
  157.5940  130.8464  149.8701 LP  0  0  0  0  0  0  0  0  0  0  0  0  # atno 17370 bound_to 10713
  156.0515  130.3717  150.1190 LP  0  0  0  0  0  0  0  0  0  0  0  0  # atno 17371 bound_to 10713
  140.6711  134.4867  157.5587 LP  0  0  0  0  0  0  0  0  0  0  0  0  # atno 17394 bound_to 11000
  139.9097  134.8371  156.1572 LP  0  0  0  0  0  0  0  0  0  0  0  0  # atno 17395 bound_to 11000

$$$$
