AV-unprocessed.smi:36|AV-procd|sdf|283|dock2
  -GOLD-   2262016 63D 1   1.00000     0.00000
 Structure written by MMmdl.
 64 67  0  0  0  0  0  0  0  0  1 V2000
  149.9795  126.7194  165.9669 C   0  0  0  0  0  0  0  0  0  0  0  0
  150.8091  128.0091  166.0816 C   0  0  0  0  0  0  0  0  0  0  0  0
  150.1455  128.9703  167.0817 C   0  0  0  0  0  0  0  0  0  0  0  0
  152.2344  127.6745  166.5522 C   0  0  0  0  0  0  0  0  0  0  0  0
  150.9050  128.8563  164.3722 Si  0  0  0  0  0  0  0  0  0  0  0  0
  151.8232  127.7591  163.1212 C   0  0  0  0  0  0  0  0  0  0  0  0
  149.1749  129.2765  163.7100 C   0  0  0  0  0  0  0  0  0  0  0  0
  151.7678  130.3005  164.5564 O   0  0  0  0  0  0  0  0  0  0  0  0
  152.3050  131.0392  163.4785 C   0  0  0  0  0  0  0  0  0  0  0  0
  152.9125  132.3445  164.0147 C   0  0  2  0  0  0  0  0  0  0  0  0
  153.8249  132.9177  163.0860 O   0  0  0  0  0  0  0  0  0  0  0  0
  154.7318  133.7434  163.7568 C   0  0  1  0  0  0  0  0  0  0  0  0
  154.4276  135.1634  163.4082 N   0  0  0  0  0  0  0  0  0  0  0  0
  153.9892  136.1866  164.2219 C   0  0  0  0  0  0  0  0  0  0  0  0
  153.8085  137.3347  163.6254 N   0  0  0  0  0  0  0  0  0  0  0  0
  154.1508  137.0848  162.3024 C   0  0  0  0  0  0  0  0  0  0  0  0
  154.1817  137.8786  161.1265 C   0  0  0  0  0  0  0  0  0  0  0  0
  153.8133  139.1802  161.1758 N   0  0  0  0  0  0  0  0  0  0  0  0
  153.7171  140.1283  160.0797 C   0  0  0  0  0  0  0  0  0  0  0  0
  154.0694  139.8441  158.9344 O   0  0  0  0  0  0  0  0  0  0  0  0
  153.2405  141.5058  160.4395 C   0  0  0  0  0  0  0  0  0  0  0  0
  153.1365  141.8859  161.7966 C   0  0  0  0  0  0  0  0  0  0  0  0
  152.7098  143.1830  162.1434 C   0  0  0  0  0  0  0  0  0  0  0  0
  152.3903  144.1129  161.1363 C   0  0  0  0  0  0  0  0  0  0  0  0
  152.5012  143.7464  159.7819 C   0  0  0  0  0  0  0  0  0  0  0  0
  152.9282  142.4500  159.4337 C   0  0  0  0  0  0  0  0  0  0  0  0
  154.5863  137.2769  159.9765 N   0  0  0  0  0  0  0  0  0  0  0  0
  154.9351  135.9868  159.9781 C   0  0  0  0  0  0  0  0  0  0  0  0
  154.9502  135.1277  160.9998 N   0  0  0  0  0  0  0  0  0  0  0  0
  154.5442  135.7260  162.1566 C   0  0  0  0  0  0  0  0  0  0  0  0
  154.5397  133.5226  165.2640 C   0  0  0  0  0  0  0  0  0  0  0  0
  153.7211  132.2471  165.3131 C   0  0  2  0  0  0  0  0  0  0  0  0
  154.5657  131.1121  165.3350 O   0  0  0  0  0  0  0  0  0  0  0  0
  149.9028  126.2111  166.9287 H   0  0  0  0  0  0  0  0  0  0  0  0
  150.4281  126.0196  165.2616 H   0  0  0  0  0  0  0  0  0  0  0  0
  148.9659  126.9282  165.6240 H   0  0  0  0  0  0  0  0  0  0  0  0
  149.1276  129.2183  166.7800 H   0  0  0  0  0  0  0  0  0  0  0  0
  150.7018  129.9049  167.1614 H   0  0  0  0  0  0  0  0  0  0  0  0
  150.0936  128.5317  168.0789 H   0  0  0  0  0  0  0  0  0  0  0  0
  152.2272  127.2055  167.5366 H   0  0  0  0  0  0  0  0  0  0  0  0
  152.8499  128.5724  166.6199 H   0  0  0  0  0  0  0  0  0  0  0  0
  152.7300  126.9880  165.8652 H   0  0  0  0  0  0  0  0  0  0  0  0
  151.3208  126.8018  162.9851 H   0  0  0  0  0  0  0  0  0  0  0  0
  152.8420  127.5475  163.4448 H   0  0  0  0  0  0  0  0  0  0  0  0
  151.8843  128.2316  162.1414 H   0  0  0  0  0  0  0  0  0  0  0  0
  148.5658  128.3818  163.5836 H   0  0  0  0  0  0  0  0  0  0  0  0
  149.2288  129.7715  162.7408 H   0  0  0  0  0  0  0  0  0  0  0  0
  148.6379  129.9434  164.3839 H   0  0  0  0  0  0  0  0  0  0  0  0
  153.0396  130.4532  162.9254 H   0  0  0  0  0  0  0  0  0  0  0  0
  151.4956  131.2648  162.7840 H   0  0  0  0  0  0  0  0  0  0  0  0
  152.1098  133.0689  164.1622 H   0  0  0  0  0  0  0  0  0  0  0  0
  155.7482  133.5665  163.4034 H   0  0  0  0  0  0  0  0  0  0  0  0
  153.8023  136.0579  165.2779 H   0  0  0  0  0  0  0  0  0  0  0  0
  153.5420  139.5277  162.0840 H   0  0  0  0  0  0  0  0  0  0  0  0
  153.3800  141.1845  162.5818 H   0  0  0  0  0  0  0  0  0  0  0  0
  152.6296  143.4642  163.1831 H   0  0  0  0  0  0  0  0  0  0  0  0
  152.0644  145.1076  161.4025 H   0  0  0  0  0  0  0  0  0  0  0  0
  152.2623  144.4613  159.0083 H   0  0  0  0  0  0  0  0  0  0  0  0
  153.0164  142.1944  158.3876 H   0  0  0  0  0  0  0  0  0  0  0  0
  155.2450  135.5856  159.0244 H   0  0  0  0  0  0  0  0  0  0  0  0
  155.4982  133.4603  165.7805 H   0  0  0  0  0  0  0  0  0  0  0  0
  153.9679  134.3488  165.6901 H   0  0  0  0  0  0  0  0  0  0  0  0
  153.0740  132.2120  166.1901 H   0  0  0  0  0  0  0  0  0  0  0  0
  154.0260  130.3365  165.3109 H   0  0  0  0  0  0  0  0  0  0  0  0
  1  2  1  0  0  0  0
  1 34  1  0  0  0  0
  1 35  1  0  0  0  0
  1 36  1  0  0  0  0
  2  3  1  0  0  0  0
  2  4  1  0  0  0  0
  2  5  1  0  0  0  0
  3 37  1  0  0  0  0
  3 38  1  0  0  0  0
  3 39  1  0  0  0  0
  4 40  1  0  0  0  0
  4 41  1  0  0  0  0
  4 42  1  0  0  0  0
  5  6  1  0  0  0  0
  5  7  1  0  0  0  0
  5  8  1  0  0  0  0
  6 43  1  0  0  0  0
  6 44  1  0  0  0  0
  6 45  1  0  0  0  0
  7 46  1  0  0  0  0
  7 47  1  0  0  0  0
  7 48  1  0  0  0  0
  8  9  1  0  0  0  0
  9 10  1  0  0  0  0
  9 49  1  0  0  0  0
  9 50  1  0  0  0  0
 10 32  1  0  0  0  0
 10 11  1  0  0  0  0
 10 51  1  0  0  0  0
 11 12  1  0  0  0  0
 12 13  1  0  0  0  0
 12 31  1  0  0  0  0
 12 52  1  0  0  0  0
 13 30  1  0  0  0  0
 13 14  1  0  0  0  0
 14 15  2  0  0  0  0
 14 53  1  0  0  0  0
 15 16  1  0  0  0  0
 16 30  2  0  0  0  0
 16 17  1  0  0  0  0
 17 18  1  0  0  0  0
 17 27  2  0  0  0  0
 18 19  1  0  0  0  0
 18 54  1  0  0  0  0
 19 20  2  0  0  0  0
 19 21  1  0  0  0  0
 21 26  1  0  0  0  0
 21 22  2  0  0  0  0
 22 23  1  0  0  0  0
 22 55  1  0  0  0  0
 23 24  2  0  0  0  0
 23 56  1  0  0  0  0
 24 25  1  0  0  0  0
 24 57  1  0  0  0  0
 25 26  2  0  0  0  0
 25 58  1  0  0  0  0
 26 59  1  0  0  0  0
 27 28  1  0  0  0  0
 28 29  2  0  0  0  0
 28 60  1  0  0  0  0
 29 30  1  0  0  0  0
 31 32  1  0  0  0  0
 31 61  1  0  0  0  0
 31 62  1  0  0  0  0
 32 33  1  0  0  0  0
 32 63  1  0  0  0  0
 33 64  1  0  0  0  0
M  END
> <s_m_source_file>
AV-unprocessed.smi

> <i_m_source_file_index>
36

> <i_lp_mmshare_version>
43012

> <i_f3d_flags>
0

> <s_epik_input>
W0NIM11DKFtDSDNdKShbQ0gzXSlbU2ldKFtDSDNdKShbQ0gzXSlPW0NIMl1bQ0BASF0xT1tDQEhdKFtDSDJdW0NASF0xW09IXSluKFtjSF1uMiljKGMyMyluW2NIXW5jM1tOSF1DKD1PKWM0W2NIXVtjSF1bY0hdW2NIXVtjSF00

> <s_epik_cmdline>
J2VwaWtfcHl0aG9uJywgJy1waCcsICc3LjAnLCAnLXRuJywgJzgnLCAnLW1hJywgJzIwMCcsICctbWV0YWxfYmluZGluZycsICctaW1hZScsICc8aW5maWxlLm1hZT4nLCAnLW9tYWUnLCAnPG91dGZpbGUubWFlPic=

> <r_lp_tautomer_probability>
1

> <r_epik_Ionization_Penalty>
0.00150433

> <r_epik_Ionization_Penalty_Charging>
0

> <r_epik_Ionization_Penalty_Neutral>
0.00150433

> <r_epik_State_Penalty>
0.00724046

> <r_epik_Charging_Adjusted_Penalty>
0.00724046

> <i_epik_Tot_Q>
0

> <i_epik_Tot_abs_Q>
0

> <r_epik_Metal_State_Penalty>
0.323355

> <b_epik_Metal_Only>
0

> <s_epik_Chemistry_Notes>
This compound contains an acetal/aminal-like group ( X-CH(R)-Y where X, Y are N, S, or O) that may be acid/base labile, releasing an aldehyde.

> <s_lp_Force_Field>
OPLS_2005

> <r_lp_Energy>
37.4738

> <b_lp_Chiralities_Consistent>
1

> <s_lp_Variant>
AV-unprocessed.smi:36-5

> <Gold.Version>
5.8.1

> <Gold.Id.Protein>
6NUR|6NUR_protein|mol2

> <Gold.PLP.Fitness>
61.1900

> <Gold.PLP.PLP>
-58.9872

> <Gold.PLP.part.hbond>
-1.0000

> <Gold.PLP.part.metal>
0.0000

> <Gold.PLP.part.buried>
-5.8579

> <Gold.PLP.part.nonpolar>
-50.8344

> <Gold.PLP.part.repulsive>
0.1291

> <Gold.PLP.ligand.clash>
0.0000

> <Gold.PLP.ligand.torsion>
0.4409

> <Gold.PLP.Chemscore.Hbond>
1.0000

> <Gold.PLP.Chemscore.CHOScore>
0.0000

> <Gold.PLP.Chemscore.Metal>
0.0000

> <Gold.Chemscore.Hbonds>
donor molecule, donor type, donor heavy atom, donor atom, acceptor molecule, acceptor atom, score
      P1  H  7997  8008       L1    20  1.00

> <Gold.PLP.Chemscore.Internal.Correction>
0.0847

> <Gold.Rescore>
     Score         DG    S(hbond)    S(metal)    S(lipo)     H(rot)  DE(clash)    DE(int)     intcor
     16.75     -19.15       0.99        0.00     147.74       2.70       0.04       2.36       ----

> <Gold.Chemscore.Fitness>
16.7503

> <Gold.Chemscore.DG>
-19.1487

> <Gold.Chemscore.ZeroCoef>
-5.4800

> <Gold.Chemscore.Hbond>
0.9898

> <Gold.Chemscore.Metal>
0.0000

> <Gold.Chemscore.Lipo>
147.7384

> <Gold.Chemscore.Internal_Hbond>
0.0000

> <Gold.Chemscore.DEClash>
0.0368

> <Gold.Chemscore.DEInternal>
2.3616

> <Gold.Chemscore.Rot>
2.7041

> <Gold.Chemscore.Internal.Correction>
   9.000000E+99

> <Gold.Chemscore.Hbonds>
donor molecule, donor type, donor heavy atom, donor atom, acceptor molecule, acceptor atom, score
      P1  H  7997  8008       L1    20  0.98

> <Gold.Chemscore.Hbond.Weighted>
-3.3058

> <Gold.Chemscore.Metal.Weighted>
-0.0000

> <Gold.Chemscore.Lipo.Weighted>
-17.2854

> <Gold.Chemscore.Internal_Hbond.Weighted>
0.0000

> <Gold.Chemscore.DEClash.Weighted>
0.0368

> <Gold.Chemscore.DEInternal.Weighted>
2.3616

> <Gold.Chemscore.Rot.Weighted>
6.9225

> <Gold.Chemscore.Internal.Correction.Weighted>
   9.000000E+99

> <Gold.Protein.RotatedTorsions>
[ 6907 6896 6895 6894 ] final  -23.08 input  -60.11 | X-H torsion
[ 7974 7965 7964 7962 ] final  170.26 input  175.53 | X-H torsion
[ 8008 7997 7996 7995 ] final -100.80 input   59.86 | X-H torsion
[ 10167 10162 10161 10158 ] final -104.13 input  -65.29 | X-H torsion
[ 10718 10713 10712 10709 ] final   87.18 input   66.30 | X-H torsion
[ 10763 10752 10751 10750 ] final    8.13 input  -60.55 | X-H torsion
[ 11005 11000 10999 10996 ] final  -58.97 input  -57.11 | X-H torsion

> <Gold.Protein.ActiveResidues>
 VAL166  LYS551  ARG553  GLY616  TRP617  ASP618  TYR619  PRO620  LYS621  CYS622 
 ASP623  PHE694  ASN695  SER759  ASP760  ASP761  ALA762  ILE779  LEU786  VAL792 
 PHE793  MET794  SER795  GLU796  ALA797  LYS798  CYS799  TRP800  GLU811  SER814 

> <Gold.Protein.RotatedAtoms>
  151.2092  135.0474  159.8903 H   0  0  0  0  0  0  0  0  0  0  0  0  # atno 6907 bound_to 6896
  152.5426  134.0764  159.8226 H   0  0  0  0  0  0  0  0  0  0  0  0  # atno 6908 bound_to 6896
  151.0915  133.5265  159.2646 H   0  0  0  0  0  0  0  0  0  0  0  0  # atno 6909 bound_to 6896
  144.7329  139.9175  143.6418 H   0  0  0  0  0  0  0  0  0  0  0  0  # atno 7974 bound_to 7965
  154.8336  140.0438  157.1494 H   0  0  0  0  0  0  0  0  0  0  0  0  # atno 8008 bound_to 7997
  154.9125  140.3015  155.5238 H   0  0  0  0  0  0  0  0  0  0  0  0  # atno 8009 bound_to 7997
  156.2988  140.2355  156.4165 H   0  0  0  0  0  0  0  0  0  0  0  0  # atno 8010 bound_to 7997
  140.2126  143.3735  152.1037 H   0  0  0  0  0  0  0  0  0  0  0  0  # atno 10167 bound_to 10162
  157.6937  131.0245  150.3084 H   0  0  0  0  0  0  0  0  0  0  0  0  # atno 10718 bound_to 10713
  153.2285  135.6890  153.7917 H   0  0  0  0  0  0  0  0  0  0  0  0  # atno 10763 bound_to 10752
  153.7090  135.3285  155.3243 H   0  0  0  0  0  0  0  0  0  0  0  0  # atno 10764 bound_to 10752
  154.8303  135.4586  154.1161 H   0  0  0  0  0  0  0  0  0  0  0  0  # atno 10765 bound_to 10752
  141.1229  133.6614  156.5000 H   0  0  0  0  0  0  0  0  0  0  0  0  # atno 11005 bound_to 11000
  146.0954  139.3946  143.0379 LP  0  0  0  0  0  0  0  0  0  0  0  0  # atno 17320 bound_to 7965
  145.7652  140.9919  143.1178 LP  0  0  0  0  0  0  0  0  0  0  0  0  # atno 17321 bound_to 7965
  139.5174  144.6991  151.5545 LP  0  0  0  0  0  0  0  0  0  0  0  0  # atno 17342 bound_to 10162
  140.6312  143.9071  150.6607 LP  0  0  0  0  0  0  0  0  0  0  0  0  # atno 17343 bound_to 10162
  156.3589  130.3843  149.7267 LP  0  0  0  0  0  0  0  0  0  0  0  0  # atno 17370 bound_to 10713
  156.4720  130.8001  151.3018 LP  0  0  0  0  0  0  0  0  0  0  0  0  # atno 17371 bound_to 10713
  140.4453  134.6978  157.5012 LP  0  0  0  0  0  0  0  0  0  0  0  0  # atno 17394 bound_to 11000
  140.0201  134.6559  155.9251 LP  0  0  0  0  0  0  0  0  0  0  0  0  # atno 17395 bound_to 11000

$$$$
