AV-unprocessed.smi:1328|AV-procd|sdf|5482|dock6
  -GOLD-   22720 5 53D 1   1.00000     0.00000
 Structure written by MMmdl.
 38 39  0  0  0  0  0  0  0  0  1 V2000
  151.7335  138.8648  155.1641 C   0  0  0  0  0  0  0  0  0  0  0  0
  150.4466  139.4589  154.6672 C   0  0  0  0  0  0  0  0  0  0  0  0
  149.6275  138.7231  153.9346 N   0  0  0  0  0  0  0  0  0  0  0  0
  148.5364  139.5453  153.6369 O   0  0  0  0  0  0  0  0  0  0  0  0
  148.7452  140.7591  154.2075 C   0  0  0  0  0  0  0  0  0  0  0  0
  147.6817  141.7860  154.0110 C   0  0  0  0  0  0  0  0  0  0  0  0
  149.9392  140.7738  154.8743 C   0  0  0  0  0  0  0  0  0  0  0  0
  150.5685  141.9026  155.6484 C   0  0  0  0  0  0  0  0  0  0  0  0
  150.5588  141.5675  157.1397 C   0  0  0  0  0  0  0  0  0  0  0  0
  149.4918  141.3514  157.7139 O   0  0  0  0  0  0  0  0  0  0  0  0
  151.7547  141.5199  157.7477 N   0  0  0  0  0  0  0  0  0  0  0  0
  151.9962  141.1685  159.1454 C   0  0  1  0  0  0  0  0  0  0  0  0
  152.9853  139.9949  159.1892 C   0  0  0  0  0  0  0  0  0  0  0  0
  152.5206  142.3884  159.9311 C   0  0  1  0  0  0  0  0  0  0  0  0
  151.9743  143.7419  159.4730 C   0  0  0  0  0  0  0  0  0  0  0  0
  152.1203  144.6210  160.7045 C   0  0  0  0  0  0  0  0  0  0  0  0
  152.3124  143.6251  161.8518 C   0  0  0  0  0  0  0  0  0  0  0  0
  152.0834  142.3442  161.2803 O   0  0  0  0  0  0  0  0  0  0  0  0
  152.5831  139.2563  154.6048 H   0  0  0  0  0  0  0  0  0  0  0  0
  151.7419  137.7789  155.0649 H   0  0  0  0  0  0  0  0  0  0  0  0
  151.8925  139.0981  156.2168 H   0  0  0  0  0  0  0  0  0  0  0  0
  147.1178  141.9353  154.9320 H   0  0  0  0  0  0  0  0  0  0  0  0
  146.9824  141.4843  153.2309 H   0  0  0  0  0  0  0  0  0  0  0  0
  148.1165  142.7427  153.7216 H   0  0  0  0  0  0  0  0  0  0  0  0
  151.5902  142.0912  155.3152 H   0  0  0  0  0  0  0  0  0  0  0  0
  150.0266  142.8372  155.5001 H   0  0  0  0  0  0  0  0  0  0  0  0
  152.5710  141.7209  157.1885 H   0  0  0  0  0  0  0  0  0  0  0  0
  151.0660  140.8307  159.6059 H   0  0  0  0  0  0  0  0  0  0  0  0
  153.1652  139.6690  160.2139 H   0  0  0  0  0  0  0  0  0  0  0  0
  153.9471  140.2684  158.7540 H   0  0  0  0  0  0  0  0  0  0  0  0
  152.6012  139.1370  158.6364 H   0  0  0  0  0  0  0  0  0  0  0  0
  153.6123  142.4080  159.9168 H   0  0  0  0  0  0  0  0  0  0  0  0
  152.4998  144.1382  158.6037 H   0  0  0  0  0  0  0  0  0  0  0  0
  150.9179  143.6523  159.2157 H   0  0  0  0  0  0  0  0  0  0  0  0
  152.9858  145.2793  160.6219 H   0  0  0  0  0  0  0  0  0  0  0  0
  151.2372  145.2439  160.8489 H   0  0  0  0  0  0  0  0  0  0  0  0
  153.3337  143.6724  162.2323 H   0  0  0  0  0  0  0  0  0  0  0  0
  151.6309  143.8076  162.6829 H   0  0  0  0  0  0  0  0  0  0  0  0
  1  2  1  0  0  0  0
  1 19  1  0  0  0  0
  1 20  1  0  0  0  0
  1 21  1  0  0  0  0
  2  7  1  0  0  0  0
  2  3  2  0  0  0  0
  3  4  1  0  0  0  0
  4  5  1  0  0  0  0
  5  6  1  0  0  0  0
  5  7  2  0  0  0  0
  6 22  1  0  0  0  0
  6 23  1  0  0  0  0
  6 24  1  0  0  0  0
  7  8  1  0  0  0  0
  8  9  1  0  0  0  0
  8 25  1  0  0  0  0
  8 26  1  0  0  0  0
  9 10  2  0  0  0  0
  9 11  1  0  0  0  0
 11 12  1  0  0  0  0
 11 27  1  0  0  0  0
 12 13  1  0  0  0  0
 12 14  1  0  0  0  0
 12 28  1  0  0  0  0
 13 29  1  0  0  0  0
 13 30  1  0  0  0  0
 13 31  1  0  0  0  0
 14 18  1  0  0  0  0
 14 15  1  0  0  0  0
 14 32  1  0  0  0  0
 15 16  1  0  0  0  0
 15 33  1  0  0  0  0
 15 34  1  0  0  0  0
 16 17  1  0  0  0  0
 16 35  1  0  0  0  0
 16 36  1  0  0  0  0
 17 18  1  0  0  0  0
 17 37  1  0  0  0  0
 17 38  1  0  0  0  0
M  END
> <s_m_source_file>
AV-unprocessed.smi

> <i_m_source_file_index>
1328

> <i_lp_mmshare_version>
43012

> <i_f3d_flags>
0

> <s_epik_input>
W0NIM11jMW5vYyhbQ0gzXSljMVtDSDJdQyg9TylbTkhdW0NASF0oW0NIM10pW0NAQEhdMltDSDJdW0NIMl1bQ0gyXU8y

> <s_epik_cmdline>
J2VwaWtfcHl0aG9uJywgJy1waCcsICc3LjAnLCAnLXRuJywgJzgnLCAnLW1hJywgJzIwMCcsICctbWV0YWxfYmluZGluZycsICctaW1hZScsICc8aW5maWxlLm1hZT4nLCAnLW9tYWUnLCAnPG91dGZpbGUubWFlPic=

> <r_lp_tautomer_probability>
1

> <r_epik_Ionization_Penalty>
2.66156e-08

> <r_epik_Ionization_Penalty_Charging>
0

> <r_epik_Ionization_Penalty_Neutral>
2.66156e-08

> <r_epik_State_Penalty>
-0

> <r_epik_Charging_Adjusted_Penalty>
0

> <i_epik_Tot_Q>
0

> <i_epik_Tot_abs_Q>
0

> <r_epik_Metal_State_Penalty>
-0

> <b_epik_Metal_Only>
0

> <s_lp_Force_Field>
OPLS_2005

> <r_lp_Energy>
12.2386

> <b_lp_Chiralities_Consistent>
1

> <s_lp_Variant>
AV-unprocessed.smi:1328-4

> <Gold.Version>
5.8.1

> <Gold.Id.Protein>
6NUR|6NUR_protein|mol2

> <Gold.PLP.Fitness>
37.9801

> <Gold.PLP.PLP>
-39.4023

> <Gold.PLP.part.hbond>
-0.6042

> <Gold.PLP.part.metal>
0.0000

> <Gold.PLP.part.buried>
-5.4356

> <Gold.PLP.part.nonpolar>
-34.0493

> <Gold.PLP.part.repulsive>
1.6897

> <Gold.PLP.ligand.clash>
0.0000

> <Gold.PLP.ligand.torsion>
0.8196

> <Gold.PLP.Chemscore.Hbond>
0.0608

> <Gold.PLP.Chemscore.CHOScore>
0.0000

> <Gold.PLP.Chemscore.Metal>
0.0000

> <Gold.Chemscore.Hbonds>
donor molecule, donor type, donor heavy atom, donor atom, acceptor molecule, acceptor atom, score
      P1  H  6933  6945       L1    18  0.16

> <Gold.PLP.Chemscore.Internal.Correction>
0.0345

> <Gold.Rescore>
     Score         DG    S(hbond)    S(metal)    S(lipo)     H(rot)  DE(clash)    DE(int)     intcor
     13.50     -14.19       0.00        0.00     107.63       1.52       0.06       0.63       ----

> <Gold.Chemscore.Fitness>
13.5023

> <Gold.Chemscore.DG>
-14.1917

> <Gold.Chemscore.ZeroCoef>
-5.4800

> <Gold.Chemscore.Hbond>
0.0000

> <Gold.Chemscore.Metal>
0.0000

> <Gold.Chemscore.Lipo>
107.6276

> <Gold.Chemscore.Internal_Hbond>
0.0000

> <Gold.Chemscore.DEClash>
0.0553

> <Gold.Chemscore.DEInternal>
0.6341

> <Gold.Chemscore.Rot>
1.5159

> <Gold.Chemscore.Internal.Correction>
   9.000000E+99

> <Gold.Chemscore.Hbonds>
donor molecule, donor type, donor heavy atom, donor atom, acceptor molecule, acceptor atom, score
      P1  H  6933  6945       L1    18  0.05

> <Gold.Chemscore.Hbond.Weighted>
-0.0000

> <Gold.Chemscore.Metal.Weighted>
-0.0000

> <Gold.Chemscore.Lipo.Weighted>
-12.5924

> <Gold.Chemscore.Internal_Hbond.Weighted>
0.0000

> <Gold.Chemscore.DEClash.Weighted>
0.0553

> <Gold.Chemscore.DEInternal.Weighted>
0.6341

> <Gold.Chemscore.Rot.Weighted>
3.8807

> <Gold.Chemscore.Internal.Correction.Weighted>
   9.000000E+99

> <Gold.Protein.RotatedTorsions>
[ 6907 6896 6895 6894 ] final -132.02 input  -60.11 | X-H torsion
[ 7974 7965 7964 7962 ] final  -12.47 input  175.53 | X-H torsion
[ 8008 7997 7996 7995 ] final  137.63 input   59.86 | X-H torsion
[ 10167 10162 10161 10158 ] final -109.02 input  -65.29 | X-H torsion
[ 10718 10713 10712 10709 ] final  124.84 input   66.30 | X-H torsion
[ 10763 10752 10751 10750 ] final  -93.40 input  -60.55 | X-H torsion
[ 11005 11000 10999 10996 ] final  178.58 input  -57.11 | X-H torsion

> <Gold.Protein.ActiveResidues>
 VAL166  LYS551  ARG553  GLY616  TRP617  ASP618  TYR619  PRO620  LYS621  CYS622 
 ASP623  PHE694  ASN695  SER759  ASP760  ASP761  ALA762  ILE779  LEU786  VAL792 
 PHE793  MET794  SER795  GLU796  ALA797  LYS798  CYS799  TRP800  GLU811  SER814 

> <Gold.Protein.RotatedAtoms>
  150.9577  133.6480  159.2759 H   0  0  0  0  0  0  0  0  0  0  0  0  # atno 6907 bound_to 6896
  151.3813  135.0939  159.9507 H   0  0  0  0  0  0  0  0  0  0  0  0  # atno 6908 bound_to 6896
  152.5135  133.9110  159.7542 H   0  0  0  0  0  0  0  0  0  0  0  0  # atno 6909 bound_to 6896
  146.2150  140.3062  142.8379 H   0  0  0  0  0  0  0  0  0  0  0  0  # atno 7974 bound_to 7965
  156.3001  140.2414  156.3941 H   0  0  0  0  0  0  0  0  0  0  0  0  # atno 8008 bound_to 7997
  154.8587  140.0421  157.1671 H   0  0  0  0  0  0  0  0  0  0  0  0  # atno 8009 bound_to 7997
  154.8920  140.2964  155.5369 H   0  0  0  0  0  0  0  0  0  0  0  0  # atno 8010 bound_to 7997
  140.1598  143.4129  152.1434 H   0  0  0  0  0  0  0  0  0  0  0  0  # atno 10167 bound_to 10162
  157.5552  131.1092  150.8633 H   0  0  0  0  0  0  0  0  0  0  0  0  # atno 10718 bound_to 10713
  154.6956  135.5195  153.8453 H   0  0  0  0  0  0  0  0  0  0  0  0  # atno 10763 bound_to 10752
  153.0664  135.6586  154.0353 H   0  0  0  0  0  0  0  0  0  0  0  0  # atno 10764 bound_to 10752
  154.0221  135.2992  155.3359 H   0  0  0  0  0  0  0  0  0  0  0  0  # atno 10765 bound_to 10752
  140.3967  134.6814  157.4538 H   0  0  0  0  0  0  0  0  0  0  0  0  # atno 11005 bound_to 11000
  144.9021  140.7655  143.5860 LP  0  0  0  0  0  0  0  0  0  0  0  0  # atno 17320 bound_to 7965
  145.2989  139.1857  143.4700 LP  0  0  0  0  0  0  0  0  0  0  0  0  # atno 17321 bound_to 7965
  139.5386  144.7234  151.4808 LP  0  0  0  0  0  0  0  0  0  0  0  0  # atno 17342 bound_to 10162
  140.6650  143.8418  150.6931 LP  0  0  0  0  0  0  0  0  0  0  0  0  # atno 17343 bound_to 10162
  156.9147  130.5293  149.5280 LP  0  0  0  0  0  0  0  0  0  0  0  0  # atno 17370 bound_to 10713
  156.0612  130.5664  150.9197 LP  0  0  0  0  0  0  0  0  0  0  0  0  # atno 17371 bound_to 10713
  140.0366  134.6328  155.9035 LP  0  0  0  0  0  0  0  0  0  0  0  0  # atno 17394 bound_to 11000
  141.1871  133.6559  156.5269 LP  0  0  0  0  0  0  0  0  0  0  0  0  # atno 17395 bound_to 11000

$$$$
