AV-unprocessed.smi:2061|AV-procd|sdf|8391|dock8
  -GOLD-   2272011 73D 1   1.00000     0.00000
 Structure written by MMmdl.
 45 46  0  0  0  0  0  0  0  0  3 V2000
  154.0099  137.8911  155.7401 C   0  0  0  0  0  0  0  0  0  0  0  0
  152.6991  138.4587  155.3162 C   0  0  0  0  0  0  0  0  0  0  0  0
  151.5947  137.9092  154.7282 C   0  0  0  0  0  0  0  0  0  0  0  0
  150.7115  139.0150  154.6070 C   0  0  0  0  0  0  0  0  0  0  0  0
  149.4259  138.8547  154.0257 N   0  0  0  0  0  0  0  0  0  0  0  0
  148.3898  139.7131  154.0243 C   0  0  0  0  0  0  0  0  0  0  0  0
  148.4793  140.8018  154.6049 O   0  0  0  0  0  0  0  0  0  0  0  0
  147.3197  139.2308  153.3336 N   0  5  0  0  0  0  0  0  0  0  0  0
  146.7627  137.8856  153.4893 C   0  0  0  0  0  0  0  0  0  0  0  0
  146.0153  137.4345  152.2032 C   0  0  1  0  0  0  0  0  0  0  0  0
  146.4324  138.2028  150.9240 C   0  0  0  0  0  0  0  0  0  0  0  0
  146.0982  135.9496  152.0452 N   0  3  1  0  0  0  0  0  0  0  0  0
  145.9112  135.2063  153.3156 C   0  0  0  0  0  0  0  0  0  0  0  0
  146.2119  133.7068  153.1241 C   0  0  2  0  0  0  0  0  0  0  0  0
  147.7132  133.3970  152.9872 C   0  0  0  0  0  0  0  0  0  0  0  0
  145.4518  133.1814  152.0354 O   0  0  0  0  0  0  0  0  0  0  0  0
  145.6276  133.8613  150.7946 C   0  0  1  0  0  0  0  0  0  0  0  0
  144.7406  133.1724  149.7517 C   0  0  0  0  0  0  0  0  0  0  0  0
  145.2634  135.3451  150.9718 C   0  0  0  0  0  0  0  0  0  0  0  0
  151.2321  140.1384  155.0789 N   0  0  0  0  0  0  0  0  0  0  0  0
  152.5075  139.7874  155.5364 O   0  0  0  0  0  0  0  0  0  0  0  0
  154.1958  136.9347  155.2513 H   0  0  0  0  0  0  0  0  0  0  0  0
  154.0290  137.7306  156.8181 H   0  0  0  0  0  0  0  0  0  0  0  0
  154.8267  138.5659  155.4829 H   0  0  0  0  0  0  0  0  0  0  0  0
  151.4443  136.8817  154.4323 H   0  0  0  0  0  0  0  0  0  0  0  0
  149.2726  137.9831  153.5404 H   0  0  0  0  0  0  0  0  0  0  0  0
  147.5413  137.1581  153.7198 H   0  0  0  0  0  0  0  0  0  0  0  0
  146.0726  137.8373  154.3334 H   0  0  0  0  0  0  0  0  0  0  0  0
  144.9621  137.6648  152.3718 H   0  0  0  0  0  0  0  0  0  0  0  0
  146.2200  139.2703  151.0056 H   0  0  0  0  0  0  0  0  0  0  0  0
  145.8776  137.8433  150.0573 H   0  0  0  0  0  0  0  0  0  0  0  0
  147.4953  138.1012  150.6974 H   0  0  0  0  0  0  0  0  0  0  0  0
  146.5596  135.6099  154.0947 H   0  0  0  0  0  0  0  0  0  0  0  0
  144.8844  135.3387  153.6591 H   0  0  0  0  0  0  0  0  0  0  0  0
  145.8641  133.1829  154.0149 H   0  0  0  0  0  0  0  0  0  0  0  0
  148.2508  133.6883  153.8899 H   0  0  0  0  0  0  0  0  0  0  0  0
  148.1724  133.9279  152.1537 H   0  0  0  0  0  0  0  0  0  0  0  0
  147.8775  132.3299  152.8371 H   0  0  0  0  0  0  0  0  0  0  0  0
  146.6641  133.7743  150.4677 H   0  0  0  0  0  0  0  0  0  0  0  0
  144.8416  133.6458  148.7748 H   0  0  0  0  0  0  0  0  0  0  0  0
  143.6889  133.2145  150.0369 H   0  0  0  0  0  0  0  0  0  0  0  0
  145.0128  132.1224  149.6415 H   0  0  0  0  0  0  0  0  0  0  0  0
  144.2059  135.4345  151.2243 H   0  0  0  0  0  0  0  0  0  0  0  0
  145.4140  135.8708  150.0284 H   0  0  0  0  0  0  0  0  0  0  0  0
  147.0585  135.7803  151.7814 H   0  0  0  0  0  0  0  0  0  0  0  0
  1  2  1  0  0  0  0
  1 22  1  0  0  0  0
  1 23  1  0  0  0  0
  1 24  1  0  0  0  0
  2 21  1  0  0  0  0
  2  3  2  0  0  0  0
  3  4  1  0  0  0  0
  3 25  1  0  0  0  0
  4  5  1  0  0  0  0
  4 20  2  0  0  0  0
  5  6  1  0  0  0  0
  5 26  1  0  0  0  0
  6  7  2  0  0  0  0
  6  8  1  0  0  0  0
  8  9  1  0  0  0  0
  9 10  1  0  0  0  0
  9 27  1  0  0  0  0
  9 28  1  0  0  0  0
 10 11  1  0  0  0  0
 10 12  1  0  0  0  0
 10 29  1  0  0  0  0
 11 30  1  0  0  0  0
 11 31  1  0  0  0  0
 11 32  1  0  0  0  0
 12 19  1  0  0  0  0
 12 13  1  0  0  0  0
 12 45  1  0  0  0  0
 13 14  1  0  0  0  0
 13 33  1  0  0  0  0
 13 34  1  0  0  0  0
 14 15  1  0  0  0  0
 14 16  1  0  0  0  0
 14 35  1  0  0  0  0
 15 36  1  0  0  0  0
 15 37  1  0  0  0  0
 15 38  1  0  0  0  0
 16 17  1  0  0  0  0
 17 18  1  0  0  0  0
 17 19  1  0  0  0  0
 17 39  1  0  0  0  0
 18 40  1  0  0  0  0
 18 41  1  0  0  0  0
 18 42  1  0  0  0  0
 19 43  1  0  0  0  0
 19 44  1  0  0  0  0
 20 21  1  0  0  0  0
M  CHG  1   8  -1
M  CHG  1  12   1
M  END
> <s_m_source_file>
AV-unprocessed.smi

> <i_m_source_file_index>
2061

> <i_lp_mmshare_version>
43012

> <i_f3d_flags>
0

> <s_epik_input>
W0NIM11jMVtjSF1jKG5vMSlbTkhdQyg9TylbTkhdW0NIMl1bQ0BIXShbQ0gzXSlOMltDSDJdW0NAQEhdKFtDSDNdKU9bQ0BASF0oW0NIM10pW0NIMl0y

> <s_epik_cmdline>
J2VwaWtfcHl0aG9uJywgJy1waCcsICc3LjAnLCAnLXRuJywgJzgnLCAnLW1hJywgJzIwMCcsICctbWV0YWxfYmluZGluZycsICctaW1hZScsICc8aW5maWxlLm1hZT4nLCAnLW9tYWUnLCAnPG91dGZpbGUubWFlPic=

> <r_epik_Ionization_Penalty>
6.8073

> <r_epik_Ionization_Penalty_Charging>
6.80729

> <r_epik_Ionization_Penalty_Neutral>
5.65391e-06

> <r_epik_State_Penalty>
7.47323

> <r_epik_Charging_Adjusted_Penalty>
14.2805

> <i_epik_Tot_Q>
0

> <i_epik_Tot_abs_Q>
2

> <r_epik_Metal_State_Penalty>
3.40035

> <b_epik_Metal_Only>
1

> <s_lp_Force_Field>
OPLS_2005

> <r_lp_Energy>
19.3707

> <b_lp_Chiralities_Consistent>
1

> <s_lp_Variant>
AV-unprocessed.smi:2061-32

> <Gold.Version>
5.8.1

> <Gold.Id.Protein>
6NUR|6NUR_protein|mol2

> <Gold.PLP.Fitness>
41.4906

> <Gold.PLP.PLP>
-30.7767

> <Gold.PLP.part.hbond>
-5.2058

> <Gold.PLP.part.metal>
0.0000

> <Gold.PLP.part.buried>
5.2729

> <Gold.PLP.part.nonpolar>
-32.0305

> <Gold.PLP.part.repulsive>
0.5686

> <Gold.PLP.ligand.clash>
0.0000

> <Gold.PLP.ligand.torsion>
1.2038

> <Gold.PLP.Chemscore.Hbond>
4.3240

> <Gold.PLP.Chemscore.CHOScore>
0.0000

> <Gold.PLP.Chemscore.Metal>
0.0000

> <Gold.Chemscore.Hbonds>
donor molecule, donor type, donor heavy atom, donor atom, acceptor molecule, acceptor atom, score
      L1  H     5    26       P1  7948  0.03
      L1  H    12    45       P1  7948  2.00
      P1  H  7989  7998       L1    20  0.85
      P1  H  7997  8008       L1    21  0.80

> <Gold.PLP.Chemscore.Internal.Correction>
0.1495

> <Gold.Rescore>
     Score         DG    S(hbond)    S(metal)    S(lipo)     H(rot)  DE(clash)    DE(int)     intcor
     14.40     -20.97       3.22        0.00      74.65       1.56       4.09       2.49       ----

> <Gold.Chemscore.Fitness>
14.3992

> <Gold.Chemscore.DG>
-20.9731

> <Gold.Chemscore.ZeroCoef>
-5.4800

> <Gold.Chemscore.Hbond>
3.2156

> <Gold.Chemscore.Metal>
0.0000

> <Gold.Chemscore.Lipo>
74.6475

> <Gold.Chemscore.Internal_Hbond>
0.0000

> <Gold.Chemscore.DEClash>
4.0889

> <Gold.Chemscore.DEInternal>
2.4850

> <Gold.Chemscore.Rot>
1.5550

> <Gold.Chemscore.Internal.Correction>
   9.000000E+99

> <Gold.Chemscore.Hbonds>
donor molecule, donor type, donor heavy atom, donor atom, acceptor molecule, acceptor atom, score
      L1  H     5    26       P1  7948  0.09
      L1  H    12    45       P1  7948  0.96
      P1  H  7989  7998       L1    20  0.04
      P1  H  7997  8008       L1    21  0.11

> <Gold.Chemscore.Hbond.Weighted>
-10.7402

> <Gold.Chemscore.Metal.Weighted>
-0.0000

> <Gold.Chemscore.Lipo.Weighted>
-8.7338

> <Gold.Chemscore.Internal_Hbond.Weighted>
0.0000

> <Gold.Chemscore.DEClash.Weighted>
4.0889

> <Gold.Chemscore.DEInternal.Weighted>
2.4850

> <Gold.Chemscore.Rot.Weighted>
3.9809

> <Gold.Chemscore.Internal.Correction.Weighted>
   9.000000E+99

> <Gold.Protein.RotatedTorsions>
[ 6907 6896 6895 6894 ] final  178.96 input  -60.11 | X-H torsion
[ 7974 7965 7964 7962 ] final  -63.34 input  175.53 | X-H torsion
[ 8008 7997 7996 7995 ] final  -36.04 input   59.86 | X-H torsion
[ 10167 10162 10161 10158 ] final   53.95 input  -65.29 | X-H torsion
[ 10718 10713 10712 10709 ] final -146.65 input   66.30 | X-H torsion
[ 10763 10752 10751 10750 ] final  -25.93 input  -60.55 | X-H torsion
[ 11005 11000 10999 10996 ] final -121.19 input  -57.11 | X-H torsion

> <Gold.Protein.ActiveResidues>
 VAL166  LYS551  ARG553  GLY616  TRP617  ASP618  TYR619  PRO620  LYS621  CYS622 
 ASP623  PHE694  ASN695  SER759  ASP760  ASP761  ALA762  ILE779  LEU786  VAL792 
 PHE793  MET794  SER795  GLU796  ALA797  LYS798  CYS799  TRP800  GLU811  SER814 

> <Gold.Protein.RotatedAtoms>
  151.6794  133.3312  159.3215 H   0  0  0  0  0  0  0  0  0  0  0  0  # atno 6907 bound_to 6896
  150.7830  134.6793  159.6444 H   0  0  0  0  0  0  0  0  0  0  0  0  # atno 6908 bound_to 6896
  152.3892  134.6472  160.0166 H   0  0  0  0  0  0  0  0  0  0  0  0  # atno 6909 bound_to 6896
  145.7803  140.8766  143.0334 H   0  0  0  0  0  0  0  0  0  0  0  0  # atno 7974 bound_to 7965
  154.4082  140.1641  156.2309 H   0  0  0  0  0  0  0  0  0  0  0  0  # atno 8008 bound_to 7997
  155.9283  140.3416  155.6205 H   0  0  0  0  0  0  0  0  0  0  0  0  # atno 8009 bound_to 7997
  155.7138  140.0760  157.2351 H   0  0  0  0  0  0  0  0  0  0  0  0  # atno 8010 bound_to 7997
  140.2353  144.3643  150.6399 H   0  0  0  0  0  0  0  0  0  0  0  0  # atno 10167 bound_to 10162
  156.3976  130.7917  151.2125 H   0  0  0  0  0  0  0  0  0  0  0  0  # atno 10718 bound_to 10713
  153.7077  135.6952  153.5046 H   0  0  0  0  0  0  0  0  0  0  0  0  # atno 10763 bound_to 10752
  153.2295  135.4342  155.0579 H   0  0  0  0  0  0  0  0  0  0  0  0  # atno 10764 bound_to 10752
  154.8324  135.3480  154.6615 H   0  0  0  0  0  0  0  0  0  0  0  0  # atno 10765 bound_to 10752
  141.0089  134.0294  157.3441 H   0  0  0  0  0  0  0  0  0  0  0  0  # atno 11005 bound_to 11000
  144.6797  139.9979  143.7484 LP  0  0  0  0  0  0  0  0  0  0  0  0  # atno 17320 bound_to 7965
  146.0081  139.3146  143.0887 LP  0  0  0  0  0  0  0  0  0  0  0  0  # atno 17321 bound_to 7965
  140.6154  143.2172  151.6801 LP  0  0  0  0  0  0  0  0  0  0  0  0  # atno 17342 bound_to 10162
  139.5096  144.3572  152.0597 LP  0  0  0  0  0  0  0  0  0  0  0  0  # atno 17343 bound_to 10162
  157.7502  131.0297  150.4103 LP  0  0  0  0  0  0  0  0  0  0  0  0  # atno 17370 bound_to 10713
  156.4376  130.3985  149.6718 LP  0  0  0  0  0  0  0  0  0  0  0  0  # atno 17371 bound_to 10713
  139.9078  135.0184  156.7563 LP  0  0  0  0  0  0  0  0  0  0  0  0  # atno 17394 bound_to 11000
  140.6767  133.9511  155.7887 LP  0  0  0  0  0  0  0  0  0  0  0  0  # atno 17395 bound_to 11000

$$$$
