AV-unprocessed.smi:2251|AV-procd|sdf|9101|dock4
  -GOLD-   2272012303D 1   1.00000     0.00000
 Structure written by MMmdl.
 44 45  0  0  0  0  0  0  0  0  1 V2000
  146.4371  135.1999  162.0738 C   0  0  0  0  0  0  0  0  0  0  0  0
  147.5844  135.9912  161.4555 C   0  0  0  0  0  0  0  0  0  0  0  0
  148.1519  136.8682  162.1062 O   0  0  0  0  0  0  0  0  0  0  0  0
  147.9173  135.6689  160.1960 N   0  0  0  0  0  0  0  0  0  0  0  0
  148.9934  136.2877  159.4254 C   0  0  0  0  0  0  0  0  0  0  0  0
  148.6401  137.6933  158.9238 C   0  0  0  0  0  0  0  0  0  0  0  0
  147.4791  138.1039  158.9574 O   0  0  0  0  0  0  0  0  0  0  0  0
  149.6648  138.4321  158.4774 N   0  0  0  0  0  0  0  0  0  0  0  0
  149.5415  139.7930  157.9645 C   0  0  0  0  0  0  0  0  0  0  0  0
  150.8513  140.2942  157.2912 C   0  0  0  0  0  0  0  0  0  0  0  0
  151.1614  139.3826  156.0824 C   0  0  0  0  0  0  0  0  0  0  0  0
  152.3105  138.5555  156.0952 C   0  0  0  0  0  0  0  0  0  0  0  0
  152.5733  137.7194  154.9926 C   0  0  0  0  0  0  0  0  0  0  0  0
  151.7787  137.6546  153.9055 N   0  0  0  0  0  0  0  0  0  0  0  0
  150.6786  138.4343  153.8889 C   0  0  0  0  0  0  0  0  0  0  0  0
  150.3257  139.3041  154.9397 C   0  0  0  0  0  0  0  0  0  0  0  0
  150.7026  141.7887  156.8647 C   0  0  0  0  0  0  0  0  0  0  0  0
  150.5901  142.7766  158.0401 C   0  0  0  0  0  0  0  0  0  0  0  0
  151.7829  142.6410  158.9931 C   0  0  0  0  0  0  0  0  0  0  0  0
  151.9328  141.1950  159.4789 C   0  0  0  0  0  0  0  0  0  0  0  0
  152.0343  140.2097  158.2995 C   0  0  0  0  0  0  0  0  0  0  0  0
  145.5546  135.2407  161.4346 H   0  0  0  0  0  0  0  0  0  0  0  0
  146.1692  135.6039  163.0506 H   0  0  0  0  0  0  0  0  0  0  0  0
  146.7232  134.1557  162.2031 H   0  0  0  0  0  0  0  0  0  0  0  0
  147.4002  134.9298  159.7423 H   0  0  0  0  0  0  0  0  0  0  0  0
  149.8739  136.3606  160.0638 H   0  0  0  0  0  0  0  0  0  0  0  0
  149.2682  135.6477  158.5850 H   0  0  0  0  0  0  0  0  0  0  0  0
  150.5899  138.0273  158.4901 H   0  0  0  0  0  0  0  0  0  0  0  0
  148.6978  139.8285  157.2764 H   0  0  0  0  0  0  0  0  0  0  0  0
  149.2741  140.4487  158.7944 H   0  0  0  0  0  0  0  0  0  0  0  0
  152.9864  138.5477  156.9368 H   0  0  0  0  0  0  0  0  0  0  0  0
  153.4452  137.0822  154.9867 H   0  0  0  0  0  0  0  0  0  0  0  0
  150.0549  138.3610  153.0103 H   0  0  0  0  0  0  0  0  0  0  0  0
  149.4216  139.8839  154.8414 H   0  0  0  0  0  0  0  0  0  0  0  0
  151.5777  142.0857  156.2848 H   0  0  0  0  0  0  0  0  0  0  0  0
  149.8419  141.9228  156.2085 H   0  0  0  0  0  0  0  0  0  0  0  0
  150.5456  143.7962  157.6564 H   0  0  0  0  0  0  0  0  0  0  0  0
  149.6579  142.6210  158.5829 H   0  0  0  0  0  0  0  0  0  0  0  0
  152.6956  142.9511  158.4825 H   0  0  0  0  0  0  0  0  0  0  0  0
  151.6603  143.3111  159.8443 H   0  0  0  0  0  0  0  0  0  0  0  0
  152.8228  141.1107  160.1033 H   0  0  0  0  0  0  0  0  0  0  0  0
  151.0915  140.9311  160.1195 H   0  0  0  0  0  0  0  0  0  0  0  0
  152.1310  139.2015  158.7017 H   0  0  0  0  0  0  0  0  0  0  0  0
  152.9669  140.4093  157.7693 H   0  0  0  0  0  0  0  0  0  0  0  0
  1  2  1  0  0  0  0
  1 22  1  0  0  0  0
  1 23  1  0  0  0  0
  1 24  1  0  0  0  0
  2  3  2  0  0  0  0
  2  4  1  0  0  0  0
  4  5  1  0  0  0  0
  4 25  1  0  0  0  0
  5  6  1  0  0  0  0
  5 26  1  0  0  0  0
  5 27  1  0  0  0  0
  6  7  2  0  0  0  0
  6  8  1  0  0  0  0
  8  9  1  0  0  0  0
  8 28  1  0  0  0  0
  9 10  1  0  0  0  0
  9 29  1  0  0  0  0
  9 30  1  0  0  0  0
 10 21  1  0  0  0  0
 10 11  1  0  0  0  0
 10 17  1  0  0  0  0
 11 16  1  0  0  0  0
 11 12  2  0  0  0  0
 12 13  1  0  0  0  0
 12 31  1  0  0  0  0
 13 14  2  0  0  0  0
 13 32  1  0  0  0  0
 14 15  1  0  0  0  0
 15 16  2  0  0  0  0
 15 33  1  0  0  0  0
 16 34  1  0  0  0  0
 17 18  1  0  0  0  0
 17 35  1  0  0  0  0
 17 36  1  0  0  0  0
 18 19  1  0  0  0  0
 18 37  1  0  0  0  0
 18 38  1  0  0  0  0
 19 20  1  0  0  0  0
 19 39  1  0  0  0  0
 19 40  1  0  0  0  0
 20 21  1  0  0  0  0
 20 41  1  0  0  0  0
 20 42  1  0  0  0  0
 21 43  1  0  0  0  0
 21 44  1  0  0  0  0
M  END
> <s_m_source_file>
AV-unprocessed.smi

> <i_m_source_file_index>
2251

> <i_lp_mmshare_version>
43012

> <i_f3d_flags>
0

> <s_epik_input>
W0NIM11DKD1PKVtOSF1bQ0gyXUMoPU8pW05IXVtDSDJdQzEoW0NIMl1bQ0gyXVtDSDJdW0NIMl1bQ0gyXTEpYzJbY0hdW2NIXW5bY0hdW2NIXTI=

> <s_epik_cmdline>
J2VwaWtfcHl0aG9uJywgJy1waCcsICc3LjAnLCAnLXRuJywgJzgnLCAnLW1hJywgJzIwMCcsICctbWV0YWxfYmluZGluZycsICctaW1hZScsICc8aW5maWxlLm1hZT4nLCAnLW9tYWUnLCAnPG91dGZpbGUubWFlPic=

> <r_epik_Ionization_Penalty>
0.0619926

> <r_epik_Ionization_Penalty_Charging>
0

> <r_epik_Ionization_Penalty_Neutral>
0.0619926

> <r_epik_State_Penalty>
0.0538453

> <r_epik_Charging_Adjusted_Penalty>
0.0538453

> <i_epik_Tot_Q>
0

> <i_epik_Tot_abs_Q>
0

> <r_epik_Metal_State_Penalty>
0.048714

> <b_epik_Metal_Only>
0

> <s_lp_Force_Field>
OPLS_2005

> <r_lp_Energy>
14.8117

> <b_lp_Chiralities_Consistent>
1

> <s_lp_Variant>
AV-unprocessed.smi:2251-1

> <Gold.Version>
5.8.1

> <Gold.Id.Protein>
6NUR|6NUR_protein|mol2

> <Gold.PLP.Fitness>
40.7518

> <Gold.PLP.PLP>
-32.1997

> <Gold.PLP.part.hbond>
-2.3376

> <Gold.PLP.part.metal>
0.0000

> <Gold.PLP.part.buried>
-2.7497

> <Gold.PLP.part.nonpolar>
-29.7461

> <Gold.PLP.part.repulsive>
1.3003

> <Gold.PLP.ligand.clash>
0.0000

> <Gold.PLP.ligand.torsion>
0.3857

> <Gold.PLP.Chemscore.Hbond>
1.3245

> <Gold.PLP.Chemscore.CHOScore>
1.7503

> <Gold.PLP.Chemscore.Metal>
0.0000

> <Gold.Chemscore.Hbonds>
donor molecule, donor type, donor heavy atom, donor atom, acceptor molecule, acceptor atom, score
      P1  H  6931  6943       L1     3  1.00
      P1  H  6934  6947       L1     7  0.26
      L1  C    15    33       P1  7948  0.81
      L1  C    15    33       P1  7957  1.00

> <Gold.PLP.Chemscore.Internal.Correction>
0.0992

> <Gold.Rescore>
     Score         DG    S(hbond)    S(metal)    S(lipo)     H(rot)  DE(clash)    DE(int)     intcor
     15.37     -15.79       1.39        0.00      92.57       2.02       0.18       0.24       ----

> <Gold.Chemscore.Fitness>
15.3706

> <Gold.Chemscore.DG>
-15.7898

> <Gold.Chemscore.ZeroCoef>
-5.4800

> <Gold.Chemscore.Hbond>
1.3891

> <Gold.Chemscore.Metal>
0.0000

> <Gold.Chemscore.Lipo>
92.5736

> <Gold.Chemscore.Internal_Hbond>
0.0000

> <Gold.Chemscore.DEClash>
0.1787

> <Gold.Chemscore.DEInternal>
0.2404

> <Gold.Chemscore.Rot>
2.0160

> <Gold.Chemscore.Internal.Correction>
   9.000000E+99

> <Gold.Chemscore.Hbonds>
donor molecule, donor type, donor heavy atom, donor atom, acceptor molecule, acceptor atom, score
      P1  H  6931  6943       L1     3  1.00
      P1  H  6934  6947       L1     7  0.15

> <Gold.Chemscore.Hbond.Weighted>
-4.6397

> <Gold.Chemscore.Metal.Weighted>
-0.0000

> <Gold.Chemscore.Lipo.Weighted>
-10.8311

> <Gold.Chemscore.Internal_Hbond.Weighted>
0.0000

> <Gold.Chemscore.DEClash.Weighted>
0.1787

> <Gold.Chemscore.DEInternal.Weighted>
0.2404

> <Gold.Chemscore.Rot.Weighted>
5.1610

> <Gold.Chemscore.Internal.Correction.Weighted>
   9.000000E+99

> <Gold.Protein.RotatedTorsions>
[ 6907 6896 6895 6894 ] final  -50.83 input  -60.11 | X-H torsion
[ 7974 7965 7964 7962 ] final -163.42 input  175.53 | X-H torsion
[ 8008 7997 7996 7995 ] final    5.20 input   59.86 | X-H torsion
[ 10167 10162 10161 10158 ] final   47.41 input  -65.29 | X-H torsion
[ 10718 10713 10712 10709 ] final   80.88 input   66.30 | X-H torsion
[ 10763 10752 10751 10750 ] final -101.17 input  -60.55 | X-H torsion
[ 11005 11000 10999 10996 ] final  172.61 input  -57.11 | X-H torsion

> <Gold.Protein.ActiveResidues>
 VAL166  LYS551  ARG553  GLY616  TRP617  ASP618  TYR619  PRO620  LYS621  CYS622 
 ASP623  PHE694  ASN695  SER759  ASP760  ASP761  ALA762  ILE779  LEU786  VAL792 
 PHE793  MET794  SER795  GLU796  ALA797  LYS798  CYS799  TRP800  GLU811  SER814 

> <Gold.Protein.RotatedAtoms>
  150.8670  134.8035  159.7125 H   0  0  0  0  0  0  0  0  0  0  0  0  # atno 6907 bound_to 6896
  152.4688  134.5008  159.9734 H   0  0  0  0  0  0  0  0  0  0  0  0  # atno 6908 bound_to 6896
  151.5103  133.3448  159.2919 H   0  0  0  0  0  0  0  0  0  0  0  0  # atno 6909 bound_to 6896
  144.7327  140.3110  143.6188 H   0  0  0  0  0  0  0  0  0  0  0  0  # atno 7974 bound_to 7965
  154.7254  140.2720  155.6504 H   0  0  0  0  0  0  0  0  0  0  0  0  # atno 8008 bound_to 7997
  156.2835  140.2726  156.1863 H   0  0  0  0  0  0  0  0  0  0  0  0  # atno 8009 bound_to 7997
  155.0452  140.0371  157.2514 H   0  0  0  0  0  0  0  0  0  0  0  0  # atno 8010 bound_to 7997
  140.3039  144.2901  150.6213 H   0  0  0  0  0  0  0  0  0  0  0  0  # atno 10167 bound_to 10162
  157.6818  130.9979  150.2144 H   0  0  0  0  0  0  0  0  0  0  0  0  # atno 10718 bound_to 10713
  154.7636  135.4908  153.9512 H   0  0  0  0  0  0  0  0  0  0  0  0  # atno 10763 bound_to 10752
  153.1281  135.6747  153.9231 H   0  0  0  0  0  0  0  0  0  0  0  0  # atno 10764 bound_to 10752
  153.8942  135.3117  155.3426 H   0  0  0  0  0  0  0  0  0  0  0  0  # atno 10765 bound_to 10752
  140.3316  134.7352  157.4138 H   0  0  0  0  0  0  0  0  0  0  0  0  # atno 11005 bound_to 11000
  145.7665  139.1842  143.2237 LP  0  0  0  0  0  0  0  0  0  0  0  0  # atno 17320 bound_to 7965
  146.0945  140.7617  142.9579 LP  0  0  0  0  0  0  0  0  0  0  0  0  # atno 17321 bound_to 7965
  140.5627  143.2190  151.7738 LP  0  0  0  0  0  0  0  0  0  0  0  0  # atno 17342 bound_to 10162
  139.4908  144.4327  151.9854 LP  0  0  0  0  0  0  0  0  0  0  0  0  # atno 17343 bound_to 10162
  156.2808  130.3733  149.7937 LP  0  0  0  0  0  0  0  0  0  0  0  0  # atno 17370 bound_to 10713
  156.5626  130.8390  151.3333 LP  0  0  0  0  0  0  0  0  0  0  0  0  # atno 17371 bound_to 10713
  140.0856  134.5671  155.8496 LP  0  0  0  0  0  0  0  0  0  0  0  0  # atno 17394 bound_to 11000
  141.2062  133.6653  156.6226 LP  0  0  0  0  0  0  0  0  0  0  0  0  # atno 17395 bound_to 11000

$$$$
