AV-unprocessed.smi:1671|AV-procd|sdf|6699|dock4
  -GOLD-   22720 7433D 1   1.00000     0.00000
 Structure written by MMmdl.
 44 45  0  0  0  0  0  0  0  0  1 V2000
  149.5934  132.7944  154.3693 C   0  0  0  0  0  0  0  0  0  0  0  0
  148.7076  134.3689  154.5280 S   0  0  0  0  0  0  0  0  0  0  0  0
  149.9917  135.4154  155.2768 C   0  0  2  0  0  0  0  0  0  0  0  0
  150.4447  134.8598  156.6393 C   0  0  0  0  0  0  0  0  0  0  0  0
  149.5150  136.8698  155.3792 C   0  0  0  0  0  0  0  0  0  0  0  0
  149.2906  137.3836  156.4761 O   0  0  0  0  0  0  0  0  0  0  0  0
  149.3543  137.5235  154.2193 N   0  0  0  0  0  0  0  0  0  0  0  0
  148.8835  138.8975  154.1030 C   0  0  0  0  0  0  0  0  0  0  0  0
  149.4708  139.8083  155.1659 C   0  0  0  0  0  0  0  0  0  0  0  0
  148.6460  140.5590  156.0273 C   0  0  0  0  0  0  0  0  0  0  0  0
  149.2441  141.3948  156.9897 C   0  0  0  0  0  0  0  0  0  0  0  0
  150.6564  141.4584  157.0701 C   0  0  0  0  0  0  0  0  0  0  0  0
  151.2836  142.2858  158.0289 N   0  0  0  0  0  0  0  0  0  0  0  0
  151.7262  143.6136  157.6058 C   0  0  0  0  0  0  0  0  0  0  0  0
  152.0946  144.4716  158.8271 C   0  0  0  0  0  0  0  0  0  0  0  0
  153.0639  143.7908  159.6162 O   0  0  0  0  0  0  0  0  0  0  0  0
  152.5715  142.5515  160.1176 C   0  0  2  0  0  0  0  0  0  0  0  0
  153.6429  141.9416  161.0276 C   0  0  0  0  0  0  0  0  0  0  0  0
  152.2220  141.6269  158.9351 C   0  0  0  0  0  0  0  0  0  0  0  0
  151.4440  140.7424  156.2288 N   0  0  0  0  0  0  0  0  0  0  0  0
  150.8660  139.9452  155.3060 C   0  0  0  0  0  0  0  0  0  0  0  0
  148.9633  132.0623  153.8643 H   0  0  0  0  0  0  0  0  0  0  0  0
  149.8580  132.3973  155.3489 H   0  0  0  0  0  0  0  0  0  0  0  0
  150.5048  132.9244  153.7856 H   0  0  0  0  0  0  0  0  0  0  0  0
  150.8518  135.4058  154.6054 H   0  0  0  0  0  0  0  0  0  0  0  0
  151.1633  135.5246  157.1202 H   0  0  0  0  0  0  0  0  0  0  0  0
  150.9300  133.8904  156.5300 H   0  0  0  0  0  0  0  0  0  0  0  0
  149.6014  134.7321  157.3191 H   0  0  0  0  0  0  0  0  0  0  0  0
  149.5518  137.0301  153.3607 H   0  0  0  0  0  0  0  0  0  0  0  0
  149.1323  139.2747  153.1101 H   0  0  0  0  0  0  0  0  0  0  0  0
  147.7963  138.9260  154.1934 H   0  0  0  0  0  0  0  0  0  0  0  0
  147.5700  140.5035  155.9506 H   0  0  0  0  0  0  0  0  0  0  0  0
  148.6135  141.9849  157.6371 H   0  0  0  0  0  0  0  0  0  0  0  0
  152.5896  143.5124  156.9466 H   0  0  0  0  0  0  0  0  0  0  0  0
  150.9399  144.1156  157.0408 H   0  0  0  0  0  0  0  0  0  0  0  0
  152.5078  145.4269  158.5032 H   0  0  0  0  0  0  0  0  0  0  0  0
  151.2106  144.6943  159.4269 H   0  0  0  0  0  0  0  0  0  0  0  0
  151.6763  142.7377  160.7142 H   0  0  0  0  0  0  0  0  0  0  0  0
  153.3088  140.9918  161.4461 H   0  0  0  0  0  0  0  0  0  0  0  0
  153.8730  142.6080  161.8591 H   0  0  0  0  0  0  0  0  0  0  0  0
  154.5686  141.7594  160.4807 H   0  0  0  0  0  0  0  0  0  0  0  0
  151.8194  140.6943  159.3270 H   0  0  0  0  0  0  0  0  0  0  0  0
  153.1247  141.3722  158.3778 H   0  0  0  0  0  0  0  0  0  0  0  0
  151.5411  139.3991  154.6636 H   0  0  0  0  0  0  0  0  0  0  0  0
  1  2  1  0  0  0  0
  1 22  1  0  0  0  0
  1 23  1  0  0  0  0
  1 24  1  0  0  0  0
  2  3  1  0  0  0  0
  3  4  1  0  0  0  0
  3  5  1  0  0  0  0
  3 25  1  0  0  0  0
  4 26  1  0  0  0  0
  4 27  1  0  0  0  0
  4 28  1  0  0  0  0
  5  6  2  0  0  0  0
  5  7  1  0  0  0  0
  7  8  1  0  0  0  0
  7 29  1  0  0  0  0
  8  9  1  0  0  0  0
  8 30  1  0  0  0  0
  8 31  1  0  0  0  0
  9 21  1  0  0  0  0
  9 10  2  0  0  0  0
 10 11  1  0  0  0  0
 10 32  1  0  0  0  0
 11 12  2  0  0  0  0
 11 33  1  0  0  0  0
 12 13  1  0  0  0  0
 12 20  1  0  0  0  0
 13 19  1  0  0  0  0
 13 14  1  0  0  0  0
 14 15  1  0  0  0  0
 14 34  1  0  0  0  0
 14 35  1  0  0  0  0
 15 16  1  0  0  0  0
 15 36  1  0  0  0  0
 15 37  1  0  0  0  0
 16 17  1  0  0  0  0
 17 18  1  0  0  0  0
 17 19  1  0  0  0  0
 17 38  1  0  0  0  0
 18 39  1  0  0  0  0
 18 40  1  0  0  0  0
 18 41  1  0  0  0  0
 19 42  1  0  0  0  0
 19 43  1  0  0  0  0
 20 21  2  0  0  0  0
 21 44  1  0  0  0  0
M  END
> <s_m_source_file>
AV-unprocessed.smi

> <i_m_source_file_index>
1671

> <i_lp_mmshare_version>
43012

> <i_f3d_flags>
0

> <s_epik_input>
W0NIM11TW0NASF0oW0NIM10pQyg9TylbTkhdW0NIMl1jMVtjSF1bY0hdYyhuW2NIXTEpTjJbQ0gyXVtDSDJdT1tDQEBIXShbQ0gzXSlbQ0gyXTI=

> <s_epik_cmdline>
J2VwaWtfcHl0aG9uJywgJy1waCcsICc3LjAnLCAnLXRuJywgJzgnLCAnLW1hJywgJzIwMCcsICctbWV0YWxfYmluZGluZycsICctaW1hZScsICc8aW5maWxlLm1hZT4nLCAnLW9tYWUnLCAnPG91dGZpbGUubWFlPic=

> <r_lp_tautomer_probability>
1

> <r_epik_Ionization_Penalty>
0.00480033

> <r_epik_Ionization_Penalty_Charging>
0

> <r_epik_Ionization_Penalty_Neutral>
0.00480033

> <r_epik_State_Penalty>
0.00347981

> <r_epik_Charging_Adjusted_Penalty>
0.00347981

> <i_epik_Tot_Q>
0

> <i_epik_Tot_abs_Q>
0

> <r_epik_Metal_State_Penalty>
-0

> <b_epik_Metal_Only>
0

> <s_lp_Force_Field>
OPLS_2005

> <r_lp_Energy>
17.324

> <b_lp_Chiralities_Consistent>
1

> <s_lp_Variant>
AV-unprocessed.smi:1671-3

> <Gold.Version>
5.8.1

> <Gold.Id.Protein>
6NUR|6NUR_protein|mol2

> <Gold.PLP.Fitness>
40.2226

> <Gold.PLP.PLP>
-38.1841

> <Gold.PLP.part.hbond>
-1.0000

> <Gold.PLP.part.metal>
0.0000

> <Gold.PLP.part.buried>
-3.4580

> <Gold.PLP.part.nonpolar>
-33.0595

> <Gold.PLP.part.repulsive>
0.0659

> <Gold.PLP.ligand.clash>
0.0000

> <Gold.PLP.ligand.torsion>
0.7106

> <Gold.PLP.Chemscore.Hbond>
1.0000

> <Gold.PLP.Chemscore.CHOScore>
0.0000

> <Gold.PLP.Chemscore.Metal>
0.0000

> <Gold.Chemscore.Hbonds>
donor molecule, donor type, donor heavy atom, donor atom, acceptor molecule, acceptor atom, score
      L1  H     7    29       P1  7948  1.00

> <Gold.PLP.Chemscore.Internal.Correction>
0.4598

> <Gold.Rescore>
     Score         DG    S(hbond)    S(metal)    S(lipo)     H(rot)  DE(clash)    DE(int)     intcor
     14.02     -16.51       0.98        0.00     101.98       1.63       0.04       2.45       ----

> <Gold.Chemscore.Fitness>
14.0182

> <Gold.Chemscore.DG>
-16.5074

> <Gold.Chemscore.ZeroCoef>
-5.4800

> <Gold.Chemscore.Hbond>
0.9765

> <Gold.Chemscore.Metal>
0.0000

> <Gold.Chemscore.Lipo>
101.9786

> <Gold.Chemscore.Internal_Hbond>
0.0000

> <Gold.Chemscore.DEClash>
0.0364

> <Gold.Chemscore.DEInternal>
2.4528

> <Gold.Chemscore.Rot>
1.6272

> <Gold.Chemscore.Internal.Correction>
   9.000000E+99

> <Gold.Chemscore.Hbonds>
donor molecule, donor type, donor heavy atom, donor atom, acceptor molecule, acceptor atom, score
      L1  H     7    29       P1  7948  0.75

> <Gold.Chemscore.Hbond.Weighted>
-3.2616

> <Gold.Chemscore.Metal.Weighted>
-0.0000

> <Gold.Chemscore.Lipo.Weighted>
-11.9315

> <Gold.Chemscore.Internal_Hbond.Weighted>
0.0000

> <Gold.Chemscore.DEClash.Weighted>
0.0364

> <Gold.Chemscore.DEInternal.Weighted>
2.4528

> <Gold.Chemscore.Rot.Weighted>
4.1657

> <Gold.Chemscore.Internal.Correction.Weighted>
   9.000000E+99

> <Gold.Protein.RotatedTorsions>
[ 6907 6896 6895 6894 ] final   14.00 input  -60.11 | X-H torsion
[ 7974 7965 7964 7962 ] final  -65.29 input  175.53 | X-H torsion
[ 8008 7997 7996 7995 ] final    7.52 input   59.86 | X-H torsion
[ 10167 10162 10161 10158 ] final   74.04 input  -65.29 | X-H torsion
[ 10718 10713 10712 10709 ] final  143.97 input   66.30 | X-H torsion
[ 10763 10752 10751 10750 ] final   75.59 input  -60.55 | X-H torsion
[ 11005 11000 10999 10996 ] final  156.27 input  -57.11 | X-H torsion

> <Gold.Protein.ActiveResidues>
 VAL166  LYS551  ARG553  GLY616  TRP617  ASP618  TYR619  PRO620  LYS621  CYS622 
 ASP623  PHE694  ASN695  SER759  ASP760  ASP761  ALA762  ILE779  LEU786  VAL792 
 PHE793  MET794  SER795  GLU796  ALA797  LYS798  CYS799  TRP800  GLU811  SER814 

> <Gold.Protein.RotatedAtoms>
  151.7952  135.0724  160.0392 H   0  0  0  0  0  0  0  0  0  0  0  0  # atno 6907 bound_to 6896
  152.3128  133.5766  159.5700 H   0  0  0  0  0  0  0  0  0  0  0  0  # atno 6908 bound_to 6896
  150.7328  134.0043  159.3690 H   0  0  0  0  0  0  0  0  0  0  0  0  # atno 6909 bound_to 6896
  145.7561  140.8885  143.0454 H   0  0  0  0  0  0  0  0  0  0  0  0  # atno 7974 bound_to 7965
  154.7550  140.2774  155.6261 H   0  0  0  0  0  0  0  0  0  0  0  0  # atno 8008 bound_to 7997
  156.2903  140.2671  156.2240 H   0  0  0  0  0  0  0  0  0  0  0  0  # atno 8009 bound_to 7997
  155.0089  140.0372  157.2381 H   0  0  0  0  0  0  0  0  0  0  0  0  # atno 8010 bound_to 7997
  140.0180  144.5562  150.7604 H   0  0  0  0  0  0  0  0  0  0  0  0  # atno 10167 bound_to 10162
  157.3627  131.0967  151.0900 H   0  0  0  0  0  0  0  0  0  0  0  0  # atno 10718 bound_to 10713
  153.0665  135.4983  154.8211 H   0  0  0  0  0  0  0  0  0  0  0  0  # atno 10763 bound_to 10752
  154.6961  135.2993  154.9412 H   0  0  0  0  0  0  0  0  0  0  0  0  # atno 10764 bound_to 10752
  154.0151  135.6749  153.4821 H   0  0  0  0  0  0  0  0  0  0  0  0  # atno 10765 bound_to 10752
  140.1659  134.8577  157.2631 H   0  0  0  0  0  0  0  0  0  0  0  0  # atno 11005 bound_to 11000
  144.6840  139.9658  143.7481 LP  0  0  0  0  0  0  0  0  0  0  0  0  # atno 17320 bound_to 7965
  146.0310  139.3335  143.0755 LP  0  0  0  0  0  0  0  0  0  0  0  0  # atno 17321 bound_to 7965
  140.7354  143.2740  151.3798 LP  0  0  0  0  0  0  0  0  0  0  0  0  # atno 17342 bound_to 10162
  139.6159  144.1004  152.2345 LP  0  0  0  0  0  0  0  0  0  0  0  0  # atno 17343 bound_to 10162
  157.2034  130.6405  149.5747 LP  0  0  0  0  0  0  0  0  0  0  0  0  # atno 17370 bound_to 10713
  155.9740  130.4683  150.6356 LP  0  0  0  0  0  0  0  0  0  0  0  0  # atno 17371 bound_to 10713
  140.2435  134.3768  155.7471 LP  0  0  0  0  0  0  0  0  0  0  0  0  # atno 17394 bound_to 11000
  141.2213  133.7278  156.8825 LP  0  0  0  0  0  0  0  0  0  0  0  0  # atno 17395 bound_to 11000

$$$$
