AV-unprocessed.smi:1563|AV-procd|sdf|6290|dock10
  -GOLD-   22720 6493D 1   1.00000     0.00000
 Structure written by MMmdl.
 43 44  0  0  0  0  0  0  0  0  1 V2000
  146.7232  142.0714  154.6886 C   0  0  0  0  0  0  0  0  0  0  0  0
  147.5801  140.8171  154.8229 C   0  0  0  0  0  0  0  0  0  0  0  0
  147.1639  139.7390  154.4001 O   0  0  0  0  0  0  0  0  0  0  0  0
  148.7777  140.9733  155.4072 N   0  0  0  0  0  0  0  0  0  0  0  0
  149.7518  139.9085  155.6236 C   0  0  1  0  0  0  0  0  0  0  0  0
  149.8592  139.0027  154.3747 C   0  0  0  0  0  0  0  0  0  0  0  0
  151.0237  137.9996  154.4856 C   0  0  0  0  0  0  0  0  0  0  0  0
  152.3278  138.7084  154.8933 C   0  0  0  0  0  0  0  0  0  0  0  0
  152.0917  139.4303  156.1548 N   0  0  0  0  0  0  0  0  0  0  0  0
  152.4818  139.0303  157.3916 C   0  0  0  0  0  0  0  0  0  0  0  0
  152.8663  137.8865  157.6403 O   0  0  0  0  0  0  0  0  0  0  0  0
  152.4031  139.9781  158.3410 N   0  0  0  0  0  0  0  0  0  0  0  0
  152.7956  139.8054  159.7348 C   0  0  0  0  0  0  0  0  0  0  0  0
  153.6865  140.9632  160.2155 C   0  0  0  0  0  0  0  0  0  0  0  0
  152.8828  142.2019  160.5617 C   0  0  0  0  0  0  0  0  0  0  0  0
  152.5704  142.5041  161.9043 C   0  0  0  0  0  0  0  0  0  0  0  0
  151.8170  143.6630  162.1732 C   0  0  0  0  0  0  0  0  0  0  0  0
  151.4062  144.4703  161.0950 C   0  0  0  0  0  0  0  0  0  0  0  0
  151.7679  144.0803  159.7900 C   0  0  0  0  0  0  0  0  0  0  0  0
  152.4901  142.9709  159.5210 N   0  0  0  0  0  0  0  0  0  0  0  0
  151.1260  140.5197  155.9653 C   0  0  0  0  0  0  0  0  0  0  0  0
  146.8089  142.6990  155.5763 H   0  0  0  0  0  0  0  0  0  0  0  0
  145.6730  141.8076  154.5594 H   0  0  0  0  0  0  0  0  0  0  0  0
  147.0399  142.6520  153.8219 H   0  0  0  0  0  0  0  0  0  0  0  0
  149.0339  141.8972  155.7237 H   0  0  0  0  0  0  0  0  0  0  0  0
  149.4323  139.3019  156.4736 H   0  0  0  0  0  0  0  0  0  0  0  0
  148.9232  138.4679  154.2100 H   0  0  0  0  0  0  0  0  0  0  0  0
  150.0169  139.6243  153.4923 H   0  0  0  0  0  0  0  0  0  0  0  0
  150.7782  137.2369  155.2260 H   0  0  0  0  0  0  0  0  0  0  0  0
  151.1589  137.4790  153.5373 H   0  0  0  0  0  0  0  0  0  0  0  0
  153.1444  137.9884  154.9413 H   0  0  0  0  0  0  0  0  0  0  0  0
  152.6201  139.4205  154.1201 H   0  0  0  0  0  0  0  0  0  0  0  0
  152.0677  140.8914  158.0711 H   0  0  0  0  0  0  0  0  0  0  0  0
  151.8888  139.7566  160.3381 H   0  0  0  0  0  0  0  0  0  0  0  0
  153.3070  138.8499  159.8641 H   0  0  0  0  0  0  0  0  0  0  0  0
  154.2608  140.6589  161.0915 H   0  0  0  0  0  0  0  0  0  0  0  0
  154.4168  141.2182  159.4460 H   0  0  0  0  0  0  0  0  0  0  0  0
  152.8979  141.8633  162.7099 H   0  0  0  0  0  0  0  0  0  0  0  0
  151.5586  143.9275  163.1879 H   0  0  0  0  0  0  0  0  0  0  0  0
  150.8273  145.3663  161.2637 H   0  0  0  0  0  0  0  0  0  0  0  0
  151.4687  144.6750  158.9398 H   0  0  0  0  0  0  0  0  0  0  0  0
  151.4664  141.1674  155.1558 H   0  0  0  0  0  0  0  0  0  0  0  0
  151.0475  141.1638  156.8427 H   0  0  0  0  0  0  0  0  0  0  0  0
  1  2  1  0  0  0  0
  1 22  1  0  0  0  0
  1 23  1  0  0  0  0
  1 24  1  0  0  0  0
  2  3  2  0  0  0  0
  2  4  1  0  0  0  0
  4  5  1  0  0  0  0
  4 25  1  0  0  0  0
  5 21  1  0  0  0  0
  5  6  1  0  0  0  0
  5 26  1  0  0  0  0
  6  7  1  0  0  0  0
  6 27  1  0  0  0  0
  6 28  1  0  0  0  0
  7  8  1  0  0  0  0
  7 29  1  0  0  0  0
  7 30  1  0  0  0  0
  8  9  1  0  0  0  0
  8 31  1  0  0  0  0
  8 32  1  0  0  0  0
  9 10  1  0  0  0  0
  9 21  1  0  0  0  0
 10 11  2  0  0  0  0
 10 12  1  0  0  0  0
 12 13  1  0  0  0  0
 12 33  1  0  0  0  0
 13 14  1  0  0  0  0
 13 34  1  0  0  0  0
 13 35  1  0  0  0  0
 14 15  1  0  0  0  0
 14 36  1  0  0  0  0
 14 37  1  0  0  0  0
 15 20  1  0  0  0  0
 15 16  2  0  0  0  0
 16 17  1  0  0  0  0
 16 38  1  0  0  0  0
 17 18  2  0  0  0  0
 17 39  1  0  0  0  0
 18 19  1  0  0  0  0
 18 40  1  0  0  0  0
 19 20  2  0  0  0  0
 19 41  1  0  0  0  0
 21 42  1  0  0  0  0
 21 43  1  0  0  0  0
M  END
> <s_m_source_file>
AV-unprocessed.smi

> <i_m_source_file_index>
1563

> <i_lp_mmshare_version>
43012

> <i_f3d_flags>
0

> <s_epik_input>
W0NIM11DKD1PKVtOSF1bQ0BASF0xW0NIMl1bQ0gyXVtDSDJdTihbQ0gyXTEpQyg9TylbTkhdW0NIMl1bQ0gyXWMyW2NIXVtjSF1bY0hdW2NIXW4y

> <s_epik_cmdline>
J2VwaWtfcHl0aG9uJywgJy1waCcsICc3LjAnLCAnLXRuJywgJzgnLCAnLW1hJywgJzIwMCcsICctbWV0YWxfYmluZGluZycsICctaW1hZScsICc8aW5maWxlLm1hZT4nLCAnLW9tYWUnLCAnPG91dGZpbGUubWFlPic=

> <r_epik_Ionization_Penalty>
0.0442074

> <r_epik_Ionization_Penalty_Charging>
0

> <r_epik_Ionization_Penalty_Neutral>
0.0442074

> <r_epik_State_Penalty>
0.0374027

> <r_epik_Charging_Adjusted_Penalty>
0.0374027

> <i_epik_Tot_Q>
0

> <i_epik_Tot_abs_Q>
0

> <r_epik_Metal_State_Penalty>
0.0347963

> <b_epik_Metal_Only>
0

> <s_lp_Force_Field>
OPLS_2005

> <r_lp_Energy>
22.675

> <b_lp_Chiralities_Consistent>
1

> <s_lp_Variant>
AV-unprocessed.smi:1563-2

> <Gold.Version>
5.8.1

> <Gold.Id.Protein>
6NUR|6NUR_protein|mol2

> <Gold.PLP.Fitness>
49.6082

> <Gold.PLP.PLP>
-51.2258

> <Gold.PLP.part.hbond>
0.0000

> <Gold.PLP.part.metal>
0.0000

> <Gold.PLP.part.buried>
-4.8223

> <Gold.PLP.part.nonpolar>
-45.6250

> <Gold.PLP.part.repulsive>
0.3740

> <Gold.PLP.ligand.clash>
0.0000

> <Gold.PLP.ligand.torsion>
0.8353

> <Gold.PLP.Chemscore.Hbond>
0.0000

> <Gold.PLP.Chemscore.CHOScore>
0.0000

> <Gold.PLP.Chemscore.Metal>
0.0000

> <Gold.PLP.Chemscore.Internal.Correction>
0.0529

> <Gold.Rescore>
     Score         DG    S(hbond)    S(metal)    S(lipo)     H(rot)  DE(clash)    DE(int)     intcor
     12.96     -15.05       0.00        0.00     118.58       1.68       0.06       2.02       ----

> <Gold.Chemscore.Fitness>
12.9631

> <Gold.Chemscore.DG>
-15.0494

> <Gold.Chemscore.ZeroCoef>
-5.4800

> <Gold.Chemscore.Hbond>
0.0000

> <Gold.Chemscore.Metal>
0.0000

> <Gold.Chemscore.Lipo>
118.5777

> <Gold.Chemscore.Internal_Hbond>
0.0000

> <Gold.Chemscore.DEClash>
0.0621

> <Gold.Chemscore.DEInternal>
2.0241

> <Gold.Chemscore.Rot>
1.6813

> <Gold.Chemscore.Internal.Correction>
   9.000000E+99

> <Gold.Chemscore.Hbond.Weighted>
-0.0000

> <Gold.Chemscore.Metal.Weighted>
-0.0000

> <Gold.Chemscore.Lipo.Weighted>
-13.8736

> <Gold.Chemscore.Internal_Hbond.Weighted>
0.0000

> <Gold.Chemscore.DEClash.Weighted>
0.0621

> <Gold.Chemscore.DEInternal.Weighted>
2.0241

> <Gold.Chemscore.Rot.Weighted>
4.3042

> <Gold.Chemscore.Internal.Correction.Weighted>
   9.000000E+99

> <Gold.Protein.RotatedTorsions>
[ 6907 6896 6895 6894 ] final  112.92 input  -60.11 | X-H torsion
[ 7974 7965 7964 7962 ] final -178.83 input  175.53 | X-H torsion
[ 8008 7997 7996 7995 ] final  121.00 input   59.86 | X-H torsion
[ 10167 10162 10161 10158 ] final   95.39 input  -65.29 | X-H torsion
[ 10718 10713 10712 10709 ] final  161.71 input   66.30 | X-H torsion
[ 10763 10752 10751 10750 ] final   74.98 input  -60.55 | X-H torsion
[ 11005 11000 10999 10996 ] final -101.47 input  -57.11 | X-H torsion

> <Gold.Protein.ActiveResidues>
 VAL166  LYS551  ARG553  GLY616  TRP617  ASP618  TYR619  PRO620  LYS621  CYS622 
 ASP623  PHE694  ASN695  SER759  ASP760  ASP761  ALA762  ILE779  LEU786  VAL792 
 PHE793  MET794  SER795  GLU796  ALA797  LYS798  CYS799  TRP800  GLU811  SER814 

> <Gold.Protein.RotatedAtoms>
  152.4890  133.8448  159.7171 H   0  0  0  0  0  0  0  0  0  0  0  0  # atno 6907 bound_to 6896
  150.9002  133.7120  159.2888 H   0  0  0  0  0  0  0  0  0  0  0  0  # atno 6908 bound_to 6896
  151.4563  135.1038  159.9764 H   0  0  0  0  0  0  0  0  0  0  0  0  # atno 6909 bound_to 6896
  144.7133  140.0809  143.6425 H   0  0  0  0  0  0  0  0  0  0  0  0  # atno 7974 bound_to 7965
  156.2667  140.2818  156.1238 H   0  0  0  0  0  0  0  0  0  0  0  0  # atno 8008 bound_to 7997
  155.1127  140.0391  157.2746 H   0  0  0  0  0  0  0  0  0  0  0  0  # atno 8009 bound_to 7997
  154.6730  140.2592  155.6993 H   0  0  0  0  0  0  0  0  0  0  0  0  # atno 8010 bound_to 7997
  139.7993  144.6820  150.9786 H   0  0  0  0  0  0  0  0  0  0  0  0  # atno 10167 bound_to 10162
  157.1327  131.0521  151.2364 H   0  0  0  0  0  0  0  0  0  0  0  0  # atno 10718 bound_to 10713
  153.0623  135.5006  154.8122 H   0  0  0  0  0  0  0  0  0  0  0  0  # atno 10763 bound_to 10752
  154.6901  135.2983  154.9493 H   0  0  0  0  0  0  0  0  0  0  0  0  # atno 10764 bound_to 10752
  154.0251  135.6737  153.4828 H   0  0  0  0  0  0  0  0  0  0  0  0  # atno 10765 bound_to 10752
  141.1229  133.8480  157.1236 H   0  0  0  0  0  0  0  0  0  0  0  0  # atno 11005 bound_to 11000
  145.9703  139.2865  143.1103 LP  0  0  0  0  0  0  0  0  0  0  0  0  # atno 17320 bound_to 7965
  145.9124  140.9171  143.0447 LP  0  0  0  0  0  0  0  0  0  0  0  0  # atno 17321 bound_to 7965
  140.7820  143.4298  151.0712 LP  0  0  0  0  0  0  0  0  0  0  0  0  # atno 17342 bound_to 10162
  139.7971  143.8136  152.3159 LP  0  0  0  0  0  0  0  0  0  0  0  0  # atno 17343 bound_to 10162
  157.4378  130.7527  149.7043 LP  0  0  0  0  0  0  0  0  0  0  0  0  # atno 17370 bound_to 10713
  155.9804  130.4029  150.3528 LP  0  0  0  0  0  0  0  0  0  0  0  0  # atno 17371 bound_to 10713
  140.0202  134.9949  157.0576 LP  0  0  0  0  0  0  0  0  0  0  0  0  # atno 17394 bound_to 11000
  140.4452  134.1639  155.7177 LP  0  0  0  0  0  0  0  0  0  0  0  0  # atno 17395 bound_to 11000

$$$$
