AV-unprocessed.smi:249|AV-procd|sdf|1899|dock10
  -GOLD-   2262020573D 1   1.00000     0.00000
 Structure written by MMmdl.
 64 67  0  0  0  0  0  0  0  0  2 V2000
  146.1821  132.5514  151.1845 C   0  0  0  0  0  0  0  0  0  0  0  0
  147.3054  132.1706  152.1606 C   0  0  0  0  0  0  0  0  0  0  0  0
  148.6605  132.5862  151.6897 N   0  3  1  0  0  0  0  0  0  0  0  0
  148.8377  134.0600  151.5615 C   0  0  0  0  0  0  0  0  0  0  0  0
  148.9248  134.7473  152.9371 C   0  0  0  0  0  0  0  0  0  0  0  0
  150.0622  134.1451  153.7928 C   0  0  1  0  0  0  0  0  0  0  0  0
  150.2045  134.7762  155.1130 N   0  0  0  0  0  0  0  0  0  0  0  0
  149.1081  134.6139  156.0602 C   0  0  0  0  0  0  0  0  0  0  0  0
  150.7884  135.9974  155.1512 C   0  0  0  0  0  0  0  0  0  0  0  0
  151.0801  136.5877  153.9652 N   0  0  0  0  0  0  0  0  0  0  0  0
  151.6175  137.8107  153.9396 C   0  0  0  0  0  0  0  0  0  0  0  0
  151.9258  138.6077  154.9644 N   0  0  0  0  0  0  0  0  0  0  0  0
  151.6453  138.0121  156.1588 C   0  0  0  0  0  0  0  0  0  0  0  0
  151.0990  136.7114  156.3436 C   0  0  0  0  0  0  0  0  0  0  0  0
  150.9668  136.4424  157.7013 N   0  0  0  0  0  0  0  0  0  0  0  0
  151.3928  137.5284  158.2852 C   0  0  0  0  0  0  0  0  0  0  0  0
  151.7827  138.5361  157.4322 N   0  0  0  0  0  0  0  0  0  0  0  0
  152.2617  139.8525  157.8109 C   0  0  0  0  0  0  0  0  0  0  0  0
  151.1474  140.9139  158.0390 C   0  0  2  0  0  0  0  0  0  0  0  0
  150.2891  141.0216  156.7546 C   0  0  0  0  0  0  0  0  0  0  0  0
  151.0973  141.1509  155.6029 O   0  0  0  0  0  0  0  0  0  0  0  0
  151.6883  142.3096  158.4818 C   0  0  2  0  0  0  0  0  0  0  0  0
  152.5675  142.3287  159.7273 C   0  0  0  0  0  0  0  0  0  0  0  0
  152.5060  143.7834  160.1813 C   0  0  0  0  0  0  0  0  0  0  0  0
  151.2618  144.2872  159.7173 O   0  0  0  0  0  0  0  0  0  0  0  0
  150.6062  143.3003  158.9322 C   0  0  0  0  0  0  0  0  0  0  0  0
  149.9146  132.6073  153.8592 C   0  0  0  0  0  0  0  0  0  0  0  0
  149.8040  131.9945  152.4483 C   0  0  1  0  0  0  0  0  0  0  0  0
  149.7952  130.4554  152.4739 C   0  0  0  0  0  0  0  0  0  0  0  0
  145.2399  132.0981  151.4935 H   0  0  0  0  0  0  0  0  0  0  0  0
  146.3988  132.2014  150.1749 H   0  0  0  0  0  0  0  0  0  0  0  0
  146.0169  133.6275  151.1454 H   0  0  0  0  0  0  0  0  0  0  0  0
  147.0917  132.5744  153.1499 H   0  0  0  0  0  0  0  0  0  0  0  0
  147.2682  131.0877  152.2625 H   0  0  0  0  0  0  0  0  0  0  0  0
  149.7576  134.2498  151.0069 H   0  0  0  0  0  0  0  0  0  0  0  0
  148.0447  134.5045  150.9623 H   0  0  0  0  0  0  0  0  0  0  0  0
  149.0941  135.8159  152.8001 H   0  0  0  0  0  0  0  0  0  0  0  0
  147.9633  134.6548  153.4409 H   0  0  0  0  0  0  0  0  0  0  0  0
  150.9941  134.3545  153.2658 H   0  0  0  0  0  0  0  0  0  0  0  0
  149.3518  135.0678  157.0219 H   0  0  0  0  0  0  0  0  0  0  0  0
  148.9171  133.5545  156.2328 H   0  0  0  0  0  0  0  0  0  0  0  0
  148.1877  135.0666  155.6919 H   0  0  0  0  0  0  0  0  0  0  0  0
  151.8195  138.2129  152.9578 H   0  0  0  0  0  0  0  0  0  0  0  0
  151.4081  137.6344  159.3604 H   0  0  0  0  0  0  0  0  0  0  0  0
  152.8644  139.7525  158.7146 H   0  0  0  0  0  0  0  0  0  0  0  0
  152.9445  140.1760  157.0249 H   0  0  0  0  0  0  0  0  0  0  0  0
  150.4866  140.5559  158.8291 H   0  0  0  0  0  0  0  0  0  0  0  0
  149.6807  140.1316  156.6013 H   0  0  0  0  0  0  0  0  0  0  0  0
  149.6067  141.8699  156.8142 H   0  0  0  0  0  0  0  0  0  0  0  0
  152.0012  141.2018  155.8739 H   0  0  0  0  0  0  0  0  0  0  0  0
  152.2401  142.7607  157.6556 H   0  0  0  0  0  0  0  0  0  0  0  0
  152.1501  141.6805  160.4992 H   0  0  0  0  0  0  0  0  0  0  0  0
  153.5967  142.0253  159.5481 H   0  0  0  0  0  0  0  0  0  0  0  0
  152.5944  143.8821  161.2631 H   0  0  0  0  0  0  0  0  0  0  0  0
  153.3077  144.3627  159.7220 H   0  0  0  0  0  0  0  0  0  0  0  0
  150.0858  143.7657  158.0948 H   0  0  0  0  0  0  0  0  0  0  0  0
  149.8641  142.8024  159.5579 H   0  0  0  0  0  0  0  0  0  0  0  0
  150.7723  132.1731  154.3733 H   0  0  0  0  0  0  0  0  0  0  0  0
  149.0363  132.3300  154.4410 H   0  0  0  0  0  0  0  0  0  0  0  0
  150.7057  132.2744  151.9008 H   0  0  0  0  0  0  0  0  0  0  0  0
  150.7451  130.0740  152.8493 H   0  0  0  0  0  0  0  0  0  0  0  0
  149.6504  130.0428  151.4750 H   0  0  0  0  0  0  0  0  0  0  0  0
  149.0172  130.0569  153.1249 H   0  0  0  0  0  0  0  0  0  0  0  0
  148.7371  132.2166  150.7528 H   0  0  0  0  0  0  0  0  0  0  0  0
  1  2  1  0  0  0  0
  1 30  1  0  0  0  0
  1 31  1  0  0  0  0
  1 32  1  0  0  0  0
  2  3  1  0  0  0  0
  2 33  1  0  0  0  0
  2 34  1  0  0  0  0
  3 28  1  0  0  0  0
  3  4  1  0  0  0  0
  3 64  1  0  0  0  0
  4  5  1  0  0  0  0
  4 35  1  0  0  0  0
  4 36  1  0  0  0  0
  5  6  1  0  0  0  0
  5 37  1  0  0  0  0
  5 38  1  0  0  0  0
  6  7  1  0  0  0  0
  6 27  1  0  0  0  0
  6 39  1  0  0  0  0
  7  8  1  0  0  0  0
  7  9  1  0  0  0  0
  8 40  1  0  0  0  0
  8 41  1  0  0  0  0
  8 42  1  0  0  0  0
  9 14  1  0  0  0  0
  9 10  2  0  0  0  0
 10 11  1  0  0  0  0
 11 12  2  0  0  0  0
 11 43  1  0  0  0  0
 12 13  1  0  0  0  0
 13 17  1  0  0  0  0
 13 14  2  0  0  0  0
 14 15  1  0  0  0  0
 15 16  2  0  0  0  0
 16 17  1  0  0  0  0
 16 44  1  0  0  0  0
 17 18  1  0  0  0  0
 18 19  1  0  0  0  0
 18 45  1  0  0  0  0
 18 46  1  0  0  0  0
 19 20  1  0  0  0  0
 19 22  1  0  0  0  0
 19 47  1  0  0  0  0
 20 21  1  0  0  0  0
 20 48  1  0  0  0  0
 20 49  1  0  0  0  0
 21 50  1  0  0  0  0
 22 26  1  0  0  0  0
 22 23  1  0  0  0  0
 22 51  1  0  0  0  0
 23 24  1  0  0  0  0
 23 52  1  0  0  0  0
 23 53  1  0  0  0  0
 24 25  1  0  0  0  0
 24 54  1  0  0  0  0
 24 55  1  0  0  0  0
 25 26  1  0  0  0  0
 26 56  1  0  0  0  0
 26 57  1  0  0  0  0
 27 28  1  0  0  0  0
 27 58  1  0  0  0  0
 27 59  1  0  0  0  0
 28 29  1  0  0  0  0
 28 60  1  0  0  0  0
 29 61  1  0  0  0  0
 29 62  1  0  0  0  0
 29 63  1  0  0  0  0
M  CHG  1   3   1
M  END
> <s_m_source_file>
AV-unprocessed.smi

> <i_m_source_file_index>
249

> <i_lp_mmshare_version>
43012

> <i_f3d_flags>
0

> <s_epik_input>
W0NIM11bQ0gyXU4xW0NIMl1bQ0gyXVtDQEhdKFtDSDJdW0NASF0xW0NIM10pTihbQ0gzXSljKG5bY0hdbjIpYyhjMjMpbltjSF1uM1tDSDJdW0NASF0oW0NIMl1bT0hdKVtDQEBIXTRbQ0gyXVtDSDJdT1tDSDJdNA==

> <s_epik_cmdline>
J2VwaWtfcHl0aG9uJywgJy1waCcsICc3LjAnLCAnLXRuJywgJzgnLCAnLW1hJywgJzIwMCcsICctbWV0YWxfYmluZGluZycsICctaW1hZScsICc8aW5maWxlLm1hZT4nLCAnLW9tYWUnLCAnPG91dGZpbGUubWFlPic=

> <r_lp_tautomer_probability>
1

> <r_epik_Ionization_Penalty>
0.00294688

> <r_epik_Ionization_Penalty_Charging>
0.00169971

> <r_epik_Ionization_Penalty_Neutral>
0.00124717

> <r_epik_State_Penalty>
-0

> <r_epik_Charging_Adjusted_Penalty>
0.00169971

> <i_epik_Tot_Q>
1

> <i_epik_Tot_abs_Q>
1

> <r_epik_Metal_State_Penalty>
-0

> <b_epik_Metal_Only>
0

> <s_lp_Force_Field>
OPLS_2005

> <r_lp_Energy>
54.564

> <b_lp_Chiralities_Consistent>
1

> <s_lp_Variant>
AV-unprocessed.smi:249-2

> <Gold.Version>
5.8.1

> <Gold.Id.Protein>
6NUR|6NUR_protein|mol2

> <Gold.PLP.Fitness>
52.0418

> <Gold.PLP.PLP>
-43.1123

> <Gold.PLP.part.hbond>
-4.0000

> <Gold.PLP.part.metal>
0.0000

> <Gold.PLP.part.buried>
-3.6865

> <Gold.PLP.part.nonpolar>
-34.7260

> <Gold.PLP.part.repulsive>
0.3069

> <Gold.PLP.ligand.clash>
0.0000

> <Gold.PLP.ligand.torsion>
0.9890

> <Gold.PLP.Chemscore.Hbond>
2.3839

> <Gold.PLP.Chemscore.CHOScore>
0.9425

> <Gold.PLP.Chemscore.Metal>
0.0000

> <Gold.Chemscore.Hbonds>
donor molecule, donor type, donor heavy atom, donor atom, acceptor molecule, acceptor atom, score
      L1  H     3    64       P1 10747  0.49
      P1  H  7989  7998       L1    21  0.23
      L1  C    11    43       P1  7949  0.18

> <Gold.PLP.Chemscore.Internal.Correction>
0.9284

> <Gold.Rescore>
     Score         DG    S(hbond)    S(metal)    S(lipo)     H(rot)  DE(clash)    DE(int)     intcor
     12.15     -17.41       2.23        0.00     101.79       2.90       1.71       3.55       ----

> <Gold.Chemscore.Fitness>
12.1529

> <Gold.Chemscore.DG>
-17.4076

> <Gold.Chemscore.ZeroCoef>
-5.4800

> <Gold.Chemscore.Hbond>
2.2286

> <Gold.Chemscore.Metal>
0.0000

> <Gold.Chemscore.Lipo>
101.7935

> <Gold.Chemscore.Internal_Hbond>
0.0000

> <Gold.Chemscore.DEClash>
1.7083

> <Gold.Chemscore.DEInternal>
3.5464

> <Gold.Chemscore.Rot>
2.9006

> <Gold.Chemscore.Internal.Correction>
   9.000000E+99

> <Gold.Chemscore.Hbonds>
donor molecule, donor type, donor heavy atom, donor atom, acceptor molecule, acceptor atom, score
      L1  H     3    64       P1 10747  0.49
      P1  H  7989  7998       L1    21  0.02

> <Gold.Chemscore.Hbond.Weighted>
-7.4434

> <Gold.Chemscore.Metal.Weighted>
-0.0000

> <Gold.Chemscore.Lipo.Weighted>
-11.9098

> <Gold.Chemscore.Internal_Hbond.Weighted>
0.0000

> <Gold.Chemscore.DEClash.Weighted>
1.7083

> <Gold.Chemscore.DEInternal.Weighted>
3.5464

> <Gold.Chemscore.Rot.Weighted>
7.4256

> <Gold.Chemscore.Internal.Correction.Weighted>
   9.000000E+99

> <Gold.Protein.RotatedTorsions>
[ 6907 6896 6895 6894 ] final  -35.99 input  -60.11 | X-H torsion
[ 7974 7965 7964 7962 ] final   22.34 input  175.53 | X-H torsion
[ 8008 7997 7996 7995 ] final  -53.32 input   59.86 | X-H torsion
[ 10167 10162 10161 10158 ] final  -16.38 input  -65.29 | X-H torsion
[ 10718 10713 10712 10709 ] final   33.20 input   66.30 | X-H torsion
[ 10763 10752 10751 10750 ] final   54.85 input  -60.55 | X-H torsion
[ 11005 11000 10999 10996 ] final  -99.87 input  -57.11 | X-H torsion

> <Gold.Protein.ActiveResidues>
 VAL166  LYS551  ARG553  GLY616  TRP617  ASP618  TYR619  PRO620  LYS621  CYS622 
 ASP623  PHE694  ASN695  SER759  ASP760  ASP761  ALA762  ILE779  LEU786  VAL792 
 PHE793  MET794  SER795  GLU796  ALA797  LYS798  CYS799  TRP800  GLU811  SER814 

> <Gold.Protein.RotatedAtoms>
  151.0328  134.9552  159.8120 H   0  0  0  0  0  0  0  0  0  0  0  0  # atno 6907 bound_to 6896
  152.5349  134.2758  159.8998 H   0  0  0  0  0  0  0  0  0  0  0  0  # atno 6908 bound_to 6896
  151.2768  133.4186  159.2658 H   0  0  0  0  0  0  0  0  0  0  0  0  # atno 6909 bound_to 6896
  146.2033  139.7899  142.8745 H   0  0  0  0  0  0  0  0  0  0  0  0  # atno 7974 bound_to 7965
  154.4130  140.1203  156.5134 H   0  0  0  0  0  0  0  0  0  0  0  0  # atno 8008 bound_to 7997
  155.6776  140.3496  155.4823 H   0  0  0  0  0  0  0  0  0  0  0  0  # atno 8009 bound_to 7997
  155.9579  140.1117  157.0911 H   0  0  0  0  0  0  0  0  0  0  0  0  # atno 8010 bound_to 7997
  140.7233  143.5122  150.9735 H   0  0  0  0  0  0  0  0  0  0  0  0  # atno 10167 bound_to 10162
  157.2948  130.7321  149.6632 H   0  0  0  0  0  0  0  0  0  0  0  0  # atno 10718 bound_to 10713
  152.9809  135.5730  154.4972 H   0  0  0  0  0  0  0  0  0  0  0  0  # atno 10763 bound_to 10752
  154.4497  135.2778  155.1792 H   0  0  0  0  0  0  0  0  0  0  0  0  # atno 10764 bound_to 10752
  154.3425  135.6226  153.5656 H   0  0  0  0  0  0  0  0  0  0  0  0  # atno 10765 bound_to 10752
  141.1292  133.8355  157.1028 H   0  0  0  0  0  0  0  0  0  0  0  0  # atno 11005 bound_to 11000
  145.3408  141.0287  143.3393 LP  0  0  0  0  0  0  0  0  0  0  0  0  # atno 17320 bound_to 7965
  144.8733  139.5007  143.6757 LP  0  0  0  0  0  0  0  0  0  0  0  0  # atno 17321 bound_to 7965
  139.8836  143.7040  152.3154 LP  0  0  0  0  0  0  0  0  0  0  0  0  # atno 17342 bound_to 10162
  139.7331  144.7577  151.0770 LP  0  0  0  0  0  0  0  0  0  0  0  0  # atno 17343 bound_to 10162
  155.9668  130.4298  150.4847 LP  0  0  0  0  0  0  0  0  0  0  0  0  # atno 17370 bound_to 10713
  157.2816  131.0608  151.2193 LP  0  0  0  0  0  0  0  0  0  0  0  0  # atno 17371 bound_to 10713
  140.0323  134.9895  157.0803 LP  0  0  0  0  0  0  0  0  0  0  0  0  # atno 17394 bound_to 11000
  140.4266  134.1824  155.7166 LP  0  0  0  0  0  0  0  0  0  0  0  0  # atno 17395 bound_to 11000

$$$$
