AV-unprocessed.smi:249|AV-procd|sdf|1913|dock4
  -GOLD-   2262021 03D 1   1.00000     0.00000
 Structure written by MMmdl.
 64 67  0  0  0  0  0  0  0  0  2 V2000
  143.8480  132.7376  150.1863 C   0  0  0  0  0  0  0  0  0  0  0  0
  144.1425  133.6464  151.3893 C   0  0  0  0  0  0  0  0  0  0  0  0
  145.3551  133.2423  152.1509 N   0  3  1  0  0  0  0  0  0  0  0  0
  146.5513  133.1188  151.2748 C   0  0  0  0  0  0  0  0  0  0  0  0
  147.7300  132.4735  152.0203 C   0  0  0  0  0  0  0  0  0  0  0  0
  148.0651  133.2605  153.3021 C   0  0  2  0  0  0  0  0  0  0  0  0
  149.2300  132.7430  154.0311 N   0  0  0  0  0  0  0  0  0  0  0  0
  149.2790  131.3219  154.3486 C   0  0  0  0  0  0  0  0  0  0  0  0
  149.9050  133.5117  154.9200 C   0  0  0  0  0  0  0  0  0  0  0  0
  150.9441  132.9940  155.6250 N   0  0  0  0  0  0  0  0  0  0  0  0
  151.6147  133.7589  156.4919 C   0  0  0  0  0  0  0  0  0  0  0  0
  151.4119  135.0402  156.8042 N   0  0  0  0  0  0  0  0  0  0  0  0
  150.3687  135.5635  156.0987 C   0  0  0  0  0  0  0  0  0  0  0  0
  149.5760  134.8768  155.1370 C   0  0  0  0  0  0  0  0  0  0  0  0
  148.6118  135.7306  154.6166 N   0  0  0  0  0  0  0  0  0  0  0  0
  148.8202  136.8595  155.2377 C   0  0  0  0  0  0  0  0  0  0  0  0
  149.8398  136.8413  156.1637 N   0  0  0  0  0  0  0  0  0  0  0  0
  150.2752  137.9532  156.9906 C   0  0  0  0  0  0  0  0  0  0  0  0
  151.6967  138.4891  156.6718 C   0  0  1  0  0  0  0  0  0  0  0  0
  151.8477  138.6425  155.1403 C   0  0  0  0  0  0  0  0  0  0  0  0
  153.0637  139.2758  154.7961 O   0  0  0  0  0  0  0  0  0  0  0  0
  152.0968  139.7835  157.4411 C   0  0  1  0  0  0  0  0  0  0  0  0
  151.2582  141.0206  157.1526 C   0  0  0  0  0  0  0  0  0  0  0  0
  151.5327  141.9122  158.3593 C   0  0  0  0  0  0  0  0  0  0  0  0
  151.8372  141.0346  159.4356 O   0  0  0  0  0  0  0  0  0  0  0  0
  151.9062  139.6962  158.9604 C   0  0  0  0  0  0  0  0  0  0  0  0
  146.8010  133.4013  154.1776 C   0  0  0  0  0  0  0  0  0  0  0  0
  145.6230  134.0229  153.3995 C   0  0  1  0  0  0  0  0  0  0  0  0
  145.8137  135.5362  153.1588 C   0  0  0  0  0  0  0  0  0  0  0  0
  143.0382  133.1513  149.5849 H   0  0  0  0  0  0  0  0  0  0  0  0
  143.5376  131.7394  150.4942 H   0  0  0  0  0  0  0  0  0  0  0  0
  144.7213  132.6395  149.5407 H   0  0  0  0  0  0  0  0  0  0  0  0
  144.2983  134.6561  151.0076 H   0  0  0  0  0  0  0  0  0  0  0  0
  143.2752  133.7062  152.0469 H   0  0  0  0  0  0  0  0  0  0  0  0
  146.3079  132.5028  150.4083 H   0  0  0  0  0  0  0  0  0  0  0  0
  146.8355  134.0973  150.8865 H   0  0  0  0  0  0  0  0  0  0  0  0
  147.4742  131.4403  152.2520 H   0  0  0  0  0  0  0  0  0  0  0  0
  148.5978  132.4351  151.3611 H   0  0  0  0  0  0  0  0  0  0  0  0
  148.3520  134.2665  152.9950 H   0  0  0  0  0  0  0  0  0  0  0  0
  150.2989  130.9432  154.2800 H   0  0  0  0  0  0  0  0  0  0  0  0
  148.6640  130.7461  153.6565 H   0  0  0  0  0  0  0  0  0  0  0  0
  148.9114  131.1395  155.3592 H   0  0  0  0  0  0  0  0  0  0  0  0
  152.4288  133.2750  157.0107 H   0  0  0  0  0  0  0  0  0  0  0  0
  148.2204  137.7379  155.0479 H   0  0  0  0  0  0  0  0  0  0  0  0
  149.5417  138.7507  156.8668 H   0  0  0  0  0  0  0  0  0  0  0  0
  150.2186  137.6462  158.0358 H   0  0  0  0  0  0  0  0  0  0  0  0
  152.4097  137.7156  156.9575 H   0  0  0  0  0  0  0  0  0  0  0  0
  151.8011  137.6754  154.6400 H   0  0  0  0  0  0  0  0  0  0  0  0
  151.0237  139.2306  154.7353 H   0  0  0  0  0  0  0  0  0  0  0  0
  153.5832  138.6724  154.2866 H   0  0  0  0  0  0  0  0  0  0  0  0
  153.1431  140.0185  157.2386 H   0  0  0  0  0  0  0  0  0  0  0  0
  151.5233  141.5239  156.2243 H   0  0  0  0  0  0  0  0  0  0  0  0
  150.1985  140.7638  157.1123 H   0  0  0  0  0  0  0  0  0  0  0  0
  152.4004  142.5466  158.1754 H   0  0  0  0  0  0  0  0  0  0  0  0
  150.6865  142.5565  158.5979 H   0  0  0  0  0  0  0  0  0  0  0  0
  150.9649  139.2006  159.2027 H   0  0  0  0  0  0  0  0  0  0  0  0
  152.7114  139.1521  159.4545 H   0  0  0  0  0  0  0  0  0  0  0  0
  146.4846  132.4256  154.5467 H   0  0  0  0  0  0  0  0  0  0  0  0
  147.0230  134.0002  155.0617 H   0  0  0  0  0  0  0  0  0  0  0  0
  144.7549  133.9153  154.0490 H   0  0  0  0  0  0  0  0  0  0  0  0
  146.0212  136.0501  154.0978 H   0  0  0  0  0  0  0  0  0  0  0  0
  144.9177  135.9962  152.7430 H   0  0  0  0  0  0  0  0  0  0  0  0
  146.6419  135.7509  152.4845 H   0  0  0  0  0  0  0  0  0  0  0  0
  145.1657  132.3009  152.4645 H   0  0  0  0  0  0  0  0  0  0  0  0
  1  2  1  0  0  0  0
  1 30  1  0  0  0  0
  1 31  1  0  0  0  0
  1 32  1  0  0  0  0
  2  3  1  0  0  0  0
  2 33  1  0  0  0  0
  2 34  1  0  0  0  0
  3 28  1  0  0  0  0
  3  4  1  0  0  0  0
  3 64  1  0  0  0  0
  4  5  1  0  0  0  0
  4 35  1  0  0  0  0
  4 36  1  0  0  0  0
  5  6  1  0  0  0  0
  5 37  1  0  0  0  0
  5 38  1  0  0  0  0
  6  7  1  0  0  0  0
  6 27  1  0  0  0  0
  6 39  1  0  0  0  0
  7  8  1  0  0  0  0
  7  9  1  0  0  0  0
  8 40  1  0  0  0  0
  8 41  1  0  0  0  0
  8 42  1  0  0  0  0
  9 14  1  0  0  0  0
  9 10  2  0  0  0  0
 10 11  1  0  0  0  0
 11 12  2  0  0  0  0
 11 43  1  0  0  0  0
 12 13  1  0  0  0  0
 13 17  1  0  0  0  0
 13 14  2  0  0  0  0
 14 15  1  0  0  0  0
 15 16  2  0  0  0  0
 16 17  1  0  0  0  0
 16 44  1  0  0  0  0
 17 18  1  0  0  0  0
 18 19  1  0  0  0  0
 18 45  1  0  0  0  0
 18 46  1  0  0  0  0
 19 20  1  0  0  0  0
 19 22  1  0  0  0  0
 19 47  1  0  0  0  0
 20 21  1  0  0  0  0
 20 48  1  0  0  0  0
 20 49  1  0  0  0  0
 21 50  1  0  0  0  0
 22 26  1  0  0  0  0
 22 23  1  0  0  0  0
 22 51  1  0  0  0  0
 23 24  1  0  0  0  0
 23 52  1  0  0  0  0
 23 53  1  0  0  0  0
 24 25  1  0  0  0  0
 24 54  1  0  0  0  0
 24 55  1  0  0  0  0
 25 26  1  0  0  0  0
 26 56  1  0  0  0  0
 26 57  1  0  0  0  0
 27 28  1  0  0  0  0
 27 58  1  0  0  0  0
 27 59  1  0  0  0  0
 28 29  1  0  0  0  0
 28 60  1  0  0  0  0
 29 61  1  0  0  0  0
 29 62  1  0  0  0  0
 29 63  1  0  0  0  0
M  CHG  1   3   1
M  END
> <s_m_source_file>
AV-unprocessed.smi

> <i_m_source_file_index>
249

> <i_lp_mmshare_version>
43012

> <i_f3d_flags>
0

> <s_epik_input>
W0NIM11bQ0gyXU4xW0NIMl1bQ0gyXVtDQEhdKFtDSDJdW0NASF0xW0NIM10pTihbQ0gzXSljKG5bY0hdbjIpYyhjMjMpbltjSF1uM1tDSDJdW0NASF0oW0NIMl1bT0hdKVtDQEBIXTRbQ0gyXVtDSDJdT1tDSDJdNA==

> <s_epik_cmdline>
J2VwaWtfcHl0aG9uJywgJy1waCcsICc3LjAnLCAnLXRuJywgJzgnLCAnLW1hJywgJzIwMCcsICctbWV0YWxfYmluZGluZycsICctaW1hZScsICc8aW5maWxlLm1hZT4nLCAnLW9tYWUnLCAnPG91dGZpbGUubWFlPic=

> <r_lp_tautomer_probability>
1

> <r_epik_Ionization_Penalty>
0.00294688

> <r_epik_Ionization_Penalty_Charging>
0.00169971

> <r_epik_Ionization_Penalty_Neutral>
0.00124717

> <r_epik_State_Penalty>
-0

> <r_epik_Charging_Adjusted_Penalty>
0.00169971

> <i_epik_Tot_Q>
1

> <i_epik_Tot_abs_Q>
1

> <r_epik_Metal_State_Penalty>
-0

> <b_epik_Metal_Only>
0

> <s_lp_Force_Field>
OPLS_2005

> <r_lp_Energy>
54.9966

> <b_lp_Chiralities_Consistent>
1

> <s_lp_Variant>
AV-unprocessed.smi:249-16

> <Gold.Version>
5.8.1

> <Gold.Id.Protein>
6NUR|6NUR_protein|mol2

> <Gold.PLP.Fitness>
41.9615

> <Gold.PLP.PLP>
-39.1434

> <Gold.PLP.part.hbond>
-2.1942

> <Gold.PLP.part.metal>
0.0000

> <Gold.PLP.part.buried>
-4.2727

> <Gold.PLP.part.nonpolar>
-34.0224

> <Gold.PLP.part.repulsive>
2.1270

> <Gold.PLP.ligand.clash>
0.0000

> <Gold.PLP.ligand.torsion>
0.7148

> <Gold.PLP.Chemscore.Hbond>
1.0065

> <Gold.PLP.Chemscore.CHOScore>
0.0000

> <Gold.PLP.Chemscore.Metal>
0.0000

> <Gold.Chemscore.Hbonds>
donor molecule, donor type, donor heavy atom, donor atom, acceptor molecule, acceptor atom, score
      P1  H  7997  8008       L1    21  1.00

> <Gold.PLP.Chemscore.Internal.Correction>
1.2280

> <Gold.Rescore>
     Score         DG    S(hbond)    S(metal)    S(lipo)     H(rot)  DE(clash)    DE(int)     intcor
     10.04     -12.11       0.99        0.00      86.58       2.65       0.15       1.93       ----

> <Gold.Chemscore.Fitness>
10.0354

> <Gold.Chemscore.DG>
-12.1122

> <Gold.Chemscore.ZeroCoef>
-5.4800

> <Gold.Chemscore.Hbond>
0.9853

> <Gold.Chemscore.Metal>
0.0000

> <Gold.Chemscore.Lipo>
86.5756

> <Gold.Chemscore.Internal_Hbond>
0.0000

> <Gold.Chemscore.DEClash>
0.1508

> <Gold.Chemscore.DEInternal>
1.9260

> <Gold.Chemscore.Rot>
2.6515

> <Gold.Chemscore.Internal.Correction>
   9.000000E+99

> <Gold.Chemscore.Hbonds>
donor molecule, donor type, donor heavy atom, donor atom, acceptor molecule, acceptor atom, score
      P1  H  7997  8008       L1    21  0.25

> <Gold.Chemscore.Hbond.Weighted>
-3.2908

> <Gold.Chemscore.Metal.Weighted>
-0.0000

> <Gold.Chemscore.Lipo.Weighted>
-10.1293

> <Gold.Chemscore.Internal_Hbond.Weighted>
0.0000

> <Gold.Chemscore.DEClash.Weighted>
0.1508

> <Gold.Chemscore.DEInternal.Weighted>
1.9260

> <Gold.Chemscore.Rot.Weighted>
6.7880

> <Gold.Chemscore.Internal.Correction.Weighted>
   9.000000E+99

> <Gold.Protein.RotatedTorsions>
[ 6907 6896 6895 6894 ] final  -41.49 input  -60.11 | X-H torsion
[ 7974 7965 7964 7962 ] final   33.46 input  175.53 | X-H torsion
[ 8008 7997 7996 7995 ] final  -11.46 input   59.86 | X-H torsion
[ 10167 10162 10161 10158 ] final  169.27 input  -65.29 | X-H torsion
[ 10718 10713 10712 10709 ] final   97.84 input   66.30 | X-H torsion
[ 10763 10752 10751 10750 ] final -145.04 input  -60.55 | X-H torsion
[ 11005 11000 10999 10996 ] final   -4.78 input  -57.11 | X-H torsion

> <Gold.Protein.ActiveResidues>
 VAL166  LYS551  ARG553  GLY616  TRP617  ASP618  TYR619  PRO620  LYS621  CYS622 
 ASP623  PHE694  ASN695  SER759  ASP760  ASP761  ALA762  ILE779  LEU786  VAL792 
 PHE793  MET794  SER795  GLU796  ALA797  LYS798  CYS799  TRP800  GLU811  SER814 

> <Gold.Protein.RotatedAtoms>
  150.9662  134.9042  159.7760 H   0  0  0  0  0  0  0  0  0  0  0  0  # atno 6907 bound_to 6896
  152.5174  134.3604  159.9293 H   0  0  0  0  0  0  0  0  0  0  0  0  # atno 6908 bound_to 6896
  151.3615  133.3847  159.2725 H   0  0  0  0  0  0  0  0  0  0  0  0  # atno 6909 bound_to 6896
  146.1419  139.6393  142.9157 H   0  0  0  0  0  0  0  0  0  0  0  0  # atno 7974 bound_to 7965
  154.5462  140.2302  155.8558 H   0  0  0  0  0  0  0  0  0  0  0  0  # atno 8008 bound_to 7997
  156.1905  140.3078  155.9285 H   0  0  0  0  0  0  0  0  0  0  0  0  # atno 8009 bound_to 7997
  155.3159  140.0438  157.3027 H   0  0  0  0  0  0  0  0  0  0  0  0  # atno 8010 bound_to 7997
  139.4988  144.3724  151.9710 H   0  0  0  0  0  0  0  0  0  0  0  0  # atno 10167 bound_to 10162
  157.6906  131.0622  150.4705 H   0  0  0  0  0  0  0  0  0  0  0  0  # atno 10718 bound_to 10713
  154.8401  135.3424  154.6442 H   0  0  0  0  0  0  0  0  0  0  0  0  # atno 10763 bound_to 10752
  153.7053  135.6967  153.5056 H   0  0  0  0  0  0  0  0  0  0  0  0  # atno 10764 bound_to 10752
  153.2492  135.4359  155.0734 H   0  0  0  0  0  0  0  0  0  0  0  0  # atno 10765 bound_to 10752
  140.6840  133.9128  155.8574 H   0  0  0  0  0  0  0  0  0  0  0  0  # atno 11005 bound_to 11000
  145.5028  141.0437  143.2531 LP  0  0  0  0  0  0  0  0  0  0  0  0  # atno 17320 bound_to 7965
  144.7802  139.6543  143.7158 LP  0  0  0  0  0  0  0  0  0  0  0  0  # atno 17321 bound_to 7965
  140.3161  144.3482  150.6021 LP  0  0  0  0  0  0  0  0  0  0  0  0  # atno 17342 bound_to 10162
  140.5760  143.2176  151.7514 LP  0  0  0  0  0  0  0  0  0  0  0  0  # atno 17343 bound_to 10162
  156.5043  130.4124  149.6335 LP  0  0  0  0  0  0  0  0  0  0  0  0  # atno 17370 bound_to 10713
  156.3299  130.7326  151.2253 LP  0  0  0  0  0  0  0  0  0  0  0  0  # atno 17371 bound_to 10713
  141.0294  134.0777  157.4031 LP  0  0  0  0  0  0  0  0  0  0  0  0  # atno 17394 bound_to 11000
  139.8943  135.0135  156.6943 LP  0  0  0  0  0  0  0  0  0  0  0  0  # atno 17395 bound_to 11000

$$$$
