AV-unprocessed.smi:2450|AV-procd|sdf|9667|dock6
  -GOLD-   2272013303D 1   1.00000     0.00000
 Structure written by MMmdl.
 42 43  0  0  0  0  0  0  0  0  2 V2000
  152.2737  140.8251  158.1587 C   0  0  0  0  0  0  0  0  0  0  0  0
  152.1420  142.3107  158.5241 C   0  0  0  0  0  0  0  0  0  0  0  0
  151.8574  143.2219  157.3153 C   0  0  2  0  0  0  0  0  0  0  0  0
  151.9176  144.7075  157.6977 C   0  0  0  0  0  0  0  0  0  0  0  0
  150.5427  142.9187  156.7515 N   0  0  0  0  0  0  0  0  0  0  0  0
  150.2299  141.8434  156.0138 C   0  0  0  0  0  0  0  0  0  0  0  0
  151.0368  140.9692  155.6986 O   0  0  0  0  0  0  0  0  0  0  0  0
  148.9341  141.8620  155.6592 N   0  0  0  0  0  0  0  0  0  0  0  0
  148.2185  140.9100  154.8782 C   0  0  0  0  0  0  0  0  0  0  0  0
  148.8563  139.8368  154.2046 C   0  0  0  0  0  0  0  0  0  0  0  0
  148.0840  138.9178  153.4668 C   0  0  0  0  0  0  0  0  0  0  0  0
  146.6870  139.0784  153.4199 C   0  0  0  0  0  0  0  0  0  0  0  0
  146.1089  140.1009  154.0838 N   0  3  0  0  0  0  0  0  0  0  0  0
  146.8054  141.0120  154.8071 C   0  0  0  0  0  0  0  0  0  0  0  0
  146.1044  142.0361  155.4673 N   0  0  0  0  0  0  0  0  0  0  0  0
  145.1164  142.7412  154.6680 C   0  0  0  0  0  0  0  0  0  0  0  0
  144.2581  143.5106  155.6741 C   0  0  0  0  0  0  0  0  0  0  0  0
  144.4271  142.7507  156.9957 C   0  0  0  0  0  0  0  0  0  0  0  0
  145.4217  141.6282  156.6838 C   0  0  0  0  0  0  0  0  0  0  0  0
  152.5250  140.2312  159.0376 H   0  0  0  0  0  0  0  0  0  0  0  0
  153.0594  140.6718  157.4185 H   0  0  0  0  0  0  0  0  0  0  0  0
  151.3448  140.4282  157.7490 H   0  0  0  0  0  0  0  0  0  0  0  0
  151.3559  142.4299  159.2709 H   0  0  0  0  0  0  0  0  0  0  0  0
  153.0668  142.6322  159.0046 H   0  0  0  0  0  0  0  0  0  0  0  0
  152.6376  143.0428  156.5733 H   0  0  0  0  0  0  0  0  0  0  0  0
  152.8956  144.9685  158.1031 H   0  0  0  0  0  0  0  0  0  0  0  0
  151.1689  144.9561  158.4508 H   0  0  0  0  0  0  0  0  0  0  0  0
  151.7425  145.3440  156.8298 H   0  0  0  0  0  0  0  0  0  0  0  0
  149.8084  143.5818  156.9518 H   0  0  0  0  0  0  0  0  0  0  0  0
  148.4177  142.6917  155.9125 H   0  0  0  0  0  0  0  0  0  0  0  0
  149.9247  139.6917  154.2523 H   0  0  0  0  0  0  0  0  0  0  0  0
  148.5582  138.0970  152.9484 H   0  0  0  0  0  0  0  0  0  0  0  0
  146.0188  138.4214  152.8820 H   0  0  0  0  0  0  0  0  0  0  0  0
  145.5949  143.4115  153.9535 H   0  0  0  0  0  0  0  0  0  0  0  0
  144.4976  142.0377  154.1094 H   0  0  0  0  0  0  0  0  0  0  0  0
  144.6298  144.5301  155.7841 H   0  0  0  0  0  0  0  0  0  0  0  0
  143.2168  143.5693  155.3559 H   0  0  0  0  0  0  0  0  0  0  0  0
  144.8289  143.4171  157.7601 H   0  0  0  0  0  0  0  0  0  0  0  0
  143.4822  142.3527  157.3668 H   0  0  0  0  0  0  0  0  0  0  0  0
  144.8908  140.6880  156.5276 H   0  0  0  0  0  0  0  0  0  0  0  0
  146.1298  141.4827  157.5003 H   0  0  0  0  0  0  0  0  0  0  0  0
  145.0938  140.1917  154.0392 H   0  0  0  0  0  0  0  0  0  0  0  0
  1  2  1  0  0  0  0
  1 20  1  0  0  0  0
  1 21  1  0  0  0  0
  1 22  1  0  0  0  0
  2  3  1  0  0  0  0
  2 23  1  0  0  0  0
  2 24  1  0  0  0  0
  3  4  1  0  0  0  0
  3  5  1  0  0  0  0
  3 25  1  0  0  0  0
  4 26  1  0  0  0  0
  4 27  1  0  0  0  0
  4 28  1  0  0  0  0
  5  6  1  0  0  0  0
  5 29  1  0  0  0  0
  6  7  2  0  0  0  0
  6  8  1  0  0  0  0
  8  9  1  0  0  0  0
  8 30  1  0  0  0  0
  9 14  1  0  0  0  0
  9 10  2  0  0  0  0
 10 11  1  0  0  0  0
 10 31  1  0  0  0  0
 11 12  2  0  0  0  0
 11 32  1  0  0  0  0
 12 13  1  0  0  0  0
 12 33  1  0  0  0  0
 13 14  2  0  0  0  0
 13 42  1  0  0  0  0
 14 15  1  0  0  0  0
 15 19  1  0  0  0  0
 15 16  1  0  0  0  0
 16 17  1  0  0  0  0
 16 34  1  0  0  0  0
 16 35  1  0  0  0  0
 17 18  1  0  0  0  0
 17 36  1  0  0  0  0
 17 37  1  0  0  0  0
 18 19  1  0  0  0  0
 18 38  1  0  0  0  0
 18 39  1  0  0  0  0
 19 40  1  0  0  0  0
 19 41  1  0  0  0  0
M  CHG  1  13   1
M  END
> <s_m_source_file>
AV-unprocessed.smi

> <i_m_source_file_index>
2450

> <i_lp_mmshare_version>
43012

> <i_f3d_flags>
0

> <s_epik_input>
W0NIM11bQ0gyXVtDQEhdKFtDSDNdKVtOSF1DKD1PKVtOSF1jMVtjSF1bY0hdW2NIXW5jMU4yW0NIMl1bQ0gyXVtDSDJdW0NIMl0y

> <s_epik_cmdline>
J2VwaWtfcHl0aG9uJywgJy1waCcsICc3LjAnLCAnLXRuJywgJzgnLCAnLW1hJywgJzIwMCcsICctbWV0YWxfYmluZGluZycsICctaW1hZScsICc8aW5maWxlLm1hZT4nLCAnLW9tYWUnLCAnPG91dGZpbGUubWFlPic=

> <r_lp_tautomer_probability>
0.999994

> <r_epik_Ionization_Penalty>
1.08838

> <r_epik_Ionization_Penalty_Charging>
1.08836

> <r_epik_Ionization_Penalty_Neutral>
2.1796e-05

> <r_epik_State_Penalty>
1.14442

> <r_epik_Charging_Adjusted_Penalty>
2.23278

> <i_epik_Tot_Q>
1

> <i_epik_Tot_abs_Q>
1

> <r_epik_Metal_State_Penalty>
1.23344

> <b_epik_Metal_Only>
0

> <s_lp_Force_Field>
OPLS_2005

> <r_lp_Energy>
40.8961

> <b_lp_Chiralities_Consistent>
1

> <s_lp_Variant>
AV-unprocessed.smi:2450-3

> <Gold.Version>
5.8.1

> <Gold.Id.Protein>
6NUR|6NUR_protein|mol2

> <Gold.PLP.Fitness>
46.4571

> <Gold.PLP.PLP>
-35.6722

> <Gold.PLP.part.hbond>
-3.0000

> <Gold.PLP.part.metal>
0.0000

> <Gold.PLP.part.buried>
-6.0134

> <Gold.PLP.part.nonpolar>
-27.7457

> <Gold.PLP.part.repulsive>
0.4001

> <Gold.PLP.ligand.clash>
0.0000

> <Gold.PLP.ligand.torsion>
0.5862

> <Gold.PLP.Chemscore.Hbond>
3.9760

> <Gold.PLP.Chemscore.CHOScore>
0.0000

> <Gold.PLP.Chemscore.Metal>
0.0000

> <Gold.Chemscore.Hbonds>
donor molecule, donor type, donor heavy atom, donor atom, acceptor molecule, acceptor atom, score
      L1  H     5    29       P1  8028  0.54
      L1  H     8    30       P1  8028  0.54
      L1  H    13    42       P1 10175  1.08
      P1  H  7989  7998       L1     7  0.28

> <Gold.PLP.Chemscore.Internal.Correction>
0.0293

> <Gold.Rescore>
     Score         DG    S(hbond)    S(metal)    S(lipo)     H(rot)  DE(clash)    DE(int)     intcor
     17.78     -23.17       3.07        0.00      92.91       1.34       3.55       1.84       ----

> <Gold.Chemscore.Fitness>
17.7758

> <Gold.Chemscore.DG>
-23.1659

> <Gold.Chemscore.ZeroCoef>
-5.4800

> <Gold.Chemscore.Hbond>
3.0670

> <Gold.Chemscore.Metal>
0.0000

> <Gold.Chemscore.Lipo>
92.9119

> <Gold.Chemscore.Internal_Hbond>
0.0000

> <Gold.Chemscore.DEClash>
3.5520

> <Gold.Chemscore.DEInternal>
1.8382

> <Gold.Chemscore.Rot>
1.3393

> <Gold.Chemscore.Internal.Correction>
   9.000000E+99

> <Gold.Chemscore.Hbonds>
donor molecule, donor type, donor heavy atom, donor atom, acceptor molecule, acceptor atom, score
      L1  H     5    29       P1  8028  0.53
      L1  H     8    30       P1  8028  0.51
      L1  H    13    42       P1 10175  0.54
      P1  H  7989  7998       L1     7  0.26

> <Gold.Chemscore.Hbond.Weighted>
-10.2438

> <Gold.Chemscore.Metal.Weighted>
-0.0000

> <Gold.Chemscore.Lipo.Weighted>
-10.8707

> <Gold.Chemscore.Internal_Hbond.Weighted>
0.0000

> <Gold.Chemscore.DEClash.Weighted>
3.5520

> <Gold.Chemscore.DEInternal.Weighted>
1.8382

> <Gold.Chemscore.Rot.Weighted>
3.4285

> <Gold.Chemscore.Internal.Correction.Weighted>
   9.000000E+99

> <Gold.Protein.RotatedTorsions>
[ 6907 6896 6895 6894 ] final -162.65 input  -60.11 | X-H torsion
[ 7974 7965 7964 7962 ] final  105.05 input  175.53 | X-H torsion
[ 8008 7997 7996 7995 ] final  175.86 input   59.86 | X-H torsion
[ 10167 10162 10161 10158 ] final  -61.09 input  -65.29 | X-H torsion
[ 10718 10713 10712 10709 ] final  -33.07 input   66.30 | X-H torsion
[ 10763 10752 10751 10750 ] final  -13.85 input  -60.55 | X-H torsion
[ 11005 11000 10999 10996 ] final  -74.69 input  -57.11 | X-H torsion

> <Gold.Protein.ActiveResidues>
 VAL166  LYS551  ARG553  GLY616  TRP617  ASP618  TYR619  PRO620  LYS621  CYS622 
 ASP623  PHE694  ASN695  SER759  ASP760  ASP761  ALA762  ILE779  LEU786  VAL792 
 PHE793  MET794  SER795  GLU796  ALA797  LYS798  CYS799  TRP800  GLU811  SER814 

> <Gold.Protein.RotatedAtoms>
  151.3836  133.3813  159.2712 H   0  0  0  0  0  0  0  0  0  0  0  0  # atno 6907 bound_to 6896
  150.9559  134.8954  159.7711 H   0  0  0  0  0  0  0  0  0  0  0  0  # atno 6908 bound_to 6896
  152.5130  134.3793  159.9398 H   0  0  0  0  0  0  0  0  0  0  0  0  # atno 6909 bound_to 6896
  145.3248  139.2503  143.3692 H   0  0  0  0  0  0  0  0  0  0  0  0  # atno 7974 bound_to 7965
  156.0826  140.1398  156.9693 H   0  0  0  0  0  0  0  0  0  0  0  0  # atno 8008 bound_to 7997
  154.4594  140.0949  156.6899 H   0  0  0  0  0  0  0  0  0  0  0  0  # atno 8009 bound_to 7997
  155.5050  140.3452  155.4380 H   0  0  0  0  0  0  0  0  0  0  0  0  # atno 8010 bound_to 7997
  140.6029  143.2366  151.5888 H   0  0  0  0  0  0  0  0  0  0  0  0  # atno 10167 bound_to 10162
  156.3671  130.4333  149.7576 H   0  0  0  0  0  0  0  0  0  0  0  0  # atno 10718 bound_to 10713
  153.5195  135.7016  153.5739 H   0  0  0  0  0  0  0  0  0  0  0  0  # atno 10763 bound_to 10752
  153.3794  135.3924  155.1846 H   0  0  0  0  0  0  0  0  0  0  0  0  # atno 10764 bound_to 10752
  154.8696  135.3831  154.4682 H   0  0  0  0  0  0  0  0  0  0  0  0  # atno 10765 bound_to 10752
  141.1638  133.6920  156.7403 H   0  0  0  0  0  0  0  0  0  0  0  0  # atno 11005 bound_to 11000
  146.3068  140.3813  142.8684 LP  0  0  0  0  0  0  0  0  0  0  0  0  # atno 17320 bound_to 7965
  144.8911  140.7524  143.5926 LP  0  0  0  0  0  0  0  0  0  0  0  0  # atno 17321 bound_to 7965
  139.5303  144.2934  152.1133 LP  0  0  0  0  0  0  0  0  0  0  0  0  # atno 17342 bound_to 10162
  140.2118  144.4554  150.6382 LP  0  0  0  0  0  0  0  0  0  0  0  0  # atno 17343 bound_to 10162
  156.4717  130.8000  151.3017 LP  0  0  0  0  0  0  0  0  0  0  0  0  # atno 17370 bound_to 10713
  157.7480  131.0034  150.3035 LP  0  0  0  0  0  0  0  0  0  0  0  0  # atno 17371 bound_to 10713
  140.2679  134.8415  157.3820 LP  0  0  0  0  0  0  0  0  0  0  0  0  # atno 17394 bound_to 11000
  140.1549  134.4802  155.7935 LP  0  0  0  0  0  0  0  0  0  0  0  0  # atno 17395 bound_to 11000

$$$$
