AV-unprocessed.smi:910|AV-procd|sdf|4123|dock5
  -GOLD-   22720 2 23D 1   1.00000     0.00000
 Structure written by MMmdl.
 46 47  0  0  0  0  0  0  0  0  1 V2000
  141.7222  143.5602  156.4432 C   0  0  0  0  0  0  0  0  0  0  0  0
  143.0825  143.1288  155.9403 C   0  0  0  0  0  0  0  0  0  0  0  0
  143.9074  142.3251  156.6794 N   0  0  0  0  0  0  0  0  0  0  0  0
  145.0718  142.1169  155.9565 C   0  0  0  0  0  0  0  0  0  0  0  0
  146.1046  141.4136  156.3045 N   0  0  0  0  0  0  0  0  0  0  0  0
  147.1941  141.3303  155.4500 C   0  0  0  0  0  0  0  0  0  0  0  0
  147.2026  141.1112  154.2344 O   0  0  0  0  0  0  0  0  0  0  0  0
  148.3319  141.5066  156.1381 N   0  0  0  0  0  0  0  0  0  0  0  0
  149.6798  141.4444  155.5816 C   0  0  0  0  0  0  0  0  0  0  0  0
  150.6012  142.4973  156.2141 C   0  0  0  0  0  0  0  0  0  0  0  0
  150.8714  142.1186  157.5558 O   0  0  0  0  0  0  0  0  0  0  0  0
  151.6008  143.0795  158.3080 C   0  0  1  0  0  0  0  0  0  0  0  0
  150.6319  144.1347  158.8815 C   0  0  0  0  0  0  0  0  0  0  0  0
  151.3542  145.1129  159.8196 C   0  0  0  0  0  0  0  0  0  0  0  0
  152.0775  144.3631  160.9469 C   0  0  0  0  0  0  0  0  0  0  0  0
  153.0513  143.3195  160.3788 C   0  0  0  0  0  0  0  0  0  0  0  0
  152.3409  142.3267  159.4366 C   0  0  2  0  0  0  0  0  0  0  0  0
  153.3395  141.3007  158.8749 C   0  0  0  0  0  0  0  0  0  0  0  0
  144.9226  142.8053  154.7743 O   0  0  0  0  0  0  0  0  0  0  0  0
  143.7029  143.4102  154.7970 C   0  0  0  0  0  0  0  0  0  0  0  0
  143.2868  144.2470  153.6083 C   0  0  0  0  0  0  0  0  0  0  0  0
  141.6704  144.6475  156.5036 H   0  0  0  0  0  0  0  0  0  0  0  0
  141.5223  143.1506  157.4337 H   0  0  0  0  0  0  0  0  0  0  0  0
  140.9425  143.2151  155.7639 H   0  0  0  0  0  0  0  0  0  0  0  0
  143.6682  141.9712  157.5941 H   0  0  0  0  0  0  0  0  0  0  0  0
  148.2596  141.6745  157.1311 H   0  0  0  0  0  0  0  0  0  0  0  0
  150.0949  140.4451  155.7218 H   0  0  0  0  0  0  0  0  0  0  0  0
  149.6161  141.6056  154.5053 H   0  0  0  0  0  0  0  0  0  0  0  0
  151.5274  142.5785  155.6430 H   0  0  0  0  0  0  0  0  0  0  0  0
  150.1166  143.4731  156.1871 H   0  0  0  0  0  0  0  0  0  0  0  0
  152.3454  143.5699  157.6778 H   0  0  0  0  0  0  0  0  0  0  0  0
  150.1564  144.6946  158.0768 H   0  0  0  0  0  0  0  0  0  0  0  0
  149.8293  143.6359  159.4263 H   0  0  0  0  0  0  0  0  0  0  0  0
  152.0739  145.7024  159.2499 H   0  0  0  0  0  0  0  0  0  0  0  0
  150.6396  145.8199  160.2420 H   0  0  0  0  0  0  0  0  0  0  0  0
  152.6164  145.0703  161.5780 H   0  0  0  0  0  0  0  0  0  0  0  0
  151.3456  143.8707  161.5885 H   0  0  0  0  0  0  0  0  0  0  0  0
  153.8531  143.8282  159.8414 H   0  0  0  0  0  0  0  0  0  0  0  0
  153.5256  142.7801  161.1995 H   0  0  0  0  0  0  0  0  0  0  0  0
  151.5997  141.7815  160.0232 H   0  0  0  0  0  0  0  0  0  0  0  0
  154.1021  141.7832  158.2627 H   0  0  0  0  0  0  0  0  0  0  0  0
  152.8396  140.5562  158.2546 H   0  0  0  0  0  0  0  0  0  0  0  0
  153.8470  140.7668  159.6786 H   0  0  0  0  0  0  0  0  0  0  0  0
  142.2106  144.4208  153.6144 H   0  0  0  0  0  0  0  0  0  0  0  0
  143.5494  143.7404  152.6796 H   0  0  0  0  0  0  0  0  0  0  0  0
  143.7940  145.2115  153.6323 H   0  0  0  0  0  0  0  0  0  0  0  0
  1 22  1  0  0  0  0
  1 23  1  0  0  0  0
  1 24  1  0  0  0  0
  1  2  1  0  0  0  0
  2  3  1  0  0  0  0
  2 20  2  0  0  0  0
  3 25  1  0  0  0  0
  3  4  1  0  0  0  0
  4 19  1  0  0  0  0
  4  5  2  0  0  0  0
  5  6  1  0  0  0  0
  6  8  1  0  0  0  0
  6  7  2  0  0  0  0
  8  9  1  0  0  0  0
  8 26  1  0  0  0  0
  9 10  1  0  0  0  0
  9 27  1  0  0  0  0
  9 28  1  0  0  0  0
 10 11  1  0  0  0  0
 10 29  1  0  0  0  0
 10 30  1  0  0  0  0
 11 12  1  0  0  0  0
 12 17  1  0  0  0  0
 12 13  1  0  0  0  0
 12 31  1  0  0  0  0
 13 14  1  0  0  0  0
 13 32  1  0  0  0  0
 13 33  1  0  0  0  0
 14 15  1  0  0  0  0
 14 34  1  0  0  0  0
 14 35  1  0  0  0  0
 15 16  1  0  0  0  0
 15 36  1  0  0  0  0
 15 37  1  0  0  0  0
 16 17  1  0  0  0  0
 16 38  1  0  0  0  0
 16 39  1  0  0  0  0
 17 18  1  0  0  0  0
 17 40  1  0  0  0  0
 18 41  1  0  0  0  0
 18 42  1  0  0  0  0
 18 43  1  0  0  0  0
 19 20  1  0  0  0  0
 20 21  1  0  0  0  0
 21 44  1  0  0  0  0
 21 45  1  0  0  0  0
 21 46  1  0  0  0  0
M  END
> <s_m_source_file>
AV-unprocessed.smi

> <i_m_source_file_index>
910

> <i_lp_mmshare_version>
43012

> <i_f3d_flags>
0

> <s_epik_input>
W0NIM11jMW5jKG9jMVtDSDNdKVtOSF1DKD1PKVtOSF1bQ0gyXVtDSDJdT1tDQEBIXTJbQ0gyXVtDSDJdW0NIMl1bQ0gyXVtDQEhdMltDSDNd

> <s_epik_cmdline>
J2VwaWtfcHl0aG9uJywgJy1waCcsICc3LjAnLCAnLXRuJywgJzgnLCAnLW1hJywgJzIwMCcsICctbWV0YWxfYmluZGluZycsICctaW1hZScsICc8aW5maWxlLm1hZT4nLCAnLW9tYWUnLCAnPG91dGZpbGUubWFlPic=

> <r_lp_tautomer_probability>
0.107061

> <r_epik_Ionization_Penalty>
0.727192

> <r_epik_Ionization_Penalty_Charging>
0.726719

> <r_epik_Ionization_Penalty_Neutral>
0.000473387

> <r_epik_State_Penalty>
2.53712

> <r_epik_Charging_Adjusted_Penalty>
3.26383

> <i_epik_Tot_Q>
0

> <i_epik_Tot_abs_Q>
0

> <r_epik_Metal_State_Penalty>
3.71015

> <b_epik_Metal_Only>
0

> <s_lp_Force_Field>
OPLS_2005

> <r_lp_Energy>
30.8064

> <b_lp_Chiralities_Consistent>
1

> <s_lp_Variant>
AV-unprocessed.smi:910-8

> <Gold.Version>
5.8.1

> <Gold.Id.Protein>
6NUR|6NUR_protein|mol2

> <Gold.PLP.Fitness>
43.8586

> <Gold.PLP.PLP>
-45.5147

> <Gold.PLP.part.hbond>
-2.0000

> <Gold.PLP.part.metal>
0.0000

> <Gold.PLP.part.buried>
-4.1254

> <Gold.PLP.part.nonpolar>
-40.2041

> <Gold.PLP.part.repulsive>
0.7220

> <Gold.PLP.ligand.clash>
0.0000

> <Gold.PLP.ligand.torsion>
0.8503

> <Gold.PLP.Chemscore.Hbond>
0.0000

> <Gold.PLP.Chemscore.CHOScore>
0.0000

> <Gold.PLP.Chemscore.Metal>
0.0000

> <Gold.PLP.Chemscore.Internal.Correction>
0.0445

> <Gold.Rescore>
     Score         DG    S(hbond)    S(metal)    S(lipo)     H(rot)  DE(clash)    DE(int)     intcor
     11.96     -15.93       0.00        0.00     125.58       1.66       1.47       2.50       ----

> <Gold.Chemscore.Fitness>
11.9595

> <Gold.Chemscore.DG>
-15.9296

> <Gold.Chemscore.ZeroCoef>
-5.4800

> <Gold.Chemscore.Hbond>
0.0000

> <Gold.Chemscore.Metal>
0.0000

> <Gold.Chemscore.Lipo>
125.5827

> <Gold.Chemscore.Internal_Hbond>
0.0000

> <Gold.Chemscore.DEClash>
1.4730

> <Gold.Chemscore.DEInternal>
2.4971

> <Gold.Chemscore.Rot>
1.6576

> <Gold.Chemscore.Internal.Correction>
   9.000000E+99

> <Gold.Chemscore.Hbond.Weighted>
-0.0000

> <Gold.Chemscore.Metal.Weighted>
-0.0000

> <Gold.Chemscore.Lipo.Weighted>
-14.6932

> <Gold.Chemscore.Internal_Hbond.Weighted>
0.0000

> <Gold.Chemscore.DEClash.Weighted>
1.4730

> <Gold.Chemscore.DEInternal.Weighted>
2.4971

> <Gold.Chemscore.Rot.Weighted>
4.2436

> <Gold.Chemscore.Internal.Correction.Weighted>
   9.000000E+99

> <Gold.Protein.RotatedTorsions>
[ 6907 6896 6895 6894 ] final   55.87 input  -60.11 | X-H torsion
[ 7974 7965 7964 7962 ] final  -28.35 input  175.53 | X-H torsion
[ 8008 7997 7996 7995 ] final  144.36 input   59.86 | X-H torsion
[ 10167 10162 10161 10158 ] final  151.94 input  -65.29 | X-H torsion
[ 10718 10713 10712 10709 ] final   -8.35 input   66.30 | X-H torsion
[ 10763 10752 10751 10750 ] final  -31.80 input  -60.55 | X-H torsion
[ 11005 11000 10999 10996 ] final  103.95 input  -57.11 | X-H torsion

> <Gold.Protein.ActiveResidues>
 VAL166  LYS551  ARG553  GLY616  TRP617  ASP618  TYR619  PRO620  LYS621  CYS622 
 ASP623  PHE694  ASN695  SER759  ASP760  ASP761  ALA762  ILE779  LEU786  VAL792 
 PHE793  MET794  SER795  GLU796  ALA797  LYS798  CYS799  TRP800  GLU811  SER814 

> <Gold.Protein.RotatedAtoms>
  152.3581  134.6911  160.0215 H   0  0  0  0  0  0  0  0  0  0  0  0  # atno 6907 bound_to 6896
  151.7243  133.3310  159.3331 H   0  0  0  0  0  0  0  0  0  0  0  0  # atno 6908 bound_to 6896
  150.7585  134.6354  159.6253 H   0  0  0  0  0  0  0  0  0  0  0  0  # atno 6909 bound_to 6896
  146.1294  140.5272  142.8700 H   0  0  0  0  0  0  0  0  0  0  0  0  # atno 7974 bound_to 7965
  156.2910  140.2238  156.5041 H   0  0  0  0  0  0  0  0  0  0  0  0  # atno 8008 bound_to 7997
  154.7664  140.0469  157.1037 H   0  0  0  0  0  0  0  0  0  0  0  0  # atno 8009 bound_to 7997
  154.9927  140.3092  155.4903 H   0  0  0  0  0  0  0  0  0  0  0  0  # atno 8010 bound_to 7997
  139.4836  144.5399  151.7582 H   0  0  0  0  0  0  0  0  0  0  0  0  # atno 10167 bound_to 10162
  156.7039  130.5101  149.5910 H   0  0  0  0  0  0  0  0  0  0  0  0  # atno 10718 bound_to 10713
  153.8032  135.6888  153.4852 H   0  0  0  0  0  0  0  0  0  0  0  0  # atno 10763 bound_to 10752
  153.1675  135.4555  154.9855 H   0  0  0  0  0  0  0  0  0  0  0  0  # atno 10764 bound_to 10752
  154.7998  135.3333  154.7519 H   0  0  0  0  0  0  0  0  0  0  0  0  # atno 10765 bound_to 10752
  139.8788  134.9282  156.5287 H   0  0  0  0  0  0  0  0  0  0  0  0  # atno 11005 bound_to 11000
  144.7675  140.5563  143.6693 LP  0  0  0  0  0  0  0  0  0  0  0  0  # atno 17320 bound_to 7965
  145.5294  139.1475  143.3508 LP  0  0  0  0  0  0  0  0  0  0  0  0  # atno 17321 bound_to 7965
  140.4937  144.1272  150.5955 LP  0  0  0  0  0  0  0  0  0  0  0  0  # atno 17342 bound_to 10162
  140.4142  143.2642  151.9796 LP  0  0  0  0  0  0  0  0  0  0  0  0  # atno 17343 bound_to 10162
  156.1709  130.6436  151.0836 LP  0  0  0  0  0  0  0  0  0  0  0  0  # atno 17370 bound_to 10713
  157.6962  131.0793  150.6961 LP  0  0  0  0  0  0  0  0  0  0  0  0  # atno 17371 bound_to 10713
  140.8397  133.8215  155.9063 LP  0  0  0  0  0  0  0  0  0  0  0  0  # atno 17394 bound_to 11000
  140.9250  134.2094  157.4902 LP  0  0  0  0  0  0  0  0  0  0  0  0  # atno 17395 bound_to 11000

$$$$
