AV-unprocessed.smi:2492|AV-procd|sdf|9817|dock9
  -GOLD-   2272013443D 1   1.00000     0.00000
 Structure written by MMmdl.
 32 33  0  0  0  0  0  0  0  0  2 V2000
  151.4056  145.4938  159.5985 C   0  0  0  0  0  0  0  0  0  0  0  0
  152.3209  144.2149  158.6981 S   0  0  0  0  0  0  0  0  0  0  0  0
  152.3473  142.8985  159.9490 C   0  0  2  0  0  0  0  0  0  0  0  0
  152.7903  143.4033  161.3197 C   0  0  0  0  0  0  0  0  0  0  0  0
  153.2150  142.1372  162.0644 C   0  0  0  0  0  0  0  0  0  0  0  0
  153.7421  141.1672  160.9873 C   0  0  2  0  0  0  0  0  0  0  0  0
  155.1911  140.9980  161.0746 N   0  0  0  0  0  0  0  0  0  0  0  0
  155.9609  140.3438  160.1928 C   0  0  0  0  0  0  0  0  0  0  0  0
  155.4484  139.8123  159.2050 O   0  0  0  0  0  0  0  0  0  0  0  0
  157.2753  140.3437  160.5115 N   0  5  0  0  0  0  0  0  0  0  0  0
  158.1649  140.9212  159.6875 C   0  0  0  0  0  0  0  0  0  0  0  0
  159.4074  141.2866  160.0058 N   0  0  0  0  0  0  0  0  0  0  0  0
  159.8582  141.7979  158.8292 C   0  0  0  0  0  0  0  0  0  0  0  0
  161.2287  142.3585  158.6608 C   0  0  0  0  0  0  0  0  0  0  0  0
  159.0024  141.7639  157.8188 N   0  0  0  0  0  0  0  0  0  0  0  0
  157.8647  141.1733  158.3866 O   0  0  0  0  0  0  0  0  0  0  0  0
  153.3439  141.7792  159.6309 C   0  0  0  0  0  0  0  0  0  0  0  0
  151.3236  146.3946  158.9903 H   0  0  0  0  0  0  0  0  0  0  0  0
  151.9187  145.7481  160.5263 H   0  0  0  0  0  0  0  0  0  0  0  0
  150.3997  145.1493  159.8384 H   0  0  0  0  0  0  0  0  0  0  0  0
  151.3457  142.4756  160.0382 H   0  0  0  0  0  0  0  0  0  0  0  0
  153.6492  144.0679  161.2146 H   0  0  0  0  0  0  0  0  0  0  0  0
  152.0051  143.9514  161.8408 H   0  0  0  0  0  0  0  0  0  0  0  0
  153.9407  142.3524  162.8501 H   0  0  0  0  0  0  0  0  0  0  0  0
  152.3434  141.6947  162.5482 H   0  0  0  0  0  0  0  0  0  0  0  0
  153.2549  140.1972  161.1020 H   0  0  0  0  0  0  0  0  0  0  0  0
  155.6517  141.4159  161.8696 H   0  0  0  0  0  0  0  0  0  0  0  0
  161.8567  141.6566  158.1120 H   0  0  0  0  0  0  0  0  0  0  0  0
  161.6881  142.5492  159.6311 H   0  0  0  0  0  0  0  0  0  0  0  0
  161.1905  143.2980  158.1082 H   0  0  0  0  0  0  0  0  0  0  0  0
  152.9205  141.0341  158.9568 H   0  0  0  0  0  0  0  0  0  0  0  0
  154.2186  142.2024  159.1336 H   0  0  0  0  0  0  0  0  0  0  0  0
  1  2  1  0  0  0  0
  1 18  1  0  0  0  0
  1 19  1  0  0  0  0
  1 20  1  0  0  0  0
  2  3  1  0  0  0  0
  3 17  1  0  0  0  0
  3  4  1  0  0  0  0
  3 21  1  0  0  0  0
  4  5  1  0  0  0  0
  4 22  1  0  0  0  0
  4 23  1  0  0  0  0
  5  6  1  0  0  0  0
  5 24  1  0  0  0  0
  5 25  1  0  0  0  0
  6  7  1  0  0  0  0
  6 17  1  0  0  0  0
  6 26  1  0  0  0  0
  7  8  1  0  0  0  0
  7 27  1  0  0  0  0
  8  9  2  0  0  0  0
  8 10  1  0  0  0  0
 10 11  1  0  0  0  0
 11 16  1  0  0  0  0
 11 12  2  0  0  0  0
 12 13  1  0  0  0  0
 13 14  1  0  0  0  0
 13 15  2  0  0  0  0
 14 28  1  0  0  0  0
 14 29  1  0  0  0  0
 14 30  1  0  0  0  0
 15 16  1  0  0  0  0
 17 31  1  0  0  0  0
 17 32  1  0  0  0  0
M  CHG  1  10  -1
M  END
> <s_m_source_file>
AV-unprocessed.smi

> <i_m_source_file_index>
2492

> <i_lp_mmshare_version>
43012

> <i_f3d_flags>
0

> <s_epik_input>
W0NIM11TW0NAQEhdMVtDSDJdW0NIMl1bQ0BIXShbQ0gyXTEpW05IXUMoPU8pW05IXWMybmMoW0NIM10pbm8y

> <s_epik_cmdline>
J2VwaWtfcHl0aG9uJywgJy1waCcsICc3LjAnLCAnLXRuJywgJzgnLCAnLW1hJywgJzIwMCcsICctbWV0YWxfYmluZGluZycsICctaW1hZScsICc8aW5maWxlLm1hZT4nLCAnLW9tYWUnLCAnPG91dGZpbGUubWFlPic=

> <r_lp_tautomer_probability>
1

> <r_epik_Ionization_Penalty>
6.26454

> <r_epik_Ionization_Penalty_Charging>
6.26445

> <r_epik_Ionization_Penalty_Neutral>
9.05726e-05

> <r_epik_State_Penalty>
6.26444

> <r_epik_Charging_Adjusted_Penalty>
12.5289

> <i_epik_Tot_Q>
-1

> <i_epik_Tot_abs_Q>
1

> <r_epik_Metal_State_Penalty>
2.20125

> <b_epik_Metal_Only>
1

> <s_lp_Force_Field>
OPLS_2005

> <r_lp_Energy>
10.8343

> <b_lp_Chiralities_Consistent>
1

> <s_lp_Variant>
AV-unprocessed.smi:2492-7

> <Gold.Version>
5.8.1

> <Gold.Id.Protein>
6NUR|6NUR_protein|mol2

> <Gold.PLP.Fitness>
40.9980

> <Gold.PLP.PLP>
-39.5552

> <Gold.PLP.part.hbond>
-2.5374

> <Gold.PLP.part.metal>
0.0000

> <Gold.PLP.part.buried>
-4.8201

> <Gold.PLP.part.nonpolar>
-33.1281

> <Gold.PLP.part.repulsive>
0.3582

> <Gold.PLP.ligand.clash>
0.0000

> <Gold.PLP.ligand.torsion>
0.7868

> <Gold.PLP.Chemscore.Hbond>
1.0000

> <Gold.PLP.Chemscore.CHOScore>
0.0000

> <Gold.PLP.Chemscore.Metal>
0.0000

> <Gold.Chemscore.Hbonds>
donor molecule, donor type, donor heavy atom, donor atom, acceptor molecule, acceptor atom, score
      P1  H  7997  8008       L1     9  1.00

> <Gold.PLP.Chemscore.Internal.Correction>
0.0164

> <Gold.Rescore>
     Score         DG    S(hbond)    S(metal)    S(lipo)     H(rot)  DE(clash)    DE(int)     intcor
     12.59     -15.85       0.98        0.00      88.46       1.27       0.23       3.03       ----

> <Gold.Chemscore.Fitness>
12.5941

> <Gold.Chemscore.DG>
-15.8513

> <Gold.Chemscore.ZeroCoef>
-5.4800

> <Gold.Chemscore.Hbond>
0.9807

> <Gold.Chemscore.Metal>
0.0000

> <Gold.Chemscore.Lipo>
88.4611

> <Gold.Chemscore.Internal_Hbond>
0.0000

> <Gold.Chemscore.DEClash>
0.2263

> <Gold.Chemscore.DEInternal>
3.0308

> <Gold.Chemscore.Rot>
1.2712

> <Gold.Chemscore.Internal.Correction>
   9.000000E+99

> <Gold.Chemscore.Hbonds>
donor molecule, donor type, donor heavy atom, donor atom, acceptor molecule, acceptor atom, score
      P1  H  7997  8008       L1     9  0.98

> <Gold.Chemscore.Hbond.Weighted>
-3.2755

> <Gold.Chemscore.Metal.Weighted>
-0.0000

> <Gold.Chemscore.Lipo.Weighted>
-10.3500

> <Gold.Chemscore.Internal_Hbond.Weighted>
0.0000

> <Gold.Chemscore.DEClash.Weighted>
0.2263

> <Gold.Chemscore.DEInternal.Weighted>
3.0308

> <Gold.Chemscore.Rot.Weighted>
3.2542

> <Gold.Chemscore.Internal.Correction.Weighted>
   9.000000E+99

> <Gold.Protein.RotatedTorsions>
[ 6907 6896 6895 6894 ] final   56.18 input  -60.11 | X-H torsion
[ 7974 7965 7964 7962 ] final  103.96 input  175.53 | X-H torsion
[ 8008 7997 7996 7995 ] final -143.56 input   59.86 | X-H torsion
[ 10167 10162 10161 10158 ] final -136.54 input  -65.29 | X-H torsion
[ 10718 10713 10712 10709 ] final -116.35 input   66.30 | X-H torsion
[ 10763 10752 10751 10750 ] final  153.98 input  -60.55 | X-H torsion
[ 11005 11000 10999 10996 ] final -167.21 input  -57.11 | X-H torsion

> <Gold.Protein.ActiveResidues>
 VAL166  LYS551  ARG553  GLY616  TRP617  ASP618  TYR619  PRO620  LYS621  CYS622 
 ASP623  PHE694  ASN695  SER759  ASP760  ASP761  ALA762  ILE779  LEU786  VAL792 
 PHE793  MET794  SER795  GLU796  ALA797  LYS798  CYS799  TRP800  GLU811  SER814 

> <Gold.Protein.RotatedAtoms>
  152.3611  134.6870  160.0206 H   0  0  0  0  0  0  0  0  0  0  0  0  # atno 6907 bound_to 6896
  151.7193  133.3308  159.3319 H   0  0  0  0  0  0  0  0  0  0  0  0  # atno 6908 bound_to 6896
  150.7606  134.6397  159.6275 H   0  0  0  0  0  0  0  0  0  0  0  0  # atno 6909 bound_to 6896
  145.3390  139.2467  143.3620 H   0  0  0  0  0  0  0  0  0  0  0  0  # atno 7974 bound_to 7965
  155.5126  140.0584  157.2921 H   0  0  0  0  0  0  0  0  0  0  0  0  # atno 8008 bound_to 7997
  154.4546  140.1966  156.0365 H   0  0  0  0  0  0  0  0  0  0  0  0  # atno 8009 bound_to 7997
  156.0774  140.3252  155.7655 H   0  0  0  0  0  0  0  0  0  0  0  0  # atno 8010 bound_to 7997
  139.8668  143.7008  152.2644 H   0  0  0  0  0  0  0  0  0  0  0  0  # atno 10167 bound_to 10162
  156.0958  130.6131  150.9025 H   0  0  0  0  0  0  0  0  0  0  0  0  # atno 10718 bound_to 10713
  154.1449  135.2818  155.3151 H   0  0  0  0  0  0  0  0  0  0  0  0  # atno 10763 bound_to 10752
  154.6260  135.5451  153.7630 H   0  0  0  0  0  0  0  0  0  0  0  0  # atno 10764 bound_to 10752
  153.0239  135.6450  154.1595 H   0  0  0  0  0  0  0  0  0  0  0  0  # atno 10765 bound_to 10752
  140.5558  134.5382  157.5132 H   0  0  0  0  0  0  0  0  0  0  0  0  # atno 11005 bound_to 11000
  146.3015  140.3983  142.8702 LP  0  0  0  0  0  0  0  0  0  0  0  0  # atno 17320 bound_to 7965
  144.8805  140.7394  143.5990 LP  0  0  0  0  0  0  0  0  0  0  0  0  # atno 17321 bound_to 7965
  139.7322  144.7580  151.0784 LP  0  0  0  0  0  0  0  0  0  0  0  0  # atno 17342 bound_to 10162
  140.7767  143.5075  150.9694 LP  0  0  0  0  0  0  0  0  0  0  0  0  # atno 17343 bound_to 10162
  157.6118  131.0936  150.8781 LP  0  0  0  0  0  0  0  0  0  0  0  0  # atno 17370 bound_to 10713
  156.8919  130.5216  149.5286 LP  0  0  0  0  0  0  0  0  0  0  0  0  # atno 17371 bound_to 10713
  139.9432  134.7749  156.0626 LP  0  0  0  0  0  0  0  0  0  0  0  0  # atno 17394 bound_to 11000
  141.1144  133.6632  156.3058 LP  0  0  0  0  0  0  0  0  0  0  0  0  # atno 17395 bound_to 11000

$$$$
