AV-unprocessed.smi:1473|AV-procd|sdf|5966|dock5
  -GOLD-   22720 6 53D 1   1.00000     0.00000
 Structure written by MMmdl.
 34 35  0  0  0  0  0  0  0  0  1 V2000
  145.7886  136.7956  149.9943 N   0  0  0  0  0  0  0  0  0  0  0  0
  145.6310  136.4090  151.6614 S   0  0  0  0  0  0  0  0  0  0  0  0
  144.2983  136.8257  152.1231 O   0  0  0  0  0  0  0  0  0  0  0  0
  146.1301  135.0436  151.8825 O   0  0  0  0  0  0  0  0  0  0  0  0
  146.7895  137.5119  152.2942 N   0  0  0  0  0  0  0  0  0  0  0  0
  146.6796  138.9370  151.9966 C   0  0  0  0  0  0  0  0  0  0  0  0
  147.4671  139.7851  152.9733 C   0  0  0  0  0  0  0  0  0  0  0  0
  147.0914  141.1185  153.2257 C   0  0  0  0  0  0  0  0  0  0  0  0
  147.8657  141.8688  154.1296 C   0  0  0  0  0  0  0  0  0  0  0  0
  148.9476  141.3726  154.7657 N   0  0  0  0  0  0  0  0  0  0  0  0
  149.3158  140.0878  154.5335 C   0  0  0  0  0  0  0  0  0  0  0  0
  150.4494  139.5841  155.2082 N   0  0  0  0  0  0  0  0  0  0  0  0
  151.4188  138.8074  154.4374 C   0  0  0  0  0  0  0  0  0  0  0  0
  152.4103  138.1020  155.3782 C   0  0  0  0  0  0  0  0  0  0  0  0
  153.0283  139.0613  156.2292 O   0  0  0  0  0  0  0  0  0  0  0  0
  152.0769  139.7296  157.0511 C   0  0  0  0  0  0  0  0  0  0  0  0
  151.0695  140.4905  156.1718 C   0  0  0  0  0  0  0  0  0  0  0  0
  148.5975  139.2630  153.6344 C   0  0  0  0  0  0  0  0  0  0  0  0
  145.2961  137.6534  149.7468 H   0  0  0  0  0  0  0  0  0  0  0  0
  145.5631  136.0055  149.3903 H   0  0  0  0  0  0  0  0  0  0  0  0
  147.7414  137.1506  152.3504 H   0  0  0  0  0  0  0  0  0  0  0  0
  147.0581  139.1240  150.9911 H   0  0  0  0  0  0  0  0  0  0  0  0
  145.6272  139.2228  151.9974 H   0  0  0  0  0  0  0  0  0  0  0  0
  146.2343  141.5580  152.7366 H   0  0  0  0  0  0  0  0  0  0  0  0
  147.6110  142.8955  154.3468 H   0  0  0  0  0  0  0  0  0  0  0  0
  150.9074  138.0615  153.8275 H   0  0  0  0  0  0  0  0  0  0  0  0
  151.9563  139.4718  153.7596 H   0  0  0  0  0  0  0  0  0  0  0  0
  151.9059  137.3408  155.9757 H   0  0  0  0  0  0  0  0  0  0  0  0
  153.1802  137.5926  154.7985 H   0  0  0  0  0  0  0  0  0  0  0  0
  151.5658  139.0098  157.6927 H   0  0  0  0  0  0  0  0  0  0  0  0
  152.6006  140.4242  157.7079 H   0  0  0  0  0  0  0  0  0  0  0  0
  151.5773  141.2880  155.6278 H   0  0  0  0  0  0  0  0  0  0  0  0
  150.3302  140.9666  156.8141 H   0  0  0  0  0  0  0  0  0  0  0  0
  148.9112  138.2492  153.4350 H   0  0  0  0  0  0  0  0  0  0  0  0
  1  2  1  0  0  0  0
  1 19  1  0  0  0  0
  1 20  1  0  0  0  0
  2  3  2  0  0  0  0
  2  4  2  0  0  0  0
  2  5  1  0  0  0  0
  5  6  1  0  0  0  0
  5 21  1  0  0  0  0
  6  7  1  0  0  0  0
  6 22  1  0  0  0  0
  6 23  1  0  0  0  0
  7 18  1  0  0  0  0
  7  8  2  0  0  0  0
  8  9  1  0  0  0  0
  8 24  1  0  0  0  0
  9 10  2  0  0  0  0
  9 25  1  0  0  0  0
 10 11  1  0  0  0  0
 11 12  1  0  0  0  0
 11 18  2  0  0  0  0
 12 17  1  0  0  0  0
 12 13  1  0  0  0  0
 13 14  1  0  0  0  0
 13 26  1  0  0  0  0
 13 27  1  0  0  0  0
 14 15  1  0  0  0  0
 14 28  1  0  0  0  0
 14 29  1  0  0  0  0
 15 16  1  0  0  0  0
 16 17  1  0  0  0  0
 16 30  1  0  0  0  0
 16 31  1  0  0  0  0
 17 32  1  0  0  0  0
 17 33  1  0  0  0  0
 18 34  1  0  0  0  0
M  END
> <s_m_source_file>
AV-unprocessed.smi

> <i_m_source_file_index>
1473

> <i_lp_mmshare_version>
43012

> <i_f3d_flags>
0

> <s_epik_input>
W05IMl1TKD1PKSg9TylbTkhdW0NIMl1jMVtjSF1bY0hdbmMoW2NIXTEpTjJbQ0gyXVtDSDJdT1tDSDJdW0NIMl0y

> <s_epik_cmdline>
J2VwaWtfcHl0aG9uJywgJy1waCcsICc3LjAnLCAnLXRuJywgJzgnLCAnLW1hJywgJzIwMCcsICctbWV0YWxfYmluZGluZycsICctaW1hZScsICc8aW5maWxlLm1hZT4nLCAnLW9tYWUnLCAnPG91dGZpbGUubWFlPic=

> <r_lp_tautomer_probability>
1

> <r_epik_Ionization_Penalty>
0.222057

> <r_epik_Ionization_Penalty_Charging>
0

> <r_epik_Ionization_Penalty_Neutral>
0.222057

> <r_epik_State_Penalty>
0.236233

> <r_epik_Charging_Adjusted_Penalty>
0.236233

> <i_epik_Tot_Q>
0

> <i_epik_Tot_abs_Q>
0

> <r_epik_Metal_State_Penalty>
0.788435

> <b_epik_Metal_Only>
0

> <s_lp_Force_Field>
OPLS_2005

> <r_lp_Energy>
17.6675

> <b_lp_Chiralities_Consistent>
1

> <s_lp_Variant>
AV-unprocessed.smi:1473-1

> <Gold.Version>
5.8.1

> <Gold.Id.Protein>
6NUR|6NUR_protein|mol2

> <Gold.PLP.Fitness>
42.9172

> <Gold.PLP.PLP>
-30.9214

> <Gold.PLP.part.hbond>
-3.7166

> <Gold.PLP.part.metal>
0.0000

> <Gold.PLP.part.buried>
-0.5487

> <Gold.PLP.part.nonpolar>
-27.4308

> <Gold.PLP.part.repulsive>
1.6297

> <Gold.PLP.ligand.clash>
0.0000

> <Gold.PLP.ligand.torsion>
1.2404

> <Gold.PLP.Chemscore.Hbond>
3.3996

> <Gold.PLP.Chemscore.CHOScore>
0.9820

> <Gold.PLP.Chemscore.Metal>
0.0000

> <Gold.Chemscore.Hbonds>
donor molecule, donor type, donor heavy atom, donor atom, acceptor molecule, acceptor atom, score
      L1  H     1    19       P1 10171  1.00
      L1  H     1    20       P1  7921  0.58
      L1  H     5    21       P1  7948  1.00
      P1  H  7997  8009       L1    15  0.90
      L1  C     9    25       P1  8028  0.97

> <Gold.PLP.Chemscore.Internal.Correction>
1.3318

> <Gold.Rescore>
     Score         DG    S(hbond)    S(metal)    S(lipo)     H(rot)  DE(clash)    DE(int)     intcor
     16.53     -17.89       2.98        0.00      62.43       1.90       0.06       1.30       ----

> <Gold.Chemscore.Fitness>
16.5296

> <Gold.Chemscore.DG>
-17.8890

> <Gold.Chemscore.ZeroCoef>
-5.4800

> <Gold.Chemscore.Hbond>
2.9840

> <Gold.Chemscore.Metal>
0.0000

> <Gold.Chemscore.Lipo>
62.4313

> <Gold.Chemscore.Internal_Hbond>
0.0000

> <Gold.Chemscore.DEClash>
0.0636

> <Gold.Chemscore.DEInternal>
1.2957

> <Gold.Chemscore.Rot>
1.8993

> <Gold.Chemscore.Internal.Correction>
   9.000000E+99

> <Gold.Chemscore.Hbonds>
donor molecule, donor type, donor heavy atom, donor atom, acceptor molecule, acceptor atom, score
      L1  H     1    19       P1 10171  0.94
      L1  H     1    20       P1  7921  0.56
      L1  H     5    21       P1  7948  0.95
      P1  H  7997  8009       L1    15  0.18

> <Gold.Chemscore.Hbond.Weighted>
-9.9667

> <Gold.Chemscore.Metal.Weighted>
-0.0000

> <Gold.Chemscore.Lipo.Weighted>
-7.3045

> <Gold.Chemscore.Internal_Hbond.Weighted>
0.0000

> <Gold.Chemscore.DEClash.Weighted>
0.0636

> <Gold.Chemscore.DEInternal.Weighted>
1.2957

> <Gold.Chemscore.Rot.Weighted>
4.8622

> <Gold.Chemscore.Internal.Correction.Weighted>
   9.000000E+99

> <Gold.Protein.RotatedTorsions>
[ 6907 6896 6895 6894 ] final  -68.43 input  -60.11 | X-H torsion
[ 7974 7965 7964 7962 ] final   48.88 input  175.53 | X-H torsion
[ 8008 7997 7996 7995 ] final -175.57 input   59.86 | X-H torsion
[ 10167 10162 10161 10158 ] final   11.33 input  -65.29 | X-H torsion
[ 10718 10713 10712 10709 ] final    0.34 input   66.30 | X-H torsion
[ 10763 10752 10751 10750 ] final  -56.53 input  -60.55 | X-H torsion
[ 11005 11000 10999 10996 ] final -169.62 input  -57.11 | X-H torsion

> <Gold.Protein.ActiveResidues>
 VAL166  LYS551  ARG553  GLY616  TRP617  ASP618  TYR619  PRO620  LYS621  CYS622 
 ASP623  PHE694  ASN695  SER759  ASP760  ASP761  ALA762  ILE779  LEU786  VAL792 
 PHE793  MET794  SER795  GLU796  ALA797  LYS798  CYS799  TRP800  GLU811  SER814 

> <Gold.Protein.RotatedAtoms>
  150.7356  134.5740  159.5904 H   0  0  0  0  0  0  0  0  0  0  0  0  # atno 6907 bound_to 6896
  152.3171  134.7423  160.0331 H   0  0  0  0  0  0  0  0  0  0  0  0  # atno 6908 bound_to 6896
  151.7951  133.3328  159.3547 H   0  0  0  0  0  0  0  0  0  0  0  0  # atno 6909 bound_to 6896
  146.0162  139.4599  142.9925 H   0  0  0  0  0  0  0  0  0  0  0  0  # atno 7974 bound_to 7965
  155.9842  140.1188  157.0698 H   0  0  0  0  0  0  0  0  0  0  0  0  # atno 8008 bound_to 7997
  154.4192  140.1138  156.5545 H   0  0  0  0  0  0  0  0  0  0  0  0  # atno 8009 bound_to 7997
  155.6430  140.3473  155.4723 H   0  0  0  0  0  0  0  0  0  0  0  0  # atno 8010 bound_to 7997
  140.6138  143.8351  150.7095 H   0  0  0  0  0  0  0  0  0  0  0  0  # atno 10167 bound_to 10162
  156.8320  130.5492  149.5686 H   0  0  0  0  0  0  0  0  0  0  0  0  # atno 10718 bound_to 10713
  154.2081  135.6399  153.5107 H   0  0  0  0  0  0  0  0  0  0  0  0  # atno 10763 bound_to 10752
  152.9996  135.5467  154.6244 H   0  0  0  0  0  0  0  0  0  0  0  0  # atno 10764 bound_to 10752
  154.5674  135.2914  155.0834 H   0  0  0  0  0  0  0  0  0  0  0  0  # atno 10765 bound_to 10752
  140.5287  134.5638  157.5068 H   0  0  0  0  0  0  0  0  0  0  0  0  # atno 11005 bound_to 11000
  145.7265  141.0057  143.1374 LP  0  0  0  0  0  0  0  0  0  0  0  0  # atno 17320 bound_to 7965
  144.6972  139.8933  143.7454 LP  0  0  0  0  0  0  0  0  0  0  0  0  # atno 17321 bound_to 7965
  140.1925  143.4025  152.1852 LP  0  0  0  0  0  0  0  0  0  0  0  0  # atno 17342 bound_to 10162
  139.5382  144.7231  151.4820 LP  0  0  0  0  0  0  0  0  0  0  0  0  # atno 17343 bound_to 10162
  156.0929  130.5909  150.9763 LP  0  0  0  0  0  0  0  0  0  0  0  0  # atno 17370 bound_to 10713
  157.6402  131.0911  150.8267 LP  0  0  0  0  0  0  0  0  0  0  0  0  # atno 17371 bound_to 10713
  139.9566  134.7524  156.0328 LP  0  0  0  0  0  0  0  0  0  0  0  0  # atno 17394 bound_to 11000
  141.1294  133.6590  156.3423 LP  0  0  0  0  0  0  0  0  0  0  0  0  # atno 17395 bound_to 11000

$$$$
