AV-unprocessed.smi:1817|AV-procd|sdf|7375|dock2
  -GOLD-   22720 9 43D 1   1.00000     0.00000
 Structure written by MMmdl.
 42 43  0  0  0  0  0  0  0  0  3 V2000
  146.3555  142.9861  153.7365 C   0  0  0  0  0  0  0  0  0  0  0  0
  146.3964  142.2244  155.0692 C   0  0  0  0  0  0  0  0  0  0  0  0
  147.7774  142.0285  155.5758 N   0  3  0  0  0  0  0  0  0  0  0  0
  148.6181  141.2534  154.6295 C   0  0  0  0  0  0  0  0  0  0  0  0
  150.0507  141.0738  155.1819 C   0  0  0  0  0  0  0  0  0  0  0  0
  150.0602  140.4023  156.4905 N   0  0  0  0  0  0  0  0  0  0  0  0
  149.6307  138.9861  156.4553 C   0  0  1  0  0  0  0  0  0  0  0  0
  150.0753  138.3248  155.1295 C   0  0  0  0  0  0  0  0  0  0  0  0
  150.1709  138.1737  157.6645 C   0  0  0  0  0  0  0  0  0  0  0  0
  149.1855  138.0580  158.7356 N   0  0  0  0  0  0  0  0  0  0  0  0
  148.7639  136.9080  159.2825 C   0  0  0  0  0  0  0  0  0  0  0  0
  149.2002  135.8321  158.8647 O   0  0  0  0  0  0  0  0  0  0  0  0
  147.8690  137.0742  160.2818 N   0  5  0  0  0  0  0  0  0  0  0  0
  147.4178  136.0072  160.9617 C   0  0  0  0  0  0  0  0  0  0  0  0
  147.1434  134.8370  160.3634 N   0  0  0  0  0  0  0  0  0  0  0  0
  146.6940  133.8644  161.2463 N   0  0  0  0  0  0  0  0  0  0  0  0
  146.6484  134.3264  162.4955 C   0  0  0  0  0  0  0  0  0  0  0  0
  147.1492  135.9910  162.7066 S   0  0  0  0  0  0  0  0  0  0  0  0
  149.2980  141.2774  157.3921 C   0  0  0  0  0  0  0  0  0  0  0  0
  147.8329  141.4323  156.9344 C   0  0  0  0  0  0  0  0  0  0  0  0
  145.3372  143.0225  153.3491 H   0  0  0  0  0  0  0  0  0  0  0  0
  146.9773  142.5004  152.9840 H   0  0  0  0  0  0  0  0  0  0  0  0
  146.6948  144.0161  153.8431 H   0  0  0  0  0  0  0  0  0  0  0  0
  145.7912  142.7335  155.8209 H   0  0  0  0  0  0  0  0  0  0  0  0
  145.9367  141.2479  154.9110 H   0  0  0  0  0  0  0  0  0  0  0  0
  148.1525  140.2920  154.4102 H   0  0  0  0  0  0  0  0  0  0  0  0
  148.6701  141.7893  153.6813 H   0  0  0  0  0  0  0  0  0  0  0  0
  150.6737  140.5475  154.4614 H   0  0  0  0  0  0  0  0  0  0  0  0
  150.5176  142.0539  155.2911 H   0  0  0  0  0  0  0  0  0  0  0  0
  148.5440  138.9425  156.4966 H   0  0  0  0  0  0  0  0  0  0  0  0
  149.8533  137.2579  155.1168 H   0  0  0  0  0  0  0  0  0  0  0  0
  151.1485  138.4353  154.9712 H   0  0  0  0  0  0  0  0  0  0  0  0
  149.5599  138.7390  154.2644 H   0  0  0  0  0  0  0  0  0  0  0  0
  150.4590  137.1709  157.3481 H   0  0  0  0  0  0  0  0  0  0  0  0
  151.0561  138.6256  158.1094 H   0  0  0  0  0  0  0  0  0  0  0  0
  148.8036  138.9171  159.1033 H   0  0  0  0  0  0  0  0  0  0  0  0
  146.3198  133.6827  163.2978 H   0  0  0  0  0  0  0  0  0  0  0  0
  149.3509  140.9324  158.4225 H   0  0  0  0  0  0  0  0  0  0  0  0
  149.7735  142.2593  157.4097 H   0  0  0  0  0  0  0  0  0  0  0  0
  147.3179  142.0809  157.6419 H   0  0  0  0  0  0  0  0  0  0  0  0
  147.3085  140.4760  156.9534 H   0  0  0  0  0  0  0  0  0  0  0  0
  148.1997  142.9433  155.6416 H   0  0  0  0  0  0  0  0  0  0  0  0
  1  2  1  0  0  0  0
  1 21  1  0  0  0  0
  1 22  1  0  0  0  0
  1 23  1  0  0  0  0
  2  3  1  0  0  0  0
  2 24  1  0  0  0  0
  2 25  1  0  0  0  0
  3 20  1  0  0  0  0
  3  4  1  0  0  0  0
  3 42  1  0  0  0  0
  4  5  1  0  0  0  0
  4 26  1  0  0  0  0
  4 27  1  0  0  0  0
  5  6  1  0  0  0  0
  5 28  1  0  0  0  0
  5 29  1  0  0  0  0
  6  7  1  0  0  0  0
  6 19  1  0  0  0  0
  7  8  1  0  0  0  0
  7  9  1  0  0  0  0
  7 30  1  0  0  0  0
  8 31  1  0  0  0  0
  8 32  1  0  0  0  0
  8 33  1  0  0  0  0
  9 10  1  0  0  0  0
  9 34  1  0  0  0  0
  9 35  1  0  0  0  0
 10 11  1  0  0  0  0
 10 36  1  0  0  0  0
 11 12  2  0  0  0  0
 11 13  1  0  0  0  0
 13 14  1  0  0  0  0
 14 18  1  0  0  0  0
 14 15  2  0  0  0  0
 15 16  1  0  0  0  0
 16 17  2  0  0  0  0
 17 18  1  0  0  0  0
 17 37  1  0  0  0  0
 19 20  1  0  0  0  0
 19 38  1  0  0  0  0
 19 39  1  0  0  0  0
 20 40  1  0  0  0  0
 20 41  1  0  0  0  0
M  CHG  1   3   1
M  CHG  1  13  -1
M  END
> <s_m_source_file>
AV-unprocessed.smi

> <i_m_source_file_index>
1817

> <i_lp_mmshare_version>
43012

> <i_f3d_flags>
0

> <s_epik_input>
W0NIM11bQ0gyXU4xW0NIMl1bQ0gyXU4oW0NIMl1bQ0gyXTEpW0NASF0oW0NIM10pW0NIMl1bTkhdQyg9TylbTkhdYzJubltjSF1zMg==

> <s_epik_cmdline>
J2VwaWtfcHl0aG9uJywgJy1waCcsICc3LjAnLCAnLXRuJywgJzgnLCAnLW1hJywgJzIwMCcsICctbWV0YWxfYmluZGluZycsICctaW1hZScsICc8aW5maWxlLm1hZT4nLCAnLW9tYWUnLCAnPG91dGZpbGUubWFlPic=

> <r_lp_tautomer_probability>
1

> <r_epik_Ionization_Penalty>
3.58527

> <r_epik_Ionization_Penalty_Charging>
3.54445

> <r_epik_Ionization_Penalty_Neutral>
0.0408199

> <r_epik_State_Penalty>
3.6633

> <r_epik_Charging_Adjusted_Penalty>
7.20774

> <i_epik_Tot_Q>
0

> <i_epik_Tot_abs_Q>
2

> <r_epik_Metal_State_Penalty>
0.683711

> <b_epik_Metal_Only>
1

> <s_lp_Force_Field>
OPLS_2005

> <r_lp_Energy>
13.2913

> <b_lp_Chiralities_Consistent>
1

> <s_lp_Variant>
AV-unprocessed.smi:1817-8

> <Gold.Version>
5.8.1

> <Gold.Id.Protein>
6NUR|6NUR_protein|mol2

> <Gold.PLP.Fitness>
48.8353

> <Gold.PLP.PLP>
-33.7871

> <Gold.PLP.part.hbond>
-4.0000

> <Gold.PLP.part.metal>
0.0000

> <Gold.PLP.part.buried>
-5.7213

> <Gold.PLP.part.nonpolar>
-26.1675

> <Gold.PLP.part.repulsive>
0.3020

> <Gold.PLP.ligand.clash>
0.0136

> <Gold.PLP.ligand.torsion>
1.3496

> <Gold.PLP.Chemscore.Hbond>
5.8674

> <Gold.PLP.Chemscore.CHOScore>
0.0000

> <Gold.PLP.Chemscore.Metal>
0.0000

> <Gold.Chemscore.Hbonds>
donor molecule, donor type, donor heavy atom, donor atom, acceptor molecule, acceptor atom, score
      L1  H     3    42       P1  8028  2.00
      P1  H  6896  6909       L1    12  0.98
      P1  H  6931  6943       L1    13  0.43
      P1  H  6934  6947       L1    13  1.14

> <Gold.PLP.Chemscore.Internal.Correction>
0.1587

> <Gold.Rescore>
     Score         DG    S(hbond)    S(metal)    S(lipo)     H(rot)  DE(clash)    DE(int)     intcor
     14.51     -17.32       2.87        0.00      60.44       1.88       0.06       2.75       ----

> <Gold.Chemscore.Fitness>
14.5134

> <Gold.Chemscore.DG>
-17.3166

> <Gold.Chemscore.ZeroCoef>
-5.4800

> <Gold.Chemscore.Hbond>
2.8697

> <Gold.Chemscore.Metal>
0.0000

> <Gold.Chemscore.Lipo>
60.4362

> <Gold.Chemscore.Internal_Hbond>
0.0000

> <Gold.Chemscore.DEClash>
0.0562

> <Gold.Chemscore.DEInternal>
2.7469

> <Gold.Chemscore.Rot>
1.8825

> <Gold.Chemscore.Internal.Correction>
   9.000000E+99

> <Gold.Chemscore.Hbonds>
donor molecule, donor type, donor heavy atom, donor atom, acceptor molecule, acceptor atom, score
      L1  H     3    42       P1  8028  0.93
      P1  H  6896  6909       L1    12  0.92
      P1  H  6931  6943       L1    13  0.04
      P1  H  6934  6947       L1    13  0.54

> <Gold.Chemscore.Hbond.Weighted>
-9.5847

> <Gold.Chemscore.Metal.Weighted>
-0.0000

> <Gold.Chemscore.Lipo.Weighted>
-7.0710

> <Gold.Chemscore.Internal_Hbond.Weighted>
0.0000

> <Gold.Chemscore.DEClash.Weighted>
0.0562

> <Gold.Chemscore.DEInternal.Weighted>
2.7469

> <Gold.Chemscore.Rot.Weighted>
4.8191

> <Gold.Chemscore.Internal.Correction.Weighted>
   9.000000E+99

> <Gold.Protein.RotatedTorsions>
[ 6907 6896 6895 6894 ] final   54.83 input  -60.11 | X-H torsion
[ 7974 7965 7964 7962 ] final  -57.43 input  175.53 | X-H torsion
[ 8008 7997 7996 7995 ] final  146.67 input   59.86 | X-H torsion
[ 10167 10162 10161 10158 ] final  -26.88 input  -65.29 | X-H torsion
[ 10718 10713 10712 10709 ] final   71.63 input   66.30 | X-H torsion
[ 10763 10752 10751 10750 ] final -135.64 input  -60.55 | X-H torsion
[ 11005 11000 10999 10996 ] final  167.89 input  -57.11 | X-H torsion

> <Gold.Protein.ActiveResidues>
 VAL166  LYS551  ARG553  GLY616  TRP617  ASP618  TYR619  PRO620  LYS621  CYS622 
 ASP623  PHE694  ASN695  SER759  ASP760  ASP761  ALA762  ILE779  LEU786  VAL792 
 PHE793  MET794  SER795  GLU796  ALA797  LYS798  CYS799  TRP800  GLU811  SER814 

> <Gold.Protein.RotatedAtoms>
  152.3478  134.7047  160.0244 H   0  0  0  0  0  0  0  0  0  0  0  0  # atno 6907 bound_to 6896
  151.7410  133.3316  159.3374 H   0  0  0  0  0  0  0  0  0  0  0  0  # atno 6908 bound_to 6896
  150.7520  134.6211  159.6181 H   0  0  0  0  0  0  0  0  0  0  0  0  # atno 6909 bound_to 6896
  145.8511  140.8351  142.9985 H   0  0  0  0  0  0  0  0  0  0  0  0  # atno 7974 bound_to 7965
  156.2848  140.2176  156.5415 H   0  0  0  0  0  0  0  0  0  0  0  0  # atno 8008 bound_to 7997
  154.7366  140.0491  157.0796 H   0  0  0  0  0  0  0  0  0  0  0  0  # atno 8009 bound_to 7997
  155.0285  140.3132  155.4770 H   0  0  0  0  0  0  0  0  0  0  0  0  # atno 8010 bound_to 7997
  140.7280  143.4140  151.1059 H   0  0  0  0  0  0  0  0  0  0  0  0  # atno 10167 bound_to 10162
  157.6461  130.9538  150.0817 H   0  0  0  0  0  0  0  0  0  0  0  0  # atno 10718 bound_to 10713
  154.8699  135.3697  154.4931 H   0  0  0  0  0  0  0  0  0  0  0  0  # atno 10763 bound_to 10752
  153.5577  135.7023  153.5567 H   0  0  0  0  0  0  0  0  0  0  0  0  # atno 10764 bound_to 10752
  153.3657  135.4035  155.1715 H   0  0  0  0  0  0  0  0  0  0  0  0  # atno 10765 bound_to 10752
  140.2816  134.7746  157.3762 H   0  0  0  0  0  0  0  0  0  0  0  0  # atno 11005 bound_to 11000
  144.6729  140.0955  143.7463 LP  0  0  0  0  0  0  0  0  0  0  0  0  # atno 17320 bound_to 7965
  145.9356  139.2635  143.1299 LP  0  0  0  0  0  0  0  0  0  0  0  0  # atno 17321 bound_to 7965
  139.7777  143.8401  152.3132 LP  0  0  0  0  0  0  0  0  0  0  0  0  # atno 17342 bound_to 10162
  139.8341  144.7240  150.9413 LP  0  0  0  0  0  0  0  0  0  0  0  0  # atno 17343 bound_to 10162
  156.1791  130.3649  149.9060 LP  0  0  0  0  0  0  0  0  0  0  0  0  # atno 17370 bound_to 10713
  156.7016  130.8935  151.3600 LP  0  0  0  0  0  0  0  0  0  0  0  0  # atno 17371 bound_to 10713
  140.1278  134.5134  155.8130 LP  0  0  0  0  0  0  0  0  0  0  0  0  # atno 17394 bound_to 11000
  141.2162  133.6779  156.6985 LP  0  0  0  0  0  0  0  0  0  0  0  0  # atno 17395 bound_to 11000

$$$$
