AV-unprocessed.smi:290|AV-procd|sdf|2231|dock9
  -GOLD-   2262022 93D 1   1.00000     0.00000
 Structure written by MMmdl.
 59 62  0  0  0  0  0  0  0  0  2 V2000
  152.9144  144.8315  157.7894 C   0  0  0  0  0  0  0  0  0  0  0  0
  152.2950  144.0305  158.9408 C   0  0  2  0  0  0  0  0  0  0  0  0
  153.3451  143.5267  159.7567 O   0  0  0  0  0  0  0  0  0  0  0  0
  152.8148  142.4664  160.5274 C   0  0  0  0  0  0  0  0  0  0  0  0
  152.0070  141.7015  159.4907 C   0  0  0  0  0  0  0  0  0  0  0  0
  151.4089  142.7934  158.5986 C   0  0  1  0  0  0  0  0  0  0  0  0
  150.1028  143.0572  159.0790 O   0  0  0  0  0  0  0  0  0  0  0  0
  151.3463  142.3019  157.1209 C   0  0  0  0  0  0  0  0  0  0  0  0
  150.6562  141.0373  156.8925 N   0  0  0  0  0  0  0  0  0  0  0  0
  149.3333  140.7587  157.1469 C   0  0  0  0  0  0  0  0  0  0  0  0
  148.9477  139.5529  156.8346 N   0  0  0  0  0  0  0  0  0  0  0  0
  150.0743  138.9590  156.2759 C   0  0  0  0  0  0  0  0  0  0  0  0
  150.3643  137.6781  155.7130 C   0  0  0  0  0  0  0  0  0  0  0  0
  149.4849  136.6478  155.5878 N   0  0  0  0  0  0  0  0  0  0  0  0
  148.0586  136.8849  155.7404 C   0  0  0  0  0  0  0  0  0  0  0  0
  147.3953  135.9370  154.7506 C   0  0  0  0  0  0  0  0  0  0  0  0
  148.3608  134.7441  154.6651 C   0  0  1  0  0  0  0  0  0  0  0  0
  148.1823  133.9776  153.3938 N   0  3  1  0  0  0  0  0  0  0  0  0
  149.1155  132.8374  153.2207 C   0  0  0  0  0  0  0  0  0  0  0  0
  146.7725  133.5618  153.1582 C   0  0  0  0  0  0  0  0  0  0  0  0
  146.2483  132.6517  154.2811 C   0  0  0  0  0  0  0  0  0  0  0  0
  145.1380  133.2566  154.9099 O   0  0  0  0  0  0  0  0  0  0  0  0
  149.7464  135.4197  154.8420 C   0  0  2  0  0  0  0  0  0  0  0  0
  150.7617  134.5409  155.6055 C   0  0  0  0  0  0  0  0  0  0  0  0
  151.6274  137.4744  155.2551 N   0  0  0  0  0  0  0  0  0  0  0  0
  152.5431  138.4433  155.3267 C   0  0  0  0  0  0  0  0  0  0  0  0
  152.4138  139.6752  155.8180 N   0  0  0  0  0  0  0  0  0  0  0  0
  151.1551  139.8892  156.2970 C   0  0  0  0  0  0  0  0  0  0  0  0
  148.1754  134.0827  155.5135 H   0  0  0  0  0  0  0  0  0  0  0  0
  150.1294  135.6949  153.8601 H   0  0  0  0  0  0  0  0  0  0  0  0
  152.1463  145.3436  157.2126 H   0  0  0  0  0  0  0  0  0  0  0  0
  153.5011  144.2016  157.1215 H   0  0  0  0  0  0  0  0  0  0  0  0
  153.5818  145.6008  158.1782 H   0  0  0  0  0  0  0  0  0  0  0  0
  151.7334  144.7280  159.5659 H   0  0  0  0  0  0  0  0  0  0  0  0
  153.6005  141.8626  160.9818 H   0  0  0  0  0  0  0  0  0  0  0  0
  152.1741  142.8601  161.3180 H   0  0  0  0  0  0  0  0  0  0  0  0
  152.6926  141.0785  158.9145 H   0  0  0  0  0  0  0  0  0  0  0  0
  151.2648  141.0377  159.9366 H   0  0  0  0  0  0  0  0  0  0  0  0
  149.7563  143.8036  158.6137 H   0  0  0  0  0  0  0  0  0  0  0  0
  150.9059  143.0654  156.4793 H   0  0  0  0  0  0  0  0  0  0  0  0
  152.3637  142.1686  156.7501 H   0  0  0  0  0  0  0  0  0  0  0  0
  148.6546  141.4804  157.5773 H   0  0  0  0  0  0  0  0  0  0  0  0
  147.7696  136.6431  156.7638 H   0  0  0  0  0  0  0  0  0  0  0  0
  147.7764  137.9192  155.5394 H   0  0  0  0  0  0  0  0  0  0  0  0
  146.3883  135.6666  155.0675 H   0  0  0  0  0  0  0  0  0  0  0  0
  147.3202  136.4279  153.7788 H   0  0  0  0  0  0  0  0  0  0  0  0
  149.0174  132.1253  154.0409 H   0  0  0  0  0  0  0  0  0  0  0  0
  150.1505  133.1730  153.1665 H   0  0  0  0  0  0  0  0  0  0  0  0
  148.9180  132.3026  152.2923 H   0  0  0  0  0  0  0  0  0  0  0  0
  146.1431  134.4480  153.0660 H   0  0  0  0  0  0  0  0  0  0  0  0
  146.6613  133.0312  152.2135 H   0  0  0  0  0  0  0  0  0  0  0  0
  145.9691  131.6649  153.9129 H   0  0  0  0  0  0  0  0  0  0  0  0
  147.0266  132.5028  155.0300 H   0  0  0  0  0  0  0  0  0  0  0  0
  144.3733  132.7231  154.7514 H   0  0  0  0  0  0  0  0  0  0  0  0
  151.0070  133.6254  155.0720 H   0  0  0  0  0  0  0  0  0  0  0  0
  150.3729  134.2548  156.5832 H   0  0  0  0  0  0  0  0  0  0  0  0
  151.7014  135.0648  155.7767 H   0  0  0  0  0  0  0  0  0  0  0  0
  153.5180  138.1959  154.9330 H   0  0  0  0  0  0  0  0  0  0  0  0
  148.4000  134.6331  152.6563 H   0  0  0  0  0  0  0  0  0  0  0  0
  1  2  1  0  0  0  0
  1 31  1  0  0  0  0
  1 32  1  0  0  0  0
  1 33  1  0  0  0  0
  2  6  1  0  0  0  0
  2  3  1  0  0  0  0
  2 34  1  0  0  0  0
  3  4  1  0  0  0  0
  4  5  1  0  0  0  0
  4 35  1  0  0  0  0
  4 36  1  0  0  0  0
  5  6  1  0  0  0  0
  5 37  1  0  0  0  0
  5 38  1  0  0  0  0
  6  7  1  0  0  0  0
  6  8  1  0  0  0  0
  7 39  1  0  0  0  0
  8  9  1  0  0  0  0
  8 40  1  0  0  0  0
  8 41  1  0  0  0  0
  9 28  1  0  0  0  0
  9 10  1  0  0  0  0
 10 11  2  0  0  0  0
 10 42  1  0  0  0  0
 11 12  1  0  0  0  0
 12 28  2  0  0  0  0
 12 13  1  0  0  0  0
 13 14  1  0  0  0  0
 13 25  2  0  0  0  0
 14 23  1  0  0  0  0
 14 15  1  0  0  0  0
 15 16  1  0  0  0  0
 15 43  1  0  0  0  0
 15 44  1  0  0  0  0
 16 17  1  0  0  0  0
 16 45  1  0  0  0  0
 16 46  1  0  0  0  0
 17 29  1  0  0  0  0
 17 18  1  0  0  0  0
 17 23  1  0  0  0  0
 18 19  1  0  0  0  0
 18 20  1  0  0  0  0
 18 59  1  0  0  0  0
 19 47  1  0  0  0  0
 19 48  1  0  0  0  0
 19 49  1  0  0  0  0
 20 21  1  0  0  0  0
 20 50  1  0  0  0  0
 20 51  1  0  0  0  0
 21 22  1  0  0  0  0
 21 52  1  0  0  0  0
 21 53  1  0  0  0  0
 22 54  1  0  0  0  0
 23 30  1  0  0  0  0
 23 24  1  0  0  0  0
 24 55  1  0  0  0  0
 24 56  1  0  0  0  0
 24 57  1  0  0  0  0
 25 26  1  0  0  0  0
 26 27  2  0  0  0  0
 26 58  1  0  0  0  0
 27 28  1  0  0  0  0
M  CHG  1  18   1
M  END
> <s_m_source_file>
AV-unprocessed.smi

> <i_m_source_file_index>
290

> <i_lp_mmshare_version>
43012

> <i_f3d_flags>
0

> <s_epik_input>
W0NIMl0xW0NIMl1PW0NAQEhdKFtDSDNdKVtDQEBdMShbT0hdKVtDSDJdbihbY0hdbjIpYyhjMjMpbltjSF1uYzNONFtDSDJdW0NIMl1bQ0BIXShbQ0BIXTRbQ0gzXSlOKFtDSDNdKVtDSDJdW0NIMl1bT0hd

> <s_epik_cmdline>
J2VwaWtfcHl0aG9uJywgJy1waCcsICc3LjAnLCAnLXRuJywgJzgnLCAnLW1hJywgJzIwMCcsICctbWV0YWxfYmluZGluZycsICctaW1hZScsICc8aW5maWxlLm1hZT4nLCAnLW9tYWUnLCAnPG91dGZpbGUubWFlPic=

> <r_lp_tautomer_probability>
1

> <r_epik_Ionization_Penalty>
0.0036983

> <r_epik_Ionization_Penalty_Charging>
0.0032725

> <r_epik_Ionization_Penalty_Neutral>
0.000425798

> <r_epik_State_Penalty>
-0

> <r_epik_Charging_Adjusted_Penalty>
0.0032725

> <i_epik_Tot_Q>
1

> <i_epik_Tot_abs_Q>
1

> <r_epik_Metal_State_Penalty>
-0

> <b_epik_Metal_Only>
0

> <s_lp_Force_Field>
OPLS_2005

> <r_lp_Energy>
63.0436

> <b_lp_Chiralities_Consistent>
1

> <s_lp_Variant>
AV-unprocessed.smi:290-17

> <Gold.Version>
5.8.1

> <Gold.Id.Protein>
6NUR|6NUR_protein|mol2

> <Gold.PLP.Fitness>
53.2014

> <Gold.PLP.PLP>
-41.5212

> <Gold.PLP.part.hbond>
-3.6793

> <Gold.PLP.part.metal>
0.0000

> <Gold.PLP.part.buried>
-5.2686

> <Gold.PLP.part.nonpolar>
-30.8865

> <Gold.PLP.part.repulsive>
0.0752

> <Gold.PLP.ligand.clash>
0.0000

> <Gold.PLP.ligand.torsion>
0.5456

> <Gold.PLP.Chemscore.Hbond>
4.1612

> <Gold.PLP.Chemscore.CHOScore>
0.0000

> <Gold.PLP.Chemscore.Metal>
0.0000

> <Gold.Chemscore.Hbonds>
donor molecule, donor type, donor heavy atom, donor atom, acceptor molecule, acceptor atom, score
      L1  H    18    59       P1  7948  2.00
      L1  H    22    54       P1 10957  1.00
      P1  H  7997  8009       L1    27  1.00
      P1  H 10752 10765       L1    25  0.11

> <Gold.PLP.Chemscore.Internal.Correction>
0.2879

> <Gold.Rescore>
     Score         DG    S(hbond)    S(metal)    S(lipo)     H(rot)  DE(clash)    DE(int)     intcor
     12.86     -15.48       2.16        0.00      97.09       3.35       0.48       2.15       ----

> <Gold.Chemscore.Fitness>
12.8563

> <Gold.Chemscore.DG>
-15.4832

> <Gold.Chemscore.ZeroCoef>
-5.4800

> <Gold.Chemscore.Hbond>
2.1629

> <Gold.Chemscore.Metal>
0.0000

> <Gold.Chemscore.Lipo>
97.0901

> <Gold.Chemscore.Internal_Hbond>
0.0000

> <Gold.Chemscore.DEClash>
0.4787

> <Gold.Chemscore.DEInternal>
2.1483

> <Gold.Chemscore.Rot>
3.3518

> <Gold.Chemscore.Internal.Correction>
   9.000000E+99

> <Gold.Chemscore.Hbonds>
donor molecule, donor type, donor heavy atom, donor atom, acceptor molecule, acceptor atom, score
      L1  H    18    59       P1  7948  0.25
      L1  H    22    54       P1 10957  0.98
      P1  H  7997  8009       L1    27  0.28
      P1  H 10752 10765       L1    25  0.04

> <Gold.Chemscore.Hbond.Weighted>
-7.2242

> <Gold.Chemscore.Metal.Weighted>
-0.0000

> <Gold.Chemscore.Lipo.Weighted>
-11.3595

> <Gold.Chemscore.Internal_Hbond.Weighted>
0.0000

> <Gold.Chemscore.DEClash.Weighted>
0.4787

> <Gold.Chemscore.DEInternal.Weighted>
2.1483

> <Gold.Chemscore.Rot.Weighted>
8.5806

> <Gold.Chemscore.Internal.Correction.Weighted>
   9.000000E+99

> <Gold.Protein.RotatedTorsions>
[ 6907 6896 6895 6894 ] final   99.09 input  -60.11 | X-H torsion
[ 7974 7965 7964 7962 ] final  -66.40 input  175.53 | X-H torsion
[ 8008 7997 7996 7995 ] final -152.44 input   59.86 | X-H torsion
[ 10167 10162 10161 10158 ] final   96.14 input  -65.29 | X-H torsion
[ 10718 10713 10712 10709 ] final   28.12 input   66.30 | X-H torsion
[ 10763 10752 10751 10750 ] final  174.10 input  -60.55 | X-H torsion
[ 11005 11000 10999 10996 ] final  137.75 input  -57.11 | X-H torsion

> <Gold.Protein.ActiveResidues>
 VAL166  LYS551  ARG553  GLY616  TRP617  ASP618  TYR619  PRO620  LYS621  CYS622 
 ASP623  PHE694  ASN695  SER759  ASP760  ASP761  ALA762  ILE779  LEU786  VAL792 
 PHE793  MET794  SER795  GLU796  ALA797  LYS798  CYS799  TRP800  GLU811  SER814 

> <Gold.Protein.RotatedAtoms>
  152.5398  134.0482  159.8097 H   0  0  0  0  0  0  0  0  0  0  0  0  # atno 6907 bound_to 6896
  151.0627  133.5523  159.2640 H   0  0  0  0  0  0  0  0  0  0  0  0  # atno 6908 bound_to 6896
  151.2416  135.0599  159.9081 H   0  0  0  0  0  0  0  0  0  0  0  0  # atno 6909 bound_to 6896
  145.7422  140.8948  143.0524 H   0  0  0  0  0  0  0  0  0  0  0  0  # atno 7974 bound_to 7965
  155.6551  140.0716  157.2573 H   0  0  0  0  0  0  0  0  0  0  0  0  # atno 8008 bound_to 7997
  154.4154  140.1726  156.1767 H   0  0  0  0  0  0  0  0  0  0  0  0  # atno 8009 bound_to 7997
  155.9744  140.3359  155.6608 H   0  0  0  0  0  0  0  0  0  0  0  0  # atno 8010 bound_to 7997
  139.7922  144.6847  150.9877 H   0  0  0  0  0  0  0  0  0  0  0  0  # atno 10167 bound_to 10162
  157.2293  130.7016  149.6306 H   0  0  0  0  0  0  0  0  0  0  0  0  # atno 10718 bound_to 10713
  154.4492  135.2764  155.1793 H   0  0  0  0  0  0  0  0  0  0  0  0  # atno 10763 bound_to 10752
  154.3627  135.6126  153.5702 H   0  0  0  0  0  0  0  0  0  0  0  0  # atno 10764 bound_to 10752
  152.9846  135.5838  154.4834 H   0  0  0  0  0  0  0  0  0  0  0  0  # atno 10765 bound_to 10752
  140.0135  134.9428  157.0328 H   0  0  0  0  0  0  0  0  0  0  0  0  # atno 11005 bound_to 11000
  144.6868  139.9476  143.7477 LP  0  0  0  0  0  0  0  0  0  0  0  0  # atno 17320 bound_to 7965
  146.0437  139.3445  143.0682 LP  0  0  0  0  0  0  0  0  0  0  0  0  # atno 17321 bound_to 7965
  140.7820  143.4369  151.0610 LP  0  0  0  0  0  0  0  0  0  0  0  0  # atno 17342 bound_to 10162
  139.8045  143.8037  152.3166 LP  0  0  0  0  0  0  0  0  0  0  0  0  # atno 17343 bound_to 10162
  155.9676  130.4494  150.5657 LP  0  0  0  0  0  0  0  0  0  0  0  0  # atno 17370 bound_to 10713
  157.3495  131.0731  151.1724 LP  0  0  0  0  0  0  0  0  0  0  0  0  # atno 17371 bound_to 10713
  140.4512  134.1581  155.7182 LP  0  0  0  0  0  0  0  0  0  0  0  0  # atno 17394 bound_to 11000
  141.1727  133.8576  157.1519 LP  0  0  0  0  0  0  0  0  0  0  0  0  # atno 17395 bound_to 11000

$$$$
