AV-unprocessed.smi:201|AV-procd|sdf|1580|dock2
  -GOLD-   2262019463D 1   1.00000     0.00000
 Structure written by MMmdl.
 59 61  0  0  0  0  0  0  0  0  1 V2000
  149.3533  140.1547  155.1577 C   0  0  0  0  0  0  0  0  0  0  0  0
  150.7544  140.4640  155.7185 C   0  0  0  0  0  0  0  0  0  0  0  0
  151.7441  139.4063  155.1824 C   0  0  0  0  0  0  0  0  0  0  0  0
  150.7531  140.5374  157.1904 N   0  0  0  0  0  0  0  0  0  0  0  0
  151.6659  141.4503  157.8851 C   0  0  0  0  0  0  0  0  0  0  0  0
  150.9871  142.2699  159.0017 C   0  0  0  0  0  0  0  0  0  0  0  0
  151.9177  143.1159  159.6619 O   0  0  0  0  0  0  0  0  0  0  0  0
  152.0393  144.4104  159.0890 C   0  0  0  0  0  0  0  0  0  0  0  0
  151.3356  145.4237  159.9991 C   0  0  0  0  0  0  0  0  0  0  0  0
  151.5993  145.1226  161.3526 O   0  0  0  0  0  0  0  0  0  0  0  0
  150.5863  139.3835  157.8831 C   0  0  0  0  0  0  0  0  0  0  0  0
  151.6116  138.9863  158.6783 N   0  0  0  0  0  0  0  0  0  0  0  0
  151.5177  137.8530  159.3796 C   0  0  0  0  0  0  0  0  0  0  0  0
  150.5100  136.9794  159.4230 N   0  0  0  0  0  0  0  0  0  0  0  0
  149.4822  137.3673  158.6146 C   0  0  0  0  0  0  0  0  0  0  0  0
  149.4352  138.5454  157.8171 C   0  0  0  0  0  0  0  0  0  0  0  0
  148.2294  138.5987  157.1276 N   0  0  0  0  0  0  0  0  0  0  0  0
  147.5962  137.5226  157.5058 C   0  0  0  0  0  0  0  0  0  0  0  0
  148.2834  136.7146  158.3831 N   0  0  0  0  0  0  0  0  0  0  0  0
  147.8208  135.4626  158.9652 C   0  0  0  0  0  0  0  0  0  0  0  0
  147.1817  135.5709  160.3845 C   0  0  0  0  0  0  0  0  0  0  0  0
  145.9022  136.4459  160.2545 C   0  0  0  0  0  0  0  0  0  0  0  0
  146.1967  137.8277  160.1915 O   0  0  0  0  0  0  0  0  0  0  0  0
  146.8509  134.1698  160.9625 C   0  0  0  0  0  0  0  0  0  0  0  0
  146.3942  134.2280  162.4316 C   0  0  0  0  0  0  0  0  0  0  0  0
  147.3978  134.8495  163.2250 O   0  0  0  0  0  0  0  0  0  0  0  0
  147.6605  136.1932  162.8397 C   0  0  0  0  0  0  0  0  0  0  0  0
  148.1637  136.2367  161.3842 C   0  0  0  0  0  0  0  0  0  0  0  0
  149.3802  140.0511  154.0725 H   0  0  0  0  0  0  0  0  0  0  0  0
  148.6428  140.9521  155.3753 H   0  0  0  0  0  0  0  0  0  0  0  0
  148.9567  139.2257  155.5687 H   0  0  0  0  0  0  0  0  0  0  0  0
  151.0522  141.4359  155.3263 H   0  0  0  0  0  0  0  0  0  0  0  0
  151.6942  139.3404  154.0953 H   0  0  0  0  0  0  0  0  0  0  0  0
  151.5180  138.4173  155.5823 H   0  0  0  0  0  0  0  0  0  0  0  0
  152.7794  139.6363  155.4320 H   0  0  0  0  0  0  0  0  0  0  0  0
  152.4970  140.8814  158.2999 H   0  0  0  0  0  0  0  0  0  0  0  0
  152.1213  142.1206  157.1558 H   0  0  0  0  0  0  0  0  0  0  0  0
  150.1466  142.8514  158.6206 H   0  0  0  0  0  0  0  0  0  0  0  0
  150.5803  141.5950  159.7546 H   0  0  0  0  0  0  0  0  0  0  0  0
  153.0792  144.6948  158.9258 H   0  0  0  0  0  0  0  0  0  0  0  0
  151.5485  144.4078  158.1145 H   0  0  0  0  0  0  0  0  0  0  0  0
  151.7196  146.4253  159.8033 H   0  0  0  0  0  0  0  0  0  0  0  0
  150.2612  145.4462  159.8145 H   0  0  0  0  0  0  0  0  0  0  0  0
  152.3945  144.6133  161.3947 H   0  0  0  0  0  0  0  0  0  0  0  0
  152.3734  137.6106  159.9925 H   0  0  0  0  0  0  0  0  0  0  0  0
  146.6059  137.2827  157.1464 H   0  0  0  0  0  0  0  0  0  0  0  0
  147.1046  135.0216  158.2706 H   0  0  0  0  0  0  0  0  0  0  0  0
  148.6714  134.7802  158.9848 H   0  0  0  0  0  0  0  0  0  0  0  0
  145.3204  136.1974  159.3690 H   0  0  0  0  0  0  0  0  0  0  0  0
  145.2419  136.2784  161.1062 H   0  0  0  0  0  0  0  0  0  0  0  0
  145.4906  138.2649  159.7404 H   0  0  0  0  0  0  0  0  0  0  0  0
  146.0970  133.6677  160.3558 H   0  0  0  0  0  0  0  0  0  0  0  0
  147.7343  133.5339  160.9280 H   0  0  0  0  0  0  0  0  0  0  0  0
  145.4447  134.7526  162.5399 H   0  0  0  0  0  0  0  0  0  0  0  0
  146.2338  133.2174  162.8078 H   0  0  0  0  0  0  0  0  0  0  0  0
  146.7722  136.8082  162.9830 H   0  0  0  0  0  0  0  0  0  0  0  0
  148.4238  136.5990  163.5040 H   0  0  0  0  0  0  0  0  0  0  0  0
  149.1241  135.7226  161.3696 H   0  0  0  0  0  0  0  0  0  0  0  0
  148.3669  137.2666  161.0893 H   0  0  0  0  0  0  0  0  0  0  0  0
  1  2  1  0  0  0  0
  1 29  1  0  0  0  0
  1 30  1  0  0  0  0
  1 31  1  0  0  0  0
  2  3  1  0  0  0  0
  2  4  1  0  0  0  0
  2 32  1  0  0  0  0
  3 33  1  0  0  0  0
  3 34  1  0  0  0  0
  3 35  1  0  0  0  0
  4  5  1  0  0  0  0
  4 11  1  0  0  0  0
  5  6  1  0  0  0  0
  5 36  1  0  0  0  0
  5 37  1  0  0  0  0
  6  7  1  0  0  0  0
  6 38  1  0  0  0  0
  6 39  1  0  0  0  0
  7  8  1  0  0  0  0
  8  9  1  0  0  0  0
  8 40  1  0  0  0  0
  8 41  1  0  0  0  0
  9 10  1  0  0  0  0
  9 42  1  0  0  0  0
  9 43  1  0  0  0  0
 10 44  1  0  0  0  0
 11 16  1  0  0  0  0
 11 12  2  0  0  0  0
 12 13  1  0  0  0  0
 13 14  2  0  0  0  0
 13 45  1  0  0  0  0
 14 15  1  0  0  0  0
 15 19  1  0  0  0  0
 15 16  2  0  0  0  0
 16 17  1  0  0  0  0
 17 18  2  0  0  0  0
 18 19  1  0  0  0  0
 18 46  1  0  0  0  0
 19 20  1  0  0  0  0
 20 21  1  0  0  0  0
 20 47  1  0  0  0  0
 20 48  1  0  0  0  0
 21 28  1  0  0  0  0
 21 22  1  0  0  0  0
 21 24  1  0  0  0  0
 22 23  1  0  0  0  0
 22 49  1  0  0  0  0
 22 50  1  0  0  0  0
 23 51  1  0  0  0  0
 24 25  1  0  0  0  0
 24 52  1  0  0  0  0
 24 53  1  0  0  0  0
 25 26  1  0  0  0  0
 25 54  1  0  0  0  0
 25 55  1  0  0  0  0
 26 27  1  0  0  0  0
 27 28  1  0  0  0  0
 27 56  1  0  0  0  0
 27 57  1  0  0  0  0
 28 58  1  0  0  0  0
 28 59  1  0  0  0  0
M  END
> <s_m_source_file>
AV-unprocessed.smi

> <i_m_source_file_index>
201

> <i_lp_mmshare_version>
43012

> <i_f3d_flags>
0

> <s_epik_input>
W09IXVtDSDJdW0NIMl1PW0NIMl1bQ0gyXU4oW0NIXShbQ0gzXSlbQ0gzXSljKG5bY0hdbjEpYyhjMTIpbltjSF1uMltDSDJdQzMoW0NIMl1bT0hdKVtDSDJdW0NIMl1PW0NIMl1bQ0gyXTM=

> <s_epik_cmdline>
J2VwaWtfcHl0aG9uJywgJy1waCcsICc3LjAnLCAnLXRuJywgJzgnLCAnLW1hJywgJzIwMCcsICctbWV0YWxfYmluZGluZycsICctaW1hZScsICc8aW5maWxlLm1hZT4nLCAnLW9tYWUnLCAnPG91dGZpbGUubWFlPic=

> <r_lp_tautomer_probability>
1

> <r_epik_Ionization_Penalty>
0.00276835

> <r_epik_Ionization_Penalty_Charging>
0

> <r_epik_Ionization_Penalty_Neutral>
0.00276835

> <r_epik_State_Penalty>
0.00179834

> <r_epik_Charging_Adjusted_Penalty>
0.00179834

> <i_epik_Tot_Q>
0

> <i_epik_Tot_abs_Q>
0

> <r_epik_Metal_State_Penalty>
-0

> <b_epik_Metal_Only>
0

> <s_lp_Force_Field>
OPLS_2005

> <r_lp_Energy>
32.5455

> <b_lp_Chiralities_Consistent>
1

> <s_lp_Variant>
AV-unprocessed.smi:201-1

> <Gold.Version>
5.8.1

> <Gold.Id.Protein>
6NUR|6NUR_protein|mol2

> <Gold.PLP.Fitness>
53.1542

> <Gold.PLP.PLP>
-50.6575

> <Gold.PLP.part.hbond>
-3.4203

> <Gold.PLP.part.metal>
0.0000

> <Gold.PLP.part.buried>
-8.5406

> <Gold.PLP.part.nonpolar>
-38.3051

> <Gold.PLP.part.repulsive>
0.0137

> <Gold.PLP.ligand.clash>
0.0000

> <Gold.PLP.ligand.torsion>
2.4718

> <Gold.PLP.Chemscore.Hbond>
2.0000

> <Gold.PLP.Chemscore.CHOScore>
0.0000

> <Gold.PLP.Chemscore.Metal>
0.0000

> <Gold.Chemscore.Hbonds>
donor molecule, donor type, donor heavy atom, donor atom, acceptor molecule, acceptor atom, score
      P1  H  6896  6909       L1    14  0.89
      P1  H  6934  6947       L1    23  1.00

> <Gold.PLP.Chemscore.Internal.Correction>
1.4402

> <Gold.Rescore>
     Score         DG    S(hbond)    S(metal)    S(lipo)     H(rot)  DE(clash)    DE(int)     intcor
      8.11     -12.22       1.83        0.00     107.71       4.68       0.03       4.08       ----

> <Gold.Chemscore.Fitness>
8.1117

> <Gold.Chemscore.DG>
-12.2178

> <Gold.Chemscore.ZeroCoef>
-5.4800

> <Gold.Chemscore.Hbond>
1.8290

> <Gold.Chemscore.Metal>
0.0000

> <Gold.Chemscore.Lipo>
107.7112

> <Gold.Chemscore.Internal_Hbond>
0.0000

> <Gold.Chemscore.DEClash>
0.0289

> <Gold.Chemscore.DEInternal>
4.0772

> <Gold.Chemscore.Rot>
4.6771

> <Gold.Chemscore.Internal.Correction>
   9.000000E+99

> <Gold.Chemscore.Hbonds>
donor molecule, donor type, donor heavy atom, donor atom, acceptor molecule, acceptor atom, score
      P1  H  6896  6909       L1    14  0.82
      P1  H  6934  6947       L1    23  0.59

> <Gold.Chemscore.Hbond.Weighted>
-6.1090

> <Gold.Chemscore.Metal.Weighted>
-0.0000

> <Gold.Chemscore.Lipo.Weighted>
-12.6022

> <Gold.Chemscore.Internal_Hbond.Weighted>
0.0000

> <Gold.Chemscore.DEClash.Weighted>
0.0289

> <Gold.Chemscore.DEInternal.Weighted>
4.0772

> <Gold.Chemscore.Rot.Weighted>
11.9733

> <Gold.Chemscore.Internal.Correction.Weighted>
   9.000000E+99

> <Gold.Protein.RotatedTorsions>
[ 6907 6896 6895 6894 ] final   80.97 input  -60.11 | X-H torsion
[ 7974 7965 7964 7962 ] final   67.93 input  175.53 | X-H torsion
[ 8008 7997 7996 7995 ] final  170.98 input   59.86 | X-H torsion
[ 10167 10162 10161 10158 ] final -138.74 input  -65.29 | X-H torsion
[ 10718 10713 10712 10709 ] final   12.73 input   66.30 | X-H torsion
[ 10763 10752 10751 10750 ] final   94.41 input  -60.55 | X-H torsion
[ 11005 11000 10999 10996 ] final   34.36 input  -57.11 | X-H torsion

> <Gold.Protein.ActiveResidues>
 VAL166  LYS551  ARG553  GLY616  TRP617  ASP618  TYR619  PRO620  LYS621  CYS622 
 ASP623  PHE694  ASN695  SER759  ASP760  ASP761  ALA762  ILE779  LEU786  VAL792 
 PHE793  MET794  SER795  GLU796  ALA797  LYS798  CYS799  TRP800  GLU811  SER814 

> <Gold.Protein.RotatedAtoms>
  152.5253  134.3275  159.9170 H   0  0  0  0  0  0  0  0  0  0  0  0  # atno 6907 bound_to 6896
  151.3224  133.4028  159.2663 H   0  0  0  0  0  0  0  0  0  0  0  0  # atno 6908 bound_to 6896
  150.9948  134.9291  159.7977 H   0  0  0  0  0  0  0  0  0  0  0  0  # atno 6909 bound_to 6896
  145.8087  139.3021  143.1112 H   0  0  0  0  0  0  0  0  0  0  0  0  # atno 7974 bound_to 7965
  156.1314  140.1523  156.9059 H   0  0  0  0  0  0  0  0  0  0  0  0  # atno 8008 bound_to 7997
  154.4912  140.0851  156.7638 H   0  0  0  0  0  0  0  0  0  0  0  0  # atno 8009 bound_to 7997
  155.4249  140.3424  155.4277 H   0  0  0  0  0  0  0  0  0  0  0  0  # atno 8010 bound_to 7997
  139.8448  143.7275  152.2661 H   0  0  0  0  0  0  0  0  0  0  0  0  # atno 10167 bound_to 10162
  157.0144  130.6129  149.5712 H   0  0  0  0  0  0  0  0  0  0  0  0  # atno 10718 bound_to 10713
  153.2413  135.4290  155.0701 H   0  0  0  0  0  0  0  0  0  0  0  0  # atno 10763 bound_to 10752
  154.8342  135.3403  154.6645 H   0  0  0  0  0  0  0  0  0  0  0  0  # atno 10764 bound_to 10752
  153.7069  135.7025  153.5104 H   0  0  0  0  0  0  0  0  0  0  0  0  # atno 10765 bound_to 10752
  140.2537  134.3274  155.7881 H   0  0  0  0  0  0  0  0  0  0  0  0  # atno 11005 bound_to 11000
  145.9800  140.8690  143.0119 LP  0  0  0  0  0  0  0  0  0  0  0  0  # atno 17320 bound_to 7965
  144.6760  140.2066  143.7381 LP  0  0  0  0  0  0  0  0  0  0  0  0  # atno 17321 bound_to 7965
  139.7523  144.7530  151.0487 LP  0  0  0  0  0  0  0  0  0  0  0  0  # atno 17342 bound_to 10162
  140.7794  143.4845  150.9974 LP  0  0  0  0  0  0  0  0  0  0  0  0  # atno 17343 bound_to 10162
  156.0124  130.5217  150.8032 LP  0  0  0  0  0  0  0  0  0  0  0  0  # atno 17370 bound_to 10713
  157.5297  131.0936  150.9971 LP  0  0  0  0  0  0  0  0  0  0  0  0  # atno 17371 bound_to 10713
  141.2198  133.7368  156.9077 LP  0  0  0  0  0  0  0  0  0  0  0  0  # atno 17394 bound_to 11000
  140.1533  134.9215  157.2621 LP  0  0  0  0  0  0  0  0  0  0  0  0  # atno 17395 bound_to 11000

$$$$
