AV-unprocessed.smi:1380|AV-procd|sdf|5600|dock6
  -GOLD-   22720 5203D 1   1.00000     0.00000
 Structure written by MMmdl.
 33 34  0  0  0  0  0  0  0  0  1 V2000
  141.7564  136.5600  153.4768 O   0  0  0  0  0  0  0  0  0  0  0  0
  142.2220  137.6362  153.1016 C   0  0  0  0  0  0  0  0  0  0  0  0
  143.4457  137.7810  152.5757 N   0  0  0  0  0  0  0  0  0  0  0  0
  144.4153  136.7024  152.4104 C   0  0  0  0  0  0  0  0  0  0  0  0
  143.9971  135.6877  151.3280 C   0  0  0  0  0  0  0  0  0  0  0  0
  144.7606  134.3768  151.4031 C   0  0  0  0  0  0  0  0  0  0  0  0
  144.0761  133.1453  151.4552 C   0  0  0  0  0  0  0  0  0  0  0  0
  144.8255  131.9547  151.5149 C   0  0  0  0  0  0  0  0  0  0  0  0
  146.2317  132.0471  151.5206 C   0  0  0  0  0  0  0  0  0  0  0  0
  146.8983  133.2206  151.4708 N   0  0  0  0  0  0  0  0  0  0  0  0
  146.1721  134.3577  151.4156 C   0  0  0  0  0  0  0  0  0  0  0  0
  141.5749  138.8063  153.1852 N   0  0  0  0  0  0  0  0  0  0  0  0
  140.2489  138.9822  153.7619 C   0  0  0  0  0  0  0  0  0  0  0  0
  139.2184  137.9658  153.3077 C   0  0  0  0  0  0  0  0  0  0  0  0
  137.8079  137.9848  153.8509 C   0  0  0  0  0  0  0  0  0  0  0  0
  138.7536  136.8773  154.2467 C   0  0  0  0  0  0  0  0  0  0  0  0
  143.7404  138.7058  152.2981 H   0  0  0  0  0  0  0  0  0  0  0  0
  145.4014  137.1124  152.1872 H   0  0  0  0  0  0  0  0  0  0  0  0
  144.5041  136.1934  153.3705 H   0  0  0  0  0  0  0  0  0  0  0  0
  142.9292  135.4799  151.4082 H   0  0  0  0  0  0  0  0  0  0  0  0
  144.1431  136.1250  150.3397 H   0  0  0  0  0  0  0  0  0  0  0  0
  142.9965  133.1127  151.4465 H   0  0  0  0  0  0  0  0  0  0  0  0
  144.3347  130.9936  151.5550 H   0  0  0  0  0  0  0  0  0  0  0  0
  146.8372  131.1539  151.5652 H   0  0  0  0  0  0  0  0  0  0  0  0
  146.7352  135.2787  151.3714 H   0  0  0  0  0  0  0  0  0  0  0  0
  142.0420  139.6366  152.8512 H   0  0  0  0  0  0  0  0  0  0  0  0
  140.3485  138.9036  154.8444 H   0  0  0  0  0  0  0  0  0  0  0  0
  139.8848  139.9915  153.5613 H   0  0  0  0  0  0  0  0  0  0  0  0
  139.3287  137.6668  152.2669 H   0  0  0  0  0  0  0  0  0  0  0  0
  137.5644  138.7312  154.6045 H   0  0  0  0  0  0  0  0  0  0  0  0
  137.0025  137.7389  153.1620 H   0  0  0  0  0  0  0  0  0  0  0  0
  138.5773  135.8904  153.8236 H   0  0  0  0  0  0  0  0  0  0  0  0
  139.1361  136.8867  155.2653 H   0  0  0  0  0  0  0  0  0  0  0  0
  1  2  2  0  0  0  0
  2  3  1  0  0  0  0
  2 12  1  0  0  0  0
  3  4  1  0  0  0  0
  3 17  1  0  0  0  0
  4  5  1  0  0  0  0
  4 18  1  0  0  0  0
  4 19  1  0  0  0  0
  5  6  1  0  0  0  0
  5 20  1  0  0  0  0
  5 21  1  0  0  0  0
  6 11  1  0  0  0  0
  6  7  2  0  0  0  0
  7  8  1  0  0  0  0
  7 22  1  0  0  0  0
  8  9  2  0  0  0  0
  8 23  1  0  0  0  0
  9 10  1  0  0  0  0
  9 24  1  0  0  0  0
 10 11  2  0  0  0  0
 11 25  1  0  0  0  0
 12 13  1  0  0  0  0
 12 26  1  0  0  0  0
 13 14  1  0  0  0  0
 13 27  1  0  0  0  0
 13 28  1  0  0  0  0
 14 16  1  0  0  0  0
 14 15  1  0  0  0  0
 14 29  1  0  0  0  0
 15 16  1  0  0  0  0
 15 30  1  0  0  0  0
 15 31  1  0  0  0  0
 16 32  1  0  0  0  0
 16 33  1  0  0  0  0
M  END
> <s_m_source_file>
AV-unprocessed.smi

> <i_m_source_file_index>
1380

> <i_lp_mmshare_version>
43012

> <i_f3d_flags>
0

> <s_epik_input>
W0NIMl0xW0NIMl1bQ0hdMVtDSDJdW05IXUMoPU8pW05IXVtDSDJdW0NIMl1jMltjSF1bY0hdW2NIXW5bY0hdMg==

> <s_epik_cmdline>
J2VwaWtfcHl0aG9uJywgJy1waCcsICc3LjAnLCAnLXRuJywgJzgnLCAnLW1hJywgJzIwMCcsICctbWV0YWxfYmluZGluZycsICctaW1hZScsICc8aW5maWxlLm1hZT4nLCAnLW9tYWUnLCAnPG91dGZpbGUubWFlPic=

> <r_epik_Ionization_Penalty>
0.0144004

> <r_epik_Ionization_Penalty_Charging>
0

> <r_epik_Ionization_Penalty_Neutral>
0.0144004

> <r_epik_State_Penalty>
0.0112076

> <r_epik_Charging_Adjusted_Penalty>
0.0112076

> <i_epik_Tot_Q>
0

> <i_epik_Tot_abs_Q>
0

> <r_epik_Metal_State_Penalty>
0.0109423

> <b_epik_Metal_Only>
0

> <s_lp_Force_Field>
OPLS_2005

> <r_lp_Energy>
8.98924

> <b_lp_Chiralities_Consistent>
1

> <s_lp_Variant>
AV-unprocessed.smi:1380-1

> <Gold.Version>
5.8.1

> <Gold.Id.Protein>
6NUR|6NUR_protein|mol2

> <Gold.PLP.Fitness>
43.2850

> <Gold.PLP.PLP>
-32.1790

> <Gold.PLP.part.hbond>
-3.7842

> <Gold.PLP.part.metal>
0.0000

> <Gold.PLP.part.buried>
-4.3526

> <Gold.PLP.part.nonpolar>
-24.2926

> <Gold.PLP.part.repulsive>
0.4131

> <Gold.PLP.ligand.clash>
0.0000

> <Gold.PLP.ligand.torsion>
0.5691

> <Gold.PLP.Chemscore.Hbond>
1.9680

> <Gold.PLP.Chemscore.CHOScore>
1.9236

> <Gold.PLP.Chemscore.Metal>
0.0000

> <Gold.Chemscore.Hbonds>
donor molecule, donor type, donor heavy atom, donor atom, acceptor molecule, acceptor atom, score
      L1  H     3    17       P1 10175  1.00
      L1  H    12    26       P1 10175  0.98
      L1  C     9    24       P1 10747  0.88
      L1  C    11    25       P1  7948  1.00

> <Gold.PLP.Chemscore.Internal.Correction>
0.5692

> <Gold.Rescore>
     Score         DG    S(hbond)    S(metal)    S(lipo)     H(rot)  DE(clash)    DE(int)     intcor
     14.50     -16.01       1.93        0.00      72.14       1.70       0.07       1.43       ----

> <Gold.Chemscore.Fitness>
14.5021

> <Gold.Chemscore.DG>
-16.0051

> <Gold.Chemscore.ZeroCoef>
-5.4800

> <Gold.Chemscore.Hbond>
1.9277

> <Gold.Chemscore.Metal>
0.0000

> <Gold.Chemscore.Lipo>
72.1366

> <Gold.Chemscore.Internal_Hbond>
0.0000

> <Gold.Chemscore.DEClash>
0.0699

> <Gold.Chemscore.DEInternal>
1.4331

> <Gold.Chemscore.Rot>
1.7006

> <Gold.Chemscore.Internal.Correction>
   9.000000E+99

> <Gold.Chemscore.Hbonds>
donor molecule, donor type, donor heavy atom, donor atom, acceptor molecule, acceptor atom, score
      L1  H     3    17       P1 10175  0.95
      L1  H    12    26       P1 10175  0.56

> <Gold.Chemscore.Hbond.Weighted>
-6.4386

> <Gold.Chemscore.Metal.Weighted>
-0.0000

> <Gold.Chemscore.Lipo.Weighted>
-8.4400

> <Gold.Chemscore.Internal_Hbond.Weighted>
0.0000

> <Gold.Chemscore.DEClash.Weighted>
0.0699

> <Gold.Chemscore.DEInternal.Weighted>
1.4331

> <Gold.Chemscore.Rot.Weighted>
4.3534

> <Gold.Chemscore.Internal.Correction.Weighted>
   9.000000E+99

> <Gold.Protein.RotatedTorsions>
[ 6907 6896 6895 6894 ] final  -54.14 input  -60.11 | X-H torsion
[ 7974 7965 7964 7962 ] final   76.38 input  175.53 | X-H torsion
[ 8008 7997 7996 7995 ] final  -85.39 input   59.86 | X-H torsion
[ 10167 10162 10161 10158 ] final  -83.59 input  -65.29 | X-H torsion
[ 10718 10713 10712 10709 ] final  120.44 input   66.30 | X-H torsion
[ 10763 10752 10751 10750 ] final -177.42 input  -60.55 | X-H torsion
[ 11005 11000 10999 10996 ] final   48.02 input  -57.11 | X-H torsion

> <Gold.Protein.ActiveResidues>
 VAL166  LYS551  ARG553  GLY616  TRP617  ASP618  TYR619  PRO620  LYS621  CYS622 
 ASP623  PHE694  ASN695  SER759  ASP760  ASP761  ALA762  ILE779  LEU786  VAL792 
 PHE793  MET794  SER795  GLU796  ALA797  LYS798  CYS799  TRP800  GLU811  SER814 

> <Gold.Protein.RotatedAtoms>
  150.8364  134.7639  159.6896 H   0  0  0  0  0  0  0  0  0  0  0  0  # atno 6907 bound_to 6896
  152.4460  134.5490  159.9871 H   0  0  0  0  0  0  0  0  0  0  0  0  # atno 6908 bound_to 6896
  151.5639  133.3361  159.3012 H   0  0  0  0  0  0  0  0  0  0  0  0  # atno 6909 bound_to 6896
  145.7035  139.2590  143.1691 H   0  0  0  0  0  0  0  0  0  0  0  0  # atno 7974 bound_to 7965
  154.6403  140.0592  156.9837 H   0  0  0  0  0  0  0  0  0  0  0  0  # atno 8008 bound_to 7997
  155.1528  140.3275  155.4409 H   0  0  0  0  0  0  0  0  0  0  0  0  # atno 8009 bound_to 7997
  156.2527  140.1944  156.6639 H   0  0  0  0  0  0  0  0  0  0  0  0  # atno 8010 bound_to 7997
  140.4212  143.2584  151.8887 H   0  0  0  0  0  0  0  0  0  0  0  0  # atno 10167 bound_to 10162
  157.5891  131.1066  150.8035 H   0  0  0  0  0  0  0  0  0  0  0  0  # atno 10718 bound_to 10713
  154.5603  135.2819  155.0925 H   0  0  0  0  0  0  0  0  0  0  0  0  # atno 10763 bound_to 10752
  154.2337  135.6369  153.5187 H   0  0  0  0  0  0  0  0  0  0  0  0  # atno 10764 bound_to 10752
  153.0027  135.5543  154.6196 H   0  0  0  0  0  0  0  0  0  0  0  0  # atno 10765 bound_to 10752
  140.1228  134.4807  155.8584 H   0  0  0  0  0  0  0  0  0  0  0  0  # atno 11005 bound_to 11000
  146.0776  140.7800  142.9657 LP  0  0  0  0  0  0  0  0  0  0  0  0  # atno 17320 bound_to 7965
  144.6962  140.3439  143.7194 LP  0  0  0  0  0  0  0  0  0  0  0  0  # atno 17321 bound_to 7965
  139.4782  144.5435  151.8493 LP  0  0  0  0  0  0  0  0  0  0  0  0  # atno 17342 bound_to 10162
  140.4531  144.1827  150.5899 LP  0  0  0  0  0  0  0  0  0  0  0  0  # atno 17343 bound_to 10162
  156.8462  130.5065  149.5316 LP  0  0  0  0  0  0  0  0  0  0  0  0  # atno 17370 bound_to 10713
  156.0943  130.5920  150.9786 LP  0  0  0  0  0  0  0  0  0  0  0  0  # atno 17371 bound_to 10713
  141.2155  133.6767  156.6920 LP  0  0  0  0  0  0  0  0  0  0  0  0  # atno 17394 bound_to 11000
  140.2943  134.8215  157.4044 LP  0  0  0  0  0  0  0  0  0  0  0  0  # atno 17395 bound_to 11000

$$$$
