AV-unprocessed.smi:823|AV-procd|sdf|3847|dock4
  -GOLD-   22720 1293D 1   1.00000     0.00000
 Structure written by MMmdl.
 46 47  0  0  0  0  0  0  0  0  1 V2000
  154.5029  140.7473  161.7742 C   0  0  0  0  0  0  0  0  0  0  0  0
  153.8987  141.4900  160.5778 C   0  0  1  0  0  0  0  0  0  0  0  0
  153.2043  140.5303  159.5929 C   0  0  0  0  0  0  0  0  0  0  0  0
  152.5454  141.2798  158.5247 N   0  0  0  0  0  0  0  0  0  0  0  0
  152.0867  140.5628  157.3980 C   0  0  0  0  0  0  0  0  0  0  0  0
  150.9321  140.9923  156.7009 C   0  0  0  0  0  0  0  0  0  0  0  0
  150.4959  140.2630  155.5784 C   0  0  0  0  0  0  0  0  0  0  0  0
  151.2228  139.1268  155.1730 C   0  0  0  0  0  0  0  0  0  0  0  0
  150.7681  138.3225  153.9618 C   0  0  0  0  0  0  0  0  0  0  0  0
  150.1306  137.0503  154.2854 N   0  0  0  0  0  0  0  0  0  0  0  0
  150.7064  136.0584  154.9814 C   0  0  0  0  0  0  0  0  0  0  0  0
  151.8661  136.1080  155.3944 O   0  0  0  0  0  0  0  0  0  0  0  0
  149.8328  134.8241  155.2530 C   0  0  1  0  0  0  0  0  0  0  0  0
  148.6494  135.2486  156.1388 C   0  0  0  0  0  0  0  0  0  0  0  0
  149.2974  134.2993  153.9981 N   0  0  0  0  0  0  0  0  0  0  0  0
  149.3226  133.0090  153.6319 C   0  0  0  0  0  0  0  0  0  0  0  0
  148.7825  132.8125  152.4289 N   0  0  0  0  0  0  0  0  0  0  0  0
  149.7880  132.0991  154.3157 O   0  0  0  0  0  0  0  0  0  0  0  0
  152.3602  138.7709  155.9305 C   0  0  0  0  0  0  0  0  0  0  0  0
  152.7827  139.4669  157.0066 N   0  0  0  0  0  0  0  0  0  0  0  0
  151.6544  142.3265  159.0185 C   0  0  0  0  0  0  0  0  0  0  0  0
  152.3924  143.2250  160.0251 C   0  0  0  0  0  0  0  0  0  0  0  0
  152.9453  142.4287  161.0679 O   0  0  0  0  0  0  0  0  0  0  0  0
  155.2478  140.0205  161.4487 H   0  0  0  0  0  0  0  0  0  0  0  0
  153.7358  140.2125  162.3349 H   0  0  0  0  0  0  0  0  0  0  0  0
  154.9921  141.4415  162.4576 H   0  0  0  0  0  0  0  0  0  0  0  0
  154.6978  142.0276  160.0638 H   0  0  0  0  0  0  0  0  0  0  0  0
  153.9446  139.8488  159.1716 H   0  0  0  0  0  0  0  0  0  0  0  0
  152.4630  139.9244  160.1162 H   0  0  0  0  0  0  0  0  0  0  0  0
  150.3889  141.8759  157.0007 H   0  0  0  0  0  0  0  0  0  0  0  0
  149.6184  140.5790  155.0337 H   0  0  0  0  0  0  0  0  0  0  0  0
  150.0549  138.9262  153.4003 H   0  0  0  0  0  0  0  0  0  0  0  0
  151.6153  138.1467  153.2966 H   0  0  0  0  0  0  0  0  0  0  0  0
  149.1751  136.9266  153.9831 H   0  0  0  0  0  0  0  0  0  0  0  0
  150.4113  134.0507  155.7626 H   0  0  0  0  0  0  0  0  0  0  0  0
  148.9935  135.6487  157.0935 H   0  0  0  0  0  0  0  0  0  0  0  0
  148.0040  134.3975  156.3586 H   0  0  0  0  0  0  0  0  0  0  0  0
  148.0342  136.0123  155.6600 H   0  0  0  0  0  0  0  0  0  0  0  0
  148.8995  134.9704  153.3580 H   0  0  0  0  0  0  0  0  0  0  0  0
  148.7354  131.8831  152.0384 H   0  0  0  0  0  0  0  0  0  0  0  0
  148.4168  133.5999  151.9135 H   0  0  0  0  0  0  0  0  0  0  0  0
  152.9525  137.9049  155.6738 H   0  0  0  0  0  0  0  0  0  0  0  0
  151.2670  142.9451  158.2104 H   0  0  0  0  0  0  0  0  0  0  0  0
  150.7945  141.8573  159.4984 H   0  0  0  0  0  0  0  0  0  0  0  0
  153.1805  143.7959  159.5314 H   0  0  0  0  0  0  0  0  0  0  0  0
  151.7015  143.9474  160.4597 H   0  0  0  0  0  0  0  0  0  0  0  0
  1  2  1  0  0  0  0
  1 24  1  0  0  0  0
  1 25  1  0  0  0  0
  1 26  1  0  0  0  0
  2 23  1  0  0  0  0
  2  3  1  0  0  0  0
  2 27  1  0  0  0  0
  3  4  1  0  0  0  0
  3 28  1  0  0  0  0
  3 29  1  0  0  0  0
  4  5  1  0  0  0  0
  4 21  1  0  0  0  0
  5 20  1  0  0  0  0
  5  6  2  0  0  0  0
  6  7  1  0  0  0  0
  6 30  1  0  0  0  0
  7  8  2  0  0  0  0
  7 31  1  0  0  0  0
  8  9  1  0  0  0  0
  8 19  1  0  0  0  0
  9 10  1  0  0  0  0
  9 32  1  0  0  0  0
  9 33  1  0  0  0  0
 10 11  1  0  0  0  0
 10 34  1  0  0  0  0
 11 12  2  0  0  0  0
 11 13  1  0  0  0  0
 13 14  1  0  0  0  0
 13 15  1  0  0  0  0
 13 35  1  0  0  0  0
 14 36  1  0  0  0  0
 14 37  1  0  0  0  0
 14 38  1  0  0  0  0
 15 16  1  0  0  0  0
 15 39  1  0  0  0  0
 16 17  1  0  0  0  0
 16 18  2  0  0  0  0
 17 40  1  0  0  0  0
 17 41  1  0  0  0  0
 19 20  2  0  0  0  0
 19 42  1  0  0  0  0
 21 22  1  0  0  0  0
 21 43  1  0  0  0  0
 21 44  1  0  0  0  0
 22 23  1  0  0  0  0
 22 45  1  0  0  0  0
 22 46  1  0  0  0  0
M  END
> <s_m_source_file>
AV-unprocessed.smi

> <i_m_source_file_index>
823

> <i_lp_mmshare_version>
43012

> <i_f3d_flags>
0

> <s_epik_input>
W0NIM11bQ0BASF0xW0NIMl1OKFtDSDJdW0NIMl1PMSljMltjSF1bY0hdYyhbY0hdbjIpW0NIMl1bTkhdQyg9TylbQ0BIXShbQ0gzXSlbTkhdQyg9TylbTkgyXQ==

> <s_epik_cmdline>
J2VwaWtfcHl0aG9uJywgJy1waCcsICc3LjAnLCAnLXRuJywgJzgnLCAnLW1hJywgJzIwMCcsICctbWV0YWxfYmluZGluZycsICctaW1hZScsICc8aW5maWxlLm1hZT4nLCAnLW9tYWUnLCAnPG91dGZpbGUubWFlPic=

> <r_lp_tautomer_probability>
1

> <r_epik_Ionization_Penalty>
0.00555043

> <r_epik_Ionization_Penalty_Charging>
0

> <r_epik_Ionization_Penalty_Neutral>
0.00555043

> <r_epik_State_Penalty>
0.00402575

> <r_epik_Charging_Adjusted_Penalty>
0.00402575

> <i_epik_Tot_Q>
0

> <i_epik_Tot_abs_Q>
0

> <r_epik_Metal_State_Penalty>
-0

> <b_epik_Metal_Only>
0

> <s_lp_Force_Field>
OPLS_2005

> <r_lp_Energy>
10.1678

> <b_lp_Chiralities_Consistent>
1

> <s_lp_Variant>
AV-unprocessed.smi:823-4

> <Gold.Version>
5.8.1

> <Gold.Id.Protein>
6NUR|6NUR_protein|mol2

> <Gold.PLP.Fitness>
53.0841

> <Gold.PLP.PLP>
-42.2114

> <Gold.PLP.part.hbond>
-6.0395

> <Gold.PLP.part.metal>
0.0000

> <Gold.PLP.part.buried>
-2.1589

> <Gold.PLP.part.nonpolar>
-31.8590

> <Gold.PLP.part.repulsive>
0.2379

> <Gold.PLP.ligand.clash>
0.0000

> <Gold.PLP.ligand.torsion>
0.7912

> <Gold.PLP.Chemscore.Hbond>
4.0278

> <Gold.PLP.Chemscore.CHOScore>
0.0000

> <Gold.PLP.Chemscore.Metal>
0.0000

> <Gold.Chemscore.Hbonds>
donor molecule, donor type, donor heavy atom, donor atom, acceptor molecule, acceptor atom, score
      L1  H    10    34       P1  7948  0.14
      L1  H    15    39       P1  7948  1.00
      L1  H    17    40       P1 10747  0.82
      P1  H  7997  8008       L1    20  1.00
      P1  H 10752 10764       L1    12  0.84

> <Gold.PLP.Chemscore.Internal.Correction>
0.3717

> <Gold.Rescore>
     Score         DG    S(hbond)    S(metal)    S(lipo)     H(rot)  DE(clash)    DE(int)     intcor
     16.34     -18.39       2.71        0.00      90.32       2.62       0.02       2.03       ----

> <Gold.Chemscore.Fitness>
16.3379

> <Gold.Chemscore.DG>
-18.3937

> <Gold.Chemscore.ZeroCoef>
-5.4800

> <Gold.Chemscore.Hbond>
2.7077

> <Gold.Chemscore.Metal>
0.0000

> <Gold.Chemscore.Lipo>
90.3238

> <Gold.Chemscore.Internal_Hbond>
0.0000

> <Gold.Chemscore.DEClash>
0.0224

> <Gold.Chemscore.DEInternal>
2.0335

> <Gold.Chemscore.Rot>
2.6163

> <Gold.Chemscore.Internal.Correction>
   9.000000E+99

> <Gold.Chemscore.Hbonds>
donor molecule, donor type, donor heavy atom, donor atom, acceptor molecule, acceptor atom, score
      L1  H    10    34       P1  7948  0.13
      L1  H    15    39       P1  7948  0.34
      L1  H    17    40       P1 10747  0.74
      P1  H  7997  8008       L1    20  0.35
      P1  H 10752 10764       L1    12  0.74

> <Gold.Chemscore.Hbond.Weighted>
-9.0436

> <Gold.Chemscore.Metal.Weighted>
-0.0000

> <Gold.Chemscore.Lipo.Weighted>
-10.5679

> <Gold.Chemscore.Internal_Hbond.Weighted>
0.0000

> <Gold.Chemscore.DEClash.Weighted>
0.0224

> <Gold.Chemscore.DEInternal.Weighted>
2.0335

> <Gold.Chemscore.Rot.Weighted>
6.6978

> <Gold.Chemscore.Internal.Correction.Weighted>
   9.000000E+99

> <Gold.Protein.RotatedTorsions>
[ 6907 6896 6895 6894 ] final -177.45 input  -60.11 | X-H torsion
[ 7974 7965 7964 7962 ] final -119.50 input  175.53 | X-H torsion
[ 8008 7997 7996 7995 ] final  -68.30 input   59.86 | X-H torsion
[ 10167 10162 10161 10158 ] final  -62.16 input  -65.29 | X-H torsion
[ 10718 10713 10712 10709 ] final -175.85 input   66.30 | X-H torsion
[ 10763 10752 10751 10750 ] final  -67.57 input  -60.55 | X-H torsion
[ 11005 11000 10999 10996 ] final  128.26 input  -57.11 | X-H torsion

> <Gold.Protein.ActiveResidues>
 VAL166  LYS551  ARG553  GLY616  TRP617  ASP618  TYR619  PRO620  LYS621  CYS622 
 ASP623  PHE694  ASN695  SER759  ASP760  ASP761  ALA762  ILE779  LEU786  VAL792 
 PHE793  MET794  SER795  GLU796  ALA797  LYS798  CYS799  TRP800  GLU811  SER814 

> <Gold.Protein.RotatedAtoms>
  151.6212  133.3339  159.3088 H   0  0  0  0  0  0  0  0  0  0  0  0  # atno 6907 bound_to 6896
  150.8105  134.7260  159.6695 H   0  0  0  0  0  0  0  0  0  0  0  0  # atno 6908 bound_to 6896
  152.4201  134.5975  160.0042 H   0  0  0  0  0  0  0  0  0  0  0  0  # atno 6909 bound_to 6896
  145.0618  140.8296  143.4148 H   0  0  0  0  0  0  0  0  0  0  0  0  # atno 7974 bound_to 7965
  154.4859  140.0875  156.7484 H   0  0  0  0  0  0  0  0  0  0  0  0  # atno 8008 bound_to 7997
  155.4352  140.3451  155.4266 H   0  0  0  0  0  0  0  0  0  0  0  0  # atno 8009 bound_to 7997
  156.1260  140.1487  156.9124 H   0  0  0  0  0  0  0  0  0  0  0  0  # atno 8010 bound_to 7997
  140.5958  143.2350  151.6039 H   0  0  0  0  0  0  0  0  0  0  0  0  # atno 10167 bound_to 10162
  156.8059  130.9569  151.3117 H   0  0  0  0  0  0  0  0  0  0  0  0  # atno 10718 bound_to 10713
  154.3764  135.6084  153.5767 H   0  0  0  0  0  0  0  0  0  0  0  0  # atno 10763 bound_to 10752
  152.9789  135.5850  154.4462 H   0  0  0  0  0  0  0  0  0  0  0  0  # atno 10764 bound_to 10752
  154.4224  135.2846  155.1944 H   0  0  0  0  0  0  0  0  0  0  0  0  # atno 10765 bound_to 10752
  139.9551  134.9614  156.8976 H   0  0  0  0  0  0  0  0  0  0  0  0  # atno 11005 bound_to 11000
  145.1399  139.2579  143.5495 LP  0  0  0  0  0  0  0  0  0  0  0  0  # atno 17320 bound_to 7965
  146.3525  140.1073  142.8605 LP  0  0  0  0  0  0  0  0  0  0  0  0  # atno 17321 bound_to 7965
  139.5257  144.3067  152.1028 LP  0  0  0  0  0  0  0  0  0  0  0  0  # atno 17342 bound_to 10162
  140.2239  144.4438  150.6330 LP  0  0  0  0  0  0  0  0  0  0  0  0  # atno 17343 bound_to 10162
  157.6530  130.8901  149.9672 LP  0  0  0  0  0  0  0  0  0  0  0  0  # atno 17370 bound_to 10713
  156.1073  130.3652  150.0111 LP  0  0  0  0  0  0  0  0  0  0  0  0  # atno 17371 bound_to 10713
  140.5628  134.0518  155.7404 LP  0  0  0  0  0  0  0  0  0  0  0  0  # atno 17394 bound_to 11000
  141.1221  133.9444  157.2709 LP  0  0  0  0  0  0  0  0  0  0  0  0  # atno 17395 bound_to 11000

$$$$
