AV-unprocessed.smi:114|AV-procd|sdf|1118|dock6
  -GOLD-   2262018243D 1   1.00000     0.00000
 Structure written by MMmdl.
 32 34  0  0  0  0  0  0  0  0  1 V2000
  150.9501  132.4216  155.3176 N   0  0  0  0  0  0  0  0  0  0  0  0
  149.9828  133.3381  155.1713 C   0  0  0  0  0  0  0  0  0  0  0  0
  148.7357  132.9145  154.8599 N   0  0  0  0  0  0  0  0  0  0  0  0
  147.7411  133.7971  154.7049 C   0  0  0  0  0  0  0  0  0  0  0  0
  146.5262  133.2862  154.3955 F   0  0  0  0  0  0  0  0  0  0  0  0
  147.8128  135.1271  154.8219 N   0  0  0  0  0  0  0  0  0  0  0  0
  149.0681  135.5593  155.1368 C   0  0  0  0  0  0  0  0  0  0  0  0
  150.2046  134.7283  155.3270 C   0  0  0  0  0  0  0  0  0  0  0  0
  151.3142  135.5044  155.6337 N   0  0  0  0  0  0  0  0  0  0  0  0
  150.8537  136.7267  155.6234 C   0  0  0  0  0  0  0  0  0  0  0  0
  149.5114  136.8514  155.3388 N   0  0  0  0  0  0  0  0  0  0  0  0
  148.7089  138.1135  155.2643 C   0  0  1  0  0  0  0  0  0  0  0  0
  148.9473  138.8593  156.4159 O   0  0  0  0  0  0  0  0  0  0  0  0
  148.9199  140.2433  156.0874 C   0  0  1  0  0  0  0  0  0  0  0  0
  149.6086  141.0843  157.1770 C   0  0  0  0  0  0  0  0  0  0  0  0
  150.2194  142.2197  156.6012 O   0  0  0  0  0  0  0  0  0  0  0  0
  149.5765  140.2862  154.6993 C   0  0  1  0  0  0  0  0  0  0  0  0
  150.9893  140.3316  154.8025 O   0  0  0  0  0  0  0  0  0  0  0  0
  149.0734  138.9970  154.0519 C   0  0  1  0  0  0  0  0  0  0  0  0
  149.9864  138.4312  153.1246 O   0  0  0  0  0  0  0  0  0  0  0  0
  147.6711  137.7787  155.2422 H   0  0  0  0  0  0  0  0  0  0  0  0
  147.8778  140.5510  155.9782 H   0  0  0  0  0  0  0  0  0  0  0  0
  149.2585  141.1633  154.1349 H   0  0  0  0  0  0  0  0  0  0  0  0
  148.1418  139.2051  153.5239 H   0  0  0  0  0  0  0  0  0  0  0  0
  151.8886  132.7137  155.5497 H   0  0  0  0  0  0  0  0  0  0  0  0
  150.7390  131.4418  155.1947 H   0  0  0  0  0  0  0  0  0  0  0  0
  151.4854  137.5785  155.8295 H   0  0  0  0  0  0  0  0  0  0  0  0
  148.9024  141.3856  157.9517 H   0  0  0  0  0  0  0  0  0  0  0  0
  150.3948  140.5033  157.6603 H   0  0  0  0  0  0  0  0  0  0  0  0
  149.5607  142.8870  156.4839 H   0  0  0  0  0  0  0  0  0  0  0  0
  151.2658  139.6525  155.3989 H   0  0  0  0  0  0  0  0  0  0  0  0
  150.0865  139.0289  152.3994 H   0  0  0  0  0  0  0  0  0  0  0  0
  1  2  1  0  0  0  0
  1 25  1  0  0  0  0
  1 26  1  0  0  0  0
  2  8  1  0  0  0  0
  2  3  2  0  0  0  0
  3  4  1  0  0  0  0
  4  5  1  0  0  0  0
  4  6  2  0  0  0  0
  6  7  1  0  0  0  0
  7 11  1  0  0  0  0
  7  8  2  0  0  0  0
  8  9  1  0  0  0  0
  9 10  2  0  0  0  0
 10 11  1  0  0  0  0
 10 27  1  0  0  0  0
 11 12  1  0  0  0  0
 12 21  1  0  0  0  0
 12 19  1  0  0  0  0
 12 13  1  0  0  0  0
 13 14  1  0  0  0  0
 14 22  1  0  0  0  0
 14 15  1  0  0  0  0
 14 17  1  0  0  0  0
 15 16  1  0  0  0  0
 15 28  1  0  0  0  0
 15 29  1  0  0  0  0
 16 30  1  0  0  0  0
 17 23  1  0  0  0  0
 17 18  1  0  0  0  0
 17 19  1  0  0  0  0
 18 31  1  0  0  0  0
 19 24  1  0  0  0  0
 19 20  1  0  0  0  0
 20 32  1  0  0  0  0
M  END
> <s_m_source_file>
AV-unprocessed.smi

> <i_m_source_file_index>
114

> <i_lp_mmshare_version>
43012

> <i_f3d_flags>
0

> <s_epik_input>
RmMobjEpbmMoW05IMl0pYyhjMTIpbltjSF1uMltDQEBIXTNPW0NASF0oW0NIMl1bT0hdKVtDQEBIXShbT0hdKVtDQEBIXTNbT0hd

> <s_epik_cmdline>
J2VwaWtfcHl0aG9uJywgJy1waCcsICc3LjAnLCAnLXRuJywgJzgnLCAnLW1hJywgJzIwMCcsICctbWV0YWxfYmluZGluZycsICctaW1hZScsICc8aW5maWxlLm1hZT4nLCAnLW9tYWUnLCAnPG91dGZpbGUubWFlPic=

> <r_lp_tautomer_probability>
1

> <r_epik_Ionization_Penalty>
1.13199e-05

> <r_epik_Ionization_Penalty_Charging>
0

> <r_epik_Ionization_Penalty_Neutral>
1.13199e-05

> <r_epik_State_Penalty>
-0

> <r_epik_Charging_Adjusted_Penalty>
0

> <i_epik_Tot_Q>
0

> <i_epik_Tot_abs_Q>
0

> <r_epik_Metal_State_Penalty>
-0

> <b_epik_Metal_Only>
0

> <s_epik_Chemistry_Notes>
This compound contains an acetal/aminal-like group ( X-CH(R)-Y where X, Y are N, S, or O) that may be acid/base labile, releasing an aldehyde.

> <s_lp_Force_Field>
OPLS_2005

> <r_lp_Energy>
48.1785

> <b_lp_Chiralities_Consistent>
1

> <s_lp_Variant>
AV-unprocessed.smi:114-12

> <Gold.Version>
5.8.1

> <Gold.Id.Protein>
6NUR|6NUR_protein|mol2

> <Gold.PLP.Fitness>
32.1624

> <Gold.PLP.PLP>
-21.2838

> <Gold.PLP.part.hbond>
-5.5741

> <Gold.PLP.part.metal>
0.0000

> <Gold.PLP.part.buried>
-2.2087

> <Gold.PLP.part.nonpolar>
-12.6069

> <Gold.PLP.part.repulsive>
0.2191

> <Gold.PLP.ligand.clash>
0.0000

> <Gold.PLP.ligand.torsion>
0.5619

> <Gold.PLP.Chemscore.Hbond>
4.0000

> <Gold.PLP.Chemscore.CHOScore>
0.0000

> <Gold.PLP.Chemscore.Metal>
0.0000

> <Gold.Chemscore.Hbonds>
donor molecule, donor type, donor heavy atom, donor atom, acceptor molecule, acceptor atom, score
      L1  H    16    30       P1  8028  0.78
      L1  H    20    32       P1  7957  1.00
      P1  H  7989  7998       L1    18  1.00
      P1  H 10752 10765       L1     9  1.00

> <Gold.PLP.Chemscore.Internal.Correction>
0.0024

> <Gold.Rescore>
     Score         DG    S(hbond)    S(metal)    S(lipo)     H(rot)  DE(clash)    DE(int)     intcor
      9.74     -10.31       3.69        0.00      24.13       4.03       0.01       0.56       ----

> <Gold.Chemscore.Fitness>
9.7435

> <Gold.Chemscore.DG>
-10.3078

> <Gold.Chemscore.ZeroCoef>
-5.4800

> <Gold.Chemscore.Hbond>
3.6873

> <Gold.Chemscore.Metal>
0.0000

> <Gold.Chemscore.Lipo>
24.1311

> <Gold.Chemscore.Internal_Hbond>
0.0000

> <Gold.Chemscore.DEClash>
0.0060

> <Gold.Chemscore.DEInternal>
0.5583

> <Gold.Chemscore.Rot>
4.0277

> <Gold.Chemscore.Internal.Correction>
   9.000000E+99

> <Gold.Chemscore.Hbonds>
donor molecule, donor type, donor heavy atom, donor atom, acceptor molecule, acceptor atom, score
      L1  H    16    30       P1  8028  0.74
      L1  H    20    32       P1  7957  0.39
      P1  H  7989  7998       L1    18  0.74
      P1  H 10752 10765       L1     9  0.60

> <Gold.Chemscore.Hbond.Weighted>
-12.3154

> <Gold.Chemscore.Metal.Weighted>
-0.0000

> <Gold.Chemscore.Lipo.Weighted>
-2.8233

> <Gold.Chemscore.Internal_Hbond.Weighted>
0.0000

> <Gold.Chemscore.DEClash.Weighted>
0.0060

> <Gold.Chemscore.DEInternal.Weighted>
0.5583

> <Gold.Chemscore.Rot.Weighted>
10.3110

> <Gold.Chemscore.Internal.Correction.Weighted>
   9.000000E+99

> <Gold.Protein.RotatedTorsions>
[ 6907 6896 6895 6894 ] final -165.63 input  -60.11 | X-H torsion
[ 7974 7965 7964 7962 ] final  -27.21 input  175.53 | X-H torsion
[ 8008 7997 7996 7995 ] final -172.12 input   59.86 | X-H torsion
[ 10167 10162 10161 10158 ] final -114.74 input  -65.29 | X-H torsion
[ 10718 10713 10712 10709 ] final   77.19 input   66.30 | X-H torsion
[ 10763 10752 10751 10750 ] final -171.90 input  -60.55 | X-H torsion
[ 11005 11000 10999 10996 ] final   76.06 input  -57.11 | X-H torsion

> <Gold.Protein.ActiveResidues>
 VAL166  LYS551  ARG553  GLY616  TRP617  ASP618  TYR619  PRO620  LYS621  CYS622 
 ASP623  PHE694  ASN695  SER759  ASP760  ASP761  ALA762  ILE779  LEU786  VAL792 
 PHE793  MET794  SER795  GLU796  ALA797  LYS798  CYS799  TRP800  GLU811  SER814 

> <Gold.Protein.RotatedAtoms>
  151.4307  133.3671  159.2768 H   0  0  0  0  0  0  0  0  0  0  0  0  # atno 6907 bound_to 6896
  150.9227  134.8646  159.7510 H   0  0  0  0  0  0  0  0  0  0  0  0  # atno 6908 bound_to 6896
  152.4990  134.4246  159.9544 H   0  0  0  0  0  0  0  0  0  0  0  0  # atno 6909 bound_to 6896
  146.1373  140.5122  142.8667 H   0  0  0  0  0  0  0  0  0  0  0  0  # atno 7974 bound_to 7965
  155.9404  140.1107  157.1060 H   0  0  0  0  0  0  0  0  0  0  0  0  # atno 8008 bound_to 7997
  154.4088  140.1220  156.4986 H   0  0  0  0  0  0  0  0  0  0  0  0  # atno 8009 bound_to 7997
  155.6969  140.3472  155.4919 H   0  0  0  0  0  0  0  0  0  0  0  0  # atno 8010 bound_to 7997
  140.0977  143.4641  152.1831 H   0  0  0  0  0  0  0  0  0  0  0  0  # atno 10167 bound_to 10162
  157.6701  130.9810  150.1605 H   0  0  0  0  0  0  0  0  0  0  0  0  # atno 10718 bound_to 10713
  154.6253  135.2880  155.0279 H   0  0  0  0  0  0  0  0  0  0  0  0  # atno 10763 bound_to 10752
  154.1459  135.6511  153.4956 H   0  0  0  0  0  0  0  0  0  0  0  0  # atno 10764 bound_to 10752
  153.0254  135.5344  154.7059 H   0  0  0  0  0  0  0  0  0  0  0  0  # atno 10765 bound_to 10752
  139.9315  134.7570  156.1349 H   0  0  0  0  0  0  0  0  0  0  0  0  # atno 11005 bound_to 11000
  144.7754  140.5727  143.6642 LP  0  0  0  0  0  0  0  0  0  0  0  0  # atno 17320 bound_to 7965
  145.5127  139.1479  143.3596 LP  0  0  0  0  0  0  0  0  0  0  0  0  # atno 17321 bound_to 7965
  139.5689  144.7451  151.3946 LP  0  0  0  0  0  0  0  0  0  0  0  0  # atno 17342 bound_to 10162
  140.6995  143.7668  150.7379 LP  0  0  0  0  0  0  0  0  0  0  0  0  # atno 17343 bound_to 10162
  156.2383  130.3688  149.8366 LP  0  0  0  0  0  0  0  0  0  0  0  0  # atno 17370 bound_to 10713
  156.6173  130.8612  151.3468 LP  0  0  0  0  0  0  0  0  0  0  0  0  # atno 17371 bound_to 10713
  141.0906  133.6716  156.2532 LP  0  0  0  0  0  0  0  0  0  0  0  0  # atno 17394 bound_to 11000
  140.6189  134.5381  157.5545 LP  0  0  0  0  0  0  0  0  0  0  0  0  # atno 17395 bound_to 11000

$$$$
