AV-unprocessed.smi:2229|AV-procd|sdf|9034|dock8
  -GOLD-   2272012243D 1   1.00000     0.00000
 Structure written by MMmdl.
 43 44  0  0  0  0  0  0  0  0  2 V2000
  152.9332  142.2665  160.4534 C   0  0  0  0  0  0  0  0  0  0  0  0
  152.2929  143.3478  159.5662 C   0  0  0  0  0  0  0  0  0  0  0  0
  151.8921  144.5644  160.4147 C   0  0  0  0  0  0  0  0  0  0  0  0
  151.0841  142.8189  158.7670 C   0  0  0  0  0  0  0  0  0  0  0  0
  151.4562  141.8366  157.6412 C   0  0  0  0  0  0  0  0  0  0  0  0
  150.2324  141.1881  156.9670 C   0  0  1  0  0  0  0  0  0  0  0  0
  148.8869  141.7419  157.4572 C   0  0  0  0  0  0  0  0  0  0  0  0
  147.9298  141.5079  156.2942 C   0  0  0  0  0  0  0  0  0  0  0  0
  148.7811  141.7932  155.0593 C   0  0  0  0  0  0  0  0  0  0  0  0
  150.2130  141.3666  155.4286 C   0  0  2  0  0  0  0  0  0  0  0  0
  150.5496  140.1193  154.7499 N   0  0  0  0  0  0  0  0  0  0  0  0
  151.6811  139.4136  154.9126 C   0  0  0  0  0  0  0  0  0  0  0  0
  152.5947  139.7783  155.6514 O   0  0  0  0  0  0  0  0  0  0  0  0
  151.8303  138.0930  154.1378 C   0  0  0  0  0  0  0  0  0  0  0  0
  151.1349  136.9452  154.7317 N   0  0  0  0  0  0  0  0  0  0  0  0
  150.0779  136.3160  154.1230 C   0  0  0  0  0  0  0  0  0  0  0  0
  149.6392  135.3541  154.8528 N   0  0  0  0  0  0  0  0  0  0  0  0
  150.4553  135.3328  156.0288 N   0  5  0  0  0  0  0  0  0  0  0  0
  151.3567  136.3304  155.8950 C   0  0  0  0  0  0  0  0  0  0  0  0
  152.2443  136.6685  156.6766 O   0  0  0  0  0  0  0  0  0  0  0  0
  152.2108  141.8522  161.1572 H   0  0  0  0  0  0  0  0  0  0  0  0
  153.7615  142.6758  161.0324 H   0  0  0  0  0  0  0  0  0  0  0  0
  153.3347  141.4436  159.8627 H   0  0  0  0  0  0  0  0  0  0  0  0
  153.0470  143.6859  158.8543 H   0  0  0  0  0  0  0  0  0  0  0  0
  151.1362  144.2993  161.1546 H   0  0  0  0  0  0  0  0  0  0  0  0
  151.4842  145.3622  159.7935 H   0  0  0  0  0  0  0  0  0  0  0  0
  152.7508  144.9729  160.9483 H   0  0  0  0  0  0  0  0  0  0  0  0
  150.3731  142.3463  159.4461 H   0  0  0  0  0  0  0  0  0  0  0  0
  150.5603  143.6680  158.3269 H   0  0  0  0  0  0  0  0  0  0  0  0
  152.0636  142.3446  156.8912 H   0  0  0  0  0  0  0  0  0  0  0  0
  152.0805  141.0437  158.0509 H   0  0  0  0  0  0  0  0  0  0  0  0
  150.2423  140.1196  157.1929 H   0  0  0  0  0  0  0  0  0  0  0  0
  148.5468  141.2630  158.3758 H   0  0  0  0  0  0  0  0  0  0  0  0
  148.9656  142.8126  157.6507 H   0  0  0  0  0  0  0  0  0  0  0  0
  147.6054  140.4663  156.2864 H   0  0  0  0  0  0  0  0  0  0  0  0
  147.0406  142.1365  156.3466 H   0  0  0  0  0  0  0  0  0  0  0  0
  148.3944  141.2955  154.1688 H   0  0  0  0  0  0  0  0  0  0  0  0
  148.7680  142.8649  154.8567 H   0  0  0  0  0  0  0  0  0  0  0  0
  150.8999  142.1547  155.1141 H   0  0  0  0  0  0  0  0  0  0  0  0
  149.8508  139.7403  154.1265 H   0  0  0  0  0  0  0  0  0  0  0  0
  151.4864  138.2532  153.1144 H   0  0  0  0  0  0  0  0  0  0  0  0
  152.8933  137.8583  154.0639 H   0  0  0  0  0  0  0  0  0  0  0  0
  149.7214  136.6562  153.1493 H   0  0  0  0  0  0  0  0  0  0  0  0
  1  2  1  0  0  0  0
  1 21  1  0  0  0  0
  1 22  1  0  0  0  0
  1 23  1  0  0  0  0
  2  3  1  0  0  0  0
  2  4  1  0  0  0  0
  2 24  1  0  0  0  0
  3 25  1  0  0  0  0
  3 26  1  0  0  0  0
  3 27  1  0  0  0  0
  4  5  1  0  0  0  0
  4 28  1  0  0  0  0
  4 29  1  0  0  0  0
  5  6  1  0  0  0  0
  5 30  1  0  0  0  0
  5 31  1  0  0  0  0
  6 10  1  0  0  0  0
  6  7  1  0  0  0  0
  6 32  1  0  0  0  0
  7  8  1  0  0  0  0
  7 33  1  0  0  0  0
  7 34  1  0  0  0  0
  8  9  1  0  0  0  0
  8 35  1  0  0  0  0
  8 36  1  0  0  0  0
  9 10  1  0  0  0  0
  9 37  1  0  0  0  0
  9 38  1  0  0  0  0
 10 11  1  0  0  0  0
 10 39  1  0  0  0  0
 11 12  1  0  0  0  0
 11 40  1  0  0  0  0
 12 13  2  0  0  0  0
 12 14  1  0  0  0  0
 14 15  1  0  0  0  0
 14 41  1  0  0  0  0
 14 42  1  0  0  0  0
 15 19  1  0  0  0  0
 15 16  1  0  0  0  0
 16 17  2  0  0  0  0
 16 43  1  0  0  0  0
 17 18  1  0  0  0  0
 18 19  1  0  0  0  0
 19 20  2  0  0  0  0
M  CHG  1  18  -1
M  END
> <s_m_source_file>
AV-unprocessed.smi

> <i_m_source_file_index>
2229

> <i_lp_mmshare_version>
43012

> <i_f3d_flags>
0

> <s_epik_input>
W0NIM11bQ0hdKFtDSDNdKVtDSDJdW0NIMl1bQ0BASF0xW0NIMl1bQ0gyXVtDSDJdW0NASF0xW05IXUMoPU8pW0NIMl1uMltjSF1uW25IXWMyPU8=

> <s_epik_cmdline>
J2VwaWtfcHl0aG9uJywgJy1waCcsICc3LjAnLCAnLXRuJywgJzgnLCAnLW1hJywgJzIwMCcsICctbWV0YWxfYmluZGluZycsICctaW1hZScsICc8aW5maWxlLm1hZT4nLCAnLW9tYWUnLCAnPG91dGZpbGUubWFlPic=

> <r_lp_tautomer_probability>
1

> <r_epik_Ionization_Penalty>
13.6733

> <r_epik_Ionization_Penalty_Charging>
13.6725

> <r_epik_Ionization_Penalty_Neutral>
0.000837689

> <r_epik_State_Penalty>
5.67062

> <r_epik_Charging_Adjusted_Penalty>
19.3431

> <i_epik_Tot_Q>
-1

> <i_epik_Tot_abs_Q>
1

> <r_epik_Metal_State_Penalty>
1.61781

> <b_epik_Metal_Only>
1

> <s_lp_Force_Field>
OPLS_2005

> <r_lp_Energy>
24.9867

> <b_lp_Chiralities_Consistent>
1

> <s_lp_Variant>
AV-unprocessed.smi:2229-8

> <Gold.Version>
5.8.1

> <Gold.Id.Protein>
6NUR|6NUR_protein|mol2

> <Gold.PLP.Fitness>
42.8337

> <Gold.PLP.PLP>
-37.4644

> <Gold.PLP.part.hbond>
-2.0000

> <Gold.PLP.part.metal>
0.0000

> <Gold.PLP.part.buried>
-5.4350

> <Gold.PLP.part.nonpolar>
-31.2309

> <Gold.PLP.part.repulsive>
0.1239

> <Gold.PLP.ligand.clash>
0.0000

> <Gold.PLP.ligand.torsion>
1.1492

> <Gold.PLP.Chemscore.Hbond>
1.5730

> <Gold.PLP.Chemscore.CHOScore>
0.9738

> <Gold.PLP.Chemscore.Metal>
0.0000

> <Gold.Chemscore.Hbonds>
donor molecule, donor type, donor heavy atom, donor atom, acceptor molecule, acceptor atom, score
      P1  H  7997  8008       L1    13  1.00

> <Gold.PLP.Chemscore.Internal.Correction>
0.0271

> <Gold.Rescore>
     Score         DG    S(hbond)    S(metal)    S(lipo)     H(rot)  DE(clash)    DE(int)     intcor
     14.22     -14.89       1.70        0.00      88.60       2.59       0.11       0.56       ----

> <Gold.Chemscore.Fitness>
14.2231

> <Gold.Chemscore.DG>
-14.8911

> <Gold.Chemscore.ZeroCoef>
-5.4800

> <Gold.Chemscore.Hbond>
1.7024

> <Gold.Chemscore.Metal>
0.0000

> <Gold.Chemscore.Lipo>
88.5960

> <Gold.Chemscore.Internal_Hbond>
0.0000

> <Gold.Chemscore.DEClash>
0.1087

> <Gold.Chemscore.DEInternal>
0.5593

> <Gold.Chemscore.Rot>
2.5939

> <Gold.Chemscore.Internal.Correction>
   9.000000E+99

> <Gold.Chemscore.Hbonds>
donor molecule, donor type, donor heavy atom, donor atom, acceptor molecule, acceptor atom, score
      P1  H  7997  8008       L1    13  1.00

> <Gold.Chemscore.Hbond.Weighted>
-5.6859

> <Gold.Chemscore.Metal.Weighted>
-0.0000

> <Gold.Chemscore.Lipo.Weighted>
-10.3657

> <Gold.Chemscore.Internal_Hbond.Weighted>
0.0000

> <Gold.Chemscore.DEClash.Weighted>
0.1087

> <Gold.Chemscore.DEInternal.Weighted>
0.5593

> <Gold.Chemscore.Rot.Weighted>
6.6405

> <Gold.Chemscore.Internal.Correction.Weighted>
   9.000000E+99

> <Gold.Protein.RotatedTorsions>
[ 6907 6896 6895 6894 ] final  -78.42 input  -60.11 | X-H torsion
[ 7974 7965 7964 7962 ] final   10.62 input  175.53 | X-H torsion
[ 8008 7997 7996 7995 ] final  -32.77 input   59.86 | X-H torsion
[ 10167 10162 10161 10158 ] final   82.04 input  -65.29 | X-H torsion
[ 10718 10713 10712 10709 ] final -141.83 input   66.30 | X-H torsion
[ 10763 10752 10751 10750 ] final   35.47 input  -60.55 | X-H torsion
[ 11005 11000 10999 10996 ] final   16.39 input  -57.11 | X-H torsion

> <Gold.Protein.ActiveResidues>
 VAL166  LYS551  ARG553  GLY616  TRP617  ASP618  TYR619  PRO620  LYS621  CYS622 
 ASP623  PHE694  ASN695  SER759  ASP760  ASP761  ALA762  ILE779  LEU786  VAL792 
 PHE793  MET794  SER795  GLU796  ALA797  LYS798  CYS799  TRP800  GLU811  SER814 

> <Gold.Protein.RotatedAtoms>
  150.6973  134.4275  159.5233 H   0  0  0  0  0  0  0  0  0  0  0  0  # atno 6907 bound_to 6896
  152.2008  134.8587  160.0517 H   0  0  0  0  0  0  0  0  0  0  0  0  # atno 6908 bound_to 6896
  151.9508  133.3630  159.4036 H   0  0  0  0  0  0  0  0  0  0  0  0  # atno 6909 bound_to 6896
  146.2385  139.9606  142.8459 H   0  0  0  0  0  0  0  0  0  0  0  0  # atno 7974 bound_to 7965
  154.4169  140.1728  156.1781 H   0  0  0  0  0  0  0  0  0  0  0  0  # atno 8008 bound_to 7997
  155.9705  140.3386  155.6547 H   0  0  0  0  0  0  0  0  0  0  0  0  # atno 8009 bound_to 7997
  155.6631  140.0703  157.2537 H   0  0  0  0  0  0  0  0  0  0  0  0  # atno 8010 bound_to 7997
  139.9329  144.6140  150.8327 H   0  0  0  0  0  0  0  0  0  0  0  0  # atno 10167 bound_to 10162
  156.3386  130.7625  151.1757 H   0  0  0  0  0  0  0  0  0  0  0  0  # atno 10718 bound_to 10713
  153.0118  135.6332  154.1832 H   0  0  0  0  0  0  0  0  0  0  0  0  # atno 10763 bound_to 10752
  154.1574  135.2825  155.3120 H   0  0  0  0  0  0  0  0  0  0  0  0  # atno 10764 bound_to 10752
  154.6008  135.5588  153.7433 H   0  0  0  0  0  0  0  0  0  0  0  0  # atno 10765 bound_to 10752
  140.4476  134.1257  155.7698 H   0  0  0  0  0  0  0  0  0  0  0  0  # atno 11005 bound_to 11000
  145.1774  140.9750  143.4286 LP  0  0  0  0  0  0  0  0  0  0  0  0  # atno 17320 bound_to 7965
  144.9973  139.3632  143.6185 LP  0  0  0  0  0  0  0  0  0  0  0  0  # atno 17321 bound_to 7965
  140.7632  143.3218  151.2605 LP  0  0  0  0  0  0  0  0  0  0  0  0  # atno 17342 bound_to 10162
  139.6767  143.9925  152.2785 LP  0  0  0  0  0  0  0  0  0  0  0  0  # atno 17343 bound_to 10162
  157.7443  131.0461  150.4875 LP  0  0  0  0  0  0  0  0  0  0  0  0  # atno 17370 bound_to 10713
  156.5052  130.4126  149.6331 LP  0  0  0  0  0  0  0  0  0  0  0  0  # atno 17371 bound_to 10713
  141.1678  133.8668  157.1662 LP  0  0  0  0  0  0  0  0  0  0  0  0  # atno 17394 bound_to 11000
  140.0028  135.0021  157.0227 LP  0  0  0  0  0  0  0  0  0  0  0  0  # atno 17395 bound_to 11000

$$$$
