AV-unprocessed.smi:671|AV-procd|sdf|3284|dock6
  -GOLD-   22720 0243D 1   1.00000     0.00000
 Structure written by MMmdl.
 50 51  0  0  0  0  0  0  0  0  2 V2000
  147.8189  141.5401  153.8945 C   0  0  0  0  0  0  0  0  0  0  0  0
  149.0214  141.2998  154.7438 C   0  0  0  0  0  0  0  0  0  0  0  0
  149.6033  142.2412  155.5344 N   0  3  0  0  0  0  0  0  0  0  0  0
  150.6643  141.7225  156.1691 N   0  0  0  0  0  0  0  0  0  0  0  0
  151.4313  142.5757  157.0773 C   0  0  0  0  0  0  0  0  0  0  0  0
  150.8251  140.4134  155.8244 C   0  0  0  0  0  0  0  0  0  0  0  0
  151.9058  139.5244  156.3468 C   0  0  0  0  0  0  0  0  0  0  0  0
  149.7862  140.1416  154.9249 C   0  0  0  0  0  0  0  0  0  0  0  0
  149.5343  138.8177  154.2587 C   0  0  0  0  0  0  0  0  0  0  0  0
  148.4433  137.9780  154.9600 C   0  0  1  0  0  0  0  0  0  0  0  0
  147.2589  138.8307  155.4418 C   0  0  0  0  0  0  0  0  0  0  0  0
  147.9399  136.9452  154.0519 N   0  0  0  0  0  0  0  0  0  0  0  0
  146.7909  136.2493  154.1304 C   0  0  0  0  0  0  0  0  0  0  0  0
  145.9921  136.4219  155.0485 O   0  0  0  0  0  0  0  0  0  0  0  0
  146.6031  135.3603  153.1394 N   0  0  0  0  0  0  0  0  0  0  0  0
  145.4376  134.4896  152.9821 C   0  0  1  0  0  0  0  0  0  0  0  0
  144.1954  135.3416  152.6867 C   0  0  0  0  0  0  0  0  0  0  0  0
  144.0485  135.3155  151.1682 C   0  0  0  0  0  0  0  0  0  0  0  0
  144.4867  133.9081  150.7725 C   0  0  0  0  0  0  0  0  0  0  0  0
  145.5543  133.4873  151.7989 C   0  0  1  0  0  0  0  0  0  0  0  0
  146.9502  133.3394  151.1629 C   0  0  0  0  0  0  0  0  0  0  0  0
  148.0829  141.4591  152.8398 H   0  0  0  0  0  0  0  0  0  0  0  0
  147.4121  142.5354  154.0760 H   0  0  0  0  0  0  0  0  0  0  0  0
  147.0460  140.8044  154.1177 H   0  0  0  0  0  0  0  0  0  0  0  0
  152.4746  142.2597  157.0807 H   0  0  0  0  0  0  0  0  0  0  0  0
  151.0190  142.4857  158.0824 H   0  0  0  0  0  0  0  0  0  0  0  0
  151.3738  143.6141  156.7483 H   0  0  0  0  0  0  0  0  0  0  0  0
  151.8970  138.5646  155.8329 H   0  0  0  0  0  0  0  0  0  0  0  0
  151.7639  139.3468  157.4128 H   0  0  0  0  0  0  0  0  0  0  0  0
  152.8827  139.9832  156.1944 H   0  0  0  0  0  0  0  0  0  0  0  0
  149.2577  138.9673  153.2144 H   0  0  0  0  0  0  0  0  0  0  0  0
  150.4678  138.2551  154.2261 H   0  0  0  0  0  0  0  0  0  0  0  0
  148.8705  137.4971  155.8414 H   0  0  0  0  0  0  0  0  0  0  0  0
  147.5744  139.5821  156.1660 H   0  0  0  0  0  0  0  0  0  0  0  0
  146.5034  138.2119  155.9271 H   0  0  0  0  0  0  0  0  0  0  0  0
  146.7787  139.3492  154.6111 H   0  0  0  0  0  0  0  0  0  0  0  0
  148.5430  136.7184  153.2741 H   0  0  0  0  0  0  0  0  0  0  0  0
  147.3226  135.2812  152.4363 H   0  0  0  0  0  0  0  0  0  0  0  0
  145.2714  133.9459  153.9141 H   0  0  0  0  0  0  0  0  0  0  0  0
  143.3201  134.8720  153.1381 H   0  0  0  0  0  0  0  0  0  0  0  0
  144.2582  136.3555  153.0848 H   0  0  0  0  0  0  0  0  0  0  0  0
  143.0348  135.5472  150.8403 H   0  0  0  0  0  0  0  0  0  0  0  0
  144.7202  136.0465  150.7176 H   0  0  0  0  0  0  0  0  0  0  0  0
  143.6328  133.2328  150.8420 H   0  0  0  0  0  0  0  0  0  0  0  0
  144.8429  133.8687  149.7424 H   0  0  0  0  0  0  0  0  0  0  0  0
  145.2751  132.5008  152.1719 H   0  0  0  0  0  0  0  0  0  0  0  0
  147.3003  134.2792  150.7344 H   0  0  0  0  0  0  0  0  0  0  0  0
  146.9336  132.6006  150.3614 H   0  0  0  0  0  0  0  0  0  0  0  0
  147.6854  133.0047  151.8951 H   0  0  0  0  0  0  0  0  0  0  0  0
  149.3316  143.2067  155.6712 H   0  0  0  0  0  0  0  0  0  0  0  0
  1  2  1  0  0  0  0
  1 22  1  0  0  0  0
  1 23  1  0  0  0  0
  1 24  1  0  0  0  0
  2  8  1  0  0  0  0
  2  3  2  0  0  0  0
  3  4  1  0  0  0  0
  3 50  1  0  0  0  0
  4  5  1  0  0  0  0
  4  6  1  0  0  0  0
  5 25  1  0  0  0  0
  5 26  1  0  0  0  0
  5 27  1  0  0  0  0
  6  7  1  0  0  0  0
  6  8  2  0  0  0  0
  7 28  1  0  0  0  0
  7 29  1  0  0  0  0
  7 30  1  0  0  0  0
  8  9  1  0  0  0  0
  9 10  1  0  0  0  0
  9 31  1  0  0  0  0
  9 32  1  0  0  0  0
 10 11  1  0  0  0  0
 10 12  1  0  0  0  0
 10 33  1  0  0  0  0
 11 34  1  0  0  0  0
 11 35  1  0  0  0  0
 11 36  1  0  0  0  0
 12 13  1  0  0  0  0
 12 37  1  0  0  0  0
 13 14  2  0  0  0  0
 13 15  1  0  0  0  0
 15 16  1  0  0  0  0
 15 38  1  0  0  0  0
 16 20  1  0  0  0  0
 16 17  1  0  0  0  0
 16 39  1  0  0  0  0
 17 18  1  0  0  0  0
 17 40  1  0  0  0  0
 17 41  1  0  0  0  0
 18 19  1  0  0  0  0
 18 42  1  0  0  0  0
 18 43  1  0  0  0  0
 19 20  1  0  0  0  0
 19 44  1  0  0  0  0
 19 45  1  0  0  0  0
 20 21  1  0  0  0  0
 20 46  1  0  0  0  0
 21 47  1  0  0  0  0
 21 48  1  0  0  0  0
 21 49  1  0  0  0  0
M  CHG  1   3   1
M  END
> <s_m_source_file>
AV-unprocessed.smi

> <i_m_source_file_index>
671

> <i_lp_mmshare_version>
43012

> <i_f3d_flags>
0

> <s_epik_input>
W0NIM11jMW5uKFtDSDNdKWMoW0NIM10pYzFbQ0gyXVtDQEhdKFtDSDNdKVtOSF1DKD1PKVtOSF1bQ0BASF0yW0NIMl1bQ0gyXVtDSDJdW0NASF0yW0NIM10=

> <s_epik_cmdline>
J2VwaWtfcHl0aG9uJywgJy1waCcsICc3LjAnLCAnLXRuJywgJzgnLCAnLW1hJywgJzIwMCcsICctbWV0YWxfYmluZGluZycsICctaW1hZScsICc8aW5maWxlLm1hZT4nLCAnLW9tYWUnLCAnPG91dGZpbGUubWFlPic=

> <r_lp_tautomer_probability>
1

> <r_epik_Ionization_Penalty>
2.28705

> <r_epik_Ionization_Penalty_Charging>
2.28698

> <r_epik_Ionization_Penalty_Neutral>
6.23157e-05

> <r_epik_State_Penalty>
2.43671

> <r_epik_Charging_Adjusted_Penalty>
4.72369

> <i_epik_Tot_Q>
1

> <i_epik_Tot_abs_Q>
1

> <r_epik_Metal_State_Penalty>
2.44911

> <b_epik_Metal_Only>
0

> <s_lp_Force_Field>
OPLS_2005

> <r_lp_Energy>
36.9698

> <b_lp_Chiralities_Consistent>
1

> <s_lp_Variant>
AV-unprocessed.smi:671-12

> <Gold.Version>
5.8.1

> <Gold.Id.Protein>
6NUR|6NUR_protein|mol2

> <Gold.PLP.Fitness>
45.5582

> <Gold.PLP.PLP>
-35.7428

> <Gold.PLP.part.hbond>
-2.9138

> <Gold.PLP.part.metal>
0.0000

> <Gold.PLP.part.buried>
-5.5168

> <Gold.PLP.part.nonpolar>
-28.0574

> <Gold.PLP.part.repulsive>
0.2130

> <Gold.PLP.ligand.clash>
0.0035

> <Gold.PLP.ligand.torsion>
0.8023

> <Gold.PLP.Chemscore.Hbond>
3.8000

> <Gold.PLP.Chemscore.CHOScore>
0.0000

> <Gold.PLP.Chemscore.Metal>
0.0000

> <Gold.Chemscore.Hbonds>
donor molecule, donor type, donor heavy atom, donor atom, acceptor molecule, acceptor atom, score
      L1  H     3    50       P1  8028  2.00
      L1  H    12    37       P1  7948  1.00
      L1  H    15    38       P1  7948  0.82

> <Gold.PLP.Chemscore.Internal.Correction>
0.0234

> <Gold.Rescore>
     Score         DG    S(hbond)    S(metal)    S(lipo)     H(rot)  DE(clash)    DE(int)     intcor
     18.50     -20.55       2.84        0.00      80.73       1.51       0.03       2.02       ----

> <Gold.Chemscore.Fitness>
18.5014

> <Gold.Chemscore.DG>
-20.5536

> <Gold.Chemscore.ZeroCoef>
-5.4800

> <Gold.Chemscore.Hbond>
2.8393

> <Gold.Chemscore.Metal>
0.0000

> <Gold.Chemscore.Lipo>
80.7255

> <Gold.Chemscore.Internal_Hbond>
0.0000

> <Gold.Chemscore.DEClash>
0.0332

> <Gold.Chemscore.DEInternal>
2.0190

> <Gold.Chemscore.Rot>
1.5057

> <Gold.Chemscore.Internal.Correction>
   9.000000E+99

> <Gold.Chemscore.Hbonds>
donor molecule, donor type, donor heavy atom, donor atom, acceptor molecule, acceptor atom, score
      L1  H     3    50       P1  8028  0.97
      L1  H    12    37       P1  7948  0.94
      L1  H    15    38       P1  7948  0.80

> <Gold.Chemscore.Hbond.Weighted>
-9.4834

> <Gold.Chemscore.Metal.Weighted>
-0.0000

> <Gold.Chemscore.Lipo.Weighted>
-9.4449

> <Gold.Chemscore.Internal_Hbond.Weighted>
0.0000

> <Gold.Chemscore.DEClash.Weighted>
0.0332

> <Gold.Chemscore.DEInternal.Weighted>
2.0190

> <Gold.Chemscore.Rot.Weighted>
3.8547

> <Gold.Chemscore.Internal.Correction.Weighted>
   9.000000E+99

> <Gold.Protein.RotatedTorsions>
[ 6907 6896 6895 6894 ] final  110.66 input  -60.11 | X-H torsion
[ 7974 7965 7964 7962 ] final  164.60 input  175.53 | X-H torsion
[ 8008 7997 7996 7995 ] final  179.80 input   59.86 | X-H torsion
[ 10167 10162 10161 10158 ] final   -4.25 input  -65.29 | X-H torsion
[ 10718 10713 10712 10709 ] final -163.62 input   66.30 | X-H torsion
[ 10763 10752 10751 10750 ] final   18.19 input  -60.55 | X-H torsion
[ 11005 11000 10999 10996 ] final  -43.20 input  -57.11 | X-H torsion

> <Gold.Protein.ActiveResidues>
 VAL166  LYS551  ARG553  GLY616  TRP617  ASP618  TYR619  PRO620  LYS621  CYS622 
 ASP623  PHE694  ASN695  SER759  ASP760  ASP761  ALA762  ILE779  LEU786  VAL792 
 PHE793  MET794  SER795  GLU796  ALA797  LYS798  CYS799  TRP800  GLU811  SER814 

> <Gold.Protein.RotatedAtoms>
  152.5008  133.8768  159.7325 H   0  0  0  0  0  0  0  0  0  0  0  0  # atno 6907 bound_to 6896
  150.9241  133.6837  159.2832 H   0  0  0  0  0  0  0  0  0  0  0  0  # atno 6908 bound_to 6896
  151.4204  135.1001  159.9664 H   0  0  0  0  0  0  0  0  0  0  0  0  # atno 6909 bound_to 6896
  144.7538  139.8350  143.6357 H   0  0  0  0  0  0  0  0  0  0  0  0  # atno 7974 bound_to 7965
  156.0392  140.1299  157.0174 H   0  0  0  0  0  0  0  0  0  0  0  0  # atno 8008 bound_to 7997
  154.4383  140.1033  156.6283 H   0  0  0  0  0  0  0  0  0  0  0  0  # atno 8009 bound_to 7997
  155.5692  140.3466  155.4513 H   0  0  0  0  0  0  0  0  0  0  0  0  # atno 8010 bound_to 7997
  140.6920  143.6445  150.8405 H   0  0  0  0  0  0  0  0  0  0  0  0  # atno 10167 bound_to 10162
  156.6273  130.8915  151.2970 H   0  0  0  0  0  0  0  0  0  0  0  0  # atno 10718 bound_to 10713
  153.1271  135.6732  153.9239 H   0  0  0  0  0  0  0  0  0  0  0  0  # atno 10763 bound_to 10752
  153.8737  135.3066  155.3444 H   0  0  0  0  0  0  0  0  0  0  0  0  # atno 10764 bound_to 10752
  154.7674  135.4957  153.9662 H   0  0  0  0  0  0  0  0  0  0  0  0  # atno 10765 bound_to 10752
  141.0368  133.6796  156.2700 H   0  0  0  0  0  0  0  0  0  0  0  0  # atno 11005 bound_to 11000
  146.1522  139.4609  143.0041 LP  0  0  0  0  0  0  0  0  0  0  0  0  # atno 17320 bound_to 7965
  145.6851  141.0180  143.1585 LP  0  0  0  0  0  0  0  0  0  0  0  0  # atno 17321 bound_to 7965
  140.0159  143.5593  152.2820 LP  0  0  0  0  0  0  0  0  0  0  0  0  # atno 17342 bound_to 10162
  139.6334  144.7647  151.2489 LP  0  0  0  0  0  0  0  0  0  0  0  0  # atno 17343 bound_to 10162
  157.7210  130.9559  150.1440 LP  0  0  0  0  0  0  0  0  0  0  0  0  # atno 17370 bound_to 10713
  156.2263  130.3678  149.8497 LP  0  0  0  0  0  0  0  0  0  0  0  0  # atno 17371 bound_to 10713
  140.6308  134.5266  157.5559 LP  0  0  0  0  0  0  0  0  0  0  0  0  # atno 17394 bound_to 11000
  139.9246  134.8081  156.1107 LP  0  0  0  0  0  0  0  0  0  0  0  0  # atno 17395 bound_to 11000

$$$$
