AV-unprocessed.smi:3171|AV-procd|sdf|12112|dock5
  -GOLD-   2272017553D 1   1.00000     0.00000
 Structure written by MMmdl.
 33 34  0  0  0  0  0  0  0  0  1 V2000
  152.7952  143.5022  163.2560 C   0  0  0  0  0  0  0  0  0  0  0  0
  152.6767  142.9075  161.8640 C   0  0  0  0  0  0  0  0  0  0  0  0
  151.6943  143.4342  161.1006 N   0  0  0  0  0  0  0  0  0  0  0  0
  151.4952  142.9944  159.8574 N   0  0  0  0  0  0  0  0  0  0  0  0
  152.2668  142.0118  159.3324 C   0  0  0  0  0  0  0  0  0  0  0  0
  151.9963  141.6025  158.0128 N   0  0  0  0  0  0  0  0  0  0  0  0
  150.7451  141.9473  157.3480 C   0  0  0  0  0  0  0  0  0  0  0  0
  150.6944  141.4386  155.8982 C   0  0  1  0  0  0  0  0  0  0  0  0
  150.8778  139.9289  155.7764 C   0  0  0  0  0  0  0  0  0  0  0  0
  150.2559  139.6581  154.4251 C   0  0  0  0  0  0  0  0  0  0  0  0
  149.0848  140.6396  154.4032 C   0  0  0  0  0  0  0  0  0  0  0  0
  149.4098  141.6736  155.3303 O   0  0  0  0  0  0  0  0  0  0  0  0
  153.3178  141.4157  160.0771 C   0  0  0  0  0  0  0  0  0  0  0  0
  154.1507  140.3593  159.5057 C   0  0  0  0  0  0  0  0  0  0  0  0
  154.8103  139.5231  159.0530 N   0  0  0  0  0  0  0  0  0  0  0  0
  153.5327  141.8796  161.3994 C   0  0  0  0  0  0  0  0  0  0  0  0
  154.6398  141.2969  162.2743 C   0  0  0  0  0  0  0  0  0  0  0  0
  153.7868  143.9298  163.4055 H   0  0  0  0  0  0  0  0  0  0  0  0
  152.6261  142.7365  164.0133 H   0  0  0  0  0  0  0  0  0  0  0  0
  152.0635  144.2954  163.4160 H   0  0  0  0  0  0  0  0  0  0  0  0
  152.5400  140.8463  157.6221 H   0  0  0  0  0  0  0  0  0  0  0  0
  149.9047  141.5508  157.9189 H   0  0  0  0  0  0  0  0  0  0  0  0
  150.6350  143.0320  157.3628 H   0  0  0  0  0  0  0  0  0  0  0  0
  151.4431  141.9367  155.2799 H   0  0  0  0  0  0  0  0  0  0  0  0
  151.9220  139.6209  155.8362 H   0  0  0  0  0  0  0  0  0  0  0  0
  150.3199  139.4088  156.5565 H   0  0  0  0  0  0  0  0  0  0  0  0
  150.9658  139.9044  153.6341 H   0  0  0  0  0  0  0  0  0  0  0  0
  149.9465  138.6208  154.2946 H   0  0  0  0  0  0  0  0  0  0  0  0
  148.9125  141.0448  153.4059 H   0  0  0  0  0  0  0  0  0  0  0  0
  148.1665  140.1538  154.7343 H   0  0  0  0  0  0  0  0  0  0  0  0
  154.5382  140.2134  162.3444 H   0  0  0  0  0  0  0  0  0  0  0  0
  154.6358  141.6843  163.2915 H   0  0  0  0  0  0  0  0  0  0  0  0
  155.6153  141.5205  161.8414 H   0  0  0  0  0  0  0  0  0  0  0  0
  1  2  1  0  0  0  0
  1 18  1  0  0  0  0
  1 19  1  0  0  0  0
  1 20  1  0  0  0  0
  2 16  1  0  0  0  0
  2  3  2  0  0  0  0
  3  4  1  0  0  0  0
  4  5  2  0  0  0  0
  5  6  1  0  0  0  0
  5 13  1  0  0  0  0
  6  7  1  0  0  0  0
  6 21  1  0  0  0  0
  7  8  1  0  0  0  0
  7 22  1  0  0  0  0
  7 23  1  0  0  0  0
  8 12  1  0  0  0  0
  8  9  1  0  0  0  0
  8 24  1  0  0  0  0
  9 10  1  0  0  0  0
  9 25  1  0  0  0  0
  9 26  1  0  0  0  0
 10 11  1  0  0  0  0
 10 27  1  0  0  0  0
 10 28  1  0  0  0  0
 11 12  1  0  0  0  0
 11 29  1  0  0  0  0
 11 30  1  0  0  0  0
 13 14  1  0  0  0  0
 13 16  2  0  0  0  0
 14 15  3  0  0  0  0
 16 17  1  0  0  0  0
 17 31  1  0  0  0  0
 17 32  1  0  0  0  0
 17 33  1  0  0  0  0
M  END
> <s_m_source_file>
AV-unprocessed.smi

> <i_m_source_file_index>
3171

> <i_lp_mmshare_version>
43012

> <i_f3d_flags>
0

> <s_epik_input>
W0NIM11jMW5uYyhjKEMjTiljMVtDSDNdKVtOSF1bQ0gyXVtDQEBIXTJbQ0gyXVtDSDJdW0NIMl1PMg==

> <s_epik_cmdline>
J2VwaWtfcHl0aG9uJywgJy1waCcsICc3LjAnLCAnLXRuJywgJzgnLCAnLW1hJywgJzIwMCcsICctbWV0YWxfYmluZGluZycsICctaW1hZScsICc8aW5maWxlLm1hZT4nLCAnLW9tYWUnLCAnPG91dGZpbGUubWFlPic=

> <r_lp_tautomer_probability>
1

> <r_epik_Ionization_Penalty>
0.00108228

> <r_epik_Ionization_Penalty_Charging>
0

> <r_epik_Ionization_Penalty_Neutral>
0.00108228

> <r_epik_State_Penalty>
-0

> <r_epik_Charging_Adjusted_Penalty>
0

> <i_epik_Tot_Q>
0

> <i_epik_Tot_abs_Q>
0

> <r_epik_Metal_State_Penalty>
-0

> <b_epik_Metal_Only>
0

> <s_lp_Force_Field>
OPLS_2005

> <r_lp_Energy>
28.3967

> <b_lp_Chiralities_Consistent>
1

> <s_lp_Variant>
AV-unprocessed.smi:3171-2

> <Gold.Version>
5.8.1

> <Gold.Id.Protein>
6NUR|6NUR_protein|mol2

> <Gold.PLP.Fitness>
39.4170

> <Gold.PLP.PLP>
-36.5429

> <Gold.PLP.part.hbond>
-1.3385

> <Gold.PLP.part.metal>
0.0000

> <Gold.PLP.part.buried>
0.9720

> <Gold.PLP.part.nonpolar>
-35.4883

> <Gold.PLP.part.repulsive>
0.6518

> <Gold.PLP.ligand.clash>
0.0000

> <Gold.PLP.ligand.torsion>
0.0664

> <Gold.PLP.Chemscore.Hbond>
1.0000

> <Gold.PLP.Chemscore.CHOScore>
0.0000

> <Gold.PLP.Chemscore.Metal>
0.0000

> <Gold.Chemscore.Hbonds>
donor molecule, donor type, donor heavy atom, donor atom, acceptor molecule, acceptor atom, score
      P1  H  7997  8010       L1    15  1.00

> <Gold.PLP.Chemscore.Internal.Correction>
0.0070

> <Gold.Rescore>
     Score         DG    S(hbond)    S(metal)    S(lipo)     H(rot)  DE(clash)    DE(int)     intcor
     13.44     -15.41       0.78        0.00      89.30       1.22       1.89       0.08       ----

> <Gold.Chemscore.Fitness>
13.4403

> <Gold.Chemscore.DG>
-15.4147

> <Gold.Chemscore.ZeroCoef>
-5.4800

> <Gold.Chemscore.Hbond>
0.7801

> <Gold.Chemscore.Metal>
0.0000

> <Gold.Chemscore.Lipo>
89.2954

> <Gold.Chemscore.Internal_Hbond>
0.0000

> <Gold.Chemscore.DEClash>
1.8923

> <Gold.Chemscore.DEInternal>
0.0822

> <Gold.Chemscore.Rot>
1.2181

> <Gold.Chemscore.Internal.Correction>
   9.000000E+99

> <Gold.Chemscore.Hbonds>
donor molecule, donor type, donor heavy atom, donor atom, acceptor molecule, acceptor atom, score
      P1  H  7997  8010       L1    15  0.33

> <Gold.Chemscore.Hbond.Weighted>
-2.6054

> <Gold.Chemscore.Metal.Weighted>
-0.0000

> <Gold.Chemscore.Lipo.Weighted>
-10.4476

> <Gold.Chemscore.Internal_Hbond.Weighted>
0.0000

> <Gold.Chemscore.DEClash.Weighted>
1.8923

> <Gold.Chemscore.DEInternal.Weighted>
0.0822

> <Gold.Chemscore.Rot.Weighted>
3.1182

> <Gold.Chemscore.Internal.Correction.Weighted>
   9.000000E+99

> <Gold.Protein.RotatedTorsions>
[ 6907 6896 6895 6894 ] final   98.42 input  -60.11 | X-H torsion
[ 7974 7965 7964 7962 ] final    2.26 input  175.53 | X-H torsion
[ 8008 7997 7996 7995 ] final   15.61 input   59.86 | X-H torsion
[ 10167 10162 10161 10158 ] final   82.17 input  -65.29 | X-H torsion
[ 10718 10713 10712 10709 ] final  -54.85 input   66.30 | X-H torsion
[ 10763 10752 10751 10750 ] final  -58.71 input  -60.55 | X-H torsion
[ 11005 11000 10999 10996 ] final  138.94 input  -57.11 | X-H torsion

> <Gold.Protein.ActiveResidues>
 VAL166  LYS551  ARG553  GLY616  TRP617  ASP618  TYR619  PRO620  LYS621  CYS622 
 ASP623  PHE694  ASN695  SER759  ASP760  ASP761  ALA762  ILE779  LEU786  VAL792 
 PHE793  MET794  SER795  GLU796  ALA797  LYS798  CYS799  TRP800  GLU811  SER814 

> <Gold.Protein.RotatedAtoms>
  152.5409  134.0584  159.8140 H   0  0  0  0  0  0  0  0  0  0  0  0  # atno 6907 bound_to 6896
  151.0715  133.5455  159.2634 H   0  0  0  0  0  0  0  0  0  0  0  0  # atno 6908 bound_to 6896
  151.2316  135.0564  159.9044 H   0  0  0  0  0  0  0  0  0  0  0  0  # atno 6909 bound_to 6896
  146.2443  140.0862  142.8354 H   0  0  0  0  0  0  0  0  0  0  0  0  # atno 7974 bound_to 7965
  154.8652  140.2950  155.5515 H   0  0  0  0  0  0  0  0  0  0  0  0  # atno 8008 bound_to 7997
  156.3020  140.2470  156.3565 H   0  0  0  0  0  0  0  0  0  0  0  0  # atno 8009 bound_to 7997
  154.8876  140.0395  157.1808 H   0  0  0  0  0  0  0  0  0  0  0  0  # atno 8010 bound_to 7997
  139.9316  144.6148  150.8339 H   0  0  0  0  0  0  0  0  0  0  0  0  # atno 10167 bound_to 10162
  156.1417  130.4154  150.0093 H   0  0  0  0  0  0  0  0  0  0  0  0  # atno 10718 bound_to 10713
  154.2424  135.6341  153.5211 H   0  0  0  0  0  0  0  0  0  0  0  0  # atno 10763 bound_to 10752
  152.9927  135.5545  154.5896 H   0  0  0  0  0  0  0  0  0  0  0  0  # atno 10764 bound_to 10752
  154.5405  135.2894  155.1074 H   0  0  0  0  0  0  0  0  0  0  0  0  # atno 10765 bound_to 10752
  140.0219  134.9393  157.0491 H   0  0  0  0  0  0  0  0  0  0  0  0  # atno 11005 bound_to 11000
  145.0690  140.9142  143.4893 LP  0  0  0  0  0  0  0  0  0  0  0  0  # atno 17320 bound_to 7965
  145.0992  139.2834  143.5695 LP  0  0  0  0  0  0  0  0  0  0  0  0  # atno 17321 bound_to 7965
  140.7636  143.3226  151.2587 LP  0  0  0  0  0  0  0  0  0  0  0  0  # atno 17342 bound_to 10162
  139.6777  143.9908  152.2791 LP  0  0  0  0  0  0  0  0  0  0  0  0  # atno 17343 bound_to 10162
  156.7976  130.9279  151.3646 LP  0  0  0  0  0  0  0  0  0  0  0  0  # atno 17370 bound_to 10713
  157.6581  130.8942  149.9771 LP  0  0  0  0  0  0  0  0  0  0  0  0  # atno 17371 bound_to 10713
  140.4373  134.1718  155.7171 LP  0  0  0  0  0  0  0  0  0  0  0  0  # atno 17394 bound_to 11000
  141.1779  133.8476  157.1359 LP  0  0  0  0  0  0  0  0  0  0  0  0  # atno 17395 bound_to 11000

$$$$
