AV-unprocessed.smi:3282|AV-procd|sdf|12562|dock2
  -GOLD-   2272018483D 1   1.00000     0.00000
 Structure written by MMmdl.
 34 35  0  0  0  0  0  0  0  0  1 V2000
  153.3766  142.8600  163.1431 C   0  0  0  0  0  0  0  0  0  0  0  0
  153.2714  142.2688  161.7279 C   0  0  0  0  0  0  0  0  0  0  0  0
  152.4191  143.1136  160.7659 C   0  0  0  0  0  0  0  0  0  0  0  0
  151.9820  144.2059  161.1319 O   0  0  0  0  0  0  0  0  0  0  0  0
  152.1754  142.6232  159.5328 N   0  0  0  0  0  0  0  0  0  0  0  0
  152.6625  141.3260  159.0716 C   0  0  0  0  0  0  0  0  0  0  0  0
  151.9633  141.0643  157.7379 C   0  0  0  0  0  0  0  0  0  0  0  0
  151.5976  142.4508  157.2158 C   0  0  1  0  0  0  0  0  0  0  0  0
  150.3953  142.4139  156.3890 N   0  0  0  0  0  0  0  0  0  0  0  0
  150.1438  141.5126  155.4283 C   0  0  0  0  0  0  0  0  0  0  0  0
  150.9381  140.6045  155.1640 O   0  0  0  0  0  0  0  0  0  0  0  0
  148.8997  141.7440  154.8626 N   0  0  0  0  0  0  0  0  0  0  0  0
  148.3464  140.8093  154.1523 C   0  0  0  0  0  0  0  0  0  0  0  0
  148.7378  139.5141  153.8225 N   0  0  0  0  0  0  0  0  0  0  0  0
  147.7580  138.9577  153.0488 C   0  0  0  0  0  0  0  0  0  0  0  0
  146.7919  139.8585  152.8962 C   0  0  0  0  0  0  0  0  0  0  0  0
  147.1236  141.0012  153.5604 O   0  0  0  0  0  0  0  0  0  0  0  0
  151.4057  143.2919  158.4852 C   0  0  0  0  0  0  0  0  0  0  0  0
  154.0014  142.2308  163.7774 H   0  0  0  0  0  0  0  0  0  0  0  0
  152.3976  142.9349  163.6180 H   0  0  0  0  0  0  0  0  0  0  0  0
  153.8223  143.8554  163.1274 H   0  0  0  0  0  0  0  0  0  0  0  0
  154.2745  142.1621  161.3139 H   0  0  0  0  0  0  0  0  0  0  0  0
  152.8434  141.2678  161.7894 H   0  0  0  0  0  0  0  0  0  0  0  0
  153.7428  141.3835  158.9312 H   0  0  0  0  0  0  0  0  0  0  0  0
  152.4559  140.5306  159.7894 H   0  0  0  0  0  0  0  0  0  0  0  0
  152.5846  140.5020  157.0402 H   0  0  0  0  0  0  0  0  0  0  0  0
  151.0600  140.4798  157.9208 H   0  0  0  0  0  0  0  0  0  0  0  0
  152.4424  142.8417  156.6453 H   0  0  0  0  0  0  0  0  0  0  0  0
  149.6982  143.1231  156.5645 H   0  0  0  0  0  0  0  0  0  0  0  0
  149.5850  139.0306  154.0841 H   0  0  0  0  0  0  0  0  0  0  0  0
  147.8601  137.9480  152.6796 H   0  0  0  0  0  0  0  0  0  0  0  0
  145.8491  139.8408  152.3697 H   0  0  0  0  0  0  0  0  0  0  0  0
  150.3567  143.3166  158.7859 H   0  0  0  0  0  0  0  0  0  0  0  0
  151.7360  144.3188  158.3231 H   0  0  0  0  0  0  0  0  0  0  0  0
  1  2  1  0  0  0  0
  1 19  1  0  0  0  0
  1 20  1  0  0  0  0
  1 21  1  0  0  0  0
  2  3  1  0  0  0  0
  2 22  1  0  0  0  0
  2 23  1  0  0  0  0
  3  4  2  0  0  0  0
  3  5  1  0  0  0  0
  5 18  1  0  0  0  0
  5  6  1  0  0  0  0
  6  7  1  0  0  0  0
  6 24  1  0  0  0  0
  6 25  1  0  0  0  0
  7  8  1  0  0  0  0
  7 26  1  0  0  0  0
  7 27  1  0  0  0  0
  8  9  1  0  0  0  0
  8 18  1  0  0  0  0
  8 28  1  0  0  0  0
  9 29  1  0  0  0  0
  9 10  1  0  0  0  0
 10 12  1  0  0  0  0
 10 11  2  0  0  0  0
 12 13  2  0  0  0  0
 13 17  1  0  0  0  0
 13 14  1  0  0  0  0
 14 30  1  0  0  0  0
 14 15  1  0  0  0  0
 15 31  1  0  0  0  0
 15 16  2  0  0  0  0
 16 32  1  0  0  0  0
 16 17  1  0  0  0  0
 18 33  1  0  0  0  0
 18 34  1  0  0  0  0
M  END
> <s_m_source_file>
AV-unprocessed.smi

> <i_m_source_file_index>
3282

> <i_lp_mmshare_version>
43012

> <i_f3d_flags>
0

> <s_epik_input>
W0NIM11bQ0gyXUMoPU8pTjFbQ0gyXVtDSDJdW0NASF0oW0NIMl0xKVtOSF1DKD1PKVtOSF1jMm5bY0hdW2NIXW8y

> <s_epik_cmdline>
J2VwaWtfcHl0aG9uJywgJy1waCcsICc3LjAnLCAnLXRuJywgJzgnLCAnLW1hJywgJzIwMCcsICctbWV0YWxfYmluZGluZycsICctaW1hZScsICc8aW5maWxlLm1hZT4nLCAnLW9tYWUnLCAnPG91dGZpbGUubWFlPic=

> <r_lp_tautomer_probability>
0.107061

> <r_epik_Ionization_Penalty>
0.434703

> <r_epik_Ionization_Penalty_Charging>
0.434345

> <r_epik_Ionization_Penalty_Neutral>
0.000358141

> <r_epik_State_Penalty>
2.49584

> <r_epik_Charging_Adjusted_Penalty>
2.93019

> <i_epik_Tot_Q>
0

> <i_epik_Tot_abs_Q>
0

> <r_epik_Metal_State_Penalty>
4.06361

> <b_epik_Metal_Only>
0

> <s_lp_Force_Field>
OPLS_2005

> <r_lp_Energy>
50.3275

> <b_lp_Chiralities_Consistent>
1

> <s_lp_Variant>
AV-unprocessed.smi:3282-3

> <Gold.Version>
5.8.1

> <Gold.Id.Protein>
6NUR|6NUR_protein|mol2

> <Gold.PLP.Fitness>
46.3734

> <Gold.PLP.PLP>
-35.5726

> <Gold.PLP.part.hbond>
-3.0000

> <Gold.PLP.part.metal>
0.0000

> <Gold.PLP.part.buried>
-4.1570

> <Gold.PLP.part.nonpolar>
-28.5840

> <Gold.PLP.part.repulsive>
0.8736

> <Gold.PLP.ligand.clash>
0.0000

> <Gold.PLP.ligand.torsion>
0.2925

> <Gold.PLP.Chemscore.Hbond>
1.7920

> <Gold.PLP.Chemscore.CHOScore>
2.0000

> <Gold.PLP.Chemscore.Metal>
0.0000

> <Gold.Chemscore.Hbonds>
donor molecule, donor type, donor heavy atom, donor atom, acceptor molecule, acceptor atom, score
      L1  H     9    29       P1  8028  0.80
      P1  H  7989  7998       L1    11  0.93
      L1  C    15    31       P1  7948  1.00
      L1  C    16    32       P1 10175  1.00

> <Gold.PLP.Chemscore.Internal.Correction>
0.0099

> <Gold.Rescore>
     Score         DG    S(hbond)    S(metal)    S(lipo)     H(rot)  DE(clash)    DE(int)     intcor
     13.36     -15.56       1.48        0.00      72.71       1.32       0.62       1.58       ----

> <Gold.Chemscore.Fitness>
13.3559

> <Gold.Chemscore.DG>
-15.5608

> <Gold.Chemscore.ZeroCoef>
-5.4800

> <Gold.Chemscore.Hbond>
1.4827

> <Gold.Chemscore.Metal>
0.0000

> <Gold.Chemscore.Lipo>
72.7132

> <Gold.Chemscore.Internal_Hbond>
0.0000

> <Gold.Chemscore.DEClash>
0.6233

> <Gold.Chemscore.DEInternal>
1.5816

> <Gold.Chemscore.Rot>
1.3199

> <Gold.Chemscore.Internal.Correction>
   9.000000E+99

> <Gold.Chemscore.Hbonds>
donor molecule, donor type, donor heavy atom, donor atom, acceptor molecule, acceptor atom, score
      L1  H     9    29       P1  8028  0.76
      P1  H  7989  7998       L1    11  0.64

> <Gold.Chemscore.Hbond.Weighted>
-4.9523

> <Gold.Chemscore.Metal.Weighted>
-0.0000

> <Gold.Chemscore.Lipo.Weighted>
-8.5074

> <Gold.Chemscore.Internal_Hbond.Weighted>
0.0000

> <Gold.Chemscore.DEClash.Weighted>
0.6233

> <Gold.Chemscore.DEInternal.Weighted>
1.5816

> <Gold.Chemscore.Rot.Weighted>
3.3789

> <Gold.Chemscore.Internal.Correction.Weighted>
   9.000000E+99

> <Gold.Protein.RotatedTorsions>
[ 6907 6896 6895 6894 ] final -179.80 input  -60.11 | X-H torsion
[ 7974 7965 7964 7962 ] final   57.24 input  175.53 | X-H torsion
[ 8008 7997 7996 7995 ] final  -58.76 input   59.86 | X-H torsion
[ 10167 10162 10161 10158 ] final -111.61 input  -65.29 | X-H torsion
[ 10718 10713 10712 10709 ] final -174.00 input   66.30 | X-H torsion
[ 10763 10752 10751 10750 ] final  142.91 input  -60.55 | X-H torsion
[ 11005 11000 10999 10996 ] final   91.82 input  -57.11 | X-H torsion

> <Gold.Protein.ActiveResidues>
 VAL166  LYS551  ARG553  GLY616  TRP617  ASP618  TYR619  PRO620  LYS621  CYS622 
 ASP623  PHE694  ASN695  SER759  ASP760  ASP761  ALA762  ILE779  LEU786  VAL792 
 PHE793  MET794  SER795  GLU796  ALA797  LYS798  CYS799  TRP800  GLU811  SER814 

> <Gold.Protein.RotatedAtoms>
  151.6592  133.3317  159.3169 H   0  0  0  0  0  0  0  0  0  0  0  0  # atno 6907 bound_to 6896
  150.7922  134.6958  159.6531 H   0  0  0  0  0  0  0  0  0  0  0  0  # atno 6908 bound_to 6896
  152.4003  134.6301  160.0125 H   0  0  0  0  0  0  0  0  0  0  0  0  # atno 6909 bound_to 6896
  145.9312  139.3809  143.0420 H   0  0  0  0  0  0  0  0  0  0  0  0  # atno 7974 bound_to 7965
  154.4322  140.1077  156.6008 H   0  0  0  0  0  0  0  0  0  0  0  0  # atno 8008 bound_to 7997
  155.5913  140.3492  155.4548 H   0  0  0  0  0  0  0  0  0  0  0  0  # atno 8009 bound_to 7997
  156.0244  140.1247  157.0313 H   0  0  0  0  0  0  0  0  0  0  0  0  # atno 8010 bound_to 7997
  140.1318  143.4354  152.1622 H   0  0  0  0  0  0  0  0  0  0  0  0  # atno 10167 bound_to 10162
  156.7786  130.9475  151.3120 H   0  0  0  0  0  0  0  0  0  0  0  0  # atno 10718 bound_to 10713
  153.9636  135.2957  155.3432 H   0  0  0  0  0  0  0  0  0  0  0  0  # atno 10763 bound_to 10752
  154.7361  135.5046  153.9047 H   0  0  0  0  0  0  0  0  0  0  0  0  # atno 10764 bound_to 10752
  153.0934  135.6714  153.9920 H   0  0  0  0  0  0  0  0  0  0  0  0  # atno 10765 bound_to 10752
  139.8833  134.8697  156.3483 H   0  0  0  0  0  0  0  0  0  0  0  0  # atno 11005 bound_to 11000
  145.8424  140.9573  143.0792 LP  0  0  0  0  0  0  0  0  0  0  0  0  # atno 17320 bound_to 7965
  144.6765  140.0301  143.7482 LP  0  0  0  0  0  0  0  0  0  0  0  0  # atno 17321 bound_to 7965
  139.5516  144.7342  151.4418 LP  0  0  0  0  0  0  0  0  0  0  0  0  # atno 17342 bound_to 10162
  140.6813  143.8076  150.7125 LP  0  0  0  0  0  0  0  0  0  0  0  0  # atno 17343 bound_to 10162
  157.6657  130.9005  149.9927 LP  0  0  0  0  0  0  0  0  0  0  0  0  # atno 17370 bound_to 10713
  156.1232  130.3645  149.9852 LP  0  0  0  0  0  0  0  0  0  0  0  0  # atno 17371 bound_to 10713
  140.9611  133.7388  156.0403 LP  0  0  0  0  0  0  0  0  0  0  0  0  # atno 17394 bound_to 11000
  140.7988  134.3533  157.5445 LP  0  0  0  0  0  0  0  0  0  0  0  0  # atno 17395 bound_to 11000

$$$$
