AV-unprocessed.smi:2060|AV-procd|sdf|8358|dock3
  -GOLD-   2272011 23D 1   1.00000     0.00000
 Structure written by MMmdl.
 45 46  0  0  0  0  0  0  0  0  3 V2000
  149.9971  136.3059  155.1897 C   0  0  0  0  0  0  0  0  0  0  0  0
  149.1423  137.4522  155.7834 C   0  0  0  0  0  0  0  0  0  0  0  0
  148.6063  138.5931  154.8303 C   0  0  1  0  0  0  0  0  0  0  0  0
  147.8247  139.6017  155.7240 C   0  0  0  0  0  0  0  0  0  0  0  0
  149.8035  139.3197  154.1126 C   0  0  0  0  0  0  0  0  0  0  0  0
  150.3413  140.3961  154.9515 N   0  5  0  0  0  0  0  0  0  0  0  0
  151.3199  140.2333  155.8827 C   0  0  0  0  0  0  0  0  0  0  0  0
  152.3346  139.5324  155.7939 O   0  0  0  0  0  0  0  0  0  0  0  0
  151.0813  140.9477  156.9978 N   0  0  0  0  0  0  0  0  0  0  0  0
  151.8686  141.0485  158.1749 C   0  0  0  0  0  0  0  0  0  0  0  0
  151.5110  141.9541  159.2092 C   0  0  0  0  0  0  0  0  0  0  0  0
  152.4922  141.7623  160.1408 C   0  0  0  0  0  0  0  0  0  0  0  0
  152.7581  142.3712  161.4746 C   0  0  0  0  0  0  0  0  0  0  0  0
  153.3734  140.8179  159.7134 O   0  0  0  0  0  0  0  0  0  0  0  0
  152.9684  140.3640  158.4528 N   0  0  0  0  0  0  0  0  0  0  0  0
  147.6967  138.0373  153.7445 N   0  3  0  0  0  0  0  0  0  0  0  0
  146.7622  136.9361  154.1181 C   0  0  0  0  0  0  0  0  0  0  0  0
  146.0960  136.3362  152.8668 C   0  0  0  0  0  0  0  0  0  0  0  0
  145.4286  137.3474  152.1264 O   0  0  0  0  0  0  0  0  0  0  0  0
  146.3315  138.3494  151.6837 C   0  0  0  0  0  0  0  0  0  0  0  0
  146.9585  139.0335  152.9066 C   0  0  0  0  0  0  0  0  0  0  0  0
  150.3114  135.6280  155.9833 H   0  0  0  0  0  0  0  0  0  0  0  0
  150.9050  136.6709  154.7120 H   0  0  0  0  0  0  0  0  0  0  0  0
  149.4488  135.7032  154.4659 H   0  0  0  0  0  0  0  0  0  0  0  0
  148.3167  136.9906  156.3291 H   0  0  0  0  0  0  0  0  0  0  0  0
  149.7794  137.9018  156.5453 H   0  0  0  0  0  0  0  0  0  0  0  0
  148.4380  140.0223  156.5217 H   0  0  0  0  0  0  0  0  0  0  0  0
  146.9766  139.1132  156.2051 H   0  0  0  0  0  0  0  0  0  0  0  0
  147.4308  140.4599  155.1774 H   0  0  0  0  0  0  0  0  0  0  0  0
  150.5785  138.5870  153.8862 H   0  0  0  0  0  0  0  0  0  0  0  0
  149.4725  139.6844  153.1401 H   0  0  0  0  0  0  0  0  0  0  0  0
  150.2322  141.4926  156.9953 H   0  0  0  0  0  0  0  0  0  0  0  0
  150.6739  142.6342  159.2608 H   0  0  0  0  0  0  0  0  0  0  0  0
  152.0437  143.1662  161.6894 H   0  0  0  0  0  0  0  0  0  0  0  0
  153.7602  142.7982  161.5118 H   0  0  0  0  0  0  0  0  0  0  0  0
  152.6789  141.6227  162.2631 H   0  0  0  0  0  0  0  0  0  0  0  0
  147.2784  136.1134  154.6093 H   0  0  0  0  0  0  0  0  0  0  0  0
  146.0069  137.3128  154.8093 H   0  0  0  0  0  0  0  0  0  0  0  0
  146.8359  135.8397  152.2364 H   0  0  0  0  0  0  0  0  0  0  0  0
  145.3695  135.5773  153.1576 H   0  0  0  0  0  0  0  0  0  0  0  0
  147.0990  137.9179  151.0387 H   0  0  0  0  0  0  0  0  0  0  0  0
  145.7835  139.0776  151.0859 H   0  0  0  0  0  0  0  0  0  0  0  0
  146.1698  139.5063  153.4937 H   0  0  0  0  0  0  0  0  0  0  0  0
  147.6148  139.8289  152.5551 H   0  0  0  0  0  0  0  0  0  0  0  0
  148.3568  137.5993  153.1156 H   0  0  0  0  0  0  0  0  0  0  0  0
  1  2  1  0  0  0  0
  1 22  1  0  0  0  0
  1 23  1  0  0  0  0
  1 24  1  0  0  0  0
  2  3  1  0  0  0  0
  2 25  1  0  0  0  0
  2 26  1  0  0  0  0
  3  4  1  0  0  0  0
  3  5  1  0  0  0  0
  3 16  1  0  0  0  0
  4 27  1  0  0  0  0
  4 28  1  0  0  0  0
  4 29  1  0  0  0  0
  5  6  1  0  0  0  0
  5 30  1  0  0  0  0
  5 31  1  0  0  0  0
  6  7  1  0  0  0  0
  7  8  2  0  0  0  0
  7  9  1  0  0  0  0
  9 10  1  0  0  0  0
  9 32  1  0  0  0  0
 10 15  2  0  0  0  0
 10 11  1  0  0  0  0
 11 12  2  0  0  0  0
 11 33  1  0  0  0  0
 12 13  1  0  0  0  0
 12 14  1  0  0  0  0
 13 34  1  0  0  0  0
 13 35  1  0  0  0  0
 13 36  1  0  0  0  0
 14 15  1  0  0  0  0
 16 21  1  0  0  0  0
 16 17  1  0  0  0  0
 16 45  1  0  0  0  0
 17 18  1  0  0  0  0
 17 37  1  0  0  0  0
 17 38  1  0  0  0  0
 18 19  1  0  0  0  0
 18 39  1  0  0  0  0
 18 40  1  0  0  0  0
 19 20  1  0  0  0  0
 20 21  1  0  0  0  0
 20 41  1  0  0  0  0
 20 42  1  0  0  0  0
 21 43  1  0  0  0  0
 21 44  1  0  0  0  0
M  CHG  1   6  -1
M  CHG  1  16   1
M  END
> <s_m_source_file>
AV-unprocessed.smi

> <i_m_source_file_index>
2060

> <i_lp_mmshare_version>
43012

> <i_f3d_flags>
0

> <s_epik_input>
W0NIMl0xW0NIMl1PW0NIMl1bQ0gyXU4xW0NAQF0oW0NIM10pKFtDSDJdW0NIM10pW0NIMl1bTkhdQyg9TylbTkhdYzJbY0hdYyhbQ0gzXSlvbjI=

> <s_epik_cmdline>
J2VwaWtfcHl0aG9uJywgJy1waCcsICc3LjAnLCAnLXRuJywgJzgnLCAnLW1hJywgJzIwMCcsICctbWV0YWxfYmluZGluZycsICctaW1hZScsICc8aW5maWxlLm1hZT4nLCAnLW9tYWUnLCAnPG91dGZpbGUubWFlPic=

> <r_epik_Ionization_Penalty>
6.79469

> <r_epik_Ionization_Penalty_Charging>
6.79469

> <r_epik_Ionization_Penalty_Neutral>
5.68576e-06

> <r_epik_State_Penalty>
7.33145

> <r_epik_Charging_Adjusted_Penalty>
14.1261

> <i_epik_Tot_Q>
0

> <i_epik_Tot_abs_Q>
2

> <r_epik_Metal_State_Penalty>
3.24803

> <b_epik_Metal_Only>
1

> <s_lp_Force_Field>
OPLS_2005

> <r_lp_Energy>
29.3309

> <b_lp_Chiralities_Consistent>
1

> <s_lp_Variant>
AV-unprocessed.smi:2060-5

> <Gold.Version>
5.8.1

> <Gold.Id.Protein>
6NUR|6NUR_protein|mol2

> <Gold.PLP.Fitness>
40.6707

> <Gold.PLP.PLP>
-31.1134

> <Gold.PLP.part.hbond>
-3.6917

> <Gold.PLP.part.metal>
0.0000

> <Gold.PLP.part.buried>
-2.0040

> <Gold.PLP.part.nonpolar>
-25.4379

> <Gold.PLP.part.repulsive>
0.7675

> <Gold.PLP.ligand.clash>
0.0093

> <Gold.PLP.ligand.torsion>
1.3333

> <Gold.PLP.Chemscore.Hbond>
4.0000

> <Gold.PLP.Chemscore.CHOScore>
0.0000

> <Gold.PLP.Chemscore.Metal>
0.0000

> <Gold.Chemscore.Hbonds>
donor molecule, donor type, donor heavy atom, donor atom, acceptor molecule, acceptor atom, score
      L1  H    16    45       P1  7948  2.00
      P1  H  7989  7998       L1     6  0.35
      P1  H  7997  8009       L1    15  0.57

> <Gold.PLP.Chemscore.Internal.Correction>
0.2332

> <Gold.Rescore>
     Score         DG    S(hbond)    S(metal)    S(lipo)     H(rot)  DE(clash)    DE(int)     intcor
     13.57     -16.67       2.29        0.00      68.24       1.73       0.19       2.91       ----

> <Gold.Chemscore.Fitness>
13.5692

> <Gold.Chemscore.DG>
-16.6748

> <Gold.Chemscore.ZeroCoef>
-5.4800

> <Gold.Chemscore.Hbond>
2.2869

> <Gold.Chemscore.Metal>
0.0000

> <Gold.Chemscore.Lipo>
68.2388

> <Gold.Chemscore.Internal_Hbond>
0.0000

> <Gold.Chemscore.DEClash>
0.1912

> <Gold.Chemscore.DEInternal>
2.9145

> <Gold.Chemscore.Rot>
1.7294

> <Gold.Chemscore.Internal.Correction>
   9.000000E+99

> <Gold.Chemscore.Hbonds>
donor molecule, donor type, donor heavy atom, donor atom, acceptor molecule, acceptor atom, score
      L1  H    16    45       P1  7948  0.98
      P1  H  7997  8009       L1    15  0.51

> <Gold.Chemscore.Hbond.Weighted>
-7.6381

> <Gold.Chemscore.Metal.Weighted>
-0.0000

> <Gold.Chemscore.Lipo.Weighted>
-7.9839

> <Gold.Chemscore.Internal_Hbond.Weighted>
0.0000

> <Gold.Chemscore.DEClash.Weighted>
0.1912

> <Gold.Chemscore.DEInternal.Weighted>
2.9145

> <Gold.Chemscore.Rot.Weighted>
4.4272

> <Gold.Chemscore.Internal.Correction.Weighted>
   9.000000E+99

> <Gold.Protein.RotatedTorsions>
[ 6907 6896 6895 6894 ] final   61.22 input  -60.11 | X-H torsion
[ 7974 7965 7964 7962 ] final   49.59 input  175.53 | X-H torsion
[ 8008 7997 7996 7995 ] final  156.79 input   59.86 | X-H torsion
[ 10167 10162 10161 10158 ] final  119.48 input  -65.29 | X-H torsion
[ 10718 10713 10712 10709 ] final  -53.51 input   66.30 | X-H torsion
[ 10763 10752 10751 10750 ] final   96.68 input  -60.55 | X-H torsion
[ 11005 11000 10999 10996 ] final  136.31 input  -57.11 | X-H torsion

> <Gold.Protein.ActiveResidues>
 VAL166  LYS551  ARG553  GLY616  TRP617  ASP618  TYR619  PRO620  LYS621  CYS622 
 ASP623  PHE694  ASN695  SER759  ASP760  ASP761  ALA762  ILE779  LEU786  VAL792 
 PHE793  MET794  SER795  GLU796  ALA797  LYS798  CYS799  TRP800  GLU811  SER814 

> <Gold.Protein.RotatedAtoms>
  152.4070  134.6190  160.0045 H   0  0  0  0  0  0  0  0  0  0  0  0  # atno 6907 bound_to 6896
  151.6378  133.3322  159.3131 H   0  0  0  0  0  0  0  0  0  0  0  0  # atno 6908 bound_to 6896
  150.7964  134.7068  159.6626 H   0  0  0  0  0  0  0  0  0  0  0  0  # atno 6909 bound_to 6896
  146.0094  139.4526  142.9966 H   0  0  0  0  0  0  0  0  0  0  0  0  # atno 7974 bound_to 7965
  156.2402  140.1903  156.7009 H   0  0  0  0  0  0  0  0  0  0  0  0  # atno 8008 bound_to 7997
  154.6182  140.0612  156.9608 H   0  0  0  0  0  0  0  0  0  0  0  0  # atno 8009 bound_to 7997
  155.1904  140.3284  155.4362 H   0  0  0  0  0  0  0  0  0  0  0  0  # atno 8010 bound_to 7997
  139.6043  144.7065  151.2990 H   0  0  0  0  0  0  0  0  0  0  0  0  # atno 10167 bound_to 10162
  156.1529  130.4151  149.9915 H   0  0  0  0  0  0  0  0  0  0  0  0  # atno 10718 bound_to 10713
  153.2678  135.4210  155.0958 H   0  0  0  0  0  0  0  0  0  0  0  0  # atno 10763 bound_to 10752
  154.8445  135.3465  154.6287 H   0  0  0  0  0  0  0  0  0  0  0  0  # atno 10764 bound_to 10752
  153.6706  135.7044  153.5205 H   0  0  0  0  0  0  0  0  0  0  0  0  # atno 10765 bound_to 10752
  140.0037  134.9468  157.0129 H   0  0  0  0  0  0  0  0  0  0  0  0  # atno 11005 bound_to 11000
  145.7366  141.0023  143.1323 LP  0  0  0  0  0  0  0  0  0  0  0  0  # atno 17320 bound_to 7965
  144.6947  139.9048  143.7460 LP  0  0  0  0  0  0  0  0  0  0  0  0  # atno 17321 bound_to 7965
  140.7273  143.6966  150.7878 LP  0  0  0  0  0  0  0  0  0  0  0  0  # atno 17342 bound_to 10162
  140.0549  143.5213  152.2656 LP  0  0  0  0  0  0  0  0  0  0  0  0  # atno 17343 bound_to 10162
  156.7767  130.9206  151.3645 LP  0  0  0  0  0  0  0  0  0  0  0  0  # atno 17370 bound_to 10713
  157.6672  130.9018  149.9958 LP  0  0  0  0  0  0  0  0  0  0  0  0  # atno 17371 bound_to 10713
  140.4680  134.1415  155.7199 LP  0  0  0  0  0  0  0  0  0  0  0  0  # atno 17394 bound_to 11000
  141.1661  133.8700  157.1710 LP  0  0  0  0  0  0  0  0  0  0  0  0  # atno 17395 bound_to 11000

$$$$
