AV-unprocessed.smi:2052|AV-procd|sdf|8328|dock7
  -GOLD-   2272010593D 1   1.00000     0.00000
 Structure written by MMmdl.
 41 42  0  0  0  0  0  0  0  0  1 V2000
  144.3044  144.8300  156.7642 C   0  0  0  0  0  0  0  0  0  0  0  0
  144.9085  143.1266  156.6144 S   0  0  0  0  0  0  0  0  0  0  0  0
  145.9378  143.2588  155.1224 C   0  0  2  0  0  0  0  0  0  0  0  0
  145.0932  143.7400  153.9319 C   0  0  0  0  0  0  0  0  0  0  0  0
  146.6469  141.9390  154.7961 C   0  0  0  0  0  0  0  0  0  0  0  0
  146.0080  140.8884  154.7289 O   0  0  0  0  0  0  0  0  0  0  0  0
  147.9714  142.0065  154.5892 N   0  0  0  0  0  0  0  0  0  0  0  0
  148.8163  140.8768  154.2146 C   0  0  0  0  0  0  0  0  0  0  0  0
  149.9822  140.6195  155.1609 C   0  0  0  0  0  0  0  0  0  0  0  0
  150.7913  139.4809  154.9807 C   0  0  0  0  0  0  0  0  0  0  0  0
  151.8574  139.2666  155.8736 C   0  0  0  0  0  0  0  0  0  0  0  0
  152.1462  140.0992  156.8953 N   0  0  0  0  0  0  0  0  0  0  0  0
  151.3770  141.2004  157.0802 C   0  0  0  0  0  0  0  0  0  0  0  0
  151.6948  142.0710  158.1448 N   0  0  0  0  0  0  0  0  0  0  0  0
  152.7502  141.6649  159.0710 C   0  0  0  0  0  0  0  0  0  0  0  0
  152.7593  142.5812  160.3063 C   0  0  0  0  0  0  0  0  0  0  0  0
  152.8819  143.9388  159.8953 O   0  0  0  0  0  0  0  0  0  0  0  0
  151.7873  144.3468  159.0815 C   0  0  0  0  0  0  0  0  0  0  0  0
  151.7399  143.4911  157.8041 C   0  0  0  0  0  0  0  0  0  0  0  0
  150.2763  141.4856  156.2381 C   0  0  0  0  0  0  0  0  0  0  0  0
  143.6212  144.9109  157.6096 H   0  0  0  0  0  0  0  0  0  0  0  0
  143.7716  145.1266  155.8608 H   0  0  0  0  0  0  0  0  0  0  0  0
  145.1316  145.5211  156.9253 H   0  0  0  0  0  0  0  0  0  0  0  0
  146.6923  144.0224  155.3176 H   0  0  0  0  0  0  0  0  0  0  0  0
  145.6927  143.8129  153.0234 H   0  0  0  0  0  0  0  0  0  0  0  0
  144.6747  144.7276  154.1269 H   0  0  0  0  0  0  0  0  0  0  0  0
  144.2612  143.0642  153.7298 H   0  0  0  0  0  0  0  0  0  0  0  0
  148.4208  142.9070  154.6679 H   0  0  0  0  0  0  0  0  0  0  0  0
  148.1945  139.9818  154.1889 H   0  0  0  0  0  0  0  0  0  0  0  0
  149.1915  141.0217  153.1999 H   0  0  0  0  0  0  0  0  0  0  0  0
  150.6021  138.7853  154.1763 H   0  0  0  0  0  0  0  0  0  0  0  0
  152.4968  138.4033  155.7643 H   0  0  0  0  0  0  0  0  0  0  0  0
  152.5983  140.6322  159.3877 H   0  0  0  0  0  0  0  0  0  0  0  0
  153.7148  141.7132  158.5638 H   0  0  0  0  0  0  0  0  0  0  0  0
  151.8507  142.4490  160.8960 H   0  0  0  0  0  0  0  0  0  0  0  0
  153.5986  142.3287  160.9542 H   0  0  0  0  0  0  0  0  0  0  0  0
  150.8533  144.2634  159.6398 H   0  0  0  0  0  0  0  0  0  0  0  0
  151.9102  145.3986  158.8235 H   0  0  0  0  0  0  0  0  0  0  0  0
  152.6269  143.6783  157.1975 H   0  0  0  0  0  0  0  0  0  0  0  0
  150.8803  143.7931  157.2074 H   0  0  0  0  0  0  0  0  0  0  0  0
  149.6590  142.3522  156.4205 H   0  0  0  0  0  0  0  0  0  0  0  0
  1  2  1  0  0  0  0
  1 21  1  0  0  0  0
  1 22  1  0  0  0  0
  1 23  1  0  0  0  0
  2  3  1  0  0  0  0
  3  4  1  0  0  0  0
  3  5  1  0  0  0  0
  3 24  1  0  0  0  0
  4 25  1  0  0  0  0
  4 26  1  0  0  0  0
  4 27  1  0  0  0  0
  5  6  2  0  0  0  0
  5  7  1  0  0  0  0
  7  8  1  0  0  0  0
  7 28  1  0  0  0  0
  8  9  1  0  0  0  0
  8 29  1  0  0  0  0
  8 30  1  0  0  0  0
  9 20  1  0  0  0  0
  9 10  2  0  0  0  0
 10 11  1  0  0  0  0
 10 31  1  0  0  0  0
 11 12  2  0  0  0  0
 11 32  1  0  0  0  0
 12 13  1  0  0  0  0
 13 14  1  0  0  0  0
 13 20  2  0  0  0  0
 14 19  1  0  0  0  0
 14 15  1  0  0  0  0
 15 16  1  0  0  0  0
 15 33  1  0  0  0  0
 15 34  1  0  0  0  0
 16 17  1  0  0  0  0
 16 35  1  0  0  0  0
 16 36  1  0  0  0  0
 17 18  1  0  0  0  0
 18 19  1  0  0  0  0
 18 37  1  0  0  0  0
 18 38  1  0  0  0  0
 19 39  1  0  0  0  0
 19 40  1  0  0  0  0
 20 41  1  0  0  0  0
M  END
> <s_m_source_file>
AV-unprocessed.smi

> <i_m_source_file_index>
2052

> <i_lp_mmshare_version>
43012

> <i_f3d_flags>
0

> <s_epik_input>
W0NIM11TW0NASF0oW0NIM10pQyg9TylbTkhdW0NIMl1jMVtjSF1bY0hdbmMoW2NIXTEpTjJbQ0gyXVtDSDJdT1tDSDJdW0NIMl0y

> <s_epik_cmdline>
J2VwaWtfcHl0aG9uJywgJy1waCcsICc3LjAnLCAnLXRuJywgJzgnLCAnLW1hJywgJzIwMCcsICctbWV0YWxfYmluZGluZycsICctaW1hZScsICc8aW5maWxlLm1hZT4nLCAnLW9tYWUnLCAnPG91dGZpbGUubWFlPic=

> <r_lp_tautomer_probability>
1

> <r_epik_Ionization_Penalty>
0.00463955

> <r_epik_Ionization_Penalty_Charging>
0

> <r_epik_Ionization_Penalty_Neutral>
0.00463955

> <r_epik_State_Penalty>
0.00335544

> <r_epik_Charging_Adjusted_Penalty>
0.00335544

> <i_epik_Tot_Q>
0

> <i_epik_Tot_abs_Q>
0

> <r_epik_Metal_State_Penalty>
-0

> <b_epik_Metal_Only>
0

> <s_lp_Force_Field>
OPLS_2005

> <r_lp_Energy>
14.3355

> <b_lp_Chiralities_Consistent>
1

> <s_lp_Variant>
AV-unprocessed.smi:2052-1

> <Gold.Version>
5.8.1

> <Gold.Id.Protein>
6NUR|6NUR_protein|mol2

> <Gold.PLP.Fitness>
44.7066

> <Gold.PLP.PLP>
-40.6115

> <Gold.PLP.part.hbond>
-1.5969

> <Gold.PLP.part.metal>
0.0000

> <Gold.PLP.part.buried>
-2.3938

> <Gold.PLP.part.nonpolar>
-35.8607

> <Gold.PLP.part.repulsive>
0.3267

> <Gold.PLP.ligand.clash>
0.0000

> <Gold.PLP.ligand.torsion>
0.4300

> <Gold.PLP.Chemscore.Hbond>
1.5249

> <Gold.PLP.Chemscore.CHOScore>
0.0000

> <Gold.PLP.Chemscore.Metal>
0.0000

> <Gold.Chemscore.Hbonds>
donor molecule, donor type, donor heavy atom, donor atom, acceptor molecule, acceptor atom, score
      L1  H     7    28       P1  8028  0.84
      P1  H  7997  8009       L1    12  0.38

> <Gold.PLP.Chemscore.Internal.Correction>
0.3804

> <Gold.Rescore>
     Score         DG    S(hbond)    S(metal)    S(lipo)     H(rot)  DE(clash)    DE(int)     intcor
     15.90     -16.36       0.97        0.00     101.92       1.67       0.07       0.39       ----

> <Gold.Chemscore.Fitness>
15.8955

> <Gold.Chemscore.DG>
-16.3594

> <Gold.Chemscore.ZeroCoef>
-5.4800

> <Gold.Chemscore.Hbond>
0.9657

> <Gold.Chemscore.Metal>
0.0000

> <Gold.Chemscore.Lipo>
101.9212

> <Gold.Chemscore.Internal_Hbond>
0.0000

> <Gold.Chemscore.DEClash>
0.0692

> <Gold.Chemscore.DEInternal>
0.3947

> <Gold.Chemscore.Rot>
1.6682

> <Gold.Chemscore.Internal.Correction>
   9.000000E+99

> <Gold.Chemscore.Hbonds>
donor molecule, donor type, donor heavy atom, donor atom, acceptor molecule, acceptor atom, score
      L1  H     7    28       P1  8028  0.80
      P1  H  7997  8009       L1    12  0.05

> <Gold.Chemscore.Hbond.Weighted>
-3.2253

> <Gold.Chemscore.Metal.Weighted>
-0.0000

> <Gold.Chemscore.Lipo.Weighted>
-11.9248

> <Gold.Chemscore.Internal_Hbond.Weighted>
0.0000

> <Gold.Chemscore.DEClash.Weighted>
0.0692

> <Gold.Chemscore.DEInternal.Weighted>
0.3947

> <Gold.Chemscore.Rot.Weighted>
4.2707

> <Gold.Chemscore.Internal.Correction.Weighted>
   9.000000E+99

> <Gold.Protein.RotatedTorsions>
[ 6907 6896 6895 6894 ] final  -15.68 input  -60.11 | X-H torsion
[ 7974 7965 7964 7962 ] final  -28.32 input  175.53 | X-H torsion
[ 8008 7997 7996 7995 ] final -172.87 input   59.86 | X-H torsion
[ 10167 10162 10161 10158 ] final    8.58 input  -65.29 | X-H torsion
[ 10718 10713 10712 10709 ] final  -67.27 input   66.30 | X-H torsion
[ 10763 10752 10751 10750 ] final   49.21 input  -60.55 | X-H torsion
[ 11005 11000 10999 10996 ] final  174.17 input  -57.11 | X-H torsion

> <Gold.Protein.ActiveResidues>
 VAL166  LYS551  ARG553  GLY616  TRP617  ASP618  TYR619  PRO620  LYS621  CYS622 
 ASP623  PHE694  ASN695  SER759  ASP760  ASP761  ALA762  ILE779  LEU786  VAL792 
 PHE793  MET794  SER795  GLU796  ALA797  LYS798  CYS799  TRP800  GLU811  SER814 

> <Gold.Protein.RotatedAtoms>
  151.3202  135.0816  159.9302 H   0  0  0  0  0  0  0  0  0  0  0  0  # atno 6907 bound_to 6896
  152.5258  133.9646  159.7744 H   0  0  0  0  0  0  0  0  0  0  0  0  # atno 6908 bound_to 6896
  150.9966  133.6045  159.2731 H   0  0  0  0  0  0  0  0  0  0  0  0  # atno 6909 bound_to 6896
  146.1296  140.5267  142.8699 H   0  0  0  0  0  0  0  0  0  0  0  0  # atno 7974 bound_to 7965
  155.9501  140.1125  157.0984 H   0  0  0  0  0  0  0  0  0  0  0  0  # atno 8008 bound_to 7997
  154.4108  140.1202  156.5108 H   0  0  0  0  0  0  0  0  0  0  0  0  # atno 8009 bound_to 7997
  155.6853  140.3473  155.4874 H   0  0  0  0  0  0  0  0  0  0  0  0  # atno 8010 bound_to 7997
  140.6305  143.8003  150.7290 H   0  0  0  0  0  0  0  0  0  0  0  0  # atno 10167 bound_to 10162
  156.0567  130.4275  150.1830 H   0  0  0  0  0  0  0  0  0  0  0  0  # atno 10718 bound_to 10713
  152.9788  135.5919  154.4052 H   0  0  0  0  0  0  0  0  0  0  0  0  # atno 10763 bound_to 10752
  154.3693  135.2767  155.2277 H   0  0  0  0  0  0  0  0  0  0  0  0  # atno 10764 bound_to 10752
  154.4239  135.6052  153.6082 H   0  0  0  0  0  0  0  0  0  0  0  0  # atno 10765 bound_to 10752
  140.3484  134.7216  157.4251 H   0  0  0  0  0  0  0  0  0  0  0  0  # atno 11005 bound_to 11000
  144.7677  140.5568  143.6691 LP  0  0  0  0  0  0  0  0  0  0  0  0  # atno 17320 bound_to 7965
  145.5289  139.1475  143.3511 LP  0  0  0  0  0  0  0  0  0  0  0  0  # atno 17321 bound_to 7965
  140.1613  143.4273  152.2065 LP  0  0  0  0  0  0  0  0  0  0  0  0  # atno 17342 bound_to 10162
  139.5520  144.7345  151.4406 LP  0  0  0  0  0  0  0  0  0  0  0  0  # atno 17343 bound_to 10162
  156.9905  130.9892  151.3416 LP  0  0  0  0  0  0  0  0  0  0  0  0  # atno 17370 bound_to 10713
  157.5542  130.8202  149.8183 LP  0  0  0  0  0  0  0  0  0  0  0  0  # atno 17371 bound_to 10713
  140.0723  134.5845  155.8628 LP  0  0  0  0  0  0  0  0  0  0  0  0  # atno 17394 bound_to 11000
  141.2019  133.6621  156.5977 LP  0  0  0  0  0  0  0  0  0  0  0  0  # atno 17395 bound_to 11000

$$$$
