AV-unprocessed.smi:229|AV-procd|sdf|1760|dock10
  -GOLD-   2262020293D 1   1.00000     0.00000
 Structure written by MMmdl.
 58 62  0  0  0  0  0  0  0  0  1 V2000
  155.7485  139.9457  160.1366 C   0  0  0  0  0  0  0  0  0  0  0  0
  154.7355  140.9068  160.7711 C   0  0  0  0  0  0  0  0  0  0  0  0
  153.7689  141.5190  159.7464 C   0  0  1  0  0  0  0  0  0  0  0  0
  152.8546  140.4553  159.1159 C   0  0  0  0  0  0  0  0  0  0  0  0
  151.8871  141.0961  158.2323 N   0  0  0  0  0  0  0  0  0  0  0  0
  151.2086  140.3238  157.3467 C   0  0  0  0  0  0  0  0  0  0  0  0
  151.0284  140.7524  156.0685 N   0  0  0  0  0  0  0  0  0  0  0  0
  150.3608  139.9981  155.1902 C   0  0  0  0  0  0  0  0  0  0  0  0
  149.7946  138.8042  155.3758 N   0  0  0  0  0  0  0  0  0  0  0  0
  149.9657  138.3719  156.6576 C   0  0  0  0  0  0  0  0  0  0  0  0
  150.6537  139.0601  157.6966 C   0  0  0  0  0  0  0  0  0  0  0  0
  150.6079  138.3124  158.8681 N   0  0  0  0  0  0  0  0  0  0  0  0
  149.9405  137.2406  158.5380 C   0  0  0  0  0  0  0  0  0  0  0  0
  149.5127  137.1973  157.2306 N   0  0  0  0  0  0  0  0  0  0  0  0
  148.7430  136.1395  156.5998 C   0  0  0  0  0  0  0  0  0  0  0  0
  149.5872  135.3035  155.6175 C   0  0  2  0  0  0  0  0  0  0  0  0
  150.0693  136.1447  154.5859 O   0  0  0  0  0  0  0  0  0  0  0  0
  148.7864  134.1248  155.0264 C   0  0  1  0  0  0  0  0  0  0  0  0
  147.6110  134.4678  154.1045 C   0  0  0  0  0  0  0  0  0  0  0  0
  147.5073  133.2062  153.2773 C   0  0  0  0  0  0  0  0  0  0  0  0
  148.9767  132.8362  153.0927 C   0  0  0  0  0  0  0  0  0  0  0  0
  149.6327  133.2456  154.2897 O   0  0  0  0  0  0  0  0  0  0  0  0
  151.0951  142.1176  158.9066 C   0  0  0  0  0  0  0  0  0  0  0  0
  152.0116  143.1634  159.5821 C   0  0  2  0  0  0  0  0  0  0  0  0
  151.2051  144.1074  160.4689 C   0  0  0  0  0  0  0  0  0  0  0  0
  150.9602  145.3098  159.5701 C   0  0  0  0  0  0  0  0  0  0  0  0
  152.2000  145.4413  158.9010 O   0  0  0  0  0  0  0  0  0  0  0  0
  152.6656  144.1374  158.5734 C   0  0  0  0  0  0  0  0  0  0  0  0
  152.9660  142.4956  160.4132 O   0  0  0  0  0  0  0  0  0  0  0  0
  156.4087  139.5226  160.8937 H   0  0  0  0  0  0  0  0  0  0  0  0
  156.3709  140.4551  159.4007 H   0  0  0  0  0  0  0  0  0  0  0  0
  155.2451  139.1189  159.6349 H   0  0  0  0  0  0  0  0  0  0  0  0
  154.1660  140.3642  161.5264 H   0  0  0  0  0  0  0  0  0  0  0  0
  155.2655  141.7009  161.2981 H   0  0  0  0  0  0  0  0  0  0  0  0
  154.3551  141.9907  158.9573 H   0  0  0  0  0  0  0  0  0  0  0  0
  153.4588  139.7387  158.5575 H   0  0  0  0  0  0  0  0  0  0  0  0
  152.3252  139.9019  159.8930 H   0  0  0  0  0  0  0  0  0  0  0  0
  150.2660  140.4109  154.1966 H   0  0  0  0  0  0  0  0  0  0  0  0
  149.7319  136.4515  159.2458 H   0  0  0  0  0  0  0  0  0  0  0  0
  148.3345  135.5015  157.3843 H   0  0  0  0  0  0  0  0  0  0  0  0
  147.8905  136.5880  156.0881 H   0  0  0  0  0  0  0  0  0  0  0  0
  150.4488  134.9031  156.1535 H   0  0  0  0  0  0  0  0  0  0  0  0
  149.6268  135.9161  153.7829 H   0  0  0  0  0  0  0  0  0  0  0  0
  148.4021  133.5218  155.8508 H   0  0  0  0  0  0  0  0  0  0  0  0
  146.6957  134.6971  154.6505 H   0  0  0  0  0  0  0  0  0  0  0  0
  147.8385  135.3110  153.4520 H   0  0  0  0  0  0  0  0  0  0  0  0
  146.9908  132.4283  153.8414 H   0  0  0  0  0  0  0  0  0  0  0  0
  146.9815  133.3526  152.3333 H   0  0  0  0  0  0  0  0  0  0  0  0
  149.1201  131.7726  152.9014 H   0  0  0  0  0  0  0  0  0  0  0  0
  149.4048  133.3916  152.2571 H   0  0  0  0  0  0  0  0  0  0  0  0
  150.4051  142.6136  158.2250 H   0  0  0  0  0  0  0  0  0  0  0  0
  150.4813  141.6212  159.6596 H   0  0  0  0  0  0  0  0  0  0  0  0
  150.2843  143.6697  160.8554 H   0  0  0  0  0  0  0  0  0  0  0  0
  151.8041  144.4227  161.3245 H   0  0  0  0  0  0  0  0  0  0  0  0
  150.1672  145.1094  158.8479 H   0  0  0  0  0  0  0  0  0  0  0  0
  150.7048  146.2108  160.1278 H   0  0  0  0  0  0  0  0  0  0  0  0
  153.7542  144.1329  158.6190 H   0  0  0  0  0  0  0  0  0  0  0  0
  152.3770  143.9022  157.5480 H   0  0  0  0  0  0  0  0  0  0  0  0
  1  2  1  0  0  0  0
  1 30  1  0  0  0  0
  1 31  1  0  0  0  0
  1 32  1  0  0  0  0
  2  3  1  0  0  0  0
  2 33  1  0  0  0  0
  2 34  1  0  0  0  0
  3 29  1  0  0  0  0
  3  4  1  0  0  0  0
  3 35  1  0  0  0  0
  4  5  1  0  0  0  0
  4 36  1  0  0  0  0
  4 37  1  0  0  0  0
  5  6  1  0  0  0  0
  5 23  1  0  0  0  0
  6 11  1  0  0  0  0
  6  7  2  0  0  0  0
  7  8  1  0  0  0  0
  8  9  2  0  0  0  0
  8 38  1  0  0  0  0
  9 10  1  0  0  0  0
 10 14  1  0  0  0  0
 10 11  2  0  0  0  0
 11 12  1  0  0  0  0
 12 13  2  0  0  0  0
 13 14  1  0  0  0  0
 13 39  1  0  0  0  0
 14 15  1  0  0  0  0
 15 16  1  0  0  0  0
 15 40  1  0  0  0  0
 15 41  1  0  0  0  0
 16 17  1  0  0  0  0
 16 18  1  0  0  0  0
 16 42  1  0  0  0  0
 17 43  1  0  0  0  0
 18 22  1  0  0  0  0
 18 19  1  0  0  0  0
 18 44  1  0  0  0  0
 19 20  1  0  0  0  0
 19 45  1  0  0  0  0
 19 46  1  0  0  0  0
 20 21  1  0  0  0  0
 20 47  1  0  0  0  0
 20 48  1  0  0  0  0
 21 22  1  0  0  0  0
 21 49  1  0  0  0  0
 21 50  1  0  0  0  0
 23 24  1  0  0  0  0
 23 51  1  0  0  0  0
 23 52  1  0  0  0  0
 24 28  1  0  0  0  0
 24 25  1  0  0  0  0
 24 29  1  0  0  0  0
 25 26  1  0  0  0  0
 25 53  1  0  0  0  0
 25 54  1  0  0  0  0
 26 27  1  0  0  0  0
 26 55  1  0  0  0  0
 26 56  1  0  0  0  0
 27 28  1  0  0  0  0
 28 57  1  0  0  0  0
 28 58  1  0  0  0  0
M  END
> <s_m_source_file>
AV-unprocessed.smi

> <i_m_source_file_index>
229

> <i_lp_mmshare_version>
43012

> <i_f3d_flags>
0

> <s_epik_input>
W0NIMl0xT1tDSDJdW0NIMl1bQ0BdMTJbQ0gyXU4oW0NIMl1bQ0BIXShPMilbQ0gyXVtDSDNdKWMobltjSF1uMyljKGMzNCluW2NIXW40W0NIMl1bQ0BIXShbT0hdKVtDQEBIXTVbQ0gyXVtDSDJdW0NIMl1PNQ==

> <s_epik_cmdline>
J2VwaWtfcHl0aG9uJywgJy1waCcsICc3LjAnLCAnLXRuJywgJzgnLCAnLW1hJywgJzIwMCcsICctbWV0YWxfYmluZGluZycsICctaW1hZScsICc8aW5maWxlLm1hZT4nLCAnLW9tYWUnLCAnPG91dGZpbGUubWFlPic=

> <r_lp_tautomer_probability>
1

> <r_epik_Ionization_Penalty>
0.00318402

> <r_epik_Ionization_Penalty_Charging>
0

> <r_epik_Ionization_Penalty_Neutral>
0.00318402

> <r_epik_State_Penalty>
0.00215642

> <r_epik_Charging_Adjusted_Penalty>
0.00215642

> <i_epik_Tot_Q>
0

> <i_epik_Tot_abs_Q>
0

> <r_epik_Metal_State_Penalty>
-0

> <b_epik_Metal_Only>
0

> <s_lp_Force_Field>
OPLS_2005

> <r_lp_Energy>
56.4449

> <b_lp_Chiralities_Consistent>
1

> <s_lp_Variant>
AV-unprocessed.smi:229-14

> <Gold.Version>
5.8.1

> <Gold.Id.Protein>
6NUR|6NUR_protein|mol2

> <Gold.PLP.Fitness>
46.7371

> <Gold.PLP.PLP>
-44.9598

> <Gold.PLP.part.hbond>
-1.3696

> <Gold.PLP.part.metal>
0.0000

> <Gold.PLP.part.buried>
-7.1530

> <Gold.PLP.part.nonpolar>
-36.9180

> <Gold.PLP.part.repulsive>
0.2648

> <Gold.PLP.ligand.clash>
0.0000

> <Gold.PLP.ligand.torsion>
0.7802

> <Gold.PLP.Chemscore.Hbond>
1.0000

> <Gold.PLP.Chemscore.CHOScore>
0.0000

> <Gold.PLP.Chemscore.Metal>
0.0000

> <Gold.Chemscore.Hbonds>
donor molecule, donor type, donor heavy atom, donor atom, acceptor molecule, acceptor atom, score
      L1  H    17    43       P1  7948  1.00

> <Gold.PLP.Chemscore.Internal.Correction>
0.3376

> <Gold.Rescore>
     Score         DG    S(hbond)    S(metal)    S(lipo)     H(rot)  DE(clash)    DE(int)     intcor
     13.32     -15.17       0.91        0.00     110.69       2.46       0.11       1.74       ----

> <Gold.Chemscore.Fitness>
13.3177

> <Gold.Chemscore.DG>
-15.1669

> <Gold.Chemscore.ZeroCoef>
-5.4800

> <Gold.Chemscore.Hbond>
0.9078

> <Gold.Chemscore.Metal>
0.0000

> <Gold.Chemscore.Lipo>
110.6852

> <Gold.Chemscore.Internal_Hbond>
0.0000

> <Gold.Chemscore.DEClash>
0.1113

> <Gold.Chemscore.DEInternal>
1.7378

> <Gold.Chemscore.Rot>
2.4591

> <Gold.Chemscore.Internal.Correction>
   9.000000E+99

> <Gold.Chemscore.Hbonds>
donor molecule, donor type, donor heavy atom, donor atom, acceptor molecule, acceptor atom, score
      L1  H    17    43       P1  7948  0.32

> <Gold.Chemscore.Hbond.Weighted>
-3.0320

> <Gold.Chemscore.Metal.Weighted>
-0.0000

> <Gold.Chemscore.Lipo.Weighted>
-12.9502

> <Gold.Chemscore.Internal_Hbond.Weighted>
0.0000

> <Gold.Chemscore.DEClash.Weighted>
0.1113

> <Gold.Chemscore.DEInternal.Weighted>
1.7378

> <Gold.Chemscore.Rot.Weighted>
6.2953

> <Gold.Chemscore.Internal.Correction.Weighted>
   9.000000E+99

> <Gold.Protein.RotatedTorsions>
[ 6907 6896 6895 6894 ] final  156.65 input  -60.11 | X-H torsion
[ 7974 7965 7964 7962 ] final -115.20 input  175.53 | X-H torsion
[ 8008 7997 7996 7995 ] final  117.33 input   59.86 | X-H torsion
[ 10167 10162 10161 10158 ] final  -54.23 input  -65.29 | X-H torsion
[ 10718 10713 10712 10709 ] final  147.66 input   66.30 | X-H torsion
[ 10763 10752 10751 10750 ] final -106.56 input  -60.55 | X-H torsion
[ 11005 11000 10999 10996 ] final  -58.48 input  -57.11 | X-H torsion

> <Gold.Protein.ActiveResidues>
 VAL166  LYS551  ARG553  GLY616  TRP617  ASP618  TYR619  PRO620  LYS621  CYS622 
 ASP623  PHE694  ASN695  SER759  ASP760  ASP761  ALA762  ILE779  LEU786  VAL792 
 PHE793  MET794  SER795  GLU796  ALA797  LYS798  CYS799  TRP800  GLU811  SER814 

> <Gold.Protein.RotatedAtoms>
  152.0266  133.3920  159.4279 H   0  0  0  0  0  0  0  0  0  0  0  0  # atno 6907 bound_to 6896
  150.6885  134.3567  159.4942 H   0  0  0  0  0  0  0  0  0  0  0  0  # atno 6908 bound_to 6896
  152.1348  134.9107  160.0607 H   0  0  0  0  0  0  0  0  0  0  0  0  # atno 6909 bound_to 6896
  145.1111  140.8612  143.3869 H   0  0  0  0  0  0  0  0  0  0  0  0  # atno 7974 bound_to 7965
  156.2488  140.2898  156.0661 H   0  0  0  0  0  0  0  0  0  0  0  0  # atno 8008 bound_to 7997
  155.1722  140.0402  157.2882 H   0  0  0  0  0  0  0  0  0  0  0  0  # atno 8009 bound_to 7997
  154.6318  140.2501  155.7432 H   0  0  0  0  0  0  0  0  0  0  0  0  # atno 8010 bound_to 7997
  140.6442  143.2525  151.4906 H   0  0  0  0  0  0  0  0  0  0  0  0  # atno 10167 bound_to 10162
  157.3183  131.0900  151.1261 H   0  0  0  0  0  0  0  0  0  0  0  0  # atno 10718 bound_to 10713
  154.8020  135.4707  154.0299 H   0  0  0  0  0  0  0  0  0  0  0  0  # atno 10763 bound_to 10752
  153.1797  135.6838  153.8502 H   0  0  0  0  0  0  0  0  0  0  0  0  # atno 10764 bound_to 10752
  153.8056  135.3224  155.3373 H   0  0  0  0  0  0  0  0  0  0  0  0  # atno 10765 bound_to 10752
  141.1209  133.6612  156.4927 H   0  0  0  0  0  0  0  0  0  0  0  0  # atno 11005 bound_to 11000
  145.0845  139.2935  143.5766 LP  0  0  0  0  0  0  0  0  0  0  0  0  # atno 17320 bound_to 7965
  146.3526  140.0363  142.8646 LP  0  0  0  0  0  0  0  0  0  0  0  0  # atno 17321 bound_to 7965
  139.5652  144.2061  152.1753 LP  0  0  0  0  0  0  0  0  0  0  0  0  # atno 17342 bound_to 10162
  140.1340  144.5262  150.6785 LP  0  0  0  0  0  0  0  0  0  0  0  0  # atno 17343 bound_to 10162
  157.2556  130.6635  149.5951 LP  0  0  0  0  0  0  0  0  0  0  0  0  # atno 17370 bound_to 10713
  155.9683  130.4524  150.5774 LP  0  0  0  0  0  0  0  0  0  0  0  0  # atno 17371 bound_to 10713
  140.4510  134.6929  157.5039 LP  0  0  0  0  0  0  0  0  0  0  0  0  # atno 17394 bound_to 11000
  140.0166  134.6610  155.9301 LP  0  0  0  0  0  0  0  0  0  0  0  0  # atno 17395 bound_to 11000

$$$$
