AV-unprocessed.smi:2323|AV-procd|sdf|9289|dock7
  -GOLD-   2272012513D 1   1.00000     0.00000
 Structure written by MMmdl.
 30 31  0  0  0  0  0  0  0  0  1 V2000
  147.1783  142.8875  153.9280 C   0  0  0  0  0  0  0  0  0  0  0  0
  148.3827  142.3205  154.5145 N   0  0  0  0  0  0  0  0  0  0  0  0
  148.7846  141.0526  154.3379 C   0  0  0  0  0  0  0  0  0  0  0  0
  148.1546  140.2278  153.6754 O   0  0  0  0  0  0  0  0  0  0  0  0
  150.0404  140.6617  155.0634 C   0  0  0  0  0  0  0  0  0  0  0  0
  150.8384  139.5985  154.5880 C   0  0  0  0  0  0  0  0  0  0  0  0
  152.0198  139.2769  155.2828 C   0  0  0  0  0  0  0  0  0  0  0  0
  152.4365  139.9387  156.3819 N   0  0  0  0  0  0  0  0  0  0  0  0
  151.6798  140.9675  156.8368 C   0  0  0  0  0  0  0  0  0  0  0  0
  152.0940  141.6626  157.9558 O   0  0  0  0  0  0  0  0  0  0  0  0
  151.3535  142.8048  158.3915 C   0  0  2  0  0  0  0  0  0  0  0  0
  151.6617  144.0202  157.5256 C   0  0  0  0  0  0  0  0  0  0  0  0
  152.8691  144.6259  158.2254 C   0  0  0  0  0  0  0  0  0  0  0  0
  152.5477  144.4702  159.5967 O   0  0  0  0  0  0  0  0  0  0  0  0
  151.8886  143.2194  159.7708 C   0  0  0  0  0  0  0  0  0  0  0  0
  150.4816  141.3640  156.2088 C   0  0  0  0  0  0  0  0  0  0  0  0
  147.0680  143.9268  154.2369 H   0  0  0  0  0  0  0  0  0  0  0  0
  146.2926  142.3396  154.2524 H   0  0  0  0  0  0  0  0  0  0  0  0
  147.2270  142.8585  152.8388 H   0  0  0  0  0  0  0  0  0  0  0  0
  148.9476  142.9263  155.0922 H   0  0  0  0  0  0  0  0  0  0  0  0
  150.5556  139.0349  153.7105 H   0  0  0  0  0  0  0  0  0  0  0  0
  152.6487  138.4664  154.9450 H   0  0  0  0  0  0  0  0  0  0  0  0
  150.2842  142.5943  158.4483 H   0  0  0  0  0  0  0  0  0  0  0  0
  151.8530  143.7830  156.4789 H   0  0  0  0  0  0  0  0  0  0  0  0
  150.8272  144.7215  157.5644 H   0  0  0  0  0  0  0  0  0  0  0  0
  153.7765  144.0654  157.9946 H   0  0  0  0  0  0  0  0  0  0  0  0
  153.0303  145.6720  157.9644 H   0  0  0  0  0  0  0  0  0  0  0  0
  151.0832  143.3342  160.4969 H   0  0  0  0  0  0  0  0  0  0  0  0
  152.5899  142.4832  160.1663 H   0  0  0  0  0  0  0  0  0  0  0  0
  149.9221  142.1982  156.6065 H   0  0  0  0  0  0  0  0  0  0  0  0
  1  2  1  0  0  0  0
  1 17  1  0  0  0  0
  1 18  1  0  0  0  0
  1 19  1  0  0  0  0
  2  3  1  0  0  0  0
  2 20  1  0  0  0  0
  3  4  2  0  0  0  0
  3  5  1  0  0  0  0
  5 16  1  0  0  0  0
  5  6  2  0  0  0  0
  6  7  1  0  0  0  0
  6 21  1  0  0  0  0
  7  8  2  0  0  0  0
  7 22  1  0  0  0  0
  8  9  1  0  0  0  0
  9 10  1  0  0  0  0
  9 16  2  0  0  0  0
 10 11  1  0  0  0  0
 11 15  1  0  0  0  0
 11 12  1  0  0  0  0
 11 23  1  0  0  0  0
 12 13  1  0  0  0  0
 12 24  1  0  0  0  0
 12 25  1  0  0  0  0
 13 14  1  0  0  0  0
 13 26  1  0  0  0  0
 13 27  1  0  0  0  0
 14 15  1  0  0  0  0
 15 28  1  0  0  0  0
 15 29  1  0  0  0  0
 16 30  1  0  0  0  0
M  END
> <s_m_source_file>
AV-unprocessed.smi

> <i_m_source_file_index>
2323

> <i_lp_mmshare_version>
43012

> <i_f3d_flags>
0

> <s_epik_input>
W0NIM11bTkhdQyg9TyljMVtjSF1bY0hdbmMoW2NIXTEpT1tDQEBIXTJbQ0gyXVtDSDJdT1tDSDJdMg==

> <s_epik_cmdline>
J2VwaWtfcHl0aG9uJywgJy1waCcsICc3LjAnLCAnLXRuJywgJzgnLCAnLW1hJywgJzIwMCcsICctbWV0YWxfYmluZGluZycsICctaW1hZScsICc8aW5maWxlLm1hZT4nLCAnLW9tYWUnLCAnPG91dGZpbGUubWFlPic=

> <r_lp_tautomer_probability>
1

> <r_epik_Ionization_Penalty>
2.2633e-06

> <r_epik_Ionization_Penalty_Charging>
0

> <r_epik_Ionization_Penalty_Neutral>
2.2633e-06

> <r_epik_State_Penalty>
-0

> <r_epik_Charging_Adjusted_Penalty>
0

> <i_epik_Tot_Q>
0

> <i_epik_Tot_abs_Q>
0

> <r_epik_Metal_State_Penalty>
-0

> <b_epik_Metal_Only>
0

> <s_lp_Force_Field>
OPLS_2005

> <r_lp_Energy>
16.8838

> <b_lp_Chiralities_Consistent>
1

> <s_lp_Variant>
AV-unprocessed.smi:2323-1

> <Gold.Version>
5.8.1

> <Gold.Id.Protein>
6NUR|6NUR_protein|mol2

> <Gold.PLP.Fitness>
40.2958

> <Gold.PLP.PLP>
-35.7676

> <Gold.PLP.part.hbond>
-2.0000

> <Gold.PLP.part.metal>
0.0000

> <Gold.PLP.part.buried>
-1.4184

> <Gold.PLP.part.nonpolar>
-31.0691

> <Gold.PLP.part.repulsive>
0.4812

> <Gold.PLP.ligand.clash>
0.0000

> <Gold.PLP.ligand.torsion>
0.3871

> <Gold.PLP.Chemscore.Hbond>
1.7613

> <Gold.PLP.Chemscore.CHOScore>
0.0000

> <Gold.PLP.Chemscore.Metal>
0.0000

> <Gold.Chemscore.Hbonds>
donor molecule, donor type, donor heavy atom, donor atom, acceptor molecule, acceptor atom, score
      L1  H     2    20       P1  8028  0.70
      P1  H  7997  8008       L1     8  1.00

> <Gold.PLP.Chemscore.Internal.Correction>
0.0185

> <Gold.Rescore>
     Score         DG    S(hbond)    S(metal)    S(lipo)     H(rot)  DE(clash)    DE(int)     intcor
     17.24     -17.67       1.65        0.00      84.29       1.24       0.05       0.37       ----

> <Gold.Chemscore.Fitness>
17.2433

> <Gold.Chemscore.DG>
-17.6700

> <Gold.Chemscore.ZeroCoef>
-5.4800

> <Gold.Chemscore.Hbond>
1.6510

> <Gold.Chemscore.Metal>
0.0000

> <Gold.Chemscore.Lipo>
84.2926

> <Gold.Chemscore.Internal_Hbond>
0.0000

> <Gold.Chemscore.DEClash>
0.0525

> <Gold.Chemscore.DEInternal>
0.3742

> <Gold.Chemscore.Rot>
1.2448

> <Gold.Chemscore.Internal.Correction>
   9.000000E+99

> <Gold.Chemscore.Hbonds>
donor molecule, donor type, donor heavy atom, donor atom, acceptor molecule, acceptor atom, score
      L1  H     2    20       P1  8028  0.70
      P1  H  7997  8008       L1     8  0.81

> <Gold.Chemscore.Hbond.Weighted>
-5.5143

> <Gold.Chemscore.Metal.Weighted>
-0.0000

> <Gold.Chemscore.Lipo.Weighted>
-9.8622

> <Gold.Chemscore.Internal_Hbond.Weighted>
0.0000

> <Gold.Chemscore.DEClash.Weighted>
0.0525

> <Gold.Chemscore.DEInternal.Weighted>
0.3742

> <Gold.Chemscore.Rot.Weighted>
3.1866

> <Gold.Chemscore.Internal.Correction.Weighted>
   9.000000E+99

> <Gold.Protein.RotatedTorsions>
[ 6907 6896 6895 6894 ] final   51.63 input  -60.11 | X-H torsion
[ 7974 7965 7964 7962 ] final -130.68 input  175.53 | X-H torsion
[ 8008 7997 7996 7995 ] final  -52.13 input   59.86 | X-H torsion
[ 10167 10162 10161 10158 ] final -136.06 input  -65.29 | X-H torsion
[ 10718 10713 10712 10709 ] final  -28.40 input   66.30 | X-H torsion
[ 10763 10752 10751 10750 ] final -166.38 input  -60.55 | X-H torsion
[ 11005 11000 10999 10996 ] final  -38.75 input  -57.11 | X-H torsion

> <Gold.Protein.ActiveResidues>
 VAL166  LYS551  ARG553  GLY616  TRP617  ASP618  TYR619  PRO620  LYS621  CYS622 
 ASP623  PHE694  ASN695  SER759  ASP760  ASP761  ALA762  ILE779  LEU786  VAL792 
 PHE793  MET794  SER795  GLU796  ALA797  LYS798  CYS799  TRP800  GLU811  SER814 

> <Gold.Protein.RotatedAtoms>
  152.3147  134.7454  160.0327 H   0  0  0  0  0  0  0  0  0  0  0  0  # atno 6907 bound_to 6896
  151.7923  133.3355  159.3510 H   0  0  0  0  0  0  0  0  0  0  0  0  # atno 6908 bound_to 6896
  150.7338  134.5762  159.5960 H   0  0  0  0  0  0  0  0  0  0  0  0  # atno 6909 bound_to 6896
  144.9451  140.7283  143.4822 H   0  0  0  0  0  0  0  0  0  0  0  0  # atno 7974 bound_to 7965
  154.4099  140.1231  156.4941 H   0  0  0  0  0  0  0  0  0  0  0  0  # atno 8008 bound_to 7997
  155.6960  140.3495  155.4894 H   0  0  0  0  0  0  0  0  0  0  0  0  # atno 8009 bound_to 7997
  155.9427  140.1090  157.1032 H   0  0  0  0  0  0  0  0  0  0  0  0  # atno 8010 bound_to 7997
  139.8716  143.6951  152.2639 H   0  0  0  0  0  0  0  0  0  0  0  0  # atno 10167 bound_to 10162
  156.4258  130.4435  149.7152 H   0  0  0  0  0  0  0  0  0  0  0  0  # atno 10718 bound_to 10713
  154.6839  135.2959  154.9575 H   0  0  0  0  0  0  0  0  0  0  0  0  # atno 10763 bound_to 10752
  154.0561  135.6638  153.4810 H   0  0  0  0  0  0  0  0  0  0  0  0  # atno 10764 bound_to 10752
  153.0566  135.5141  154.7896 H   0  0  0  0  0  0  0  0  0  0  0  0  # atno 10765 bound_to 10752
  141.0051  133.6936  156.2095 H   0  0  0  0  0  0  0  0  0  0  0  0  # atno 11005 bound_to 11000
  145.2930  139.1877  143.4730 LP  0  0  0  0  0  0  0  0  0  0  0  0  # atno 17320 bound_to 7965
  146.3300  140.2909  142.8615 LP  0  0  0  0  0  0  0  0  0  0  0  0  # atno 17321 bound_to 7965
  139.7279  144.7589  151.0849 LP  0  0  0  0  0  0  0  0  0  0  0  0  # atno 17342 bound_to 10162
  140.7760  143.5125  150.9635 LP  0  0  0  0  0  0  0  0  0  0  0  0  # atno 17343 bound_to 10162
  156.4074  130.7705  151.2716 LP  0  0  0  0  0  0  0  0  0  0  0  0  # atno 17370 bound_to 10713
  157.7508  131.0221  150.3780 LP  0  0  0  0  0  0  0  0  0  0  0  0  # atno 17371 bound_to 10713
  140.6826  134.4751  157.5589 LP  0  0  0  0  0  0  0  0  0  0  0  0  # atno 17394 bound_to 11000
  139.9059  134.8451  156.1709 LP  0  0  0  0  0  0  0  0  0  0  0  0  # atno 17395 bound_to 11000

$$$$
