AV-unprocessed.smi:160|AV-procd|sdf|1359|dock6
  -GOLD-   2262019 63D 1   1.00000     0.00000
 Structure written by MMmdl.
 28 29  0  0  0  0  0  0  0  0  2 V2000
  150.0760  136.5785  158.9484 N   0  5  0  0  0  0  0  0  0  0  0  0
  149.8666  135.9616  157.7647 C   0  0  0  0  0  0  0  0  0  0  0  0
  149.3220  134.8708  157.5987 O   0  0  0  0  0  0  0  0  0  0  0  0
  150.3664  136.7274  156.5629 C   0  0  0  0  0  0  0  0  0  0  0  0
  151.0486  136.0908  155.5625 N   0  0  0  0  0  0  0  0  0  0  0  0
  151.2728  137.1271  154.7652 C   0  0  0  0  0  0  0  0  0  0  0  0
  150.7727  138.2817  155.2144 N   0  0  0  0  0  0  0  0  0  0  0  0
  150.8447  139.6543  154.6269 C   0  0  2  0  0  0  0  0  0  0  0  0
  151.5521  140.4536  155.5283 O   0  0  0  0  0  0  0  0  0  0  0  0
  150.7635  141.5580  155.9691 C   0  0  2  0  0  0  0  0  0  0  0  0
  151.0695  141.8489  157.4467 C   0  0  0  0  0  0  0  0  0  0  0  0
  150.3560  142.9879  157.8782 O   0  0  0  0  0  0  0  0  0  0  0  0
  149.3212  141.1084  155.7255 C   0  0  1  0  0  0  0  0  0  0  0  0
  148.4159  142.1867  155.5746 O   0  0  0  0  0  0  0  0  0  0  0  0
  149.4407  140.2544  154.4698 C   0  0  1  0  0  0  0  0  0  0  0  0
  149.3495  141.0135  153.2779 O   0  0  0  0  0  0  0  0  0  0  0  0
  150.1792  138.0417  156.4094 N   0  0  0  0  0  0  0  0  0  0  0  0
  151.3830  139.5220  153.6873 H   0  0  0  0  0  0  0  0  0  0  0  0
  150.9852  142.4206  155.3375 H   0  0  0  0  0  0  0  0  0  0  0  0
  148.9841  140.4858  156.5552 H   0  0  0  0  0  0  0  0  0  0  0  0
  148.6804  139.4726  154.4314 H   0  0  0  0  0  0  0  0  0  0  0  0
  149.5949  137.4679  159.1275 H   0  0  0  0  0  0  0  0  0  0  0  0
  151.8138  137.0426  153.8342 H   0  0  0  0  0  0  0  0  0  0  0  0
  150.7519  141.0119  158.0686 H   0  0  0  0  0  0  0  0  0  0  0  0
  152.1395  141.9843  157.6091 H   0  0  0  0  0  0  0  0  0  0  0  0
  150.3746  143.0126  158.8228 H   0  0  0  0  0  0  0  0  0  0  0  0
  148.9002  142.9951  155.6439 H   0  0  0  0  0  0  0  0  0  0  0  0
  149.3634  140.4148  152.5467 H   0  0  0  0  0  0  0  0  0  0  0  0
  1  2  1  0  0  0  0
  1 22  1  0  0  0  0
  2  3  2  0  0  0  0
  2  4  1  0  0  0  0
  4 17  2  0  0  0  0
  4  5  1  0  0  0  0
  5  6  2  0  0  0  0
  6  7  1  0  0  0  0
  6 23  1  0  0  0  0
  7  8  1  0  0  0  0
  7 17  1  0  0  0  0
  8 18  1  0  0  0  0
  8 15  1  0  0  0  0
  8  9  1  0  0  0  0
  9 10  1  0  0  0  0
 10 19  1  0  0  0  0
 10 11  1  0  0  0  0
 10 13  1  0  0  0  0
 11 12  1  0  0  0  0
 11 24  1  0  0  0  0
 11 25  1  0  0  0  0
 12 26  1  0  0  0  0
 13 20  1  0  0  0  0
 13 14  1  0  0  0  0
 13 15  1  0  0  0  0
 14 27  1  0  0  0  0
 15 21  1  0  0  0  0
 15 16  1  0  0  0  0
 16 28  1  0  0  0  0
M  CHG  1   1  -1
M  END
> <s_m_source_file>
AV-unprocessed.smi

> <i_m_source_file_index>
160

> <i_lp_mmshare_version>
43012

> <i_f3d_flags>
0

> <s_epik_input>
W05IMl1DKD1PKWMxbltjSF1uKG4xKVtDQEBIXTJPW0NASF0oW0NIMl1bT0hdKVtDQEBIXShbT0hdKVtDQEhdMltPSF0=

> <s_epik_cmdline>
J2VwaWtfcHl0aG9uJywgJy1waCcsICc3LjAnLCAnLXRuJywgJzgnLCAnLW1hJywgJzIwMCcsICctbWV0YWxfYmluZGluZycsICctaW1hZScsICc8aW5maWxlLm1hZT4nLCAnLW9tYWUnLCAnPG91dGZpbGUubWFlPic=

> <r_lp_tautomer_probability>
1

> <r_epik_Ionization_Penalty>
6.6993

> <r_epik_Ionization_Penalty_Charging>
6.6993

> <r_epik_Ionization_Penalty_Neutral>
6.01698e-06

> <r_epik_State_Penalty>
6.69929

> <r_epik_Charging_Adjusted_Penalty>
13.3986

> <i_epik_Tot_Q>
-1

> <i_epik_Tot_abs_Q>
1

> <r_epik_Metal_State_Penalty>
2.62798

> <b_epik_Metal_Only>
1

> <s_epik_Chemistry_Notes>
This compound contains an acetal/aminal-like group ( X-CH(R)-Y where X, Y are N, S, or O) that may be acid/base labile, releasing an aldehyde.

> <s_lp_Force_Field>
OPLS_2005

> <r_lp_Energy>
41.4703

> <b_lp_Chiralities_Consistent>
1

> <s_lp_Variant>
AV-unprocessed.smi:160-17

> <Gold.Version>
5.8.1

> <Gold.Id.Protein>
6NUR|6NUR_protein|mol2

> <Gold.PLP.Fitness>
39.9407

> <Gold.PLP.PLP>
-24.7465

> <Gold.PLP.part.hbond>
-5.7135

> <Gold.PLP.part.metal>
0.0000

> <Gold.PLP.part.buried>
-4.0244

> <Gold.PLP.part.nonpolar>
-16.2466

> <Gold.PLP.part.repulsive>
0.1205

> <Gold.PLP.ligand.clash>
0.0000

> <Gold.PLP.ligand.torsion>
0.7608

> <Gold.PLP.Chemscore.Hbond>
4.5644

> <Gold.PLP.Chemscore.CHOScore>
1.0000

> <Gold.PLP.Chemscore.Metal>
0.0000

> <Gold.Chemscore.Hbonds>
donor molecule, donor type, donor heavy atom, donor atom, acceptor molecule, acceptor atom, score
      L1  H    14    27       P1  8028  0.96
      L1  H    16    28       P1  7957  0.81
      P1  H  6896  6909       L1     1  1.50
      P1  H  8011  8017       L1    16  0.70
      L1  C     6    23       P1  7949  0.71

> <Gold.PLP.Chemscore.Internal.Correction>
0.0227

> <Gold.Rescore>
     Score         DG    S(hbond)    S(metal)    S(lipo)     H(rot)  DE(clash)    DE(int)     intcor
      6.35      -7.41       2.83        0.00      24.07       4.04       0.13       0.92       ----

> <Gold.Chemscore.Fitness>
6.3523

> <Gold.Chemscore.DG>
-7.4085

> <Gold.Chemscore.ZeroCoef>
-5.4800

> <Gold.Chemscore.Hbond>
2.8310

> <Gold.Chemscore.Metal>
0.0000

> <Gold.Chemscore.Lipo>
24.0704

> <Gold.Chemscore.Internal_Hbond>
0.0000

> <Gold.Chemscore.DEClash>
0.1334

> <Gold.Chemscore.DEInternal>
0.9229

> <Gold.Chemscore.Rot>
4.0403

> <Gold.Chemscore.Internal.Correction>
   9.000000E+99

> <Gold.Chemscore.Hbonds>
donor molecule, donor type, donor heavy atom, donor atom, acceptor molecule, acceptor atom, score
      L1  H    14    27       P1  8028  0.92
      L1  H    16    28       P1  7957  0.78
      P1  H  6896  6909       L1     1  0.09
      P1  H  8011  8017       L1    16  0.07

> <Gold.Chemscore.Hbond.Weighted>
-9.4554

> <Gold.Chemscore.Metal.Weighted>
-0.0000

> <Gold.Chemscore.Lipo.Weighted>
-2.8162

> <Gold.Chemscore.Internal_Hbond.Weighted>
0.0000

> <Gold.Chemscore.DEClash.Weighted>
0.1334

> <Gold.Chemscore.DEInternal.Weighted>
0.9229

> <Gold.Chemscore.Rot.Weighted>
10.3431

> <Gold.Chemscore.Internal.Correction.Weighted>
   9.000000E+99

> <Gold.Protein.RotatedTorsions>
[ 6907 6896 6895 6894 ] final   83.62 input  -60.11 | X-H torsion
[ 7974 7965 7964 7962 ] final -118.39 input  175.53 | X-H torsion
[ 8008 7997 7996 7995 ] final  -34.04 input   59.86 | X-H torsion
[ 10167 10162 10161 10158 ] final  -45.39 input  -65.29 | X-H torsion
[ 10718 10713 10712 10709 ] final  -33.12 input   66.30 | X-H torsion
[ 10763 10752 10751 10750 ] final -117.14 input  -60.55 | X-H torsion
[ 11005 11000 10999 10996 ] final  -41.91 input  -57.11 | X-H torsion

> <Gold.Protein.ActiveResidues>
 VAL166  LYS551  ARG553  GLY616  TRP617  ASP618  TYR619  PRO620  LYS621  CYS622 
 ASP623  PHE694  ASN695  SER759  ASP760  ASP761  ALA762  ILE779  LEU786  VAL792 
 PHE793  MET794  SER795  GLU796  ALA797  LYS798  CYS799  TRP800  GLU811  SER814 

> <Gold.Protein.RotatedAtoms>
  152.5332  134.2867  159.9027 H   0  0  0  0  0  0  0  0  0  0  0  0  # atno 6907 bound_to 6896
  151.2820  133.4198  159.2635 H   0  0  0  0  0  0  0  0  0  0  0  0  # atno 6908 bound_to 6896
  151.0275  134.9530  159.8150 H   0  0  0  0  0  0  0  0  0  0  0  0  # atno 6909 bound_to 6896
  145.0743  140.8381  143.4077 H   0  0  0  0  0  0  0  0  0  0  0  0  # atno 7974 bound_to 7965
  154.4132  140.1694  156.1985 H   0  0  0  0  0  0  0  0  0  0  0  0  # atno 8008 bound_to 7997
  155.9544  140.3398  155.6412 H   0  0  0  0  0  0  0  0  0  0  0  0  # atno 8009 bound_to 7997
  155.6829  140.0724  157.2468 H   0  0  0  0  0  0  0  0  0  0  0  0  # atno 8010 bound_to 7997
  140.6860  143.2882  151.3631 H   0  0  0  0  0  0  0  0  0  0  0  0  # atno 10167 bound_to 10162
  156.3666  130.4332  149.7580 H   0  0  0  0  0  0  0  0  0  0  0  0  # atno 10718 bound_to 10713
  154.8544  135.4320  154.1933 H   0  0  0  0  0  0  0  0  0  0  0  0  # atno 10763 bound_to 10752
  153.2996  135.6968  153.7221 H   0  0  0  0  0  0  0  0  0  0  0  0  # atno 10764 bound_to 10752
  153.6356  135.3477  155.3030 H   0  0  0  0  0  0  0  0  0  0  0  0  # atno 10765 bound_to 10752
  141.0279  133.6833  156.2522 H   0  0  0  0  0  0  0  0  0  0  0  0  # atno 11005 bound_to 11000
  145.1254  139.2666  143.5567 LP  0  0  0  0  0  0  0  0  0  0  0  0  # atno 17320 bound_to 7965
  146.3529  140.0890  142.8613 LP  0  0  0  0  0  0  0  0  0  0  0  0  # atno 17321 bound_to 7965
  139.6219  144.0890  152.2399 LP  0  0  0  0  0  0  0  0  0  0  0  0  # atno 17342 bound_to 10162
  140.0337  144.6061  150.7467 LP  0  0  0  0  0  0  0  0  0  0  0  0  # atno 17343 bound_to 10162
  156.4723  130.8002  151.3020 LP  0  0  0  0  0  0  0  0  0  0  0  0  # atno 17370 bound_to 10713
  157.7479  131.0032  150.3028 LP  0  0  0  0  0  0  0  0  0  0  0  0  # atno 17371 bound_to 10713
  140.6459  134.5118  157.5573 LP  0  0  0  0  0  0  0  0  0  0  0  0  # atno 17394 bound_to 11000
  139.9188  134.8191  156.1278 LP  0  0  0  0  0  0  0  0  0  0  0  0  # atno 17395 bound_to 11000

$$$$
