AV-unprocessed.smi:1762|AV-procd|sdf|7122|dock3
  -GOLD-   22720 8353D 1   1.00000     0.00000
 Structure written by MMmdl.
 52 53  0  0  0  0  0  0  0  0  3 V2000
  149.6591  141.1449  155.1662 C   0  0  0  0  0  0  0  0  0  0  0  0
  150.1313  139.6880  155.2199 C   0  0  1  0  0  0  0  0  0  0  0  0
  149.4072  138.8078  154.1783 C   0  0  0  0  0  0  0  0  0  0  0  0
  149.9347  137.4123  154.1826 N   0  3  2  0  0  0  0  0  0  0  0  0
  149.4780  136.5651  155.3399 C   0  0  1  0  0  0  0  0  0  0  0  0
  147.9414  136.6486  155.5106 C   0  0  0  0  0  0  0  0  0  0  0  0
  147.2233  136.2497  154.5872 O   0  0  0  0  0  0  0  0  0  0  0  0
  147.6056  137.2063  156.7065 N   0  5  0  0  0  0  0  0  0  0  0  0
  147.2945  136.4250  157.9001 C   0  0  0  0  0  0  0  0  0  0  0  0
  147.6826  137.2198  159.1657 C   0  0  0  0  0  0  0  0  0  0  0  0
  147.4741  136.4563  160.4700 C   0  0  0  0  0  0  0  0  0  0  0  0
  147.0696  135.1018  160.4538 C   0  0  0  0  0  0  0  0  0  0  0  0
  146.8840  134.4376  161.6814 C   0  0  0  0  0  0  0  0  0  0  0  0
  147.1042  135.1472  162.8773 C   0  0  0  0  0  0  0  0  0  0  0  0
  147.4986  136.4970  162.7917 C   0  0  0  0  0  0  0  0  0  0  0  0
  147.6774  137.1443  161.6204 N   0  0  0  0  0  0  0  0  0  0  0  0
  149.9622  135.0765  155.2805 C   0  0  0  0  0  0  0  0  0  0  0  0
  149.1537  134.1762  154.3233 C   0  0  0  0  0  0  0  0  0  0  0  0
  150.0625  134.4184  156.6710 C   0  0  0  0  0  0  0  0  0  0  0  0
  151.4038  137.4764  153.9523 C   0  0  0  0  0  0  0  0  0  0  0  0
  152.0962  138.3624  155.0084 C   0  0  1  0  0  0  0  0  0  0  0  0
  153.6018  138.4889  154.7537 C   0  0  0  0  0  0  0  0  0  0  0  0
  151.5309  139.6688  154.9551 O   0  0  0  0  0  0  0  0  0  0  0  0
  148.5904  141.2170  155.3699 H   0  0  0  0  0  0  0  0  0  0  0  0
  149.8445  141.5852  154.1860 H   0  0  0  0  0  0  0  0  0  0  0  0
  150.1797  141.7509  155.9081 H   0  0  0  0  0  0  0  0  0  0  0  0
  149.9505  139.3129  156.2278 H   0  0  0  0  0  0  0  0  0  0  0  0
  148.3290  138.8444  154.3306 H   0  0  0  0  0  0  0  0  0  0  0  0
  149.5678  139.2252  153.1832 H   0  0  0  0  0  0  0  0  0  0  0  0
  149.9487  136.9824  156.2313 H   0  0  0  0  0  0  0  0  0  0  0  0
  146.2330  136.1788  157.9476 H   0  0  0  0  0  0  0  0  0  0  0  0
  147.8242  135.4714  157.9043 H   0  0  0  0  0  0  0  0  0  0  0  0
  148.7298  137.5208  159.1048 H   0  0  0  0  0  0  0  0  0  0  0  0
  147.1066  138.1450  159.2109 H   0  0  0  0  0  0  0  0  0  0  0  0
  146.9105  134.5821  159.5202 H   0  0  0  0  0  0  0  0  0  0  0  0
  146.5790  133.4019  161.7051 H   0  0  0  0  0  0  0  0  0  0  0  0
  146.9740  134.6689  163.8366 H   0  0  0  0  0  0  0  0  0  0  0  0
  147.6750  137.0726  163.6884 H   0  0  0  0  0  0  0  0  0  0  0  0
  150.9905  135.0830  154.9216 H   0  0  0  0  0  0  0  0  0  0  0  0
  148.1410  134.0033  154.6870 H   0  0  0  0  0  0  0  0  0  0  0  0
  149.6275  133.1996  154.2214 H   0  0  0  0  0  0  0  0  0  0  0  0
  149.0784  134.6037  153.3241 H   0  0  0  0  0  0  0  0  0  0  0  0
  149.0821  134.2634  157.1224 H   0  0  0  0  0  0  0  0  0  0  0  0
  150.6512  135.0310  157.3545 H   0  0  0  0  0  0  0  0  0  0  0  0
  150.5469  133.4436  156.6067 H   0  0  0  0  0  0  0  0  0  0  0  0
  151.8622  136.4916  153.8977 H   0  0  0  0  0  0  0  0  0  0  0  0
  151.5671  137.9102  152.9646 H   0  0  0  0  0  0  0  0  0  0  0  0
  151.9525  137.9453  156.0061 H   0  0  0  0  0  0  0  0  0  0  0  0
  154.0884  137.5137  154.7855 H   0  0  0  0  0  0  0  0  0  0  0  0
  154.0726  139.1199  155.5078 H   0  0  0  0  0  0  0  0  0  0  0  0
  153.8021  138.9315  153.7774 H   0  0  0  0  0  0  0  0  0  0  0  0
  149.5395  136.9606  153.3700 H   0  0  0  0  0  0  0  0  0  0  0  0
  1  2  1  0  0  0  0
  1 24  1  0  0  0  0
  1 25  1  0  0  0  0
  1 26  1  0  0  0  0
  2 23  1  0  0  0  0
  2  3  1  0  0  0  0
  2 27  1  0  0  0  0
  3  4  1  0  0  0  0
  3 28  1  0  0  0  0
  3 29  1  0  0  0  0
  4  5  1  0  0  0  0
  4 20  1  0  0  0  0
  4 52  1  0  0  0  0
  5  6  1  0  0  0  0
  5 17  1  0  0  0  0
  5 30  1  0  0  0  0
  6  7  2  0  0  0  0
  6  8  1  0  0  0  0
  8  9  1  0  0  0  0
  9 10  1  0  0  0  0
  9 31  1  0  0  0  0
  9 32  1  0  0  0  0
 10 11  1  0  0  0  0
 10 33  1  0  0  0  0
 10 34  1  0  0  0  0
 11 16  1  0  0  0  0
 11 12  2  0  0  0  0
 12 13  1  0  0  0  0
 12 35  1  0  0  0  0
 13 14  2  0  0  0  0
 13 36  1  0  0  0  0
 14 15  1  0  0  0  0
 14 37  1  0  0  0  0
 15 16  2  0  0  0  0
 15 38  1  0  0  0  0
 17 18  1  0  0  0  0
 17 19  1  0  0  0  0
 17 39  1  0  0  0  0
 18 40  1  0  0  0  0
 18 41  1  0  0  0  0
 18 42  1  0  0  0  0
 19 43  1  0  0  0  0
 19 44  1  0  0  0  0
 19 45  1  0  0  0  0
 20 21  1  0  0  0  0
 20 46  1  0  0  0  0
 20 47  1  0  0  0  0
 21 22  1  0  0  0  0
 21 23  1  0  0  0  0
 21 48  1  0  0  0  0
 22 49  1  0  0  0  0
 22 50  1  0  0  0  0
 22 51  1  0  0  0  0
M  CHG  1   4   1
M  CHG  1   8  -1
M  END
> <s_m_source_file>
AV-unprocessed.smi

> <i_m_source_file_index>
1762

> <i_lp_mmshare_version>
43012

> <i_f3d_flags>
0

> <s_epik_input>
W0NIM11bQ0BASF0xW0NIMl1OKFtDSDJdW0NASF0oTzEpW0NIM10pW0NAQEhdKFtDSF0oW0NIM10pW0NIM10pQyg9TylbTkhdW0NIMl1bQ0gyXWMyW2NIXVtjSF1bY0hdW2NIXW4y

> <s_epik_cmdline>
J2VwaWtfcHl0aG9uJywgJy1waCcsICc3LjAnLCAnLXRuJywgJzgnLCAnLW1hJywgJzIwMCcsICctbWV0YWxfYmluZGluZycsICctaW1hZScsICc8aW5maWxlLm1hZT4nLCAnLW9tYWUnLCAnPG91dGZpbGUubWFlPic=

> <r_epik_Ionization_Penalty>
7.82966

> <r_epik_Ionization_Penalty_Charging>
7.7461

> <r_epik_Ionization_Penalty_Neutral>
0.0835571

> <r_epik_State_Penalty>
8.52273

> <r_epik_Charging_Adjusted_Penalty>
16.2688

> <i_epik_Tot_Q>
0

> <i_epik_Tot_abs_Q>
2

> <r_epik_Metal_State_Penalty>
4.47451

> <b_epik_Metal_Only>
1

> <s_lp_Force_Field>
OPLS_2005

> <r_lp_Energy>
22.3574

> <b_lp_Chiralities_Consistent>
1

> <s_lp_Variant>
AV-unprocessed.smi:1762-24

> <Gold.Version>
5.8.1

> <Gold.Id.Protein>
6NUR|6NUR_protein|mol2

> <Gold.PLP.Fitness>
54.1711

> <Gold.PLP.PLP>
-42.2490

> <Gold.PLP.part.hbond>
-4.2514

> <Gold.PLP.part.metal>
0.0000

> <Gold.PLP.part.buried>
-0.3236

> <Gold.PLP.part.nonpolar>
-37.2850

> <Gold.PLP.part.repulsive>
0.1973

> <Gold.PLP.ligand.clash>
0.0000

> <Gold.PLP.ligand.torsion>
1.4063

> <Gold.PLP.Chemscore.Hbond>
4.7040

> <Gold.PLP.Chemscore.CHOScore>
0.0000

> <Gold.PLP.Chemscore.Metal>
0.0000

> <Gold.Chemscore.Hbonds>
donor molecule, donor type, donor heavy atom, donor atom, acceptor molecule, acceptor atom, score
      L1  H     4    52       P1  7948  2.00
      P1  H  6931  6943       L1    16  1.00
      P1  H  6934  6947       L1    16  0.67
      P1  H  7989  7998       L1    23  1.00

> <Gold.PLP.Chemscore.Internal.Correction>
0.6227

> <Gold.Rescore>
     Score         DG    S(hbond)    S(metal)    S(lipo)     H(rot)  DE(clash)    DE(int)     intcor
     20.76     -23.40       2.70        0.00     111.08       1.60       0.40       2.24       ----

> <Gold.Chemscore.Fitness>
20.7551

> <Gold.Chemscore.DG>
-23.3975

> <Gold.Chemscore.ZeroCoef>
-5.4800

> <Gold.Chemscore.Hbond>
2.7007

> <Gold.Chemscore.Metal>
0.0000

> <Gold.Chemscore.Lipo>
111.0775

> <Gold.Chemscore.Internal_Hbond>
0.0000

> <Gold.Chemscore.DEClash>
0.4000

> <Gold.Chemscore.DEInternal>
2.2424

> <Gold.Chemscore.Rot>
1.6012

> <Gold.Chemscore.Internal.Correction>
   9.000000E+99

> <Gold.Chemscore.Hbonds>
donor molecule, donor type, donor heavy atom, donor atom, acceptor molecule, acceptor atom, score
      L1  H     4    52       P1  7948  0.78
      P1  H  6931  6943       L1    16  0.48
      P1  H  6934  6947       L1    16  0.15
      P1  H  7989  7998       L1    23  0.34

> <Gold.Chemscore.Hbond.Weighted>
-9.0204

> <Gold.Chemscore.Metal.Weighted>
-0.0000

> <Gold.Chemscore.Lipo.Weighted>
-12.9961

> <Gold.Chemscore.Internal_Hbond.Weighted>
0.0000

> <Gold.Chemscore.DEClash.Weighted>
0.4000

> <Gold.Chemscore.DEInternal.Weighted>
2.2424

> <Gold.Chemscore.Rot.Weighted>
4.0990

> <Gold.Chemscore.Internal.Correction.Weighted>
   9.000000E+99

> <Gold.Protein.RotatedTorsions>
[ 6907 6896 6895 6894 ] final -108.24 input  -60.11 | X-H torsion
[ 7974 7965 7964 7962 ] final    8.92 input  175.53 | X-H torsion
[ 8008 7997 7996 7995 ] final   58.37 input   59.86 | X-H torsion
[ 10167 10162 10161 10158 ] final -143.53 input  -65.29 | X-H torsion
[ 10718 10713 10712 10709 ] final -127.95 input   66.30 | X-H torsion
[ 10763 10752 10751 10750 ] final   44.91 input  -60.55 | X-H torsion
[ 11005 11000 10999 10996 ] final -110.21 input  -57.11 | X-H torsion

> <Gold.Protein.ActiveResidues>
 VAL166  LYS551  ARG553  GLY616  TRP617  ASP618  TYR619  PRO620  LYS621  CYS622 
 ASP623  PHE694  ASN695  SER759  ASP760  ASP761  ALA762  ILE779  LEU786  VAL792 
 PHE793  MET794  SER795  GLU796  ALA797  LYS798  CYS799  TRP800  GLU811  SER814 

> <Gold.Protein.RotatedAtoms>
  150.7490  133.9707  159.3544 H   0  0  0  0  0  0  0  0  0  0  0  0  # atno 6907 bound_to 6896
  151.7641  135.0801  160.0359 H   0  0  0  0  0  0  0  0  0  0  0  0  # atno 6908 bound_to 6896
  152.3383  133.6000  159.5894 H   0  0  0  0  0  0  0  0  0  0  0  0  # atno 6909 bound_to 6896
  146.2410  139.9861  142.8431 H   0  0  0  0  0  0  0  0  0  0  0  0  # atno 7974 bound_to 7965
  155.5489  140.3486  155.4464 H   0  0  0  0  0  0  0  0  0  0  0  0  # atno 8008 bound_to 7997
  156.0597  140.1337  156.9981 H   0  0  0  0  0  0  0  0  0  0  0  0  # atno 8009 bound_to 7997
  154.4474  140.0988  156.6484 H   0  0  0  0  0  0  0  0  0  0  0  0  # atno 8010 bound_to 7997
  139.7984  143.7867  152.2656 H   0  0  0  0  0  0  0  0  0  0  0  0  # atno 10167 bound_to 10162
  156.1904  130.6792  151.0417 H   0  0  0  0  0  0  0  0  0  0  0  0  # atno 10718 bound_to 10713
  152.9833  135.6056  154.3351 H   0  0  0  0  0  0  0  0  0  0  0  0  # atno 10763 bound_to 10752
  154.3052  135.2772  155.2594 H   0  0  0  0  0  0  0  0  0  0  0  0  # atno 10764 bound_to 10752
  154.4828  135.5912  153.6458 H   0  0  0  0  0  0  0  0  0  0  0  0  # atno 10765 bound_to 10752
  141.0805  133.9228  157.2299 H   0  0  0  0  0  0  0  0  0  0  0  0  # atno 11005 bound_to 11000
  145.1546  140.9641  143.4413 LP  0  0  0  0  0  0  0  0  0  0  0  0  # atno 17320 bound_to 7965
  145.0173  139.3456  143.6090 LP  0  0  0  0  0  0  0  0  0  0  0  0  # atno 17321 bound_to 7965
  139.7980  144.7385  150.9863 LP  0  0  0  0  0  0  0  0  0  0  0  0  # atno 17342 bound_to 10162
  140.7820  143.4374  151.0603 LP  0  0  0  0  0  0  0  0  0  0  0  0  # atno 17343 bound_to 10162
  157.6926  131.0805  150.7064 LP  0  0  0  0  0  0  0  0  0  0  0  0  # atno 17370 bound_to 10713
  156.7121  130.4655  149.5544 LP  0  0  0  0  0  0  0  0  0  0  0  0  # atno 17371 bound_to 10713
  139.9618  135.0152  156.9282 LP  0  0  0  0  0  0  0  0  0  0  0  0  # atno 17394 bound_to 11000
  140.5480  134.0655  155.7360 LP  0  0  0  0  0  0  0  0  0  0  0  0  # atno 17395 bound_to 11000

$$$$
