AV-unprocessed.smi:1897|AV-procd|sdf|7698|dock4
  -GOLD-   22720 9433D 1   1.00000     0.00000
 Structure written by MMmdl.
 38 40  0  0  0  0  0  0  0  0  3 V2000
  155.9974  140.1780  163.5771 C   0  0  0  0  0  0  0  0  0  0  0  0
  155.5540  140.0268  162.1624 C   0  0  0  0  0  0  0  0  0  0  0  0
  156.2846  139.3957  161.2401 N   0  0  0  0  0  0  0  0  0  0  0  0
  155.6645  139.3850  159.9998 N   0  0  0  0  0  0  0  0  0  0  0  0
  154.4695  139.9935  160.0041 C   0  0  0  0  0  0  0  0  0  0  0  0
  153.6988  140.0801  158.9038 N   0  5  0  0  0  0  0  0  0  0  0  0
  152.6767  140.9680  158.7965 C   0  0  0  0  0  0  0  0  0  0  0  0
  152.4397  141.8329  159.6387 O   0  0  0  0  0  0  0  0  0  0  0  0
  151.8959  140.8961  157.7012 N   0  0  0  0  0  0  0  0  0  0  0  0
  150.8066  141.8074  157.3677 C   0  0  2  0  0  0  0  0  0  0  0  0
  149.6072  141.6774  158.2972 C   0  0  0  0  0  0  0  0  0  0  0  0
  148.4768  142.3210  157.4887 C   0  0  0  0  0  0  0  0  0  0  0  0
  148.8255  142.1554  156.0561 N   0  3  2  0  0  0  0  0  0  0  0  0
  147.7844  141.4536  155.2589 C   0  0  0  0  0  0  0  0  0  0  0  0
  148.3511  140.9765  153.9138 C   0  0  0  0  0  0  0  0  0  0  0  0
  149.4934  139.9624  154.1110 C   0  0  0  0  0  0  0  0  0  0  0  0
  150.1755  140.1031  155.4853 C   0  0  0  0  0  0  0  0  0  0  0  0
  150.1954  141.5737  155.9731 C   0  0  2  0  0  0  0  0  0  0  0  0
  154.0243  140.6575  161.5751 S   0  0  0  0  0  0  0  0  0  0  0  0
  155.7843  139.2653  164.1334 H   0  0  0  0  0  0  0  0  0  0  0  0
  155.4739  141.0086  164.0509 H   0  0  0  0  0  0  0  0  0  0  0  0
  157.0693  140.3732  163.6191 H   0  0  0  0  0  0  0  0  0  0  0  0
  152.1094  140.1748  157.0279 H   0  0  0  0  0  0  0  0  0  0  0  0
  151.1649  142.8370  157.4309 H   0  0  0  0  0  0  0  0  0  0  0  0
  149.3804  140.6254  158.4781 H   0  0  0  0  0  0  0  0  0  0  0  0
  149.7624  142.1588  159.2632 H   0  0  0  0  0  0  0  0  0  0  0  0
  147.5056  141.8970  157.7476 H   0  0  0  0  0  0  0  0  0  0  0  0
  148.4302  143.3899  157.6992 H   0  0  0  0  0  0  0  0  0  0  0  0
  147.4028  140.5935  155.8120 H   0  0  0  0  0  0  0  0  0  0  0  0
  146.9420  142.1280  155.1032 H   0  0  0  0  0  0  0  0  0  0  0  0
  147.5641  140.5362  153.3009 H   0  0  0  0  0  0  0  0  0  0  0  0
  148.7215  141.8400  153.3597 H   0  0  0  0  0  0  0  0  0  0  0  0
  149.1144  138.9450  154.0080 H   0  0  0  0  0  0  0  0  0  0  0  0
  150.2263  140.0940  153.3142 H   0  0  0  0  0  0  0  0  0  0  0  0
  149.6468  139.4885  156.2154 H   0  0  0  0  0  0  0  0  0  0  0  0
  151.1843  139.6940  155.4219 H   0  0  0  0  0  0  0  0  0  0  0  0
  150.7623  142.1522  155.2422 H   0  0  0  0  0  0  0  0  0  0  0  0
  148.9022  143.0872  155.6744 H   0  0  0  0  0  0  0  0  0  0  0  0
  1  2  1  0  0  0  0
  1 20  1  0  0  0  0
  1 21  1  0  0  0  0
  1 22  1  0  0  0  0
  2 19  1  0  0  0  0
  2  3  2  0  0  0  0
  3  4  1  0  0  0  0
  4  5  2  0  0  0  0
  5  6  1  0  0  0  0
  5 19  1  0  0  0  0
  6  7  1  0  0  0  0
  7  8  2  0  0  0  0
  7  9  1  0  0  0  0
  9 10  1  0  0  0  0
  9 23  1  0  0  0  0
 10 18  1  0  0  0  0
 10 11  1  0  0  0  0
 10 24  1  0  0  0  0
 11 12  1  0  0  0  0
 11 25  1  0  0  0  0
 11 26  1  0  0  0  0
 12 13  1  0  0  0  0
 12 27  1  0  0  0  0
 12 28  1  0  0  0  0
 13 18  1  0  0  0  0
 13 14  1  0  0  0  0
 13 38  1  0  0  0  0
 14 15  1  0  0  0  0
 14 29  1  0  0  0  0
 14 30  1  0  0  0  0
 15 16  1  0  0  0  0
 15 31  1  0  0  0  0
 15 32  1  0  0  0  0
 16 17  1  0  0  0  0
 16 33  1  0  0  0  0
 16 34  1  0  0  0  0
 17 18  1  0  0  0  0
 17 35  1  0  0  0  0
 17 36  1  0  0  0  0
 18 37  1  0  0  0  0
M  CHG  1   6  -1
M  CHG  1  13   1
M  END
> <s_m_source_file>
AV-unprocessed.smi

> <i_m_source_file_index>
1897

> <i_lp_mmshare_version>
43012

> <i_f3d_flags>
0

> <s_epik_input>
W0NIM11jMW5uYyhzMSlbTkhdQyg9TylbTkhdW0NASF0oW0NIMl1bQ0gyXTIpW0NAQEhdKE4yMylbQ0gyXVtDSDJdW0NIMl1bQ0gyXTM=

> <s_epik_cmdline>
J2VwaWtfcHl0aG9uJywgJy1waCcsICc3LjAnLCAnLXRuJywgJzgnLCAnLW1hJywgJzIwMCcsICctbWV0YWxfYmluZGluZycsICctaW1hZScsICc8aW5maWxlLm1hZT4nLCAnLW9tYWUnLCAnPG91dGZpbGUubWFlPic=

> <r_lp_tautomer_probability>
1

> <r_epik_Ionization_Penalty>
3.77712

> <r_epik_Ionization_Penalty_Charging>
3.67739

> <r_epik_Ionization_Penalty_Neutral>
0.0997294

> <r_epik_State_Penalty>
3.67514

> <r_epik_Charging_Adjusted_Penalty>
7.35254

> <i_epik_Tot_Q>
0

> <i_epik_Tot_abs_Q>
2

> <r_epik_Metal_State_Penalty>
0.540795

> <b_epik_Metal_Only>
1

> <s_lp_Force_Field>
OPLS_2005

> <r_lp_Energy>
34.1596

> <b_lp_Chiralities_Consistent>
1

> <s_lp_Variant>
AV-unprocessed.smi:1897-15

> <Gold.Version>
5.8.1

> <Gold.Id.Protein>
6NUR|6NUR_protein|mol2

> <Gold.PLP.Fitness>
38.6291

> <Gold.PLP.PLP>
-26.8945

> <Gold.PLP.part.hbond>
-2.0000

> <Gold.PLP.part.metal>
0.0000

> <Gold.PLP.part.buried>
0.7212

> <Gold.PLP.part.nonpolar>
-24.9270

> <Gold.PLP.part.repulsive>
0.1515

> <Gold.PLP.ligand.clash>
0.0000

> <Gold.PLP.ligand.torsion>
0.1362

> <Gold.PLP.Chemscore.Hbond>
4.0000

> <Gold.PLP.Chemscore.CHOScore>
0.0000

> <Gold.PLP.Chemscore.Metal>
0.0000

> <Gold.Chemscore.Hbonds>
donor molecule, donor type, donor heavy atom, donor atom, acceptor molecule, acceptor atom, score
      L1  H    13    38       P1  8028  2.00
      P1  H  7997  8008       L1     6  2.00

> <Gold.PLP.Chemscore.Internal.Correction>
0.0069

> <Gold.Rescore>
     Score         DG    S(hbond)    S(metal)    S(lipo)     H(rot)  DE(clash)    DE(int)     intcor
     14.20     -15.79       1.69        0.00      61.80       1.00       0.01       1.57       ----

> <Gold.Chemscore.Fitness>
14.2045

> <Gold.Chemscore.DG>
-15.7858

> <Gold.Chemscore.ZeroCoef>
-5.4800

> <Gold.Chemscore.Hbond>
1.6871

> <Gold.Chemscore.Metal>
0.0000

> <Gold.Chemscore.Lipo>
61.8028

> <Gold.Chemscore.Internal_Hbond>
0.0000

> <Gold.Chemscore.DEClash>
0.0120

> <Gold.Chemscore.DEInternal>
1.5694

> <Gold.Chemscore.Rot>
1.0000

> <Gold.Chemscore.Internal.Correction>
   9.000000E+99

> <Gold.Chemscore.Hbonds>
donor molecule, donor type, donor heavy atom, donor atom, acceptor molecule, acceptor atom, score
      L1  H    13    38       P1  8028  0.99
      P1  H  7997  8008       L1     6  0.54

> <Gold.Chemscore.Hbond.Weighted>
-5.6349

> <Gold.Chemscore.Metal.Weighted>
-0.0000

> <Gold.Chemscore.Lipo.Weighted>
-7.2309

> <Gold.Chemscore.Internal_Hbond.Weighted>
0.0000

> <Gold.Chemscore.DEClash.Weighted>
0.0120

> <Gold.Chemscore.DEInternal.Weighted>
1.5694

> <Gold.Chemscore.Rot.Weighted>
2.5600

> <Gold.Chemscore.Internal.Correction.Weighted>
   9.000000E+99

> <Gold.Protein.RotatedTorsions>
[ 6907 6896 6895 6894 ] final  -50.62 input  -60.11 | X-H torsion
[ 7974 7965 7964 7962 ] final   40.58 input  175.53 | X-H torsion
[ 8008 7997 7996 7995 ] final -104.14 input   59.86 | X-H torsion
[ 10167 10162 10161 10158 ] final -104.74 input  -65.29 | X-H torsion
[ 10718 10713 10712 10709 ] final  103.68 input   66.30 | X-H torsion
[ 10763 10752 10751 10750 ] final  -56.08 input  -60.55 | X-H torsion
[ 11005 11000 10999 10996 ] final  -68.47 input  -57.11 | X-H torsion

> <Gold.Protein.ActiveResidues>
 VAL166  LYS551  ARG553  GLY616  TRP617  ASP618  TYR619  PRO620  LYS621  CYS622 
 ASP623  PHE694  ASN695  SER759  ASP760  ASP761  ALA762  ILE779  LEU786  VAL792 
 PHE793  MET794  SER795  GLU796  ALA797  LYS798  CYS799  TRP800  GLU811  SER814 

> <Gold.Protein.RotatedAtoms>
  150.8690  134.8059  159.7140 H   0  0  0  0  0  0  0  0  0  0  0  0  # atno 6907 bound_to 6896
  152.4701  134.4977  159.9725 H   0  0  0  0  0  0  0  0  0  0  0  0  # atno 6908 bound_to 6896
  151.5069  133.3454  159.2914 H   0  0  0  0  0  0  0  0  0  0  0  0  # atno 6909 bound_to 6896
  146.0893  139.5516  142.9486 H   0  0  0  0  0  0  0  0  0  0  0  0  # atno 7974 bound_to 7965
  154.8811  140.0419  157.1782 H   0  0  0  0  0  0  0  0  0  0  0  0  # atno 8008 bound_to 7997
  154.8638  140.2948  155.5501 H   0  0  0  0  0  0  0  0  0  0  0  0  # atno 8009 bound_to 7997
  156.2999  140.2442  156.3617 H   0  0  0  0  0  0  0  0  0  0  0  0  # atno 8010 bound_to 7997
  140.2060  143.3782  152.1090 H   0  0  0  0  0  0  0  0  0  0  0  0  # atno 10167 bound_to 10162
  157.6765  131.0785  150.5591 H   0  0  0  0  0  0  0  0  0  0  0  0  # atno 10718 bound_to 10713
  154.2010  135.6411  153.5087 H   0  0  0  0  0  0  0  0  0  0  0  0  # atno 10763 bound_to 10752
  153.0012  135.5451  154.6315 H   0  0  0  0  0  0  0  0  0  0  0  0  # atno 10764 bound_to 10752
  154.5728  135.2918  155.0783 H   0  0  0  0  0  0  0  0  0  0  0  0  # atno 10765 bound_to 10752
  141.1533  133.6741  156.6451 H   0  0  0  0  0  0  0  0  0  0  0  0  # atno 11005 bound_to 11000
  145.6069  141.0346  143.1988 LP  0  0  0  0  0  0  0  0  0  0  0  0  # atno 17320 bound_to 7965
  144.7348  139.7617  143.7333 LP  0  0  0  0  0  0  0  0  0  0  0  0  # atno 17321 bound_to 7965
  139.5198  144.7025  151.5453 LP  0  0  0  0  0  0  0  0  0  0  0  0  # atno 17342 bound_to 10162
  140.6357  143.8989  150.6645 LP  0  0  0  0  0  0  0  0  0  0  0  0  # atno 17343 bound_to 10162
  156.5894  130.4325  149.5943 LP  0  0  0  0  0  0  0  0  0  0  0  0  # atno 17370 bound_to 10713
  156.2595  130.6954  151.1718 LP  0  0  0  0  0  0  0  0  0  0  0  0  # atno 17371 bound_to 10713
  140.3363  134.7886  157.4364 LP  0  0  0  0  0  0  0  0  0  0  0  0  # atno 17394 bound_to 11000
  140.0975  134.5518  155.8385 LP  0  0  0  0  0  0  0  0  0  0  0  0  # atno 17395 bound_to 11000

$$$$
