AV-unprocessed.smi:2936|AV-procd|sdf|11258|dock10
  -GOLD-   2272016153D 1   1.00000     0.00000
 Structure written by MMmdl.
 24 25  0  0  0  0  0  0  0  0  1 V2000
  152.7295  136.8536  156.5343 O   0  0  0  0  0  0  0  0  0  0  0  0
  152.3533  138.0166  156.4022 C   0  0  0  0  0  0  0  0  0  0  0  0
  152.0546  138.5283  155.1842 N   0  0  0  0  0  0  0  0  0  0  0  0
  151.6248  139.8054  154.9147 N   0  0  0  0  0  0  0  0  0  0  0  0
  151.4837  140.6239  155.9006 C   0  0  0  0  0  0  0  0  0  0  0  0
  151.7597  140.2525  157.2797 C   0  0  0  0  0  0  0  0  0  0  0  0
  151.5901  141.1803  158.2961 N   0  0  0  0  0  0  0  0  0  0  0  0
  150.4277  142.0500  158.4029 C   0  0  0  0  0  0  0  0  0  0  0  0
  150.8683  143.5228  158.4753 C   0  0  0  0  0  0  0  0  0  0  0  0
  151.7862  143.6934  159.5523 O   0  0  0  0  0  0  0  0  0  0  0  0
  152.9597  142.9007  159.3917 C   0  0  0  0  0  0  0  0  0  0  0  0
  152.5725  141.4119  159.3448 C   0  0  0  0  0  0  0  0  0  0  0  0
  152.1819  138.9759  157.5024 C   0  0  0  0  0  0  0  0  0  0  0  0
  152.5369  138.4223  159.1036 Cl  0  0  0  0  0  0  0  0  0  0  0  0
  152.1445  137.9410  154.3676 H   0  0  0  0  0  0  0  0  0  0  0  0
  151.1465  141.6496  155.7490 H   0  0  0  0  0  0  0  0  0  0  0  0
  149.7649  141.8966  157.5507 H   0  0  0  0  0  0  0  0  0  0  0  0
  149.8658  141.7800  159.2976 H   0  0  0  0  0  0  0  0  0  0  0  0
  151.3267  143.8430  157.5389 H   0  0  0  0  0  0  0  0  0  0  0  0
  150.0033  144.1651  158.6405 H   0  0  0  0  0  0  0  0  0  0  0  0
  153.4909  143.1974  158.4863 H   0  0  0  0  0  0  0  0  0  0  0  0
  153.6318  143.0872  160.2294 H   0  0  0  0  0  0  0  0  0  0  0  0
  152.1493  141.1016  160.3006 H   0  0  0  0  0  0  0  0  0  0  0  0
  153.4572  140.7980  159.1723 H   0  0  0  0  0  0  0  0  0  0  0  0
  1  2  2  0  0  0  0
  2 13  1  0  0  0  0
  2  3  1  0  0  0  0
  3 15  1  0  0  0  0
  3  4  1  0  0  0  0
  4  5  2  0  0  0  0
  5  6  1  0  0  0  0
  5 16  1  0  0  0  0
  6  7  1  0  0  0  0
  6 13  2  0  0  0  0
  7 12  1  0  0  0  0
  7  8  1  0  0  0  0
  8  9  1  0  0  0  0
  8 17  1  0  0  0  0
  8 18  1  0  0  0  0
  9 10  1  0  0  0  0
  9 19  1  0  0  0  0
  9 20  1  0  0  0  0
 10 11  1  0  0  0  0
 11 12  1  0  0  0  0
 11 21  1  0  0  0  0
 11 22  1  0  0  0  0
 12 23  1  0  0  0  0
 12 24  1  0  0  0  0
 13 14  1  0  0  0  0
M  END
> <s_m_source_file>
AV-unprocessed.smi

> <i_m_source_file_index>
2936

> <i_lp_mmshare_version>
43012

> <i_f3d_flags>
0

> <s_epik_input>
Tz1jMVtuSF1uW2NIXWMoYzFDbClOMltDSDJdW0NIMl1PW0NIMl1bQ0gyXTI=

> <s_epik_cmdline>
J2VwaWtfcHl0aG9uJywgJy1waCcsICc3LjAnLCAnLXRuJywgJzgnLCAnLW1hJywgJzIwMCcsICctbWV0YWxfYmluZGluZycsICctaW1hZScsICc8aW5maWxlLm1hZT4nLCAnLW9tYWUnLCAnPG91dGZpbGUubWFlPic=

> <r_lp_tautomer_probability>
0.986175

> <r_epik_Ionization_Penalty>
0.0102925

> <r_epik_Ionization_Penalty_Charging>
0.0102925

> <r_epik_Ionization_Penalty_Neutral>
4.87729e-09

> <r_epik_State_Penalty>
1.65855

> <r_epik_Charging_Adjusted_Penalty>
1.66884

> <i_epik_Tot_Q>
0

> <i_epik_Tot_abs_Q>
0

> <r_epik_Metal_State_Penalty>
3.9956

> <b_epik_Metal_Only>
0

> <s_lp_Force_Field>
OPLS_2005

> <r_lp_Energy>
35.1147

> <b_lp_Chiralities_Consistent>
1

> <s_lp_Variant>
AV-unprocessed.smi:2936-2

> <Gold.Version>
5.8.1

> <Gold.Id.Protein>
6NUR|6NUR_protein|mol2

> <Gold.PLP.Fitness>
29.3624

> <Gold.PLP.PLP>
-23.4025

> <Gold.PLP.part.hbond>
-2.0000

> <Gold.PLP.part.metal>
0.0000

> <Gold.PLP.part.buried>
-4.8826

> <Gold.PLP.part.nonpolar>
-16.9647

> <Gold.PLP.part.repulsive>
0.2276

> <Gold.PLP.ligand.clash>
0.0161

> <Gold.PLP.ligand.torsion>
0.7750

> <Gold.PLP.Chemscore.Hbond>
1.9920

> <Gold.PLP.Chemscore.CHOScore>
0.0000

> <Gold.PLP.Chemscore.Metal>
0.0000

> <Gold.Chemscore.Hbonds>
donor molecule, donor type, donor heavy atom, donor atom, acceptor molecule, acceptor atom, score
      P1  H  7989  7998       L1     4  1.00
      P1  H 10752 10765       L1     1  0.98

> <Gold.PLP.Chemscore.Internal.Correction>
1.5501

> <Gold.Rescore>
     Score         DG    S(hbond)    S(metal)    S(lipo)     H(rot)  DE(clash)    DE(int)     intcor
     17.58     -18.54       1.88        0.00      57.91       0.00       0.00       0.96       ----

> <Gold.Chemscore.Fitness>
17.5815

> <Gold.Chemscore.DG>
-18.5370

> <Gold.Chemscore.ZeroCoef>
-5.4800

> <Gold.Chemscore.Hbond>
1.8806

> <Gold.Chemscore.Metal>
0.0000

> <Gold.Chemscore.Lipo>
57.9123

> <Gold.Chemscore.Internal_Hbond>
0.0000

> <Gold.Chemscore.DEClash>
0.0000

> <Gold.Chemscore.DEInternal>
0.9555

> <Gold.Chemscore.Rot>
0.0000

> <Gold.Chemscore.Internal.Correction>
   9.000000E+99

> <Gold.Chemscore.Hbonds>
donor molecule, donor type, donor heavy atom, donor atom, acceptor molecule, acceptor atom, score
      P1  H  7989  7998       L1     4  0.44
      P1  H 10752 10765       L1     1  0.88

> <Gold.Chemscore.Hbond.Weighted>
-6.2813

> <Gold.Chemscore.Metal.Weighted>
-0.0000

> <Gold.Chemscore.Lipo.Weighted>
-6.7757

> <Gold.Chemscore.Internal_Hbond.Weighted>
0.0000

> <Gold.Chemscore.DEClash.Weighted>
0.0000

> <Gold.Chemscore.DEInternal.Weighted>
0.9555

> <Gold.Chemscore.Rot.Weighted>
0.0000

> <Gold.Chemscore.Internal.Correction.Weighted>
   9.000000E+99

> <Gold.Protein.RotatedTorsions>
[ 6907 6896 6895 6894 ] final  122.83 input  -60.11 | X-H torsion
[ 7974 7965 7964 7962 ] final  134.85 input  175.53 | X-H torsion
[ 8008 7997 7996 7995 ] final -163.69 input   59.86 | X-H torsion
[ 10167 10162 10161 10158 ] final  -47.20 input  -65.29 | X-H torsion
[ 10718 10713 10712 10709 ] final   57.78 input   66.30 | X-H torsion
[ 10763 10752 10751 10750 ] final -139.81 input  -60.55 | X-H torsion
[ 11005 11000 10999 10996 ] final   41.82 input  -57.11 | X-H torsion

> <Gold.Protein.ActiveResidues>
 VAL166  LYS551  ARG553  GLY616  TRP617  ASP618  TYR619  PRO620  LYS621  CYS622 
 ASP623  PHE694  ASN695  SER759  ASP760  ASP761  ALA762  ILE779  LEU786  VAL792 
 PHE793  MET794  SER795  GLU796  ALA797  LYS798  CYS799  TRP800  GLU811  SER814 

> <Gold.Protein.RotatedAtoms>
  152.4211  133.7118  159.6482 H   0  0  0  0  0  0  0  0  0  0  0  0  # atno 6907 bound_to 6896
  150.8087  133.8451  159.3198 H   0  0  0  0  0  0  0  0  0  0  0  0  # atno 6908 bound_to 6896
  151.6167  135.1037  160.0144 H   0  0  0  0  0  0  0  0  0  0  0  0  # atno 6909 bound_to 6896
  144.9722  139.4593  143.5427 H   0  0  0  0  0  0  0  0  0  0  0  0  # atno 7974 bound_to 7965
  155.8249  140.0925  157.1827 H   0  0  0  0  0  0  0  0  0  0  0  0  # atno 8008 bound_to 7997
  154.3979  140.1430  156.3604 H   0  0  0  0  0  0  0  0  0  0  0  0  # atno 8009 bound_to 7997
  155.8227  140.3445  155.5526 H   0  0  0  0  0  0  0  0  0  0  0  0  # atno 8010 bound_to 7997
  140.6785  143.2795  151.3892 H   0  0  0  0  0  0  0  0  0  0  0  0  # atno 10167 bound_to 10162
  157.5542  130.8788  149.9010 H   0  0  0  0  0  0  0  0  0  0  0  0  # atno 10718 bound_to 10713
  154.8598  135.3571  154.5606 H   0  0  0  0  0  0  0  0  0  0  0  0  # atno 10763 bound_to 10752
  153.6221  135.7005  153.5311 H   0  0  0  0  0  0  0  0  0  0  0  0  # atno 10764 bound_to 10752
  153.3120  135.4176  155.1304 H   0  0  0  0  0  0  0  0  0  0  0  0  # atno 10765 bound_to 10752
  140.1798  134.4118  155.8207 H   0  0  0  0  0  0  0  0  0  0  0  0  # atno 11005 bound_to 11000
  146.3385  139.8942  142.8804 LP  0  0  0  0  0  0  0  0  0  0  0  0  # atno 17320 bound_to 7965
  145.2542  141.0054  143.3864 LP  0  0  0  0  0  0  0  0  0  0  0  0  # atno 17321 bound_to 7965
  139.6092  144.1133  152.2281 LP  0  0  0  0  0  0  0  0  0  0  0  0  # atno 17342 bound_to 10162
  140.0542  144.5909  150.7313 LP  0  0  0  0  0  0  0  0  0  0  0  0  # atno 17343 bound_to 10162
  156.0604  130.3701  150.0996 LP  0  0  0  0  0  0  0  0  0  0  0  0  # atno 17370 bound_to 10713
  156.9166  130.9669  151.3555 LP  0  0  0  0  0  0  0  0  0  0  0  0  # atno 17371 bound_to 10713
  141.2222  133.6995  156.7910 LP  0  0  0  0  0  0  0  0  0  0  0  0  # atno 17394 bound_to 11000
  140.2281  134.8706  157.3448 LP  0  0  0  0  0  0  0  0  0  0  0  0  # atno 17395 bound_to 11000

$$$$
