AV-unprocessed.smi:735|AV-procd|sdf|3532|dock2
  -GOLD-   22720 0523D 1   1.00000     0.00000
 Structure written by MMmdl.
 16 16  0  0  0  0  0  0  0  0  3 V2000
  153.1120  138.7521  155.3476 O   0  0  0  0  0  0  0  0  0  0  0  0
  152.1784  137.9782  155.6576 C   0  0  0  0  0  0  0  0  0  0  0  0
  152.3276  136.8158  156.0976 O   0  5  0  0  0  0  0  0  0  0  0  0
  150.7411  138.4661  155.4199 C   0  0  0  0  0  0  0  0  0  0  0  0
  150.5851  138.6768  154.1104 F   0  0  0  0  0  0  0  0  0  0  0  0
  149.8856  137.4958  155.7534 F   0  0  0  0  0  0  0  0  0  0  0  0
  150.4709  139.7621  156.1866 C   0  0  0  0  0  0  0  0  0  0  0  0
  150.6496  139.8701  157.5545 C   0  0  0  0  0  0  0  0  0  0  0  0
  150.4869  140.9656  158.3268 N   0  5  0  0  0  0  0  0  0  0  0  0
  150.1197  142.1113  157.6849 C   0  0  0  0  0  0  0  0  0  0  0  0
  149.9434  143.1863  158.2543 O   0  0  0  0  0  0  0  0  0  0  0  0
  149.9325  142.0801  156.3367 N   0  0  0  0  0  0  0  0  0  0  0  0
  150.0664  141.0058  155.5111 C   0  0  0  0  0  0  0  0  0  0  0  0
  149.8444  141.1197  154.3065 O   0  0  0  0  0  0  0  0  0  0  0  0
  149.6573  142.9482  155.9017 H   0  0  0  0  0  0  0  0  0  0  0  0
  150.9790  138.9583  158.0974 H   0  0  0  0  0  0  0  0  0  0  0  0
  1  2  2  0  0  0  0
  2  3  1  0  0  0  0
  2  4  1  0  0  0  0
  4  5  1  0  0  0  0
  4  6  1  0  0  0  0
  4  7  1  0  0  0  0
  7 13  1  0  0  0  0
  7  8  2  0  0  0  0
  8  9  1  0  0  0  0
  8 16  1  0  0  0  0
  9 10  1  0  0  0  0
 10 11  2  0  0  0  0
 10 12  1  0  0  0  0
 12 15  1  0  0  0  0
 12 13  1  0  0  0  0
 13 14  2  0  0  0  0
M  CHG  1   3  -1
M  CHG  1   9  -1
M  END
> <s_m_source_file>
AV-unprocessed.smi

> <i_m_source_file_index>
735

> <i_lp_mmshare_version>
43012

> <i_f3d_flags>
0

> <s_epik_input>
Tz1DKFtPSF0pQyhGKShGKWMxW2NIXVtuSF1jKD1PKVtuSF1jMT1P

> <s_epik_cmdline>
J2VwaWtfcHl0aG9uJywgJy1waCcsICc3LjAnLCAnLXRuJywgJzgnLCAnLW1hJywgJzIwMCcsICctbWV0YWxfYmluZGluZycsICctaW1hZScsICc8aW5maWxlLm1hZT4nLCAnLW9tYWUnLCAnPG91dGZpbGUubWFlPic=

> <r_lp_tautomer_probability>
0.998954

> <r_epik_Ionization_Penalty>
1.12544

> <r_epik_Ionization_Penalty_Charging>
4.09586e-06

> <r_epik_Ionization_Penalty_Neutral>
1.12544

> <r_epik_State_Penalty>
0.173947

> <r_epik_Charging_Adjusted_Penalty>
0.173951

> <i_epik_Tot_Q>
-2

> <i_epik_Tot_abs_Q>
2

> <r_epik_Metal_State_Penalty>
0.0317114

> <b_epik_Metal_Only>
0

> <s_lp_Force_Field>
OPLS_2005

> <r_lp_Energy>
15.2406

> <b_lp_Chiralities_Consistent>
1

> <s_lp_Variant>
AV-unprocessed.smi:735-1

> <Gold.Version>
5.8.1

> <Gold.Id.Protein>
6NUR|6NUR_protein|mol2

> <Gold.PLP.Fitness>
35.2625

> <Gold.PLP.PLP>
-18.4943

> <Gold.PLP.part.hbond>
-4.5810

> <Gold.PLP.part.metal>
0.0000

> <Gold.PLP.part.buried>
-4.2250

> <Gold.PLP.part.nonpolar>
-11.4883

> <Gold.PLP.part.repulsive>
0.4260

> <Gold.PLP.ligand.clash>
0.0000

> <Gold.PLP.ligand.torsion>
0.0758

> <Gold.PLP.Chemscore.Hbond>
5.6204

> <Gold.PLP.Chemscore.CHOScore>
0.0000

> <Gold.PLP.Chemscore.Metal>
0.0000

> <Gold.Chemscore.Hbonds>
donor molecule, donor type, donor heavy atom, donor atom, acceptor molecule, acceptor atom, score
      L1  H    12    15       P1  8028  1.00
      P1  H  7989  7998       L1    14  0.50
      P1  H  7997  8010       L1     1  2.00
      P1  H  8011  8017       L1    14  0.13
      P1  H 10752 10764       L1     3  2.00

> <Gold.PLP.Chemscore.Internal.Correction>
0.0586

> <Gold.Rescore>
     Score         DG    S(hbond)    S(metal)    S(lipo)     H(rot)  DE(clash)    DE(int)     intcor
     11.58     -13.42       3.26        0.00      14.41       1.81       0.06       1.78       ----

> <Gold.Chemscore.Fitness>
11.5815

> <Gold.Chemscore.DG>
-13.4158

> <Gold.Chemscore.ZeroCoef>
-5.4800

> <Gold.Chemscore.Hbond>
3.2559

> <Gold.Chemscore.Metal>
0.0000

> <Gold.Chemscore.Lipo>
14.4050

> <Gold.Chemscore.Internal_Hbond>
0.0000

> <Gold.Chemscore.DEClash>
0.0562

> <Gold.Chemscore.DEInternal>
1.7781

> <Gold.Chemscore.Rot>
1.8064

> <Gold.Chemscore.Internal.Correction>
   9.000000E+99

> <Gold.Chemscore.Hbonds>
donor molecule, donor type, donor heavy atom, donor atom, acceptor molecule, acceptor atom, score
      L1  H    12    15       P1  8028  0.99
      P1  H  7989  7998       L1    14  0.21
      P1  H  7997  8010       L1     1  0.91
      P1  H  8011  8017       L1    14  0.14
      P1  H 10752 10764       L1     3  0.93

> <Gold.Chemscore.Hbond.Weighted>
-10.8749

> <Gold.Chemscore.Metal.Weighted>
-0.0000

> <Gold.Chemscore.Lipo.Weighted>
-1.6854

> <Gold.Chemscore.Internal_Hbond.Weighted>
0.0000

> <Gold.Chemscore.DEClash.Weighted>
0.0562

> <Gold.Chemscore.DEInternal.Weighted>
1.7781

> <Gold.Chemscore.Rot.Weighted>
4.6244

> <Gold.Chemscore.Internal.Correction.Weighted>
   9.000000E+99

> <Gold.Protein.RotatedTorsions>
[ 6907 6896 6895 6894 ] final  153.34 input  -60.11 | X-H torsion
[ 7974 7965 7964 7962 ] final   37.95 input  175.53 | X-H torsion
[ 8008 7997 7996 7995 ] final  103.17 input   59.86 | X-H torsion
[ 10167 10162 10161 10158 ] final -148.57 input  -65.29 | X-H torsion
[ 10718 10713 10712 10709 ] final  113.30 input   66.30 | X-H torsion
[ 10763 10752 10751 10750 ] final  -30.67 input  -60.55 | X-H torsion
[ 11005 11000 10999 10996 ] final  -91.78 input  -57.11 | X-H torsion

> <Gold.Protein.ActiveResidues>
 VAL166  LYS551  ARG553  GLY616  TRP617  ASP618  TYR619  PRO620  LYS621  CYS622 
 ASP623  PHE694  ASN695  SER759  ASP760  ASP761  ALA762  ILE779  LEU786  VAL792 
 PHE793  MET794  SER795  GLU796  ALA797  LYS798  CYS799  TRP800  GLU811  SER814 

> <Gold.Protein.RotatedAtoms>
  152.0741  133.4121  159.4471 H   0  0  0  0  0  0  0  0  0  0  0  0  # atno 6907 bound_to 6896
  150.6863  134.3058  159.4734 H   0  0  0  0  0  0  0  0  0  0  0  0  # atno 6908 bound_to 6896
  152.0892  134.9418  160.0623 H   0  0  0  0  0  0  0  0  0  0  0  0  # atno 6909 bound_to 6896
  146.1099  139.5832  142.9359 H   0  0  0  0  0  0  0  0  0  0  0  0  # atno 7974 bound_to 7965
  156.1459  140.3169  155.8570 H   0  0  0  0  0  0  0  0  0  0  0  0  # atno 8008 bound_to 7997
  155.4065  140.0503  157.3051 H   0  0  0  0  0  0  0  0  0  0  0  0  # atno 8009 bound_to 7997
  154.5016  140.2131  155.9347 H   0  0  0  0  0  0  0  0  0  0  0  0  # atno 8010 bound_to 7997
  139.7520  143.8504  152.2588 H   0  0  0  0  0  0  0  0  0  0  0  0  # atno 10167 bound_to 10162
  157.6346  131.0981  150.7020 H   0  0  0  0  0  0  0  0  0  0  0  0  # atno 10718 bound_to 10713
  153.7848  135.6902  153.4882 H   0  0  0  0  0  0  0  0  0  0  0  0  # atno 10763 bound_to 10752
  153.1788  135.4514  154.9999 H   0  0  0  0  0  0  0  0  0  0  0  0  # atno 10764 bound_to 10752
  154.8068  135.3360  154.7348 H   0  0  0  0  0  0  0  0  0  0  0  0  # atno 10765 bound_to 10752
  141.1537  133.7777  156.9927 H   0  0  0  0  0  0  0  0  0  0  0  0  # atno 11005 bound_to 11000
  145.5685  141.0397  143.2187 LP  0  0  0  0  0  0  0  0  0  0  0  0  # atno 17320 bound_to 7965
  144.7503  139.7212  143.7276 LP  0  0  0  0  0  0  0  0  0  0  0  0  # atno 17321 bound_to 7965
  139.8485  144.7176  150.9243 LP  0  0  0  0  0  0  0  0  0  0  0  0  # atno 17342 bound_to 10162
  140.7799  143.3920  151.1294 LP  0  0  0  0  0  0  0  0  0  0  0  0  # atno 17343 bound_to 10162
  156.7354  130.4722  149.5490 LP  0  0  0  0  0  0  0  0  0  0  0  0  # atno 17370 bound_to 10713
  156.1575  130.6351  151.0676 LP  0  0  0  0  0  0  0  0  0  0  0  0  # atno 17371 bound_to 10713
  140.0992  134.9545  157.1897 LP  0  0  0  0  0  0  0  0  0  0  0  0  # atno 17394 bound_to 11000
  140.3341  134.2777  155.7223 LP  0  0  0  0  0  0  0  0  0  0  0  0  # atno 17395 bound_to 11000

$$$$
