AV-unprocessed.smi:2956|AV-procd|sdf|11305|dock3
  -GOLD-   2272016203D 1   1.00000     0.00000
 Structure written by MMmdl.
 25 26  0  0  0  0  0  0  0  0  1 V2000
  151.7744  141.4465  157.4204 O   0  0  0  0  0  0  0  0  0  0  0  0
  150.9175  142.0951  156.8178 C   0  0  0  0  0  0  0  0  0  0  0  0
  150.0021  141.4246  155.7817 C   0  0  0  0  0  0  0  0  0  0  0  0
  150.2672  139.9891  155.6007 N   0  0  0  0  0  0  0  0  0  0  0  0
  150.5811  139.6338  154.3005 N   0  0  0  0  0  0  0  0  0  0  0  0
  150.8506  138.4041  154.0262 C   0  0  0  0  0  0  0  0  0  0  0  0
  150.8338  137.3683  155.0351 C   0  0  0  0  0  0  0  0  0  0  0  0
  151.2055  135.7353  154.6072 Cl  0  0  0  0  0  0  0  0  0  0  0  0
  150.5188  137.7258  156.3055 C   0  0  0  0  0  0  0  0  0  0  0  0
  150.4779  136.5424  157.5671 Cl  0  0  0  0  0  0  0  0  0  0  0  0
  150.2048  139.1182  156.6550 C   0  0  0  0  0  0  0  0  0  0  0  0
  149.9113  139.4825  157.7945 O   0  0  0  0  0  0  0  0  0  0  0  0
  150.7275  143.4101  156.9981 N   0  0  0  0  0  0  0  0  0  0  0  0
  151.4544  144.2358  157.9070 C   0  0  0  0  0  0  0  0  0  0  0  0
  151.8191  143.6434  159.2513 C   0  0  0  0  0  0  0  0  0  0  0  0
  150.7478  144.6952  159.1638 C   0  0  0  0  0  0  0  0  0  0  0  0
  148.9601  141.5785  156.0688 H   0  0  0  0  0  0  0  0  0  0  0  0
  150.1232  141.9509  154.8331 H   0  0  0  0  0  0  0  0  0  0  0  0
  151.1058  138.0785  153.0178 H   0  0  0  0  0  0  0  0  0  0  0  0
  150.0048  143.8607  156.4555 H   0  0  0  0  0  0  0  0  0  0  0  0
  152.1790  144.9295  157.4825 H   0  0  0  0  0  0  0  0  0  0  0  0
  151.5036  142.6231  159.4617 H   0  0  0  0  0  0  0  0  0  0  0  0
  152.7730  143.9340  159.6863 H   0  0  0  0  0  0  0  0  0  0  0  0
  150.9873  145.6888  159.5375 H   0  0  0  0  0  0  0  0  0  0  0  0
  149.7176  144.3778  159.3139 H   0  0  0  0  0  0  0  0  0  0  0  0
  1  2  2  0  0  0  0
  2  3  1  0  0  0  0
  2 13  1  0  0  0  0
  3  4  1  0  0  0  0
  3 17  1  0  0  0  0
  3 18  1  0  0  0  0
  4 11  1  0  0  0  0
  4  5  1  0  0  0  0
  5  6  2  0  0  0  0
  6  7  1  0  0  0  0
  6 19  1  0  0  0  0
  7  8  1  0  0  0  0
  7  9  2  0  0  0  0
  9 10  1  0  0  0  0
  9 11  1  0  0  0  0
 11 12  2  0  0  0  0
 13 14  1  0  0  0  0
 13 20  1  0  0  0  0
 14 16  1  0  0  0  0
 14 15  1  0  0  0  0
 14 21  1  0  0  0  0
 15 16  1  0  0  0  0
 15 22  1  0  0  0  0
 15 23  1  0  0  0  0
 16 24  1  0  0  0  0
 16 25  1  0  0  0  0
M  END
> <s_m_source_file>
AV-unprocessed.smi

> <i_m_source_file_index>
2956

> <i_lp_mmshare_version>
43012

> <i_f3d_flags>
0

> <s_epik_input>
W0NIMl0xW0NIMl1bQ0hdMVtOSF1DKD1PKVtDSDJdbjJuW2NIXWMoQ2wpYyhDbCljMj1P

> <s_epik_cmdline>
J2VwaWtfcHl0aG9uJywgJy1waCcsICc3LjAnLCAnLXRuJywgJzgnLCAnLW1hJywgJzIwMCcsICctbWV0YWxfYmluZGluZycsICctaW1hZScsICc8aW5maWxlLm1hZT4nLCAnLW9tYWUnLCAnPG91dGZpbGUubWFlPic=

> <r_lp_tautomer_probability>
1

> <r_epik_Ionization_Penalty>
2.06989e-08

> <r_epik_Ionization_Penalty_Charging>
2.85155e-11

> <r_epik_Ionization_Penalty_Neutral>
2.06703e-08

> <r_epik_State_Penalty>
-0

> <r_epik_Charging_Adjusted_Penalty>
2.85155e-11

> <i_epik_Tot_Q>
0

> <i_epik_Tot_abs_Q>
0

> <r_epik_Metal_State_Penalty>
-0

> <b_epik_Metal_Only>
0

> <s_lp_Force_Field>
OPLS_2005

> <r_lp_Energy>
29.5671

> <b_lp_Chiralities_Consistent>
1

> <s_lp_Variant>
AV-unprocessed.smi:2956-1

> <Gold.Version>
5.8.1

> <Gold.Id.Protein>
6NUR|6NUR_protein|mol2

> <Gold.PLP.Fitness>
38.1365

> <Gold.PLP.PLP>
-29.5163

> <Gold.PLP.part.hbond>
-2.0000

> <Gold.PLP.part.metal>
0.0000

> <Gold.PLP.part.buried>
-4.9019

> <Gold.PLP.part.nonpolar>
-23.2978

> <Gold.PLP.part.repulsive>
0.2027

> <Gold.PLP.ligand.clash>
0.0000

> <Gold.PLP.ligand.torsion>
0.2402

> <Gold.PLP.Chemscore.Hbond>
2.0000

> <Gold.PLP.Chemscore.CHOScore>
1.0210

> <Gold.PLP.Chemscore.Metal>
0.0000

> <Gold.Chemscore.Hbonds>
donor molecule, donor type, donor heavy atom, donor atom, acceptor molecule, acceptor atom, score
      L1  H    13    20       P1  8028  1.00
      P1  H  7989  7998       L1     5  1.00
      L1  C     6    19       P1  7949  0.87

> <Gold.PLP.Chemscore.Internal.Correction>
0.0375

> <Gold.Rescore>
     Score         DG    S(hbond)    S(metal)    S(lipo)     H(rot)  DE(clash)    DE(int)     intcor
     15.31     -15.54       1.95        0.00      65.08       1.59       0.00       0.23       ----

> <Gold.Chemscore.Fitness>
15.3050

> <Gold.Chemscore.DG>
-15.5389

> <Gold.Chemscore.ZeroCoef>
-5.4800

> <Gold.Chemscore.Hbond>
1.9527

> <Gold.Chemscore.Metal>
0.0000

> <Gold.Chemscore.Lipo>
65.0816

> <Gold.Chemscore.Internal_Hbond>
0.0000

> <Gold.Chemscore.DEClash>
0.0048

> <Gold.Chemscore.DEInternal>
0.2291

> <Gold.Chemscore.Rot>
1.5928

> <Gold.Chemscore.Internal.Correction>
   9.000000E+99

> <Gold.Chemscore.Hbonds>
donor molecule, donor type, donor heavy atom, donor atom, acceptor molecule, acceptor atom, score
      L1  H    13    20       P1  8028  0.99
      P1  H  7989  7998       L1     5  0.77

> <Gold.Chemscore.Hbond.Weighted>
-6.5219

> <Gold.Chemscore.Metal.Weighted>
-0.0000

> <Gold.Chemscore.Lipo.Weighted>
-7.6145

> <Gold.Chemscore.Internal_Hbond.Weighted>
0.0000

> <Gold.Chemscore.DEClash.Weighted>
0.0048

> <Gold.Chemscore.DEInternal.Weighted>
0.2291

> <Gold.Chemscore.Rot.Weighted>
4.0775

> <Gold.Chemscore.Internal.Correction.Weighted>
   9.000000E+99

> <Gold.Protein.RotatedTorsions>
[ 6907 6896 6895 6894 ] final -165.59 input  -60.11 | X-H torsion
[ 7974 7965 7964 7962 ] final   13.86 input  175.53 | X-H torsion
[ 8008 7997 7996 7995 ] final  -13.66 input   59.86 | X-H torsion
[ 10167 10162 10161 10158 ] final -158.17 input  -65.29 | X-H torsion
[ 10718 10713 10712 10709 ] final  -67.24 input   66.30 | X-H torsion
[ 10763 10752 10751 10750 ] final -173.28 input  -60.55 | X-H torsion
[ 11005 11000 10999 10996 ] final   53.82 input  -57.11 | X-H torsion

> <Gold.Protein.ActiveResidues>
 VAL166  LYS551  ARG553  GLY616  TRP617  ASP618  TYR619  PRO620  LYS621  CYS622 
 ASP623  PHE694  ASN695  SER759  ASP760  ASP761  ALA762  ILE779  LEU786  VAL792 
 PHE793  MET794  SER795  GLU796  ALA797  LYS798  CYS799  TRP800  GLU811  SER814 

> <Gold.Protein.RotatedAtoms>
  151.4300  133.3673  159.2767 H   0  0  0  0  0  0  0  0  0  0  0  0  # atno 6907 bound_to 6896
  150.9232  134.8650  159.7513 H   0  0  0  0  0  0  0  0  0  0  0  0  # atno 6908 bound_to 6896
  152.4992  134.4240  159.9542 H   0  0  0  0  0  0  0  0  0  0  0  0  # atno 6909 bound_to 6896
  146.2319  139.9126  142.8522 H   0  0  0  0  0  0  0  0  0  0  0  0  # atno 7974 bound_to 7965
  154.5274  140.2244  155.8865 H   0  0  0  0  0  0  0  0  0  0  0  0  # atno 8008 bound_to 7997
  156.1728  140.3118  155.8968 H   0  0  0  0  0  0  0  0  0  0  0  0  # atno 8009 bound_to 7997
  155.3523  140.0456  157.3037 H   0  0  0  0  0  0  0  0  0  0  0  0  # atno 8010 bound_to 7997
  139.6713  143.9740  152.2285 H   0  0  0  0  0  0  0  0  0  0  0  0  # atno 10167 bound_to 10162
  156.0568  130.4275  150.1826 H   0  0  0  0  0  0  0  0  0  0  0  0  # atno 10718 bound_to 10713
  154.6097  135.2863  155.0445 H   0  0  0  0  0  0  0  0  0  0  0  0  # atno 10763 bound_to 10752
  154.1680  135.6477  153.5006 H   0  0  0  0  0  0  0  0  0  0  0  0  # atno 10764 bound_to 10752
  153.0190  135.5394  154.6846 H   0  0  0  0  0  0  0  0  0  0  0  0  # atno 10765 bound_to 10752
  140.0736  134.5435  155.9020 H   0  0  0  0  0  0  0  0  0  0  0  0  # atno 11005 bound_to 11000
  145.2215  140.9937  143.4043 LP  0  0  0  0  0  0  0  0  0  0  0  0  # atno 17320 bound_to 7965
  144.9606  139.3983  143.6357 LP  0  0  0  0  0  0  0  0  0  0  0  0  # atno 17321 bound_to 7965
  139.9505  144.6623  150.8176 LP  0  0  0  0  0  0  0  0  0  0  0  0  # atno 17342 bound_to 10162
  140.7619  143.3185  151.2676 LP  0  0  0  0  0  0  0  0  0  0  0  0  # atno 17343 bound_to 10162
  156.9900  130.9890  151.3417 LP  0  0  0  0  0  0  0  0  0  0  0  0  # atno 17370 bound_to 10713
  157.5545  130.8204  149.8186 LP  0  0  0  0  0  0  0  0  0  0  0  0  # atno 17371 bound_to 10713
  141.2021  133.6623  156.5988 LP  0  0  0  0  0  0  0  0  0  0  0  0  # atno 17394 bound_to 11000
  140.3590  134.7704  157.4520 LP  0  0  0  0  0  0  0  0  0  0  0  0  # atno 17395 bound_to 11000

$$$$
