AV-unprocessed.smi:104|AV-procd|sdf|996|dock7
  -GOLD-   2262017573D 1   1.00000     0.00000
 Structure written by MMmdl.
 47 49  0  0  0  0  0  0  0  0  1 V2000
  153.1152  136.9688  158.1409 C   0  0  0  0  0  0  0  0  0  0  0  0
  151.7783  137.2314  158.8225 C   0  0  0  0  0  0  0  0  0  0  0  0
  151.5406  138.3049  159.3759 O   0  0  0  0  0  0  0  0  0  0  0  0
  150.9449  136.1834  158.7410 O   0  0  0  0  0  0  0  0  0  0  0  0
  149.6493  136.2592  159.3183 C   0  0  0  0  0  0  0  0  0  0  0  0
  148.6654  135.3116  158.6103 C   0  0  1  0  0  0  0  0  0  0  0  0
  149.1900  133.9940  158.4614 O   0  0  0  0  0  0  0  0  0  0  0  0
  148.1403  133.0722  158.4933 C   0  0  2  0  0  0  0  0  0  0  0  0
  148.1902  132.2122  157.2729 N   0  0  0  0  0  0  0  0  0  0  0  0
  148.1185  130.8409  157.1833 C   0  0  0  0  0  0  0  0  0  0  0  0
  147.9128  129.7310  158.7173 Br  0  0  0  0  0  0  0  0  0  0  0  0
  148.1779  130.3176  155.9907 N   0  0  0  0  0  0  0  0  0  0  0  0
  148.2892  131.4345  155.1721 C   0  0  0  0  0  0  0  0  0  0  0  0
  148.3920  131.6217  153.7704 C   0  0  0  0  0  0  0  0  0  0  0  0
  148.4071  130.6071  152.8951 N   0  0  0  0  0  0  0  0  0  0  0  0
  148.4771  132.8846  153.2911 N   0  0  0  0  0  0  0  0  0  0  0  0
  148.4623  133.9155  154.1419 C   0  0  0  0  0  0  0  0  0  0  0  0
  148.3736  133.8979  155.4746 N   0  0  0  0  0  0  0  0  0  0  0  0
  148.2912  132.6241  155.9589 C   0  0  0  0  0  0  0  0  0  0  0  0
  146.8306  133.8595  158.5328 C   0  0  1  0  0  0  0  0  0  0  0  0
  145.8234  133.1375  159.2296 O   0  0  0  0  0  0  0  0  0  0  0  0
  145.1891  132.1176  158.6304 C   0  0  0  0  0  0  0  0  0  0  0  0
  144.1028  131.5138  159.5102 C   0  0  0  0  0  0  0  0  0  0  0  0
  145.4135  131.6888  157.4987 O   0  0  0  0  0  0  0  0  0  0  0  0
  147.2695  135.1409  159.2259 C   0  0  1  0  0  0  0  0  0  0  0  0
  147.3560  134.9615  160.6382 O   0  0  0  0  0  0  0  0  0  0  0  0
  147.5332  136.0119  161.4585 C   0  0  0  0  0  0  0  0  0  0  0  0
  147.4377  135.6237  162.9281 C   0  0  0  0  0  0  0  0  0  0  0  0
  147.7492  137.1741  161.1156 O   0  0  0  0  0  0  0  0  0  0  0  0
  153.3026  135.8981  158.0538 H   0  0  0  0  0  0  0  0  0  0  0  0
  153.9268  137.4133  158.7173 H   0  0  0  0  0  0  0  0  0  0  0  0
  153.1210  137.4052  157.1420 H   0  0  0  0  0  0  0  0  0  0  0  0
  149.6886  136.0047  160.3787 H   0  0  0  0  0  0  0  0  0  0  0  0
  149.2933  137.2874  159.2464 H   0  0  0  0  0  0  0  0  0  0  0  0
  148.5199  135.6979  157.6007 H   0  0  0  0  0  0  0  0  0  0  0  0
  148.2780  132.4039  159.3432 H   0  0  0  0  0  0  0  0  0  0  0  0
  148.3434  129.6550  153.2261 H   0  0  0  0  0  0  0  0  0  0  0  0
  148.4859  130.7960  151.9063 H   0  0  0  0  0  0  0  0  0  0  0  0
  148.5328  134.8941  153.6904 H   0  0  0  0  0  0  0  0  0  0  0  0
  146.5334  134.0801  157.5058 H   0  0  0  0  0  0  0  0  0  0  0  0
  144.4463  131.4351  160.5420 H   0  0  0  0  0  0  0  0  0  0  0  0
  143.8361  130.5168  159.1584 H   0  0  0  0  0  0  0  0  0  0  0  0
  143.2105  132.1394  159.4878 H   0  0  0  0  0  0  0  0  0  0  0  0
  146.6262  135.9827  158.9664 H   0  0  0  0  0  0  0  0  0  0  0  0
  147.0637  134.6054  163.0385 H   0  0  0  0  0  0  0  0  0  0  0  0
  146.7619  136.2985  163.4536 H   0  0  0  0  0  0  0  0  0  0  0  0
  148.4201  135.6829  163.3966 H   0  0  0  0  0  0  0  0  0  0  0  0
  1  2  1  0  0  0  0
  1 30  1  0  0  0  0
  1 31  1  0  0  0  0
  1 32  1  0  0  0  0
  2  3  2  0  0  0  0
  2  4  1  0  0  0  0
  4  5  1  0  0  0  0
  5  6  1  0  0  0  0
  5 33  1  0  0  0  0
  5 34  1  0  0  0  0
  6 25  1  0  0  0  0
  6  7  1  0  0  0  0
  6 35  1  0  0  0  0
  7  8  1  0  0  0  0
  8  9  1  0  0  0  0
  8 20  1  0  0  0  0
  8 36  1  0  0  0  0
  9 19  1  0  0  0  0
  9 10  1  0  0  0  0
 10 11  1  0  0  0  0
 10 12  2  0  0  0  0
 12 13  1  0  0  0  0
 13 19  2  0  0  0  0
 13 14  1  0  0  0  0
 14 15  1  0  0  0  0
 14 16  2  0  0  0  0
 15 37  1  0  0  0  0
 15 38  1  0  0  0  0
 16 17  1  0  0  0  0
 17 18  2  0  0  0  0
 17 39  1  0  0  0  0
 18 19  1  0  0  0  0
 20 21  1  0  0  0  0
 20 25  1  0  0  0  0
 20 40  1  0  0  0  0
 21 22  1  0  0  0  0
 22 23  1  0  0  0  0
 22 24  2  0  0  0  0
 23 41  1  0  0  0  0
 23 42  1  0  0  0  0
 23 43  1  0  0  0  0
 25 26  1  0  0  0  0
 25 44  1  0  0  0  0
 26 27  1  0  0  0  0
 27 28  1  0  0  0  0
 27 29  2  0  0  0  0
 28 45  1  0  0  0  0
 28 46  1  0  0  0  0
 28 47  1  0  0  0  0
M  END
> <s_m_source_file>
AV-unprocessed.smi

> <i_m_source_file_index>
104

> <i_lp_mmshare_version>
43012

> <i_f3d_flags>
0

> <s_epik_input>
W0NIM11DKD1PKU9bQ0gyXVtDQEBIXTFPW0NASF0oW0NAQEhdKE9DKD1PKVtDSDNdKVtDQEhdMU9DKD1PKVtDSDNdKW4oYyhCciluMiljKGMyMyluW2NIXW5jM1tOSDJd

> <s_epik_cmdline>
J2VwaWtfcHl0aG9uJywgJy1waCcsICc3LjAnLCAnLXRuJywgJzgnLCAnLW1hJywgJzIwMCcsICctbWV0YWxfYmluZGluZycsICctaW1hZScsICc8aW5maWxlLm1hZT4nLCAnLW9tYWUnLCAnPG91dGZpbGUubWFlPic=

> <r_lp_tautomer_probability>
1

> <r_epik_Ionization_Penalty>
7.36622e-05

> <r_epik_Ionization_Penalty_Charging>
0

> <r_epik_Ionization_Penalty_Neutral>
7.36622e-05

> <r_epik_State_Penalty>
-0

> <r_epik_Charging_Adjusted_Penalty>
0

> <i_epik_Tot_Q>
0

> <i_epik_Tot_abs_Q>
0

> <r_epik_Metal_State_Penalty>
-0

> <b_epik_Metal_Only>
0

> <s_epik_Chemistry_Notes>
This compound has an ester and may undergo hydrolysis at high or low pH. This compound contains an acetal/aminal-like group ( X-CH(R)-Y where X, Y are N, S, or O) that may be acid/base labile, releasing an aldehyde.

> <s_lp_Force_Field>
OPLS_2005

> <r_lp_Energy>
19.7206

> <b_lp_Chiralities_Consistent>
1

> <s_lp_Variant>
AV-unprocessed.smi:104-4

> <Gold.Version>
5.8.1

> <Gold.Id.Protein>
6NUR|6NUR_protein|mol2

> <Gold.PLP.Fitness>
39.2526

> <Gold.PLP.PLP>
-25.6649

> <Gold.PLP.part.hbond>
-5.5052

> <Gold.PLP.part.metal>
0.0000

> <Gold.PLP.part.buried>
-3.1010

> <Gold.PLP.part.nonpolar>
-17.2428

> <Gold.PLP.part.repulsive>
0.3265

> <Gold.PLP.ligand.clash>
0.0000

> <Gold.PLP.ligand.torsion>
0.6397

> <Gold.PLP.Chemscore.Hbond>
3.8560

> <Gold.PLP.Chemscore.CHOScore>
1.0000

> <Gold.PLP.Chemscore.Metal>
0.0000

> <Gold.Chemscore.Hbonds>
donor molecule, donor type, donor heavy atom, donor atom, acceptor molecule, acceptor atom, score
      L1  H    15    38       P1 10747  1.00
      P1  H  6896  6907       L1     7  1.00
      P1  H  6931  6943       L1    29  0.94
      P1  H  6934  6947       L1    29  0.85
      L1  C    17    39       P1  7948  1.00

> <Gold.PLP.Chemscore.Internal.Correction>
0.2990

> <Gold.Rescore>
     Score         DG    S(hbond)    S(metal)    S(lipo)     H(rot)  DE(clash)    DE(int)     intcor
      4.58      -9.72       3.43        0.00      32.52       4.31       0.14       5.00       ----

> <Gold.Chemscore.Fitness>
4.5800

> <Gold.Chemscore.DG>
-9.7186

> <Gold.Chemscore.ZeroCoef>
-5.4800

> <Gold.Chemscore.Hbond>
3.4311

> <Gold.Chemscore.Metal>
0.0000

> <Gold.Chemscore.Lipo>
32.5174

> <Gold.Chemscore.Internal_Hbond>
0.0000

> <Gold.Chemscore.DEClash>
0.1377

> <Gold.Chemscore.DEInternal>
5.0010

> <Gold.Chemscore.Rot>
4.3070

> <Gold.Chemscore.Internal.Correction>
   9.000000E+99

> <Gold.Chemscore.Hbonds>
donor molecule, donor type, donor heavy atom, donor atom, acceptor molecule, acceptor atom, score
      L1  H    15    38       P1 10747  0.96
      P1  H  6896  6907       L1     7  0.50
      P1  H  6931  6943       L1    29  0.91
      P1  H  6934  6947       L1    29  0.82

> <Gold.Chemscore.Hbond.Weighted>
-11.4600

> <Gold.Chemscore.Metal.Weighted>
-0.0000

> <Gold.Chemscore.Lipo.Weighted>
-3.8045

> <Gold.Chemscore.Internal_Hbond.Weighted>
0.0000

> <Gold.Chemscore.DEClash.Weighted>
0.1377

> <Gold.Chemscore.DEInternal.Weighted>
5.0010

> <Gold.Chemscore.Rot.Weighted>
11.0259

> <Gold.Chemscore.Internal.Correction.Weighted>
   9.000000E+99

> <Gold.Protein.RotatedTorsions>
[ 6907 6896 6895 6894 ] final -106.43 input  -60.11 | X-H torsion
[ 7974 7965 7964 7962 ] final  153.98 input  175.53 | X-H torsion
[ 8008 7997 7996 7995 ] final  -51.17 input   59.86 | X-H torsion
[ 10167 10162 10161 10158 ] final -120.85 input  -65.29 | X-H torsion
[ 10718 10713 10712 10709 ] final -137.91 input   66.30 | X-H torsion
[ 10763 10752 10751 10750 ] final  -12.18 input  -60.55 | X-H torsion
[ 11005 11000 10999 10996 ] final -105.01 input  -57.11 | X-H torsion

> <Gold.Protein.ActiveResidues>
 VAL166  LYS551  ARG553  GLY616  TRP617  ASP618  TYR619  PRO620  LYS621  CYS622 
 ASP623  PHE694  ASN695  SER759  ASP760  ASP761  ALA762  ILE779  LEU786  VAL792 
 PHE793  MET794  SER795  GLU796  ALA797  LYS798  CYS799  TRP800  GLU811  SER814 

> <Gold.Protein.RotatedAtoms>
  150.7389  133.9977  159.3627 H   0  0  0  0  0  0  0  0  0  0  0  0  # atno 6907 bound_to 6896
  151.7929  135.0728  160.0399 H   0  0  0  0  0  0  0  0  0  0  0  0  # atno 6908 bound_to 6896
  152.3195  133.5801  159.5771 H   0  0  0  0  0  0  0  0  0  0  0  0  # atno 6909 bound_to 6896
  144.8118  139.6873  143.6138 H   0  0  0  0  0  0  0  0  0  0  0  0  # atno 7974 bound_to 7965
  154.4077  140.1254  156.4785 H   0  0  0  0  0  0  0  0  0  0  0  0  # atno 8008 bound_to 7997
  155.7109  140.3494  155.4954 H   0  0  0  0  0  0  0  0  0  0  0  0  # atno 8009 bound_to 7997
  155.9301  140.1068  157.1129 H   0  0  0  0  0  0  0  0  0  0  0  0  # atno 8010 bound_to 7997
  140.0314  143.5245  152.2175 H   0  0  0  0  0  0  0  0  0  0  0  0  # atno 10167 bound_to 10162
  156.2934  130.7388  151.1420 H   0  0  0  0  0  0  0  0  0  0  0  0  # atno 10718 bound_to 10713
  153.4946  135.7017  153.5865 H   0  0  0  0  0  0  0  0  0  0  0  0  # atno 10763 bound_to 10752
  153.4023  135.3869  155.1995 H   0  0  0  0  0  0  0  0  0  0  0  0  # atno 10764 bound_to 10752
  154.8714  135.3884  154.4410 H   0  0  0  0  0  0  0  0  0  0  0  0  # atno 10765 bound_to 10752
  141.1073  133.8772  157.1682 H   0  0  0  0  0  0  0  0  0  0  0  0  # atno 11005 bound_to 11000
  146.2418  139.6017  142.9486 LP  0  0  0  0  0  0  0  0  0  0  0  0  # atno 17320 bound_to 7965
  145.5305  141.0427  143.2385 LP  0  0  0  0  0  0  0  0  0  0  0  0  # atno 17321 bound_to 7965
  139.6074  144.7600  151.3031 LP  0  0  0  0  0  0  0  0  0  0  0  0  # atno 17342 bound_to 10162
  140.7300  143.6891  150.7937 LP  0  0  0  0  0  0  0  0  0  0  0  0  # atno 17343 bound_to 10162
  157.7348  131.0578  150.5501 LP  0  0  0  0  0  0  0  0  0  0  0  0  # atno 17370 bound_to 10713
  156.5620  130.4258  149.6058 LP  0  0  0  0  0  0  0  0  0  0  0  0  # atno 17371 bound_to 10713
  139.9950  135.0050  157.0061 LP  0  0  0  0  0  0  0  0  0  0  0  0  # atno 17394 bound_to 11000
  140.4867  134.1234  155.7226 LP  0  0  0  0  0  0  0  0  0  0  0  0  # atno 17395 bound_to 11000

$$$$
