AV-unprocessed.smi:833|AV-procd|sdf|3880|dock4
  -GOLD-   22720 1333D 1   1.00000     0.00000
 Structure written by MMmdl.
 39 40  0  0  0  0  0  0  0  0  1 V2000
  146.0273  133.9090  150.7509 C   0  0  0  0  0  0  0  0  0  0  0  0
  144.9707  134.9830  151.0399 C   0  0  2  0  0  0  0  0  0  0  0  0
  145.2012  136.0541  150.1476 O   0  0  0  0  0  0  0  0  0  0  0  0
  145.0660  135.5087  152.4856 C   0  0  0  0  0  0  0  0  0  0  0  0
  146.2815  136.2865  152.7040 N   0  0  0  0  0  0  0  0  0  0  0  0
  146.3196  137.5430  153.1691 C   0  0  0  0  0  0  0  0  0  0  0  0
  145.3137  138.1893  153.4618 O   0  0  0  0  0  0  0  0  0  0  0  0
  147.5837  137.9916  153.2471 N   0  0  0  0  0  0  0  0  0  0  0  0
  148.0502  139.2733  153.6585 C   0  0  0  0  0  0  0  0  0  0  0  0
  147.2381  140.4312  153.5714 C   0  0  0  0  0  0  0  0  0  0  0  0
  147.7601  141.6725  153.9745 C   0  0  0  0  0  0  0  0  0  0  0  0
  149.0789  141.7143  154.4557 C   0  0  0  0  0  0  0  0  0  0  0  0
  149.8577  140.6198  154.5640 N   0  0  0  0  0  0  0  0  0  0  0  0
  149.3633  139.4130  154.1932 C   0  0  0  0  0  0  0  0  0  0  0  0
  150.2160  138.2970  154.3527 N   0  0  0  0  0  0  0  0  0  0  0  0
  151.6450  138.4841  154.5819 C   0  0  0  0  0  0  0  0  0  0  0  0
  152.1418  137.1361  155.0955 C   0  0  0  0  0  0  0  0  0  0  0  0
  150.9600  136.6526  155.9304 C   0  0  0  0  0  0  0  0  0  0  0  0
  149.7397  137.1875  155.1734 C   0  0  0  0  0  0  0  0  0  0  0  0
  145.8883  133.0417  151.3968 H   0  0  0  0  0  0  0  0  0  0  0  0
  147.0367  134.2877  150.9157 H   0  0  0  0  0  0  0  0  0  0  0  0
  145.9643  133.5623  149.7189 H   0  0  0  0  0  0  0  0  0  0  0  0
  143.9826  134.5645  150.8440 H   0  0  0  0  0  0  0  0  0  0  0  0
  145.7135  135.7328  149.4216 H   0  0  0  0  0  0  0  0  0  0  0  0
  144.2042  136.1396  152.7109 H   0  0  0  0  0  0  0  0  0  0  0  0
  145.0305  134.6863  153.2011 H   0  0  0  0  0  0  0  0  0  0  0  0
  147.1562  135.8336  152.4833 H   0  0  0  0  0  0  0  0  0  0  0  0
  148.2939  137.3749  152.8808 H   0  0  0  0  0  0  0  0  0  0  0  0
  146.2222  140.3896  153.2108 H   0  0  0  0  0  0  0  0  0  0  0  0
  147.1637  142.5707  153.9141 H   0  0  0  0  0  0  0  0  0  0  0  0
  149.5181  142.6495  154.7700 H   0  0  0  0  0  0  0  0  0  0  0  0
  152.1582  138.7844  153.6679 H   0  0  0  0  0  0  0  0  0  0  0  0
  151.8213  139.2468  155.3413 H   0  0  0  0  0  0  0  0  0  0  0  0
  152.3107  136.4560  154.2594 H   0  0  0  0  0  0  0  0  0  0  0  0
  153.0675  137.2124  155.6665 H   0  0  0  0  0  0  0  0  0  0  0  0
  150.9404  135.5699  156.0555 H   0  0  0  0  0  0  0  0  0  0  0  0
  151.0039  137.1054  156.9219 H   0  0  0  0  0  0  0  0  0  0  0  0
  148.9478  137.4927  155.8592 H   0  0  0  0  0  0  0  0  0  0  0  0
  149.3412  136.4125  154.5183 H   0  0  0  0  0  0  0  0  0  0  0  0
  1  2  1  0  0  0  0
  1 20  1  0  0  0  0
  1 21  1  0  0  0  0
  1 22  1  0  0  0  0
  2  3  1  0  0  0  0
  2  4  1  0  0  0  0
  2 23  1  0  0  0  0
  3 24  1  0  0  0  0
  4  5  1  0  0  0  0
  4 25  1  0  0  0  0
  4 26  1  0  0  0  0
  5  6  1  0  0  0  0
  5 27  1  0  0  0  0
  6  7  2  0  0  0  0
  6  8  1  0  0  0  0
  8  9  1  0  0  0  0
  8 28  1  0  0  0  0
  9 14  1  0  0  0  0
  9 10  2  0  0  0  0
 10 11  1  0  0  0  0
 10 29  1  0  0  0  0
 11 12  2  0  0  0  0
 11 30  1  0  0  0  0
 12 13  1  0  0  0  0
 12 31  1  0  0  0  0
 13 14  2  0  0  0  0
 14 15  1  0  0  0  0
 15 19  1  0  0  0  0
 15 16  1  0  0  0  0
 16 17  1  0  0  0  0
 16 32  1  0  0  0  0
 16 33  1  0  0  0  0
 17 18  1  0  0  0  0
 17 34  1  0  0  0  0
 17 35  1  0  0  0  0
 18 19  1  0  0  0  0
 18 36  1  0  0  0  0
 18 37  1  0  0  0  0
 19 38  1  0  0  0  0
 19 39  1  0  0  0  0
M  END
> <s_m_source_file>
AV-unprocessed.smi

> <i_m_source_file_index>
833

> <i_lp_mmshare_version>
43012

> <i_f3d_flags>
0

> <s_epik_input>
W0NIM11bQ0BIXShbT0hdKVtDSDJdW05IXUMoPU8pW05IXWMxW2NIXVtjSF1bY0hdbmMxTjJbQ0gyXVtDSDJdW0NIMl1bQ0gyXTI=

> <s_epik_cmdline>
J2VwaWtfcHl0aG9uJywgJy1waCcsICc3LjAnLCAnLXRuJywgJzgnLCAnLW1hJywgJzIwMCcsICctbWV0YWxfYmluZGluZycsICctaW1hZScsICc8aW5maWxlLm1hZT4nLCAnLW9tYWUnLCAnPG91dGZpbGUubWFlPic=

> <r_lp_tautomer_probability>
1

> <r_epik_Ionization_Penalty>
0.0986749

> <r_epik_Ionization_Penalty_Charging>
0

> <r_epik_Ionization_Penalty_Neutral>
0.0986749

> <r_epik_State_Penalty>
0.0881977

> <r_epik_Charging_Adjusted_Penalty>
0.0881977

> <i_epik_Tot_Q>
0

> <i_epik_Tot_abs_Q>
0

> <r_epik_Metal_State_Penalty>
0.0755487

> <b_epik_Metal_Only>
0

> <s_lp_Force_Field>
OPLS_2005

> <r_lp_Energy>
31.5613

> <b_lp_Chiralities_Consistent>
1

> <s_lp_Variant>
AV-unprocessed.smi:833-1

> <Gold.Version>
5.8.1

> <Gold.Id.Protein>
6NUR|6NUR_protein|mol2

> <Gold.PLP.Fitness>
41.0964

> <Gold.PLP.PLP>
-28.0136

> <Gold.PLP.part.hbond>
-5.0000

> <Gold.PLP.part.metal>
0.0000

> <Gold.PLP.part.buried>
1.5530

> <Gold.PLP.part.nonpolar>
-25.3579

> <Gold.PLP.part.repulsive>
1.5213

> <Gold.PLP.ligand.clash>
0.0000

> <Gold.PLP.ligand.torsion>
0.3883

> <Gold.PLP.Chemscore.Hbond>
3.5167

> <Gold.PLP.Chemscore.CHOScore>
1.0000

> <Gold.PLP.Chemscore.Metal>
0.0000

> <Gold.Chemscore.Hbonds>
donor molecule, donor type, donor heavy atom, donor atom, acceptor molecule, acceptor atom, score
      L1  H     3    24       P1  7921  0.98
      L1  H     5    27       P1  7948  0.83
      L1  H     8    28       P1  7948  1.00
      P1  H  7989  7998       L1    13  0.70
      L1  C    12    31       P1  8028  1.00

> <Gold.PLP.Chemscore.Internal.Correction>
0.3093

> <Gold.Rescore>
     Score         DG    S(hbond)    S(metal)    S(lipo)     H(rot)  DE(clash)    DE(int)     intcor
     15.83     -17.78       2.90        0.00      66.71       2.03       0.29       1.66       ----

> <Gold.Chemscore.Fitness>
15.8319

> <Gold.Chemscore.DG>
-17.7802

> <Gold.Chemscore.ZeroCoef>
-5.4800

> <Gold.Chemscore.Hbond>
2.9021

> <Gold.Chemscore.Metal>
0.0000

> <Gold.Chemscore.Lipo>
66.7144

> <Gold.Chemscore.Internal_Hbond>
0.0000

> <Gold.Chemscore.DEClash>
0.2912

> <Gold.Chemscore.DEInternal>
1.6571

> <Gold.Chemscore.Rot>
2.0306

> <Gold.Chemscore.Internal.Correction>
   9.000000E+99

> <Gold.Chemscore.Hbonds>
donor molecule, donor type, donor heavy atom, donor atom, acceptor molecule, acceptor atom, score
      L1  H     3    24       P1  7921  0.92
      L1  H     5    27       P1  7948  0.83
      L1  H     8    28       P1  7948  0.99
      P1  H  7989  7998       L1    13  0.28

> <Gold.Chemscore.Hbond.Weighted>
-9.6930

> <Gold.Chemscore.Metal.Weighted>
-0.0000

> <Gold.Chemscore.Lipo.Weighted>
-7.8056

> <Gold.Chemscore.Internal_Hbond.Weighted>
0.0000

> <Gold.Chemscore.DEClash.Weighted>
0.2912

> <Gold.Chemscore.DEInternal.Weighted>
1.6571

> <Gold.Chemscore.Rot.Weighted>
5.1984

> <Gold.Chemscore.Internal.Correction.Weighted>
   9.000000E+99

> <Gold.Protein.RotatedTorsions>
[ 6907 6896 6895 6894 ] final  -37.61 input  -60.11 | X-H torsion
[ 7974 7965 7964 7962 ] final   80.45 input  175.53 | X-H torsion
[ 8008 7997 7996 7995 ] final  -16.68 input   59.86 | X-H torsion
[ 10167 10162 10161 10158 ] final   63.53 input  -65.29 | X-H torsion
[ 10718 10713 10712 10709 ] final -142.83 input   66.30 | X-H torsion
[ 10763 10752 10751 10750 ] final  -54.64 input  -60.55 | X-H torsion
[ 11005 11000 10999 10996 ] final   82.86 input  -57.11 | X-H torsion

> <Gold.Protein.ActiveResidues>
 VAL166  LYS551  ARG553  GLY616  TRP617  ASP618  TYR619  PRO620  LYS621  CYS622 
 ASP623  PHE694  ASN695  SER759  ASP760  ASP761  ALA762  ILE779  LEU786  VAL792 
 PHE793  MET794  SER795  GLU796  ALA797  LYS798  CYS799  TRP800  GLU811  SER814 

> <Gold.Protein.RotatedAtoms>
  151.0125  134.9408  159.8014 H   0  0  0  0  0  0  0  0  0  0  0  0  # atno 6907 bound_to 6896
  152.5306  134.3009  159.9088 H   0  0  0  0  0  0  0  0  0  0  0  0  # atno 6908 bound_to 6896
  151.3015  133.4078  159.2674 H   0  0  0  0  0  0  0  0  0  0  0  0  # atno 6909 bound_to 6896
  145.6511  139.2448  143.1976 H   0  0  0  0  0  0  0  0  0  0  0  0  # atno 7974 bound_to 7965
  154.5035  140.2163  155.9299 H   0  0  0  0  0  0  0  0  0  0  0  0  # atno 8008 bound_to 7997
  156.1464  140.3170  155.8543 H   0  0  0  0  0  0  0  0  0  0  0  0  # atno 8009 bound_to 7997
  155.4023  140.0485  157.3027 H   0  0  0  0  0  0  0  0  0  0  0  0  # atno 8010 bound_to 7997
  140.1320  144.4634  150.6859 H   0  0  0  0  0  0  0  0  0  0  0  0  # atno 10167 bound_to 10162
  156.3506  130.7686  151.1838 H   0  0  0  0  0  0  0  0  0  0  0  0  # atno 10718 bound_to 10713
  154.1780  135.6448  153.5027 H   0  0  0  0  0  0  0  0  0  0  0  0  # atno 10763 bound_to 10752
  153.0066  135.5399  154.6543 H   0  0  0  0  0  0  0  0  0  0  0  0  # atno 10764 bound_to 10752
  154.5900  135.2933  155.0617 H   0  0  0  0  0  0  0  0  0  0  0  0  # atno 10765 bound_to 10752
  139.9050  134.8102  156.2231 H   0  0  0  0  0  0  0  0  0  0  0  0  # atno 11005 bound_to 11000
  146.1203  140.7317  142.9461 LP  0  0  0  0  0  0  0  0  0  0  0  0  # atno 17320 bound_to 7965
  144.7122  140.4081  143.7071 LP  0  0  0  0  0  0  0  0  0  0  0  0  # atno 17321 bound_to 7965
  140.6811  143.2327  151.5381 LP  0  0  0  0  0  0  0  0  0  0  0  0  # atno 17342 bound_to 10162
  139.5515  144.2384  152.1538 LP  0  0  0  0  0  0  0  0  0  0  0  0  # atno 17343 bound_to 10162
  157.7460  131.0428  150.4715 LP  0  0  0  0  0  0  0  0  0  0  0  0  # atno 17370 bound_to 10713
  156.4910  130.4095  149.6407 LP  0  0  0  0  0  0  0  0  0  0  0  0  # atno 17371 bound_to 10713
  141.0393  133.6946  156.1569 LP  0  0  0  0  0  0  0  0  0  0  0  0  # atno 17394 bound_to 11000
  140.6979  134.4595  157.5587 LP  0  0  0  0  0  0  0  0  0  0  0  0  # atno 17395 bound_to 11000

$$$$
