AV-unprocessed.smi:363|AV-procd|sdf|2423|dock6
  -GOLD-   2262022363D 1   1.00000     0.00000
 Structure written by MMmdl.
 39 40  0  0  0  0  0  0  0  0  1 V2000
  144.3904  144.0929  156.5143 C   0  0  0  0  0  0  0  0  0  0  0  0
  145.6158  143.1883  156.4700 C   0  0  0  0  0  0  0  0  0  0  0  0
  146.1595  142.8474  155.1760 C   0  0  0  0  0  0  0  0  0  0  0  0
  147.2085  142.0177  155.0596 C   0  0  0  0  0  0  0  0  0  0  0  0
  147.7621  141.6527  153.6861 C   0  0  0  0  0  0  0  0  0  0  0  0
  147.8265  141.4691  156.2173 N   0  0  0  0  0  0  0  0  0  0  0  0
  148.9836  140.5557  156.0648 C   0  0  0  0  0  0  0  0  0  0  0  0
  150.3152  141.3234  155.8889 C   0  0  2  0  0  0  0  0  0  0  0  0
  151.1504  140.6062  155.0018 O   0  0  0  0  0  0  0  0  0  0  0  0
  151.0055  141.5365  157.2278 C   0  0  0  0  0  0  0  0  0  0  0  0
  151.3828  140.4261  158.0132 C   0  0  0  0  0  0  0  0  0  0  0  0
  152.0261  140.6176  159.2515 C   0  0  0  0  0  0  0  0  0  0  0  0
  152.2978  141.9207  159.7113 C   0  0  0  0  0  0  0  0  0  0  0  0
  153.0847  142.1544  161.2289 Cl  0  0  0  0  0  0  0  0  0  0  0  0
  151.9267  143.0324  158.9307 C   0  0  0  0  0  0  0  0  0  0  0  0
  151.2834  142.8411  157.6924 C   0  0  0  0  0  0  0  0  0  0  0  0
  147.3954  141.7689  157.4847 C   0  0  0  0  0  0  0  0  0  0  0  0
  147.9967  141.3263  158.4689 O   0  0  0  0  0  0  0  0  0  0  0  0
  146.2032  142.6561  157.5755 C   0  0  0  0  0  0  0  0  0  0  0  0
  145.7053  142.9563  158.9321 C   0  0  0  0  0  0  0  0  0  0  0  0
  145.8814  144.2217  159.3363 N   0  0  0  0  0  0  0  0  0  0  0  0
  145.2310  142.1258  159.7057 O   0  0  0  0  0  0  0  0  0  0  0  0
  143.9697  144.2346  155.5186 H   0  0  0  0  0  0  0  0  0  0  0  0
  144.6544  145.0756  156.9058 H   0  0  0  0  0  0  0  0  0  0  0  0
  143.6069  143.6645  157.1400 H   0  0  0  0  0  0  0  0  0  0  0  0
  145.7061  143.2598  154.2861 H   0  0  0  0  0  0  0  0  0  0  0  0
  147.0638  141.9429  152.9004 H   0  0  0  0  0  0  0  0  0  0  0  0
  147.9286  140.5828  153.5743 H   0  0  0  0  0  0  0  0  0  0  0  0
  148.6988  142.1790  153.5004 H   0  0  0  0  0  0  0  0  0  0  0  0
  149.0464  139.9080  156.9379 H   0  0  0  0  0  0  0  0  0  0  0  0
  148.8529  139.8341  155.2561 H   0  0  0  0  0  0  0  0  0  0  0  0
  150.1285  142.2986  155.4379 H   0  0  0  0  0  0  0  0  0  0  0  0
  151.3611  139.7738  155.3964 H   0  0  0  0  0  0  0  0  0  0  0  0
  151.1810  139.4218  157.6702 H   0  0  0  0  0  0  0  0  0  0  0  0
  152.3107  139.7632  159.8479 H   0  0  0  0  0  0  0  0  0  0  0  0
  152.1350  144.0331  159.2796 H   0  0  0  0  0  0  0  0  0  0  0  0
  151.0043  143.6998  157.0993 H   0  0  0  0  0  0  0  0  0  0  0  0
  145.5827  144.5031  160.2589 H   0  0  0  0  0  0  0  0  0  0  0  0
  146.3281  144.8864  158.7212 H   0  0  0  0  0  0  0  0  0  0  0  0
  1  2  1  0  0  0  0
  1 23  1  0  0  0  0
  1 24  1  0  0  0  0
  1 25  1  0  0  0  0
  2 19  2  0  0  0  0
  2  3  1  0  0  0  0
  3  4  2  0  0  0  0
  3 26  1  0  0  0  0
  4  5  1  0  0  0  0
  4  6  1  0  0  0  0
  5 27  1  0  0  0  0
  5 28  1  0  0  0  0
  5 29  1  0  0  0  0
  6  7  1  0  0  0  0
  6 17  1  0  0  0  0
  7  8  1  0  0  0  0
  7 30  1  0  0  0  0
  7 31  1  0  0  0  0
  8  9  1  0  0  0  0
  8 10  1  0  0  0  0
  8 32  1  0  0  0  0
  9 33  1  0  0  0  0
 10 16  1  0  0  0  0
 10 11  2  0  0  0  0
 11 12  1  0  0  0  0
 11 34  1  0  0  0  0
 12 13  2  0  0  0  0
 12 35  1  0  0  0  0
 13 14  1  0  0  0  0
 13 15  1  0  0  0  0
 15 16  2  0  0  0  0
 15 36  1  0  0  0  0
 16 37  1  0  0  0  0
 17 18  2  0  0  0  0
 17 19  1  0  0  0  0
 19 20  1  0  0  0  0
 20 21  1  0  0  0  0
 20 22  2  0  0  0  0
 21 38  1  0  0  0  0
 21 39  1  0  0  0  0
M  END
> <s_m_source_file>
AV-unprocessed.smi

> <i_m_source_file_index>
363

> <i_lp_mmshare_version>
43012

> <i_f3d_flags>
0

> <s_epik_input>
W0NIM11jMVtjSF1jKFtDSDNdKW4oYyg9TyljMUMoPU8pW05IMl0pW0NIMl1bQ0BIXShbT0hdKWMyW2NIXVtjSF1jKENsKVtjSF1bY0hdMg==

> <s_epik_cmdline>
J2VwaWtfcHl0aG9uJywgJy1waCcsICc3LjAnLCAnLXRuJywgJzgnLCAnLW1hJywgJzIwMCcsICctbWV0YWxfYmluZGluZycsICctaW1hZScsICc8aW5maWxlLm1hZT4nLCAnLW9tYWUnLCAnPG91dGZpbGUubWFlPic=

> <r_lp_tautomer_probability>
1

> <r_epik_Ionization_Penalty>
3.91973e-07

> <r_epik_Ionization_Penalty_Charging>
1.35363e-07

> <r_epik_Ionization_Penalty_Neutral>
2.5661e-07

> <r_epik_State_Penalty>
-0

> <r_epik_Charging_Adjusted_Penalty>
1.35363e-07

> <i_epik_Tot_Q>
0

> <i_epik_Tot_abs_Q>
0

> <r_epik_Metal_State_Penalty>
-0

> <b_epik_Metal_Only>
0

> <s_lp_Force_Field>
OPLS_2005

> <r_lp_Energy>
39.7948

> <b_lp_Chiralities_Consistent>
1

> <s_lp_Variant>
AV-unprocessed.smi:363-1

> <Gold.Version>
5.8.1

> <Gold.Id.Protein>
6NUR|6NUR_protein|mol2

> <Gold.PLP.Fitness>
43.4560

> <Gold.PLP.PLP>
-41.1999

> <Gold.PLP.part.hbond>
-2.4348

> <Gold.PLP.part.metal>
0.0000

> <Gold.PLP.part.buried>
-5.9558

> <Gold.PLP.part.nonpolar>
-31.9048

> <Gold.PLP.part.repulsive>
0.0954

> <Gold.PLP.ligand.clash>
0.0000

> <Gold.PLP.ligand.torsion>
2.0484

> <Gold.PLP.Chemscore.Hbond>
2.0000

> <Gold.PLP.Chemscore.CHOScore>
0.0000

> <Gold.PLP.Chemscore.Metal>
0.0000

> <Gold.Chemscore.Hbonds>
donor molecule, donor type, donor heavy atom, donor atom, acceptor molecule, acceptor atom, score
      L1  H    21    39       P1  8029  0.21
      P1  H  6934  6946       L1    22  0.26
      P1  H  7989  7998       L1     9  0.93

> <Gold.PLP.Chemscore.Internal.Correction>
0.3528

> <Gold.Rescore>
     Score         DG    S(hbond)    S(metal)    S(lipo)     H(rot)  DE(clash)    DE(int)     intcor
     16.82     -18.92       1.94        0.00     102.11       1.95       0.06       2.03       ----

> <Gold.Chemscore.Fitness>
16.8178

> <Gold.Chemscore.DG>
-18.9170

> <Gold.Chemscore.ZeroCoef>
-5.4800

> <Gold.Chemscore.Hbond>
1.9404

> <Gold.Chemscore.Metal>
0.0000

> <Gold.Chemscore.Lipo>
102.1110

> <Gold.Chemscore.Internal_Hbond>
0.0000

> <Gold.Chemscore.DEClash>
0.0646

> <Gold.Chemscore.DEInternal>
2.0346

> <Gold.Chemscore.Rot>
1.9495

> <Gold.Chemscore.Internal.Correction>
   9.000000E+99

> <Gold.Chemscore.Hbonds>
donor molecule, donor type, donor heavy atom, donor atom, acceptor molecule, acceptor atom, score
      L1  H    21    39       P1  8029  0.21
      P1  H  6934  6946       L1    22  0.22
      P1  H  7989  7998       L1     9  0.87

> <Gold.Chemscore.Hbond.Weighted>
-6.4808

> <Gold.Chemscore.Metal.Weighted>
-0.0000

> <Gold.Chemscore.Lipo.Weighted>
-11.9470

> <Gold.Chemscore.Internal_Hbond.Weighted>
0.0000

> <Gold.Chemscore.DEClash.Weighted>
0.0646

> <Gold.Chemscore.DEInternal.Weighted>
2.0346

> <Gold.Chemscore.Rot.Weighted>
4.9908

> <Gold.Chemscore.Internal.Correction.Weighted>
   9.000000E+99

> <Gold.Protein.RotatedTorsions>
[ 6907 6896 6895 6894 ] final -119.82 input  -60.11 | X-H torsion
[ 7974 7965 7964 7962 ] final   51.81 input  175.53 | X-H torsion
[ 8008 7997 7996 7995 ] final  153.94 input   59.86 | X-H torsion
[ 10167 10162 10161 10158 ] final   92.21 input  -65.29 | X-H torsion
[ 10718 10713 10712 10709 ] final  169.09 input   66.30 | X-H torsion
[ 10763 10752 10751 10750 ] final  170.49 input  -60.55 | X-H torsion
[ 11005 11000 10999 10996 ] final   21.05 input  -57.11 | X-H torsion

> <Gold.Protein.ActiveResidues>
 VAL166  LYS551  ARG553  GLY616  TRP617  ASP618  TYR619  PRO620  LYS621  CYS622 
 ASP623  PHE694  ASN695  SER759  ASP760  ASP761  ALA762  ILE779  LEU786  VAL792 
 PHE793  MET794  SER795  GLU796  ALA797  LYS798  CYS799  TRP800  GLU811  SER814 

> <Gold.Protein.RotatedAtoms>
  150.8338  133.8047  159.3087 H   0  0  0  0  0  0  0  0  0  0  0  0  # atno 6907 bound_to 6896
  151.5769  135.1058  160.0017 H   0  0  0  0  0  0  0  0  0  0  0  0  # atno 6908 bound_to 6896
  152.4414  133.7413  159.6699 H   0  0  0  0  0  0  0  0  0  0  0  0  # atno 6909 bound_to 6896
  145.9876  139.4306  143.0093 H   0  0  0  0  0  0  0  0  0  0  0  0  # atno 7974 bound_to 7965
  156.2556  140.1980  156.6568 H   0  0  0  0  0  0  0  0  0  0  0  0  # atno 8008 bound_to 7997
  154.6494  140.0574  156.9964 H   0  0  0  0  0  0  0  0  0  0  0  0  # atno 8009 bound_to 7997
  155.1440  140.3245  155.4448 H   0  0  0  0  0  0  0  0  0  0  0  0  # atno 8010 bound_to 7997
  139.8298  144.6692  150.9413 H   0  0  0  0  0  0  0  0  0  0  0  0  # atno 10167 bound_to 10162
  157.0277  131.0250  151.2754 H   0  0  0  0  0  0  0  0  0  0  0  0  # atno 10718 bound_to 10713
  154.3983  135.2754  155.2112 H   0  0  0  0  0  0  0  0  0  0  0  0  # atno 10763 bound_to 10752
  154.4149  135.6014  153.5978 H   0  0  0  0  0  0  0  0  0  0  0  0  # atno 10764 bound_to 10752
  152.9831  135.5958  154.4247 H   0  0  0  0  0  0  0  0  0  0  0  0  # atno 10765 bound_to 10752
  140.3958  134.1771  155.7663 H   0  0  0  0  0  0  0  0  0  0  0  0  # atno 11005 bound_to 11000
  145.7677  140.9909  143.1166 LP  0  0  0  0  0  0  0  0  0  0  0  0  # atno 17320 bound_to 7965
  144.6879  139.9409  143.7475 LP  0  0  0  0  0  0  0  0  0  0  0  0  # atno 17321 bound_to 7965
  140.7807  143.4011  151.1147 LP  0  0  0  0  0  0  0  0  0  0  0  0  # atno 17342 bound_to 10162
  139.7666  143.8557  152.3112 LP  0  0  0  0  0  0  0  0  0  0  0  0  # atno 17343 bound_to 10162
  157.5201  130.7993  149.7800 LP  0  0  0  0  0  0  0  0  0  0  0  0  # atno 17370 bound_to 10713
  156.0080  130.3846  150.2363 LP  0  0  0  0  0  0  0  0  0  0  0  0  # atno 17371 bound_to 10713
  141.1874  133.8281  157.1031 LP  0  0  0  0  0  0  0  0  0  0  0  0  # atno 17394 bound_to 11000
  140.0373  134.9872  157.0894 LP  0  0  0  0  0  0  0  0  0  0  0  0  # atno 17395 bound_to 11000

$$$$
