AV-unprocessed.smi:3229|AV-procd|sdf|12327|dock7
  -GOLD-   2272018173D 1   1.00000     0.00000
 Structure written by MMmdl.
 35 36  0  0  0  0  0  0  0  0  1 V2000
  152.4172  143.5565  158.5983 C   0  0  0  0  0  0  0  0  0  0  0  0
  151.0378  142.9828  158.2562 C   0  0  0  0  0  0  0  0  0  0  0  0
  151.0888  141.8918  157.2380 C   0  0  0  0  0  0  0  0  0  0  0  0
  150.3918  141.8159  156.0576 C   0  0  0  0  0  0  0  0  0  0  0  0
  150.6575  140.6620  155.3179 N   0  0  0  0  0  0  0  0  0  0  0  0
  151.5373  139.8589  155.9221 C   0  0  0  0  0  0  0  0  0  0  0  0
  152.0264  138.5741  155.3333 C   0  0  0  0  0  0  0  0  0  0  0  0
  151.2061  138.0897  154.1214 C   0  0  0  0  0  0  0  0  0  0  0  0
  151.0252  136.6415  154.1017 N   0  0  0  0  0  0  0  0  0  0  0  0
  150.5194  135.9113  155.1077 C   0  0  0  0  0  0  0  0  0  0  0  0
  150.1750  136.3993  156.1845 O   0  0  0  0  0  0  0  0  0  0  0  0
  150.3482  134.4093  154.8464 C   0  0  2  0  0  0  0  0  0  0  0  0
  148.8969  133.9195  154.8799 C   0  0  0  0  0  0  0  0  0  0  0  0
  149.0728  132.4706  155.2749 C   0  0  0  0  0  0  0  0  0  0  0  0
  150.2213  132.5560  156.2745 C   0  0  0  0  0  0  0  0  0  0  0  0
  151.0248  133.6552  155.8536 O   0  0  0  0  0  0  0  0  0  0  0  0
  152.1165  140.4976  157.4556 S   0  0  0  0  0  0  0  0  0  0  0  0
  152.3331  144.3560  159.3346 H   0  0  0  0  0  0  0  0  0  0  0  0
  152.9018  143.9687  157.7126 H   0  0  0  0  0  0  0  0  0  0  0  0
  153.0722  142.7902  159.0135 H   0  0  0  0  0  0  0  0  0  0  0  0
  150.5674  142.6061  159.1648 H   0  0  0  0  0  0  0  0  0  0  0  0
  150.3951  143.7868  157.8954 H   0  0  0  0  0  0  0  0  0  0  0  0
  149.6890  142.5366  155.6664 H   0  0  0  0  0  0  0  0  0  0  0  0
  153.0690  138.7017  155.0414 H   0  0  0  0  0  0  0  0  0  0  0  0
  152.0215  137.8122  156.1139 H   0  0  0  0  0  0  0  0  0  0  0  0
  150.2148  138.5421  154.1514 H   0  0  0  0  0  0  0  0  0  0  0  0
  151.6686  138.4241  153.1916 H   0  0  0  0  0  0  0  0  0  0  0  0
  151.2785  136.1591  153.2513 H   0  0  0  0  0  0  0  0  0  0  0  0
  150.7978  134.1619  153.8834 H   0  0  0  0  0  0  0  0  0  0  0  0
  148.3153  134.4451  155.6395 H   0  0  0  0  0  0  0  0  0  0  0  0
  148.3909  134.0331  153.9206 H   0  0  0  0  0  0  0  0  0  0  0  0
  148.1709  132.0261  155.6966 H   0  0  0  0  0  0  0  0  0  0  0  0
  149.3728  131.8810  154.4075 H   0  0  0  0  0  0  0  0  0  0  0  0
  149.8393  132.7711  157.2733 H   0  0  0  0  0  0  0  0  0  0  0  0
  150.8001  131.6336  156.3251 H   0  0  0  0  0  0  0  0  0  0  0  0
  1  2  1  0  0  0  0
  1 18  1  0  0  0  0
  1 19  1  0  0  0  0
  1 20  1  0  0  0  0
  2  3  1  0  0  0  0
  2 21  1  0  0  0  0
  2 22  1  0  0  0  0
  3 17  1  0  0  0  0
  3  4  2  0  0  0  0
  4  5  1  0  0  0  0
  4 23  1  0  0  0  0
  5  6  2  0  0  0  0
  6  7  1  0  0  0  0
  6 17  1  0  0  0  0
  7  8  1  0  0  0  0
  7 24  1  0  0  0  0
  7 25  1  0  0  0  0
  8  9  1  0  0  0  0
  8 26  1  0  0  0  0
  8 27  1  0  0  0  0
  9 10  1  0  0  0  0
  9 28  1  0  0  0  0
 10 11  2  0  0  0  0
 10 12  1  0  0  0  0
 12 16  1  0  0  0  0
 12 13  1  0  0  0  0
 12 29  1  0  0  0  0
 13 14  1  0  0  0  0
 13 30  1  0  0  0  0
 13 31  1  0  0  0  0
 14 15  1  0  0  0  0
 14 32  1  0  0  0  0
 14 33  1  0  0  0  0
 15 16  1  0  0  0  0
 15 34  1  0  0  0  0
 15 35  1  0  0  0  0
M  END
> <s_m_source_file>
AV-unprocessed.smi

> <i_m_source_file_index>
3229

> <i_lp_mmshare_version>
43012

> <i_f3d_flags>
0

> <s_epik_input>
W0NIM11bQ0gyXWMxW2NIXW5jKHMxKVtDSDJdW0NIMl1bTkhdQyg9TylbQ0BASF0yW0NIMl1bQ0gyXVtDSDJdTzI=

> <s_epik_cmdline>
J2VwaWtfcHl0aG9uJywgJy1waCcsICc3LjAnLCAnLXRuJywgJzgnLCAnLW1hJywgJzIwMCcsICctbWV0YWxfYmluZGluZycsICctaW1hZScsICc8aW5maWxlLm1hZT4nLCAnLW9tYWUnLCAnPG91dGZpbGUubWFlPic=

> <r_epik_Ionization_Penalty>
0.000508191

> <r_epik_Ionization_Penalty_Charging>
0

> <r_epik_Ionization_Penalty_Neutral>
0.000508191

> <r_epik_State_Penalty>
0.000316483

> <r_epik_Charging_Adjusted_Penalty>
0.000316483

> <i_epik_Tot_Q>
0

> <i_epik_Tot_abs_Q>
0

> <r_epik_Metal_State_Penalty>
-0

> <b_epik_Metal_Only>
0

> <s_lp_Force_Field>
OPLS_2005

> <r_lp_Energy>
9.62318

> <b_lp_Chiralities_Consistent>
1

> <s_lp_Variant>
AV-unprocessed.smi:3229-1

> <Gold.Version>
5.8.1

> <Gold.Id.Protein>
6NUR|6NUR_protein|mol2

> <Gold.PLP.Fitness>
40.0616

> <Gold.PLP.PLP>
-32.2828

> <Gold.PLP.part.hbond>
-3.0000

> <Gold.PLP.part.metal>
0.0000

> <Gold.PLP.part.buried>
-3.3445

> <Gold.PLP.part.nonpolar>
-25.9502

> <Gold.PLP.part.repulsive>
0.1920

> <Gold.PLP.ligand.clash>
0.0000

> <Gold.PLP.ligand.torsion>
0.4718

> <Gold.PLP.Chemscore.Hbond>
1.8960

> <Gold.PLP.Chemscore.CHOScore>
1.0000

> <Gold.PLP.Chemscore.Metal>
0.0000

> <Gold.Chemscore.Hbonds>
donor molecule, donor type, donor heavy atom, donor atom, acceptor molecule, acceptor atom, score
      L1  H     9    28       P1  7949  1.00
      P1  H  7989  7998       L1     5  0.77
      L1  C     4    23       P1  8028  1.00

> <Gold.PLP.Chemscore.Internal.Correction>
0.0344

> <Gold.Rescore>
     Score         DG    S(hbond)    S(metal)    S(lipo)     H(rot)  DE(clash)    DE(int)     intcor
     14.84     -16.79       1.57        0.00      86.88       1.60       0.25       1.69       ----

> <Gold.Chemscore.Fitness>
14.8435

> <Gold.Chemscore.DG>
-16.7871

> <Gold.Chemscore.ZeroCoef>
-5.4800

> <Gold.Chemscore.Hbond>
1.5714

> <Gold.Chemscore.Metal>
0.0000

> <Gold.Chemscore.Lipo>
86.8773

> <Gold.Chemscore.Internal_Hbond>
0.0000

> <Gold.Chemscore.DEClash>
0.2516

> <Gold.Chemscore.DEInternal>
1.6920

> <Gold.Chemscore.Rot>
1.6040

> <Gold.Chemscore.Internal.Correction>
   9.000000E+99

> <Gold.Chemscore.Hbonds>
donor molecule, donor type, donor heavy atom, donor atom, acceptor molecule, acceptor atom, score
      L1  H     9    28       P1  7949  0.58
      P1  H  7989  7998       L1     5  0.16

> <Gold.Chemscore.Hbond.Weighted>
-5.2486

> <Gold.Chemscore.Metal.Weighted>
-0.0000

> <Gold.Chemscore.Lipo.Weighted>
-10.1646

> <Gold.Chemscore.Internal_Hbond.Weighted>
0.0000

> <Gold.Chemscore.DEClash.Weighted>
0.2516

> <Gold.Chemscore.DEInternal.Weighted>
1.6920

> <Gold.Chemscore.Rot.Weighted>
4.1062

> <Gold.Chemscore.Internal.Correction.Weighted>
   9.000000E+99

> <Gold.Protein.RotatedTorsions>
[ 6907 6896 6895 6894 ] final  -27.33 input  -60.11 | X-H torsion
[ 7974 7965 7964 7962 ] final -149.73 input  175.53 | X-H torsion
[ 8008 7997 7996 7995 ] final   60.05 input   59.86 | X-H torsion
[ 10167 10162 10161 10158 ] final -165.30 input  -65.29 | X-H torsion
[ 10718 10713 10712 10709 ] final   35.24 input   66.30 | X-H torsion
[ 10763 10752 10751 10750 ] final -161.75 input  -60.55 | X-H torsion
[ 11005 11000 10999 10996 ] final  -26.05 input  -57.11 | X-H torsion

> <Gold.Protein.ActiveResidues>
 VAL166  LYS551  ARG553  GLY616  TRP617  ASP618  TYR619  PRO620  LYS621  CYS622 
 ASP623  PHE694  ASN695  SER759  ASP760  ASP761  ALA762  ILE779  LEU786  VAL792 
 PHE793  MET794  SER795  GLU796  ALA797  LYS798  CYS799  TRP800  GLU811  SER814 

> <Gold.Protein.RotatedAtoms>
  151.1484  135.0215  159.8657 H   0  0  0  0  0  0  0  0  0  0  0  0  # atno 6907 bound_to 6896
  152.5453  134.1417  159.8492 H   0  0  0  0  0  0  0  0  0  0  0  0  # atno 6908 bound_to 6896
  151.1500  133.4868  159.2628 H   0  0  0  0  0  0  0  0  0  0  0  0  # atno 6909 bound_to 6896
  144.7950  140.5025  143.5747 H   0  0  0  0  0  0  0  0  0  0  0  0  # atno 7974 bound_to 7965
  155.5760  140.3490  155.4528 H   0  0  0  0  0  0  0  0  0  0  0  0  # atno 8008 bound_to 7997
  156.0409  140.1295  157.0182 H   0  0  0  0  0  0  0  0  0  0  0  0  # atno 8009 bound_to 7997
  154.4391  140.1024  156.6220 H   0  0  0  0  0  0  0  0  0  0  0  0  # atno 8010 bound_to 7997
  139.6192  144.0659  152.1916 H   0  0  0  0  0  0  0  0  0  0  0  0  # atno 10167 bound_to 10162
  157.3203  130.7444  149.6780 H   0  0  0  0  0  0  0  0  0  0  0  0  # atno 10718 bound_to 10713
  154.7275  135.3039  154.8946 H   0  0  0  0  0  0  0  0  0  0  0  0  # atno 10763 bound_to 10752
  153.9799  135.6731  153.4754 H   0  0  0  0  0  0  0  0  0  0  0  0  # atno 10764 bound_to 10752
  153.0888  135.4970  154.8570 H   0  0  0  0  0  0  0  0  0  0  0  0  # atno 10765 bound_to 10752
  140.8994  133.7534  156.0524 H   0  0  0  0  0  0  0  0  0  0  0  0  # atno 11005 bound_to 11000
  145.5698  139.1483  143.3295 LP  0  0  0  0  0  0  0  0  0  0  0  0  # atno 17320 bound_to 7965
  146.2214  140.5831  142.9015 LP  0  0  0  0  0  0  0  0  0  0  0  0  # atno 17321 bound_to 7965
  140.0297  144.6090  150.7498 LP  0  0  0  0  0  0  0  0  0  0  0  0  # atno 17342 bound_to 10162
  140.7371  143.2761  151.3739 LP  0  0  0  0  0  0  0  0  0  0  0  0  # atno 17343 bound_to 10162
  155.9685  130.4225  150.4520 LP  0  0  0  0  0  0  0  0  0  0  0  0  # atno 17370 bound_to 10713
  157.2534  131.0551  151.2365 LP  0  0  0  0  0  0  0  0  0  0  0  0  # atno 17371 bound_to 10713
  140.8249  134.3246  157.5369 LP  0  0  0  0  0  0  0  0  0  0  0  0  # atno 17394 bound_to 11000
  139.8740  134.9330  156.3569 LP  0  0  0  0  0  0  0  0  0  0  0  0  # atno 17395 bound_to 11000

$$$$
