AV-unprocessed.smi:1064|AV-procd|sdf|4664|dock3
  -GOLD-   22720 3173D 1   1.00000     0.00000
 Structure written by MMmdl.
 35 36  0  0  0  0  0  0  0  0  1 V2000
  153.1033  138.8376  156.7431 O   0  0  0  0  0  0  0  0  0  0  0  0
  152.1552  139.6127  156.6065 C   0  0  0  0  0  0  0  0  0  0  0  0
  151.7789  140.4580  157.5813 N   0  0  0  0  0  0  0  0  0  0  0  0
  152.3965  140.5465  158.8989 C   0  0  0  0  0  0  0  0  0  0  0  0
  153.1653  141.8664  159.0709 C   0  0  0  0  0  0  0  0  0  0  0  0
  152.9582  142.4772  160.4215 C   0  0  0  0  0  0  0  0  0  0  0  0
  153.4015  141.9305  161.5495 N   0  0  0  0  0  0  0  0  0  0  0  0
  152.9679  142.7883  162.5539 C   0  0  0  0  0  0  0  0  0  0  0  0
  152.2660  143.8276  161.9935 C   0  0  0  0  0  0  0  0  0  0  0  0
  152.2706  143.6199  160.6187 N   0  0  0  0  0  0  0  0  0  0  0  0
  151.6283  144.4579  159.6187 C   0  0  0  0  0  0  0  0  0  0  0  0
  151.1843  145.5802  160.1834 F   0  0  0  0  0  0  0  0  0  0  0  0
  152.4819  144.7574  158.6389 F   0  0  0  0  0  0  0  0  0  0  0  0
  151.4316  139.7064  155.4620 N   0  0  0  0  0  0  0  0  0  0  0  0
  150.3225  140.6436  155.2192 C   0  0  0  0  0  0  0  0  0  0  0  0
  148.9915  139.9387  155.5298 C   0  0  0  0  0  0  0  0  0  0  0  0
  148.7326  138.5183  154.4214 S   0  0  0  0  0  0  0  0  0  0  0  0
  150.3392  137.6832  154.6096 C   0  0  0  0  0  0  0  0  0  0  0  0
  151.5025  138.6724  154.4228 C   0  0  0  0  0  0  0  0  0  0  0  0
  151.0048  141.0794  157.3966 H   0  0  0  0  0  0  0  0  0  0  0  0
  151.6359  140.4395  159.6739 H   0  0  0  0  0  0  0  0  0  0  0  0
  153.0766  139.7023  159.0151 H   0  0  0  0  0  0  0  0  0  0  0  0
  154.2329  141.6891  158.9340 H   0  0  0  0  0  0  0  0  0  0  0  0
  152.8803  142.5802  158.2990 H   0  0  0  0  0  0  0  0  0  0  0  0
  153.1863  142.5901  163.5928 H   0  0  0  0  0  0  0  0  0  0  0  0
  151.7750  144.6744  162.4501 H   0  0  0  0  0  0  0  0  0  0  0  0
  150.7842  143.9381  159.1661 H   0  0  0  0  0  0  0  0  0  0  0  0
  150.4015  141.5615  155.8018 H   0  0  0  0  0  0  0  0  0  0  0  0
  150.3350  140.9711  154.1787 H   0  0  0  0  0  0  0  0  0  0  0  0
  148.9754  139.5931  156.5641 H   0  0  0  0  0  0  0  0  0  0  0  0
  148.1572  140.6302  155.4105 H   0  0  0  0  0  0  0  0  0  0  0  0
  150.3871  137.2207  155.5962 H   0  0  0  0  0  0  0  0  0  0  0  0
  150.4030  136.8790  153.8766 H   0  0  0  0  0  0  0  0  0  0  0  0
  151.4533  139.1291  153.4332 H   0  0  0  0  0  0  0  0  0  0  0  0
  152.4536  138.1387  154.4469 H   0  0  0  0  0  0  0  0  0  0  0  0
  1  2  2  0  0  0  0
  2  3  1  0  0  0  0
  2 14  1  0  0  0  0
  3  4  1  0  0  0  0
  3 20  1  0  0  0  0
  4  5  1  0  0  0  0
  4 21  1  0  0  0  0
  4 22  1  0  0  0  0
  5  6  1  0  0  0  0
  5 23  1  0  0  0  0
  5 24  1  0  0  0  0
  6 10  1  0  0  0  0
  6  7  2  0  0  0  0
  7  8  1  0  0  0  0
  8  9  2  0  0  0  0
  8 25  1  0  0  0  0
  9 10  1  0  0  0  0
  9 26  1  0  0  0  0
 10 11  1  0  0  0  0
 11 12  1  0  0  0  0
 11 13  1  0  0  0  0
 11 27  1  0  0  0  0
 14 19  1  0  0  0  0
 14 15  1  0  0  0  0
 15 16  1  0  0  0  0
 15 28  1  0  0  0  0
 15 29  1  0  0  0  0
 16 17  1  0  0  0  0
 16 30  1  0  0  0  0
 16 31  1  0  0  0  0
 17 18  1  0  0  0  0
 18 19  1  0  0  0  0
 18 32  1  0  0  0  0
 18 33  1  0  0  0  0
 19 34  1  0  0  0  0
 19 35  1  0  0  0  0
M  END
> <s_m_source_file>
AV-unprocessed.smi

> <i_m_source_file_index>
1064

> <i_lp_mmshare_version>
43012

> <i_f3d_flags>
0

> <s_epik_input>
W0NIMl0xW0NIMl1TW0NIMl1bQ0gyXU4xQyg9TylbTkhdW0NIMl1bQ0gyXWMybltjSF1bY0hdbjJbQ0hdKEYpRg==

> <s_epik_cmdline>
J2VwaWtfcHl0aG9uJywgJy1waCcsICc3LjAnLCAnLXRuJywgJzgnLCAnLW1hJywgJzIwMCcsICctbWV0YWxfYmluZGluZycsICctaW1hZScsICc8aW5maWxlLm1hZT4nLCAnLW9tYWUnLCAnPG91dGZpbGUubWFlPic=

> <r_lp_tautomer_probability>
1

> <r_epik_Ionization_Penalty>
0.100551

> <r_epik_Ionization_Penalty_Charging>
0.100507

> <r_epik_Ionization_Penalty_Neutral>
4.37624e-05

> <r_epik_State_Penalty>
0.0905262

> <r_epik_Charging_Adjusted_Penalty>
0.191033

> <i_epik_Tot_Q>
0

> <i_epik_Tot_abs_Q>
0

> <r_epik_Metal_State_Penalty>
0.077291

> <b_epik_Metal_Only>
0

> <s_lp_Force_Field>
OPLS_2005

> <r_lp_Energy>
25.4045

> <b_lp_Chiralities_Consistent>
1

> <s_lp_Variant>
AV-unprocessed.smi:1064-1

> <Gold.Version>
5.8.1

> <Gold.Id.Protein>
6NUR|6NUR_protein|mol2

> <Gold.PLP.Fitness>
51.4782

> <Gold.PLP.PLP>
-50.0330

> <Gold.PLP.part.hbond>
-1.0000

> <Gold.PLP.part.metal>
0.0000

> <Gold.PLP.part.buried>
-5.1379

> <Gold.PLP.part.nonpolar>
-42.8909

> <Gold.PLP.part.repulsive>
0.0893

> <Gold.PLP.ligand.clash>
0.2930

> <Gold.PLP.ligand.torsion>
0.5891

> <Gold.PLP.Chemscore.Hbond>
0.9424

> <Gold.PLP.Chemscore.CHOScore>
0.0000

> <Gold.PLP.Chemscore.Metal>
0.0000

> <Gold.Chemscore.Hbonds>
donor molecule, donor type, donor heavy atom, donor atom, acceptor molecule, acceptor atom, score
      P1  H  7997  8010       L1     1  0.99

> <Gold.PLP.Chemscore.Internal.Correction>
0.0893

> <Gold.Rescore>
     Score         DG    S(hbond)    S(metal)    S(lipo)     H(rot)  DE(clash)    DE(int)     intcor
     11.92     -12.49       0.40        0.00      83.70       1.61       0.11       0.46       ----

> <Gold.Chemscore.Fitness>
11.9160

> <Gold.Chemscore.DG>
-12.4905

> <Gold.Chemscore.ZeroCoef>
-5.4800

> <Gold.Chemscore.Hbond>
0.4010

> <Gold.Chemscore.Metal>
0.0000

> <Gold.Chemscore.Lipo>
83.6991

> <Gold.Chemscore.Internal_Hbond>
0.0000

> <Gold.Chemscore.DEClash>
0.1128

> <Gold.Chemscore.DEInternal>
0.4617

> <Gold.Chemscore.Rot>
1.6100

> <Gold.Chemscore.Internal.Correction>
   9.000000E+99

> <Gold.Chemscore.Hbonds>
donor molecule, donor type, donor heavy atom, donor atom, acceptor molecule, acceptor atom, score
      P1  H  7997  8010       L1     1  0.24

> <Gold.Chemscore.Hbond.Weighted>
-1.3393

> <Gold.Chemscore.Metal.Weighted>
-0.0000

> <Gold.Chemscore.Lipo.Weighted>
-9.7928

> <Gold.Chemscore.Internal_Hbond.Weighted>
0.0000

> <Gold.Chemscore.DEClash.Weighted>
0.1128

> <Gold.Chemscore.DEInternal.Weighted>
0.4617

> <Gold.Chemscore.Rot.Weighted>
4.1216

> <Gold.Chemscore.Internal.Correction.Weighted>
   9.000000E+99

> <Gold.Protein.RotatedTorsions>
[ 6907 6896 6895 6894 ] final  -86.36 input  -60.11 | X-H torsion
[ 7974 7965 7964 7962 ] final -137.21 input  175.53 | X-H torsion
[ 8008 7997 7996 7995 ] final   45.03 input   59.86 | X-H torsion
[ 10167 10162 10161 10158 ] final   54.66 input  -65.29 | X-H torsion
[ 10718 10713 10712 10709 ] final  127.45 input   66.30 | X-H torsion
[ 10763 10752 10751 10750 ] final    5.08 input  -60.55 | X-H torsion
[ 11005 11000 10999 10996 ] final -117.45 input  -57.11 | X-H torsion

> <Gold.Protein.ActiveResidues>
 VAL166  LYS551  ARG553  GLY616  TRP617  ASP618  TYR619  PRO620  LYS621  CYS622 
 ASP623  PHE694  ASN695  SER759  ASP760  ASP761  ALA762  ILE779  LEU786  VAL792 
 PHE793  MET794  SER795  GLU796  ALA797  LYS798  CYS799  TRP800  GLU811  SER814 

> <Gold.Protein.RotatedAtoms>
  150.6867  134.3063  159.4727 H   0  0  0  0  0  0  0  0  0  0  0  0  # atno 6907 bound_to 6896
  152.0953  134.9376  160.0580 H   0  0  0  0  0  0  0  0  0  0  0  0  # atno 6908 bound_to 6896
  152.0676  133.4056  159.4482 H   0  0  0  0  0  0  0  0  0  0  0  0  # atno 6909 bound_to 6896
  144.8861  140.6576  143.5175 H   0  0  0  0  0  0  0  0  0  0  0  0  # atno 7974 bound_to 7965
  155.3291  140.3401  155.4240 H   0  0  0  0  0  0  0  0  0  0  0  0  # atno 8008 bound_to 7997
  156.1871  140.1684  156.8202 H   0  0  0  0  0  0  0  0  0  0  0  0  # atno 8009 bound_to 7997
  154.5398  140.0727  156.8474 H   0  0  0  0  0  0  0  0  0  0  0  0  # atno 8010 bound_to 7997
  140.2278  144.3720  150.6426 H   0  0  0  0  0  0  0  0  0  0  0  0  # atno 10167 bound_to 10162
  157.5332  131.1098  150.8976 H   0  0  0  0  0  0  0  0  0  0  0  0  # atno 10718 bound_to 10713
  153.2636  135.6925  153.7553 H   0  0  0  0  0  0  0  0  0  0  0  0  # atno 10763 bound_to 10752
  153.6603  135.3361  155.3126 H   0  0  0  0  0  0  0  0  0  0  0  0  # atno 10764 bound_to 10752
  154.8439  135.4475  154.1634 H   0  0  0  0  0  0  0  0  0  0  0  0  # atno 10765 bound_to 10752
  141.0354  133.9917  157.3079 H   0  0  0  0  0  0  0  0  0  0  0  0  # atno 11005 bound_to 11000
  145.3867  139.1625  143.4251 LP  0  0  0  0  0  0  0  0  0  0  0  0  # atno 17320 bound_to 7965
  146.3025  140.3953  142.8699 LP  0  0  0  0  0  0  0  0  0  0  0  0  # atno 17321 bound_to 7965
  140.6208  143.2176  151.6698 LP  0  0  0  0  0  0  0  0  0  0  0  0  # atno 17342 bound_to 10162
  139.5121  144.3487  152.0672 LP  0  0  0  0  0  0  0  0  0  0  0  0  # atno 17343 bound_to 10162
  156.9551  130.5434  149.5284 LP  0  0  0  0  0  0  0  0  0  0  0  0  # atno 17370 bound_to 10713
  156.0438  130.5517  150.8834 LP  0  0  0  0  0  0  0  0  0  0  0  0  # atno 17371 bound_to 10713
  139.9237  135.0201  156.8157 LP  0  0  0  0  0  0  0  0  0  0  0  0  # atno 17394 bound_to 11000
  140.6332  133.9887  155.7671 LP  0  0  0  0  0  0  0  0  0  0  0  0  # atno 17395 bound_to 11000

$$$$
