AV-unprocessed.smi:2309|AV-procd|sdf|9253|dock2
  -GOLD-   2272012473D 1   1.00000     0.00000
 Structure written by MMmdl.
 34 35  0  0  0  0  0  0  0  0  1 V2000
  144.7634  142.6695  155.1160 C   0  0  0  0  0  0  0  0  0  0  0  0
  146.1981  142.3074  155.4574 C   0  0  0  0  0  0  0  0  0  0  0  0
  146.5254  142.3535  156.8156 N   0  0  0  0  0  0  0  0  0  0  0  0
  147.7248  142.0620  157.1994 C   0  0  0  0  0  0  0  0  0  0  0  0
  148.7249  141.6931  156.2837 N   0  0  0  0  0  0  0  0  0  0  0  0
  150.0508  141.3914  156.8507 C   0  0  0  0  0  0  0  0  0  0  0  0
  150.6399  142.5849  157.6363 C   0  0  2  0  0  0  0  0  0  0  0  0
  151.1704  143.5195  156.7160 O   0  0  0  0  0  0  0  0  0  0  0  0
  151.6940  142.1069  158.6339 C   0  0  0  0  0  0  0  0  0  0  0  0
  151.9199  140.7219  158.8122 C   0  0  0  0  0  0  0  0  0  0  0  0
  152.8804  140.2631  159.7334 C   0  0  0  0  0  0  0  0  0  0  0  0
  153.1433  138.5699  159.9343 Cl  0  0  0  0  0  0  0  0  0  0  0  0
  153.6235  141.1855  160.4920 C   0  0  0  0  0  0  0  0  0  0  0  0
  153.3986  142.5651  160.3327 C   0  0  0  0  0  0  0  0  0  0  0  0
  152.4368  143.0301  159.4134 C   0  0  0  0  0  0  0  0  0  0  0  0
  152.1854  144.7361  159.2814 Cl  0  0  0  0  0  0  0  0  0  0  0  0
  148.4904  141.6234  154.9415 C   0  0  0  0  0  0  0  0  0  0  0  0
  149.3730  141.3000  154.1445 O   0  0  0  0  0  0  0  0  0  0  0  0
  147.1206  141.9588  154.5193 C   0  0  0  0  0  0  0  0  0  0  0  0
  146.8216  141.8929  153.0266 C   0  0  0  0  0  0  0  0  0  0  0  0
  144.7350  143.5212  154.4358 H   0  0  0  0  0  0  0  0  0  0  0  0
  144.1978  142.9375  156.0094 H   0  0  0  0  0  0  0  0  0  0  0  0
  144.2598  141.8262  154.6425 H   0  0  0  0  0  0  0  0  0  0  0  0
  148.0332  142.0874  158.2461 H   0  0  0  0  0  0  0  0  0  0  0  0
  149.9464  140.5377  157.5240 H   0  0  0  0  0  0  0  0  0  0  0  0
  150.7556  141.0446  156.0927 H   0  0  0  0  0  0  0  0  0  0  0  0
  149.8519  143.1088  158.1763 H   0  0  0  0  0  0  0  0  0  0  0  0
  150.4563  144.0152  156.3453 H   0  0  0  0  0  0  0  0  0  0  0  0
  151.3523  139.9989  158.2448 H   0  0  0  0  0  0  0  0  0  0  0  0
  154.3610  140.8371  161.2002 H   0  0  0  0  0  0  0  0  0  0  0  0
  153.9648  143.2701  160.9237 H   0  0  0  0  0  0  0  0  0  0  0  0
  147.0149  140.8886  152.6480 H   0  0  0  0  0  0  0  0  0  0  0  0
  147.4631  142.5884  152.4842 H   0  0  0  0  0  0  0  0  0  0  0  0
  145.7897  142.1409  152.7835 H   0  0  0  0  0  0  0  0  0  0  0  0
  1  2  1  0  0  0  0
  1 21  1  0  0  0  0
  1 22  1  0  0  0  0
  1 23  1  0  0  0  0
  2 19  2  0  0  0  0
  2  3  1  0  0  0  0
  3  4  2  0  0  0  0
  4  5  1  0  0  0  0
  4 24  1  0  0  0  0
  5  6  1  0  0  0  0
  5 17  1  0  0  0  0
  6  7  1  0  0  0  0
  6 25  1  0  0  0  0
  6 26  1  0  0  0  0
  7  8  1  0  0  0  0
  7  9  1  0  0  0  0
  7 27  1  0  0  0  0
  8 28  1  0  0  0  0
  9 15  1  0  0  0  0
  9 10  2  0  0  0  0
 10 11  1  0  0  0  0
 10 29  1  0  0  0  0
 11 12  1  0  0  0  0
 11 13  2  0  0  0  0
 13 14  1  0  0  0  0
 13 30  1  0  0  0  0
 14 15  2  0  0  0  0
 14 31  1  0  0  0  0
 15 16  1  0  0  0  0
 17 18  2  0  0  0  0
 17 19  1  0  0  0  0
 19 20  1  0  0  0  0
 20 32  1  0  0  0  0
 20 33  1  0  0  0  0
 20 34  1  0  0  0  0
M  END
> <s_m_source_file>
AV-unprocessed.smi

> <i_m_source_file_index>
2309

> <i_lp_mmshare_version>
43012

> <i_f3d_flags>
0

> <s_epik_input>
W0NIM11jMW5bY0hdbihjKD1PKWMxW0NIM10pW0NIMl1bQ0BIXShbT0hdKWMyW2NIXWMoQ2wpW2NIXVtjSF1jMkNs

> <s_epik_cmdline>
J2VwaWtfcHl0aG9uJywgJy1waCcsICc3LjAnLCAnLXRuJywgJzgnLCAnLW1hJywgJzIwMCcsICctbWV0YWxfYmluZGluZycsICctaW1hZScsICc8aW5maWxlLm1hZT4nLCAnLW9tYWUnLCAnPG91dGZpbGUubWFlPic=

> <r_lp_tautomer_probability>
1

> <r_epik_Ionization_Penalty>
5.09224e-05

> <r_epik_Ionization_Penalty_Charging>
7.56727e-08

> <r_epik_Ionization_Penalty_Neutral>
5.08468e-05

> <r_epik_State_Penalty>
-0

> <r_epik_Charging_Adjusted_Penalty>
7.56727e-08

> <i_epik_Tot_Q>
0

> <i_epik_Tot_abs_Q>
0

> <r_epik_Metal_State_Penalty>
-0

> <b_epik_Metal_Only>
0

> <s_lp_Force_Field>
OPLS_2005

> <r_lp_Energy>
19.5674

> <b_lp_Chiralities_Consistent>
1

> <s_lp_Variant>
AV-unprocessed.smi:2309-1

> <Gold.Version>
5.8.1

> <Gold.Id.Protein>
6NUR|6NUR_protein|mol2

> <Gold.PLP.Fitness>
46.5032

> <Gold.PLP.PLP>
-41.4749

> <Gold.PLP.part.hbond>
-3.0000

> <Gold.PLP.part.metal>
0.0000

> <Gold.PLP.part.buried>
-3.4210

> <Gold.PLP.part.nonpolar>
-33.8630

> <Gold.PLP.part.repulsive>
0.3321

> <Gold.PLP.ligand.clash>
0.0000

> <Gold.PLP.ligand.torsion>
0.2595

> <Gold.PLP.Chemscore.Hbond>
1.8444

> <Gold.PLP.Chemscore.CHOScore>
0.0000

> <Gold.PLP.Chemscore.Metal>
0.0000

> <Gold.Chemscore.Hbonds>
donor molecule, donor type, donor heavy atom, donor atom, acceptor molecule, acceptor atom, score
      L1  H     8    28       P1  8028  1.00
      P1  H  7989  7998       L1    18  0.06
      P1  H  8011  8017       L1    18  0.49

> <Gold.PLP.Chemscore.Internal.Correction>
0.0141

> <Gold.Rescore>
     Score         DG    S(hbond)    S(metal)    S(lipo)     H(rot)  DE(clash)    DE(int)     intcor
     18.98     -20.63       1.86        0.00     118.48       1.93       1.46       0.19       ----

> <Gold.Chemscore.Fitness>
18.9772

> <Gold.Chemscore.DG>
-20.6269

> <Gold.Chemscore.ZeroCoef>
-5.4800

> <Gold.Chemscore.Hbond>
1.8613

> <Gold.Chemscore.Metal>
0.0000

> <Gold.Chemscore.Lipo>
118.4768

> <Gold.Chemscore.Internal_Hbond>
0.0000

> <Gold.Chemscore.DEClash>
1.4625

> <Gold.Chemscore.DEInternal>
0.1872

> <Gold.Chemscore.Rot>
1.9265

> <Gold.Chemscore.Internal.Correction>
   9.000000E+99

> <Gold.Chemscore.Hbonds>
donor molecule, donor type, donor heavy atom, donor atom, acceptor molecule, acceptor atom, score
      L1  H     8    28       P1  8028  1.00
      P1  H  7989  7998       L1    18  0.07
      P1  H  8011  8017       L1    18  0.49

> <Gold.Chemscore.Hbond.Weighted>
-6.2169

> <Gold.Chemscore.Metal.Weighted>
-0.0000

> <Gold.Chemscore.Lipo.Weighted>
-13.8618

> <Gold.Chemscore.Internal_Hbond.Weighted>
0.0000

> <Gold.Chemscore.DEClash.Weighted>
1.4625

> <Gold.Chemscore.DEInternal.Weighted>
0.1872

> <Gold.Chemscore.Rot.Weighted>
4.9317

> <Gold.Chemscore.Internal.Correction.Weighted>
   9.000000E+99

> <Gold.Protein.RotatedTorsions>
[ 6907 6896 6895 6894 ] final   19.34 input  -60.11 | X-H torsion
[ 7974 7965 7964 7962 ] final  -40.74 input  175.53 | X-H torsion
[ 8008 7997 7996 7995 ] final  101.05 input   59.86 | X-H torsion
[ 10167 10162 10161 10158 ] final  -58.37 input  -65.29 | X-H torsion
[ 10718 10713 10712 10709 ] final  -23.74 input   66.30 | X-H torsion
[ 10763 10752 10751 10750 ] final -101.64 input  -60.55 | X-H torsion
[ 11005 11000 10999 10996 ] final  158.39 input  -57.11 | X-H torsion

> <Gold.Protein.ActiveResidues>
 VAL166  LYS551  ARG553  GLY616  TRP617  ASP618  TYR619  PRO620  LYS621  CYS622 
 ASP623  PHE694  ASN695  SER759  ASP760  ASP761  ALA762  ILE779  LEU786  VAL792 
 PHE793  MET794  SER795  GLU796  ALA797  LYS798  CYS799  TRP800  GLU811  SER814 

> <Gold.Protein.RotatedAtoms>
  151.8794  135.0459  160.0487 H   0  0  0  0  0  0  0  0  0  0  0  0  # atno 6907 bound_to 6896
  152.2525  133.5222  159.5342 H   0  0  0  0  0  0  0  0  0  0  0  0  # atno 6908 bound_to 6896
  150.7088  134.0857  159.3956 H   0  0  0  0  0  0  0  0  0  0  0  0  # atno 6909 bound_to 6896
  146.0276  140.6771  142.9148 H   0  0  0  0  0  0  0  0  0  0  0  0  # atno 7974 bound_to 7965
  156.1262  140.3203  155.8280 H   0  0  0  0  0  0  0  0  0  0  0  0  # atno 8008 bound_to 7997
  155.4416  140.0526  157.3027 H   0  0  0  0  0  0  0  0  0  0  0  0  # atno 8009 bound_to 7997
  154.4864  140.2074  155.9659 H   0  0  0  0  0  0  0  0  0  0  0  0  # atno 8010 bound_to 7997
  140.6201  143.2416  151.5500 H   0  0  0  0  0  0  0  0  0  0  0  0  # atno 10167 bound_to 10162
  156.4870  130.4558  149.6778 H   0  0  0  0  0  0  0  0  0  0  0  0  # atno 10718 bound_to 10713
  154.7673  135.4890  153.9579 H   0  0  0  0  0  0  0  0  0  0  0  0  # atno 10763 bound_to 10752
  153.1323  135.6755  153.9165 H   0  0  0  0  0  0  0  0  0  0  0  0  # atno 10764 bound_to 10752
  153.8865  135.3126  155.3425 H   0  0  0  0  0  0  0  0  0  0  0  0  # atno 10765 bound_to 10752
  140.1861  134.8441  157.2859 H   0  0  0  0  0  0  0  0  0  0  0  0  # atno 11005 bound_to 11000
  144.7016  140.3679  143.7151 LP  0  0  0  0  0  0  0  0  0  0  0  0  # atno 17320 bound_to 7965
  145.7092  139.1680  143.2548 LP  0  0  0  0  0  0  0  0  0  0  0  0  # atno 17321 bound_to 7965
  139.5432  144.2592  152.1391 LP  0  0  0  0  0  0  0  0  0  0  0  0  # atno 17342 bound_to 10162
  140.1810  144.4844  150.6528 LP  0  0  0  0  0  0  0  0  0  0  0  0  # atno 17343 bound_to 10162
  156.3464  130.7409  151.2362 LP  0  0  0  0  0  0  0  0  0  0  0  0  # atno 17370 bound_to 10713
  157.7477  131.0389  150.4526 LP  0  0  0  0  0  0  0  0  0  0  0  0  # atno 17371 bound_to 10713
  140.2212  134.4021  155.7565 LP  0  0  0  0  0  0  0  0  0  0  0  0  # atno 17394 bound_to 11000
  141.2225  133.7167  156.8493 LP  0  0  0  0  0  0  0  0  0  0  0  0  # atno 17395 bound_to 11000

$$$$
