AV-unprocessed.smi:1362|AV-procd|sdf|5562|dock8
  -GOLD-   22720 5153D 1   1.00000     0.00000
 Structure written by MMmdl.
 38 38  0  0  0  0  0  0  0  0  2 V2000
  153.7188  138.5371  154.3098 C   0  0  0  0  0  0  0  0  0  0  0  0
  152.6590  139.1203  155.2195 C   0  0  0  0  0  0  0  0  0  0  0  0
  151.5978  139.6153  154.7057 N   0  0  0  0  0  0  0  0  0  0  0  0
  150.6120  140.1598  155.5460 C   0  0  0  0  0  0  0  0  0  0  0  0
  149.3871  140.7289  154.8514 C   0  0  0  0  0  0  0  0  0  0  0  0
  150.7662  140.1690  156.9010 C   0  0  0  0  0  0  0  0  0  0  0  0
  149.7260  140.7538  157.8573 C   0  0  0  0  0  0  0  0  0  0  0  0
  150.1227  142.0365  158.5930 C   0  0  0  0  0  0  0  0  0  0  0  0
  149.3246  142.9661  158.7167 O   0  0  0  0  0  0  0  0  0  0  0  0
  151.3746  142.0702  159.0749 N   0  0  0  0  0  0  0  0  0  0  0  0
  151.9751  143.1817  159.8116 C   0  0  2  0  0  0  0  0  0  0  0  0
  153.0659  143.8264  158.9346 C   0  0  0  0  0  0  0  0  0  0  0  0
  152.5032  142.6884  161.1851 C   0  0  0  0  0  0  0  0  0  0  0  0
  152.7737  143.8522  162.1593 C   0  0  0  0  0  0  0  0  0  0  0  0
  153.7723  141.8272  161.0517 C   0  0  0  0  0  0  0  0  0  0  0  0
  152.0002  139.5827  157.4537 C   0  0  0  0  0  0  0  0  0  0  0  0
  152.1819  139.5510  158.6703 O   0  0  0  0  0  0  0  0  0  0  0  0
  152.9127  139.0827  156.5723 N   0  5  0  0  0  0  0  0  0  0  0  0
  153.3502  138.4432  153.2875 H   0  0  0  0  0  0  0  0  0  0  0  0
  154.0161  137.5466  154.6560 H   0  0  0  0  0  0  0  0  0  0  0  0
  154.5997  139.1793  154.2994 H   0  0  0  0  0  0  0  0  0  0  0  0
  149.3270  141.8058  155.0089 H   0  0  0  0  0  0  0  0  0  0  0  0
  148.4773  140.2690  155.2374 H   0  0  0  0  0  0  0  0  0  0  0  0
  149.4220  140.5481  153.7765 H   0  0  0  0  0  0  0  0  0  0  0  0
  148.7848  140.9314  157.3364 H   0  0  0  0  0  0  0  0  0  0  0  0
  149.4878  139.9987  158.6067 H   0  0  0  0  0  0  0  0  0  0  0  0
  151.9572  141.2597  158.9241 H   0  0  0  0  0  0  0  0  0  0  0  0
  151.2045  143.9313  160.0015 H   0  0  0  0  0  0  0  0  0  0  0  0
  153.4594  144.7381  159.3828 H   0  0  0  0  0  0  0  0  0  0  0  0
  152.6720  144.1039  157.9563 H   0  0  0  0  0  0  0  0  0  0  0  0
  153.9003  143.1433  158.7726 H   0  0  0  0  0  0  0  0  0  0  0  0
  151.7329  142.0621  161.6375 H   0  0  0  0  0  0  0  0  0  0  0  0
  153.5082  144.5466  161.7503 H   0  0  0  0  0  0  0  0  0  0  0  0
  153.1593  143.4864  163.1113 H   0  0  0  0  0  0  0  0  0  0  0  0
  151.8689  144.4180  162.3811 H   0  0  0  0  0  0  0  0  0  0  0  0
  154.5689  142.3706  160.5426 H   0  0  0  0  0  0  0  0  0  0  0  0
  153.5833  140.9089  160.4968 H   0  0  0  0  0  0  0  0  0  0  0  0
  154.1486  141.5299  162.0309 H   0  0  0  0  0  0  0  0  0  0  0  0
  1  2  1  0  0  0  0
  1 19  1  0  0  0  0
  1 20  1  0  0  0  0
  1 21  1  0  0  0  0
  2 18  1  0  0  0  0
  2  3  2  0  0  0  0
  3  4  1  0  0  0  0
  4  5  1  0  0  0  0
  4  6  2  0  0  0  0
  5 22  1  0  0  0  0
  5 23  1  0  0  0  0
  5 24  1  0  0  0  0
  6  7  1  0  0  0  0
  6 16  1  0  0  0  0
  7  8  1  0  0  0  0
  7 25  1  0  0  0  0
  7 26  1  0  0  0  0
  8  9  2  0  0  0  0
  8 10  1  0  0  0  0
 10 11  1  0  0  0  0
 10 27  1  0  0  0  0
 11 12  1  0  0  0  0
 11 13  1  0  0  0  0
 11 28  1  0  0  0  0
 12 29  1  0  0  0  0
 12 30  1  0  0  0  0
 12 31  1  0  0  0  0
 13 14  1  0  0  0  0
 13 15  1  0  0  0  0
 13 32  1  0  0  0  0
 14 33  1  0  0  0  0
 14 34  1  0  0  0  0
 14 35  1  0  0  0  0
 15 36  1  0  0  0  0
 15 37  1  0  0  0  0
 15 38  1  0  0  0  0
 16 17  2  0  0  0  0
 16 18  1  0  0  0  0
M  CHG  1  18  -1
M  END
> <s_m_source_file>
AV-unprocessed.smi

> <i_m_source_file_index>
1362

> <i_lp_mmshare_version>
43012

> <i_f3d_flags>
0

> <s_epik_input>
W0NIM11jMW5jKFtDSDNdKWMoYyg9TylbbkhdMSlbQ0gyXUMoPU8pW05IXVtDQEhdKFtDSDNdKVtDSF0oW0NIM10pW0NIM10=

> <s_epik_cmdline>
J2VwaWtfcHl0aG9uJywgJy1waCcsICc3LjAnLCAnLXRuJywgJzgnLCAnLW1hJywgJzIwMCcsICctbWV0YWxfYmluZGluZycsICctaW1hZScsICc8aW5maWxlLm1hZT4nLCAnLW9tYWUnLCAnPG91dGZpbGUubWFlPic=

> <r_lp_tautomer_probability>
0.839158

> <r_epik_Ionization_Penalty>
6.62204

> <r_epik_Ionization_Penalty_Charging>
7.30593e-08

> <r_epik_Ionization_Penalty_Neutral>
6.62204

> <r_epik_State_Penalty>
4.44062

> <r_epik_Charging_Adjusted_Penalty>
4.44062

> <i_epik_Tot_Q>
-1

> <i_epik_Tot_abs_Q>
1

> <r_epik_Metal_State_Penalty>
0.802984

> <b_epik_Metal_Only>
1

> <s_lp_Force_Field>
OPLS_2005

> <r_lp_Energy>
10.6651

> <b_lp_Chiralities_Consistent>
1

> <s_lp_Variant>
AV-unprocessed.smi:1362-5

> <Gold.Version>
5.8.1

> <Gold.Id.Protein>
6NUR|6NUR_protein|mol2

> <Gold.PLP.Fitness>
43.8230

> <Gold.PLP.PLP>
-35.8555

> <Gold.PLP.part.hbond>
-2.0593

> <Gold.PLP.part.metal>
0.0000

> <Gold.PLP.part.buried>
-4.4081

> <Gold.PLP.part.nonpolar>
-29.6450

> <Gold.PLP.part.repulsive>
0.3364

> <Gold.PLP.ligand.clash>
0.0000

> <Gold.PLP.ligand.torsion>
0.5306

> <Gold.PLP.Chemscore.Hbond>
3.0000

> <Gold.PLP.Chemscore.CHOScore>
0.0000

> <Gold.PLP.Chemscore.Metal>
0.0000

> <Gold.Chemscore.Hbonds>
donor molecule, donor type, donor heavy atom, donor atom, acceptor molecule, acceptor atom, score
      P1  H  7989  7998       L1     3  1.00
      P1  H  7997  8009       L1    18  2.00

> <Gold.PLP.Chemscore.Internal.Correction>
0.0286

> <Gold.Rescore>
     Score         DG    S(hbond)    S(metal)    S(lipo)     H(rot)  DE(clash)    DE(int)     intcor
     12.17     -15.60       1.17        0.00      89.17       1.64       0.16       3.27       ----

> <Gold.Chemscore.Fitness>
12.1706

> <Gold.Chemscore.DG>
-15.6002

> <Gold.Chemscore.ZeroCoef>
-5.4800

> <Gold.Chemscore.Hbond>
1.1661

> <Gold.Chemscore.Metal>
0.0000

> <Gold.Chemscore.Lipo>
89.1658

> <Gold.Chemscore.Internal_Hbond>
0.0000

> <Gold.Chemscore.DEClash>
0.1638

> <Gold.Chemscore.DEInternal>
3.2658

> <Gold.Chemscore.Rot>
1.6433

> <Gold.Chemscore.Internal.Correction>
   9.000000E+99

> <Gold.Chemscore.Hbonds>
donor molecule, donor type, donor heavy atom, donor atom, acceptor molecule, acceptor atom, score
      P1  H  7989  7998       L1     3  0.25
      P1  H  7997  8009       L1    18  0.26

> <Gold.Chemscore.Hbond.Weighted>
-3.8948

> <Gold.Chemscore.Metal.Weighted>
-0.0000

> <Gold.Chemscore.Lipo.Weighted>
-10.4324

> <Gold.Chemscore.Internal_Hbond.Weighted>
0.0000

> <Gold.Chemscore.DEClash.Weighted>
0.1638

> <Gold.Chemscore.DEInternal.Weighted>
3.2658

> <Gold.Chemscore.Rot.Weighted>
4.2069

> <Gold.Chemscore.Internal.Correction.Weighted>
   9.000000E+99

> <Gold.Protein.RotatedTorsions>
[ 6907 6896 6895 6894 ] final    2.32 input  -60.11 | X-H torsion
[ 7974 7965 7964 7962 ] final   76.46 input  175.53 | X-H torsion
[ 8008 7997 7996 7995 ] final  170.74 input   59.86 | X-H torsion
[ 10167 10162 10161 10158 ] final   21.46 input  -65.29 | X-H torsion
[ 10718 10713 10712 10709 ] final  -75.73 input   66.30 | X-H torsion
[ 10763 10752 10751 10750 ] final -125.55 input  -60.55 | X-H torsion
[ 11005 11000 10999 10996 ] final  134.65 input  -57.11 | X-H torsion

> <Gold.Protein.ActiveResidues>
 VAL166  LYS551  ARG553  GLY616  TRP617  ASP618  TYR619  PRO620  LYS621  CYS622 
 ASP623  PHE694  ASN695  SER759  ASP760  ASP761  ALA762  ILE779  LEU786  VAL792 
 PHE793  MET794  SER795  GLU796  ALA797  LYS798  CYS799  TRP800  GLU811  SER814 

> <Gold.Protein.RotatedAtoms>
  151.6069  135.1043  160.0072 H   0  0  0  0  0  0  0  0  0  0  0  0  # atno 6907 bound_to 6896
  152.4229  133.7142  159.6507 H   0  0  0  0  0  0  0  0  0  0  0  0  # atno 6908 bound_to 6896
  150.8117  133.8338  159.3201 H   0  0  0  0  0  0  0  0  0  0  0  0  # atno 6909 bound_to 6896
  145.7025  139.2587  143.1697 H   0  0  0  0  0  0  0  0  0  0  0  0  # atno 7974 bound_to 7965
  156.1337  140.1530  156.9027 H   0  0  0  0  0  0  0  0  0  0  0  0  # atno 8008 bound_to 7997
  154.4930  140.0846  156.7674 H   0  0  0  0  0  0  0  0  0  0  0  0  # atno 8009 bound_to 7997
  155.4209  140.3423  155.4273 H   0  0  0  0  0  0  0  0  0  0  0  0  # atno 8010 bound_to 7997
  140.5425  143.9653  150.6527 H   0  0  0  0  0  0  0  0  0  0  0  0  # atno 10167 bound_to 10162
  156.0198  130.4448  150.3087 H   0  0  0  0  0  0  0  0  0  0  0  0  # atno 10718 bound_to 10713
  154.8737  135.4026  154.3286 H   0  0  0  0  0  0  0  0  0  0  0  0  # atno 10763 bound_to 10752
  153.4103  135.7020  153.6369 H   0  0  0  0  0  0  0  0  0  0  0  0  # atno 10764 bound_to 10752
  153.5075  135.3714  155.2540 H   0  0  0  0  0  0  0  0  0  0  0  0  # atno 10765 bound_to 10752
  139.9928  134.9508  156.9896 H   0  0  0  0  0  0  0  0  0  0  0  0  # atno 11005 bound_to 11000
  146.0785  140.7791  142.9653 LP  0  0  0  0  0  0  0  0  0  0  0  0  # atno 17320 bound_to 7965
  144.6964  140.3451  143.7192 LP  0  0  0  0  0  0  0  0  0  0  0  0  # atno 17321 bound_to 7965
  140.3057  143.3231  152.0928 LP  0  0  0  0  0  0  0  0  0  0  0  0  # atno 17342 bound_to 10162
  139.4994  144.6668  151.6336 LP  0  0  0  0  0  0  0  0  0  0  0  0  # atno 17343 bound_to 10162
  157.1189  131.0241  151.3017 LP  0  0  0  0  0  0  0  0  0  0  0  0  # atno 17370 bound_to 10713
  157.4644  130.7672  149.7265 LP  0  0  0  0  0  0  0  0  0  0  0  0  # atno 17371 bound_to 10713
  140.4875  134.1227  155.7227 LP  0  0  0  0  0  0  0  0  0  0  0  0  # atno 17394 bound_to 11000
  141.1580  133.8846  157.1925 LP  0  0  0  0  0  0  0  0  0  0  0  0  # atno 17395 bound_to 11000

$$$$
