AV-unprocessed.smi:3303|AV-procd|sdf|12687|dock3
  -GOLD-   2272019 23D 1   1.00000     0.00000
 Structure written by MMmdl.
 44 45  0  0  0  0  0  0  0  0  2 V2000
  145.7155  136.6535  151.7804 C   0  0  0  0  0  0  0  0  0  0  0  0
  145.3139  136.1200  153.1665 C   0  0  2  0  0  0  0  0  0  0  0  0
  146.3882  136.4289  154.2280 C   0  0  0  0  0  0  0  0  0  0  0  0
  147.6143  135.6083  154.0509 N   0  3  1  0  0  0  0  0  0  0  0  0
  148.6794  136.0477  154.9845 C   0  0  0  0  0  0  0  0  0  0  0  0
  147.3209  134.1453  154.1083 C   0  0  2  0  0  0  0  0  0  0  0  0
  148.5795  133.2776  153.9117 C   0  0  0  0  0  0  0  0  0  0  0  0
  146.2614  133.7593  153.0516 C   0  0  0  0  0  0  0  0  0  0  0  0
  144.9805  134.6093  153.1292 C   0  0  1  0  0  0  0  0  0  0  0  0
  144.2111  134.1971  154.2969 N   0  0  0  0  0  0  0  0  0  0  0  0
  143.1413  135.1273  154.6330 C   0  0  0  0  0  0  0  0  0  0  0  0
  142.0787  135.1453  153.5212 C   0  0  0  0  0  0  0  0  0  0  0  0
  141.1567  136.3522  153.6006 C   0  0  0  0  0  0  0  0  0  0  0  0
  139.8286  136.2095  154.0560 C   0  0  0  0  0  0  0  0  0  0  0  0
  139.0026  137.3498  154.0878 C   0  0  0  0  0  0  0  0  0  0  0  0
  139.5327  138.5834  153.6629 C   0  0  0  0  0  0  0  0  0  0  0  0
  140.8716  138.6221  153.2257 C   0  0  0  0  0  0  0  0  0  0  0  0
  141.6713  137.5347  153.1908 N   0  0  0  0  0  0  0  0  0  0  0  0
  146.6277  136.1848  151.4112 H   0  0  0  0  0  0  0  0  0  0  0  0
  145.8874  137.7299  151.8100 H   0  0  0  0  0  0  0  0  0  0  0  0
  144.9287  136.4693  151.0484 H   0  0  0  0  0  0  0  0  0  0  0  0
  144.4217  136.6799  153.4448 H   0  0  0  0  0  0  0  0  0  0  0  0
  146.6416  137.4890  154.1857 H   0  0  0  0  0  0  0  0  0  0  0  0
  145.9835  136.2510  155.2261 H   0  0  0  0  0  0  0  0  0  0  0  0
  148.4359  135.7748  156.0121 H   0  0  0  0  0  0  0  0  0  0  0  0
  148.8074  137.1299  154.9437 H   0  0  0  0  0  0  0  0  0  0  0  0
  149.6442  135.6118  154.7269 H   0  0  0  0  0  0  0  0  0  0  0  0
  146.9165  133.9250  155.0979 H   0  0  0  0  0  0  0  0  0  0  0  0
  148.3180  132.2201  153.8618 H   0  0  0  0  0  0  0  0  0  0  0  0
  149.2836  133.3824  154.7369 H   0  0  0  0  0  0  0  0  0  0  0  0
  149.0984  133.5318  152.9870 H   0  0  0  0  0  0  0  0  0  0  0  0
  146.6958  133.8718  152.0573 H   0  0  0  0  0  0  0  0  0  0  0  0
  146.0095  132.7014  153.1409 H   0  0  0  0  0  0  0  0  0  0  0  0
  144.3777  134.3867  152.2471 H   0  0  0  0  0  0  0  0  0  0  0  0
  143.8092  133.2827  154.1443 H   0  0  0  0  0  0  0  0  0  0  0  0
  142.6662  134.8647  155.5774 H   0  0  0  0  0  0  0  0  0  0  0  0
  143.5701  136.1219  154.7584 H   0  0  0  0  0  0  0  0  0  0  0  0
  142.5734  135.1485  152.5494 H   0  0  0  0  0  0  0  0  0  0  0  0
  141.4842  134.2308  153.5522 H   0  0  0  0  0  0  0  0  0  0  0  0
  139.4482  135.2483  154.3696 H   0  0  0  0  0  0  0  0  0  0  0  0
  137.9805  137.2788  154.4295 H   0  0  0  0  0  0  0  0  0  0  0  0
  138.9284  139.4783  153.6729 H   0  0  0  0  0  0  0  0  0  0  0  0
  141.3113  139.5503  152.8921 H   0  0  0  0  0  0  0  0  0  0  0  0
  147.9539  135.8010  153.1193 H   0  0  0  0  0  0  0  0  0  0  0  0
  1  2  1  0  0  0  0
  1 19  1  0  0  0  0
  1 20  1  0  0  0  0
  1 21  1  0  0  0  0
  2  9  1  0  0  0  0
  2  3  1  0  0  0  0
  2 22  1  0  0  0  0
  3  4  1  0  0  0  0
  3 23  1  0  0  0  0
  3 24  1  0  0  0  0
  4  5  1  0  0  0  0
  4  6  1  0  0  0  0
  4 44  1  0  0  0  0
  5 25  1  0  0  0  0
  5 26  1  0  0  0  0
  5 27  1  0  0  0  0
  6  7  1  0  0  0  0
  6  8  1  0  0  0  0
  6 28  1  0  0  0  0
  7 29  1  0  0  0  0
  7 30  1  0  0  0  0
  7 31  1  0  0  0  0
  8  9  1  0  0  0  0
  8 32  1  0  0  0  0
  8 33  1  0  0  0  0
  9 10  1  0  0  0  0
  9 34  1  0  0  0  0
 10 11  1  0  0  0  0
 10 35  1  0  0  0  0
 11 12  1  0  0  0  0
 11 36  1  0  0  0  0
 11 37  1  0  0  0  0
 12 13  1  0  0  0  0
 12 38  1  0  0  0  0
 12 39  1  0  0  0  0
 13 18  1  0  0  0  0
 13 14  2  0  0  0  0
 14 15  1  0  0  0  0
 14 40  1  0  0  0  0
 15 16  2  0  0  0  0
 15 41  1  0  0  0  0
 16 17  1  0  0  0  0
 16 42  1  0  0  0  0
 17 18  2  0  0  0  0
 17 43  1  0  0  0  0
M  CHG  1   4   1
M  END
> <s_m_source_file>
AV-unprocessed.smi

> <i_m_source_file_index>
3303

> <i_lp_mmshare_version>
43012

> <i_f3d_flags>
0

> <s_epik_input>
W0NIM11bQ0BASF0xW0NIMl1OKFtDSDNdKVtDQEBIXShbQ0gzXSlbQ0gyXVtDQEhdMVtOSF1bQ0gyXVtDSDJdYzJbY0hdW2NIXVtjSF1bY0hdbjI=

> <s_epik_cmdline>
J2VwaWtfcHl0aG9uJywgJy1waCcsICc3LjAnLCAnLXRuJywgJzgnLCAnLW1hJywgJzIwMCcsICctbWV0YWxfYmluZGluZycsICctaW1hZScsICc8aW5maWxlLm1hZT4nLCAnLW9tYWUnLCAnPG91dGZpbGUubWFlPic=

> <r_epik_Ionization_Penalty>
2.31085

> <r_epik_Ionization_Penalty_Charging>
0.000313057

> <r_epik_Ionization_Penalty_Neutral>
2.31054

> <r_epik_State_Penalty>
2.4087

> <r_epik_Charging_Adjusted_Penalty>
2.40902

> <i_epik_Tot_Q>
1

> <i_epik_Tot_abs_Q>
1

> <r_epik_Metal_State_Penalty>
2.30979

> <b_epik_Metal_Only>
0

> <s_lp_Force_Field>
OPLS_2005

> <r_lp_Energy>
26.8033

> <b_lp_Chiralities_Consistent>
1

> <s_lp_Variant>
AV-unprocessed.smi:3303-31

> <Gold.Version>
5.8.1

> <Gold.Id.Protein>
6NUR|6NUR_protein|mol2

> <Gold.PLP.Fitness>
39.6318

> <Gold.PLP.PLP>
-26.0005

> <Gold.PLP.part.hbond>
-2.0000

> <Gold.PLP.part.metal>
0.0000

> <Gold.PLP.part.buried>
-2.0016

> <Gold.PLP.part.nonpolar>
-22.8595

> <Gold.PLP.part.repulsive>
0.2285

> <Gold.PLP.ligand.clash>
0.0000

> <Gold.PLP.ligand.torsion>
0.3580

> <Gold.PLP.Chemscore.Hbond>
2.9920

> <Gold.PLP.Chemscore.CHOScore>
1.7831

> <Gold.PLP.Chemscore.Metal>
0.0000

> <Gold.Chemscore.Hbonds>
donor molecule, donor type, donor heavy atom, donor atom, acceptor molecule, acceptor atom, score
      L1  H     4    44       P1  7948  2.00
      L1  H    10    35       P1 10957  0.99
      L1  C    17    43       P1 10160  0.76
      L1  C    17    43       P1 10175  1.00

> <Gold.PLP.Chemscore.Internal.Correction>
0.0220

> <Gold.Rescore>
     Score         DG    S(hbond)    S(metal)    S(lipo)     H(rot)  DE(clash)    DE(int)     intcor
     17.04     -17.31       1.99        0.00      73.46       1.33       0.11       0.16       ----

> <Gold.Chemscore.Fitness>
17.0448

> <Gold.Chemscore.DG>
-17.3084

> <Gold.Chemscore.ZeroCoef>
-5.4800

> <Gold.Chemscore.Hbond>
1.9854

> <Gold.Chemscore.Metal>
0.0000

> <Gold.Chemscore.Lipo>
73.4605

> <Gold.Chemscore.Internal_Hbond>
0.0000

> <Gold.Chemscore.DEClash>
0.1081

> <Gold.Chemscore.DEInternal>
0.1556

> <Gold.Chemscore.Rot>
1.3272

> <Gold.Chemscore.Internal.Correction>
   9.000000E+99

> <Gold.Chemscore.Hbonds>
donor molecule, donor type, donor heavy atom, donor atom, acceptor molecule, acceptor atom, score
      L1  H     4    44       P1  7948  1.00
      L1  H    10    35       P1 10957  0.91

> <Gold.Chemscore.Hbond.Weighted>
-6.6312

> <Gold.Chemscore.Metal.Weighted>
-0.0000

> <Gold.Chemscore.Lipo.Weighted>
-8.5949

> <Gold.Chemscore.Internal_Hbond.Weighted>
0.0000

> <Gold.Chemscore.DEClash.Weighted>
0.1081

> <Gold.Chemscore.DEInternal.Weighted>
0.1556

> <Gold.Chemscore.Rot.Weighted>
3.3976

> <Gold.Chemscore.Internal.Correction.Weighted>
   9.000000E+99

> <Gold.Protein.RotatedTorsions>
[ 6907 6896 6895 6894 ] final  -50.29 input  -60.11 | X-H torsion
[ 7974 7965 7964 7962 ] final   44.86 input  175.53 | X-H torsion
[ 8008 7997 7996 7995 ] final -151.01 input   59.86 | X-H torsion
[ 10167 10162 10161 10158 ] final   47.14 input  -65.29 | X-H torsion
[ 10718 10713 10712 10709 ] final   39.15 input   66.30 | X-H torsion
[ 10763 10752 10751 10750 ] final  -10.19 input  -60.55 | X-H torsion
[ 11005 11000 10999 10996 ] final   26.72 input  -57.11 | X-H torsion

> <Gold.Protein.ActiveResidues>
 VAL166  LYS551  ARG553  GLY616  TRP617  ASP618  TYR619  PRO620  LYS621  CYS622 
 ASP623  PHE694  ASN695  SER759  ASP760  ASP761  ALA762  ILE779  LEU786  VAL792 
 PHE793  MET794  SER795  GLU796  ALA797  LYS798  CYS799  TRP800  GLU811  SER814 

> <Gold.Protein.RotatedAtoms>
  150.8721  134.8097  159.7162 H   0  0  0  0  0  0  0  0  0  0  0  0  # atno 6907 bound_to 6896
  152.4722  134.4930  159.9711 H   0  0  0  0  0  0  0  0  0  0  0  0  # atno 6908 bound_to 6896
  151.5017  133.3464  159.2905 H   0  0  0  0  0  0  0  0  0  0  0  0  # atno 6909 bound_to 6896
  146.0531  139.5028  142.9705 H   0  0  0  0  0  0  0  0  0  0  0  0  # atno 7974 bound_to 7965
  155.6326  140.0693  157.2644 H   0  0  0  0  0  0  0  0  0  0  0  0  # atno 8008 bound_to 7997
  154.4202  140.1764  156.1537 H   0  0  0  0  0  0  0  0  0  0  0  0  # atno 8009 bound_to 7997
  155.9920  140.3344  155.6766 H   0  0  0  0  0  0  0  0  0  0  0  0  # atno 8010 bound_to 7997
  140.3066  144.2870  150.6208 H   0  0  0  0  0  0  0  0  0  0  0  0  # atno 10167 bound_to 10162
  157.3672  130.7681  149.7092 H   0  0  0  0  0  0  0  0  0  0  0  0  # atno 10718 bound_to 10713
  153.4656  135.7016  153.6024 H   0  0  0  0  0  0  0  0  0  0  0  0  # atno 10763 bound_to 10752
  153.4300  135.3805  155.2165 H   0  0  0  0  0  0  0  0  0  0  0  0  # atno 10764 bound_to 10752
  154.8726  135.3948  154.4087 H   0  0  0  0  0  0  0  0  0  0  0  0  # atno 10765 bound_to 10752
  140.3339  134.2407  155.7698 H   0  0  0  0  0  0  0  0  0  0  0  0  # atno 11005 bound_to 11000
  145.6689  141.0221  143.1668 LP  0  0  0  0  0  0  0  0  0  0  0  0  # atno 17320 bound_to 7965
  144.7133  139.8288  143.7407 LP  0  0  0  0  0  0  0  0  0  0  0  0  # atno 17321 bound_to 7965
  140.5604  143.2193  151.7774 LP  0  0  0  0  0  0  0  0  0  0  0  0  # atno 17342 bound_to 10162
  139.4903  144.4356  151.9823 LP  0  0  0  0  0  0  0  0  0  0  0  0  # atno 17343 bound_to 10162
  155.9748  130.4097  150.3893 LP  0  0  0  0  0  0  0  0  0  0  0  0  # atno 17370 bound_to 10713
  157.1979  131.0431  151.2666 LP  0  0  0  0  0  0  0  0  0  0  0  0  # atno 17371 bound_to 10713
  141.2056  133.7855  157.0223 LP  0  0  0  0  0  0  0  0  0  0  0  0  # atno 17394 bound_to 11000
  140.0837  134.9633  157.1666 LP  0  0  0  0  0  0  0  0  0  0  0  0  # atno 17395 bound_to 11000

$$$$
