AV-unprocessed.smi:15|AV-procd|sdf|79|dock1
  -GOLD-   2262015203D 1   1.00000     0.00000
 Structure written by MMmdl.
 53 56  0  0  0  0  0  0  0  0  1 V2000
  149.6199  141.4589  155.0442 C   0  0  0  0  0  0  0  0  0  0  0  0
  149.9613  140.1139  155.7052 C   0  0  0  0  0  0  0  0  0  0  0  0
  150.7150  140.2535  156.9514 N   0  0  0  0  0  0  0  0  0  0  0  0
  150.4795  141.4665  157.7303 C   0  0  0  0  0  0  0  0  0  0  0  0
  151.7869  142.0909  158.2415 C   0  0  2  0  0  0  0  0  0  0  0  0
  152.4644  141.2973  159.3594 C   0  0  0  0  0  0  0  0  0  0  0  0
  153.2159  142.3554  160.1542 C   0  0  0  0  0  0  0  0  0  0  0  0
  152.6851  143.6835  159.6083 C   0  0  0  0  0  0  0  0  0  0  0  0
  151.5242  143.3357  158.8680 O   0  0  0  0  0  0  0  0  0  0  0  0
  150.7295  139.1478  157.7269 C   0  0  0  0  0  0  0  0  0  0  0  0
  151.9400  138.6430  158.0687 N   0  0  0  0  0  0  0  0  0  0  0  0
  152.0134  137.5529  158.8388 C   0  0  0  0  0  0  0  0  0  0  0  0
  151.0194  136.8355  159.3680 N   0  0  0  0  0  0  0  0  0  0  0  0
  149.8014  137.3484  159.0302 C   0  0  0  0  0  0  0  0  0  0  0  0
  149.5662  138.4918  158.2171 C   0  0  0  0  0  0  0  0  0  0  0  0
  148.2007  138.7132  158.0901 N   0  0  0  0  0  0  0  0  0  0  0  0
  147.6584  137.7536  158.7889 C   0  0  0  0  0  0  0  0  0  0  0  0
  148.5465  136.8948  159.3979 N   0  0  0  0  0  0  0  0  0  0  0  0
  148.2179  135.7539  160.2396 C   0  0  0  0  0  0  0  0  0  0  0  0
  147.3442  136.1263  161.4664 C   0  0  1  0  0  0  0  0  0  0  0  0
  148.0044  137.1599  162.1773 O   0  0  0  0  0  0  0  0  0  0  0  0
  145.9523  136.6320  161.0918 C   0  0  0  0  0  0  0  0  0  0  0  0
  145.1018  136.2164  162.2822 C   0  0  0  0  0  0  0  0  0  0  0  0
  145.6221  134.9359  162.5909 O   0  0  0  0  0  0  0  0  0  0  0  0
  147.0416  134.9814  162.4750 C   0  0  1  0  0  0  0  0  0  0  0  0
  147.5291  133.5738  162.0975 C   0  0  0  0  0  0  0  0  0  0  0  0
  149.0078  141.3049  154.1555 H   0  0  0  0  0  0  0  0  0  0  0  0
  150.5156  141.9978  154.7338 H   0  0  0  0  0  0  0  0  0  0  0  0
  149.0599  142.0998  155.7257 H   0  0  0  0  0  0  0  0  0  0  0  0
  149.0332  139.5815  155.9116 H   0  0  0  0  0  0  0  0  0  0  0  0
  150.5187  139.4897  155.0062 H   0  0  0  0  0  0  0  0  0  0  0  0
  149.9536  142.1875  157.1033 H   0  0  0  0  0  0  0  0  0  0  0  0
  149.8231  141.2618  158.5783 H   0  0  0  0  0  0  0  0  0  0  0  0
  152.4871  142.2623  157.4223 H   0  0  0  0  0  0  0  0  0  0  0  0
  151.7153  140.8270  159.9980 H   0  0  0  0  0  0  0  0  0  0  0  0
  153.1150  140.5113  158.9752 H   0  0  0  0  0  0  0  0  0  0  0  0
  153.0077  142.2526  161.2197 H   0  0  0  0  0  0  0  0  0  0  0  0
  154.2948  142.2801  160.0144 H   0  0  0  0  0  0  0  0  0  0  0  0
  152.4532  144.3996  160.3969 H   0  0  0  0  0  0  0  0  0  0  0  0
  153.4138  144.1404  158.9371 H   0  0  0  0  0  0  0  0  0  0  0  0
  153.0113  137.2068  159.0643 H   0  0  0  0  0  0  0  0  0  0  0  0
  146.5875  137.6505  158.8866 H   0  0  0  0  0  0  0  0  0  0  0  0
  147.7043  135.0238  159.6134 H   0  0  0  0  0  0  0  0  0  0  0  0
  149.1493  135.2855  160.5608 H   0  0  0  0  0  0  0  0  0  0  0  0
  148.1717  136.8595  163.0577 H   0  0  0  0  0  0  0  0  0  0  0  0
  145.9097  137.7024  160.8851 H   0  0  0  0  0  0  0  0  0  0  0  0
  145.5889  136.1087  160.2065 H   0  0  0  0  0  0  0  0  0  0  0  0
  145.2475  136.8909  163.1274 H   0  0  0  0  0  0  0  0  0  0  0  0
  144.0381  136.1742  162.0481 H   0  0  0  0  0  0  0  0  0  0  0  0
  147.4413  135.2289  163.4605 H   0  0  0  0  0  0  0  0  0  0  0  0
  148.6141  133.5407  162.0002 H   0  0  0  0  0  0  0  0  0  0  0  0
  147.0896  133.2349  161.1591 H   0  0  0  0  0  0  0  0  0  0  0  0
  147.2492  132.8529  162.8660 H   0  0  0  0  0  0  0  0  0  0  0  0
  1  2  1  0  0  0  0
  1 27  1  0  0  0  0
  1 28  1  0  0  0  0
  1 29  1  0  0  0  0
  2  3  1  0  0  0  0
  2 30  1  0  0  0  0
  2 31  1  0  0  0  0
  3  4  1  0  0  0  0
  3 10  1  0  0  0  0
  4  5  1  0  0  0  0
  4 32  1  0  0  0  0
  4 33  1  0  0  0  0
  5  9  1  0  0  0  0
  5  6  1  0  0  0  0
  5 34  1  0  0  0  0
  6  7  1  0  0  0  0
  6 35  1  0  0  0  0
  6 36  1  0  0  0  0
  7  8  1  0  0  0  0
  7 37  1  0  0  0  0
  7 38  1  0  0  0  0
  8  9  1  0  0  0  0
  8 39  1  0  0  0  0
  8 40  1  0  0  0  0
 10 15  1  0  0  0  0
 10 11  2  0  0  0  0
 11 12  1  0  0  0  0
 12 13  2  0  0  0  0
 12 41  1  0  0  0  0
 13 14  1  0  0  0  0
 14 18  1  0  0  0  0
 14 15  2  0  0  0  0
 15 16  1  0  0  0  0
 16 17  2  0  0  0  0
 17 18  1  0  0  0  0
 17 42  1  0  0  0  0
 18 19  1  0  0  0  0
 19 20  1  0  0  0  0
 19 43  1  0  0  0  0
 19 44  1  0  0  0  0
 20 25  1  0  0  0  0
 20 21  1  0  0  0  0
 20 22  1  0  0  0  0
 21 45  1  0  0  0  0
 22 23  1  0  0  0  0
 22 46  1  0  0  0  0
 22 47  1  0  0  0  0
 23 24  1  0  0  0  0
 23 48  1  0  0  0  0
 23 49  1  0  0  0  0
 24 25  1  0  0  0  0
 25 26  1  0  0  0  0
 25 50  1  0  0  0  0
 26 51  1  0  0  0  0
 26 52  1  0  0  0  0
 26 53  1  0  0  0  0
M  END
> <s_m_source_file>
AV-unprocessed.smi

> <i_m_source_file_index>
15

> <i_lp_mmshare_version>
43012

> <i_f3d_flags>
0

> <s_epik_input>
TzFbQ0gyXVtDSDJdW0NIMl1bQ0BIXTFbQ0gyXU4oW0NIMl1bQ0gzXSljKG5bY0hdbjIpYyhjMjMpbltjSF1uM1tDSDJdW0NAQF00KFtPSF0pW0NIMl1bQ0gyXU9bQ0BIXTRbQ0gzXQ==

> <s_epik_cmdline>
J2VwaWtfcHl0aG9uJywgJy1waCcsICc3LjAnLCAnLXRuJywgJzgnLCAnLW1hJywgJzIwMCcsICctbWV0YWxfYmluZGluZycsICctaW1hZScsICc8aW5maWxlLm1hZT4nLCAnLW9tYWUnLCAnPG91dGZpbGUubWFlPic=

> <r_lp_tautomer_probability>
1

> <r_epik_Ionization_Penalty>
0.00360814

> <r_epik_Ionization_Penalty_Charging>
0

> <r_epik_Ionization_Penalty_Neutral>
0.00360814

> <r_epik_State_Penalty>
0.00237482

> <r_epik_Charging_Adjusted_Penalty>
0.00237482

> <i_epik_Tot_Q>
0

> <i_epik_Tot_abs_Q>
0

> <r_epik_Metal_State_Penalty>
-0

> <b_epik_Metal_Only>
0

> <s_lp_Force_Field>
OPLS_2005

> <r_lp_Energy>
46.4206

> <b_lp_Chiralities_Consistent>
1

> <s_lp_Variant>
AV-unprocessed.smi:15-1

> <Gold.Version>
5.8.1

> <Gold.Id.Protein>
6NUR|6NUR_protein|mol2

> <Gold.PLP.Fitness>
51.0840

> <Gold.PLP.PLP>
-46.0220

> <Gold.PLP.part.hbond>
-2.9824

> <Gold.PLP.part.metal>
0.0000

> <Gold.PLP.part.buried>
-6.3123

> <Gold.PLP.part.nonpolar>
-36.5820

> <Gold.PLP.part.repulsive>
0.0601

> <Gold.PLP.ligand.clash>
0.0000

> <Gold.PLP.ligand.torsion>
1.1083

> <Gold.PLP.Chemscore.Hbond>
2.1664

> <Gold.PLP.Chemscore.CHOScore>
0.0000

> <Gold.PLP.Chemscore.Metal>
0.0000

> <Gold.Chemscore.Hbonds>
donor molecule, donor type, donor heavy atom, donor atom, acceptor molecule, acceptor atom, score
      P1  H  6896  6908       L1    13  1.00
      P1  H  6931  6943       L1    21  0.96
      P1  H  6934  6947       L1    21  0.07

> <Gold.PLP.Chemscore.Internal.Correction>
0.7794

> <Gold.Rescore>
     Score         DG    S(hbond)    S(metal)    S(lipo)     H(rot)  DE(clash)    DE(int)     intcor
     15.04     -16.48       1.70        0.00     104.72       2.71       0.17       1.27       ----

> <Gold.Chemscore.Fitness>
15.0379

> <Gold.Chemscore.DG>
-16.4760

> <Gold.Chemscore.ZeroCoef>
-5.4800

> <Gold.Chemscore.Hbond>
1.6988

> <Gold.Chemscore.Metal>
0.0000

> <Gold.Chemscore.Lipo>
104.7242

> <Gold.Chemscore.Internal_Hbond>
0.0000

> <Gold.Chemscore.DEClash>
0.1677

> <Gold.Chemscore.DEInternal>
1.2704

> <Gold.Chemscore.Rot>
2.7074

> <Gold.Chemscore.Internal.Correction>
   9.000000E+99

> <Gold.Chemscore.Hbonds>
donor molecule, donor type, donor heavy atom, donor atom, acceptor molecule, acceptor atom, score
      P1  H  6896  6908       L1    13  0.97
      P1  H  6931  6943       L1    21  0.45
      P1  H  6934  6947       L1    21  0.02

> <Gold.Chemscore.Hbond.Weighted>
-5.6741

> <Gold.Chemscore.Metal.Weighted>
-0.0000

> <Gold.Chemscore.Lipo.Weighted>
-12.2527

> <Gold.Chemscore.Internal_Hbond.Weighted>
0.0000

> <Gold.Chemscore.DEClash.Weighted>
0.1677

> <Gold.Chemscore.DEInternal.Weighted>
1.2704

> <Gold.Chemscore.Rot.Weighted>
6.9308

> <Gold.Chemscore.Internal.Correction.Weighted>
   9.000000E+99

> <Gold.Protein.RotatedTorsions>
[ 6907 6896 6895 6894 ] final -133.38 input  -60.11 | X-H torsion
[ 7974 7965 7964 7962 ] final   38.79 input  175.53 | X-H torsion
[ 8008 7997 7996 7995 ] final  140.70 input   59.86 | X-H torsion
[ 10167 10162 10161 10158 ] final   91.07 input  -65.29 | X-H torsion
[ 10718 10713 10712 10709 ] final  -54.80 input   66.30 | X-H torsion
[ 10763 10752 10751 10750 ] final -153.15 input  -60.55 | X-H torsion
[ 11005 11000 10999 10996 ] final  -14.05 input  -57.11 | X-H torsion

> <Gold.Protein.ActiveResidues>
 VAL166  LYS551  ARG553  GLY616  TRP617  ASP618  TYR619  PRO620  LYS621  CYS622 
 ASP623  PHE694  ASN695  SER759  ASP760  ASP761  ALA762  ILE779  LEU786  VAL792 
 PHE793  MET794  SER795  GLU796  ALA797  LYS798  CYS799  TRP800  GLU811  SER814 

> <Gold.Protein.RotatedAtoms>
  150.9734  133.6320  159.2734 H   0  0  0  0  0  0  0  0  0  0  0  0  # atno 6907 bound_to 6896
  151.3601  135.0901  159.9441 H   0  0  0  0  0  0  0  0  0  0  0  0  # atno 6908 bound_to 6896
  152.5191  133.9309  159.7634 H   0  0  0  0  0  0  0  0  0  0  0  0  # atno 6909 bound_to 6896
  146.1035  139.5730  142.9399 H   0  0  0  0  0  0  0  0  0  0  0  0  # atno 7974 bound_to 7965
  156.2976  140.2334  156.4444 H   0  0  0  0  0  0  0  0  0  0  0  0  # atno 8008 bound_to 7997
  154.8157  140.0440  157.1395 H   0  0  0  0  0  0  0  0  0  0  0  0  # atno 8009 bound_to 7997
  154.9372  140.3024  155.5142 H   0  0  0  0  0  0  0  0  0  0  0  0  # atno 8010 bound_to 7997
  139.8411  144.6641  150.9282 H   0  0  0  0  0  0  0  0  0  0  0  0  # atno 10167 bound_to 10162
  156.1421  130.4154  150.0085 H   0  0  0  0  0  0  0  0  0  0  0  0  # atno 10718 bound_to 10713
  154.7947  135.3219  154.7695 H   0  0  0  0  0  0  0  0  0  0  0  0  # atno 10763 bound_to 10752
  153.8376  135.6874  153.4811 H   0  0  0  0  0  0  0  0  0  0  0  0  # atno 10764 bound_to 10752
  153.1633  135.4652  154.9743 H   0  0  0  0  0  0  0  0  0  0  0  0  # atno 10765 bound_to 10752
  140.7824  133.8352  155.9304 H   0  0  0  0  0  0  0  0  0  0  0  0  # atno 11005 bound_to 11000
  145.5808  141.0383  143.2123 LP  0  0  0  0  0  0  0  0  0  0  0  0  # atno 17320 bound_to 7965
  144.7451  139.7341  143.7295 LP  0  0  0  0  0  0  0  0  0  0  0  0  # atno 17321 bound_to 7965
  140.7798  143.3912  151.1307 LP  0  0  0  0  0  0  0  0  0  0  0  0  # atno 17342 bound_to 10162
  139.7558  143.8709  152.3088 LP  0  0  0  0  0  0  0  0  0  0  0  0  # atno 17343 bound_to 10162
  156.7968  130.9276  151.3646 LP  0  0  0  0  0  0  0  0  0  0  0  0  # atno 17370 bound_to 10713
  157.6585  130.8945  149.9779 LP  0  0  0  0  0  0  0  0  0  0  0  0  # atno 17371 bound_to 10713
  140.9469  134.1829  157.4756 LP  0  0  0  0  0  0  0  0  0  0  0  0  # atno 17394 bound_to 11000
  139.8741  134.9894  156.5455 LP  0  0  0  0  0  0  0  0  0  0  0  0  # atno 17395 bound_to 11000

$$$$
