AV-unprocessed.smi:652|AV-procd|sdf|3200|dock8
  -GOLD-   22720 0133D 1   1.00000     0.00000
 Structure written by MMmdl.
 49 50  0  0  0  0  0  0  0  0  3 V2000
  149.6297  133.4949  154.8792 C   0  0  0  0  0  0  0  0  0  0  0  0
  148.2941  133.5011  154.1238 C   0  0  0  0  0  0  0  0  0  0  0  0
  148.4232  132.8432  152.7405 C   0  0  0  0  0  0  0  0  0  0  0  0
  147.8162  134.8751  153.9949 N   0  0  0  0  0  0  0  0  0  0  0  0
  146.6007  135.3137  154.3582 C   0  0  0  0  0  0  0  0  0  0  0  0
  145.7388  134.5886  154.8553 O   0  0  0  0  0  0  0  0  0  0  0  0
  146.3139  136.7998  154.1277 C   0  0  0  0  0  0  0  0  0  0  0  0
  147.2797  137.7080  154.9143 C   0  0  0  0  0  0  0  0  0  0  0  0
  148.1318  138.5359  154.0199 N   0  3  1  0  0  0  0  0  0  0  0  0
  147.4245  139.7049  153.4434 C   0  0  0  0  0  0  0  0  0  0  0  0
  147.3019  140.8422  154.4726 C   0  0  0  0  0  0  0  0  0  0  0  0
  148.5991  141.1993  154.9343 O   0  0  0  0  0  0  0  0  0  0  0  0
  149.2578  140.1279  155.6034 C   0  0  2  0  0  0  0  0  0  0  0  0
  150.6136  140.6453  156.1064 C   0  0  0  0  0  0  0  0  0  0  0  0
  150.4698  141.8768  156.8687 N   0  0  0  0  0  0  0  0  0  0  0  0
  151.1385  142.0362  158.0897 C   0  0  0  0  0  0  0  0  0  0  0  0
  151.9802  141.0572  158.6672 C   0  0  0  0  0  0  0  0  0  0  0  0
  152.5949  141.3482  159.8969 C   0  0  0  0  0  0  0  0  0  0  0  0
  152.3311  142.6018  160.4764 C   0  0  0  0  0  0  0  0  0  0  0  0
  151.5215  143.5239  159.9093 N   0  0  0  0  0  0  0  0  0  0  0  0
  150.9476  143.2154  158.7328 N   0  3  0  0  0  0  0  0  0  0  0  0
  149.4295  138.9556  154.6103 C   0  0  0  0  0  0  0  0  0  0  0  0
  149.9964  132.4772  155.0172 H   0  0  0  0  0  0  0  0  0  0  0  0
  149.5251  133.9432  155.8679 H   0  0  0  0  0  0  0  0  0  0  0  0
  150.3953  134.0532  154.3391 H   0  0  0  0  0  0  0  0  0  0  0  0
  147.5759  132.9297  154.7150 H   0  0  0  0  0  0  0  0  0  0  0  0
  148.7790  131.8163  152.8282 H   0  0  0  0  0  0  0  0  0  0  0  0
  149.1261  133.3849  152.1067 H   0  0  0  0  0  0  0  0  0  0  0  0
  147.4635  132.8125  152.2237 H   0  0  0  0  0  0  0  0  0  0  0  0
  148.4620  135.5418  153.5970 H   0  0  0  0  0  0  0  0  0  0  0  0
  146.3843  136.9895  153.0569 H   0  0  0  0  0  0  0  0  0  0  0  0
  145.2852  137.0192  154.4191 H   0  0  0  0  0  0  0  0  0  0  0  0
  146.6819  138.3731  155.5400 H   0  0  0  0  0  0  0  0  0  0  0  0
  147.8956  137.1228  155.5972 H   0  0  0  0  0  0  0  0  0  0  0  0
  147.9927  140.0593  152.5823 H   0  0  0  0  0  0  0  0  0  0  0  0
  146.4439  139.4165  153.0634 H   0  0  0  0  0  0  0  0  0  0  0  0
  146.8408  141.7157  154.0113 H   0  0  0  0  0  0  0  0  0  0  0  0
  146.6660  140.5539  155.3110 H   0  0  0  0  0  0  0  0  0  0  0  0
  148.6637  139.8078  156.4609 H   0  0  0  0  0  0  0  0  0  0  0  0
  151.0724  139.8948  156.7514 H   0  0  0  0  0  0  0  0  0  0  0  0
  151.2884  140.8068  155.2648 H   0  0  0  0  0  0  0  0  0  0  0  0
  150.0672  142.6836  156.4133 H   0  0  0  0  0  0  0  0  0  0  0  0
  152.1577  140.1036  158.1927 H   0  0  0  0  0  0  0  0  0  0  0  0
  153.2470  140.6361  160.3808 H   0  0  0  0  0  0  0  0  0  0  0  0
  152.7801  142.8738  161.4206 H   0  0  0  0  0  0  0  0  0  0  0  0
  149.9298  138.1148  155.0892 H   0  0  0  0  0  0  0  0  0  0  0  0
  150.0817  139.2680  153.7936 H   0  0  0  0  0  0  0  0  0  0  0  0
  148.3502  137.9356  153.2372 H   0  0  0  0  0  0  0  0  0  0  0  0
  150.3357  143.9069  158.2989 H   0  0  0  0  0  0  0  0  0  0  0  0
  1  2  1  0  0  0  0
  1 23  1  0  0  0  0
  1 24  1  0  0  0  0
  1 25  1  0  0  0  0
  2  3  1  0  0  0  0
  2  4  1  0  0  0  0
  2 26  1  0  0  0  0
  3 27  1  0  0  0  0
  3 28  1  0  0  0  0
  3 29  1  0  0  0  0
  4  5  1  0  0  0  0
  4 30  1  0  0  0  0
  5  6  2  0  0  0  0
  5  7  1  0  0  0  0
  7  8  1  0  0  0  0
  7 31  1  0  0  0  0
  7 32  1  0  0  0  0
  8  9  1  0  0  0  0
  8 33  1  0  0  0  0
  8 34  1  0  0  0  0
  9 22  1  0  0  0  0
  9 10  1  0  0  0  0
  9 48  1  0  0  0  0
 10 11  1  0  0  0  0
 10 35  1  0  0  0  0
 10 36  1  0  0  0  0
 11 12  1  0  0  0  0
 11 37  1  0  0  0  0
 11 38  1  0  0  0  0
 12 13  1  0  0  0  0
 13 14  1  0  0  0  0
 13 22  1  0  0  0  0
 13 39  1  0  0  0  0
 14 15  1  0  0  0  0
 14 40  1  0  0  0  0
 14 41  1  0  0  0  0
 15 16  1  0  0  0  0
 15 42  1  0  0  0  0
 16 21  1  0  0  0  0
 16 17  2  0  0  0  0
 17 18  1  0  0  0  0
 17 43  1  0  0  0  0
 18 19  2  0  0  0  0
 18 44  1  0  0  0  0
 19 20  1  0  0  0  0
 19 45  1  0  0  0  0
 20 21  2  0  0  0  0
 21 49  1  0  0  0  0
 22 46  1  0  0  0  0
 22 47  1  0  0  0  0
M  CHG  1   9   1
M  CHG  1  21   1
M  END
> <s_m_source_file>
AV-unprocessed.smi

> <i_m_source_file_index>
652

> <i_lp_mmshare_version>
43012

> <i_f3d_flags>
0

> <s_epik_input>
W0NIM11bQ0hdKFtDSDNdKVtOSF1DKD1PKVtDSDJdW0NIMl1OMVtDSDJdW0NIMl1PW0NASF0oW0NIMl0xKVtDSDJdW05IXWMyW2NIXVtjSF1bY0hdbm4y

> <s_epik_cmdline>
J2VwaWtfcHl0aG9uJywgJy1waCcsICc3LjAnLCAnLXRuJywgJzgnLCAnLW1hJywgJzIwMCcsICctbWV0YWxfYmluZGluZycsICctaW1hZScsICc8aW5maWxlLm1hZT4nLCAnLW9tYWUnLCAnPG91dGZpbGUubWFlPic=

> <r_lp_tautomer_probability>
0.966961

> <r_epik_Ionization_Penalty>
2.79885

> <r_epik_Ionization_Penalty_Charging>
2.79884

> <r_epik_Ionization_Penalty_Neutral>
3.2567e-06

> <r_epik_State_Penalty>
2.43203

> <r_epik_Charging_Adjusted_Penalty>
5.23087

> <i_epik_Tot_Q>
2

> <i_epik_Tot_abs_Q>
2

> <r_epik_Metal_State_Penalty>
2.43963

> <b_epik_Metal_Only>
0

> <s_lp_Force_Field>
OPLS_2005

> <r_lp_Energy>
31.8364

> <b_lp_Chiralities_Consistent>
1

> <s_lp_Variant>
AV-unprocessed.smi:652-9

> <Gold.Version>
5.8.1

> <Gold.Id.Protein>
6NUR|6NUR_protein|mol2

> <Gold.PLP.Fitness>
53.8883

> <Gold.PLP.PLP>
-34.8932

> <Gold.PLP.part.hbond>
-4.0000

> <Gold.PLP.part.metal>
0.0000

> <Gold.PLP.part.buried>
-3.5228

> <Gold.PLP.part.nonpolar>
-27.7159

> <Gold.PLP.part.repulsive>
0.4238

> <Gold.PLP.ligand.clash>
0.0000

> <Gold.PLP.ligand.torsion>
0.7908

> <Gold.PLP.Chemscore.Hbond>
6.8320

> <Gold.PLP.Chemscore.CHOScore>
0.0000

> <Gold.PLP.Chemscore.Metal>
0.0000

> <Gold.Chemscore.Hbonds>
donor molecule, donor type, donor heavy atom, donor atom, acceptor molecule, acceptor atom, score
      L1  H     4    30       P1  7948  0.77
      L1  H     9    48       P1  7948  0.88

> <Gold.PLP.Chemscore.Internal.Correction>
0.0807

> <Gold.Rescore>
     Score         DG    S(hbond)    S(metal)    S(lipo)     H(rot)  DE(clash)    DE(int)     intcor
     18.70     -19.56       3.17        0.00      80.96       2.33       0.12       0.74       ----

> <Gold.Chemscore.Fitness>
18.6960

> <Gold.Chemscore.DG>
-19.5620

> <Gold.Chemscore.ZeroCoef>
-5.4800

> <Gold.Chemscore.Hbond>
3.1681

> <Gold.Chemscore.Metal>
0.0000

> <Gold.Chemscore.Lipo>
80.9553

> <Gold.Chemscore.Internal_Hbond>
0.0000

> <Gold.Chemscore.DEClash>
0.1229

> <Gold.Chemscore.DEInternal>
0.7430

> <Gold.Chemscore.Rot>
2.3326

> <Gold.Chemscore.Internal.Correction>
   9.000000E+99

> <Gold.Chemscore.Hbonds>
donor molecule, donor type, donor heavy atom, donor atom, acceptor molecule, acceptor atom, score
      L1  H     4    30       P1  7948  0.77
      L1  H     9    48       P1  7948  0.44
      L1  H    15    42       P1  8028  0.03

> <Gold.Chemscore.Hbond.Weighted>
-10.5816

> <Gold.Chemscore.Metal.Weighted>
-0.0000

> <Gold.Chemscore.Lipo.Weighted>
-9.4718

> <Gold.Chemscore.Internal_Hbond.Weighted>
0.0000

> <Gold.Chemscore.DEClash.Weighted>
0.1229

> <Gold.Chemscore.DEInternal.Weighted>
0.7430

> <Gold.Chemscore.Rot.Weighted>
5.9714

> <Gold.Chemscore.Internal.Correction.Weighted>
   9.000000E+99

> <Gold.Protein.RotatedTorsions>
[ 6907 6896 6895 6894 ] final -153.92 input  -60.11 | X-H torsion
[ 7974 7965 7964 7962 ] final   68.86 input  175.53 | X-H torsion
[ 8008 7997 7996 7995 ] final  145.15 input   59.86 | X-H torsion
[ 10167 10162 10161 10158 ] final -100.64 input  -65.29 | X-H torsion
[ 10718 10713 10712 10709 ] final   25.04 input   66.30 | X-H torsion
[ 10763 10752 10751 10750 ] final  -12.65 input  -60.55 | X-H torsion
[ 11005 11000 10999 10996 ] final   91.63 input  -57.11 | X-H torsion

> <Gold.Protein.ActiveResidues>
 VAL166  LYS551  ARG553  GLY616  TRP617  ASP618  TYR619  PRO620  LYS621  CYS622 
 ASP623  PHE694  ASN695  SER759  ASP760  ASP761  ALA762  ILE779  LEU786  VAL792 
 PHE793  MET794  SER795  GLU796  ALA797  LYS798  CYS799  TRP800  GLU811  SER814 

> <Gold.Protein.RotatedAtoms>
  151.2497  133.4356  159.2610 H   0  0  0  0  0  0  0  0  0  0  0  0  # atno 6907 bound_to 6896
  151.0629  134.9748  159.8279 H   0  0  0  0  0  0  0  0  0  0  0  0  # atno 6908 bound_to 6896
  152.5401  134.2446  159.8928 H   0  0  0  0  0  0  0  0  0  0  0  0  # atno 6909 bound_to 6896
  145.7974  139.2965  143.1174 H   0  0  0  0  0  0  0  0  0  0  0  0  # atno 7974 bound_to 7965
  156.2890  140.2217  156.5169 H   0  0  0  0  0  0  0  0  0  0  0  0  # atno 8008 bound_to 7997
  154.7562  140.0476  157.0957 H   0  0  0  0  0  0  0  0  0  0  0  0  # atno 8009 bound_to 7997
  155.0048  140.3106  155.4856 H   0  0  0  0  0  0  0  0  0  0  0  0  # atno 8010 bound_to 7997
  140.2497  143.3481  152.0726 H   0  0  0  0  0  0  0  0  0  0  0  0  # atno 10167 bound_to 10162
  157.1880  130.6833  149.6139 H   0  0  0  0  0  0  0  0  0  0  0  0  # atno 10718 bound_to 10713
  153.5015  135.7017  153.5829 H   0  0  0  0  0  0  0  0  0  0  0  0  # atno 10763 bound_to 10752
  153.3958  135.3884  155.1954 H   0  0  0  0  0  0  0  0  0  0  0  0  # atno 10764 bound_to 10752
  154.8710  135.3869  154.4486 H   0  0  0  0  0  0  0  0  0  0  0  0  # atno 10765 bound_to 10752
  139.8836  134.8685  156.3455 H   0  0  0  0  0  0  0  0  0  0  0  0  # atno 11005 bound_to 11000
  145.9913  140.8600  143.0065 LP  0  0  0  0  0  0  0  0  0  0  0  0  # atno 17320 bound_to 7965
  144.6773  140.2220  143.7365 LP  0  0  0  0  0  0  0  0  0  0  0  0  # atno 17321 bound_to 7965
  139.5050  144.6786  151.6065 LP  0  0  0  0  0  0  0  0  0  0  0  0  # atno 17342 bound_to 10162
  140.6050  143.9541  150.6412 LP  0  0  0  0  0  0  0  0  0  0  0  0  # atno 17343 bound_to 10162
  155.9715  130.4624  150.6145 LP  0  0  0  0  0  0  0  0  0  0  0  0  # atno 17370 bound_to 10713
  157.3888  131.0792  151.1412 LP  0  0  0  0  0  0  0  0  0  0  0  0  # atno 17371 bound_to 10713
  140.9629  133.7376  156.0427 LP  0  0  0  0  0  0  0  0  0  0  0  0  # atno 17394 bound_to 11000
  140.7966  134.3556  157.5450 LP  0  0  0  0  0  0  0  0  0  0  0  0  # atno 17395 bound_to 11000

$$$$
