AV-unprocessed.smi:2883|AV-procd|sdf|11079|dock9
  -GOLD-   2272015553D 1   1.00000     0.00000
 Structure written by MMmdl.
 39 41  0  0  0  0  0  0  0  0  1 V2000
  151.3728  137.0759  156.0340 C   0  0  0  0  0  0  0  0  0  0  0  0
  152.0768  138.4524  155.9837 C   0  0  0  0  0  0  0  0  0  0  0  0
  152.7898  138.6194  157.3469 C   0  0  0  0  0  0  0  0  0  0  0  0
  153.1200  138.4569  154.8515 C   0  0  0  0  0  0  0  0  0  0  0  0
  151.0629  139.5853  155.7503 C   0  0  0  0  0  0  0  0  0  0  0  0
  150.3075  139.5163  154.6460 N   0  0  0  0  0  0  0  0  0  0  0  0
  149.5082  140.5683  154.3702 C   0  0  0  0  0  0  0  0  0  0  0  0
  149.4850  141.7163  155.1857 C   0  0  0  0  0  0  0  0  0  0  0  0
  150.3458  141.7106  156.3008 C   0  0  0  0  0  0  0  0  0  0  0  0
  150.3848  142.8261  157.1486 N   0  0  0  0  0  0  0  0  0  0  0  0
  150.8298  142.7015  158.5325 C   0  0  2  0  0  0  0  0  0  0  0  0
  150.5517  143.9564  159.3702 C   0  0  0  0  0  0  0  0  0  0  0  0
  151.9488  144.2988  159.9017 C   0  0  1  0  0  0  0  0  0  0  0  0
  152.4538  143.2677  160.9201 C   0  0  0  0  0  0  0  0  0  0  0  0
  152.7785  142.0744  160.0217 C   0  0  0  0  0  0  0  0  0  0  0  0
  152.3605  142.5958  158.6401 C   0  0  2  0  0  0  0  0  0  0  0  0
  152.7326  143.9585  158.7719 O   0  0  0  0  0  0  0  0  0  0  0  0
  151.1418  140.6479  156.5616 N   0  0  0  0  0  0  0  0  0  0  0  0
  152.0818  136.2746  156.2454 H   0  0  0  0  0  0  0  0  0  0  0  0
  150.8922  136.8277  155.0871 H   0  0  0  0  0  0  0  0  0  0  0  0
  150.6076  137.0491  156.8106 H   0  0  0  0  0  0  0  0  0  0  0  0
  152.0732  138.6502  158.1687 H   0  0  0  0  0  0  0  0  0  0  0  0
  153.3810  139.5351  157.3906 H   0  0  0  0  0  0  0  0  0  0  0  0
  153.4749  137.7933  157.5401 H   0  0  0  0  0  0  0  0  0  0  0  0
  153.8590  137.6666  154.9875 H   0  0  0  0  0  0  0  0  0  0  0  0
  153.6567  139.4055  154.8116 H   0  0  0  0  0  0  0  0  0  0  0  0
  152.6499  138.3048  153.8794 H   0  0  0  0  0  0  0  0  0  0  0  0
  148.8877  140.4964  153.4893 H   0  0  0  0  0  0  0  0  0  0  0  0
  148.8447  142.5561  154.9596 H   0  0  0  0  0  0  0  0  0  0  0  0
  149.9502  143.6897  156.8571 H   0  0  0  0  0  0  0  0  0  0  0  0
  150.3695  141.8172  158.9754 H   0  0  0  0  0  0  0  0  0  0  0  0
  150.1744  144.7754  158.7558 H   0  0  0  0  0  0  0  0  0  0  0  0
  149.8327  143.7763  160.1701 H   0  0  0  0  0  0  0  0  0  0  0  0
  152.0552  145.3339  160.2275 H   0  0  0  0  0  0  0  0  0  0  0  0
  153.3536  143.6238  161.4230 H   0  0  0  0  0  0  0  0  0  0  0  0
  151.7054  143.0364  161.6789 H   0  0  0  0  0  0  0  0  0  0  0  0
  153.8474  141.8591  160.0456 H   0  0  0  0  0  0  0  0  0  0  0  0
  152.2419  141.1692  160.3076 H   0  0  0  0  0  0  0  0  0  0  0  0
  152.8391  142.0697  157.8132 H   0  0  0  0  0  0  0  0  0  0  0  0
  1  2  1  0  0  0  0
  1 19  1  0  0  0  0
  1 20  1  0  0  0  0
  1 21  1  0  0  0  0
  2  3  1  0  0  0  0
  2  4  1  0  0  0  0
  2  5  1  0  0  0  0
  3 22  1  0  0  0  0
  3 23  1  0  0  0  0
  3 24  1  0  0  0  0
  4 25  1  0  0  0  0
  4 26  1  0  0  0  0
  4 27  1  0  0  0  0
  5 18  1  0  0  0  0
  5  6  2  0  0  0  0
  6  7  1  0  0  0  0
  7  8  2  0  0  0  0
  7 28  1  0  0  0  0
  8  9  1  0  0  0  0
  8 29  1  0  0  0  0
  9 10  1  0  0  0  0
  9 18  2  0  0  0  0
 10 11  1  0  0  0  0
 10 30  1  0  0  0  0
 11 16  1  0  0  0  0
 11 12  1  0  0  0  0
 11 31  1  0  0  0  0
 12 13  1  0  0  0  0
 12 32  1  0  0  0  0
 12 33  1  0  0  0  0
 13 17  1  0  0  0  0
 13 14  1  0  0  0  0
 13 34  1  0  0  0  0
 14 15  1  0  0  0  0
 14 35  1  0  0  0  0
 14 36  1  0  0  0  0
 15 16  1  0  0  0  0
 15 37  1  0  0  0  0
 15 38  1  0  0  0  0
 16 17  1  0  0  0  0
 16 39  1  0  0  0  0
M  END
> <s_m_source_file>
AV-unprocessed.smi

> <i_m_source_file_index>
2883

> <i_lp_mmshare_version>
43012

> <i_f3d_flags>
0

> <s_epik_input>
W0NIM11DKFtDSDNdKShbQ0gzXSljMW5bY0hdW2NIXWMobjEpW05IXVtDQEhdKFtDSDJdW0NAQEhdMjMpW0NAQEhdKE8zKVtDSDJdW0NIMl0y

> <s_epik_cmdline>
J2VwaWtfcHl0aG9uJywgJy1waCcsICc3LjAnLCAnLXRuJywgJzgnLCAnLW1hJywgJzIwMCcsICctbWV0YWxfYmluZGluZycsICctaW1hZScsICc8aW5maWxlLm1hZT4nLCAnLW9tYWUnLCAnPG91dGZpbGUubWFlPic=

> <r_lp_tautomer_probability>
1

> <r_epik_Ionization_Penalty>
0.453006

> <r_epik_Ionization_Penalty_Charging>
0

> <r_epik_Ionization_Penalty_Neutral>
0.453006

> <r_epik_State_Penalty>
0.455155

> <r_epik_Charging_Adjusted_Penalty>
0.455155

> <i_epik_Tot_Q>
0

> <i_epik_Tot_abs_Q>
0

> <r_epik_Metal_State_Penalty>
0.255592

> <b_epik_Metal_Only>
0

> <s_lp_Force_Field>
OPLS_2005

> <r_lp_Energy>
33.3258

> <b_lp_Chiralities_Consistent>
1

> <s_lp_Variant>
AV-unprocessed.smi:2883-5

> <Gold.Version>
5.8.1

> <Gold.Id.Protein>
6NUR|6NUR_protein|mol2

> <Gold.PLP.Fitness>
42.5275

> <Gold.PLP.PLP>
-37.5944

> <Gold.PLP.part.hbond>
-1.3876

> <Gold.PLP.part.metal>
0.0000

> <Gold.PLP.part.buried>
-3.5149

> <Gold.PLP.part.nonpolar>
-33.7130

> <Gold.PLP.part.repulsive>
0.1248

> <Gold.PLP.ligand.clash>
0.0000

> <Gold.PLP.ligand.torsion>
0.5209

> <Gold.PLP.Chemscore.Hbond>
1.0000

> <Gold.PLP.Chemscore.CHOScore>
0.9408

> <Gold.PLP.Chemscore.Metal>
0.0000

> <Gold.Chemscore.Hbonds>
donor molecule, donor type, donor heavy atom, donor atom, acceptor molecule, acceptor atom, score
      L1  H    10    30       P1  8028  1.00
      L1  C     7    28       P1  7957  0.96

> <Gold.PLP.Chemscore.Internal.Correction>
0.1526

> <Gold.Rescore>
     Score         DG    S(hbond)    S(metal)    S(lipo)     H(rot)  DE(clash)    DE(int)     intcor
     17.76     -18.31       0.99        0.00     106.41       1.15       0.08       0.47       ----

> <Gold.Chemscore.Fitness>
17.7646

> <Gold.Chemscore.DG>
-18.3133

> <Gold.Chemscore.ZeroCoef>
-5.4800

> <Gold.Chemscore.Hbond>
0.9946

> <Gold.Chemscore.Metal>
0.0000

> <Gold.Chemscore.Lipo>
106.4142

> <Gold.Chemscore.Internal_Hbond>
0.0000

> <Gold.Chemscore.DEClash>
0.0814

> <Gold.Chemscore.DEInternal>
0.4673

> <Gold.Chemscore.Rot>
1.1482

> <Gold.Chemscore.Internal.Correction>
   9.000000E+99

> <Gold.Chemscore.Hbonds>
donor molecule, donor type, donor heavy atom, donor atom, acceptor molecule, acceptor atom, score
      L1  H    10    30       P1  8028  0.96

> <Gold.Chemscore.Hbond.Weighted>
-3.3221

> <Gold.Chemscore.Metal.Weighted>
-0.0000

> <Gold.Chemscore.Lipo.Weighted>
-12.4505

> <Gold.Chemscore.Internal_Hbond.Weighted>
0.0000

> <Gold.Chemscore.DEClash.Weighted>
0.0814

> <Gold.Chemscore.DEInternal.Weighted>
0.4673

> <Gold.Chemscore.Rot.Weighted>
2.9393

> <Gold.Chemscore.Internal.Correction.Weighted>
   9.000000E+99

> <Gold.Protein.RotatedTorsions>
[ 6907 6896 6895 6894 ] final  173.42 input  -60.11 | X-H torsion
[ 7974 7965 7964 7962 ] final -153.44 input  175.53 | X-H torsion
[ 8008 7997 7996 7995 ] final  -77.05 input   59.86 | X-H torsion
[ 10167 10162 10161 10158 ] final  -71.38 input  -65.29 | X-H torsion
[ 10718 10713 10712 10709 ] final -117.21 input   66.30 | X-H torsion
[ 10763 10752 10751 10750 ] final  -40.37 input  -60.55 | X-H torsion
[ 11005 11000 10999 10996 ] final   68.36 input  -57.11 | X-H torsion

> <Gold.Protein.ActiveResidues>
 VAL166  LYS551  ARG553  GLY616  TRP617  ASP618  TYR619  PRO620  LYS621  CYS622 
 ASP623  PHE694  ASN695  SER759  ASP760  ASP761  ALA762  ILE779  LEU786  VAL792 
 PHE793  MET794  SER795  GLU796  ALA797  LYS798  CYS799  TRP800  GLU811  SER814 

> <Gold.Protein.RotatedAtoms>
  151.7686  133.3339  159.3437 H   0  0  0  0  0  0  0  0  0  0  0  0  # atno 6907 bound_to 6896
  150.7470  134.6039  159.6060 H   0  0  0  0  0  0  0  0  0  0  0  0  # atno 6908 bound_to 6896
  152.3356  134.7203  160.0329 H   0  0  0  0  0  0  0  0  0  0  0  0  # atno 6909 bound_to 6896
  144.7741  140.4526  143.5886 H   0  0  0  0  0  0  0  0  0  0  0  0  # atno 7974 bound_to 7965
  154.5560  140.0717  156.8744 H   0  0  0  0  0  0  0  0  0  0  0  0  # atno 8008 bound_to 7997
  155.2901  140.3377  155.4235 H   0  0  0  0  0  0  0  0  0  0  0  0  # atno 8009 bound_to 7997
  156.2002  140.1719  156.7900 H   0  0  0  0  0  0  0  0  0  0  0  0  # atno 8010 bound_to 7997
  140.5278  143.2324  151.7316 H   0  0  0  0  0  0  0  0  0  0  0  0  # atno 10167 bound_to 10162
  156.1018  130.6178  150.9135 H   0  0  0  0  0  0  0  0  0  0  0  0  # atno 10718 bound_to 10713
  153.9448  135.6757  153.4744 H   0  0  0  0  0  0  0  0  0  0  0  0  # atno 10763 bound_to 10752
  153.0913  135.4873  154.8692 H   0  0  0  0  0  0  0  0  0  0  0  0  # atno 10764 bound_to 10752
  154.7357  135.3148  154.8774 H   0  0  0  0  0  0  0  0  0  0  0  0  # atno 10765 bound_to 10752
  139.9716  134.6891  156.0435 H   0  0  0  0  0  0  0  0  0  0  0  0  # atno 11005 bound_to 11000
  145.6238  139.1527  143.3007 LP  0  0  0  0  0  0  0  0  0  0  0  0  # atno 17320 bound_to 7965
  146.1908  140.6346  142.9146 LP  0  0  0  0  0  0  0  0  0  0  0  0  # atno 17321 bound_to 7965
  139.4944  144.4160  152.0030 LP  0  0  0  0  0  0  0  0  0  0  0  0  # atno 17342 bound_to 10162
  140.3260  144.3372  150.5998 LP  0  0  0  0  0  0  0  0  0  0  0  0  # atno 17343 bound_to 10162
  157.6189  131.0931  150.8659 LP  0  0  0  0  0  0  0  0  0  0  0  0  # atno 17370 bound_to 10713
  156.8785  130.5171  149.5292 LP  0  0  0  0  0  0  0  0  0  0  0  0  # atno 17371 bound_to 10713
  141.1395  133.6567  156.3690 LP  0  0  0  0  0  0  0  0  0  0  0  0  # atno 17394 bound_to 11000
  140.5281  134.6239  157.5341 LP  0  0  0  0  0  0  0  0  0  0  0  0  # atno 17395 bound_to 11000

$$$$
