AV-unprocessed.smi:415|AV-procd|sdf|2520|dock9
  -GOLD-   2262022473D 1   1.00000     0.00000
 Structure written by MMmdl.
 53 54  0  0  0  0  0  0  0  0  1 V2000
  148.9250  132.1015  153.4189 C   0  0  0  0  0  0  0  0  0  0  0  0
  149.7413  132.7875  154.3511 O   0  0  0  0  0  0  0  0  0  0  0  0
  150.2315  134.0180  153.8453 C   0  0  0  0  0  0  0  0  0  0  0  0
  150.9975  134.7721  154.9449 C   0  0  0  0  0  0  0  0  0  0  0  0
  150.3117  135.9678  155.3982 N   0  0  0  0  0  0  0  0  0  0  0  0
  149.0541  135.9398  155.9941 C   0  0  0  0  0  0  0  0  0  0  0  0
  148.4207  134.7264  156.1951 N   0  0  0  0  0  0  0  0  0  0  0  0
  148.4378  137.0743  156.3933 C   0  0  0  0  0  0  0  0  0  0  0  0
  149.0526  138.3835  156.2265 C   0  0  0  0  0  0  0  0  0  0  0  0
  148.4932  139.4308  156.5516 O   0  0  0  0  0  0  0  0  0  0  0  0
  150.3428  138.3864  155.6486 N   0  0  0  0  0  0  0  0  0  0  0  0
  151.0238  139.6852  155.4317 C   0  0  0  0  0  0  0  0  0  0  0  0
  151.9270  140.1402  156.5924 C   0  0  0  0  0  0  0  0  0  0  0  0
  152.9483  139.5020  156.8438 O   0  0  0  0  0  0  0  0  0  0  0  0
  151.5630  141.2346  157.2817 N   0  0  0  0  0  0  0  0  0  0  0  0
  152.3172  141.8631  158.3620 C   0  0  2  0  0  0  0  0  0  0  0  0
  152.4759  140.8674  159.5270 C   0  0  0  0  0  0  0  0  0  0  0  0
  153.2247  141.5038  160.7015 C   0  0  0  0  0  0  0  0  0  0  0  0
  152.5092  142.7741  161.1735 C   0  0  0  0  0  0  0  0  0  0  0  0
  152.3478  143.8010  160.0344 C   0  0  2  0  0  0  0  0  0  0  0  0
  151.6503  145.0623  160.5763 C   0  0  0  0  0  0  0  0  0  0  0  0
  151.6161  143.1732  158.8139 C   0  0  1  0  0  0  0  0  0  0  0  0
  151.4861  144.1686  157.6389 C   0  0  0  0  0  0  0  0  0  0  0  0
  150.9931  137.2011  155.2339 C   0  0  0  0  0  0  0  0  0  0  0  0
  152.1183  137.2557  154.7305 O   0  0  0  0  0  0  0  0  0  0  0  0
  148.5780  131.1652  153.8556 H   0  0  0  0  0  0  0  0  0  0  0  0
  149.4781  131.8640  152.5092 H   0  0  0  0  0  0  0  0  0  0  0  0
  148.0488  132.6940  153.1519 H   0  0  0  0  0  0  0  0  0  0  0  0
  150.9030  133.8206  153.0089 H   0  0  0  0  0  0  0  0  0  0  0  0
  149.4116  134.6290  153.4649 H   0  0  0  0  0  0  0  0  0  0  0  0
  151.2222  134.1398  155.8052 H   0  0  0  0  0  0  0  0  0  0  0  0
  151.9708  135.1009  154.5814 H   0  0  0  0  0  0  0  0  0  0  0  0
  148.8449  133.8517  155.9212 H   0  0  0  0  0  0  0  0  0  0  0  0
  147.4992  134.6675  156.6039 H   0  0  0  0  0  0  0  0  0  0  0  0
  147.4590  137.0193  156.8485 H   0  0  0  0  0  0  0  0  0  0  0  0
  151.6270  139.6692  154.5231 H   0  0  0  0  0  0  0  0  0  0  0  0
  150.2927  140.4726  155.2417 H   0  0  0  0  0  0  0  0  0  0  0  0
  150.7054  141.6919  157.0083 H   0  0  0  0  0  0  0  0  0  0  0  0
  153.3103  142.1236  157.9904 H   0  0  0  0  0  0  0  0  0  0  0  0
  151.4947  140.5275  159.8616 H   0  0  0  0  0  0  0  0  0  0  0  0
  153.0135  139.9788  159.1944 H   0  0  0  0  0  0  0  0  0  0  0  0
  153.3011  140.7918  161.5237 H   0  0  0  0  0  0  0  0  0  0  0  0
  154.2454  141.7438  160.4019 H   0  0  0  0  0  0  0  0  0  0  0  0
  151.5299  142.5108  161.5755 H   0  0  0  0  0  0  0  0  0  0  0  0
  153.0706  143.2160  161.9975 H   0  0  0  0  0  0  0  0  0  0  0  0
  153.3485  144.0942  159.7129 H   0  0  0  0  0  0  0  0  0  0  0  0
  150.6102  144.8610  160.8339 H   0  0  0  0  0  0  0  0  0  0  0  0
  151.6675  145.8792  159.8558 H   0  0  0  0  0  0  0  0  0  0  0  0
  152.1477  145.4284  161.4749 H   0  0  0  0  0  0  0  0  0  0  0  0
  150.6049  142.9142  159.1328 H   0  0  0  0  0  0  0  0  0  0  0  0
  152.4651  144.5063  157.2980 H   0  0  0  0  0  0  0  0  0  0  0  0
  150.9056  145.0479  157.9144 H   0  0  0  0  0  0  0  0  0  0  0  0
  150.9745  143.7274  156.7835 H   0  0  0  0  0  0  0  0  0  0  0  0
  1  2  1  0  0  0  0
  1 26  1  0  0  0  0
  1 27  1  0  0  0  0
  1 28  1  0  0  0  0
  2  3  1  0  0  0  0
  3  4  1  0  0  0  0
  3 29  1  0  0  0  0
  3 30  1  0  0  0  0
  4  5  1  0  0  0  0
  4 31  1  0  0  0  0
  4 32  1  0  0  0  0
  5 24  1  0  0  0  0
  5  6  1  0  0  0  0
  6  7  1  0  0  0  0
  6  8  2  0  0  0  0
  7 33  1  0  0  0  0
  7 34  1  0  0  0  0
  8  9  1  0  0  0  0
  8 35  1  0  0  0  0
  9 10  2  0  0  0  0
  9 11  1  0  0  0  0
 11 12  1  0  0  0  0
 11 24  1  0  0  0  0
 12 13  1  0  0  0  0
 12 36  1  0  0  0  0
 12 37  1  0  0  0  0
 13 14  2  0  0  0  0
 13 15  1  0  0  0  0
 15 16  1  0  0  0  0
 15 38  1  0  0  0  0
 16 22  1  0  0  0  0
 16 17  1  0  0  0  0
 16 39  1  0  0  0  0
 17 18  1  0  0  0  0
 17 40  1  0  0  0  0
 17 41  1  0  0  0  0
 18 19  1  0  0  0  0
 18 42  1  0  0  0  0
 18 43  1  0  0  0  0
 19 20  1  0  0  0  0
 19 44  1  0  0  0  0
 19 45  1  0  0  0  0
 20 21  1  0  0  0  0
 20 22  1  0  0  0  0
 20 46  1  0  0  0  0
 21 47  1  0  0  0  0
 21 48  1  0  0  0  0
 21 49  1  0  0  0  0
 22 23  1  0  0  0  0
 22 50  1  0  0  0  0
 23 51  1  0  0  0  0
 23 52  1  0  0  0  0
 23 53  1  0  0  0  0
 24 25  2  0  0  0  0
M  END
> <s_m_source_file>
AV-unprocessed.smi

> <i_m_source_file_index>
415

> <i_lp_mmshare_version>
43012

> <i_f3d_flags>
0

> <s_epik_input>
W0NIM11PW0NIMl1bQ0gyXW4xYyhbTkgyXSlbY0hdYyg9TyluKGMxPU8pW0NIMl1DKD1PKVtOSF1bQ0BASF0yW0NIMl1bQ0gyXVtDSDJdW0NAQEhdKFtDSDNdKVtDQEhdMltDSDNd

> <s_epik_cmdline>
J2VwaWtfcHl0aG9uJywgJy1waCcsICc3LjAnLCAnLXRuJywgJzgnLCAnLW1hJywgJzIwMCcsICctbWV0YWxfYmluZGluZycsICctaW1hZScsICc8aW5maWxlLm1hZT4nLCAnLW9tYWUnLCAnPG91dGZpbGUubWFlPic=

> <r_lp_tautomer_probability>
1

> <r_epik_Ionization_Penalty>
8.6647e-06

> <r_epik_Ionization_Penalty_Charging>
1.81162e-08

> <r_epik_Ionization_Penalty_Neutral>
8.64658e-06

> <r_epik_State_Penalty>
-0

> <r_epik_Charging_Adjusted_Penalty>
1.81162e-08

> <i_epik_Tot_Q>
0

> <i_epik_Tot_abs_Q>
0

> <r_epik_Metal_State_Penalty>
-0

> <b_epik_Metal_Only>
0

> <s_lp_Force_Field>
OPLS_2005

> <r_lp_Energy>
21.9512

> <b_lp_Chiralities_Consistent>
1

> <s_lp_Variant>
AV-unprocessed.smi:415-3

> <Gold.Version>
5.8.1

> <Gold.Id.Protein>
6NUR|6NUR_protein|mol2

> <Gold.PLP.Fitness>
48.3196

> <Gold.PLP.PLP>
-43.9197

> <Gold.PLP.part.hbond>
-2.0000

> <Gold.PLP.part.metal>
0.0000

> <Gold.PLP.part.buried>
-6.3253

> <Gold.PLP.part.nonpolar>
-35.2504

> <Gold.PLP.part.repulsive>
0.2254

> <Gold.PLP.ligand.clash>
0.0000

> <Gold.PLP.ligand.torsion>
0.7944

> <Gold.PLP.Chemscore.Hbond>
1.9760

> <Gold.PLP.Chemscore.CHOScore>
0.0000

> <Gold.PLP.Chemscore.Metal>
0.0000

> <Gold.Chemscore.Hbonds>
donor molecule, donor type, donor heavy atom, donor atom, acceptor molecule, acceptor atom, score
      P1  H  7997  8008       L1    14  1.00
      P1  H 10752 10763       L1    25  0.78

> <Gold.PLP.Chemscore.Internal.Correction>
0.0607

> <Gold.Rescore>
     Score         DG    S(hbond)    S(metal)    S(lipo)     H(rot)  DE(clash)    DE(int)     intcor
     17.46     -19.19       1.94        0.00     111.27       2.26       0.01       1.73       ----

> <Gold.Chemscore.Fitness>
17.4575

> <Gold.Chemscore.DG>
-19.1948

> <Gold.Chemscore.ZeroCoef>
-5.4800

> <Gold.Chemscore.Hbond>
1.9442

> <Gold.Chemscore.Metal>
0.0000

> <Gold.Chemscore.Lipo>
111.2691

> <Gold.Chemscore.Internal_Hbond>
0.0000

> <Gold.Chemscore.DEClash>
0.0073

> <Gold.Chemscore.DEInternal>
1.7300

> <Gold.Chemscore.Rot>
2.2645

> <Gold.Chemscore.Internal.Correction>
   9.000000E+99

> <Gold.Chemscore.Hbonds>
donor molecule, donor type, donor heavy atom, donor atom, acceptor molecule, acceptor atom, score
      P1  H  7997  8008       L1    14  0.94
      P1  H 10752 10763       L1    25  0.69

> <Gold.Chemscore.Hbond.Weighted>
-6.4935

> <Gold.Chemscore.Metal.Weighted>
-0.0000

> <Gold.Chemscore.Lipo.Weighted>
-13.0185

> <Gold.Chemscore.Internal_Hbond.Weighted>
0.0000

> <Gold.Chemscore.DEClash.Weighted>
0.0073

> <Gold.Chemscore.DEInternal.Weighted>
1.7300

> <Gold.Chemscore.Rot.Weighted>
5.7972

> <Gold.Chemscore.Internal.Correction.Weighted>
   9.000000E+99

> <Gold.Protein.RotatedTorsions>
[ 6907 6896 6895 6894 ] final -128.70 input  -60.11 | X-H torsion
[ 7974 7965 7964 7962 ] final -159.45 input  175.53 | X-H torsion
[ 8008 7997 7996 7995 ] final  -58.09 input   59.86 | X-H torsion
[ 10167 10162 10161 10158 ] final -162.60 input  -65.29 | X-H torsion
[ 10718 10713 10712 10709 ] final  150.06 input   66.30 | X-H torsion
[ 10763 10752 10751 10750 ] final   63.09 input  -60.55 | X-H torsion
[ 11005 11000 10999 10996 ] final -130.69 input  -57.11 | X-H torsion

> <Gold.Protein.ActiveResidues>
 VAL166  LYS551  ARG553  GLY616  TRP617  ASP618  TYR619  PRO620  LYS621  CYS622 
 ASP623  PHE694  ASN695  SER759  ASP760  ASP761  ALA762  ILE779  LEU786  VAL792 
 PHE793  MET794  SER795  GLU796  ALA797  LYS798  CYS799  TRP800  GLU811  SER814 

> <Gold.Protein.RotatedAtoms>
  150.9207  133.6883  159.2832 H   0  0  0  0  0  0  0  0  0  0  0  0  # atno 6907 bound_to 6896
  151.4339  135.1011  159.9660 H   0  0  0  0  0  0  0  0  0  0  0  0  # atno 6908 bound_to 6896
  152.4978  133.8631  159.7315 H   0  0  0  0  0  0  0  0  0  0  0  0  # atno 6909 bound_to 6896
  144.7465  140.3683  143.6081 H   0  0  0  0  0  0  0  0  0  0  0  0  # atno 7974 bound_to 7965
  154.4294  140.1092  156.5902 H   0  0  0  0  0  0  0  0  0  0  0  0  # atno 8008 bound_to 7997
  155.6020  140.3493  155.4578 H   0  0  0  0  0  0  0  0  0  0  0  0  # atno 8009 bound_to 7997
  156.0166  140.1230  157.0389 H   0  0  0  0  0  0  0  0  0  0  0  0  # atno 8010 bound_to 7997
  139.6381  144.0312  152.2070 H   0  0  0  0  0  0  0  0  0  0  0  0  # atno 10167 bound_to 10162
  157.2882  131.0848  151.1481 H   0  0  0  0  0  0  0  0  0  0  0  0  # atno 10718 bound_to 10713
  153.0005  135.5441  154.6297 H   0  0  0  0  0  0  0  0  0  0  0  0  # atno 10763 bound_to 10752
  154.5578  135.2831  155.0950 H   0  0  0  0  0  0  0  0  0  0  0  0  # atno 10764 bound_to 10752
  154.2165  135.6458  153.5184 H   0  0  0  0  0  0  0  0  0  0  0  0  # atno 10765 bound_to 10752
  140.9323  134.1302  157.4223 H   0  0  0  0  0  0  0  0  0  0  0  0  # atno 11005 bound_to 11000
  145.7104  139.1683  143.2542 LP  0  0  0  0  0  0  0  0  0  0  0  0  # atno 17320 bound_to 7965
  146.1351  140.7134  142.9394 LP  0  0  0  0  0  0  0  0  0  0  0  0  # atno 17321 bound_to 7965
  139.9994  144.6304  150.7743 LP  0  0  0  0  0  0  0  0  0  0  0  0  # atno 17342 bound_to 10162
  140.7476  143.2909  151.3334 LP  0  0  0  0  0  0  0  0  0  0  0  0  # atno 17343 bound_to 10162
  157.2888  130.6786  149.6103 LP  0  0  0  0  0  0  0  0  0  0  0  0  # atno 17370 bound_to 10713
  155.9666  130.4427  150.5392 LP  0  0  0  0  0  0  0  0  0  0  0  0  # atno 17371 bound_to 10713
  139.8799  135.0009  156.6038 LP  0  0  0  0  0  0  0  0  0  0  0  0  # atno 17394 bound_to 11000
  140.7845  133.8632  155.8595 LP  0  0  0  0  0  0  0  0  0  0  0  0  # atno 17395 bound_to 11000

$$$$
