AV-unprocessed.smi:249|AV-procd|sdf|1905|dock2
  -GOLD-   2262020583D 1   1.00000     0.00000
 Structure written by MMmdl.
 64 67  0  0  0  0  0  0  0  0  2 V2000
  145.6684  132.2841  151.6918 C   0  0  0  0  0  0  0  0  0  0  0  0
  146.6449  133.3961  151.2803 C   0  0  0  0  0  0  0  0  0  0  0  0
  147.4511  133.9192  152.4161 N   0  3  1  0  0  0  0  0  0  0  0  0
  146.5996  134.4295  153.5242 C   0  0  0  0  0  0  0  0  0  0  0  0
  147.4340  135.1896  154.5674 C   0  0  0  0  0  0  0  0  0  0  0  0
  148.5769  134.3068  155.1073 C   0  0  2  0  0  0  0  0  0  0  0  0
  149.3781  134.9471  156.1591 N   0  0  0  0  0  0  0  0  0  0  0  0
  148.9182  134.8469  157.5387 C   0  0  0  0  0  0  0  0  0  0  0  0
  150.1114  136.0630  155.9192 C   0  0  0  0  0  0  0  0  0  0  0  0
  151.0027  136.0916  154.8941 N   0  0  0  0  0  0  0  0  0  0  0  0
  151.7127  137.1969  154.6483 C   0  0  0  0  0  0  0  0  0  0  0  0
  151.6872  138.3652  155.2923 N   0  0  0  0  0  0  0  0  0  0  0  0
  150.7904  138.3428  156.3192 C   0  0  0  0  0  0  0  0  0  0  0  0
  149.9664  137.2454  156.6960 C   0  0  0  0  0  0  0  0  0  0  0  0
  149.1847  137.5936  157.7910 N   0  0  0  0  0  0  0  0  0  0  0  0
  149.5264  138.8275  158.0469 C   0  0  0  0  0  0  0  0  0  0  0  0
  150.4823  139.3557  157.2086 N   0  0  0  0  0  0  0  0  0  0  0  0
  151.0473  140.6921  157.2609 C   0  0  0  0  0  0  0  0  0  0  0  0
  151.5084  141.1025  158.6810 C   0  0  1  0  0  0  0  0  0  0  0  0
  152.4754  140.0729  159.3144 C   0  0  0  0  0  0  0  0  0  0  0  0
  153.7140  140.0403  158.6351 O   0  0  0  0  0  0  0  0  0  0  0  0
  152.0812  142.5422  158.6972 C   0  0  2  0  0  0  0  0  0  0  0  0
  152.1893  143.1729  160.0743 C   0  0  0  0  0  0  0  0  0  0  0  0
  152.3092  144.6539  159.7369 C   0  0  0  0  0  0  0  0  0  0  0  0
  151.5087  144.8419  158.5763 O   0  0  0  0  0  0  0  0  0  0  0  0
  151.2109  143.5820  157.9811 C   0  0  0  0  0  0  0  0  0  0  0  0
  149.4195  133.7558  153.9363 C   0  0  0  0  0  0  0  0  0  0  0  0
  148.5531  133.0249  152.8907 C   0  0  1  0  0  0  0  0  0  0  0  0
  148.0659  131.6477  153.3909 C   0  0  0  0  0  0  0  0  0  0  0  0
  145.2034  131.8395  150.8118 H   0  0  0  0  0  0  0  0  0  0  0  0
  144.8629  132.6591  152.3226 H   0  0  0  0  0  0  0  0  0  0  0  0
  146.1814  131.4875  152.2317 H   0  0  0  0  0  0  0  0  0  0  0  0
  147.3268  132.9758  150.5400 H   0  0  0  0  0  0  0  0  0  0  0  0
  146.1173  134.2048  150.7748 H   0  0  0  0  0  0  0  0  0  0  0  0
  145.8444  135.1061  153.1226 H   0  0  0  0  0  0  0  0  0  0  0  0
  146.0576  133.6076  153.9928 H   0  0  0  0  0  0  0  0  0  0  0  0
  147.8246  136.0965  154.1080 H   0  0  0  0  0  0  0  0  0  0  0  0
  146.7868  135.5129  155.3831 H   0  0  0  0  0  0  0  0  0  0  0  0
  148.1136  133.4476  155.5929 H   0  0  0  0  0  0  0  0  0  0  0  0
  149.7471  134.6115  158.2062 H   0  0  0  0  0  0  0  0  0  0  0  0
  148.1718  134.0596  157.6471 H   0  0  0  0  0  0  0  0  0  0  0  0
  148.4673  135.7845  157.8667 H   0  0  0  0  0  0  0  0  0  0  0  0
  152.3974  137.1383  153.8151 H   0  0  0  0  0  0  0  0  0  0  0  0
  149.0850  139.3918  158.8558 H   0  0  0  0  0  0  0  0  0  0  0  0
  151.8824  140.7429  156.5611 H   0  0  0  0  0  0  0  0  0  0  0  0
  150.2914  141.3829  156.8869 H   0  0  0  0  0  0  0  0  0  0  0  0
  150.6179  141.1089  159.3113 H   0  0  0  0  0  0  0  0  0  0  0  0
  152.6578  140.3055  160.3632 H   0  0  0  0  0  0  0  0  0  0  0  0
  152.0436  139.0721  159.3038 H   0  0  0  0  0  0  0  0  0  0  0  0
  154.3929  140.3096  159.2351 H   0  0  0  0  0  0  0  0  0  0  0  0
  153.0713  142.5476  158.2377 H   0  0  0  0  0  0  0  0  0  0  0  0
  151.2808  142.9924  160.6505 H   0  0  0  0  0  0  0  0  0  0  0  0
  153.0399  142.8083  160.6508 H   0  0  0  0  0  0  0  0  0  0  0  0
  151.9871  145.2979  160.5553 H   0  0  0  0  0  0  0  0  0  0  0  0
  153.3419  144.9052  159.4922 H   0  0  0  0  0  0  0  0  0  0  0  0
  151.3925  143.6057  156.9064 H   0  0  0  0  0  0  0  0  0  0  0  0
  150.1513  143.3759  158.1383 H   0  0  0  0  0  0  0  0  0  0  0  0
  149.9449  134.5657  153.4307 H   0  0  0  0  0  0  0  0  0  0  0  0
  150.1930  133.0862  154.3147 H   0  0  0  0  0  0  0  0  0  0  0  0
  149.2137  132.8355  152.0454 H   0  0  0  0  0  0  0  0  0  0  0  0
  148.9067  131.0484  153.7411 H   0  0  0  0  0  0  0  0  0  0  0  0
  147.5850  131.0759  152.5980 H   0  0  0  0  0  0  0  0  0  0  0  0
  147.3611  131.7282  154.2176 H   0  0  0  0  0  0  0  0  0  0  0  0
  147.9160  134.7377  152.0496 H   0  0  0  0  0  0  0  0  0  0  0  0
  1  2  1  0  0  0  0
  1 30  1  0  0  0  0
  1 31  1  0  0  0  0
  1 32  1  0  0  0  0
  2  3  1  0  0  0  0
  2 33  1  0  0  0  0
  2 34  1  0  0  0  0
  3 28  1  0  0  0  0
  3  4  1  0  0  0  0
  3 64  1  0  0  0  0
  4  5  1  0  0  0  0
  4 35  1  0  0  0  0
  4 36  1  0  0  0  0
  5  6  1  0  0  0  0
  5 37  1  0  0  0  0
  5 38  1  0  0  0  0
  6  7  1  0  0  0  0
  6 27  1  0  0  0  0
  6 39  1  0  0  0  0
  7  8  1  0  0  0  0
  7  9  1  0  0  0  0
  8 40  1  0  0  0  0
  8 41  1  0  0  0  0
  8 42  1  0  0  0  0
  9 14  1  0  0  0  0
  9 10  2  0  0  0  0
 10 11  1  0  0  0  0
 11 12  2  0  0  0  0
 11 43  1  0  0  0  0
 12 13  1  0  0  0  0
 13 17  1  0  0  0  0
 13 14  2  0  0  0  0
 14 15  1  0  0  0  0
 15 16  2  0  0  0  0
 16 17  1  0  0  0  0
 16 44  1  0  0  0  0
 17 18  1  0  0  0  0
 18 19  1  0  0  0  0
 18 45  1  0  0  0  0
 18 46  1  0  0  0  0
 19 20  1  0  0  0  0
 19 22  1  0  0  0  0
 19 47  1  0  0  0  0
 20 21  1  0  0  0  0
 20 48  1  0  0  0  0
 20 49  1  0  0  0  0
 21 50  1  0  0  0  0
 22 26  1  0  0  0  0
 22 23  1  0  0  0  0
 22 51  1  0  0  0  0
 23 24  1  0  0  0  0
 23 52  1  0  0  0  0
 23 53  1  0  0  0  0
 24 25  1  0  0  0  0
 24 54  1  0  0  0  0
 24 55  1  0  0  0  0
 25 26  1  0  0  0  0
 26 56  1  0  0  0  0
 26 57  1  0  0  0  0
 27 28  1  0  0  0  0
 27 58  1  0  0  0  0
 27 59  1  0  0  0  0
 28 29  1  0  0  0  0
 28 60  1  0  0  0  0
 29 61  1  0  0  0  0
 29 62  1  0  0  0  0
 29 63  1  0  0  0  0
M  CHG  1   3   1
M  END
> <s_m_source_file>
AV-unprocessed.smi

> <i_m_source_file_index>
249

> <i_lp_mmshare_version>
43012

> <i_f3d_flags>
0

> <s_epik_input>
W0NIM11bQ0gyXU4xW0NIMl1bQ0gyXVtDQEhdKFtDSDJdW0NASF0xW0NIM10pTihbQ0gzXSljKG5bY0hdbjIpYyhjMjMpbltjSF1uM1tDSDJdW0NASF0oW0NIMl1bT0hdKVtDQEBIXTRbQ0gyXVtDSDJdT1tDSDJdNA==

> <s_epik_cmdline>
J2VwaWtfcHl0aG9uJywgJy1waCcsICc3LjAnLCAnLXRuJywgJzgnLCAnLW1hJywgJzIwMCcsICctbWV0YWxfYmluZGluZycsICctaW1hZScsICc8aW5maWxlLm1hZT4nLCAnLW9tYWUnLCAnPG91dGZpbGUubWFlPic=

> <r_lp_tautomer_probability>
1

> <r_epik_Ionization_Penalty>
0.00294688

> <r_epik_Ionization_Penalty_Charging>
0.00169971

> <r_epik_Ionization_Penalty_Neutral>
0.00124717

> <r_epik_State_Penalty>
-0

> <r_epik_Charging_Adjusted_Penalty>
0.00169971

> <i_epik_Tot_Q>
1

> <i_epik_Tot_abs_Q>
1

> <r_epik_Metal_State_Penalty>
-0

> <b_epik_Metal_Only>
0

> <s_lp_Force_Field>
OPLS_2005

> <r_lp_Energy>
52.9117

> <b_lp_Chiralities_Consistent>
1

> <s_lp_Variant>
AV-unprocessed.smi:249-8

> <Gold.Version>
5.8.1

> <Gold.Id.Protein>
6NUR|6NUR_protein|mol2

> <Gold.PLP.Fitness>
49.8469

> <Gold.PLP.PLP>
-41.6802

> <Gold.PLP.part.hbond>
-3.0000

> <Gold.PLP.part.metal>
0.0000

> <Gold.PLP.part.buried>
-3.1267

> <Gold.PLP.part.nonpolar>
-36.3409

> <Gold.PLP.part.repulsive>
0.3160

> <Gold.PLP.ligand.clash>
0.0039

> <Gold.PLP.ligand.torsion>
1.3231

> <Gold.PLP.Chemscore.Hbond>
3.0000

> <Gold.PLP.Chemscore.CHOScore>
0.1061

> <Gold.PLP.Chemscore.Metal>
0.0000

> <Gold.Chemscore.Hbonds>
donor molecule, donor type, donor heavy atom, donor atom, acceptor molecule, acceptor atom, score
      L1  H     3    64       P1  7948  2.00
      P1  H  7997  8009       L1    21  0.94
      L1  C    11    43       P1  7949  0.11

> <Gold.PLP.Chemscore.Internal.Correction>
1.4986

> <Gold.Rescore>
     Score         DG    S(hbond)    S(metal)    S(lipo)     H(rot)  DE(clash)    DE(int)     intcor
     11.70     -15.84       1.56        0.00     102.05       2.65       0.38       3.77       ----

> <Gold.Chemscore.Fitness>
11.6966

> <Gold.Chemscore.DG>
-15.8423

> <Gold.Chemscore.ZeroCoef>
-5.4800

> <Gold.Chemscore.Hbond>
1.5600

> <Gold.Chemscore.Metal>
0.0000

> <Gold.Chemscore.Lipo>
102.0510

> <Gold.Chemscore.Internal_Hbond>
0.0000

> <Gold.Chemscore.DEClash>
0.3766

> <Gold.Chemscore.DEInternal>
3.7691

> <Gold.Chemscore.Rot>
2.6515

> <Gold.Chemscore.Internal.Correction>
   9.000000E+99

> <Gold.Chemscore.Hbonds>
donor molecule, donor type, donor heavy atom, donor atom, acceptor molecule, acceptor atom, score
      L1  H     3    64       P1  7948  0.40
      P1  H  7997  8009       L1    21  0.20

> <Gold.Chemscore.Hbond.Weighted>
-5.2103

> <Gold.Chemscore.Metal.Weighted>
-0.0000

> <Gold.Chemscore.Lipo.Weighted>
-11.9400

> <Gold.Chemscore.Internal_Hbond.Weighted>
0.0000

> <Gold.Chemscore.DEClash.Weighted>
0.3766

> <Gold.Chemscore.DEInternal.Weighted>
3.7691

> <Gold.Chemscore.Rot.Weighted>
6.7880

> <Gold.Chemscore.Internal.Correction.Weighted>
   9.000000E+99

> <Gold.Protein.RotatedTorsions>
[ 6907 6896 6895 6894 ] final  -91.65 input  -60.11 | X-H torsion
[ 7974 7965 7964 7962 ] final   31.68 input  175.53 | X-H torsion
[ 8008 7997 7996 7995 ] final  149.32 input   59.86 | X-H torsion
[ 10167 10162 10161 10158 ] final   13.23 input  -65.29 | X-H torsion
[ 10718 10713 10712 10709 ] final -150.12 input   66.30 | X-H torsion
[ 10763 10752 10751 10750 ] final   73.89 input  -60.55 | X-H torsion
[ 11005 11000 10999 10996 ] final  178.50 input  -57.11 | X-H torsion

> <Gold.Protein.ActiveResidues>
 VAL166  LYS551  ARG553  GLY616  TRP617  ASP618  TYR619  PRO620  LYS621  CYS622 
 ASP623  PHE694  ASN695  SER759  ASP760  ASP761  ALA762  ILE779  LEU786  VAL792 
 PHE793  MET794  SER795  GLU796  ALA797  LYS798  CYS799  TRP800  GLU811  SER814 

> <Gold.Protein.RotatedAtoms>
  150.6895  134.2244  159.4409 H   0  0  0  0  0  0  0  0  0  0  0  0  # atno 6907 bound_to 6896
  152.0199  134.9826  160.0579 H   0  0  0  0  0  0  0  0  0  0  0  0  # atno 6908 bound_to 6896
  152.1407  133.4427  159.4802 H   0  0  0  0  0  0  0  0  0  0  0  0  # atno 6909 bound_to 6896
  146.1535  139.6625  142.9083 H   0  0  0  0  0  0  0  0  0  0  0  0  # atno 7974 bound_to 7965
  156.2759  140.2105  156.5839 H   0  0  0  0  0  0  0  0  0  0  0  0  # atno 8008 bound_to 7997
  154.7037  140.0518  157.0506 H   0  0  0  0  0  0  0  0  0  0  0  0  # atno 8009 bound_to 7997
  155.0700  140.3175  155.4636 H   0  0  0  0  0  0  0  0  0  0  0  0  # atno 8010 bound_to 7997
  140.6016  143.8592  150.6971 H   0  0  0  0  0  0  0  0  0  0  0  0  # atno 10167 bound_to 10162
  156.4420  130.8126  151.2356 H   0  0  0  0  0  0  0  0  0  0  0  0  # atno 10718 bound_to 10713
  153.0551  135.5046  154.7962 H   0  0  0  0  0  0  0  0  0  0  0  0  # atno 10763 bound_to 10752
  154.6794  135.2965  154.9637 H   0  0  0  0  0  0  0  0  0  0  0  0  # atno 10764 bound_to 10752
  154.0428  135.6714  153.4844 H   0  0  0  0  0  0  0  0  0  0  0  0  # atno 10765 bound_to 10752
  140.3958  134.6821  157.4534 H   0  0  0  0  0  0  0  0  0  0  0  0  # atno 11005 bound_to 11000
  145.4766  141.0437  143.2669 LP  0  0  0  0  0  0  0  0  0  0  0  0  # atno 17320 bound_to 7965
  144.7933  139.6284  143.7103 LP  0  0  0  0  0  0  0  0  0  0  0  0  # atno 17321 bound_to 7965
  140.2140  143.3861  152.1696 LP  0  0  0  0  0  0  0  0  0  0  0  0  # atno 17342 bound_to 10162
  139.5295  144.7142  151.5107 LP  0  0  0  0  0  0  0  0  0  0  0  0  # atno 17343 bound_to 10162
  157.7506  131.0165  150.3548 LP  0  0  0  0  0  0  0  0  0  0  0  0  # atno 17370 bound_to 10713
  156.3908  130.3897  149.7031 LP  0  0  0  0  0  0  0  0  0  0  0  0  # atno 17371 bound_to 10713
  140.0373  134.6319  155.9027 LP  0  0  0  0  0  0  0  0  0  0  0  0  # atno 17394 bound_to 11000
  141.1874  133.6560  156.5282 LP  0  0  0  0  0  0  0  0  0  0  0  0  # atno 17395 bound_to 11000

$$$$
