AV-unprocessed.smi:2010|AV-procd|sdf|8152|dock6
  -GOLD-   2272010393D 1   1.00000     0.00000
 Structure written by MMmdl.
 40 41  0  0  0  0  0  0  0  0  2 V2000
  148.4343  140.5464  154.2036 C   0  0  0  0  0  0  0  0  0  0  0  0
  149.8321  139.9129  154.2368 C   0  0  0  0  0  0  0  0  0  0  0  0
  149.7626  138.4062  154.5303 C   0  0  0  0  0  0  0  0  0  0  0  0
  151.1659  137.7753  154.5894 C   0  0  0  0  0  0  0  0  0  0  0  0
  152.0432  138.4764  155.5506 N   0  0  0  0  0  0  0  0  0  0  0  0
  152.2282  137.8361  157.1616 S   0  0  0  0  0  0  0  0  0  0  0  0
  150.8759  137.7958  157.7420 O   0  0  0  0  0  0  0  0  0  0  0  0
  152.9504  136.5609  157.0242 O   0  0  0  0  0  0  0  0  0  0  0  0
  153.1549  139.0263  157.7541 N   0  5  0  0  0  0  0  0  0  0  0  0
  152.6269  139.9491  158.7469 C   0  0  1  0  0  0  0  0  0  0  0  0
  153.7435  140.2790  159.7496 C   0  0  0  0  0  0  0  0  0  0  0  0
  152.0295  141.2095  158.0603 C   0  0  0  0  0  0  0  0  0  0  0  0
  152.3383  142.4835  158.7073 N   0  0  0  0  0  0  0  0  0  0  0  0
  152.8785  143.6277  158.1518 C   0  0  0  0  0  0  0  0  0  0  0  0
  153.0003  144.5521  159.1491 C   0  0  0  0  0  0  0  0  0  0  0  0
  152.5200  143.8702  160.3011 C   0  0  0  0  0  0  0  0  0  0  0  0
  152.1402  142.6312  160.0387 N   0  0  0  0  0  0  0  0  0  0  0  0
  152.1301  139.9354  155.3315 C   0  0  0  0  0  0  0  0  0  0  0  0
  150.7369  140.5898  155.2788 C   0  0  0  0  0  0  0  0  0  0  0  0
  147.9290  140.4389  155.1639 H   0  0  0  0  0  0  0  0  0  0  0  0
  147.8087  140.0776  153.4437 H   0  0  0  0  0  0  0  0  0  0  0  0
  148.4912  141.6107  153.9741 H   0  0  0  0  0  0  0  0  0  0  0  0
  150.2846  140.0479  153.2536 H   0  0  0  0  0  0  0  0  0  0  0  0
  149.2377  138.2363  155.4703 H   0  0  0  0  0  0  0  0  0  0  0  0
  149.1735  137.9047  153.7621 H   0  0  0  0  0  0  0  0  0  0  0  0
  151.0926  136.7185  154.8447 H   0  0  0  0  0  0  0  0  0  0  0  0
  151.6287  137.8224  153.6032 H   0  0  0  0  0  0  0  0  0  0  0  0
  151.8230  139.4818  159.3167 H   0  0  0  0  0  0  0  0  0  0  0  0
  153.3989  140.9956  160.4953 H   0  0  0  0  0  0  0  0  0  0  0  0
  154.6197  140.7030  159.2581 H   0  0  0  0  0  0  0  0  0  0  0  0
  154.0676  139.3839  160.2815 H   0  0  0  0  0  0  0  0  0  0  0  0
  152.3467  141.2617  157.0184 H   0  0  0  0  0  0  0  0  0  0  0  0
  150.9437  141.1150  158.0274 H   0  0  0  0  0  0  0  0  0  0  0  0
  153.1199  143.6888  157.1009 H   0  0  0  0  0  0  0  0  0  0  0  0
  153.3764  145.5607  159.0680 H   0  0  0  0  0  0  0  0  0  0  0  0
  152.4412  144.2340  161.3148 H   0  0  0  0  0  0  0  0  0  0  0  0
  152.7367  140.3984  156.1093 H   0  0  0  0  0  0  0  0  0  0  0  0
  152.6505  140.1108  154.3899 H   0  0  0  0  0  0  0  0  0  0  0  0
  150.8447  141.6488  155.0434 H   0  0  0  0  0  0  0  0  0  0  0  0
  150.2686  140.5464  156.2623 H   0  0  0  0  0  0  0  0  0  0  0  0
  1  2  1  0  0  0  0
  1 20  1  0  0  0  0
  1 21  1  0  0  0  0
  1 22  1  0  0  0  0
  2 19  1  0  0  0  0
  2  3  1  0  0  0  0
  2 23  1  0  0  0  0
  3  4  1  0  0  0  0
  3 24  1  0  0  0  0
  3 25  1  0  0  0  0
  4  5  1  0  0  0  0
  4 26  1  0  0  0  0
  4 27  1  0  0  0  0
  5  6  1  0  0  0  0
  5 18  1  0  0  0  0
  6  7  2  0  0  0  0
  6  8  2  0  0  0  0
  6  9  1  0  0  0  0
  9 10  1  0  0  0  0
 10 11  1  0  0  0  0
 10 12  1  0  0  0  0
 10 28  1  0  0  0  0
 11 29  1  0  0  0  0
 11 30  1  0  0  0  0
 11 31  1  0  0  0  0
 12 13  1  0  0  0  0
 12 32  1  0  0  0  0
 12 33  1  0  0  0  0
 13 17  1  0  0  0  0
 13 14  1  0  0  0  0
 14 15  2  0  0  0  0
 14 34  1  0  0  0  0
 15 16  1  0  0  0  0
 15 35  1  0  0  0  0
 16 17  2  0  0  0  0
 16 36  1  0  0  0  0
 18 19  1  0  0  0  0
 18 37  1  0  0  0  0
 18 38  1  0  0  0  0
 19 39  1  0  0  0  0
 19 40  1  0  0  0  0
M  CHG  1   9  -1
M  END
> <s_m_source_file>
AV-unprocessed.smi

> <i_m_source_file_index>
2010

> <i_lp_mmshare_version>
43012

> <i_f3d_flags>
0

> <s_epik_input>
W0NIM11bQ0hdMVtDSDJdW0NIMl1OKFtDSDJdW0NIMl0xKVMoPU8pKD1PKVtOSF1bQ0BIXShbQ0gzXSlbQ0gyXW4yW2NIXVtjSF1bY0hdbjI=

> <s_epik_cmdline>
J2VwaWtfcHl0aG9uJywgJy1waCcsICc3LjAnLCAnLXRuJywgJzgnLCAnLW1hJywgJzIwMCcsICctbWV0YWxfYmluZGluZycsICctaW1hZScsICc8aW5maWxlLm1hZT4nLCAnLW9tYWUnLCAnPG91dGZpbGUubWFlPic=

> <r_lp_tautomer_probability>
1

> <r_epik_Ionization_Penalty>
1.75622

> <r_epik_Ionization_Penalty_Charging>
1.7562

> <r_epik_Ionization_Penalty_Neutral>
2.39925e-05

> <r_epik_State_Penalty>
1.86645

> <r_epik_Charging_Adjusted_Penalty>
3.62264

> <i_epik_Tot_Q>
-1

> <i_epik_Tot_abs_Q>
1

> <r_epik_Metal_State_Penalty>
0.460135

> <b_epik_Metal_Only>
0

> <s_lp_Force_Field>
OPLS_2005

> <r_lp_Energy>
3.33366

> <b_lp_Chiralities_Consistent>
1

> <s_lp_Variant>
AV-unprocessed.smi:2010-4

> <Gold.Version>
5.8.1

> <Gold.Id.Protein>
6NUR|6NUR_protein|mol2

> <Gold.PLP.Fitness>
47.0694

> <Gold.PLP.PLP>
-40.3681

> <Gold.PLP.part.hbond>
-2.6810

> <Gold.PLP.part.metal>
0.0000

> <Gold.PLP.part.buried>
-1.5812

> <Gold.PLP.part.nonpolar>
-34.7753

> <Gold.PLP.part.repulsive>
0.0252

> <Gold.PLP.ligand.clash>
0.0000

> <Gold.PLP.ligand.torsion>
2.7084

> <Gold.PLP.Chemscore.Hbond>
3.0000

> <Gold.PLP.Chemscore.CHOScore>
0.0000

> <Gold.PLP.Chemscore.Metal>
0.0000

> <Gold.Chemscore.Hbonds>
donor molecule, donor type, donor heavy atom, donor atom, acceptor molecule, acceptor atom, score
      P1  H  7997  8009       L1     9  2.00
      P1  H 10752 10763       L1     8  0.65

> <Gold.PLP.Chemscore.Internal.Correction>
3.1181

> <Gold.Rescore>
     Score         DG    S(hbond)    S(metal)    S(lipo)     H(rot)  DE(clash)    DE(int)     intcor
     15.60     -19.54       1.79        0.00      98.99       1.37       0.07       3.87       ----

> <Gold.Chemscore.Fitness>
15.5984

> <Gold.Chemscore.DG>
-19.5369

> <Gold.Chemscore.ZeroCoef>
-5.4800

> <Gold.Chemscore.Hbond>
1.7875

> <Gold.Chemscore.Metal>
0.0000

> <Gold.Chemscore.Lipo>
98.9873

> <Gold.Chemscore.Internal_Hbond>
0.0000

> <Gold.Chemscore.DEClash>
0.0679

> <Gold.Chemscore.DEInternal>
3.8705

> <Gold.Chemscore.Rot>
1.3652

> <Gold.Chemscore.Internal.Correction>
   9.000000E+99

> <Gold.Chemscore.Hbonds>
donor molecule, donor type, donor heavy atom, donor atom, acceptor molecule, acceptor atom, score
      P1  H  7997  8009       L1     9  0.45
      P1  H 10752 10763       L1     8  0.62

> <Gold.Chemscore.Hbond.Weighted>
-5.9702

> <Gold.Chemscore.Metal.Weighted>
-0.0000

> <Gold.Chemscore.Lipo.Weighted>
-11.5815

> <Gold.Chemscore.Internal_Hbond.Weighted>
0.0000

> <Gold.Chemscore.DEClash.Weighted>
0.0679

> <Gold.Chemscore.DEInternal.Weighted>
3.8705

> <Gold.Chemscore.Rot.Weighted>
3.4948

> <Gold.Chemscore.Internal.Correction.Weighted>
   9.000000E+99

> <Gold.Protein.RotatedTorsions>
[ 6907 6896 6895 6894 ] final -136.45 input  -60.11 | X-H torsion
[ 7974 7965 7964 7962 ] final   54.96 input  175.53 | X-H torsion
[ 8008 7997 7996 7995 ] final  167.01 input   59.86 | X-H torsion
[ 10167 10162 10161 10158 ] final   41.42 input  -65.29 | X-H torsion
[ 10718 10713 10712 10709 ] final  150.52 input   66.30 | X-H torsion
[ 10763 10752 10751 10750 ] final  128.39 input  -60.55 | X-H torsion
[ 11005 11000 10999 10996 ] final  122.12 input  -57.11 | X-H torsion

> <Gold.Protein.ActiveResidues>
 VAL166  LYS551  ARG553  GLY616  TRP617  ASP618  TYR619  PRO620  LYS621  CYS622 
 ASP623  PHE694  ASN695  SER759  ASP760  ASP761  ALA762  ILE779  LEU786  VAL792 
 PHE793  MET794  SER795  GLU796  ALA797  LYS798  CYS799  TRP800  GLU811  SER814 

> <Gold.Protein.RotatedAtoms>
  151.0102  133.5972  159.2683 H   0  0  0  0  0  0  0  0  0  0  0  0  # atno 6907 bound_to 6896
  151.3127  135.0797  159.9288 H   0  0  0  0  0  0  0  0  0  0  0  0  # atno 6908 bound_to 6896
  152.5297  133.9764  159.7840 H   0  0  0  0  0  0  0  0  0  0  0  0  # atno 6909 bound_to 6896
  145.9554  139.4010  143.0281 H   0  0  0  0  0  0  0  0  0  0  0  0  # atno 7974 bound_to 7965
  156.1670  140.1628  156.8514 H   0  0  0  0  0  0  0  0  0  0  0  0  # atno 8008 bound_to 7997
  154.5217  140.0776  156.8219 H   0  0  0  0  0  0  0  0  0  0  0  0  # atno 8009 bound_to 7997
  155.3591  140.3394  155.4243 H   0  0  0  0  0  0  0  0  0  0  0  0  # atno 8010 bound_to 7997
  140.3645  144.2186  150.6136 H   0  0  0  0  0  0  0  0  0  0  0  0  # atno 10167 bound_to 10162
  157.2825  131.0838  151.1521 H   0  0  0  0  0  0  0  0  0  0  0  0  # atno 10718 bound_to 10713
  153.7247  135.3248  155.3274 H   0  0  0  0  0  0  0  0  0  0  0  0  # atno 10763 bound_to 10752
  154.8345  135.4508  154.1182 H   0  0  0  0  0  0  0  0  0  0  0  0  # atno 10764 bound_to 10752
  153.2312  135.6960  153.7968 H   0  0  0  0  0  0  0  0  0  0  0  0  # atno 10765 bound_to 10752
  139.9254  134.9640  156.8061 H   0  0  0  0  0  0  0  0  0  0  0  0  # atno 11005 bound_to 11000
  145.8114  140.9724  143.0947 LP  0  0  0  0  0  0  0  0  0  0  0  0  # atno 17320 bound_to 7965
  144.6804  139.9925  143.7484 LP  0  0  0  0  0  0  0  0  0  0  0  0  # atno 17321 bound_to 7965
  140.5095  143.2295  151.8557 LP  0  0  0  0  0  0  0  0  0  0  0  0  # atno 17342 bound_to 10162
  139.4810  144.4967  151.9115 LP  0  0  0  0  0  0  0  0  0  0  0  0  # atno 17343 bound_to 10162
  157.2950  130.6815  149.6134 LP  0  0  0  0  0  0  0  0  0  0  0  0  # atno 17370 bound_to 10713
  155.9665  130.4409  150.5319 LP  0  0  0  0  0  0  0  0  0  0  0  0  # atno 17371 bound_to 10713
  140.6350  133.9870  155.7680 LP  0  0  0  0  0  0  0  0  0  0  0  0  # atno 17394 bound_to 11000
  141.0808  134.0065  157.3388 LP  0  0  0  0  0  0  0  0  0  0  0  0  # atno 17395 bound_to 11000

$$$$
