AV-unprocessed.smi:1201|AV-procd|sdf|5027|dock3
  -GOLD-   22720 4 53D 1   1.00000     0.00000
 Structure written by MMmdl.
 31 32  0  0  0  0  0  0  0  0  1 V2000
  140.7028  145.0156  160.6501 C   0  0  0  0  0  0  0  0  0  0  0  0
  141.6973  144.3802  161.4459 O   0  0  0  0  0  0  0  0  0  0  0  0
  143.0196  144.5203  161.0774 C   0  0  0  0  0  0  0  0  0  0  0  0
  144.0100  143.9179  161.8782 C   0  0  0  0  0  0  0  0  0  0  0  0
  145.3621  144.0562  161.5105 C   0  0  0  0  0  0  0  0  0  0  0  0
  145.6820  144.7904  160.3430 C   0  0  0  0  0  0  0  0  0  0  0  0
  147.0028  145.0198  159.8692 N   0  0  0  0  0  0  0  0  0  0  0  0
  148.1750  144.7577  160.4727 C   0  0  0  0  0  0  0  0  0  0  0  0
  148.3088  144.2323  161.5775 O   0  0  0  0  0  0  0  0  0  0  0  0
  149.2068  145.1306  159.7031 N   0  0  0  0  0  0  0  0  0  0  0  0
  150.6110  144.9925  160.0661 C   0  0  0  0  0  0  0  0  0  0  0  0
  151.4061  144.0462  159.1871 C   0  0  0  0  0  0  0  0  0  0  0  0
  152.8095  144.4043  158.7573 C   0  0  0  0  0  0  0  0  0  0  0  0
  151.6946  144.3749  157.7403 C   0  0  0  0  0  0  0  0  0  0  0  0
  144.6167  145.3622  159.6171 C   0  0  0  0  0  0  0  0  0  0  0  0
  143.3189  145.2339  159.9639 N   0  0  0  0  0  0  0  0  0  0  0  0
  139.7182  144.8047  161.0670 H   0  0  0  0  0  0  0  0  0  0  0  0
  140.7137  144.6434  159.6247 H   0  0  0  0  0  0  0  0  0  0  0  0
  140.8328  146.0987  160.6401 H   0  0  0  0  0  0  0  0  0  0  0  0
  143.7378  143.3622  162.7634 H   0  0  0  0  0  0  0  0  0  0  0  0
  146.1168  143.6085  162.1372 H   0  0  0  0  0  0  0  0  0  0  0  0
  147.0639  145.3939  158.9336 H   0  0  0  0  0  0  0  0  0  0  0  0
  149.0071  145.5480  158.8059 H   0  0  0  0  0  0  0  0  0  0  0  0
  151.0926  145.9720  160.0835 H   0  0  0  0  0  0  0  0  0  0  0  0
  150.6497  144.6166  161.0884 H   0  0  0  0  0  0  0  0  0  0  0  0
  151.2442  142.9950  159.4187 H   0  0  0  0  0  0  0  0  0  0  0  0
  153.1971  145.3793  159.0463 H   0  0  0  0  0  0  0  0  0  0  0  0
  153.5438  143.6021  158.7230 H   0  0  0  0  0  0  0  0  0  0  0  0
  151.6833  143.5525  157.0281 H   0  0  0  0  0  0  0  0  0  0  0  0
  151.3405  145.3292  157.3553 H   0  0  0  0  0  0  0  0  0  0  0  0
  144.8100  145.9406  158.7252 H   0  0  0  0  0  0  0  0  0  0  0  0
  1  2  1  0  0  0  0
  1 17  1  0  0  0  0
  1 18  1  0  0  0  0
  1 19  1  0  0  0  0
  2  3  1  0  0  0  0
  3 16  1  0  0  0  0
  3  4  2  0  0  0  0
  4  5  1  0  0  0  0
  4 20  1  0  0  0  0
  5  6  2  0  0  0  0
  5 21  1  0  0  0  0
  6  7  1  0  0  0  0
  6 15  1  0  0  0  0
  7  8  1  0  0  0  0
  7 22  1  0  0  0  0
  8  9  2  0  0  0  0
  8 10  1  0  0  0  0
 10 11  1  0  0  0  0
 10 23  1  0  0  0  0
 11 12  1  0  0  0  0
 11 24  1  0  0  0  0
 11 25  1  0  0  0  0
 12 14  1  0  0  0  0
 12 13  1  0  0  0  0
 12 26  1  0  0  0  0
 13 14  1  0  0  0  0
 13 27  1  0  0  0  0
 13 28  1  0  0  0  0
 14 29  1  0  0  0  0
 14 30  1  0  0  0  0
 15 16  2  0  0  0  0
 15 31  1  0  0  0  0
M  END
> <s_m_source_file>
AV-unprocessed.smi

> <i_m_source_file_index>
1201

> <i_lp_mmshare_version>
43012

> <i_f3d_flags>
0

> <s_epik_input>
W0NIM11PYzFbY0hdW2NIXWMoW2NIXW4xKVtOSF1DKD1PKVtOSF1bQ0gyXVtDSF0yW0NIMl1bQ0gyXTI=

> <s_epik_cmdline>
J2VwaWtfcHl0aG9uJywgJy1waCcsICc3LjAnLCAnLXRuJywgJzgnLCAnLW1hJywgJzIwMCcsICctbWV0YWxfYmluZGluZycsICctaW1hZScsICc8aW5maWxlLm1hZT4nLCAnLW9tYWUnLCAnPG91dGZpbGUubWFlPic=

> <r_lp_tautomer_probability>
1

> <r_epik_Ionization_Penalty>
9.92182e-05

> <r_epik_Ionization_Penalty_Charging>
0

> <r_epik_Ionization_Penalty_Neutral>
9.92182e-05

> <r_epik_State_Penalty>
-0

> <r_epik_Charging_Adjusted_Penalty>
0

> <i_epik_Tot_Q>
0

> <i_epik_Tot_abs_Q>
0

> <r_epik_Metal_State_Penalty>
-0

> <b_epik_Metal_Only>
0

> <s_lp_Force_Field>
OPLS_2005

> <r_lp_Energy>
14.9196

> <b_lp_Chiralities_Consistent>
1

> <s_lp_Variant>
AV-unprocessed.smi:1201-1

> <Gold.Version>
5.8.1

> <Gold.Id.Protein>
6NUR|6NUR_protein|mol2

> <Gold.PLP.Fitness>
43.4015

> <Gold.PLP.PLP>
-34.9008

> <Gold.PLP.part.hbond>
-3.9758

> <Gold.PLP.part.metal>
0.0000

> <Gold.PLP.part.buried>
-6.8200

> <Gold.PLP.part.nonpolar>
-25.4450

> <Gold.PLP.part.repulsive>
0.6425

> <Gold.PLP.ligand.clash>
0.0000

> <Gold.PLP.ligand.torsion>
0.3390

> <Gold.PLP.Chemscore.Hbond>
2.8800

> <Gold.PLP.Chemscore.CHOScore>
0.0000

> <Gold.PLP.Chemscore.Metal>
0.0000

> <Gold.Chemscore.Hbonds>
donor molecule, donor type, donor heavy atom, donor atom, acceptor molecule, acceptor atom, score
      L1  H     7    22       P1  8029  1.00
      L1  H    10    23       P1  8029  1.00
      P1  H  6933  6944       L1     9  0.88

> <Gold.PLP.Chemscore.Internal.Correction>
0.5387

> <Gold.Rescore>
     Score         DG    S(hbond)    S(metal)    S(lipo)     H(rot)  DE(clash)    DE(int)     intcor
     18.63     -20.13       2.91        0.00      73.78       1.45       0.00       1.50       ----

> <Gold.Chemscore.Fitness>
18.6324

> <Gold.Chemscore.DG>
-20.1294

> <Gold.Chemscore.ZeroCoef>
-5.4800

> <Gold.Chemscore.Hbond>
2.9126

> <Gold.Chemscore.Metal>
0.0000

> <Gold.Chemscore.Lipo>
73.7811

> <Gold.Chemscore.Internal_Hbond>
0.0000

> <Gold.Chemscore.DEClash>
0.0000

> <Gold.Chemscore.DEInternal>
1.4969

> <Gold.Chemscore.Rot>
1.4497

> <Gold.Chemscore.Internal.Correction>
   9.000000E+99

> <Gold.Chemscore.Hbonds>
donor molecule, donor type, donor heavy atom, donor atom, acceptor molecule, acceptor atom, score
      L1  H     7    22       P1  8029  0.99
      L1  H    10    23       P1  8029  0.98
      P1  H  6933  6944       L1     9  0.74

> <Gold.Chemscore.Hbond.Weighted>
-9.7281

> <Gold.Chemscore.Metal.Weighted>
-0.0000

> <Gold.Chemscore.Lipo.Weighted>
-8.6324

> <Gold.Chemscore.Internal_Hbond.Weighted>
0.0000

> <Gold.Chemscore.DEClash.Weighted>
0.0000

> <Gold.Chemscore.DEInternal.Weighted>
1.4969

> <Gold.Chemscore.Rot.Weighted>
3.7111

> <Gold.Chemscore.Internal.Correction.Weighted>
   9.000000E+99

> <Gold.Protein.RotatedTorsions>
[ 6907 6896 6895 6894 ] final   37.08 input  -60.11 | X-H torsion
[ 7974 7965 7964 7962 ] final  -74.23 input  175.53 | X-H torsion
[ 8008 7997 7996 7995 ] final   33.56 input   59.86 | X-H torsion
[ 10167 10162 10161 10158 ] final  156.63 input  -65.29 | X-H torsion
[ 10718 10713 10712 10709 ] final  166.51 input   66.30 | X-H torsion
[ 10763 10752 10751 10750 ] final -106.89 input  -60.55 | X-H torsion
[ 11005 11000 10999 10996 ] final  115.58 input  -57.11 | X-H torsion

> <Gold.Protein.ActiveResidues>
 VAL166  LYS551  ARG553  GLY616  TRP617  ASP618  TYR619  PRO620  LYS621  CYS622 
 ASP623  PHE694  ASN695  SER759  ASP760  ASP761  ALA762  ILE779  LEU786  VAL792 
 PHE793  MET794  SER795  GLU796  ALA797  LYS798  CYS799  TRP800  GLU811  SER814 

> <Gold.Protein.RotatedAtoms>
  152.1384  134.9082  160.0554 H   0  0  0  0  0  0  0  0  0  0  0  0  # atno 6907 bound_to 6896
  152.0159  133.3874  159.4247 H   0  0  0  0  0  0  0  0  0  0  0  0  # atno 6908 bound_to 6896
  150.6862  134.3601  159.4990 H   0  0  0  0  0  0  0  0  0  0  0  0  # atno 6909 bound_to 6896
  145.6418  140.9308  143.1031 H   0  0  0  0  0  0  0  0  0  0  0  0  # atno 7974 bound_to 7965
  155.1405  140.3265  155.4453 H   0  0  0  0  0  0  0  0  0  0  0  0  # atno 8008 bound_to 7997
  156.2606  140.1994  156.6471 H   0  0  0  0  0  0  0  0  0  0  0  0  # atno 8009 bound_to 7997
  154.6546  140.0554  156.9980 H   0  0  0  0  0  0  0  0  0  0  0  0  # atno 8010 bound_to 7997
  139.4821  144.4992  151.8194 H   0  0  0  0  0  0  0  0  0  0  0  0  # atno 10167 bound_to 10162
  157.0649  131.0350  151.2633 H   0  0  0  0  0  0  0  0  0  0  0  0  # atno 10718 bound_to 10713
  154.8041  135.4695  154.0348 H   0  0  0  0  0  0  0  0  0  0  0  0  # atno 10763 bound_to 10752
  153.1831  135.6843  153.8458 H   0  0  0  0  0  0  0  0  0  0  0  0  # atno 10764 bound_to 10752
  153.8002  135.3231  155.3367 H   0  0  0  0  0  0  0  0  0  0  0  0  # atno 10765 bound_to 10752
  139.9014  134.9586  156.7068 H   0  0  0  0  0  0  0  0  0  0  0  0  # atno 11005 bound_to 11000
  144.7154  139.8215  143.7400 LP  0  0  0  0  0  0  0  0  0  0  0  0  # atno 17320 bound_to 7965
  146.1274  139.4303  143.0190 LP  0  0  0  0  0  0  0  0  0  0  0  0  # atno 17321 bound_to 7965
  140.4483  144.1891  150.5895 LP  0  0  0  0  0  0  0  0  0  0  0  0  # atno 17342 bound_to 10162
  140.4611  143.2448  151.9218 LP  0  0  0  0  0  0  0  0  0  0  0  0  # atno 17343 bound_to 10162
  157.4925  130.7830  149.7522 LP  0  0  0  0  0  0  0  0  0  0  0  0  # atno 17370 bound_to 10713
  155.9967  130.3904  150.2767 LP  0  0  0  0  0  0  0  0  0  0  0  0  # atno 17371 bound_to 10713
  140.7107  133.9225  155.8083 LP  0  0  0  0  0  0  0  0  0  0  0  0  # atno 17394 bound_to 11000
  141.0302  134.0767  157.4023 LP  0  0  0  0  0  0  0  0  0  0  0  0  # atno 17395 bound_to 11000

$$$$
