AV-unprocessed.smi:1126|AV-procd|sdf|4838|dock3
  -GOLD-   22720 3403D 1   1.00000     0.00000
 Structure written by MMmdl.
 48 49  0  0  0  0  0  0  0  0  2 V2000
  144.4541  135.2169  150.5476 C   0  0  0  0  0  0  0  0  0  0  0  0
  144.6817  135.5979  151.8932 O   0  0  0  0  0  0  0  0  0  0  0  0
  143.7283  136.5373  152.3624 C   0  0  0  0  0  0  0  0  0  0  0  0
  144.2310  137.1342  153.6858 C   0  0  0  0  0  0  0  0  0  0  0  0
  145.0887  138.3288  153.4780 N   0  3  2  0  0  0  0  0  0  0  0  0
  146.1976  138.0664  152.5254 C   0  0  0  0  0  0  0  0  0  0  0  0
  146.9859  139.3526  152.2178 C   0  0  0  0  0  0  0  0  0  0  0  0
  147.5268  140.0252  153.4935 C   0  0  2  0  0  0  0  0  0  0  0  0
  148.7278  139.2548  154.0901 C   0  0  0  0  0  0  0  0  0  0  0  0
  148.9470  139.5705  155.4977 N   0  0  0  0  0  0  0  0  0  0  0  0
  149.9342  140.3393  155.9849 C   0  0  0  0  0  0  0  0  0  0  0  0
  150.8084  140.8482  155.2835 O   0  0  0  0  0  0  0  0  0  0  0  0
  149.9427  140.5598  157.4986 C   0  0  0  0  0  0  0  0  0  0  0  0
  150.9215  141.5627  157.8800 N   0  0  0  0  0  0  0  0  0  0  0  0
  150.9933  142.8826  157.4869 C   0  0  0  0  0  0  0  0  0  0  0  0
  152.0744  143.4392  158.1097 C   0  0  0  0  0  0  0  0  0  0  0  0
  152.5862  144.8481  158.0210 C   0  0  0  0  0  0  0  0  0  0  0  0
  152.6076  142.3617  158.8728 C   0  0  0  0  0  0  0  0  0  0  0  0
  151.9171  141.2415  158.7345 N   0  0  0  0  0  0  0  0  0  0  0  0
  146.3531  140.2341  154.4733 C   0  0  0  0  0  0  0  0  0  0  0  0
  145.5844  138.9288  154.7447 C   0  0  0  0  0  0  0  0  0  0  0  0
  145.2120  134.4973  150.2374 H   0  0  0  0  0  0  0  0  0  0  0  0
  144.5132  136.0767  149.8790 H   0  0  0  0  0  0  0  0  0  0  0  0
  143.4765  134.7478  150.4300 H   0  0  0  0  0  0  0  0  0  0  0  0
  143.5483  137.3110  151.6160 H   0  0  0  0  0  0  0  0  0  0  0  0
  142.7761  136.0324  152.5321 H   0  0  0  0  0  0  0  0  0  0  0  0
  143.3918  137.3926  154.3332 H   0  0  0  0  0  0  0  0  0  0  0  0
  144.7950  136.3610  154.2096 H   0  0  0  0  0  0  0  0  0  0  0  0
  146.8564  137.2977  152.9313 H   0  0  0  0  0  0  0  0  0  0  0  0
  145.7925  137.6707  151.5932 H   0  0  0  0  0  0  0  0  0  0  0  0
  147.8027  139.1356  151.5286 H   0  0  0  0  0  0  0  0  0  0  0  0
  146.3309  140.0516  151.6958 H   0  0  0  0  0  0  0  0  0  0  0  0
  147.8974  141.0110  153.2086 H   0  0  0  0  0  0  0  0  0  0  0  0
  148.6209  138.1791  153.9464 H   0  0  0  0  0  0  0  0  0  0  0  0
  149.6372  139.5349  153.5576 H   0  0  0  0  0  0  0  0  0  0  0  0
  148.2774  139.1977  156.1560 H   0  0  0  0  0  0  0  0  0  0  0  0
  148.9515  140.8683  157.8351 H   0  0  0  0  0  0  0  0  0  0  0  0
  150.1805  139.6274  158.0122 H   0  0  0  0  0  0  0  0  0  0  0  0
  150.2737  143.3119  156.8049 H   0  0  0  0  0  0  0  0  0  0  0  0
  153.6533  144.9051  158.2363 H   0  0  0  0  0  0  0  0  0  0  0  0
  152.0794  145.5041  158.7286 H   0  0  0  0  0  0  0  0  0  0  0  0
  152.4370  145.2701  157.0269 H   0  0  0  0  0  0  0  0  0  0  0  0
  153.4715  142.3614  159.5215 H   0  0  0  0  0  0  0  0  0  0  0  0
  146.6969  140.6698  155.4109 H   0  0  0  0  0  0  0  0  0  0  0  0
  145.6630  140.9642  154.0482 H   0  0  0  0  0  0  0  0  0  0  0  0
  144.7507  139.1489  155.4105 H   0  0  0  0  0  0  0  0  0  0  0  0
  146.2187  138.2124  155.2683 H   0  0  0  0  0  0  0  0  0  0  0  0
  144.5012  139.0216  153.0358 H   0  0  0  0  0  0  0  0  0  0  0  0
  1  2  1  0  0  0  0
  1 22  1  0  0  0  0
  1 23  1  0  0  0  0
  1 24  1  0  0  0  0
  2  3  1  0  0  0  0
  3  4  1  0  0  0  0
  3 25  1  0  0  0  0
  3 26  1  0  0  0  0
  4  5  1  0  0  0  0
  4 27  1  0  0  0  0
  4 28  1  0  0  0  0
  5 21  1  0  0  0  0
  5  6  1  0  0  0  0
  5 48  1  0  0  0  0
  6  7  1  0  0  0  0
  6 29  1  0  0  0  0
  6 30  1  0  0  0  0
  7  8  1  0  0  0  0
  7 31  1  0  0  0  0
  7 32  1  0  0  0  0
  8  9  1  0  0  0  0
  8 20  1  0  0  0  0
  8 33  1  0  0  0  0
  9 10  1  0  0  0  0
  9 34  1  0  0  0  0
  9 35  1  0  0  0  0
 10 11  1  0  0  0  0
 10 36  1  0  0  0  0
 11 12  2  0  0  0  0
 11 13  1  0  0  0  0
 13 14  1  0  0  0  0
 13 37  1  0  0  0  0
 13 38  1  0  0  0  0
 14 19  1  0  0  0  0
 14 15  1  0  0  0  0
 15 16  2  0  0  0  0
 15 39  1  0  0  0  0
 16 17  1  0  0  0  0
 16 18  1  0  0  0  0
 17 40  1  0  0  0  0
 17 41  1  0  0  0  0
 17 42  1  0  0  0  0
 18 19  2  0  0  0  0
 18 43  1  0  0  0  0
 20 21  1  0  0  0  0
 20 44  1  0  0  0  0
 20 45  1  0  0  0  0
 21 46  1  0  0  0  0
 21 47  1  0  0  0  0
M  CHG  1   5   1
M  END
> <s_m_source_file>
AV-unprocessed.smi

> <i_m_source_file_index>
1126

> <i_lp_mmshare_version>
43012

> <i_f3d_flags>
0

> <s_epik_input>
W0NIM11PW0NIMl1bQ0gyXU4xW0NIMl1bQ0gyXVtDSF0oW0NIMl1bQ0gyXTEpW0NIMl1bTkhdQyg9TylbQ0gyXW4yW2NIXWMoW0NIM10pW2NIXW4y

> <s_epik_cmdline>
J2VwaWtfcHl0aG9uJywgJy1waCcsICc3LjAnLCAnLXRuJywgJzgnLCAnLW1hJywgJzIwMCcsICctbWV0YWxfYmluZGluZycsICctaW1hZScsICc8aW5maWxlLm1hZT4nLCAnLW9tYWUnLCAnPG91dGZpbGUubWFlPic=

> <r_lp_tautomer_probability>
1

> <r_epik_Ionization_Penalty>
0.00992859

> <r_epik_Ionization_Penalty_Charging>
0.00990284

> <r_epik_Ionization_Penalty_Neutral>
2.57527e-05

> <r_epik_State_Penalty>
0.00754525

> <r_epik_Charging_Adjusted_Penalty>
0.0174481

> <i_epik_Tot_Q>
1

> <i_epik_Tot_abs_Q>
1

> <r_epik_Metal_State_Penalty>
0.00754529

> <b_epik_Metal_Only>
0

> <s_lp_Force_Field>
OPLS_2005

> <r_lp_Energy>
20.6922

> <b_lp_Chiralities_Consistent>
1

> <s_lp_Variant>
AV-unprocessed.smi:1126-2

> <Gold.Version>
5.8.1

> <Gold.Id.Protein>
6NUR|6NUR_protein|mol2

> <Gold.PLP.Fitness>
46.1129

> <Gold.PLP.PLP>
-35.7661

> <Gold.PLP.part.hbond>
-2.0000

> <Gold.PLP.part.metal>
0.0000

> <Gold.PLP.part.buried>
-0.5234

> <Gold.PLP.part.nonpolar>
-32.9267

> <Gold.PLP.part.repulsive>
0.2372

> <Gold.PLP.ligand.clash>
0.0000

> <Gold.PLP.ligand.torsion>
0.6247

> <Gold.PLP.Chemscore.Hbond>
2.8320

> <Gold.PLP.Chemscore.CHOScore>
1.0000

> <Gold.PLP.Chemscore.Metal>
0.0000

> <Gold.Chemscore.Hbonds>
donor molecule, donor type, donor heavy atom, donor atom, acceptor molecule, acceptor atom, score
      L1  H     5    48       P1 10175  2.00
      P1  H  7989  7998       L1    12  0.80
      L1  C    15    39       P1  8028  1.00

> <Gold.PLP.Chemscore.Internal.Correction>
0.1001

> <Gold.Rescore>
     Score         DG    S(hbond)    S(metal)    S(lipo)     H(rot)  DE(clash)    DE(int)     intcor
     16.21     -17.25       1.83        0.00      94.24       2.10       0.13       0.91       ----

> <Gold.Chemscore.Fitness>
16.2069

> <Gold.Chemscore.DG>
-17.2526

> <Gold.Chemscore.ZeroCoef>
-5.4800

> <Gold.Chemscore.Hbond>
1.8335

> <Gold.Chemscore.Metal>
0.0000

> <Gold.Chemscore.Lipo>
94.2431

> <Gold.Chemscore.Internal_Hbond>
0.0000

> <Gold.Chemscore.DEClash>
0.1343

> <Gold.Chemscore.DEInternal>
0.9114

> <Gold.Chemscore.Rot>
2.1006

> <Gold.Chemscore.Internal.Correction>
   9.000000E+99

> <Gold.Chemscore.Hbonds>
donor molecule, donor type, donor heavy atom, donor atom, acceptor molecule, acceptor atom, score
      L1  H     5    48       P1 10175  1.00
      P1  H  7989  7998       L1    12  0.78

> <Gold.Chemscore.Hbond.Weighted>
-6.1237

> <Gold.Chemscore.Metal.Weighted>
-0.0000

> <Gold.Chemscore.Lipo.Weighted>
-11.0264

> <Gold.Chemscore.Internal_Hbond.Weighted>
0.0000

> <Gold.Chemscore.DEClash.Weighted>
0.1343

> <Gold.Chemscore.DEInternal.Weighted>
0.9114

> <Gold.Chemscore.Rot.Weighted>
5.3775

> <Gold.Chemscore.Internal.Correction.Weighted>
   9.000000E+99

> <Gold.Protein.RotatedTorsions>
[ 6907 6896 6895 6894 ] final  -35.51 input  -60.11 | X-H torsion
[ 7974 7965 7964 7962 ] final -166.16 input  175.53 | X-H torsion
[ 8008 7997 7996 7995 ] final -160.50 input   59.86 | X-H torsion
[ 10167 10162 10161 10158 ] final  157.67 input  -65.29 | X-H torsion
[ 10718 10713 10712 10709 ] final -156.09 input   66.30 | X-H torsion
[ 10763 10752 10751 10750 ] final  124.36 input  -60.55 | X-H torsion
[ 11005 11000 10999 10996 ] final -123.07 input  -57.11 | X-H torsion

> <Gold.Protein.ActiveResidues>
 VAL166  LYS551  ARG553  GLY616  TRP617  ASP618  TYR619  PRO620  LYS621  CYS622 
 ASP623  PHE694  ASN695  SER759  ASP760  ASP761  ALA762  ILE779  LEU786  VAL792 
 PHE793  MET794  SER795  GLU796  ALA797  LYS798  CYS799  TRP800  GLU811  SER814 

> <Gold.Protein.RotatedAtoms>
  151.0390  134.9593  159.8150 H   0  0  0  0  0  0  0  0  0  0  0  0  # atno 6907 bound_to 6896
  152.5360  134.2683  159.8972 H   0  0  0  0  0  0  0  0  0  0  0  0  # atno 6908 bound_to 6896
  151.2695  133.4220  159.2654 H   0  0  0  0  0  0  0  0  0  0  0  0  # atno 6909 bound_to 6896
  144.7252  140.2707  143.6251 H   0  0  0  0  0  0  0  0  0  0  0  0  # atno 7974 bound_to 7965
  155.7783  140.0861  157.2072 H   0  0  0  0  0  0  0  0  0  0  0  0  # atno 8008 bound_to 7997
  154.3991  140.1512  156.3080 H   0  0  0  0  0  0  0  0  0  0  0  0  # atno 8009 bound_to 7997
  155.8679  140.3427  155.5803 H   0  0  0  0  0  0  0  0  0  0  0  0  # atno 8010 bound_to 7997
  139.4824  144.4896  151.8328 H   0  0  0  0  0  0  0  0  0  0  0  0  # atno 10167 bound_to 10162
  156.5217  130.8481  151.2684 H   0  0  0  0  0  0  0  0  0  0  0  0  # atno 10718 bound_to 10713
  153.6602  135.3347  155.3125 H   0  0  0  0  0  0  0  0  0  0  0  0  # atno 10763 bound_to 10752
  154.8516  135.4362  154.1812 H   0  0  0  0  0  0  0  0  0  0  0  0  # atno 10764 bound_to 10752
  153.2777  135.7006  153.7492 H   0  0  0  0  0  0  0  0  0  0  0  0  # atno 10765 bound_to 10752
  140.9947  134.0489  157.3612 H   0  0  0  0  0  0  0  0  0  0  0  0  # atno 11005 bound_to 11000
  145.8045  139.1978  143.2028 LP  0  0  0  0  0  0  0  0  0  0  0  0  # atno 17320 bound_to 7965
  146.0648  140.7932  142.9717 LP  0  0  0  0  0  0  0  0  0  0  0  0  # atno 17321 bound_to 7965
  140.4379  144.2027  150.5890 LP  0  0  0  0  0  0  0  0  0  0  0  0  # atno 17342 bound_to 10162
  140.4713  143.2412  151.9085 LP  0  0  0  0  0  0  0  0  0  0  0  0  # atno 17343 bound_to 10162
  157.7436  130.9915  150.2603 LP  0  0  0  0  0  0  0  0  0  0  0  0  # atno 17370 bound_to 10713
  156.3143  130.3776  149.7633 LP  0  0  0  0  0  0  0  0  0  0  0  0  # atno 17371 bound_to 10713
  139.9009  135.0164  156.7262 LP  0  0  0  0  0  0  0  0  0  0  0  0  # atno 17394 bound_to 11000
  140.6985  133.9327  155.8010 LP  0  0  0  0  0  0  0  0  0  0  0  0  # atno 17395 bound_to 11000

$$$$
