AV-unprocessed.smi:1460|AV-procd|sdf|5928|dock4
  -GOLD-   22720 6 13D 1   1.00000     0.00000
 Structure written by MMmdl.
 41 42  0  0  0  0  0  0  0  0  1 V2000
  154.7830  140.3518  161.0785 C   0  0  0  0  0  0  0  0  0  0  0  0
  153.9369  141.3824  160.3127 C   0  0  2  0  0  0  0  0  0  0  0  0
  153.3725  142.5003  161.2175 C   0  0  0  0  0  0  0  0  0  0  0  0
  152.4675  143.3959  160.5201 N   0  0  0  0  0  0  0  0  0  0  0  0
  152.6453  144.0140  159.3002 C   0  0  0  0  0  0  0  0  0  0  0  0
  151.5307  144.7648  159.0589 C   0  0  0  0  0  0  0  0  0  0  0  0
  150.7196  144.5442  160.2070 C   0  0  0  0  0  0  0  0  0  0  0  0
  151.2846  143.7273  161.0814 N   0  0  0  0  0  0  0  0  0  0  0  0
  152.8453  140.6915  159.6325 N   0  0  0  0  0  0  0  0  0  0  0  0
  152.9831  139.6618  158.7825 C   0  0  0  0  0  0  0  0  0  0  0  0
  154.0736  139.1773  158.4789 O   0  0  0  0  0  0  0  0  0  0  0  0
  151.6897  139.0957  158.1821 C   0  0  0  0  0  0  0  0  0  0  0  0
  151.9964  138.1468  157.0003 C   0  0  0  0  0  0  0  0  0  0  0  0
  150.6996  137.6779  156.3164 C   0  0  0  0  0  0  0  0  0  0  0  0
  149.9423  138.8613  155.8755 N   0  0  0  0  0  0  0  0  0  0  0  0
  149.8102  139.2998  154.5980 C   0  0  0  0  0  0  0  0  0  0  0  0
  150.0690  138.3915  153.6521 N   0  0  0  0  0  0  0  0  0  0  0  0
  149.4565  140.4391  154.2989 O   0  0  0  0  0  0  0  0  0  0  0  0
  149.4969  139.6642  157.0212 C   0  0  0  0  0  0  0  0  0  0  0  0
  150.7329  140.2297  157.7442 C   0  0  0  0  0  0  0  0  0  0  0  0
  155.6609  140.8121  161.5320 H   0  0  0  0  0  0  0  0  0  0  0  0
  155.1403  139.5658  160.4122 H   0  0  0  0  0  0  0  0  0  0  0  0
  154.2068  139.8780  161.8738 H   0  0  0  0  0  0  0  0  0  0  0  0
  154.5839  141.8365  159.5596 H   0  0  0  0  0  0  0  0  0  0  0  0
  152.8390  142.0719  162.0674 H   0  0  0  0  0  0  0  0  0  0  0  0
  154.1884  143.0950  161.6311 H   0  0  0  0  0  0  0  0  0  0  0  0
  153.5386  143.8673  158.7112 H   0  0  0  0  0  0  0  0  0  0  0  0
  151.3265  145.3795  158.1951 H   0  0  0  0  0  0  0  0  0  0  0  0
  149.7449  144.9519  160.4304 H   0  0  0  0  0  0  0  0  0  0  0  0
  151.9109  141.0231  159.8225 H   0  0  0  0  0  0  0  0  0  0  0  0
  151.1786  138.5125  158.9505 H   0  0  0  0  0  0  0  0  0  0  0  0
  152.6281  138.6474  156.2644 H   0  0  0  0  0  0  0  0  0  0  0  0
  152.5589  137.2813  157.3526 H   0  0  0  0  0  0  0  0  0  0  0  0
  150.9377  136.9803  155.5137 H   0  0  0  0  0  0  0  0  0  0  0  0
  150.0926  137.1079  157.0214 H   0  0  0  0  0  0  0  0  0  0  0  0
  149.9883  138.6422  152.6777 H   0  0  0  0  0  0  0  0  0  0  0  0
  150.3404  137.4564  153.9185 H   0  0  0  0  0  0  0  0  0  0  0  0
  148.8305  140.4779  156.7316 H   0  0  0  0  0  0  0  0  0  0  0  0
  148.9174  139.0371  157.7003 H   0  0  0  0  0  0  0  0  0  0  0  0
  150.4176  140.8092  158.6128 H   0  0  0  0  0  0  0  0  0  0  0  0
  151.2458  140.9261  157.0786 H   0  0  0  0  0  0  0  0  0  0  0  0
  1  2  1  0  0  0  0
  1 21  1  0  0  0  0
  1 22  1  0  0  0  0
  1 23  1  0  0  0  0
  2  3  1  0  0  0  0
  2  9  1  0  0  0  0
  2 24  1  0  0  0  0
  3  4  1  0  0  0  0
  3 25  1  0  0  0  0
  3 26  1  0  0  0  0
  4  8  1  0  0  0  0
  4  5  1  0  0  0  0
  5  6  2  0  0  0  0
  5 27  1  0  0  0  0
  6  7  1  0  0  0  0
  6 28  1  0  0  0  0
  7  8  2  0  0  0  0
  7 29  1  0  0  0  0
  9 10  1  0  0  0  0
  9 30  1  0  0  0  0
 10 11  2  0  0  0  0
 10 12  1  0  0  0  0
 12 20  1  0  0  0  0
 12 13  1  0  0  0  0
 12 31  1  0  0  0  0
 13 14  1  0  0  0  0
 13 32  1  0  0  0  0
 13 33  1  0  0  0  0
 14 15  1  0  0  0  0
 14 34  1  0  0  0  0
 14 35  1  0  0  0  0
 15 16  1  0  0  0  0
 15 19  1  0  0  0  0
 16 17  1  0  0  0  0
 16 18  2  0  0  0  0
 17 36  1  0  0  0  0
 17 37  1  0  0  0  0
 19 20  1  0  0  0  0
 19 38  1  0  0  0  0
 19 39  1  0  0  0  0
 20 40  1  0  0  0  0
 20 41  1  0  0  0  0
M  END
> <s_m_source_file>
AV-unprocessed.smi

> <i_m_source_file_index>
1460

> <i_lp_mmshare_version>
43012

> <i_f3d_flags>
0

> <s_epik_input>
bjFbY0hdW2NIXVtjSF1uMVtDSDJdW0NAQEhdKFtDSDNdKVtOSF1DKD1PKVtDSF0yW0NIMl1bQ0gyXU4oQyg9TylbTkgyXSlbQ0gyXVtDSDJdMg==

> <s_epik_cmdline>
J2VwaWtfcHl0aG9uJywgJy1waCcsICc3LjAnLCAnLXRuJywgJzgnLCAnLW1hJywgJzIwMCcsICctbWV0YWxfYmluZGluZycsICctaW1hZScsICc8aW5maWxlLm1hZT4nLCAnLW9tYWUnLCAnPG91dGZpbGUubWFlPic=

> <r_lp_tautomer_probability>
1

> <r_epik_Ionization_Penalty>
0.000387527

> <r_epik_Ionization_Penalty_Charging>
0

> <r_epik_Ionization_Penalty_Neutral>
0.000387527

> <r_epik_State_Penalty>
-0

> <r_epik_Charging_Adjusted_Penalty>
0

> <i_epik_Tot_Q>
0

> <i_epik_Tot_abs_Q>
0

> <r_epik_Metal_State_Penalty>
-0

> <b_epik_Metal_Only>
0

> <s_lp_Force_Field>
OPLS_2005

> <r_lp_Energy>
26.2675

> <b_lp_Chiralities_Consistent>
1

> <s_lp_Variant>
AV-unprocessed.smi:1460-1

> <Gold.Version>
5.8.1

> <Gold.Id.Protein>
6NUR|6NUR_protein|mol2

> <Gold.PLP.Fitness>
45.7345

> <Gold.PLP.PLP>
-40.3127

> <Gold.PLP.part.hbond>
-4.5056

> <Gold.PLP.part.metal>
0.0000

> <Gold.PLP.part.buried>
-6.0607

> <Gold.PLP.part.nonpolar>
-29.9189

> <Gold.PLP.part.repulsive>
1.4529

> <Gold.PLP.ligand.clash>
0.0000

> <Gold.PLP.ligand.torsion>
0.6407

> <Gold.PLP.Chemscore.Hbond>
2.2112

> <Gold.PLP.Chemscore.CHOScore>
0.0000

> <Gold.PLP.Chemscore.Metal>
0.0000

> <Gold.Chemscore.Hbonds>
donor molecule, donor type, donor heavy atom, donor atom, acceptor molecule, acceptor atom, score
      L1  H    17    36       P1  7957  0.88
      P1  H  7989  7998       L1    18  0.08
      P1  H  7997  8009       L1    11  1.00

> <Gold.PLP.Chemscore.Internal.Correction>
0.0696

> <Gold.Rescore>
     Score         DG    S(hbond)    S(metal)    S(lipo)     H(rot)  DE(clash)    DE(int)     intcor
     17.23     -18.67       2.21        0.00      89.38       1.82       0.05       1.39       ----

> <Gold.Chemscore.Fitness>
17.2322

> <Gold.Chemscore.DG>
-18.6690

> <Gold.Chemscore.ZeroCoef>
-5.4800

> <Gold.Chemscore.Hbond>
2.2132

> <Gold.Chemscore.Metal>
0.0000

> <Gold.Chemscore.Lipo>
89.3802

> <Gold.Chemscore.Internal_Hbond>
0.0000

> <Gold.Chemscore.DEClash>
0.0469

> <Gold.Chemscore.DEInternal>
1.3898

> <Gold.Chemscore.Rot>
1.8206

> <Gold.Chemscore.Internal.Correction>
   9.000000E+99

> <Gold.Chemscore.Hbonds>
donor molecule, donor type, donor heavy atom, donor atom, acceptor molecule, acceptor atom, score
      L1  H    17    36       P1  7957  0.33
      P1  H  7997  8009       L1    11  0.60

> <Gold.Chemscore.Hbond.Weighted>
-7.3922

> <Gold.Chemscore.Metal.Weighted>
-0.0000

> <Gold.Chemscore.Lipo.Weighted>
-10.4575

> <Gold.Chemscore.Internal_Hbond.Weighted>
0.0000

> <Gold.Chemscore.DEClash.Weighted>
0.0469

> <Gold.Chemscore.DEInternal.Weighted>
1.3898

> <Gold.Chemscore.Rot.Weighted>
4.6607

> <Gold.Chemscore.Internal.Correction.Weighted>
   9.000000E+99

> <Gold.Protein.RotatedTorsions>
[ 6907 6896 6895 6894 ] final   -5.91 input  -60.11 | X-H torsion
[ 7974 7965 7964 7962 ] final -179.60 input  175.53 | X-H torsion
[ 8008 7997 7996 7995 ] final  152.27 input   59.86 | X-H torsion
[ 10167 10162 10161 10158 ] final  106.70 input  -65.29 | X-H torsion
[ 10718 10713 10712 10709 ] final  -39.07 input   66.30 | X-H torsion
[ 10763 10752 10751 10750 ] final    2.85 input  -60.55 | X-H torsion
[ 11005 11000 10999 10996 ] final   29.17 input  -57.11 | X-H torsion

> <Gold.Protein.ActiveResidues>
 VAL166  LYS551  ARG553  GLY616  TRP617  ASP618  TYR619  PRO620  LYS621  CYS622 
 ASP623  PHE694  ASN695  SER759  ASP760  ASP761  ALA762  ILE779  LEU786  VAL792 
 PHE793  MET794  SER795  GLU796  ALA797  LYS798  CYS799  TRP800  GLU811  SER814 

> <Gold.Protein.RotatedAtoms>
  151.4739  135.1048  159.9758 H   0  0  0  0  0  0  0  0  0  0  0  0  # atno 6907 bound_to 6896
  152.4805  133.8240  159.7079 H   0  0  0  0  0  0  0  0  0  0  0  0  # atno 6908 bound_to 6896
  150.8874  133.7228  159.2941 H   0  0  0  0  0  0  0  0  0  0  0  0  # atno 6909 bound_to 6896
  144.7138  140.0693  143.6430 H   0  0  0  0  0  0  0  0  0  0  0  0  # atno 7974 bound_to 7965
  156.2636  140.2025  156.6307 H   0  0  0  0  0  0  0  0  0  0  0  0  # atno 8008 bound_to 7997
  154.6685  140.0553  157.0164 H   0  0  0  0  0  0  0  0  0  0  0  0  # atno 8009 bound_to 7997
  155.1172  140.3221  155.4509 H   0  0  0  0  0  0  0  0  0  0  0  0  # atno 8010 bound_to 7997
  139.6987  144.7097  151.1222 H   0  0  0  0  0  0  0  0  0  0  0  0  # atno 10167 bound_to 10162
  156.2966  130.4235  149.8185 H   0  0  0  0  0  0  0  0  0  0  0  0  # atno 10718 bound_to 10713
  153.2905  135.6948  153.7297 H   0  0  0  0  0  0  0  0  0  0  0  0  # atno 10763 bound_to 10752
  153.6250  135.3420  155.3024 H   0  0  0  0  0  0  0  0  0  0  0  0  # atno 10764 bound_to 10752
  154.8522  135.4395  154.1987 H   0  0  0  0  0  0  0  0  0  0  0  0  # atno 10765 bound_to 10752
  140.3078  134.2684  155.7740 H   0  0  0  0  0  0  0  0  0  0  0  0  # atno 11005 bound_to 11000
  145.9797  139.2932  143.1049 LP  0  0  0  0  0  0  0  0  0  0  0  0  # atno 17320 bound_to 7965
  145.9024  140.9234  143.0496 LP  0  0  0  0  0  0  0  0  0  0  0  0  # atno 17321 bound_to 7965
  140.7704  143.5454  150.9265 LP  0  0  0  0  0  0  0  0  0  0  0  0  # atno 17342 bound_to 10162
  139.9135  143.6692  152.3111 LP  0  0  0  0  0  0  0  0  0  0  0  0  # atno 17343 bound_to 10162
  156.5579  130.8370  151.3319 LP  0  0  0  0  0  0  0  0  0  0  0  0  # atno 17370 bound_to 10713
  157.7357  130.9766  150.2095 LP  0  0  0  0  0  0  0  0  0  0  0  0  # atno 17371 bound_to 10713
  141.2115  133.7688  156.9862 LP  0  0  0  0  0  0  0  0  0  0  0  0  # atno 17394 bound_to 11000
  140.1052  134.9511  157.1983 LP  0  0  0  0  0  0  0  0  0  0  0  0  # atno 17395 bound_to 11000

$$$$
