AV-unprocessed.smi:465|AV-procd|sdf|2639|dock8
  -GOLD-   2262023 43D 1   1.00000     0.00000
 Structure written by MMmdl.
 42 44  0  0  0  0  0  0  0  0  1 V2000
  145.8735  137.8362  151.8696 C   0  0  0  0  0  0  0  0  0  0  0  0
  146.6277  138.8185  152.7417 C   0  0  0  0  0  0  0  0  0  0  0  0
  146.6578  140.1883  152.4138 C   0  0  0  0  0  0  0  0  0  0  0  0
  147.3581  141.0950  153.2327 C   0  0  0  0  0  0  0  0  0  0  0  0
  148.0351  140.6524  154.3876 C   0  0  0  0  0  0  0  0  0  0  0  0
  148.6910  141.6082  155.1338 O   0  0  0  0  0  0  0  0  0  0  0  0
  149.2864  141.2096  156.3603 C   0  0  0  0  0  0  0  0  0  0  0  0
  150.5527  142.0439  156.5860 C   0  0  0  0  0  0  0  0  0  0  0  0
  151.5407  141.3129  157.3643 N   0  0  0  0  0  0  0  0  0  0  0  0
  152.1215  140.1172  157.0873 C   0  0  0  0  0  0  0  0  0  0  0  0
  151.8126  139.3313  155.8459 C   0  0  0  0  0  0  0  0  0  0  0  0
  152.9848  138.4567  155.3727 C   0  0  0  0  0  0  0  0  0  0  0  0
  153.8885  139.2044  154.5868 O   0  0  0  0  0  0  0  0  0  0  0  0
  152.9985  139.6773  157.9911 N   0  0  0  0  0  0  0  0  0  0  0  0
  152.9818  140.6763  158.9446 C   0  0  0  0  0  0  0  0  0  0  0  0
  153.6954  140.7994  160.1585 C   0  0  0  0  0  0  0  0  0  0  0  0
  153.5082  141.9265  160.9851 C   0  0  0  0  0  0  0  0  0  0  0  0
  152.6070  142.9443  160.6110 C   0  0  0  0  0  0  0  0  0  0  0  0
  151.8867  142.8415  159.4054 C   0  0  0  0  0  0  0  0  0  0  0  0
  152.0780  141.7147  158.5832 C   0  0  0  0  0  0  0  0  0  0  0  0
  148.0021  139.2722  154.7105 C   0  0  0  0  0  0  0  0  0  0  0  0
  147.3018  138.3646  153.8921 C   0  0  0  0  0  0  0  0  0  0  0  0
  145.6022  138.2828  150.9126 H   0  0  0  0  0  0  0  0  0  0  0  0
  144.9593  137.5155  152.3692 H   0  0  0  0  0  0  0  0  0  0  0  0
  146.4842  136.9550  151.6713 H   0  0  0  0  0  0  0  0  0  0  0  0
  146.1438  140.5498  151.5353 H   0  0  0  0  0  0  0  0  0  0  0  0
  147.3741  142.1432  152.9724 H   0  0  0  0  0  0  0  0  0  0  0  0
  148.5914  141.3694  157.1864 H   0  0  0  0  0  0  0  0  0  0  0  0
  149.5401  140.1488  156.3282 H   0  0  0  0  0  0  0  0  0  0  0  0
  150.9876  142.3513  155.6358 H   0  0  0  0  0  0  0  0  0  0  0  0
  150.3040  142.9633  157.1168 H   0  0  0  0  0  0  0  0  0  0  0  0
  150.9640  138.6845  156.0716 H   0  0  0  0  0  0  0  0  0  0  0  0
  151.4710  139.9873  155.0455 H   0  0  0  0  0  0  0  0  0  0  0  0
  153.5078  138.0089  156.2185 H   0  0  0  0  0  0  0  0  0  0  0  0
  152.6085  137.6384  154.7583 H   0  0  0  0  0  0  0  0  0  0  0  0
  153.9575  138.7971  153.7368 H   0  0  0  0  0  0  0  0  0  0  0  0
  154.3868  140.0244  160.4547 H   0  0  0  0  0  0  0  0  0  0  0  0
  154.0583  142.0104  161.9109 H   0  0  0  0  0  0  0  0  0  0  0  0
  152.4690  143.8040  161.2505 H   0  0  0  0  0  0  0  0  0  0  0  0
  151.1948  143.6188  159.1168 H   0  0  0  0  0  0  0  0  0  0  0  0
  148.5056  138.8832  155.5823 H   0  0  0  0  0  0  0  0  0  0  0  0
  147.2829  137.3162  154.1516 H   0  0  0  0  0  0  0  0  0  0  0  0
  1  2  1  0  0  0  0
  1 23  1  0  0  0  0
  1 24  1  0  0  0  0
  1 25  1  0  0  0  0
  2 22  1  0  0  0  0
  2  3  2  0  0  0  0
  3  4  1  0  0  0  0
  3 26  1  0  0  0  0
  4  5  2  0  0  0  0
  4 27  1  0  0  0  0
  5  6  1  0  0  0  0
  5 21  1  0  0  0  0
  6  7  1  0  0  0  0
  7  8  1  0  0  0  0
  7 28  1  0  0  0  0
  7 29  1  0  0  0  0
  8  9  1  0  0  0  0
  8 30  1  0  0  0  0
  8 31  1  0  0  0  0
  9 20  1  0  0  0  0
  9 10  1  0  0  0  0
 10 11  1  0  0  0  0
 10 14  2  0  0  0  0
 11 12  1  0  0  0  0
 11 32  1  0  0  0  0
 11 33  1  0  0  0  0
 12 13  1  0  0  0  0
 12 34  1  0  0  0  0
 12 35  1  0  0  0  0
 13 36  1  0  0  0  0
 14 15  1  0  0  0  0
 15 20  2  0  0  0  0
 15 16  1  0  0  0  0
 16 17  2  0  0  0  0
 16 37  1  0  0  0  0
 17 18  1  0  0  0  0
 17 38  1  0  0  0  0
 18 19  2  0  0  0  0
 18 39  1  0  0  0  0
 19 20  1  0  0  0  0
 19 40  1  0  0  0  0
 21 22  2  0  0  0  0
 21 41  1  0  0  0  0
 22 42  1  0  0  0  0
M  END
> <s_m_source_file>
AV-unprocessed.smi

> <i_m_source_file_index>
465

> <i_lp_mmshare_version>
43012

> <i_f3d_flags>
0

> <s_epik_input>
W0NIM11jMVtjSF1bY0hdYyhbY0hdW2NIXTEpT1tDSDJdW0NIMl1uKGMobjIpW0NIMl1bQ0gyXVtPSF0pYyhjMjMpW2NIXVtjSF1bY0hdW2NIXTM=

> <s_epik_cmdline>
J2VwaWtfcHl0aG9uJywgJy1waCcsICc3LjAnLCAnLXRuJywgJzgnLCAnLW1hJywgJzIwMCcsICctbWV0YWxfYmluZGluZycsICctaW1hZScsICc8aW5maWxlLm1hZT4nLCAnLW9tYWUnLCAnPG91dGZpbGUubWFlPic=

> <r_lp_tautomer_probability>
1

> <r_epik_Ionization_Penalty>
0.207749

> <r_epik_Ionization_Penalty_Charging>
0

> <r_epik_Ionization_Penalty_Neutral>
0.207749

> <r_epik_State_Penalty>
0.197758

> <r_epik_Charging_Adjusted_Penalty>
0.197758

> <i_epik_Tot_Q>
0

> <i_epik_Tot_abs_Q>
0

> <r_epik_Metal_State_Penalty>
0.000234715

> <b_epik_Metal_Only>
0

> <s_lp_Force_Field>
OPLS_2005

> <r_lp_Energy>
16.7212

> <b_lp_Chiralities_Consistent>
1

> <s_lp_Variant>
AV-unprocessed.smi:465-1

> <Gold.Version>
5.8.1

> <Gold.Id.Protein>
6NUR|6NUR_protein|mol2

> <Gold.PLP.Fitness>
47.2156

> <Gold.PLP.PLP>
-43.3482

> <Gold.PLP.part.hbond>
-1.9487

> <Gold.PLP.part.metal>
0.0000

> <Gold.PLP.part.buried>
0.8731

> <Gold.PLP.part.nonpolar>
-42.0857

> <Gold.PLP.part.repulsive>
0.1334

> <Gold.PLP.ligand.clash>
0.0000

> <Gold.PLP.ligand.torsion>
0.9305

> <Gold.PLP.Chemscore.Hbond>
1.8960

> <Gold.PLP.Chemscore.CHOScore>
0.0000

> <Gold.PLP.Chemscore.Metal>
0.0000

> <Gold.Chemscore.Hbonds>
donor molecule, donor type, donor heavy atom, donor atom, acceptor molecule, acceptor atom, score
      P1  H  7997  8009       L1    14  0.96
      P1  H  7997  8010       L1    13  0.91

> <Gold.PLP.Chemscore.Internal.Correction>
0.0404

> <Gold.Rescore>
     Score         DG    S(hbond)    S(metal)    S(lipo)     H(rot)  DE(clash)    DE(int)     intcor
     17.07     -18.80       0.95        0.00     136.73       2.28       0.81       0.92       ----

> <Gold.Chemscore.Fitness>
17.0667

> <Gold.Chemscore.DG>
-18.7952

> <Gold.Chemscore.ZeroCoef>
-5.4800

> <Gold.Chemscore.Hbond>
0.9461

> <Gold.Chemscore.Metal>
0.0000

> <Gold.Chemscore.Lipo>
136.7285

> <Gold.Chemscore.Internal_Hbond>
0.0000

> <Gold.Chemscore.DEClash>
0.8057

> <Gold.Chemscore.DEInternal>
0.9228

> <Gold.Chemscore.Rot>
2.2821

> <Gold.Chemscore.Internal.Correction>
   9.000000E+99

> <Gold.Chemscore.Hbonds>
donor molecule, donor type, donor heavy atom, donor atom, acceptor molecule, acceptor atom, score
      P1  H  7997  8009       L1    14  0.10
      P1  H  7997  8010       L1    13  0.80

> <Gold.Chemscore.Hbond.Weighted>
-3.1601

> <Gold.Chemscore.Metal.Weighted>
-0.0000

> <Gold.Chemscore.Lipo.Weighted>
-15.9972

> <Gold.Chemscore.Internal_Hbond.Weighted>
0.0000

> <Gold.Chemscore.DEClash.Weighted>
0.8057

> <Gold.Chemscore.DEInternal.Weighted>
0.9228

> <Gold.Chemscore.Rot.Weighted>
5.8421

> <Gold.Chemscore.Internal.Correction.Weighted>
   9.000000E+99

> <Gold.Protein.RotatedTorsions>
[ 6907 6896 6895 6894 ] final  -87.00 input  -60.11 | X-H torsion
[ 7974 7965 7964 7962 ] final   64.15 input  175.53 | X-H torsion
[ 8008 7997 7996 7995 ] final  141.72 input   59.86 | X-H torsion
[ 10167 10162 10161 10158 ] final   51.88 input  -65.29 | X-H torsion
[ 10718 10713 10712 10709 ] final   -8.36 input   66.30 | X-H torsion
[ 10763 10752 10751 10750 ] final  122.90 input  -60.55 | X-H torsion
[ 11005 11000 10999 10996 ] final   58.57 input  -57.11 | X-H torsion

> <Gold.Protein.ActiveResidues>
 VAL166  LYS551  ARG553  GLY616  TRP617  ASP618  TYR619  PRO620  LYS621  CYS622 
 ASP623  PHE694  ASN695  SER759  ASP760  ASP761  ALA762  ILE779  LEU786  VAL792 
 PHE793  MET794  SER795  GLU796  ALA797  LYS798  CYS799  TRP800  GLU811  SER814 

> <Gold.Protein.RotatedAtoms>
  150.6866  134.2964  159.4687 H   0  0  0  0  0  0  0  0  0  0  0  0  # atno 6907 bound_to 6896
  152.0864  134.9434  160.0582 H   0  0  0  0  0  0  0  0  0  0  0  0  # atno 6908 bound_to 6896
  152.0766  133.4098  159.4520 H   0  0  0  0  0  0  0  0  0  0  0  0  # atno 6909 bound_to 6896
  145.8535  139.3269  143.0861 H   0  0  0  0  0  0  0  0  0  0  0  0  # atno 7974 bound_to 7965
  156.2961  140.2308  156.4611 H   0  0  0  0  0  0  0  0  0  0  0  0  # atno 8008 bound_to 7997
  154.8018  140.0448  157.1299 H   0  0  0  0  0  0  0  0  0  0  0  0  # atno 8009 bound_to 7997
  154.9525  140.3044  155.5072 H   0  0  0  0  0  0  0  0  0  0  0  0  # atno 8010 bound_to 7997
  140.2573  144.3413  150.6329 H   0  0  0  0  0  0  0  0  0  0  0  0  # atno 10167 bound_to 10162
  156.7037  130.5101  149.5910 H   0  0  0  0  0  0  0  0  0  0  0  0  # atno 10718 bound_to 10713
  153.6370  135.3386  155.3060 H   0  0  0  0  0  0  0  0  0  0  0  0  # atno 10763 bound_to 10752
  154.8568  135.4309  154.2044 H   0  0  0  0  0  0  0  0  0  0  0  0  # atno 10764 bound_to 10752
  153.2954  135.7020  153.7327 H   0  0  0  0  0  0  0  0  0  0  0  0  # atno 10765 bound_to 10752
  140.0368  134.5932  155.9434 H   0  0  0  0  0  0  0  0  0  0  0  0  # atno 11005 bound_to 11000
  145.9330  140.9035  143.0346 LP  0  0  0  0  0  0  0  0  0  0  0  0  # atno 17320 bound_to 7965
  144.6728  140.1444  143.7434 LP  0  0  0  0  0  0  0  0  0  0  0  0  # atno 17321 bound_to 7965
  140.5994  143.2167  151.7102 LP  0  0  0  0  0  0  0  0  0  0  0  0  # atno 17342 bound_to 10162
  139.5028  144.3817  152.0370 LP  0  0  0  0  0  0  0  0  0  0  0  0  # atno 17343 bound_to 10162
  156.1710  130.6437  151.0837 LP  0  0  0  0  0  0  0  0  0  0  0  0  # atno 17370 bound_to 10713
  157.6963  131.0793  150.6959 LP  0  0  0  0  0  0  0  0  0  0  0  0  # atno 17371 bound_to 10713
  141.1861  133.6556  156.5227 LP  0  0  0  0  0  0  0  0  0  0  0  0  # atno 17394 bound_to 11000
  140.4135  134.7251  157.4849 LP  0  0  0  0  0  0  0  0  0  0  0  0  # atno 17395 bound_to 11000

$$$$
