AV-unprocessed.smi:793|AV-procd|sdf|3753|dock2
  -GOLD-   22720 1183D 1   1.00000     0.00000
 Structure written by MMmdl.
 39 40  0  0  0  0  0  0  0  0  1 V2000
  151.1025  138.4122  158.7870 C   0  0  0  0  0  0  0  0  0  0  0  0
  151.8223  139.7510  158.5820 C   0  0  0  0  0  0  0  0  0  0  0  0
  150.9427  140.7975  157.8725 C   0  0  1  0  0  0  0  0  0  0  0  0
  151.6381  142.0431  157.9007 O   0  0  0  0  0  0  0  0  0  0  0  0
  151.9026  142.5920  159.1903 C   0  0  0  0  0  0  0  0  0  0  0  0
  150.7852  143.5635  159.5871 C   0  0  0  0  0  0  0  0  0  0  0  0
  151.1193  144.8915  158.8941 C   0  0  0  0  0  0  0  0  0  0  0  0
  152.5920  144.8020  158.4683 C   0  0  0  0  0  0  0  0  0  0  0  0
  153.1264  143.4993  159.0693 C   0  0  0  0  0  0  0  0  0  0  0  0
  150.6402  140.3878  156.4212 C   0  0  0  0  0  0  0  0  0  0  0  0
  151.5711  140.2257  155.6327 O   0  0  0  0  0  0  0  0  0  0  0  0
  149.3340  140.2446  156.1229 N   0  0  0  0  0  0  0  0  0  0  0  0
  148.7256  139.9087  154.9024 C   0  0  0  0  0  0  0  0  0  0  0  0
  148.9091  138.7540  154.2118 C   0  0  0  0  0  0  0  0  0  0  0  0
  148.2854  138.4679  153.0055 N   0  0  0  0  0  0  0  0  0  0  0  0
  147.4221  139.4033  152.4584 C   0  0  0  0  0  0  0  0  0  0  0  0
  147.1552  140.5894  153.0392 C   0  0  0  0  0  0  0  0  0  0  0  0
  147.8053  140.9286  154.3251 C   0  0  0  0  0  0  0  0  0  0  0  0
  147.5876  142.0054  154.8804 O   0  0  0  0  0  0  0  0  0  0  0  0
  151.7566  137.6920  159.2788 H   0  0  0  0  0  0  0  0  0  0  0  0
  150.7909  137.9826  157.8346 H   0  0  0  0  0  0  0  0  0  0  0  0
  150.2139  138.5319  159.4075 H   0  0  0  0  0  0  0  0  0  0  0  0
  152.1518  140.1328  159.5494 H   0  0  0  0  0  0  0  0  0  0  0  0
  152.7267  139.5733  157.9980 H   0  0  0  0  0  0  0  0  0  0  0  0
  150.0072  140.8918  158.4278 H   0  0  0  0  0  0  0  0  0  0  0  0
  152.0657  141.8175  159.9419 H   0  0  0  0  0  0  0  0  0  0  0  0
  149.7896  143.2008  159.3320 H   0  0  0  0  0  0  0  0  0  0  0  0
  150.8072  143.7098  160.6678 H   0  0  0  0  0  0  0  0  0  0  0  0
  150.4859  145.0373  158.0183 H   0  0  0  0  0  0  0  0  0  0  0  0
  150.9462  145.7336  159.5651 H   0  0  0  0  0  0  0  0  0  0  0  0
  152.6533  144.7550  157.3803 H   0  0  0  0  0  0  0  0  0  0  0  0
  153.1711  145.6674  158.7909 H   0  0  0  0  0  0  0  0  0  0  0  0
  153.5296  143.6978  160.0632 H   0  0  0  0  0  0  0  0  0  0  0  0
  153.9246  143.0557  158.4732 H   0  0  0  0  0  0  0  0  0  0  0  0
  148.6867  140.3934  156.8838 H   0  0  0  0  0  0  0  0  0  0  0  0
  149.5571  137.9540  154.5306 H   0  0  0  0  0  0  0  0  0  0  0  0
  146.9782  139.1005  151.5213 H   0  0  0  0  0  0  0  0  0  0  0  0
  146.4771  141.2989  152.5882 H   0  0  0  0  0  0  0  0  0  0  0  0
  148.4587  137.5909  152.5347 H   0  0  0  0  0  0  0  0  0  0  0  0
  1  2  1  0  0  0  0
  1 20  1  0  0  0  0
  1 21  1  0  0  0  0
  1 22  1  0  0  0  0
  2  3  1  0  0  0  0
  2 23  1  0  0  0  0
  2 24  1  0  0  0  0
  3  4  1  0  0  0  0
  3 10  1  0  0  0  0
  3 25  1  0  0  0  0
  4  5  1  0  0  0  0
  5  9  1  0  0  0  0
  5  6  1  0  0  0  0
  5 26  1  0  0  0  0
  6  7  1  0  0  0  0
  6 27  1  0  0  0  0
  6 28  1  0  0  0  0
  7  8  1  0  0  0  0
  7 29  1  0  0  0  0
  7 30  1  0  0  0  0
  8  9  1  0  0  0  0
  8 31  1  0  0  0  0
  8 32  1  0  0  0  0
  9 33  1  0  0  0  0
  9 34  1  0  0  0  0
 10 11  2  0  0  0  0
 10 12  1  0  0  0  0
 12 35  1  0  0  0  0
 12 13  1  0  0  0  0
 13 18  1  0  0  0  0
 13 14  2  0  0  0  0
 14 36  1  0  0  0  0
 14 15  1  0  0  0  0
 15 39  1  0  0  0  0
 15 16  1  0  0  0  0
 16 37  1  0  0  0  0
 16 17  2  0  0  0  0
 17 18  1  0  0  0  0
 17 38  1  0  0  0  0
 18 19  2  0  0  0  0
M  END
> <s_m_source_file>
AV-unprocessed.smi

> <i_m_source_file_index>
793

> <i_lp_mmshare_version>
43012

> <i_f3d_flags>
0

> <s_epik_input>
W0NIMl0xW0NIMl1bQ0gyXVtDSDJdW0NIXTFPW0NAQEhdKFtDSDJdW0NIM10pQyg9TylbTkhdYzJbY0hdbltjSF1bY0hdYzJbT0hd

> <s_epik_cmdline>
J2VwaWtfcHl0aG9uJywgJy1waCcsICc3LjAnLCAnLXRuJywgJzgnLCAnLW1hJywgJzIwMCcsICctbWV0YWxfYmluZGluZycsICctaW1hZScsICc8aW5maWxlLm1hZT4nLCAnLW9tYWUnLCAnPG91dGZpbGUubWFlPic=

> <r_lp_tautomer_probability>
1

> <r_epik_Ionization_Penalty>
0.000234492

> <r_epik_Ionization_Penalty_Charging>
0.000234447

> <r_epik_Ionization_Penalty_Neutral>
4.48517e-08

> <r_epik_State_Penalty>
-0

> <r_epik_Charging_Adjusted_Penalty>
0.000234447

> <i_epik_Tot_Q>
0

> <i_epik_Tot_abs_Q>
0

> <r_epik_Metal_State_Penalty>
0.110344

> <b_epik_Metal_Only>
0

> <s_lp_Force_Field>
OPLS_2005

> <r_lp_Energy>
26.0672

> <b_lp_Chiralities_Consistent>
1

> <s_lp_Variant>
AV-unprocessed.smi:793-2

> <Gold.Version>
5.8.1

> <Gold.Id.Protein>
6NUR|6NUR_protein|mol2

> <Gold.PLP.Fitness>
40.2086

> <Gold.PLP.PLP>
-36.5429

> <Gold.PLP.part.hbond>
-3.0000

> <Gold.PLP.part.metal>
0.0000

> <Gold.PLP.part.buried>
-1.5614

> <Gold.PLP.part.nonpolar>
-31.6509

> <Gold.PLP.part.repulsive>
0.6128

> <Gold.PLP.ligand.clash>
0.0000

> <Gold.PLP.ligand.torsion>
0.9724

> <Gold.PLP.Chemscore.Hbond>
1.8320

> <Gold.PLP.Chemscore.CHOScore>
0.0000

> <Gold.PLP.Chemscore.Metal>
0.0000

> <Gold.Chemscore.Hbonds>
donor molecule, donor type, donor heavy atom, donor atom, acceptor molecule, acceptor atom, score
      L1  H    15    39       P1  7948  1.00
      P1  H  7989  7998       L1    11  0.47

> <Gold.PLP.Chemscore.Internal.Correction>
0.1146

> <Gold.Rescore>
     Score         DG    S(hbond)    S(metal)    S(lipo)     H(rot)  DE(clash)    DE(int)     intcor
     17.97     -19.01       1.84        0.00      98.38       1.61       0.06       0.98       ----

> <Gold.Chemscore.Fitness>
17.9707

> <Gold.Chemscore.DG>
-19.0088

> <Gold.Chemscore.ZeroCoef>
-5.4800

> <Gold.Chemscore.Hbond>
1.8353

> <Gold.Chemscore.Metal>
0.0000

> <Gold.Chemscore.Lipo>
98.3802

> <Gold.Chemscore.Internal_Hbond>
0.0000

> <Gold.Chemscore.DEClash>
0.0600

> <Gold.Chemscore.DEInternal>
0.9781

> <Gold.Chemscore.Rot>
1.6061

> <Gold.Chemscore.Internal.Correction>
   9.000000E+99

> <Gold.Chemscore.Hbonds>
donor molecule, donor type, donor heavy atom, donor atom, acceptor molecule, acceptor atom, score
      L1  H    15    39       P1  7948  0.97
      P1  H  7989  7998       L1    11  0.46

> <Gold.Chemscore.Hbond.Weighted>
-6.1299

> <Gold.Chemscore.Metal.Weighted>
-0.0000

> <Gold.Chemscore.Lipo.Weighted>
-11.5105

> <Gold.Chemscore.Internal_Hbond.Weighted>
0.0000

> <Gold.Chemscore.DEClash.Weighted>
0.0600

> <Gold.Chemscore.DEInternal.Weighted>
0.9781

> <Gold.Chemscore.Rot.Weighted>
4.1116

> <Gold.Chemscore.Internal.Correction.Weighted>
   9.000000E+99

> <Gold.Protein.RotatedTorsions>
[ 6907 6896 6895 6894 ] final   -4.16 input  -60.11 | X-H torsion
[ 7974 7965 7964 7962 ] final -155.13 input  175.53 | X-H torsion
[ 8008 7997 7996 7995 ] final   30.39 input   59.86 | X-H torsion
[ 10167 10162 10161 10158 ] final  114.11 input  -65.29 | X-H torsion
[ 10718 10713 10712 10709 ] final  -95.21 input   66.30 | X-H torsion
[ 10763 10752 10751 10750 ] final  106.32 input  -60.55 | X-H torsion
[ 11005 11000 10999 10996 ] final -159.29 input  -57.11 | X-H torsion

> <Gold.Protein.ActiveResidues>
 VAL166  LYS551  ARG553  GLY616  TRP617  ASP618  TYR619  PRO620  LYS621  CYS622 
 ASP623  PHE694  ASN695  SER759  ASP760  ASP761  ALA762  ILE779  LEU786  VAL792 
 PHE793  MET794  SER795  GLU796  ALA797  LYS798  CYS799  TRP800  GLU811  SER814 

> <Gold.Protein.RotatedAtoms>
  151.5022  135.1062  159.9831 H   0  0  0  0  0  0  0  0  0  0  0  0  # atno 6907 bound_to 6896
  152.4697  133.7997  159.6957 H   0  0  0  0  0  0  0  0  0  0  0  0  # atno 6908 bound_to 6896
  150.8699  133.7457  159.2990 H   0  0  0  0  0  0  0  0  0  0  0  0  # atno 6909 bound_to 6896
  144.7655  140.4292  143.5945 H   0  0  0  0  0  0  0  0  0  0  0  0  # atno 7974 bound_to 7965
  155.0896  140.3218  155.4577 H   0  0  0  0  0  0  0  0  0  0  0  0  # atno 8008 bound_to 7997
  156.2746  140.2080  156.5970 H   0  0  0  0  0  0  0  0  0  0  0  0  # atno 8009 bound_to 7997
  154.6914  140.0516  157.0354 H   0  0  0  0  0  0  0  0  0  0  0  0  # atno 8010 bound_to 7997
  139.6412  144.7124  151.2232 H   0  0  0  0  0  0  0  0  0  0  0  0  # atno 10167 bound_to 10162
  156.0039  130.5100  150.6043 H   0  0  0  0  0  0  0  0  0  0  0  0  # atno 10718 bound_to 10713
  153.3914  135.3881  155.1925 H   0  0  0  0  0  0  0  0  0  0  0  0  # atno 10763 bound_to 10752
  154.8719  135.3749  154.4733 H   0  0  0  0  0  0  0  0  0  0  0  0  # atno 10764 bound_to 10752
  153.5220  135.7086  153.5788 H   0  0  0  0  0  0  0  0  0  0  0  0  # atno 10765 bound_to 10752
  140.6442  134.4519  157.5234 H   0  0  0  0  0  0  0  0  0  0  0  0  # atno 11005 bound_to 11000
  145.6483  139.1561  143.2876 LP  0  0  0  0  0  0  0  0  0  0  0  0  # atno 17320 bound_to 7965
  146.1758  140.6574  142.9212 LP  0  0  0  0  0  0  0  0  0  0  0  0  # atno 17321 bound_to 7965
  140.7492  143.6308  150.8425 LP  0  0  0  0  0  0  0  0  0  0  0  0  # atno 17342 bound_to 10162
  139.9945  143.5810  152.2898 LP  0  0  0  0  0  0  0  0  0  0  0  0  # atno 17343 bound_to 10162
  157.3886  131.0792  151.1413 LP  0  0  0  0  0  0  0  0  0  0  0  0  # atno 17370 bound_to 10713
  157.2112  130.6439  149.5775 LP  0  0  0  0  0  0  0  0  0  0  0  0  # atno 17371 bound_to 10713
  139.9069  134.8429  156.1673 LP  0  0  0  0  0  0  0  0  0  0  0  0  # atno 17394 bound_to 11000
  141.0584  133.6853  156.1905 LP  0  0  0  0  0  0  0  0  0  0  0  0  # atno 17395 bound_to 11000

$$$$
