AV-unprocessed.smi:740|AV-procd|sdf|3553|dock9
  -GOLD-   22720 0553D 1   1.00000     0.00000
 Structure written by MMmdl.
 45 47  0  0  0  0  0  0  0  0  2 V2000
  145.5463  132.1633  149.8403 C   0  0  0  0  0  0  0  0  0  0  0  0
  145.6706  133.2685  150.8752 C   0  0  0  0  0  0  0  0  0  0  0  0
  145.2598  134.5732  150.5209 C   0  0  0  0  0  0  0  0  0  0  0  0
  145.3850  135.5626  151.4888 C   0  0  0  0  0  0  0  0  0  0  0  0
  145.0696  136.9224  151.4512 N   0  3  0  0  0  0  0  0  0  0  0  0
  145.3677  137.4911  152.6518 C   0  0  0  0  0  0  0  0  0  0  0  0
  145.8722  136.5154  153.4547 N   0  0  0  0  0  0  0  0  0  0  0  0
  146.3454  136.6012  154.8436 C   0  0  0  0  0  0  0  0  0  0  0  0
  147.4496  137.6598  155.0312 C   0  0  1  0  0  0  0  0  0  0  0  0
  147.7726  137.7458  156.4056 O   0  0  0  0  0  0  0  0  0  0  0  0
  148.7247  137.2951  154.2439 C   0  0  0  0  0  0  0  0  0  0  0  0
  149.8513  138.1722  154.5827 N   0  0  0  0  0  0  0  0  0  0  0  0
  151.0953  137.7368  154.8243 C   0  0  0  0  0  0  0  0  0  0  0  0
  151.4739  136.5658  154.8023 O   0  0  0  0  0  0  0  0  0  0  0  0
  152.0305  138.8978  155.1316 C   0  0  0  0  0  0  0  0  0  0  0  0
  151.1141  140.1264  155.0265 C   0  0  2  0  0  0  0  0  0  0  0  0
  151.0444  140.9593  156.3170 C   0  0  0  0  0  0  0  0  0  0  0  0
  149.7629  139.5065  154.6754 C   0  0  0  0  0  0  0  0  0  0  0  0
  148.7462  140.1798  154.5047 O   0  0  0  0  0  0  0  0  0  0  0  0
  145.9001  135.2933  152.7719 C   0  0  0  0  0  0  0  0  0  0  0  0
  146.3082  134.0123  153.1373 C   0  0  0  0  0  0  0  0  0  0  0  0
  146.1859  132.9913  152.1679 C   0  0  0  0  0  0  0  0  0  0  0  0
  146.6171  131.5831  152.5413 C   0  0  0  0  0  0  0  0  0  0  0  0
  145.1647  132.5450  148.8930 H   0  0  0  0  0  0  0  0  0  0  0  0
  144.8619  131.3893  150.1880 H   0  0  0  0  0  0  0  0  0  0  0  0
  146.5176  131.7071  149.6475 H   0  0  0  0  0  0  0  0  0  0  0  0
  144.8631  134.7912  149.5401 H   0  0  0  0  0  0  0  0  0  0  0  0
  145.2278  138.5286  152.9199 H   0  0  0  0  0  0  0  0  0  0  0  0
  145.5000  136.7819  155.5077 H   0  0  0  0  0  0  0  0  0  0  0  0
  146.7320  135.6154  155.1051 H   0  0  0  0  0  0  0  0  0  0  0  0
  147.0659  138.6265  154.7021 H   0  0  0  0  0  0  0  0  0  0  0  0
  147.0701  138.1925  156.8526 H   0  0  0  0  0  0  0  0  0  0  0  0
  148.9797  136.2436  154.3892 H   0  0  0  0  0  0  0  0  0  0  0  0
  148.5316  137.3939  153.1741 H   0  0  0  0  0  0  0  0  0  0  0  0
  152.4605  138.7799  156.1271 H   0  0  0  0  0  0  0  0  0  0  0  0
  152.8426  138.9352  154.4048 H   0  0  0  0  0  0  0  0  0  0  0  0
  151.4322  140.7588  154.1966 H   0  0  0  0  0  0  0  0  0  0  0  0
  150.3858  141.8203  156.1967 H   0  0  0  0  0  0  0  0  0  0  0  0
  152.0305  141.3368  156.5883 H   0  0  0  0  0  0  0  0  0  0  0  0
  150.6730  140.3694  157.1559 H   0  0  0  0  0  0  0  0  0  0  0  0
  146.6973  133.7980  154.1213 H   0  0  0  0  0  0  0  0  0  0  0  0
  146.9576  131.5310  153.5759 H   0  0  0  0  0  0  0  0  0  0  0  0
  147.4370  131.2521  151.9037 H   0  0  0  0  0  0  0  0  0  0  0  0
  145.7871  130.8853  152.4298 H   0  0  0  0  0  0  0  0  0  0  0  0
  144.6778  137.4273  150.6663 H   0  0  0  0  0  0  0  0  0  0  0  0
  1  2  1  0  0  0  0
  1 24  1  0  0  0  0
  1 25  1  0  0  0  0
  1 26  1  0  0  0  0
  2 22  1  0  0  0  0
  2  3  2  0  0  0  0
  3  4  1  0  0  0  0
  3 27  1  0  0  0  0
  4 20  2  0  0  0  0
  4  5  1  0  0  0  0
  5  6  2  0  0  0  0
  5 45  1  0  0  0  0
  6  7  1  0  0  0  0
  6 28  1  0  0  0  0
  7  8  1  0  0  0  0
  7 20  1  0  0  0  0
  8  9  1  0  0  0  0
  8 29  1  0  0  0  0
  8 30  1  0  0  0  0
  9 10  1  0  0  0  0
  9 11  1  0  0  0  0
  9 31  1  0  0  0  0
 10 32  1  0  0  0  0
 11 12  1  0  0  0  0
 11 33  1  0  0  0  0
 11 34  1  0  0  0  0
 12 18  1  0  0  0  0
 12 13  1  0  0  0  0
 13 14  2  0  0  0  0
 13 15  1  0  0  0  0
 15 16  1  0  0  0  0
 15 35  1  0  0  0  0
 15 36  1  0  0  0  0
 16 17  1  0  0  0  0
 16 18  1  0  0  0  0
 16 37  1  0  0  0  0
 17 38  1  0  0  0  0
 17 39  1  0  0  0  0
 17 40  1  0  0  0  0
 18 19  2  0  0  0  0
 20 21  1  0  0  0  0
 21 22  2  0  0  0  0
 21 41  1  0  0  0  0
 22 23  1  0  0  0  0
 23 42  1  0  0  0  0
 23 43  1  0  0  0  0
 23 44  1  0  0  0  0
M  CHG  1   5   1
M  END
> <s_m_source_file>
AV-unprocessed.smi

> <i_m_source_file_index>
740

> <i_lp_mmshare_version>
43012

> <i_f3d_flags>
0

> <s_epik_input>
W0NIM11jKFtjSF0xKWMoW0NIM10pW2NIXWMoYzEyKW4oW2NIXW4yKVtDSDJdW0NASF0oW09IXSlbQ0gyXU4zQyg9TylbQ0gyXVtDQEBIXShbQ0gzXSlDMz1P

> <s_epik_cmdline>
J2VwaWtfcHl0aG9uJywgJy1waCcsICc3LjAnLCAnLXRuJywgJzgnLCAnLW1hJywgJzIwMCcsICctbWV0YWxfYmluZGluZycsICctaW1hZScsICc8aW5maWxlLm1hZT4nLCAnLW9tYWUnLCAnPG91dGZpbGUubWFlPic=

> <r_lp_tautomer_probability>
1

> <r_epik_Ionization_Penalty>
1.08202

> <r_epik_Ionization_Penalty_Charging>
1.08202

> <r_epik_Ionization_Penalty_Neutral>
1.16605e-06

> <r_epik_State_Penalty>
1.13754

> <r_epik_Charging_Adjusted_Penalty>
2.21956

> <i_epik_Tot_Q>
1

> <i_epik_Tot_abs_Q>
1

> <r_epik_Metal_State_Penalty>
5.13645

> <b_epik_Metal_Only>
0

> <s_lp_Force_Field>
OPLS_2005

> <r_lp_Energy>
22.4261

> <b_lp_Chiralities_Consistent>
1

> <s_lp_Variant>
AV-unprocessed.smi:740-8

> <Gold.Version>
5.8.1

> <Gold.Id.Protein>
6NUR|6NUR_protein|mol2

> <Gold.PLP.Fitness>
41.2486

> <Gold.PLP.PLP>
-32.7246

> <Gold.PLP.part.hbond>
-2.0000

> <Gold.PLP.part.metal>
0.0000

> <Gold.PLP.part.buried>
2.1031

> <Gold.PLP.part.nonpolar>
-33.8031

> <Gold.PLP.part.repulsive>
0.3154

> <Gold.PLP.ligand.clash>
0.0000

> <Gold.PLP.ligand.torsion>
0.2493

> <Gold.PLP.Chemscore.Hbond>
2.0000

> <Gold.PLP.Chemscore.CHOScore>
1.0000

> <Gold.PLP.Chemscore.Metal>
0.0000

> <Gold.Chemscore.Hbonds>
donor molecule, donor type, donor heavy atom, donor atom, acceptor molecule, acceptor atom, score
      L1  H     5    45       P1 10171  1.00
      P1  H 10752 10765       L1    14  1.00
      L1  C     6    28       P1 10175  1.00

> <Gold.PLP.Chemscore.Internal.Correction>
0.0226

> <Gold.Rescore>
     Score         DG    S(hbond)    S(metal)    S(lipo)     H(rot)  DE(clash)    DE(int)     intcor
     12.25     -13.91       2.00        0.00      66.91       2.37       0.09       1.58       ----

> <Gold.Chemscore.Fitness>
12.2505

> <Gold.Chemscore.DG>
-13.9118

> <Gold.Chemscore.ZeroCoef>
-5.4800

> <Gold.Chemscore.Hbond>
1.9990

> <Gold.Chemscore.Metal>
0.0000

> <Gold.Chemscore.Lipo>
66.9102

> <Gold.Chemscore.Internal_Hbond>
0.0000

> <Gold.Chemscore.DEClash>
0.0855

> <Gold.Chemscore.DEInternal>
1.5759

> <Gold.Chemscore.Rot>
2.3724

> <Gold.Chemscore.Internal.Correction>
   9.000000E+99

> <Gold.Chemscore.Hbonds>
donor molecule, donor type, donor heavy atom, donor atom, acceptor molecule, acceptor atom, score
      L1  H     5    45       P1 10171  0.99
      P1  H 10752 10765       L1    14  0.96

> <Gold.Chemscore.Hbond.Weighted>
-6.6767

> <Gold.Chemscore.Metal.Weighted>
-0.0000

> <Gold.Chemscore.Lipo.Weighted>
-7.8285

> <Gold.Chemscore.Internal_Hbond.Weighted>
0.0000

> <Gold.Chemscore.DEClash.Weighted>
0.0855

> <Gold.Chemscore.DEInternal.Weighted>
1.5759

> <Gold.Chemscore.Rot.Weighted>
6.0734

> <Gold.Chemscore.Internal.Correction.Weighted>
   9.000000E+99

> <Gold.Protein.RotatedTorsions>
[ 6907 6896 6895 6894 ] final  111.63 input  -60.11 | X-H torsion
[ 7974 7965 7964 7962 ] final  -68.24 input  175.53 | X-H torsion
[ 8008 7997 7996 7995 ] final  104.71 input   59.86 | X-H torsion
[ 10167 10162 10161 10158 ] final   23.07 input  -65.29 | X-H torsion
[ 10718 10713 10712 10709 ] final   10.38 input   66.30 | X-H torsion
[ 10763 10752 10751 10750 ] final -166.18 input  -60.55 | X-H torsion
[ 11005 11000 10999 10996 ] final  -31.87 input  -57.11 | X-H torsion

> <Gold.Protein.ActiveResidues>
 VAL166  LYS551  ARG553  GLY616  TRP617  ASP618  TYR619  PRO620  LYS621  CYS622 
 ASP623  PHE694  ASN695  SER759  ASP760  ASP761  ALA762  ILE779  LEU786  VAL792 
 PHE793  MET794  SER795  GLU796  ALA797  LYS798  CYS799  TRP800  GLU811  SER814 

> <Gold.Protein.RotatedAtoms>
  152.4959  133.8631  159.7259 H   0  0  0  0  0  0  0  0  0  0  0  0  # atno 6907 bound_to 6896
  150.9137  133.6956  159.2855 H   0  0  0  0  0  0  0  0  0  0  0  0  # atno 6908 bound_to 6896
  151.4357  135.1019  159.9708 H   0  0  0  0  0  0  0  0  0  0  0  0  # atno 6909 bound_to 6896
  145.7189  140.9047  143.0640 H   0  0  0  0  0  0  0  0  0  0  0  0  # atno 7974 bound_to 7965
  156.1596  140.3143  155.8785 H   0  0  0  0  0  0  0  0  0  0  0  0  # atno 8008 bound_to 7997
  155.3808  140.0487  157.3060 H   0  0  0  0  0  0  0  0  0  0  0  0  # atno 8009 bound_to 7997
  154.5134  140.2173  155.9123 H   0  0  0  0  0  0  0  0  0  0  0  0  # atno 8010 bound_to 7997
  140.5298  143.9861  150.6459 H   0  0  0  0  0  0  0  0  0  0  0  0  # atno 10167 bound_to 10162
  156.9801  130.6002  149.5676 H   0  0  0  0  0  0  0  0  0  0  0  0  # atno 10718 bound_to 10713
  154.6859  135.2962  154.9548 H   0  0  0  0  0  0  0  0  0  0  0  0  # atno 10763 bound_to 10752
  154.0528  135.6642  153.4806 H   0  0  0  0  0  0  0  0  0  0  0  0  # atno 10764 bound_to 10752
  153.0578  135.5134  154.7925 H   0  0  0  0  0  0  0  0  0  0  0  0  # atno 10765 bound_to 10752
  140.9505  133.7224  156.1213 H   0  0  0  0  0  0  0  0  0  0  0  0  # atno 11005 bound_to 11000
  144.6922  139.9176  143.7466 LP  0  0  0  0  0  0  0  0  0  0  0  0  # atno 17320 bound_to 7965
  146.0643  139.3635  143.0562 LP  0  0  0  0  0  0  0  0  0  0  0  0  # atno 17321 bound_to 7965
  140.3233  143.3123  152.0762 LP  0  0  0  0  0  0  0  0  0  0  0  0  # atno 17342 bound_to 10162
  139.4950  144.6559  151.6573 LP  0  0  0  0  0  0  0  0  0  0  0  0  # atno 17343 bound_to 10162
  156.0248  130.5342  150.8375 LP  0  0  0  0  0  0  0  0  0  0  0  0  # atno 17370 bound_to 10713
  157.5532  131.0944  150.9666 LP  0  0  0  0  0  0  0  0  0  0  0  0  # atno 17371 bound_to 10713
  140.7609  134.3940  157.5526 LP  0  0  0  0  0  0  0  0  0  0  0  0  # atno 17394 bound_to 11000
  139.8846  134.8961  156.2694 LP  0  0  0  0  0  0  0  0  0  0  0  0  # atno 17395 bound_to 11000

$$$$
