AV-unprocessed.smi:1940|AV-procd|sdf|7838|dock4
  -GOLD-   22720 9583D 1   1.00000     0.00000
 Structure written by MMmdl.
 49 51  0  0  0  0  0  0  0  0  1 V2000
  149.6119  132.6026  155.0765 C   0  0  0  0  0  0  0  0  0  0  0  0
  148.4403  133.4177  154.5097 C   0  0  1  0  0  0  0  0  0  0  0  0
  148.8728  134.8020  154.3209 N   0  0  0  0  0  0  0  0  0  0  0  0
  149.3815  135.6034  155.2682 C   0  0  0  0  0  0  0  0  0  0  0  0
  149.5447  135.2577  156.4378 O   0  0  0  0  0  0  0  0  0  0  0  0
  149.6933  136.8094  154.7630 N   0  0  0  0  0  0  0  0  0  0  0  0
  150.2787  137.9249  155.4221 C   0  0  0  0  0  0  0  0  0  0  0  0
  150.6302  139.1386  154.7836 C   0  0  0  0  0  0  0  0  0  0  0  0
  151.2131  140.1665  155.5494 C   0  0  0  0  0  0  0  0  0  0  0  0
  151.4361  139.9490  156.9242 C   0  0  0  0  0  0  0  0  0  0  0  0
  152.0137  140.9713  157.6906 N   0  0  0  0  0  0  0  0  0  0  0  0
  151.3260  142.2531  157.5534 C   0  0  0  0  0  0  0  0  0  0  0  0
  152.1231  143.3771  158.2381 C   0  0  0  0  0  0  0  0  0  0  0  0
  152.4230  143.0249  159.7043 C   0  0  0  0  0  0  0  0  0  0  0  0
  153.1146  141.6548  159.7920 C   0  0  0  0  0  0  0  0  0  0  0  0
  152.2890  140.5760  159.0698 C   0  0  0  0  0  0  0  0  0  0  0  0
  151.1168  138.7856  157.5390 N   0  0  0  0  0  0  0  0  0  0  0  0
  150.5576  137.8048  156.7994 C   0  0  0  0  0  0  0  0  0  0  0  0
  147.9203  132.8332  153.1809 C   0  0  2  0  0  0  0  0  0  0  0  0
  146.8063  133.6452  152.5140 C   0  0  0  0  0  0  0  0  0  0  0  0
  146.0993  132.5884  151.6977 C   0  0  0  0  0  0  0  0  0  0  0  0
  146.1541  131.3893  152.6376 C   0  0  0  0  0  0  0  0  0  0  0  0
  147.3535  131.5408  153.3922 O   0  0  0  0  0  0  0  0  0  0  0  0
  149.3182  131.5695  155.2644 H   0  0  0  0  0  0  0  0  0  0  0  0
  149.9590  133.0210  156.0218 H   0  0  0  0  0  0  0  0  0  0  0  0
  150.4572  132.5879  154.3878 H   0  0  0  0  0  0  0  0  0  0  0  0
  147.6274  133.3746  155.2368 H   0  0  0  0  0  0  0  0  0  0  0  0
  148.7813  135.1765  153.3878 H   0  0  0  0  0  0  0  0  0  0  0  0
  149.5573  136.9198  153.7687 H   0  0  0  0  0  0  0  0  0  0  0  0
  150.4782  139.3003  153.7282 H   0  0  0  0  0  0  0  0  0  0  0  0
  151.4868  141.1033  155.0862 H   0  0  0  0  0  0  0  0  0  0  0  0
  151.1888  142.4861  156.4967 H   0  0  0  0  0  0  0  0  0  0  0  0
  150.3320  142.1817  157.9973 H   0  0  0  0  0  0  0  0  0  0  0  0
  153.0598  143.5379  157.7026 H   0  0  0  0  0  0  0  0  0  0  0  0
  151.5695  144.3147  158.1833 H   0  0  0  0  0  0  0  0  0  0  0  0
  153.0488  143.7940  160.1576 H   0  0  0  0  0  0  0  0  0  0  0  0
  151.4929  143.0027  160.2733 H   0  0  0  0  0  0  0  0  0  0  0  0
  154.1064  141.7168  159.3420 H   0  0  0  0  0  0  0  0  0  0  0  0
  153.2638  141.3755  160.8351 H   0  0  0  0  0  0  0  0  0  0  0  0
  151.3474  140.4168  159.5977 H   0  0  0  0  0  0  0  0  0  0  0  0
  152.8265  139.6268  159.0806 H   0  0  0  0  0  0  0  0  0  0  0  0
  150.3194  136.8937  157.3290 H   0  0  0  0  0  0  0  0  0  0  0  0
  148.7433  132.7183  152.4734 H   0  0  0  0  0  0  0  0  0  0  0  0
  146.1255  134.0535  153.2627 H   0  0  0  0  0  0  0  0  0  0  0  0
  147.1839  134.4700  151.9088 H   0  0  0  0  0  0  0  0  0  0  0  0
  145.0827  132.8674  151.4196 H   0  0  0  0  0  0  0  0  0  0  0  0
  146.6604  132.3797  150.7858 H   0  0  0  0  0  0  0  0  0  0  0  0
  145.3086  131.4073  153.3262 H   0  0  0  0  0  0  0  0  0  0  0  0
  146.1355  130.4393  152.1032 H   0  0  0  0  0  0  0  0  0  0  0  0
  1  2  1  0  0  0  0
  1 24  1  0  0  0  0
  1 25  1  0  0  0  0
  1 26  1  0  0  0  0
  2  3  1  0  0  0  0
  2 19  1  0  0  0  0
  2 27  1  0  0  0  0
  3  4  1  0  0  0  0
  3 28  1  0  0  0  0
  4  5  2  0  0  0  0
  4  6  1  0  0  0  0
  6  7  1  0  0  0  0
  6 29  1  0  0  0  0
  7 18  1  0  0  0  0
  7  8  2  0  0  0  0
  8  9  1  0  0  0  0
  8 30  1  0  0  0  0
  9 10  2  0  0  0  0
  9 31  1  0  0  0  0
 10 11  1  0  0  0  0
 10 17  1  0  0  0  0
 11 16  1  0  0  0  0
 11 12  1  0  0  0  0
 12 13  1  0  0  0  0
 12 32  1  0  0  0  0
 12 33  1  0  0  0  0
 13 14  1  0  0  0  0
 13 34  1  0  0  0  0
 13 35  1  0  0  0  0
 14 15  1  0  0  0  0
 14 36  1  0  0  0  0
 14 37  1  0  0  0  0
 15 16  1  0  0  0  0
 15 38  1  0  0  0  0
 15 39  1  0  0  0  0
 16 40  1  0  0  0  0
 16 41  1  0  0  0  0
 17 18  2  0  0  0  0
 18 42  1  0  0  0  0
 19 23  1  0  0  0  0
 19 20  1  0  0  0  0
 19 43  1  0  0  0  0
 20 21  1  0  0  0  0
 20 44  1  0  0  0  0
 20 45  1  0  0  0  0
 21 22  1  0  0  0  0
 21 46  1  0  0  0  0
 21 47  1  0  0  0  0
 22 23  1  0  0  0  0
 22 48  1  0  0  0  0
 22 49  1  0  0  0  0
M  END
> <s_m_source_file>
AV-unprocessed.smi

> <i_m_source_file_index>
1940

> <i_lp_mmshare_version>
43012

> <i_f3d_flags>
0

> <s_epik_input>
TzFbQ0gyXVtDSDJdW0NIMl1bQ0BIXTFbQ0BIXShbQ0gzXSlbTkhdQyg9TylbTkhdYzJbY0hdW2NIXWMobltjSF0yKU4zW0NIMl1bQ0gyXVtDSDJdW0NIMl1bQ0gyXTM=

> <s_epik_cmdline>
J2VwaWtfcHl0aG9uJywgJy1waCcsICc3LjAnLCAnLXRuJywgJzgnLCAnLW1hJywgJzIwMCcsICctbWV0YWxfYmluZGluZycsICctaW1hZScsICc8aW5maWxlLm1hZT4nLCAnLW9tYWUnLCAnPG91dGZpbGUubWFlPic=

> <r_lp_tautomer_probability>
1

> <r_epik_Ionization_Penalty>
0.105688

> <r_epik_Ionization_Penalty_Charging>
0

> <r_epik_Ionization_Penalty_Neutral>
0.105688

> <r_epik_State_Penalty>
0.0895745

> <r_epik_Charging_Adjusted_Penalty>
0.0895745

> <i_epik_Tot_Q>
0

> <i_epik_Tot_abs_Q>
0

> <r_epik_Metal_State_Penalty>
0.0765749

> <b_epik_Metal_Only>
0

> <s_lp_Force_Field>
OPLS_2005

> <r_lp_Energy>
35.482

> <b_lp_Chiralities_Consistent>
1

> <s_lp_Variant>
AV-unprocessed.smi:1940-2

> <Gold.Version>
5.8.1

> <Gold.Id.Protein>
6NUR|6NUR_protein|mol2

> <Gold.PLP.Fitness>
47.3653

> <Gold.PLP.PLP>
-41.4610

> <Gold.PLP.part.hbond>
-2.0000

> <Gold.PLP.part.metal>
0.0000

> <Gold.PLP.part.buried>
-2.9188

> <Gold.PLP.part.nonpolar>
-36.4613

> <Gold.PLP.part.repulsive>
0.1615

> <Gold.PLP.ligand.clash>
0.0000

> <Gold.PLP.ligand.torsion>
0.1195

> <Gold.PLP.Chemscore.Hbond>
1.9920

> <Gold.PLP.Chemscore.CHOScore>
0.0000

> <Gold.PLP.Chemscore.Metal>
0.0000

> <Gold.Chemscore.Hbonds>
donor molecule, donor type, donor heavy atom, donor atom, acceptor molecule, acceptor atom, score
      L1  H     3    28       P1  7948  1.00
      L1  H     6    29       P1  7948  0.86

> <Gold.PLP.Chemscore.Internal.Correction>
0.1673

> <Gold.Rescore>
     Score         DG    S(hbond)    S(metal)    S(lipo)     H(rot)  DE(clash)    DE(int)     intcor
     17.78     -19.72       1.73        0.00     101.63       1.34       0.36       1.58       ----

> <Gold.Chemscore.Fitness>
17.7828

> <Gold.Chemscore.DG>
-19.7234

> <Gold.Chemscore.ZeroCoef>
-5.4800

> <Gold.Chemscore.Hbond>
1.7284

> <Gold.Chemscore.Metal>
0.0000

> <Gold.Chemscore.Lipo>
101.6271

> <Gold.Chemscore.Internal_Hbond>
0.0000

> <Gold.Chemscore.DEClash>
0.3597

> <Gold.Chemscore.DEInternal>
1.5809

> <Gold.Chemscore.Rot>
1.3359

> <Gold.Chemscore.Internal.Correction>
   9.000000E+99

> <Gold.Chemscore.Hbonds>
donor molecule, donor type, donor heavy atom, donor atom, acceptor molecule, acceptor atom, score
      L1  H     3    28       P1  7948  0.70
      L1  H     6    29       P1  7948  0.69

> <Gold.Chemscore.Hbond.Weighted>
-5.7729

> <Gold.Chemscore.Metal.Weighted>
-0.0000

> <Gold.Chemscore.Lipo.Weighted>
-11.8904

> <Gold.Chemscore.Internal_Hbond.Weighted>
0.0000

> <Gold.Chemscore.DEClash.Weighted>
0.3597

> <Gold.Chemscore.DEInternal.Weighted>
1.5809

> <Gold.Chemscore.Rot.Weighted>
3.4199

> <Gold.Chemscore.Internal.Correction.Weighted>
   9.000000E+99

> <Gold.Protein.RotatedTorsions>
[ 6907 6896 6895 6894 ] final   30.76 input  -60.11 | X-H torsion
[ 7974 7965 7964 7962 ] final   43.66 input  175.53 | X-H torsion
[ 8008 7997 7996 7995 ] final  -35.81 input   59.86 | X-H torsion
[ 10167 10162 10161 10158 ] final -148.57 input  -65.29 | X-H torsion
[ 10718 10713 10712 10709 ] final -123.02 input   66.30 | X-H torsion
[ 10763 10752 10751 10750 ] final  158.97 input  -60.55 | X-H torsion
[ 11005 11000 10999 10996 ] final   56.79 input  -57.11 | X-H torsion

> <Gold.Protein.ActiveResidues>
 VAL166  LYS551  ARG553  GLY616  TRP617  ASP618  TYR619  PRO620  LYS621  CYS622 
 ASP623  PHE694  ASN695  SER759  ASP760  ASP761  ALA762  ILE779  LEU786  VAL792 
 PHE793  MET794  SER795  GLU796  ALA797  LYS798  CYS799  TRP800  GLU811  SER814 

> <Gold.Protein.RotatedAtoms>
  152.0505  134.9656  160.0574 H   0  0  0  0  0  0  0  0  0  0  0  0  # atno 6907 bound_to 6896
  152.1059  133.4270  159.4616 H   0  0  0  0  0  0  0  0  0  0  0  0  # atno 6908 bound_to 6896
  150.6841  134.2625  159.4598 H   0  0  0  0  0  0  0  0  0  0  0  0  # atno 6909 bound_to 6896
  146.0636  139.5162  142.9642 H   0  0  0  0  0  0  0  0  0  0  0  0  # atno 7974 bound_to 7965
  154.4087  140.1647  156.2272 H   0  0  0  0  0  0  0  0  0  0  0  0  # atno 8008 bound_to 7997
  155.9313  140.3414  155.6228 H   0  0  0  0  0  0  0  0  0  0  0  0  # atno 8009 bound_to 7997
  155.7103  140.0756  157.2364 H   0  0  0  0  0  0  0  0  0  0  0  0  # atno 8010 bound_to 7997
  139.7520  143.8504  152.2588 H   0  0  0  0  0  0  0  0  0  0  0  0  # atno 10167 bound_to 10162
  156.1467  130.6505  150.9852 H   0  0  0  0  0  0  0  0  0  0  0  0  # atno 10718 bound_to 10713
  154.2245  135.2780  155.2912 H   0  0  0  0  0  0  0  0  0  0  0  0  # atno 10763 bound_to 10752
  154.5675  135.5628  153.7067 H   0  0  0  0  0  0  0  0  0  0  0  0  # atno 10764 bound_to 10752
  153.0034  135.6313  154.2386 H   0  0  0  0  0  0  0  0  0  0  0  0  # atno 10765 bound_to 10752
  140.0502  134.5748  155.9273 H   0  0  0  0  0  0  0  0  0  0  0  0  # atno 11005 bound_to 11000
  145.6516  141.0262  143.1757 LP  0  0  0  0  0  0  0  0  0  0  0  0  # atno 17320 bound_to 7965
  144.7189  139.8098  143.7389 LP  0  0  0  0  0  0  0  0  0  0  0  0  # atno 17321 bound_to 7965
  139.8485  144.7176  150.9243 LP  0  0  0  0  0  0  0  0  0  0  0  0  # atno 17342 bound_to 10162
  140.7799  143.3920  151.1294 LP  0  0  0  0  0  0  0  0  0  0  0  0  # atno 17343 bound_to 10162
  157.6622  131.0878  150.7811 LP  0  0  0  0  0  0  0  0  0  0  0  0  # atno 17370 bound_to 10713
  156.7882  130.4881  149.5389 LP  0  0  0  0  0  0  0  0  0  0  0  0  # atno 17371 bound_to 10713
  141.1926  133.6576  156.5511 LP  0  0  0  0  0  0  0  0  0  0  0  0  # atno 17394 bound_to 11000
  140.3930  134.7424  157.4733 LP  0  0  0  0  0  0  0  0  0  0  0  0  # atno 17395 bound_to 11000

$$$$
