AV-unprocessed.smi:266|AV-procd|sdf|2034|dock3
  -GOLD-   2262021243D 1   1.00000     0.00000
 Structure written by MMmdl.
 52 55  0  0  0  0  0  0  0  0  1 V2000
  152.7804  141.9684  159.8407 C   0  0  0  0  0  0  0  0  0  0  0  0
  151.7477  143.0306  159.4323 C   0  0  1  0  0  0  0  0  0  0  0  0
  152.2967  144.3074  159.7484 O   0  0  0  0  0  0  0  0  0  0  0  0
  151.8079  145.2604  158.8211 C   0  0  0  0  0  0  0  0  0  0  0  0
  151.8369  144.4872  157.5118 C   0  0  0  0  0  0  0  0  0  0  0  0
  151.3667  143.0953  157.9255 C   0  0  2  0  0  0  0  0  0  0  0  0
  149.9510  143.0734  157.8406 O   0  0  0  0  0  0  0  0  0  0  0  0
  151.9169  141.9586  157.0241 C   0  0  0  0  0  0  0  0  0  0  0  0
  151.1990  140.7009  157.1723 N   0  0  0  0  0  0  0  0  0  0  0  0
  150.8181  140.1049  158.3510 C   0  0  0  0  0  0  0  0  0  0  0  0
  150.1833  138.9737  158.2190 N   0  0  0  0  0  0  0  0  0  0  0  0
  150.1231  138.7590  156.8448 C   0  0  0  0  0  0  0  0  0  0  0  0
  149.5816  137.7333  156.0058 C   0  0  0  0  0  0  0  0  0  0  0  0
  148.9311  136.6151  156.4475 N   0  0  0  0  0  0  0  0  0  0  0  0
  148.5296  136.5045  157.8449 C   0  0  0  0  0  0  0  0  0  0  0  0
  148.8465  135.4187  155.6044 C   0  0  0  0  0  0  0  0  0  0  0  0
  149.7820  134.2828  156.0679 C   0  0  2  0  0  0  0  0  0  0  0  0
  150.0627  133.2726  154.9387 C   0  0  0  0  0  0  0  0  0  0  0  0
  150.7679  132.0515  155.5369 C   0  0  0  0  0  0  0  0  0  0  0  0
  150.0601  131.8491  157.2131 S   0  0  0  0  0  0  0  0  0  0  0  0
  149.0252  130.8042  157.1858 O   0  0  0  0  0  0  0  0  0  0  0  0
  151.1550  131.8051  158.1937 O   0  0  0  0  0  0  0  0  0  0  0  0
  149.2461  133.4906  157.2730 C   0  0  0  0  0  0  0  0  0  0  0  0
  149.7325  137.9053  154.6640 N   0  0  0  0  0  0  0  0  0  0  0  0
  150.3607  138.9744  154.1704 C   0  0  0  0  0  0  0  0  0  0  0  0
  150.9116  139.9925  154.8289 N   0  0  0  0  0  0  0  0  0  0  0  0
  150.7650  139.8439  156.1755 C   0  0  0  0  0  0  0  0  0  0  0  0
  152.4200  140.9604  159.6345 H   0  0  0  0  0  0  0  0  0  0  0  0
  152.9883  142.0269  160.9093 H   0  0  0  0  0  0  0  0  0  0  0  0
  153.7267  142.1082  159.3175 H   0  0  0  0  0  0  0  0  0  0  0  0
  150.8545  142.8944  160.0451 H   0  0  0  0  0  0  0  0  0  0  0  0
  150.7900  145.5492  159.0874 H   0  0  0  0  0  0  0  0  0  0  0  0
  152.4293  146.1556  158.7975 H   0  0  0  0  0  0  0  0  0  0  0  0
  151.2323  144.9440  156.7270 H   0  0  0  0  0  0  0  0  0  0  0  0
  152.8670  144.4454  157.1564 H   0  0  0  0  0  0  0  0  0  0  0  0
  149.6859  143.6186  157.1158 H   0  0  0  0  0  0  0  0  0  0  0  0
  151.8664  142.2457  155.9738 H   0  0  0  0  0  0  0  0  0  0  0  0
  152.9696  141.7751  157.2430 H   0  0  0  0  0  0  0  0  0  0  0  0
  151.0227  140.5405  159.3181 H   0  0  0  0  0  0  0  0  0  0  0  0
  147.7872  137.2631  158.0928 H   0  0  0  0  0  0  0  0  0  0  0  0
  149.3896  136.6195  158.5052 H   0  0  0  0  0  0  0  0  0  0  0  0
  148.0833  135.5318  158.0517 H   0  0  0  0  0  0  0  0  0  0  0  0
  147.8160  135.0615  155.5971 H   0  0  0  0  0  0  0  0  0  0  0  0
  149.0586  135.6801  154.5670 H   0  0  0  0  0  0  0  0  0  0  0  0
  150.7445  134.7088  156.3546 H   0  0  0  0  0  0  0  0  0  0  0  0
  149.1169  132.9534  154.4989 H   0  0  0  0  0  0  0  0  0  0  0  0
  150.6527  133.7176  154.1369 H   0  0  0  0  0  0  0  0  0  0  0  0
  150.6241  131.1434  154.9516 H   0  0  0  0  0  0  0  0  0  0  0  0
  151.8372  132.2360  155.6425 H   0  0  0  0  0  0  0  0  0  0  0  0
  149.4529  133.9766  158.2266 H   0  0  0  0  0  0  0  0  0  0  0  0
  148.1712  133.3286  157.1914 H   0  0  0  0  0  0  0  0  0  0  0  0
  150.4311  139.0201  153.0936 H   0  0  0  0  0  0  0  0  0  0  0  0
  1  2  1  0  0  0  0
  1 28  1  0  0  0  0
  1 29  1  0  0  0  0
  1 30  1  0  0  0  0
  2  6  1  0  0  0  0
  2  3  1  0  0  0  0
  2 31  1  0  0  0  0
  3  4  1  0  0  0  0
  4  5  1  0  0  0  0
  4 32  1  0  0  0  0
  4 33  1  0  0  0  0
  5  6  1  0  0  0  0
  5 34  1  0  0  0  0
  5 35  1  0  0  0  0
  6  7  1  0  0  0  0
  6  8  1  0  0  0  0
  7 36  1  0  0  0  0
  8  9  1  0  0  0  0
  8 37  1  0  0  0  0
  8 38  1  0  0  0  0
  9 27  1  0  0  0  0
  9 10  1  0  0  0  0
 10 11  2  0  0  0  0
 10 39  1  0  0  0  0
 11 12  1  0  0  0  0
 12 27  2  0  0  0  0
 12 13  1  0  0  0  0
 13 14  1  0  0  0  0
 13 24  2  0  0  0  0
 14 15  1  0  0  0  0
 14 16  1  0  0  0  0
 15 40  1  0  0  0  0
 15 41  1  0  0  0  0
 15 42  1  0  0  0  0
 16 17  1  0  0  0  0
 16 43  1  0  0  0  0
 16 44  1  0  0  0  0
 17 23  1  0  0  0  0
 17 18  1  0  0  0  0
 17 45  1  0  0  0  0
 18 19  1  0  0  0  0
 18 46  1  0  0  0  0
 18 47  1  0  0  0  0
 19 20  1  0  0  0  0
 19 48  1  0  0  0  0
 19 49  1  0  0  0  0
 20 21  2  0  0  0  0
 20 22  2  0  0  0  0
 20 23  1  0  0  0  0
 23 50  1  0  0  0  0
 23 51  1  0  0  0  0
 24 25  1  0  0  0  0
 25 26  2  0  0  0  0
 25 52  1  0  0  0  0
 26 27  1  0  0  0  0
M  END
> <s_m_source_file>
AV-unprocessed.smi

> <i_m_source_file_index>
266

> <i_lp_mmshare_version>
43012

> <i_f3d_flags>
0

> <s_epik_input>
W0NIMl0xW0NIMl1PW0NAQEhdKFtDSDNdKVtDQEBdMShbT0hdKVtDSDJdbihbY0hdbjIpYyhjMjMpbltjSF1uYzNOKFtDSDNdKVtDSDJdW0NAQEhdKFtDSDJdNClbQ0gyXVtDSDJdUzQoPU8pPU8=

> <s_epik_cmdline>
J2VwaWtfcHl0aG9uJywgJy1waCcsICc3LjAnLCAnLXRuJywgJzgnLCAnLW1hJywgJzIwMCcsICctbWV0YWxfYmluZGluZycsICctaW1hZScsICc8aW5maWxlLm1hZT4nLCAnLW9tYWUnLCAnPG91dGZpbGUubWFlPic=

> <r_lp_tautomer_probability>
1

> <r_epik_Ionization_Penalty>
0.00155497

> <r_epik_Ionization_Penalty_Charging>
0

> <r_epik_Ionization_Penalty_Neutral>
0.00155497

> <r_epik_State_Penalty>
-0

> <r_epik_Charging_Adjusted_Penalty>
0

> <i_epik_Tot_Q>
0

> <i_epik_Tot_abs_Q>
0

> <r_epik_Metal_State_Penalty>
-0

> <b_epik_Metal_Only>
0

> <s_lp_Force_Field>
OPLS_2005

> <r_lp_Energy>
30.3558

> <b_lp_Chiralities_Consistent>
1

> <s_lp_Variant>
AV-unprocessed.smi:266-4

> <Gold.Version>
5.8.1

> <Gold.Id.Protein>
6NUR|6NUR_protein|mol2

> <Gold.PLP.Fitness>
47.7137

> <Gold.PLP.PLP>
-37.1769

> <Gold.PLP.part.hbond>
-3.0000

> <Gold.PLP.part.metal>
0.0000

> <Gold.PLP.part.buried>
-7.4457

> <Gold.PLP.part.nonpolar>
-26.9798

> <Gold.PLP.part.repulsive>
0.2773

> <Gold.PLP.ligand.clash>
0.0000

> <Gold.PLP.ligand.torsion>
0.7904

> <Gold.PLP.Chemscore.Hbond>
3.0000

> <Gold.PLP.Chemscore.CHOScore>
1.0000

> <Gold.PLP.Chemscore.Metal>
0.0000

> <Gold.Chemscore.Hbonds>
donor molecule, donor type, donor heavy atom, donor atom, acceptor molecule, acceptor atom, score
      L1  H     7    36       P1  8028  1.00
      P1  H  6896  6908       L1    22  1.00
      P1  H  7989  7998       L1    26  1.00
      L1  C    25    52       P1  7957  1.00

> <Gold.PLP.Chemscore.Internal.Correction>
0.1175

> <Gold.Rescore>
     Score         DG    S(hbond)    S(metal)    S(lipo)     H(rot)  DE(clash)    DE(int)     intcor
     15.50     -18.98       2.74        0.00      90.83       2.45       1.62       1.86       ----

> <Gold.Chemscore.Fitness>
15.4975

> <Gold.Chemscore.DG>
-18.9827

> <Gold.Chemscore.ZeroCoef>
-5.4800

> <Gold.Chemscore.Hbond>
2.7365

> <Gold.Chemscore.Metal>
0.0000

> <Gold.Chemscore.Lipo>
90.8310

> <Gold.Chemscore.Internal_Hbond>
0.0000

> <Gold.Chemscore.DEClash>
1.6216

> <Gold.Chemscore.DEInternal>
1.8636

> <Gold.Chemscore.Rot>
2.4471

> <Gold.Chemscore.Internal.Correction>
   9.000000E+99

> <Gold.Chemscore.Hbonds>
donor molecule, donor type, donor heavy atom, donor atom, acceptor molecule, acceptor atom, score
      L1  H     7    36       P1  8028  0.90
      P1  H  6896  6908       L1    22  0.99
      P1  H  7989  7998       L1    26  0.26

> <Gold.Chemscore.Hbond.Weighted>
-9.1400

> <Gold.Chemscore.Metal.Weighted>
-0.0000

> <Gold.Chemscore.Lipo.Weighted>
-10.6272

> <Gold.Chemscore.Internal_Hbond.Weighted>
0.0000

> <Gold.Chemscore.DEClash.Weighted>
1.6216

> <Gold.Chemscore.DEInternal.Weighted>
1.8636

> <Gold.Chemscore.Rot.Weighted>
6.2645

> <Gold.Chemscore.Internal.Correction.Weighted>
   9.000000E+99

> <Gold.Protein.RotatedTorsions>
[ 6907 6896 6895 6894 ] final   61.73 input  -60.11 | X-H torsion
[ 7974 7965 7964 7962 ] final  -37.47 input  175.53 | X-H torsion
[ 8008 7997 7996 7995 ] final  -99.02 input   59.86 | X-H torsion
[ 10167 10162 10161 10158 ] final  -18.63 input  -65.29 | X-H torsion
[ 10718 10713 10712 10709 ] final   46.38 input   66.30 | X-H torsion
[ 10763 10752 10751 10750 ] final  139.94 input  -60.55 | X-H torsion
[ 11005 11000 10999 10996 ] final -134.77 input  -57.11 | X-H torsion

> <Gold.Protein.ActiveResidues>
 VAL166  LYS551  ARG553  GLY616  TRP617  ASP618  TYR619  PRO620  LYS621  CYS622 
 ASP623  PHE694  ASN695  SER759  ASP760  ASP761  ALA762  ILE779  LEU786  VAL792 
 PHE793  MET794  SER795  GLU796  ALA797  LYS798  CYS799  TRP800  GLU811  SER814 

> <Gold.Protein.RotatedAtoms>
  152.4113  134.6119  160.0027 H   0  0  0  0  0  0  0  0  0  0  0  0  # atno 6907 bound_to 6896
  151.6295  133.3327  159.3114 H   0  0  0  0  0  0  0  0  0  0  0  0  # atno 6908 bound_to 6896
  150.8004  134.7134  159.6661 H   0  0  0  0  0  0  0  0  0  0  0  0  # atno 6909 bound_to 6896
  146.0572  140.6400  142.9014 H   0  0  0  0  0  0  0  0  0  0  0  0  # atno 7974 bound_to 7965
  154.8091  140.0451  157.1329 H   0  0  0  0  0  0  0  0  0  0  0  0  # atno 8008 bound_to 7997
  154.9390  140.3050  155.5110 H   0  0  0  0  0  0  0  0  0  0  0  0  # atno 8009 bound_to 7997
  156.2970  140.2309  156.4457 H   0  0  0  0  0  0  0  0  0  0  0  0  # atno 8010 bound_to 7997
  140.7260  143.4898  151.0007 H   0  0  0  0  0  0  0  0  0  0  0  0  # atno 10167 bound_to 10162
  157.4475  130.8118  149.7755 H   0  0  0  0  0  0  0  0  0  0  0  0  # atno 10718 bound_to 10713
  153.9145  135.3007  155.3448 H   0  0  0  0  0  0  0  0  0  0  0  0  # atno 10763 bound_to 10752
  154.7606  135.4936  153.9461 H   0  0  0  0  0  0  0  0  0  0  0  0  # atno 10764 bound_to 10752
  153.1175  135.6774  153.9495 H   0  0  0  0  0  0  0  0  0  0  0  0  # atno 10765 bound_to 10752
  140.8959  134.1752  157.4495 H   0  0  0  0  0  0  0  0  0  0  0  0  # atno 11005 bound_to 11000
  144.7154  140.4192  143.7048 LP  0  0  0  0  0  0  0  0  0  0  0  0  # atno 17320 bound_to 7965
  145.6623  139.1583  143.2801 LP  0  0  0  0  0  0  0  0  0  0  0  0  # atno 17321 bound_to 7965
  139.8601  143.7325  152.3174 LP  0  0  0  0  0  0  0  0  0  0  0  0  # atno 17342 bound_to 10162
  139.7538  144.7526  151.0467 LP  0  0  0  0  0  0  0  0  0  0  0  0  # atno 17343 bound_to 10162
  155.9973  130.3900  150.2744 LP  0  0  0  0  0  0  0  0  0  0  0  0  # atno 17370 bound_to 10713
  157.0913  131.0170  151.3120 LP  0  0  0  0  0  0  0  0  0  0  0  0  # atno 17371 bound_to 10713
  139.8735  134.9878  156.5384 LP  0  0  0  0  0  0  0  0  0  0  0  0  # atno 17394 bound_to 11000
  140.8289  133.8294  155.8965 LP  0  0  0  0  0  0  0  0  0  0  0  0  # atno 17395 bound_to 11000

$$$$
