AV-unprocessed.smi:876|AV-procd|sdf|4025|dock1
  -GOLD-   22720 1513D 1   1.00000     0.00000
 Structure written by MMmdl.
 40 41  0  0  0  0  0  0  0  0  1 V2000
  145.7229  131.7890  151.7387 C   0  0  0  0  0  0  0  0  0  0  0  0
  144.8929  132.8891  151.2637 N   0  0  0  0  0  0  0  0  0  0  0  0
  143.8626  132.6420  150.2602 C   0  0  0  0  0  0  0  0  0  0  0  0
  145.0590  134.1880  151.7965 C   0  0  0  0  0  0  0  0  0  0  0  0
  146.0378  134.4639  152.7834 C   0  0  0  0  0  0  0  0  0  0  0  0
  146.1667  135.7745  153.2825 C   0  0  0  0  0  0  0  0  0  0  0  0
  145.3183  136.7871  152.7787 C   0  0  0  0  0  0  0  0  0  0  0  0
  145.3345  138.1414  153.2096 N   0  0  0  0  0  0  0  0  0  0  0  0
  146.3037  138.8049  153.8632 C   0  0  0  0  0  0  0  0  0  0  0  0
  147.3924  138.3363  154.1946 O   0  0  0  0  0  0  0  0  0  0  0  0
  145.9437  140.0738  154.1009 N   0  0  0  0  0  0  0  0  0  0  0  0
  146.7727  141.0628  154.7810 C   0  0  2  0  0  0  0  0  0  0  0  0
  147.9867  141.3899  153.9561 C   0  0  0  0  0  0  0  0  0  0  0  0
  149.1263  141.1483  154.5996 C   0  0  0  0  0  0  0  0  0  0  0  0
  148.9113  140.5871  155.9821 C   0  0  1  0  0  0  0  0  0  0  0  0
  149.5860  141.4298  157.0783 C   0  0  0  0  0  0  0  0  0  0  0  0
  148.8221  142.5842  157.3599 O   0  0  0  0  0  0  0  0  0  0  0  0
  147.3674  140.5372  156.1144 C   0  0  0  0  0  0  0  0  0  0  0  0
  144.3670  136.4156  151.8089 C   0  0  0  0  0  0  0  0  0  0  0  0
  144.2408  135.1618  151.3278 N   0  0  0  0  0  0  0  0  0  0  0  0
  146.2069  141.9821  154.9427 H   0  0  0  0  0  0  0  0  0  0  0  0
  149.3105  139.5718  156.0009 H   0  0  0  0  0  0  0  0  0  0  0  0
  145.5986  131.6504  152.8130 H   0  0  0  0  0  0  0  0  0  0  0  0
  146.7753  131.9844  151.5301 H   0  0  0  0  0  0  0  0  0  0  0  0
  145.4563  130.8513  151.2509 H   0  0  0  0  0  0  0  0  0  0  0  0
  144.0173  133.2759  149.3867 H   0  0  0  0  0  0  0  0  0  0  0  0
  142.8731  132.8499  150.6685 H   0  0  0  0  0  0  0  0  0  0  0  0
  143.8742  131.6053  149.9240 H   0  0  0  0  0  0  0  0  0  0  0  0
  146.6910  133.6969  153.1714 H   0  0  0  0  0  0  0  0  0  0  0  0
  146.9021  135.9681  154.0474 H   0  0  0  0  0  0  0  0  0  0  0  0
  144.5284  138.6871  152.9425 H   0  0  0  0  0  0  0  0  0  0  0  0
  145.0338  140.3795  153.7883 H   0  0  0  0  0  0  0  0  0  0  0  0
  147.9117  141.7892  152.9553 H   0  0  0  0  0  0  0  0  0  0  0  0
  150.1139  141.3131  154.1945 H   0  0  0  0  0  0  0  0  0  0  0  0
  149.7107  140.8497  157.9936 H   0  0  0  0  0  0  0  0  0  0  0  0
  150.5792  141.7441  156.7563 H   0  0  0  0  0  0  0  0  0  0  0  0
  148.8495  143.1541  156.6066 H   0  0  0  0  0  0  0  0  0  0  0  0
  147.0206  141.1559  156.9431 H   0  0  0  0  0  0  0  0  0  0  0  0
  147.0414  139.5188  156.3311 H   0  0  0  0  0  0  0  0  0  0  0  0
  143.6855  137.1475  151.4005 H   0  0  0  0  0  0  0  0  0  0  0  0
  1  2  1  0  0  0  0
  1 23  1  0  0  0  0
  1 24  1  0  0  0  0
  1 25  1  0  0  0  0
  2  3  1  0  0  0  0
  2  4  1  0  0  0  0
  3 26  1  0  0  0  0
  3 27  1  0  0  0  0
  3 28  1  0  0  0  0
  4 20  1  0  0  0  0
  4  5  2  0  0  0  0
  5  6  1  0  0  0  0
  5 29  1  0  0  0  0
  6  7  2  0  0  0  0
  6 30  1  0  0  0  0
  7  8  1  0  0  0  0
  7 19  1  0  0  0  0
  8  9  1  0  0  0  0
  8 31  1  0  0  0  0
  9 10  2  0  0  0  0
  9 11  1  0  0  0  0
 11 12  1  0  0  0  0
 11 32  1  0  0  0  0
 12 21  1  0  0  0  0
 12 18  1  0  0  0  0
 12 13  1  0  0  0  0
 13 14  2  0  0  0  0
 13 33  1  0  0  0  0
 14 15  1  0  0  0  0
 14 34  1  0  0  0  0
 15 22  1  0  0  0  0
 15 16  1  0  0  0  0
 15 18  1  0  0  0  0
 16 17  1  0  0  0  0
 16 35  1  0  0  0  0
 16 36  1  0  0  0  0
 17 37  1  0  0  0  0
 18 38  1  0  0  0  0
 18 39  1  0  0  0  0
 19 20  2  0  0  0  0
 19 40  1  0  0  0  0
M  END
> <s_m_source_file>
AV-unprocessed.smi

> <i_m_source_file_index>
876

> <i_lp_mmshare_version>
43012

> <i_f3d_flags>
0

> <s_epik_input>
W0NIM11OKFtDSDNdKWMxW2NIXVtjSF1jKFtjSF1uMSlbTkhdQyg9TylbTkhdW0NAQEhdMltDSF09W0NIXVtDQEBIXShbQ0gyXTIpW0NIMl1bT0hd

> <s_epik_cmdline>
J2VwaWtfcHl0aG9uJywgJy1waCcsICc3LjAnLCAnLXRuJywgJzgnLCAnLW1hJywgJzIwMCcsICctbWV0YWxfYmluZGluZycsICctaW1hZScsICc8aW5maWxlLm1hZT4nLCAnLW9tYWUnLCAnPG91dGZpbGUubWFlPic=

> <r_lp_tautomer_probability>
1

> <r_epik_Ionization_Penalty>
0.617998

> <r_epik_Ionization_Penalty_Charging>
0

> <r_epik_Ionization_Penalty_Neutral>
0.617998

> <r_epik_State_Penalty>
0.632637

> <r_epik_Charging_Adjusted_Penalty>
0.632637

> <i_epik_Tot_Q>
0

> <i_epik_Tot_abs_Q>
0

> <r_epik_Metal_State_Penalty>
0.305596

> <b_epik_Metal_Only>
0

> <s_lp_Force_Field>
OPLS_2005

> <r_lp_Energy>
20.6099

> <b_lp_Chiralities_Consistent>
1

> <s_lp_Variant>
AV-unprocessed.smi:876-7

> <Gold.Version>
5.8.1

> <Gold.Id.Protein>
6NUR|6NUR_protein|mol2

> <Gold.PLP.Fitness>
39.7759

> <Gold.PLP.PLP>
-28.3948

> <Gold.PLP.part.hbond>
-3.0000

> <Gold.PLP.part.metal>
0.0000

> <Gold.PLP.part.buried>
-2.2795

> <Gold.PLP.part.nonpolar>
-22.9684

> <Gold.PLP.part.repulsive>
0.3340

> <Gold.PLP.ligand.clash>
0.0000

> <Gold.PLP.ligand.torsion>
0.3224

> <Gold.PLP.Chemscore.Hbond>
3.0000

> <Gold.PLP.Chemscore.CHOScore>
1.0000

> <Gold.PLP.Chemscore.Metal>
0.0000

> <Gold.Chemscore.Hbonds>
donor molecule, donor type, donor heavy atom, donor atom, acceptor molecule, acceptor atom, score
      L1  H     8    31       P1 10175  1.00
      L1  H    11    32       P1 10175  1.00
      L1  H    17    37       P1  8028  1.00
      L1  C    19    40       P1 10171  1.00

> <Gold.PLP.Chemscore.Internal.Correction>
0.0260

> <Gold.Rescore>
     Score         DG    S(hbond)    S(metal)    S(lipo)     H(rot)  DE(clash)    DE(int)     intcor
     15.05     -18.01       2.90        0.00      63.50       1.80       0.18       2.77       ----

> <Gold.Chemscore.Fitness>
15.0503

> <Gold.Chemscore.DG>
-18.0087

> <Gold.Chemscore.ZeroCoef>
-5.4800

> <Gold.Chemscore.Hbond>
2.9049

> <Gold.Chemscore.Metal>
0.0000

> <Gold.Chemscore.Lipo>
63.4980

> <Gold.Chemscore.Internal_Hbond>
0.0000

> <Gold.Chemscore.DEClash>
0.1837

> <Gold.Chemscore.DEInternal>
2.7748

> <Gold.Chemscore.Rot>
1.7980

> <Gold.Chemscore.Internal.Correction>
   9.000000E+99

> <Gold.Chemscore.Hbonds>
donor molecule, donor type, donor heavy atom, donor atom, acceptor molecule, acceptor atom, score
      L1  H     8    31       P1 10175  0.91
      L1  H    11    32       P1 10175  0.96
      L1  H    17    37       P1  8028  0.92

> <Gold.Chemscore.Hbond.Weighted>
-9.7023

> <Gold.Chemscore.Metal.Weighted>
-0.0000

> <Gold.Chemscore.Lipo.Weighted>
-7.4293

> <Gold.Chemscore.Internal_Hbond.Weighted>
0.0000

> <Gold.Chemscore.DEClash.Weighted>
0.1837

> <Gold.Chemscore.DEInternal.Weighted>
2.7748

> <Gold.Chemscore.Rot.Weighted>
4.6029

> <Gold.Chemscore.Internal.Correction.Weighted>
   9.000000E+99

> <Gold.Protein.RotatedTorsions>
[ 6907 6896 6895 6894 ] final  -78.86 input  -60.11 | X-H torsion
[ 7974 7965 7964 7962 ] final  -96.20 input  175.53 | X-H torsion
[ 8008 7997 7996 7995 ] final  -80.54 input   59.86 | X-H torsion
[ 10167 10162 10161 10158 ] final  114.69 input  -65.29 | X-H torsion
[ 10718 10713 10712 10709 ] final   47.94 input   66.30 | X-H torsion
[ 10763 10752 10751 10750 ] final  -92.93 input  -60.55 | X-H torsion
[ 11005 11000 10999 10996 ] final    9.28 input  -57.11 | X-H torsion

> <Gold.Protein.ActiveResidues>
 VAL166  LYS551  ARG553  GLY616  TRP617  ASP618  TYR619  PRO620  LYS621  CYS622 
 ASP623  PHE694  ASN695  SER759  ASP760  ASP761  ALA762  ILE779  LEU786  VAL792 
 PHE793  MET794  SER795  GLU796  ALA797  LYS798  CYS799  TRP800  GLU811  SER814 

> <Gold.Protein.RotatedAtoms>
  150.6963  134.4208  159.5203 H   0  0  0  0  0  0  0  0  0  0  0  0  # atno 6907 bound_to 6896
  152.1951  134.8635  160.0523 H   0  0  0  0  0  0  0  0  0  0  0  0  # atno 6908 bound_to 6896
  151.9576  133.3650  159.4060 H   0  0  0  0  0  0  0  0  0  0  0  0  # atno 6909 bound_to 6896
  145.3500  140.9475  143.2560 H   0  0  0  0  0  0  0  0  0  0  0  0  # atno 7974 bound_to 7965
  154.5893  140.0661  156.9216 H   0  0  0  0  0  0  0  0  0  0  0  0  # atno 8008 bound_to 7997
  155.2324  140.3338  155.4283 H   0  0  0  0  0  0  0  0  0  0  0  0  # atno 8009 bound_to 7997
  156.2245  140.1813  156.7382 H   0  0  0  0  0  0  0  0  0  0  0  0  # atno 8010 bound_to 7997
  139.6370  144.7120  151.2314 H   0  0  0  0  0  0  0  0  0  0  0  0  # atno 10167 bound_to 10162
  157.4636  130.8212  149.7912 H   0  0  0  0  0  0  0  0  0  0  0  0  # atno 10718 bound_to 10713
  154.6909  135.5213  153.8392 H   0  0  0  0  0  0  0  0  0  0  0  0  # atno 10763 bound_to 10752
  153.0632  135.6575  154.0424 H   0  0  0  0  0  0  0  0  0  0  0  0  # atno 10764 bound_to 10752
  154.0298  135.2986  155.3349 H   0  0  0  0  0  0  0  0  0  0  0  0  # atno 10765 bound_to 10752
  140.5275  134.0499  155.7863 H   0  0  0  0  0  0  0  0  0  0  0  0  # atno 11005 bound_to 11000
  144.8725  139.5018  143.6761 LP  0  0  0  0  0  0  0  0  0  0  0  0  # atno 17320 bound_to 7965
  146.2972  139.7314  142.9118 LP  0  0  0  0  0  0  0  0  0  0  0  0  # atno 17321 bound_to 7965
  140.7470  143.6378  150.8362 LP  0  0  0  0  0  0  0  0  0  0  0  0  # atno 17342 bound_to 10162
  140.0011  143.5743  152.2875 LP  0  0  0  0  0  0  0  0  0  0  0  0  # atno 17343 bound_to 10162
  156.0040  130.3865  150.2499 LP  0  0  0  0  0  0  0  0  0  0  0  0  # atno 17370 bound_to 10713
  157.0678  131.0108  151.3200 LP  0  0  0  0  0  0  0  0  0  0  0  0  # atno 17371 bound_to 10713
  141.1300  133.9318  157.2555 LP  0  0  0  0  0  0  0  0  0  0  0  0  # atno 17394 bound_to 11000
  139.9572  135.0163  156.9161 LP  0  0  0  0  0  0  0  0  0  0  0  0  # atno 17395 bound_to 11000

$$$$
