AV-unprocessed.smi:100|AV-procd|sdf|901|dock3
  -GOLD-   2262017393D 1   1.00000     0.00000
 Structure written by MMmdl.
 31 33  0  0  0  0  0  0  0  0  1 V2000
  150.8293  138.3885  153.2850 N   0  0  0  0  0  0  0  0  0  0  0  0
  151.2507  138.5890  154.5413 C   0  0  0  0  0  0  0  0  0  0  0  0
  152.0260  137.6412  155.1185 N   0  0  0  0  0  0  0  0  0  0  0  0
  152.4581  137.8175  156.3716 C   0  0  0  0  0  0  0  0  0  0  0  0
  152.2330  138.8437  157.1972 N   0  0  0  0  0  0  0  0  0  0  0  0
  151.4503  139.7982  156.6124 C   0  0  0  0  0  0  0  0  0  0  0  0
  150.9219  139.7454  155.2931 C   0  0  0  0  0  0  0  0  0  0  0  0
  150.1745  140.8865  155.0381 N   0  0  0  0  0  0  0  0  0  0  0  0
  150.2559  141.5700  156.1482 C   0  0  0  0  0  0  0  0  0  0  0  0
  151.0093  140.9901  157.1488 N   0  0  0  0  0  0  0  0  0  0  0  0
  151.2971  141.4924  158.5309 C   0  0  2  0  0  0  0  0  0  0  0  0
  150.6565  142.7272  158.6781 O   0  0  0  0  0  0  0  0  0  0  0  0
  151.6169  143.7806  158.6572 C   0  0  1  0  0  0  0  0  0  0  0  0
  151.0792  145.0317  159.3696 C   0  0  0  0  0  0  0  0  0  0  0  0
  149.6783  145.1103  159.2150 O   0  0  0  0  0  0  0  0  0  0  0  0
  152.8127  143.1255  159.3465 C   0  0  1  0  0  0  0  0  0  0  0  0
  152.5694  143.0509  160.6588 F   0  0  0  0  0  0  0  0  0  0  0  0
  152.8037  141.7418  158.7150 C   0  0  1  0  0  0  0  0  0  0  0  0
  153.4419  140.8013  159.5555 O   0  0  0  0  0  0  0  0  0  0  0  0
  150.2493  139.0814  152.8339 H   0  0  0  0  0  0  0  0  0  0  0  0
  151.0881  137.5446  152.7947 H   0  0  0  0  0  0  0  0  0  0  0  0
  153.0722  137.0234  156.7699 H   0  0  0  0  0  0  0  0  0  0  0  0
  149.7633  142.5236  156.2588 H   0  0  0  0  0  0  0  0  0  0  0  0
  150.8695  140.7659  159.2226 H   0  0  0  0  0  0  0  0  0  0  0  0
  151.8931  144.0207  157.6300 H   0  0  0  0  0  0  0  0  0  0  0  0
  151.3445  145.0335  160.4272 H   0  0  0  0  0  0  0  0  0  0  0  0
  151.5080  145.9301  158.9247 H   0  0  0  0  0  0  0  0  0  0  0  0
  149.4861  145.3204  158.3139 H   0  0  0  0  0  0  0  0  0  0  0  0
  153.7496  143.6650  159.2048 H   0  0  0  0  0  0  0  0  0  0  0  0
  153.3020  141.7725  157.7447 H   0  0  0  0  0  0  0  0  0  0  0  0
  154.3767  140.9203  159.4814 H   0  0  0  0  0  0  0  0  0  0  0  0
  1  2  1  0  0  0  0
  1 20  1  0  0  0  0
  1 21  1  0  0  0  0
  2  7  1  0  0  0  0
  2  3  2  0  0  0  0
  3  4  1  0  0  0  0
  4  5  2  0  0  0  0
  4 22  1  0  0  0  0
  5  6  1  0  0  0  0
  6 10  1  0  0  0  0
  6  7  2  0  0  0  0
  7  8  1  0  0  0  0
  8  9  2  0  0  0  0
  9 10  1  0  0  0  0
  9 23  1  0  0  0  0
 10 11  1  0  0  0  0
 11 18  1  0  0  0  0
 11 12  1  0  0  0  0
 11 24  1  0  0  0  0
 12 13  1  0  0  0  0
 13 14  1  0  0  0  0
 13 16  1  0  0  0  0
 13 25  1  0  0  0  0
 14 15  1  0  0  0  0
 14 26  1  0  0  0  0
 14 27  1  0  0  0  0
 15 28  1  0  0  0  0
 16 17  1  0  0  0  0
 16 18  1  0  0  0  0
 16 29  1  0  0  0  0
 18 19  1  0  0  0  0
 18 30  1  0  0  0  0
 19 31  1  0  0  0  0
M  END
> <s_m_source_file>
AV-unprocessed.smi

> <i_m_source_file_index>
100

> <i_lp_mmshare_version>
43012

> <i_f3d_flags>
0

> <s_epik_input>
bjFbY0hdbmMoW05IMl0pYyhjMTIpbltjSF1uMltDQEBIXTNPW0NAQEhdKFtDSDJdW09IXSlbQ0BIXShGKVtDQEhdM1tPSF0=

> <s_epik_cmdline>
J2VwaWtfcHl0aG9uJywgJy1waCcsICc3LjAnLCAnLXRuJywgJzgnLCAnLW1hJywgJzIwMCcsICctbWV0YWxfYmluZGluZycsICctaW1hZScsICc8aW5maWxlLm1hZT4nLCAnLW9tYWUnLCAnPG91dGZpbGUubWFlPic=

> <r_lp_tautomer_probability>
1

> <r_epik_Ionization_Penalty>
0.000750324

> <r_epik_Ionization_Penalty_Charging>
0

> <r_epik_Ionization_Penalty_Neutral>
0.000750324

> <r_epik_State_Penalty>
-0

> <r_epik_Charging_Adjusted_Penalty>
0

> <i_epik_Tot_Q>
0

> <i_epik_Tot_abs_Q>
0

> <r_epik_Metal_State_Penalty>
-0

> <b_epik_Metal_Only>
0

> <s_epik_Chemistry_Notes>
This compound contains an acetal/aminal-like group ( X-CH(R)-Y where X, Y are N, S, or O) that may be acid/base labile, releasing an aldehyde.

> <s_lp_Force_Field>
OPLS_2005

> <r_lp_Energy>
31.3803

> <b_lp_Chiralities_Consistent>
1

> <s_lp_Variant>
AV-unprocessed.smi:100-5

> <Gold.Version>
5.8.1

> <Gold.Id.Protein>
6NUR|6NUR_protein|mol2

> <Gold.PLP.Fitness>
46.6365

> <Gold.PLP.PLP>
-34.0705

> <Gold.PLP.part.hbond>
-5.6629

> <Gold.PLP.part.metal>
0.0000

> <Gold.PLP.part.buried>
-0.9068

> <Gold.PLP.part.nonpolar>
-26.4475

> <Gold.PLP.part.repulsive>
0.3506

> <Gold.PLP.ligand.clash>
0.0000

> <Gold.PLP.ligand.torsion>
0.4122

> <Gold.PLP.Chemscore.Hbond>
3.4568

> <Gold.PLP.Chemscore.CHOScore>
1.0000

> <Gold.PLP.Chemscore.Metal>
0.0000

> <Gold.Chemscore.Hbonds>
donor molecule, donor type, donor heavy atom, donor atom, acceptor molecule, acceptor atom, score
      L1  H     1    20       P1  7957  0.99
      L1  H     1    21       P1  7949  1.00
      L1  H    15    28       P1  8029  0.75
      P1  H 10752 10764       L1     3  0.28
      L1  C     9    23       P1  8028  1.00

> <Gold.PLP.Chemscore.Internal.Correction>
0.0199

> <Gold.Rescore>
     Score         DG    S(hbond)    S(metal)    S(lipo)     H(rot)  DE(clash)    DE(int)     intcor
      8.26      -8.73       1.75        0.00      47.79       3.19       0.04       0.43       ----

> <Gold.Chemscore.Fitness>
8.2608

> <Gold.Chemscore.DG>
-8.7326

> <Gold.Chemscore.ZeroCoef>
-5.4800

> <Gold.Chemscore.Hbond>
1.7450

> <Gold.Chemscore.Metal>
0.0000

> <Gold.Chemscore.Lipo>
47.7854

> <Gold.Chemscore.Internal_Hbond>
0.0000

> <Gold.Chemscore.DEClash>
0.0432

> <Gold.Chemscore.DEInternal>
0.4287

> <Gold.Chemscore.Rot>
3.1901

> <Gold.Chemscore.Internal.Correction>
   9.000000E+99

> <Gold.Chemscore.Hbonds>
donor molecule, donor type, donor heavy atom, donor atom, acceptor molecule, acceptor atom, score
      L1  H     1    20       P1  7957  0.62
      L1  H     1    21       P1  7949  0.37
      L1  H    15    28       P1  8029  0.47
      P1  H 10752 10764       L1     3  0.11

> <Gold.Chemscore.Hbond.Weighted>
-5.8284

> <Gold.Chemscore.Metal.Weighted>
-0.0000

> <Gold.Chemscore.Lipo.Weighted>
-5.5909

> <Gold.Chemscore.Internal_Hbond.Weighted>
0.0000

> <Gold.Chemscore.DEClash.Weighted>
0.0432

> <Gold.Chemscore.DEInternal.Weighted>
0.4287

> <Gold.Chemscore.Rot.Weighted>
8.1667

> <Gold.Chemscore.Internal.Correction.Weighted>
   9.000000E+99

> <Gold.Protein.RotatedTorsions>
[ 6907 6896 6895 6894 ] final  171.97 input  -60.11 | X-H torsion
[ 7974 7965 7964 7962 ] final -136.26 input  175.53 | X-H torsion
[ 8008 7997 7996 7995 ] final   52.90 input   59.86 | X-H torsion
[ 10167 10162 10161 10158 ] final  166.85 input  -65.29 | X-H torsion
[ 10718 10713 10712 10709 ] final   52.69 input   66.30 | X-H torsion
[ 10763 10752 10751 10750 ] final  -64.27 input  -60.55 | X-H torsion
[ 11005 11000 10999 10996 ] final    5.48 input  -57.11 | X-H torsion

> <Gold.Protein.ActiveResidues>
 VAL166  LYS551  ARG553  GLY616  TRP617  ASP618  TYR619  PRO620  LYS621  CYS622 
 ASP623  PHE694  ASN695  SER759  ASP760  ASP761  ALA762  ILE779  LEU786  VAL792 
 PHE793  MET794  SER795  GLU796  ALA797  LYS798  CYS799  TRP800  GLU811  SER814 

> <Gold.Protein.RotatedAtoms>
  151.7918  133.3360  159.3500 H   0  0  0  0  0  0  0  0  0  0  0  0  # atno 6907 bound_to 6896
  150.7389  134.5835  159.5960 H   0  0  0  0  0  0  0  0  0  0  0  0  # atno 6908 bound_to 6896
  152.3205  134.7388  160.0366 H   0  0  0  0  0  0  0  0  0  0  0  0  # atno 6909 bound_to 6896
  144.8943  140.6684  143.5126 H   0  0  0  0  0  0  0  0  0  0  0  0  # atno 7974 bound_to 7965
  155.4595  140.3461  155.4311 H   0  0  0  0  0  0  0  0  0  0  0  0  # atno 8008 bound_to 7997
  156.1170  140.1476  156.9288 H   0  0  0  0  0  0  0  0  0  0  0  0  # atno 8009 bound_to 7997
  154.4796  140.0874  156.7324 H   0  0  0  0  0  0  0  0  0  0  0  0  # atno 8010 bound_to 7997
  139.4933  144.3984  151.9438 H   0  0  0  0  0  0  0  0  0  0  0  0  # atno 10167 bound_to 10162
  157.5098  130.8493  149.8420 H   0  0  0  0  0  0  0  0  0  0  0  0  # atno 10718 bound_to 10713
  154.3276  135.6183  153.5536 H   0  0  0  0  0  0  0  0  0  0  0  0  # atno 10763 bound_to 10752
  152.9814  135.5739  154.4998 H   0  0  0  0  0  0  0  0  0  0  0  0  # atno 10764 bound_to 10752
  154.4679  135.2858  155.1641 H   0  0  0  0  0  0  0  0  0  0  0  0  # atno 10765 bound_to 10752
  140.5702  134.0109  155.8006 H   0  0  0  0  0  0  0  0  0  0  0  0  # atno 11005 bound_to 11000
  145.3728  139.1654  143.4322 LP  0  0  0  0  0  0  0  0  0  0  0  0  # atno 17320 bound_to 7965
  146.3072  140.3802  142.8683 LP  0  0  0  0  0  0  0  0  0  0  0  0  # atno 17321 bound_to 7965
  140.3423  144.3189  150.5965 LP  0  0  0  0  0  0  0  0  0  0  0  0  # atno 17342 bound_to 10162
  140.5556  143.2199  151.7853 LP  0  0  0  0  0  0  0  0  0  0  0  0  # atno 17343 bound_to 10162
  156.0281  130.3773  150.1764 LP  0  0  0  0  0  0  0  0  0  0  0  0  # atno 17370 bound_to 10713
  156.9953  130.9906  151.3404 LP  0  0  0  0  0  0  0  0  0  0  0  0  # atno 17371 bound_to 10713
  141.1060  133.9692  157.2995 LP  0  0  0  0  0  0  0  0  0  0  0  0  # atno 17394 bound_to 11000
  139.9365  135.0196  156.8573 LP  0  0  0  0  0  0  0  0  0  0  0  0  # atno 17395 bound_to 11000

$$$$
