AV-unprocessed.smi:1827|AV-procd|sdf|7419|dock2
  -GOLD-   22720 9103D 1   1.00000     0.00000
 Structure written by MMmdl.
 43 44  0  0  0  0  0  0  0  0  1 V2000
  140.2838  137.4644  153.7449 C   0  0  0  0  0  0  0  0  0  0  0  0
  141.3806  136.4357  153.7314 C   0  0  0  0  0  0  0  0  0  0  0  0
  141.0493  135.1516  153.6899 N   0  0  0  0  0  0  0  0  0  0  0  0
  142.2275  134.4953  153.6214 N   0  0  0  0  0  0  0  0  0  0  0  0
  143.3222  135.3300  153.6173 C   0  0  0  0  0  0  0  0  0  0  0  0
  144.7212  134.8179  153.5304 C   0  0  0  0  0  0  0  0  0  0  0  0
  142.8024  136.5879  153.7173 C   0  0  0  0  0  0  0  0  0  0  0  0
  143.5754  137.7757  153.7199 N   0  0  0  0  0  0  0  0  0  0  0  0
  144.5746  138.0833  154.5603 C   0  0  0  0  0  0  0  0  0  0  0  0
  145.0035  137.3436  155.4456 O   0  0  0  0  0  0  0  0  0  0  0  0
  145.0711  139.3018  154.3040 N   0  0  0  0  0  0  0  0  0  0  0  0
  146.1618  139.9367  155.0373 C   0  0  0  0  0  0  0  0  0  0  0  0
  146.7523  141.1111  154.2395 C   0  0  0  0  0  0  0  0  0  0  0  0
  147.9888  141.6935  154.9450 C   0  0  0  0  0  0  0  0  0  0  0  0
  149.0141  140.6611  155.1283 N   0  0  0  0  0  0  0  0  0  0  0  0
  150.2359  141.2825  155.6886 C   0  0  0  0  0  0  0  0  0  0  0  0
  151.4149  140.3181  155.8664 C   0  0  0  0  0  0  0  0  0  0  0  0
  151.8932  140.1600  157.1030 N   0  0  0  0  0  0  0  0  0  0  0  0
  151.8831  139.7205  154.8997 O   0  0  0  0  0  0  0  0  0  0  0  0
  148.4954  139.5739  155.9712 C   0  0  0  0  0  0  0  0  0  0  0  0
  147.2728  138.9129  155.3100 C   0  0  0  0  0  0  0  0  0  0  0  0
  142.2674  133.4872  153.5711 H   0  0  0  0  0  0  0  0  0  0  0  0
  140.5817  138.3672  153.2117 H   0  0  0  0  0  0  0  0  0  0  0  0
  140.0237  137.7458  154.7654 H   0  0  0  0  0  0  0  0  0  0  0  0
  139.3789  137.0895  153.2656 H   0  0  0  0  0  0  0  0  0  0  0  0
  145.4302  135.6319  153.3793 H   0  0  0  0  0  0  0  0  0  0  0  0
  144.8280  134.1217  152.6984 H   0  0  0  0  0  0  0  0  0  0  0  0
  144.9987  134.2964  154.4465 H   0  0  0  0  0  0  0  0  0  0  0  0
  143.4080  138.4153  152.9574 H   0  0  0  0  0  0  0  0  0  0  0  0
  144.6593  139.8346  153.5520 H   0  0  0  0  0  0  0  0  0  0  0  0
  145.7865  140.3043  155.9944 H   0  0  0  0  0  0  0  0  0  0  0  0
  147.0291  140.7802  153.2371 H   0  0  0  0  0  0  0  0  0  0  0  0
  146.0037  141.8935  154.1102 H   0  0  0  0  0  0  0  0  0  0  0  0
  148.3876  142.5071  154.3375 H   0  0  0  0  0  0  0  0  0  0  0  0
  147.7065  142.1255  155.9068 H   0  0  0  0  0  0  0  0  0  0  0  0
  150.5756  142.0763  155.0216 H   0  0  0  0  0  0  0  0  0  0  0  0
  150.0015  141.7601  156.6421 H   0  0  0  0  0  0  0  0  0  0  0  0
  152.6691  139.5357  157.2684 H   0  0  0  0  0  0  0  0  0  0  0  0
  151.4754  140.6679  157.8692 H   0  0  0  0  0  0  0  0  0  0  0  0
  149.2518  138.8043  156.1237 H   0  0  0  0  0  0  0  0  0  0  0  0
  148.2314  139.9572  156.9583 H   0  0  0  0  0  0  0  0  0  0  0  0
  146.8952  138.1152  155.9507 H   0  0  0  0  0  0  0  0  0  0  0  0
  147.5814  138.4392  154.3766 H   0  0  0  0  0  0  0  0  0  0  0  0
  1  2  1  0  0  0  0
  1 23  1  0  0  0  0
  1 24  1  0  0  0  0
  1 25  1  0  0  0  0
  2  7  1  0  0  0  0
  2  3  2  0  0  0  0
  3  4  1  0  0  0  0
  4 22  1  0  0  0  0
  4  5  1  0  0  0  0
  5  6  1  0  0  0  0
  5  7  2  0  0  0  0
  6 26  1  0  0  0  0
  6 27  1  0  0  0  0
  6 28  1  0  0  0  0
  7  8  1  0  0  0  0
  8  9  1  0  0  0  0
  8 29  1  0  0  0  0
  9 10  2  0  0  0  0
  9 11  1  0  0  0  0
 11 12  1  0  0  0  0
 11 30  1  0  0  0  0
 12 21  1  0  0  0  0
 12 13  1  0  0  0  0
 12 31  1  0  0  0  0
 13 14  1  0  0  0  0
 13 32  1  0  0  0  0
 13 33  1  0  0  0  0
 14 15  1  0  0  0  0
 14 34  1  0  0  0  0
 14 35  1  0  0  0  0
 15 16  1  0  0  0  0
 15 20  1  0  0  0  0
 16 17  1  0  0  0  0
 16 36  1  0  0  0  0
 16 37  1  0  0  0  0
 17 18  1  0  0  0  0
 17 19  2  0  0  0  0
 18 38  1  0  0  0  0
 18 39  1  0  0  0  0
 20 21  1  0  0  0  0
 20 40  1  0  0  0  0
 20 41  1  0  0  0  0
 21 42  1  0  0  0  0
 21 43  1  0  0  0  0
M  END
> <s_m_source_file>
AV-unprocessed.smi

> <i_m_source_file_index>
1827

> <i_lp_mmshare_version>
43012

> <i_f3d_flags>
0

> <s_epik_input>
W0NIM11jMW5bbkhdYyhbQ0gzXSljMVtOSF1DKD1PKVtOSF1bQ0hdMltDSDJdW0NIMl1OKFtDSDJdW0NIMl0yKVtDSDJdQyg9TylbTkgyXQ==

> <s_epik_cmdline>
J2VwaWtfcHl0aG9uJywgJy1waCcsICc3LjAnLCAnLXRuJywgJzgnLCAnLW1hJywgJzIwMCcsICctbWV0YWxfYmluZGluZycsICctaW1hZScsICc8aW5maWxlLm1hZT4nLCAnLW9tYWUnLCAnPG91dGZpbGUubWFlPic=

> <r_lp_tautomer_probability>
0.5

> <r_epik_Ionization_Penalty>
0.165173

> <r_epik_Ionization_Penalty_Charging>
0

> <r_epik_Ionization_Penalty_Neutral>
0.165173

> <r_epik_State_Penalty>
0.154069

> <r_epik_Charging_Adjusted_Penalty>
0.154069

> <i_epik_Tot_Q>
0

> <i_epik_Tot_abs_Q>
0

> <r_epik_Metal_State_Penalty>
0.171338

> <b_epik_Metal_Only>
0

> <s_lp_Force_Field>
OPLS_2005

> <r_lp_Energy>
14.0389

> <b_lp_Chiralities_Consistent>
1

> <s_lp_Variant>
AV-unprocessed.smi:1827-1

> <Gold.Version>
5.8.1

> <Gold.Id.Protein>
6NUR|6NUR_protein|mol2

> <Gold.PLP.Fitness>
39.1494

> <Gold.PLP.PLP>
-26.7065

> <Gold.PLP.part.hbond>
-5.4350

> <Gold.PLP.part.metal>
0.0000

> <Gold.PLP.part.buried>
-6.2016

> <Gold.PLP.part.nonpolar>
-15.0870

> <Gold.PLP.part.repulsive>
0.4731

> <Gold.PLP.ligand.clash>
0.0000

> <Gold.PLP.ligand.torsion>
0.7287

> <Gold.PLP.Chemscore.Hbond>
4.5192

> <Gold.PLP.Chemscore.CHOScore>
0.0000

> <Gold.PLP.Chemscore.Metal>
0.0000

> <Gold.Chemscore.Hbonds>
donor molecule, donor type, donor heavy atom, donor atom, acceptor molecule, acceptor atom, score
      L1  H     4    22       P1 10957  0.65
      L1  H     8    29       P1 10175  0.69
      L1  H    11    30       P1 10175  1.00
      P1  H  7989  7998       L1    19  0.98
      P1  H 11000 11005       L1     3  0.21

> <Gold.PLP.Chemscore.Internal.Correction>
0.3427

> <Gold.Rescore>
     Score         DG    S(hbond)    S(metal)    S(lipo)     H(rot)  DE(clash)    DE(int)     intcor
     15.02     -17.15       3.49        0.00      42.88       1.96       0.03       2.10       ----

> <Gold.Chemscore.Fitness>
15.0171

> <Gold.Chemscore.DG>
-17.1476

> <Gold.Chemscore.ZeroCoef>
-5.4800

> <Gold.Chemscore.Hbond>
3.4947

> <Gold.Chemscore.Metal>
0.0000

> <Gold.Chemscore.Lipo>
42.8805

> <Gold.Chemscore.Internal_Hbond>
0.0000

> <Gold.Chemscore.DEClash>
0.0270

> <Gold.Chemscore.DEInternal>
2.1035

> <Gold.Chemscore.Rot>
1.9616

> <Gold.Chemscore.Internal.Correction>
   9.000000E+99

> <Gold.Chemscore.Hbonds>
donor molecule, donor type, donor heavy atom, donor atom, acceptor molecule, acceptor atom, score
      L1  H     4    22       P1 10957  0.62
      L1  H     8    29       P1 10175  0.68
      L1  H    11    30       P1 10175  0.98
      P1  H  7989  7998       L1    19  0.47
      P1  H 11000 11005       L1     3  0.06

> <Gold.Chemscore.Hbond.Weighted>
-11.6722

> <Gold.Chemscore.Metal.Weighted>
-0.0000

> <Gold.Chemscore.Lipo.Weighted>
-5.0170

> <Gold.Chemscore.Internal_Hbond.Weighted>
0.0000

> <Gold.Chemscore.DEClash.Weighted>
0.0270

> <Gold.Chemscore.DEInternal.Weighted>
2.1035

> <Gold.Chemscore.Rot.Weighted>
5.0216

> <Gold.Chemscore.Internal.Correction.Weighted>
   9.000000E+99

> <Gold.Protein.RotatedTorsions>
[ 6907 6896 6895 6894 ] final  -69.96 input  -60.11 | X-H torsion
[ 7974 7965 7964 7962 ] final   49.88 input  175.53 | X-H torsion
[ 8008 7997 7996 7995 ] final -172.81 input   59.86 | X-H torsion
[ 10167 10162 10161 10158 ] final   73.71 input  -65.29 | X-H torsion
[ 10718 10713 10712 10709 ] final   51.61 input   66.30 | X-H torsion
[ 10763 10752 10751 10750 ] final  -48.89 input  -60.55 | X-H torsion
[ 11005 11000 10999 10996 ] final   41.18 input  -57.11 | X-H torsion

> <Gold.Protein.ActiveResidues>
 VAL166  LYS551  ARG553  GLY616  TRP617  ASP618  TYR619  PRO620  LYS621  CYS622 
 ASP623  PHE694  ASN695  SER759  ASP760  ASP761  ALA762  ILE779  LEU786  VAL792 
 PHE793  MET794  SER795  GLU796  ALA797  LYS798  CYS799  TRP800  GLU811  SER814 

> <Gold.Protein.RotatedAtoms>
  150.7280  134.5521  159.5799 H   0  0  0  0  0  0  0  0  0  0  0  0  # atno 6907 bound_to 6896
  152.3006  134.7612  160.0367 H   0  0  0  0  0  0  0  0  0  0  0  0  # atno 6908 bound_to 6896
  151.8194  133.3357  159.3616 H   0  0  0  0  0  0  0  0  0  0  0  0  # atno 6909 bound_to 6896
  146.0066  139.4497  142.9982 H   0  0  0  0  0  0  0  0  0  0  0  0  # atno 7974 bound_to 7965
  155.9494  140.1123  157.0989 H   0  0  0  0  0  0  0  0  0  0  0  0  # atno 8008 bound_to 7997
  154.4106  140.1203  156.5099 H   0  0  0  0  0  0  0  0  0  0  0  0  # atno 8009 bound_to 7997
  155.6861  140.3473  155.4877 H   0  0  0  0  0  0  0  0  0  0  0  0  # atno 8010 bound_to 7997
  140.0215  144.5537  150.7578 H   0  0  0  0  0  0  0  0  0  0  0  0  # atno 10167 bound_to 10162
  157.4997  130.8429  149.8301 H   0  0  0  0  0  0  0  0  0  0  0  0  # atno 10718 bound_to 10713
  154.0852  135.6585  153.4844 H   0  0  0  0  0  0  0  0  0  0  0  0  # atno 10763 bound_to 10752
  153.0341  135.5189  154.7435 H   0  0  0  0  0  0  0  0  0  0  0  0  # atno 10764 bound_to 10752
  154.6542  135.3005  154.9917 H   0  0  0  0  0  0  0  0  0  0  0  0  # atno 10765 bound_to 10752
  140.1859  134.4046  155.8174 H   0  0  0  0  0  0  0  0  0  0  0  0  # atno 11005 bound_to 11000
  145.7406  141.0009  143.1303 LP  0  0  0  0  0  0  0  0  0  0  0  0  # atno 17320 bound_to 7965
  144.6938  139.9094  143.7462 LP  0  0  0  0  0  0  0  0  0  0  0  0  # atno 17321 bound_to 7965
  140.7340  143.2724  151.3847 LP  0  0  0  0  0  0  0  0  0  0  0  0  # atno 17342 bound_to 10162
  139.6136  144.1047  152.2324 LP  0  0  0  0  0  0  0  0  0  0  0  0  # atno 17343 bound_to 10162
  156.0222  130.3792  150.1929 LP  0  0  0  0  0  0  0  0  0  0  0  0  # atno 17370 bound_to 10713
  157.0119  130.9953  151.3363 LP  0  0  0  0  0  0  0  0  0  0  0  0  # atno 17371 bound_to 10713
  141.2225  133.7023  156.8011 LP  0  0  0  0  0  0  0  0  0  0  0  0  # atno 17394 bound_to 11000
  140.2215  134.8754  157.3381 LP  0  0  0  0  0  0  0  0  0  0  0  0  # atno 17395 bound_to 11000

$$$$
