AV-unprocessed.smi:604|AV-procd|sdf|3038|dock7
  -GOLD-   2262023553D 1   1.00000     0.00000
 Structure written by MMmdl.
 49 51  0  0  0  0  0  0  0  0  2 V2000
  150.4802  134.9236  157.7511 O   0  0  0  0  0  0  0  0  0  0  0  0
  150.2493  133.7294  157.5643 C   0  0  0  0  0  0  0  0  0  0  0  0
  150.0033  132.8242  158.5269 N   0  0  0  0  0  0  0  0  0  0  0  0
  149.9429  133.0249  159.9327 C   0  0  0  0  0  0  0  0  0  0  0  0
  149.8804  131.9791  160.8855 C   0  0  0  0  0  0  0  0  0  0  0  0
  149.8412  132.3082  162.2543 C   0  0  0  0  0  0  0  0  0  0  0  0
  149.8728  133.6675  162.6211 C   0  0  0  0  0  0  0  0  0  0  0  0
  149.9467  134.6738  161.7248 N   0  0  0  0  0  0  0  0  0  0  0  0
  149.9856  134.3508  160.4144 C   0  0  0  0  0  0  0  0  0  0  0  0
  150.2384  133.1620  156.3492 N   0  0  0  0  0  0  0  0  0  0  0  0
  150.4878  133.8612  155.0885 C   0  0  2  0  0  0  0  0  0  0  0  0
  149.7761  135.2255  155.0776 C   0  0  0  0  0  0  0  0  0  0  0  0
  148.2479  135.0842  154.9426 C   0  0  0  0  0  0  0  0  0  0  0  0
  147.8818  134.2837  153.7451 N   0  3  2  0  0  0  0  0  0  0  0  0
  146.4160  134.2443  153.5021 C   0  0  0  0  0  0  0  0  0  0  0  0
  146.0321  133.1964  152.4390 C   0  0  0  0  0  0  0  0  0  0  0  0
  146.7617  133.3971  151.1077 C   0  0  0  0  0  0  0  0  0  0  0  0
  145.9414  132.6142  150.0775 C   0  0  0  0  0  0  0  0  0  0  0  0
  144.5238  132.5009  150.6563 C   0  0  0  0  0  0  0  0  0  0  0  0
  144.5586  133.2015  152.0185 C   0  0  0  0  0  0  0  0  0  0  0  0
  148.5014  132.9332  153.7849 C   0  0  0  0  0  0  0  0  0  0  0  0
  150.0340  133.0312  153.8710 C   0  0  0  0  0  0  0  0  0  0  0  0
  149.9102  131.8657  158.2242 H   0  0  0  0  0  0  0  0  0  0  0  0
  149.8762  130.9393  160.5987 H   0  0  0  0  0  0  0  0  0  0  0  0
  149.7925  131.5349  163.0068 H   0  0  0  0  0  0  0  0  0  0  0  0
  149.8442  133.9537  163.6621 H   0  0  0  0  0  0  0  0  0  0  0  0
  150.0472  135.1816  159.7265 H   0  0  0  0  0  0  0  0  0  0  0  0
  150.0359  132.1746  156.2916 H   0  0  0  0  0  0  0  0  0  0  0  0
  151.5622  134.0396  155.0129 H   0  0  0  0  0  0  0  0  0  0  0  0
  150.0231  135.7888  155.9786 H   0  0  0  0  0  0  0  0  0  0  0  0
  150.1518  135.8160  154.2409 H   0  0  0  0  0  0  0  0  0  0  0  0
  147.8274  134.6191  155.8357 H   0  0  0  0  0  0  0  0  0  0  0  0
  147.8071  136.0792  154.8661 H   0  0  0  0  0  0  0  0  0  0  0  0
  145.8720  134.0809  154.4339 H   0  0  0  0  0  0  0  0  0  0  0  0
  146.0827  135.2169  153.1365 H   0  0  0  0  0  0  0  0  0  0  0  0
  146.2843  132.2014  152.8103 H   0  0  0  0  0  0  0  0  0  0  0  0
  146.7613  134.4550  150.8404 H   0  0  0  0  0  0  0  0  0  0  0  0
  147.8009  133.0685  151.1458 H   0  0  0  0  0  0  0  0  0  0  0  0
  145.9483  133.1071  149.1048 H   0  0  0  0  0  0  0  0  0  0  0  0
  146.3630  131.6178  149.9404 H   0  0  0  0  0  0  0  0  0  0  0  0
  143.7782  132.9497  149.9995 H   0  0  0  0  0  0  0  0  0  0  0  0
  144.2588  131.4502  150.7792 H   0  0  0  0  0  0  0  0  0  0  0  0
  143.9130  132.7096  152.7467 H   0  0  0  0  0  0  0  0  0  0  0  0
  144.2086  134.2286  151.9032 H   0  0  0  0  0  0  0  0  0  0  0  0
  148.1111  132.3760  154.6379 H   0  0  0  0  0  0  0  0  0  0  0  0
  148.2312  132.3661  152.8956 H   0  0  0  0  0  0  0  0  0  0  0  0
  150.4115  133.4971  152.9597 H   0  0  0  0  0  0  0  0  0  0  0  0
  150.4717  132.0326  153.8987 H   0  0  0  0  0  0  0  0  0  0  0  0
  148.2835  134.7681  152.9548 H   0  0  0  0  0  0  0  0  0  0  0  0
  1  2  2  0  0  0  0
  2  3  1  0  0  0  0
  2 10  1  0  0  0  0
  3  4  1  0  0  0  0
  3 23  1  0  0  0  0
  4  9  1  0  0  0  0
  4  5  2  0  0  0  0
  5  6  1  0  0  0  0
  5 24  1  0  0  0  0
  6  7  2  0  0  0  0
  6 25  1  0  0  0  0
  7  8  1  0  0  0  0
  7 26  1  0  0  0  0
  8  9  2  0  0  0  0
  9 27  1  0  0  0  0
 10 11  1  0  0  0  0
 10 28  1  0  0  0  0
 11 22  1  0  0  0  0
 11 12  1  0  0  0  0
 11 29  1  0  0  0  0
 12 13  1  0  0  0  0
 12 30  1  0  0  0  0
 12 31  1  0  0  0  0
 13 14  1  0  0  0  0
 13 32  1  0  0  0  0
 13 33  1  0  0  0  0
 14 15  1  0  0  0  0
 14 21  1  0  0  0  0
 14 49  1  0  0  0  0
 15 16  1  0  0  0  0
 15 34  1  0  0  0  0
 15 35  1  0  0  0  0
 16 20  1  0  0  0  0
 16 17  1  0  0  0  0
 16 36  1  0  0  0  0
 17 18  1  0  0  0  0
 17 37  1  0  0  0  0
 17 38  1  0  0  0  0
 18 19  1  0  0  0  0
 18 39  1  0  0  0  0
 18 40  1  0  0  0  0
 19 20  1  0  0  0  0
 19 41  1  0  0  0  0
 19 42  1  0  0  0  0
 20 43  1  0  0  0  0
 20 44  1  0  0  0  0
 21 22  1  0  0  0  0
 21 45  1  0  0  0  0
 21 46  1  0  0  0  0
 22 47  1  0  0  0  0
 22 48  1  0  0  0  0
M  CHG  1  14   1
M  END
> <s_m_source_file>
AV-unprocessed.smi

> <i_m_source_file_index>
604

> <i_lp_mmshare_version>
43012

> <i_f3d_flags>
0

> <s_epik_input>
W2NIXTFuW2NIXVtjSF1bY0hdYzFbTkhdQyg9TylbTkhdW0NIXTJbQ0gyXVtDSDJdTihbQ0gyXVtDSDJdMilbQ0gyXVtDSF0zW0NIMl1bQ0gyXVtDSDJdW0NIMl0z

> <s_epik_cmdline>
J2VwaWtfcHl0aG9uJywgJy1waCcsICc3LjAnLCAnLXRuJywgJzgnLCAnLW1hJywgJzIwMCcsICctbWV0YWxfYmluZGluZycsICctaW1hZScsICc8aW5maWxlLm1hZT4nLCAnLW9tYWUnLCAnPG91dGZpbGUubWFlPic=

> <r_lp_tautomer_probability>
1

> <r_epik_Ionization_Penalty>
0.00608112

> <r_epik_Ionization_Penalty_Charging>
0.00207989

> <r_epik_Ionization_Penalty_Neutral>
0.00400122

> <r_epik_State_Penalty>
-0

> <r_epik_Charging_Adjusted_Penalty>
0.00207989

> <i_epik_Tot_Q>
1

> <i_epik_Tot_abs_Q>
1

> <r_epik_Metal_State_Penalty>
-0

> <b_epik_Metal_Only>
0

> <s_lp_Force_Field>
OPLS_2005

> <r_lp_Energy>
40.9588

> <b_lp_Chiralities_Consistent>
1

> <s_lp_Variant>
AV-unprocessed.smi:604-2

> <Gold.Version>
5.8.1

> <Gold.Id.Protein>
6NUR|6NUR_protein|mol2

> <Gold.PLP.Fitness>
49.1400

> <Gold.PLP.PLP>
-38.6712

> <Gold.PLP.part.hbond>
-3.0000

> <Gold.PLP.part.metal>
0.0000

> <Gold.PLP.part.buried>
-4.3068

> <Gold.PLP.part.nonpolar>
-31.0074

> <Gold.PLP.part.repulsive>
0.1492

> <Gold.PLP.ligand.clash>
0.0000

> <Gold.PLP.ligand.torsion>
0.3718

> <Gold.PLP.Chemscore.Hbond>
3.7296

> <Gold.PLP.Chemscore.CHOScore>
0.0000

> <Gold.PLP.Chemscore.Metal>
0.0000

> <Gold.Chemscore.Hbonds>
donor molecule, donor type, donor heavy atom, donor atom, acceptor molecule, acceptor atom, score
      L1  H    14    49       P1  7948  2.00

> <Gold.PLP.Chemscore.Internal.Correction>
0.0237

> <Gold.Rescore>
     Score         DG    S(hbond)    S(metal)    S(lipo)     H(rot)  DE(clash)    DE(int)     intcor
     16.37     -19.73       1.94        0.00      95.99       1.35       0.06       3.30       ----

> <Gold.Chemscore.Fitness>
16.3702

> <Gold.Chemscore.DG>
-19.7347

> <Gold.Chemscore.ZeroCoef>
-5.4800

> <Gold.Chemscore.Hbond>
1.9366

> <Gold.Chemscore.Metal>
0.0000

> <Gold.Chemscore.Lipo>
95.9914

> <Gold.Chemscore.Internal_Hbond>
0.0000

> <Gold.Chemscore.DEClash>
0.0605

> <Gold.Chemscore.DEInternal>
3.3040

> <Gold.Chemscore.Rot>
1.3455

> <Gold.Chemscore.Internal.Correction>
   9.000000E+99

> <Gold.Chemscore.Hbonds>
donor molecule, donor type, donor heavy atom, donor atom, acceptor molecule, acceptor atom, score
      L1  H    14    49       P1  7948  0.65

> <Gold.Chemscore.Hbond.Weighted>
-6.4681

> <Gold.Chemscore.Metal.Weighted>
-0.0000

> <Gold.Chemscore.Lipo.Weighted>
-11.2310

> <Gold.Chemscore.Internal_Hbond.Weighted>
0.0000

> <Gold.Chemscore.DEClash.Weighted>
0.0605

> <Gold.Chemscore.DEInternal.Weighted>
3.3040

> <Gold.Chemscore.Rot.Weighted>
3.4445

> <Gold.Chemscore.Internal.Correction.Weighted>
   9.000000E+99

> <Gold.Protein.RotatedTorsions>
[ 6907 6896 6895 6894 ] final  -99.47 input  -60.11 | X-H torsion
[ 7974 7965 7964 7962 ] final   33.88 input  175.53 | X-H torsion
[ 8008 7997 7996 7995 ] final -112.05 input   59.86 | X-H torsion
[ 10167 10162 10161 10158 ] final   26.24 input  -65.29 | X-H torsion
[ 10718 10713 10712 10709 ] final  151.52 input   66.30 | X-H torsion
[ 10763 10752 10751 10750 ] final  -33.50 input  -60.55 | X-H torsion
[ 11005 11000 10999 10996 ] final  146.22 input  -57.11 | X-H torsion

> <Gold.Protein.ActiveResidues>
 VAL166  LYS551  ARG553  GLY616  TRP617  ASP618  TYR619  PRO620  LYS621  CYS622 
 ASP623  PHE694  ASN695  SER759  ASP760  ASP761  ALA762  ILE779  LEU786  VAL792 
 PHE793  MET794  SER795  GLU796  ALA797  LYS798  CYS799  TRP800  GLU811  SER814 

> <Gold.Protein.RotatedAtoms>
  150.7081  134.1035  159.3974 H   0  0  0  0  0  0  0  0  0  0  0  0  # atno 6907 bound_to 6896
  151.9022  135.0371  160.0516 H   0  0  0  0  0  0  0  0  0  0  0  0  # atno 6908 bound_to 6896
  152.2405  133.5096  159.5304 H   0  0  0  0  0  0  0  0  0  0  0  0  # atno 6909 bound_to 6896
  146.1391  139.6340  142.9175 H   0  0  0  0  0  0  0  0  0  0  0  0  # atno 7974 bound_to 7965
  154.9992  140.0394  157.2353 H   0  0  0  0  0  0  0  0  0  0  0  0  # atno 8008 bound_to 7997
  154.7559  140.2775  155.6231 H   0  0  0  0  0  0  0  0  0  0  0  0  # atno 8009 bound_to 7997
  156.2894  140.2638  156.2324 H   0  0  0  0  0  0  0  0  0  0  0  0  # atno 8010 bound_to 7997
  140.5039  144.0270  150.6344 H   0  0  0  0  0  0  0  0  0  0  0  0  # atno 10167 bound_to 10162
  157.2697  131.0814  151.1608 H   0  0  0  0  0  0  0  0  0  0  0  0  # atno 10718 bound_to 10713
  153.8312  135.6866  153.4814 H   0  0  0  0  0  0  0  0  0  0  0  0  # atno 10763 bound_to 10752
  153.1510  135.4618  154.9634 H   0  0  0  0  0  0  0  0  0  0  0  0  # atno 10764 bound_to 10752
  154.7886  135.3293  154.7775 H   0  0  0  0  0  0  0  0  0  0  0  0  # atno 10765 bound_to 10752
  140.0775  134.9116  157.1447 H   0  0  0  0  0  0  0  0  0  0  0  0  # atno 11005 bound_to 11000
  145.5089  141.0436  143.2499 LP  0  0  0  0  0  0  0  0  0  0  0  0  # atno 17320 bound_to 7965
  144.7772  139.6604  143.7170 LP  0  0  0  0  0  0  0  0  0  0  0  0  # atno 17321 bound_to 7965
  140.3574  143.2928  152.0421 LP  0  0  0  0  0  0  0  0  0  0  0  0  # atno 17342 bound_to 10162
  139.4879  144.6329  151.7035 LP  0  0  0  0  0  0  0  0  0  0  0  0  # atno 17343 bound_to 10162
  157.3085  130.6878  149.6203 LP  0  0  0  0  0  0  0  0  0  0  0  0  # atno 17370 bound_to 10713
  155.9663  130.4370  150.5159 LP  0  0  0  0  0  0  0  0  0  0  0  0  # atno 17371 bound_to 10713
  140.3536  134.2572  155.7195 LP  0  0  0  0  0  0  0  0  0  0  0  0  # atno 17394 bound_to 11000
  141.2035  133.7911  157.0337 LP  0  0  0  0  0  0  0  0  0  0  0  0  # atno 17395 bound_to 11000

$$$$
