AV-unprocessed.smi:3028|AV-procd|sdf|11523|dock9
  -GOLD-   2272016463D 1   1.00000     0.00000
 Structure written by MMmdl.
 47 48  0  0  0  0  0  0  0  0  1 V2000
  151.4863  143.2835  158.2796 C   0  0  0  0  0  0  0  0  0  0  0  0
  151.3069  142.1017  157.3707 C   0  0  0  0  0  0  0  0  0  0  0  0
  150.5851  142.0437  156.1454 C   0  0  0  0  0  0  0  0  0  0  0  0
  150.6200  140.8463  155.5861 N   0  0  0  0  0  0  0  0  0  0  0  0
  151.3694  140.0958  156.4256 N   0  0  0  0  0  0  0  0  0  0  0  0
  151.6151  138.6829  156.1449 C   0  0  2  0  0  0  0  0  0  0  0  0
  152.4127  138.4856  154.8417 C   0  0  0  0  0  0  0  0  0  0  0  0
  150.3368  137.8011  156.2485 C   0  0  1  0  0  0  0  0  0  0  0  0
  150.6242  136.3206  155.9454 C   0  0  0  0  0  0  0  0  0  0  0  0
  149.7427  137.8477  157.5818 N   0  0  0  0  0  0  0  0  0  0  0  0
  148.4073  137.2395  157.6491 C   0  0  0  0  0  0  0  0  0  0  0  0
  148.1379  136.5464  158.9941 C   0  0  0  0  0  0  0  0  0  0  0  0
  148.9251  135.7070  159.4300 O   0  0  0  0  0  0  0  0  0  0  0  0
  147.0359  136.8733  159.6898 N   0  0  0  0  0  0  0  0  0  0  0  0
  146.5973  136.3386  160.9771 C   0  0  0  0  0  0  0  0  0  0  0  0
  147.6773  136.6004  162.0373 C   0  0  0  0  0  0  0  0  0  0  0  0
  147.3160  135.9121  163.3636 C   0  0  0  0  0  0  0  0  0  0  0  0
  147.1290  134.5167  163.1521 O   0  0  0  0  0  0  0  0  0  0  0  0
  146.0541  134.2293  162.2638 C   0  0  0  0  0  0  0  0  0  0  0  0
  146.3421  134.8255  160.8763 C   0  0  0  0  0  0  0  0  0  0  0  0
  151.7890  140.8316  157.5150 C   0  0  0  0  0  0  0  0  0  0  0  0
  150.6847  144.0124  158.1580 H   0  0  0  0  0  0  0  0  0  0  0  0
  152.4249  143.8018  158.0827 H   0  0  0  0  0  0  0  0  0  0  0  0
  151.4947  142.9886  159.3290 H   0  0  0  0  0  0  0  0  0  0  0  0
  150.0380  142.8320  155.6495 H   0  0  0  0  0  0  0  0  0  0  0  0
  152.2802  138.3361  156.9371 H   0  0  0  0  0  0  0  0  0  0  0  0
  152.6255  137.4306  154.6683 H   0  0  0  0  0  0  0  0  0  0  0  0
  153.3681  139.0086  154.8900 H   0  0  0  0  0  0  0  0  0  0  0  0
  151.8792  138.8662  153.9710 H   0  0  0  0  0  0  0  0  0  0  0  0
  149.6131  138.1404  155.5052 H   0  0  0  0  0  0  0  0  0  0  0  0
  151.0808  136.2032  154.9625 H   0  0  0  0  0  0  0  0  0  0  0  0
  149.7044  135.7345  155.9487 H   0  0  0  0  0  0  0  0  0  0  0  0
  151.2978  135.8764  156.6791 H   0  0  0  0  0  0  0  0  0  0  0  0
  149.7370  138.8049  157.9072 H   0  0  0  0  0  0  0  0  0  0  0  0
  147.6475  138.0032  157.4928 H   0  0  0  0  0  0  0  0  0  0  0  0
  148.3074  136.5079  156.8466 H   0  0  0  0  0  0  0  0  0  0  0  0
  146.4374  137.5757  159.2797 H   0  0  0  0  0  0  0  0  0  0  0  0
  145.6834  136.8327  161.3081 H   0  0  0  0  0  0  0  0  0  0  0  0
  148.6399  136.2225  161.6893 H   0  0  0  0  0  0  0  0  0  0  0  0
  147.8011  137.6725  162.1943 H   0  0  0  0  0  0  0  0  0  0  0  0
  148.1174  136.0537  164.0886 H   0  0  0  0  0  0  0  0  0  0  0  0
  146.4146  136.3493  163.7963 H   0  0  0  0  0  0  0  0  0  0  0  0
  145.9396  133.1477  162.1894 H   0  0  0  0  0  0  0  0  0  0  0  0
  145.1194  134.6207  162.6683 H   0  0  0  0  0  0  0  0  0  0  0  0
  145.5091  134.6204  160.2036 H   0  0  0  0  0  0  0  0  0  0  0  0
  147.2157  134.3300  160.4498 H   0  0  0  0  0  0  0  0  0  0  0  0
  152.3906  140.3936  158.2979 H   0  0  0  0  0  0  0  0  0  0  0  0
  1  2  1  0  0  0  0
  1 22  1  0  0  0  0
  1 23  1  0  0  0  0
  1 24  1  0  0  0  0
  2 21  2  0  0  0  0
  2  3  1  0  0  0  0
  3  4  2  0  0  0  0
  3 25  1  0  0  0  0
  4  5  1  0  0  0  0
  5  6  1  0  0  0  0
  5 21  1  0  0  0  0
  6  7  1  0  0  0  0
  6  8  1  0  0  0  0
  6 26  1  0  0  0  0
  7 27  1  0  0  0  0
  7 28  1  0  0  0  0
  7 29  1  0  0  0  0
  8  9  1  0  0  0  0
  8 10  1  0  0  0  0
  8 30  1  0  0  0  0
  9 31  1  0  0  0  0
  9 32  1  0  0  0  0
  9 33  1  0  0  0  0
 10 11  1  0  0  0  0
 10 34  1  0  0  0  0
 11 12  1  0  0  0  0
 11 35  1  0  0  0  0
 11 36  1  0  0  0  0
 12 13  2  0  0  0  0
 12 14  1  0  0  0  0
 14 15  1  0  0  0  0
 14 37  1  0  0  0  0
 15 20  1  0  0  0  0
 15 16  1  0  0  0  0
 15 38  1  0  0  0  0
 16 17  1  0  0  0  0
 16 39  1  0  0  0  0
 16 40  1  0  0  0  0
 17 18  1  0  0  0  0
 17 41  1  0  0  0  0
 17 42  1  0  0  0  0
 18 19  1  0  0  0  0
 19 20  1  0  0  0  0
 19 43  1  0  0  0  0
 19 44  1  0  0  0  0
 20 45  1  0  0  0  0
 20 46  1  0  0  0  0
 21 47  1  0  0  0  0
M  END
> <s_m_source_file>
AV-unprocessed.smi

> <i_m_source_file_index>
3028

> <i_lp_mmshare_version>
43012

> <i_f3d_flags>
0

> <s_epik_input>
W0NIM11jMVtjSF1ubihbY0hdMSlbQ0BIXShbQ0gzXSlbQ0BIXShbQ0gzXSlbTkhdW0NIMl1DKD1PKVtOSF1bQ0hdMltDSDJdW0NIMl1PW0NIMl1bQ0gyXTI=

> <s_epik_cmdline>
J2VwaWtfcHl0aG9uJywgJy1waCcsICc3LjAnLCAnLXRuJywgJzgnLCAnLW1hJywgJzIwMCcsICctbWV0YWxfYmluZGluZycsICctaW1hZScsICc8aW5maWxlLm1hZT4nLCAnLW9tYWUnLCAnPG91dGZpbGUubWFlPic=

> <r_lp_tautomer_probability>
1

> <r_epik_Ionization_Penalty>
0.88617

> <r_epik_Ionization_Penalty_Charging>
0

> <r_epik_Ionization_Penalty_Neutral>
0.88617

> <r_epik_State_Penalty>
0.921066

> <r_epik_Charging_Adjusted_Penalty>
0.921066

> <i_epik_Tot_Q>
0

> <i_epik_Tot_abs_Q>
0

> <r_epik_Metal_State_Penalty>
0.917309

> <b_epik_Metal_Only>
0

> <s_lp_Force_Field>
OPLS_2005

> <r_lp_Energy>
19.7658

> <b_lp_Chiralities_Consistent>
1

> <s_lp_Variant>
AV-unprocessed.smi:3028-7

> <Gold.Version>
5.8.1

> <Gold.Id.Protein>
6NUR|6NUR_protein|mol2

> <Gold.PLP.Fitness>
43.8263

> <Gold.PLP.PLP>
-35.8006

> <Gold.PLP.part.hbond>
-2.0275

> <Gold.PLP.part.metal>
0.0000

> <Gold.PLP.part.buried>
-5.6254

> <Gold.PLP.part.nonpolar>
-27.9617

> <Gold.PLP.part.repulsive>
0.1730

> <Gold.PLP.ligand.clash>
0.0000

> <Gold.PLP.ligand.torsion>
0.4399

> <Gold.PLP.Chemscore.Hbond>
1.8882

> <Gold.PLP.Chemscore.CHOScore>
1.0000

> <Gold.PLP.Chemscore.Metal>
0.0000

> <Gold.Chemscore.Hbonds>
donor molecule, donor type, donor heavy atom, donor atom, acceptor molecule, acceptor atom, score
      P1  H  6896  6908       L1    13  0.80
      P1  H  7989  7998       L1     4  0.23
      L1  C     3    25       P1  8028  1.00

> <Gold.PLP.Chemscore.Internal.Correction>
0.2410

> <Gold.Rescore>
     Score         DG    S(hbond)    S(metal)    S(lipo)     H(rot)  DE(clash)    DE(int)     intcor
     15.39     -16.95       1.68        0.00      92.25       1.92       0.00       1.55       ----

> <Gold.Chemscore.Fitness>
15.3950

> <Gold.Chemscore.DG>
-16.9502

> <Gold.Chemscore.ZeroCoef>
-5.4800

> <Gold.Chemscore.Hbond>
1.6768

> <Gold.Chemscore.Metal>
0.0000

> <Gold.Chemscore.Lipo>
92.2505

> <Gold.Chemscore.Internal_Hbond>
0.0000

> <Gold.Chemscore.DEClash>
0.0048

> <Gold.Chemscore.DEInternal>
1.5505

> <Gold.Chemscore.Rot>
1.9233

> <Gold.Chemscore.Internal.Correction>
   9.000000E+99

> <Gold.Chemscore.Hbonds>
donor molecule, donor type, donor heavy atom, donor atom, acceptor molecule, acceptor atom, score
      P1  H  6896  6908       L1    13  0.76
      P1  H  7989  7998       L1     4  0.14

> <Gold.Chemscore.Hbond.Weighted>
-5.6005

> <Gold.Chemscore.Metal.Weighted>
-0.0000

> <Gold.Chemscore.Lipo.Weighted>
-10.7933

> <Gold.Chemscore.Internal_Hbond.Weighted>
0.0000

> <Gold.Chemscore.DEClash.Weighted>
0.0048

> <Gold.Chemscore.DEInternal.Weighted>
1.5505

> <Gold.Chemscore.Rot.Weighted>
4.9235

> <Gold.Chemscore.Internal.Correction.Weighted>
   9.000000E+99

> <Gold.Protein.RotatedTorsions>
[ 6907 6896 6895 6894 ] final  161.94 input  -60.11 | X-H torsion
[ 7974 7965 7964 7962 ] final  -33.26 input  175.53 | X-H torsion
[ 8008 7997 7996 7995 ] final   51.25 input   59.86 | X-H torsion
[ 10167 10162 10161 10158 ] final   79.07 input  -65.29 | X-H torsion
[ 10718 10713 10712 10709 ] final  114.42 input   66.30 | X-H torsion
[ 10763 10752 10751 10750 ] final  -53.70 input  -60.55 | X-H torsion
[ 11005 11000 10999 10996 ] final  -42.58 input  -57.11 | X-H torsion

> <Gold.Protein.ActiveResidues>
 VAL166  LYS551  ARG553  GLY616  TRP617  ASP618  TYR619  PRO620  LYS621  CYS622 
 ASP623  PHE694  ASN695  SER759  ASP760  ASP761  ALA762  ILE779  LEU786  VAL792 
 PHE793  MET794  SER795  GLU796  ALA797  LYS798  CYS799  TRP800  GLU811  SER814 

> <Gold.Protein.RotatedAtoms>
  151.9480  133.3657  159.3989 H   0  0  0  0  0  0  0  0  0  0  0  0  # atno 6907 bound_to 6896
  150.6986  134.4370  159.5284 H   0  0  0  0  0  0  0  0  0  0  0  0  # atno 6908 bound_to 6896
  152.2038  134.8564  160.0556 H   0  0  0  0  0  0  0  0  0  0  0  0  # atno 6909 bound_to 6896
  146.0924  140.5895  142.8858 H   0  0  0  0  0  0  0  0  0  0  0  0  # atno 7974 bound_to 7965
  155.4322  140.3451  155.4281 H   0  0  0  0  0  0  0  0  0  0  0  0  # atno 8008 bound_to 7997
  156.1330  140.1519  156.9068 H   0  0  0  0  0  0  0  0  0  0  0  0  # atno 8009 bound_to 7997
  154.4909  140.0841  156.7572 H   0  0  0  0  0  0  0  0  0  0  0  0  # atno 8010 bound_to 7997
  139.9643  144.5939  150.8044 H   0  0  0  0  0  0  0  0  0  0  0  0  # atno 10167 bound_to 10162
  157.6282  131.0998  150.7183 H   0  0  0  0  0  0  0  0  0  0  0  0  # atno 10718 bound_to 10713
  154.1631  135.6471  153.4991 H   0  0  0  0  0  0  0  0  0  0  0  0  # atno 10763 bound_to 10752
  153.0105  135.5365  154.6690 H   0  0  0  0  0  0  0  0  0  0  0  0  # atno 10764 bound_to 10752
  154.6009  135.2943  155.0508 H   0  0  0  0  0  0  0  0  0  0  0  0  # atno 10765 bound_to 10752
  141.0325  133.6814  156.2614 H   0  0  0  0  0  0  0  0  0  0  0  0  # atno 11005 bound_to 11000
  144.7370  140.4837  143.6896 LP  0  0  0  0  0  0  0  0  0  0  0  0  # atno 17320 bound_to 7965
  145.6012  139.1504  143.3128 LP  0  0  0  0  0  0  0  0  0  0  0  0  # atno 17321 bound_to 7965
  140.7543  143.3024  151.3046 LP  0  0  0  0  0  0  0  0  0  0  0  0  # atno 17342 bound_to 10162
  139.6530  144.0327  152.2640 LP  0  0  0  0  0  0  0  0  0  0  0  0  # atno 17343 bound_to 10162
  156.7528  130.4774  149.5453 LP  0  0  0  0  0  0  0  0  0  0  0  0  # atno 17370 bound_to 10713
  156.1467  130.6282  151.0541 LP  0  0  0  0  0  0  0  0  0  0  0  0  # atno 17371 bound_to 10713
  140.6381  134.5194  157.5567 LP  0  0  0  0  0  0  0  0  0  0  0  0  # atno 17394 bound_to 11000
  139.9218  134.8134  156.1189 LP  0  0  0  0  0  0  0  0  0  0  0  0  # atno 17395 bound_to 11000

$$$$
