AV-unprocessed.smi:288|AV-procd|sdf|2211|dock3
  -GOLD-   2262022 43D 1   1.00000     0.00000
 Structure written by MMmdl.
 33 34  0  0  0  0  0  0  0  0  1 V2000
  152.8496  140.0344  156.3027 O   0  0  0  0  0  0  0  0  0  0  0  0
  151.6442  140.0898  156.0549 C   0  0  0  0  0  0  0  0  0  0  0  0
  151.0421  139.4706  154.8802 C   0  0  0  0  0  0  0  0  0  0  0  0
  151.8219  138.8215  153.9991 F   0  0  0  0  0  0  0  0  0  0  0  0
  149.7144  139.5543  154.6487 C   0  0  0  0  0  0  0  0  0  0  0  0
  148.8324  140.2041  155.5000 N   0  0  0  0  0  0  0  0  0  0  0  0
  147.3515  140.3584  155.1861 C   0  0  2  0  0  0  0  0  0  0  0  0
  146.8944  139.6263  153.9171 C   0  0  0  0  0  0  0  0  0  0  0  0
  146.9197  140.7199  152.8527 C   0  0  0  0  0  0  0  0  0  0  0  0
  147.3674  141.9821  153.5976 C   0  0  0  0  0  0  0  0  0  0  0  0
  147.0859  141.7062  154.9629 O   0  0  0  0  0  0  0  0  0  0  0  0
  149.3411  140.8827  156.6306 C   0  0  0  0  0  0  0  0  0  0  0  0
  148.5955  141.5342  157.3664 O   0  0  0  0  0  0  0  0  0  0  0  0
  150.7298  140.7856  156.8844 N   0  0  0  0  0  0  0  0  0  0  0  0
  151.2416  141.4629  158.0667 C   0  0  0  0  0  0  0  0  0  0  0  0
  151.4343  142.9911  157.9102 C   0  0  1  0  0  0  0  0  0  0  0  0
  150.1511  143.5629  157.7525 O   0  0  0  0  0  0  0  0  0  0  0  0
  152.1576  143.6912  159.0808 C   0  0  0  0  0  0  0  0  0  0  0  0
  152.3242  144.9839  158.8003 F   0  0  0  0  0  0  0  0  0  0  0  0
  151.4647  143.5697  160.2134 F   0  0  0  0  0  0  0  0  0  0  0  0
  153.3685  143.1633  159.2563 F   0  0  0  0  0  0  0  0  0  0  0  0
  149.3502  139.0960  153.7431 H   0  0  0  0  0  0  0  0  0  0  0  0
  146.8276  139.9866  156.0683 H   0  0  0  0  0  0  0  0  0  0  0  0
  147.4990  138.7473  153.6951 H   0  0  0  0  0  0  0  0  0  0  0  0
  145.8686  139.2888  154.0700 H   0  0  0  0  0  0  0  0  0  0  0  0
  147.5940  140.4816  152.0295 H   0  0  0  0  0  0  0  0  0  0  0  0
  145.9213  140.8562  152.4357 H   0  0  0  0  0  0  0  0  0  0  0  0
  148.4373  142.1524  153.4696 H   0  0  0  0  0  0  0  0  0  0  0  0
  146.8433  142.8756  153.2579 H   0  0  0  0  0  0  0  0  0  0  0  0
  150.5339  141.2400  158.8680 H   0  0  0  0  0  0  0  0  0  0  0  0
  152.1653  140.9766  158.3817 H   0  0  0  0  0  0  0  0  0  0  0  0
  151.9804  143.2007  156.9902 H   0  0  0  0  0  0  0  0  0  0  0  0
  149.8269  143.3389  156.8937 H   0  0  0  0  0  0  0  0  0  0  0  0
  1  2  2  0  0  0  0
  2 14  1  0  0  0  0
  2  3  1  0  0  0  0
  3  4  1  0  0  0  0
  3  5  2  0  0  0  0
  5  6  1  0  0  0  0
  5 22  1  0  0  0  0
  6  7  1  0  0  0  0
  6 12  1  0  0  0  0
  7 11  1  0  0  0  0
  7  8  1  0  0  0  0
  7 23  1  0  0  0  0
  8  9  1  0  0  0  0
  8 24  1  0  0  0  0
  8 25  1  0  0  0  0
  9 10  1  0  0  0  0
  9 26  1  0  0  0  0
  9 27  1  0  0  0  0
 10 11  1  0  0  0  0
 10 28  1  0  0  0  0
 10 29  1  0  0  0  0
 12 13  2  0  0  0  0
 12 14  1  0  0  0  0
 14 15  1  0  0  0  0
 15 16  1  0  0  0  0
 15 30  1  0  0  0  0
 15 31  1  0  0  0  0
 16 17  1  0  0  0  0
 16 18  1  0  0  0  0
 16 32  1  0  0  0  0
 17 33  1  0  0  0  0
 18 19  1  0  0  0  0
 18 20  1  0  0  0  0
 18 21  1  0  0  0  0
M  END
> <s_m_source_file>
AV-unprocessed.smi

> <i_m_source_file_index>
288

> <i_lp_mmshare_version>
43012

> <i_f3d_flags>
0

> <s_epik_input>
TzFbQ0gyXVtDSDJdW0NIMl1bQ0BIXTFuKFtjSF1jKEYpYzI9TyljKD1PKW4yW0NIMl1bQ0BIXShbT0hdKUMoRikoRilG

> <s_epik_cmdline>
J2VwaWtfcHl0aG9uJywgJy1waCcsICc3LjAnLCAnLXRuJywgJzgnLCAnLW1hJywgJzIwMCcsICctbWV0YWxfYmluZGluZycsICctaW1hZScsICc8aW5maWxlLm1hZT4nLCAnLW9tYWUnLCAnPG91dGZpbGUubWFlPic=

> <r_lp_tautomer_probability>
1

> <r_epik_Ionization_Penalty>
0.000551119

> <r_epik_Ionization_Penalty_Charging>
2.51184e-08

> <r_epik_Ionization_Penalty_Neutral>
0.000551094

> <r_epik_State_Penalty>
0.000345115

> <r_epik_Charging_Adjusted_Penalty>
0.00034514

> <i_epik_Tot_Q>
0

> <i_epik_Tot_abs_Q>
0

> <r_epik_Metal_State_Penalty>
-0

> <b_epik_Metal_Only>
0

> <s_epik_Chemistry_Notes>
This compound contains an acetal/aminal-like group ( X-CH(R)-Y where X, Y are N, S, or O) that may be acid/base labile, releasing an aldehyde.

> <s_lp_Force_Field>
OPLS_2005

> <r_lp_Energy>
32.9649

> <b_lp_Chiralities_Consistent>
1

> <s_lp_Variant>
AV-unprocessed.smi:288-3

> <Gold.Version>
5.8.1

> <Gold.Id.Protein>
6NUR|6NUR_protein|mol2

> <Gold.PLP.Fitness>
43.8169

> <Gold.PLP.PLP>
-40.2681

> <Gold.PLP.part.hbond>
-2.1996

> <Gold.PLP.part.metal>
0.0000

> <Gold.PLP.part.buried>
-4.0227

> <Gold.PLP.part.nonpolar>
-32.2622

> <Gold.PLP.part.repulsive>
0.2521

> <Gold.PLP.ligand.clash>
0.0000

> <Gold.PLP.ligand.torsion>
0.3444

> <Gold.PLP.Chemscore.Hbond>
1.3900

> <Gold.PLP.Chemscore.CHOScore>
0.0000

> <Gold.PLP.Chemscore.Metal>
0.0000

> <Gold.Chemscore.Hbonds>
donor molecule, donor type, donor heavy atom, donor atom, acceptor molecule, acceptor atom, score
      L1  H    17    33       P1  8028  0.39
      P1  H  7997  8010       L1     1  0.89
      L1  C     5    22       P1  7957  0.41

> <Gold.PLP.Chemscore.Internal.Correction>
0.0676

> <Gold.Rescore>
     Score         DG    S(hbond)    S(metal)    S(lipo)     H(rot)  DE(clash)    DE(int)     intcor
      7.22      -9.11       0.99        0.00      59.03       2.57       0.16       1.73       ----

> <Gold.Chemscore.Fitness>
7.2205

> <Gold.Chemscore.DG>
-9.1125

> <Gold.Chemscore.ZeroCoef>
-5.4800

> <Gold.Chemscore.Hbond>
0.9862

> <Gold.Chemscore.Metal>
0.0000

> <Gold.Chemscore.Lipo>
59.0297

> <Gold.Chemscore.Internal_Hbond>
0.0000

> <Gold.Chemscore.DEClash>
0.1574

> <Gold.Chemscore.DEInternal>
1.7346

> <Gold.Chemscore.Rot>
2.5656

> <Gold.Chemscore.Internal.Correction>
   9.000000E+99

> <Gold.Chemscore.Hbonds>
donor molecule, donor type, donor heavy atom, donor atom, acceptor molecule, acceptor atom, score
      L1  H    17    33       P1  8028  0.38
      P1  H  7997  8010       L1     1  0.87

> <Gold.Chemscore.Hbond.Weighted>
-3.2939

> <Gold.Chemscore.Metal.Weighted>
-0.0000

> <Gold.Chemscore.Lipo.Weighted>
-6.9065

> <Gold.Chemscore.Internal_Hbond.Weighted>
0.0000

> <Gold.Chemscore.DEClash.Weighted>
0.1574

> <Gold.Chemscore.DEInternal.Weighted>
1.7346

> <Gold.Chemscore.Rot.Weighted>
6.5679

> <Gold.Chemscore.Internal.Correction.Weighted>
   9.000000E+99

> <Gold.Protein.RotatedTorsions>
[ 6907 6896 6895 6894 ] final  142.90 input  -60.11 | X-H torsion
[ 7974 7965 7964 7962 ] final  123.73 input  175.53 | X-H torsion
[ 8008 7997 7996 7995 ] final   81.96 input   59.86 | X-H torsion
[ 10167 10162 10161 10158 ] final  -78.62 input  -65.29 | X-H torsion
[ 10718 10713 10712 10709 ] final   96.87 input   66.30 | X-H torsion
[ 10763 10752 10751 10750 ] final  154.55 input  -60.55 | X-H torsion
[ 11005 11000 10999 10996 ] final   23.73 input  -57.11 | X-H torsion

> <Gold.Protein.ActiveResidues>
 VAL166  LYS551  ARG553  GLY616  TRP617  ASP618  TYR619  PRO620  LYS621  CYS622 
 ASP623  PHE694  ASN695  SER759  ASP760  ASP761  ALA762  ILE779  LEU786  VAL792 
 PHE793  MET794  SER795  GLU796  ALA797  LYS798  CYS799  TRP800  GLU811  SER814 

> <Gold.Protein.RotatedAtoms>
  152.2130  133.4925  159.5120 H   0  0  0  0  0  0  0  0  0  0  0  0  # atno 6907 bound_to 6896
  150.6994  134.1442  159.4125 H   0  0  0  0  0  0  0  0  0  0  0  0  # atno 6908 bound_to 6896
  151.9362  135.0234  160.0583 H   0  0  0  0  0  0  0  0  0  0  0  0  # atno 6909 bound_to 6896
  145.0925  139.3576  143.4853 H   0  0  0  0  0  0  0  0  0  0  0  0  # atno 7974 bound_to 7965
  155.9042  140.3431  155.6049 H   0  0  0  0  0  0  0  0  0  0  0  0  # atno 8008 bound_to 7997
  155.7464  140.0814  157.2241 H   0  0  0  0  0  0  0  0  0  0  0  0  # atno 8009 bound_to 7997
  154.4047  140.1561  156.2661 H   0  0  0  0  0  0  0  0  0  0  0  0  # atno 8010 bound_to 7997
  140.4666  143.2438  151.8269 H   0  0  0  0  0  0  0  0  0  0  0  0  # atno 10167 bound_to 10162
  157.6921  131.0592  150.4558 H   0  0  0  0  0  0  0  0  0  0  0  0  # atno 10718 bound_to 10713
  154.1541  135.2813  155.3127 H   0  0  0  0  0  0  0  0  0  0  0  0  # atno 10763 bound_to 10752
  154.6195  135.5472  153.7563 H   0  0  0  0  0  0  0  0  0  0  0  0  # atno 10764 bound_to 10752
  153.0212  135.6435  154.1684 H   0  0  0  0  0  0  0  0  0  0  0  0  # atno 10765 bound_to 10752
  140.3664  134.2070  155.7669 H   0  0  0  0  0  0  0  0  0  0  0  0  # atno 11005 bound_to 11000
  146.3531  140.0766  142.8620 LP  0  0  0  0  0  0  0  0  0  0  0  0  # atno 17320 bound_to 7965
  145.1049  140.9369  143.4691 LP  0  0  0  0  0  0  0  0  0  0  0  0  # atno 17321 bound_to 7965
  139.4813  144.4943  151.9144 LP  0  0  0  0  0  0  0  0  0  0  0  0  # atno 17342 bound_to 10162
  140.4028  144.2470  150.5892 LP  0  0  0  0  0  0  0  0  0  0  0  0  # atno 17343 bound_to 10162
  156.4906  130.4094  149.6409 LP  0  0  0  0  0  0  0  0  0  0  0  0  # atno 17370 bound_to 10713
  156.3421  130.7387  151.2334 LP  0  0  0  0  0  0  0  0  0  0  0  0  # atno 17371 bound_to 10713
  141.1968  133.8073  157.0655 LP  0  0  0  0  0  0  0  0  0  0  0  0  # atno 17394 bound_to 11000
  140.0586  134.9767  157.1265 LP  0  0  0  0  0  0  0  0  0  0  0  0  # atno 17395 bound_to 11000

$$$$
