AV-unprocessed.smi:2772|AV-procd|sdf|10667|dock1
  -GOLD-   2272015113D 1   1.00000     0.00000
 Structure written by MMmdl.
 55 57  0  0  0  0  0  0  0  0  3 V2000
  154.0175  141.7347  161.7046 C   0  0  0  0  0  0  0  0  0  0  0  0
  153.2550  141.5272  160.4129 C   0  0  0  0  0  0  0  0  0  0  0  0
  152.3834  142.5190  159.9185 C   0  0  0  0  0  0  0  0  0  0  0  0
  151.7044  142.2760  158.7089 C   0  0  0  0  0  0  0  0  0  0  0  0
  151.9281  141.0526  158.0320 C   0  0  0  0  0  0  0  0  0  0  0  0
  151.2970  140.6860  156.8124 N   0  0  0  0  0  0  0  0  0  0  0  0
  150.0283  140.9106  156.4289 C   0  0  0  0  0  0  0  0  0  0  0  0
  149.1731  141.4900  157.0981 O   0  0  0  0  0  0  0  0  0  0  0  0
  149.8013  140.4390  155.1941 N   0  0  0  0  0  0  0  0  0  0  0  0
  148.5295  140.5351  154.4823 C   0  0  2  0  0  0  0  0  0  0  0  0
  148.0972  142.0087  154.3731 C   0  0  0  0  0  0  0  0  0  0  0  0
  146.6965  142.1307  153.7406 C   0  0  0  0  0  0  0  0  0  0  0  0
  145.6716  141.3548  154.4975 N   0  3  2  0  0  0  0  0  0  0  0  0
  145.2792  141.9374  155.8290 C   0  0  2  0  0  0  0  0  0  0  0  0
  143.9603  141.3577  156.3966 C   0  0  0  0  0  0  0  0  0  0  0  0
  142.7401  141.7743  155.5544 C   0  0  0  0  0  0  0  0  0  0  0  0
  142.6288  143.2525  155.4756 N   0  3  2  0  0  0  0  0  0  0  0  0
  141.4210  143.6898  154.7427 C   0  0  0  0  0  0  0  0  0  0  0  0
  143.8671  143.8846  154.9553 C   0  0  0  0  0  0  0  0  0  0  0  0
  145.0920  143.4739  155.7938 C   0  0  0  0  0  0  0  0  0  0  0  0
  146.0659  139.9167  154.5169 C   0  0  0  0  0  0  0  0  0  0  0  0
  147.4365  139.7065  155.1881 C   0  0  0  0  0  0  0  0  0  0  0  0
  152.8074  140.1238  158.6276 C   0  0  0  0  0  0  0  0  0  0  0  0
  153.4630  140.3492  159.7862 N   0  0  0  0  0  0  0  0  0  0  0  0
  153.8317  142.7259  162.1190 H   0  0  0  0  0  0  0  0  0  0  0  0
  155.0895  141.6349  161.5325 H   0  0  0  0  0  0  0  0  0  0  0  0
  153.7169  140.9937  162.4455 H   0  0  0  0  0  0  0  0  0  0  0  0
  152.2334  143.4457  160.4528 H   0  0  0  0  0  0  0  0  0  0  0  0
  151.0221  143.0233  158.3351 H   0  0  0  0  0  0  0  0  0  0  0  0
  151.9035  140.2663  156.1231 H   0  0  0  0  0  0  0  0  0  0  0  0
  150.5614  139.9781  154.7154 H   0  0  0  0  0  0  0  0  0  0  0  0
  148.6621  140.1491  153.4695 H   0  0  0  0  0  0  0  0  0  0  0  0
  148.1059  142.4800  155.3563 H   0  0  0  0  0  0  0  0  0  0  0  0
  148.8185  142.5596  153.7683 H   0  0  0  0  0  0  0  0  0  0  0  0
  146.4164  143.1740  153.6156 H   0  0  0  0  0  0  0  0  0  0  0  0
  146.7352  141.7346  152.7245 H   0  0  0  0  0  0  0  0  0  0  0  0
  146.0712  141.7132  156.5429 H   0  0  0  0  0  0  0  0  0  0  0  0
  143.9980  140.2767  156.5195 H   0  0  0  0  0  0  0  0  0  0  0  0
  143.8212  141.7367  157.4104 H   0  0  0  0  0  0  0  0  0  0  0  0
  142.8088  141.3541  154.5499 H   0  0  0  0  0  0  0  0  0  0  0  0
  141.8330  141.3686  156.0043 H   0  0  0  0  0  0  0  0  0  0  0  0
  141.4605  143.3760  153.6988 H   0  0  0  0  0  0  0  0  0  0  0  0
  141.3256  144.7759  154.7703 H   0  0  0  0  0  0  0  0  0  0  0  0
  140.5225  143.2670  155.1934 H   0  0  0  0  0  0  0  0  0  0  0  0
  144.0123  143.6091  153.9095 H   0  0  0  0  0  0  0  0  0  0  0  0
  143.7563  144.9694  154.9826 H   0  0  0  0  0  0  0  0  0  0  0  0
  144.9436  143.8303  156.8142 H   0  0  0  0  0  0  0  0  0  0  0  0
  145.9845  143.9957  155.4551 H   0  0  0  0  0  0  0  0  0  0  0  0
  145.3061  139.2847  154.9707 H   0  0  0  0  0  0  0  0  0  0  0  0
  146.1249  139.5695  153.4844 H   0  0  0  0  0  0  0  0  0  0  0  0
  147.6936  138.6471  155.1570 H   0  0  0  0  0  0  0  0  0  0  0  0
  147.3817  139.9728  156.2442 H   0  0  0  0  0  0  0  0  0  0  0  0
  152.9990  139.1706  158.1570 H   0  0  0  0  0  0  0  0  0  0  0  0
  144.8334  141.3944  153.9355 H   0  0  0  0  0  0  0  0  0  0  0  0
  142.5178  143.5813  156.4247 H   0  0  0  0  0  0  0  0  0  0  0  0
  1  2  1  0  0  0  0
  1 25  1  0  0  0  0
  1 26  1  0  0  0  0
  1 27  1  0  0  0  0
  2 24  1  0  0  0  0
  2  3  2  0  0  0  0
  3  4  1  0  0  0  0
  3 28  1  0  0  0  0
  4  5  2  0  0  0  0
  4 29  1  0  0  0  0
  5  6  1  0  0  0  0
  5 23  1  0  0  0  0
  6  7  1  0  0  0  0
  6 30  1  0  0  0  0
  7  8  2  0  0  0  0
  7  9  1  0  0  0  0
  9 10  1  0  0  0  0
  9 31  1  0  0  0  0
 10 22  1  0  0  0  0
 10 11  1  0  0  0  0
 10 32  1  0  0  0  0
 11 12  1  0  0  0  0
 11 33  1  0  0  0  0
 11 34  1  0  0  0  0
 12 13  1  0  0  0  0
 12 35  1  0  0  0  0
 12 36  1  0  0  0  0
 13 14  1  0  0  0  0
 13 21  1  0  0  0  0
 13 54  1  0  0  0  0
 14 20  1  0  0  0  0
 14 15  1  0  0  0  0
 14 37  1  0  0  0  0
 15 16  1  0  0  0  0
 15 38  1  0  0  0  0
 15 39  1  0  0  0  0
 16 17  1  0  0  0  0
 16 40  1  0  0  0  0
 16 41  1  0  0  0  0
 17 18  1  0  0  0  0
 17 19  1  0  0  0  0
 17 55  1  0  0  0  0
 18 42  1  0  0  0  0
 18 43  1  0  0  0  0
 18 44  1  0  0  0  0
 19 20  1  0  0  0  0
 19 45  1  0  0  0  0
 19 46  1  0  0  0  0
 20 47  1  0  0  0  0
 20 48  1  0  0  0  0
 21 22  1  0  0  0  0
 21 49  1  0  0  0  0
 21 50  1  0  0  0  0
 22 51  1  0  0  0  0
 22 52  1  0  0  0  0
 23 24  2  0  0  0  0
 23 53  1  0  0  0  0
M  CHG  1  13   1
M  CHG  1  17   1
M  END
> <s_m_source_file>
AV-unprocessed.smi

> <i_m_source_file_index>
2772

> <i_lp_mmshare_version>
43012

> <i_f3d_flags>
0

> <s_epik_input>
W0NIM11jMVtjSF1bY0hdYyhbY0hdbjEpW05IXUMoPU8pW05IXVtDSF0yW0NIMl1bQ0gyXU4oW0NIMl1bQ0gyXTIpW0NIXTNbQ0gyXVtDSDJdTihbQ0gzXSlbQ0gyXVtDSDJdMw==

> <s_epik_cmdline>
J2VwaWtfcHl0aG9uJywgJy1waCcsICc3LjAnLCAnLXRuJywgJzgnLCAnLW1hJywgJzIwMCcsICctbWV0YWxfYmluZGluZycsICctaW1hZScsICc8aW5maWxlLm1hZT4nLCAnLW9tYWUnLCAnPG91dGZpbGUubWFlPic=

> <r_epik_Ionization_Penalty>
0.196786

> <r_epik_Ionization_Penalty_Charging>
0.180787

> <r_epik_Ionization_Penalty_Neutral>
0.0159988

> <r_epik_State_Penalty>
0.163322

> <r_epik_Charging_Adjusted_Penalty>
0.344109

> <i_epik_Tot_Q>
2

> <i_epik_Tot_abs_Q>
2

> <r_epik_Metal_State_Penalty>
0.163596

> <b_epik_Metal_Only>
0

> <s_lp_Force_Field>
OPLS_2005

> <r_lp_Energy>
49.9042

> <b_lp_Chiralities_Consistent>
1

> <s_lp_Variant>
AV-unprocessed.smi:2772-4

> <Gold.Version>
5.8.1

> <Gold.Id.Protein>
6NUR|6NUR_protein|mol2

> <Gold.PLP.Fitness>
38.0674

> <Gold.PLP.PLP>
-33.0535

> <Gold.PLP.part.hbond>
-1.0000

> <Gold.PLP.part.metal>
0.0000

> <Gold.PLP.part.buried>
-2.9262

> <Gold.PLP.part.nonpolar>
-29.2004

> <Gold.PLP.part.repulsive>
0.3077

> <Gold.PLP.ligand.clash>
0.0000

> <Gold.PLP.ligand.torsion>
0.4969

> <Gold.PLP.Chemscore.Hbond>
1.9840

> <Gold.PLP.Chemscore.CHOScore>
0.0000

> <Gold.PLP.Chemscore.Metal>
0.0000

> <Gold.Chemscore.Hbonds>
donor molecule, donor type, donor heavy atom, donor atom, acceptor molecule, acceptor atom, score
      L1  H    13    54       P1 10175  1.84

> <Gold.PLP.Chemscore.Internal.Correction>
0.0558

> <Gold.Rescore>
     Score         DG    S(hbond)    S(metal)    S(lipo)     H(rot)  DE(clash)    DE(int)     intcor
     14.03     -15.64       0.75        0.00      91.81       1.21       0.09       1.53       ----

> <Gold.Chemscore.Fitness>
14.0261

> <Gold.Chemscore.DG>
-15.6412

> <Gold.Chemscore.ZeroCoef>
-5.4800

> <Gold.Chemscore.Hbond>
0.7529

> <Gold.Chemscore.Metal>
0.0000

> <Gold.Chemscore.Lipo>
91.8122

> <Gold.Chemscore.Internal_Hbond>
0.0000

> <Gold.Chemscore.DEClash>
0.0858

> <Gold.Chemscore.DEInternal>
1.5293

> <Gold.Chemscore.Rot>
1.2092

> <Gold.Chemscore.Internal.Correction>
   9.000000E+99

> <Gold.Chemscore.Hbonds>
donor molecule, donor type, donor heavy atom, donor atom, acceptor molecule, acceptor atom, score
      L1  H    13    54       P1 10175  0.33

> <Gold.Chemscore.Hbond.Weighted>
-2.5146

> <Gold.Chemscore.Metal.Weighted>
-0.0000

> <Gold.Chemscore.Lipo.Weighted>
-10.7420

> <Gold.Chemscore.Internal_Hbond.Weighted>
0.0000

> <Gold.Chemscore.DEClash.Weighted>
0.0858

> <Gold.Chemscore.DEInternal.Weighted>
1.5293

> <Gold.Chemscore.Rot.Weighted>
3.0955

> <Gold.Chemscore.Internal.Correction.Weighted>
   9.000000E+99

> <Gold.Protein.RotatedTorsions>
[ 6907 6896 6895 6894 ] final  170.85 input  -60.11 | X-H torsion
[ 7974 7965 7964 7962 ] final -140.15 input  175.53 | X-H torsion
[ 8008 7997 7996 7995 ] final -127.35 input   59.86 | X-H torsion
[ 10167 10162 10161 10158 ] final  -96.24 input  -65.29 | X-H torsion
[ 10718 10713 10712 10709 ] final   32.76 input   66.30 | X-H torsion
[ 10763 10752 10751 10750 ] final  -89.01 input  -60.55 | X-H torsion
[ 11005 11000 10999 10996 ] final  -82.45 input  -57.11 | X-H torsion

> <Gold.Protein.ActiveResidues>
 VAL166  LYS551  ARG553  GLY616  TRP617  ASP618  TYR619  PRO620  LYS621  CYS622 
 ASP623  PHE694  ASN695  SER759  ASP760  ASP761  ALA762  ILE779  LEU786  VAL792 
 PHE793  MET794  SER795  GLU796  ALA797  LYS798  CYS799  TRP800  GLU811  SER814 

> <Gold.Protein.RotatedAtoms>
  151.8095  133.3380  159.3550 H   0  0  0  0  0  0  0  0  0  0  0  0  # atno 6907 bound_to 6896
  150.7331  134.5677  159.5884 H   0  0  0  0  0  0  0  0  0  0  0  0  # atno 6908 bound_to 6896
  152.3085  134.7527  160.0393 H   0  0  0  0  0  0  0  0  0  0  0  0  # atno 6909 bound_to 6896
  144.8620  140.6234  143.5322 H   0  0  0  0  0  0  0  0  0  0  0  0  # atno 7974 bound_to 7965
  155.2447  140.0430  157.2979 H   0  0  0  0  0  0  0  0  0  0  0  0  # atno 8008 bound_to 7997
  154.5806  140.2399  155.8029 H   0  0  0  0  0  0  0  0  0  0  0  0  # atno 8009 bound_to 7997
  156.2190  140.2976  155.9916 H   0  0  0  0  0  0  0  0  0  0  0  0  # atno 8010 bound_to 7997
  140.2959  143.3192  152.0298 H   0  0  0  0  0  0  0  0  0  0  0  0  # atno 10167 bound_to 10162
  157.2893  130.7294  149.6601 H   0  0  0  0  0  0  0  0  0  0  0  0  # atno 10718 bound_to 10713
  154.6507  135.5356  153.7898 H   0  0  0  0  0  0  0  0  0  0  0  0  # atno 10763 bound_to 10752
  153.0384  135.6481  154.1021 H   0  0  0  0  0  0  0  0  0  0  0  0  # atno 10764 bound_to 10752
  154.0939  135.2938  155.3246 H   0  0  0  0  0  0  0  0  0  0  0  0  # atno 10765 bound_to 10752
  141.1663  133.7245  156.8574 H   0  0  0  0  0  0  0  0  0  0  0  0  # atno 11005 bound_to 11000
  145.4294  139.1551  143.4030 LP  0  0  0  0  0  0  0  0  0  0  0  0  # atno 17320 bound_to 7965
  146.2867  140.4410  142.8755 LP  0  0  0  0  0  0  0  0  0  0  0  0  # atno 17321 bound_to 7965
  139.4926  144.6491  151.6714 LP  0  0  0  0  0  0  0  0  0  0  0  0  # atno 17342 bound_to 10162
  140.5693  144.0136  150.6208 LP  0  0  0  0  0  0  0  0  0  0  0  0  # atno 17343 bound_to 10162
  155.9666  130.4314  150.4917 LP  0  0  0  0  0  0  0  0  0  0  0  0  # atno 17370 bound_to 10713
  157.2876  131.0620  151.2155 LP  0  0  0  0  0  0  0  0  0  0  0  0  # atno 17371 bound_to 10713
  140.1873  134.8991  157.3019 LP  0  0  0  0  0  0  0  0  0  0  0  0  # atno 17394 bound_to 11000
  140.2329  134.3887  155.7514 LP  0  0  0  0  0  0  0  0  0  0  0  0  # atno 17395 bound_to 11000

$$$$
