AV-unprocessed.smi:692|AV-procd|sdf|3370|dock9
  -GOLD-   22720 0353D 1   1.00000     0.00000
 Structure written by MMmdl.
 36 37  0  0  0  0  0  0  0  0  2 V2000
  143.5394  134.1347  163.0611 C   0  0  0  0  0  0  0  0  0  0  0  0
  143.9805  135.5158  162.5641 C   0  0  0  0  0  0  0  0  0  0  0  0
  145.3731  135.5039  162.0113 C   0  0  0  0  0  0  0  0  0  0  0  0
  146.2498  134.4503  162.0096 C   0  0  0  0  0  0  0  0  0  0  0  0
  147.7617  134.8729  161.2579 S   0  0  0  0  0  0  0  0  0  0  0  0
  147.1491  136.5027  160.9683 C   0  0  0  0  0  0  0  0  0  0  0  0
  147.8324  137.4852  160.3593 N   0  5  0  0  0  0  0  0  0  0  0  0
  148.8110  137.1812  159.4767 C   0  0  0  0  0  0  0  0  0  0  0  0
  149.3173  136.0705  159.3009 O   0  0  0  0  0  0  0  0  0  0  0  0
  149.2264  138.2289  158.7504 N   0  0  0  0  0  0  0  0  0  0  0  0
  150.2632  138.2038  157.7224 C   0  0  2  0  0  0  0  0  0  0  0  0
  151.4057  139.1413  158.1165 C   0  0  0  0  0  0  0  0  0  0  0  0
  152.5227  139.0941  157.0673 C   0  0  0  0  0  0  0  0  0  0  0  0
  152.0165  139.2156  155.6219 C   0  0  0  0  0  0  0  0  0  0  0  0
  152.8248  139.5360  154.7496 O   0  0  0  0  0  0  0  0  0  0  0  0
  150.7189  138.9391  155.3457 N   0  0  0  0  0  0  0  0  0  0  0  0
  150.2243  139.0139  153.9699 C   0  0  0  0  0  0  0  0  0  0  0  0
  149.6942  138.6269  156.3540 C   0  0  0  0  0  0  0  0  0  0  0  0
  145.8968  136.6533  161.4135 N   0  0  0  0  0  0  0  0  0  0  0  0
  142.5256  134.1707  163.4601 H   0  0  0  0  0  0  0  0  0  0  0  0
  144.1973  133.7735  163.8520 H   0  0  0  0  0  0  0  0  0  0  0  0
  143.5535  133.4026  162.2530 H   0  0  0  0  0  0  0  0  0  0  0  0
  143.2811  135.8647  161.8036 H   0  0  0  0  0  0  0  0  0  0  0  0
  143.9105  136.2307  163.3843 H   0  0  0  0  0  0  0  0  0  0  0  0
  146.0996  133.4555  162.4006 H   0  0  0  0  0  0  0  0  0  0  0  0
  148.7837  139.1181  158.9296 H   0  0  0  0  0  0  0  0  0  0  0  0
  150.6657  137.1914  157.6472 H   0  0  0  0  0  0  0  0  0  0  0  0
  151.0363  140.1630  158.2179 H   0  0  0  0  0  0  0  0  0  0  0  0
  151.8074  138.8577  159.0901 H   0  0  0  0  0  0  0  0  0  0  0  0
  153.2499  139.8825  157.2650 H   0  0  0  0  0  0  0  0  0  0  0  0
  153.0595  138.1485  157.1499 H   0  0  0  0  0  0  0  0  0  0  0  0
  150.7107  138.2609  153.3484 H   0  0  0  0  0  0  0  0  0  0  0  0
  150.4253  139.9956  153.5383 H   0  0  0  0  0  0  0  0  0  0  0  0
  149.1478  138.8478  153.9098 H   0  0  0  0  0  0  0  0  0  0  0  0
  149.0373  137.8401  155.9800 H   0  0  0  0  0  0  0  0  0  0  0  0
  149.0746  139.5171  156.4739 H   0  0  0  0  0  0  0  0  0  0  0  0
  1  2  1  0  0  0  0
  1 20  1  0  0  0  0
  1 21  1  0  0  0  0
  1 22  1  0  0  0  0
  2  3  1  0  0  0  0
  2 23  1  0  0  0  0
  2 24  1  0  0  0  0
  3 19  1  0  0  0  0
  3  4  2  0  0  0  0
  4  5  1  0  0  0  0
  4 25  1  0  0  0  0
  5  6  1  0  0  0  0
  6  7  1  0  0  0  0
  6 19  2  0  0  0  0
  7  8  1  0  0  0  0
  8  9  2  0  0  0  0
  8 10  1  0  0  0  0
 10 11  1  0  0  0  0
 10 26  1  0  0  0  0
 11 18  1  0  0  0  0
 11 12  1  0  0  0  0
 11 27  1  0  0  0  0
 12 13  1  0  0  0  0
 12 28  1  0  0  0  0
 12 29  1  0  0  0  0
 13 14  1  0  0  0  0
 13 30  1  0  0  0  0
 13 31  1  0  0  0  0
 14 15  2  0  0  0  0
 14 16  1  0  0  0  0
 16 17  1  0  0  0  0
 16 18  1  0  0  0  0
 17 32  1  0  0  0  0
 17 33  1  0  0  0  0
 17 34  1  0  0  0  0
 18 35  1  0  0  0  0
 18 36  1  0  0  0  0
M  CHG  1   7  -1
M  END
> <s_m_source_file>
AV-unprocessed.smi

> <i_m_source_file_index>
692

> <i_lp_mmshare_version>
43012

> <i_f3d_flags>
0

> <s_epik_input>
W0NIM11bQ0gyXWMxW2NIXXNjKG4xKVtOSF1DKD1PKVtOSF1bQ0BASF0yW0NIMl1bQ0gyXUMoPU8pTihbQ0gzXSlbQ0gyXTI=

> <s_epik_cmdline>
J2VwaWtfcHl0aG9uJywgJy1waCcsICc3LjAnLCAnLXRuJywgJzgnLCAnLW1hJywgJzIwMCcsICctbWV0YWxfYmluZGluZycsICctaW1hZScsICc8aW5maWxlLm1hZT4nLCAnLW9tYWUnLCAnPG91dGZpbGUubWFlPic=

> <r_lp_tautomer_probability>
1

> <r_epik_Ionization_Penalty>
7.06728

> <r_epik_Ionization_Penalty_Charging>
5.78908

> <r_epik_Ionization_Penalty_Neutral>
1.2782

> <r_epik_State_Penalty>
5.78905

> <r_epik_Charging_Adjusted_Penalty>
11.5781

> <i_epik_Tot_Q>
-1

> <i_epik_Tot_abs_Q>
1

> <r_epik_Metal_State_Penalty>
1.76044

> <b_epik_Metal_Only>
1

> <s_lp_Force_Field>
OPLS_2005

> <r_lp_Energy>
4.23382

> <b_lp_Chiralities_Consistent>
1

> <s_lp_Variant>
AV-unprocessed.smi:692-3

> <Gold.Version>
5.8.1

> <Gold.Id.Protein>
6NUR|6NUR_protein|mol2

> <Gold.PLP.Fitness>
44.3986

> <Gold.PLP.PLP>
-29.3635

> <Gold.PLP.part.hbond>
-4.9492

> <Gold.PLP.part.metal>
0.0000

> <Gold.PLP.part.buried>
-1.3893

> <Gold.PLP.part.nonpolar>
-22.8616

> <Gold.PLP.part.repulsive>
0.2448

> <Gold.PLP.ligand.clash>
0.0000

> <Gold.PLP.ligand.torsion>
0.2094

> <Gold.PLP.Chemscore.Hbond>
5.1458

> <Gold.PLP.Chemscore.CHOScore>
0.0000

> <Gold.PLP.Chemscore.Metal>
0.0000

> <Gold.Chemscore.Hbonds>
donor molecule, donor type, donor heavy atom, donor atom, acceptor molecule, acceptor atom, score
      P1  H  6896  6909       L1     9  1.00
      P1  H  6931  6943       L1     7  0.90
      P1  H  6934  6947       L1     7  1.54
      P1  H  7989  7998       L1    15  0.34
      P1  H  7997  8008       L1    15  0.84

> <Gold.PLP.Chemscore.Internal.Correction>
0.0165

> <Gold.Rescore>
     Score         DG    S(hbond)    S(metal)    S(lipo)     H(rot)  DE(clash)    DE(int)     intcor
     16.64     -18.62       2.82        0.00      58.54       1.23       0.39       1.60       ----

> <Gold.Chemscore.Fitness>
16.6367

> <Gold.Chemscore.DG>
-18.6231

> <Gold.Chemscore.ZeroCoef>
-5.4800

> <Gold.Chemscore.Hbond>
2.8235

> <Gold.Chemscore.Metal>
0.0000

> <Gold.Chemscore.Lipo>
58.5375

> <Gold.Chemscore.Internal_Hbond>
0.0000

> <Gold.Chemscore.DEClash>
0.3857

> <Gold.Chemscore.DEInternal>
1.6007

> <Gold.Chemscore.Rot>
1.2251

> <Gold.Chemscore.Internal.Correction>
   9.000000E+99

> <Gold.Chemscore.Hbonds>
donor molecule, donor type, donor heavy atom, donor atom, acceptor molecule, acceptor atom, score
      P1  H  6896  6909       L1     9  0.93
      P1  H  6931  6943       L1     7  0.04
      P1  H  6934  6947       L1     7  0.54
      P1  H  7989  7998       L1    15  0.13
      P1  H  7997  8008       L1    15  0.29

> <Gold.Chemscore.Hbond.Weighted>
-9.4305

> <Gold.Chemscore.Metal.Weighted>
-0.0000

> <Gold.Chemscore.Lipo.Weighted>
-6.8489

> <Gold.Chemscore.Internal_Hbond.Weighted>
0.0000

> <Gold.Chemscore.DEClash.Weighted>
0.3857

> <Gold.Chemscore.DEInternal.Weighted>
1.6007

> <Gold.Chemscore.Rot.Weighted>
3.1362

> <Gold.Chemscore.Internal.Correction.Weighted>
   9.000000E+99

> <Gold.Protein.RotatedTorsions>
[ 6907 6896 6895 6894 ] final   49.96 input  -60.11 | X-H torsion
[ 7974 7965 7964 7962 ] final    5.16 input  175.53 | X-H torsion
[ 8008 7997 7996 7995 ] final  -16.04 input   59.86 | X-H torsion
[ 10167 10162 10161 10158 ] final   15.34 input  -65.29 | X-H torsion
[ 10718 10713 10712 10709 ] final   60.04 input   66.30 | X-H torsion
[ 10763 10752 10751 10750 ] final -147.94 input  -60.55 | X-H torsion
[ 11005 11000 10999 10996 ] final -179.94 input  -57.11 | X-H torsion

> <Gold.Protein.ActiveResidues>
 VAL166  LYS551  ARG553  GLY616  TRP617  ASP618  TYR619  PRO620  LYS621  CYS622 
 ASP623  PHE694  ASN695  SER759  ASP760  ASP761  ALA762  ILE779  LEU786  VAL792 
 PHE793  MET794  SER795  GLU796  ALA797  LYS798  CYS799  TRP800  GLU811  SER814 

> <Gold.Protein.RotatedAtoms>
  152.2965  134.7660  160.0366 H   0  0  0  0  0  0  0  0  0  0  0  0  # atno 6907 bound_to 6896
  151.8188  133.3386  159.3586 H   0  0  0  0  0  0  0  0  0  0  0  0  # atno 6908 bound_to 6896
  150.7254  134.5523  159.5845 H   0  0  0  0  0  0  0  0  0  0  0  0  # atno 6909 bound_to 6896
  146.2441  140.0426  142.8381 H   0  0  0  0  0  0  0  0  0  0  0  0  # atno 7974 bound_to 7965
  154.5084  140.2180  155.9205 H   0  0  0  0  0  0  0  0  0  0  0  0  # atno 8008 bound_to 7997
  156.1522  140.3159  155.8633 H   0  0  0  0  0  0  0  0  0  0  0  0  # atno 8009 bound_to 7997
  155.3917  140.0478  157.3031 H   0  0  0  0  0  0  0  0  0  0  0  0  # atno 8010 bound_to 7997
  140.5874  143.8863  150.6842 H   0  0  0  0  0  0  0  0  0  0  0  0  # atno 10167 bound_to 10162
  157.5722  130.8916  149.9286 H   0  0  0  0  0  0  0  0  0  0  0  0  # atno 10718 bound_to 10713
  154.8259  135.3347  154.6897 H   0  0  0  0  0  0  0  0  0  0  0  0  # atno 10763 bound_to 10752
  153.7523  135.6938  153.4947 H   0  0  0  0  0  0  0  0  0  0  0  0  # atno 10764 bound_to 10752
  153.2168  135.4463  155.0393 H   0  0  0  0  0  0  0  0  0  0  0  0  # atno 10765 bound_to 10752
  140.4130  134.6674  157.4624 H   0  0  0  0  0  0  0  0  0  0  0  0  # atno 11005 bound_to 11000
  145.1055  140.9373  143.4687 LP  0  0  0  0  0  0  0  0  0  0  0  0  # atno 17320 bound_to 7965
  145.0629  139.3091  143.5871 LP  0  0  0  0  0  0  0  0  0  0  0  0  # atno 17321 bound_to 7965
  140.2378  143.3687  152.1512 LP  0  0  0  0  0  0  0  0  0  0  0  0  # atno 17342 bound_to 10162
  139.5206  144.7035  151.5424 LP  0  0  0  0  0  0  0  0  0  0  0  0  # atno 17343 bound_to 10162
  156.0767  130.3678  150.0663 LP  0  0  0  0  0  0  0  0  0  0  0  0  # atno 17370 bound_to 10713
  156.8814  130.9558  151.3599 LP  0  0  0  0  0  0  0  0  0  0  0  0  # atno 17371 bound_to 10713
  140.0254  134.6485  155.9181 LP  0  0  0  0  0  0  0  0  0  0  0  0  # atno 17394 bound_to 11000
  141.1813  133.6547  156.5034 LP  0  0  0  0  0  0  0  0  0  0  0  0  # atno 17395 bound_to 11000

$$$$
