AV-unprocessed.smi:2557|AV-procd|sdf|10030|dock9
  -GOLD-   2272014 73D 1   1.00000     0.00000
 Structure written by MMmdl.
 38 40  0  0  0  0  0  0  0  0  2 V2000
  151.8137  137.0277  154.3004 O   0  5  0  0  0  0  0  0  0  0  0  0
  151.2175  137.3024  155.3686 C   0  0  0  0  0  0  0  0  0  0  0  0
  151.2719  138.4072  156.2232 C   0  0  0  0  0  0  0  0  0  0  0  0
  152.1432  139.5738  155.9248 C   0  0  0  0  0  0  0  0  0  0  0  0
  152.8727  139.6145  154.9347 O   0  0  0  0  0  0  0  0  0  0  0  0
  152.1251  140.6628  156.8100 N   0  0  0  0  0  0  0  0  0  0  0  0
  151.3649  140.6308  157.8626 C   0  0  0  0  0  0  0  0  0  0  0  0
  151.3208  141.7933  158.8578 C   0  0  0  0  0  0  0  0  0  0  0  0
  150.6950  143.0850  158.2778 C   0  0  0  0  0  0  0  0  0  0  0  0
  150.6357  144.2053  159.3287 C   0  0  0  0  0  0  0  0  0  0  0  0
  152.0284  144.4969  159.9074 C   0  0  0  0  0  0  0  0  0  0  0  0
  152.6609  143.2246  160.4913 C   0  0  0  0  0  0  0  0  0  0  0  0
  152.7169  142.0958  159.4482 C   0  0  0  0  0  0  0  0  0  0  0  0
  150.5430  139.5763  158.2169 N   0  0  0  0  0  0  0  0  0  0  0  0
  150.4985  138.4664  157.3817 N   0  0  0  0  0  0  0  0  0  0  0  0
  150.3588  136.1607  155.7395 C   0  0  0  0  0  0  0  0  0  0  0  0
  150.9038  134.8713  155.9270 C   0  0  0  0  0  0  0  0  0  0  0  0
  150.0402  133.8140  156.2738 C   0  0  0  0  0  0  0  0  0  0  0  0
  148.7084  133.9655  156.4357 N   0  0  0  0  0  0  0  0  0  0  0  0
  148.1888  135.1976  156.2479 C   0  0  0  0  0  0  0  0  0  0  0  0
  148.9648  136.3207  155.9003 C   0  0  0  0  0  0  0  0  0  0  0  0
  150.6788  141.4753  159.6813 H   0  0  0  0  0  0  0  0  0  0  0  0
  151.2748  143.4335  157.4215 H   0  0  0  0  0  0  0  0  0  0  0  0
  149.6880  142.8837  157.9097 H   0  0  0  0  0  0  0  0  0  0  0  0
  150.2215  145.1103  158.8837 H   0  0  0  0  0  0  0  0  0  0  0  0
  149.9577  143.9174  160.1332 H   0  0  0  0  0  0  0  0  0  0  0  0
  152.6727  144.9005  159.1253 H   0  0  0  0  0  0  0  0  0  0  0  0
  151.9579  145.2653  160.6777 H   0  0  0  0  0  0  0  0  0  0  0  0
  153.6650  143.4431  160.8559 H   0  0  0  0  0  0  0  0  0  0  0  0
  152.0839  142.8943  161.3560 H   0  0  0  0  0  0  0  0  0  0  0  0
  153.1395  141.2045  159.9136 H   0  0  0  0  0  0  0  0  0  0  0  0
  153.4018  142.3775  158.6467 H   0  0  0  0  0  0  0  0  0  0  0  0
  149.9599  139.5603  159.0409 H   0  0  0  0  0  0  0  0  0  0  0  0
  149.8826  137.7050  157.6290 H   0  0  0  0  0  0  0  0  0  0  0  0
  151.9634  134.6993  155.8061 H   0  0  0  0  0  0  0  0  0  0  0  0
  150.4303  132.8186  156.4255 H   0  0  0  0  0  0  0  0  0  0  0  0
  147.1213  135.2924  156.3797 H   0  0  0  0  0  0  0  0  0  0  0  0
  148.5021  137.2865  155.7609 H   0  0  0  0  0  0  0  0  0  0  0  0
  1  2  1  0  0  0  0
  2  3  2  0  0  0  0
  2 16  1  0  0  0  0
  3 15  1  0  0  0  0
  3  4  1  0  0  0  0
  4  5  2  0  0  0  0
  4  6  1  0  0  0  0
  6  7  2  0  0  0  0
  7  8  1  0  0  0  0
  7 14  1  0  0  0  0
  8 13  1  0  0  0  0
  8  9  1  0  0  0  0
  8 22  1  0  0  0  0
  9 10  1  0  0  0  0
  9 23  1  0  0  0  0
  9 24  1  0  0  0  0
 10 11  1  0  0  0  0
 10 25  1  0  0  0  0
 10 26  1  0  0  0  0
 11 12  1  0  0  0  0
 11 27  1  0  0  0  0
 11 28  1  0  0  0  0
 12 13  1  0  0  0  0
 12 29  1  0  0  0  0
 12 30  1  0  0  0  0
 13 31  1  0  0  0  0
 13 32  1  0  0  0  0
 14 15  1  0  0  0  0
 14 33  1  0  0  0  0
 15 34  1  0  0  0  0
 16 21  1  0  0  0  0
 16 17  2  0  0  0  0
 17 18  1  0  0  0  0
 17 35  1  0  0  0  0
 18 19  2  0  0  0  0
 18 36  1  0  0  0  0
 19 20  1  0  0  0  0
 20 21  2  0  0  0  0
 20 37  1  0  0  0  0
 21 38  1  0  0  0  0
M  CHG  1   1  -1
M  END
> <s_m_source_file>
AV-unprocessed.smi

> <i_m_source_file_index>
2557

> <i_lp_mmshare_version>
43012

> <i_f3d_flags>
0

> <s_epik_input>
W2NIXTFbY0hdbltjSF1bY0hdYzFDKD1PKUMyPUMoW09IXSlOPUMoW05IXVtOSF0yKVtDSF0zW0NIMl1bQ0gyXVtDSDJdW0NIMl1bQ0gyXTM=

> <s_epik_cmdline>
J2VwaWtfcHl0aG9uJywgJy1waCcsICc3LjAnLCAnLXRuJywgJzgnLCAnLW1hJywgJzIwMCcsICctbWV0YWxfYmluZGluZycsICctaW1hZScsICc8aW5maWxlLm1hZT4nLCAnLW9tYWUnLCAnPG91dGZpbGUubWFlPic=

> <r_epik_Ionization_Penalty>
0.904364

> <r_epik_Ionization_Penalty_Charging>
0.00179702

> <r_epik_Ionization_Penalty_Neutral>
0.902567

> <r_epik_State_Penalty>
2.26092

> <r_epik_Charging_Adjusted_Penalty>
2.26271

> <i_epik_Tot_Q>
-1

> <i_epik_Tot_abs_Q>
1

> <r_epik_Metal_State_Penalty>
1.86017

> <b_epik_Metal_Only>
0

> <s_epik_Chemistry_Notes>
This compound has an imine and may undergo hydrolysis.

> <s_lp_Force_Field>
OPLS_2005

> <r_lp_Energy>
33.3792

> <b_lp_Chiralities_Consistent>
1

> <s_lp_Variant>
AV-unprocessed.smi:2557-4

> <Gold.Version>
5.8.1

> <Gold.Id.Protein>
6NUR|6NUR_protein|mol2

> <Gold.PLP.Fitness>
40.8621

> <Gold.PLP.PLP>
-32.2351

> <Gold.PLP.part.hbond>
-3.5366

> <Gold.PLP.part.metal>
0.0000

> <Gold.PLP.part.buried>
-4.8137

> <Gold.PLP.part.nonpolar>
-25.8578

> <Gold.PLP.part.repulsive>
0.7120

> <Gold.PLP.ligand.clash>
0.0000

> <Gold.PLP.ligand.torsion>
1.1545

> <Gold.PLP.Chemscore.Hbond>
2.9257

> <Gold.PLP.Chemscore.CHOScore>
0.0000

> <Gold.PLP.Chemscore.Metal>
0.0000

> <Gold.Chemscore.Hbonds>
donor molecule, donor type, donor heavy atom, donor atom, acceptor molecule, acceptor atom, score
      P1  H  7989  7998       L1     5  0.23
      P1  H  7997  8008       L1     5  0.65
      P1  H 10752 10763       L1     1  2.00

> <Gold.PLP.Chemscore.Internal.Correction>
2.1590

> <Gold.Rescore>
     Score         DG    S(hbond)    S(metal)    S(lipo)     H(rot)  DE(clash)    DE(int)     intcor
     17.04     -18.39       1.80        0.00      80.84       1.00       0.00       1.35       ----

> <Gold.Chemscore.Fitness>
17.0401

> <Gold.Chemscore.DG>
-18.3922

> <Gold.Chemscore.ZeroCoef>
-5.4800

> <Gold.Chemscore.Hbond>
1.8004

> <Gold.Chemscore.Metal>
0.0000

> <Gold.Chemscore.Lipo>
80.8449

> <Gold.Chemscore.Internal_Hbond>
0.0000

> <Gold.Chemscore.DEClash>
0.0000

> <Gold.Chemscore.DEInternal>
1.3520

> <Gold.Chemscore.Rot>
1.0000

> <Gold.Chemscore.Internal.Correction>
   9.000000E+99

> <Gold.Chemscore.Hbonds>
donor molecule, donor type, donor heavy atom, donor atom, acceptor molecule, acceptor atom, score
      P1  H  7989  7998       L1     5  0.09
      P1  H  7997  8008       L1     5  0.06
      P1  H 10752 10763       L1     1  0.97

> <Gold.Chemscore.Hbond.Weighted>
-6.0133

> <Gold.Chemscore.Metal.Weighted>
-0.0000

> <Gold.Chemscore.Lipo.Weighted>
-9.4589

> <Gold.Chemscore.Internal_Hbond.Weighted>
0.0000

> <Gold.Chemscore.DEClash.Weighted>
0.0000

> <Gold.Chemscore.DEInternal.Weighted>
1.3520

> <Gold.Chemscore.Rot.Weighted>
2.5600

> <Gold.Chemscore.Internal.Correction.Weighted>
   9.000000E+99

> <Gold.Protein.RotatedTorsions>
[ 6907 6896 6895 6894 ] final   27.31 input  -60.11 | X-H torsion
[ 7974 7965 7964 7962 ] final -137.84 input  175.53 | X-H torsion
[ 8008 7997 7996 7995 ] final  -21.27 input   59.86 | X-H torsion
[ 10167 10162 10161 10158 ] final  -57.21 input  -65.29 | X-H torsion
[ 10718 10713 10712 10709 ] final   13.46 input   66.30 | X-H torsion
[ 10763 10752 10751 10750 ] final   33.33 input  -60.55 | X-H torsion
[ 11005 11000 10999 10996 ] final  -94.83 input  -57.11 | X-H torsion

> <Gold.Protein.ActiveResidues>
 VAL166  LYS551  ARG553  GLY616  TRP617  ASP618  TYR619  PRO620  LYS621  CYS622 
 ASP623  PHE694  ASN695  SER759  ASP760  ASP761  ALA762  ILE779  LEU786  VAL792 
 PHE793  MET794  SER795  GLU796  ALA797  LYS798  CYS799  TRP800  GLU811  SER814 

> <Gold.Protein.RotatedAtoms>
  152.0003  134.9932  160.0564 H   0  0  0  0  0  0  0  0  0  0  0  0  # atno 6907 bound_to 6896
  152.1525  133.4526  159.4829 H   0  0  0  0  0  0  0  0  0  0  0  0  # atno 6908 bound_to 6896
  150.6877  134.2089  159.4394 H   0  0  0  0  0  0  0  0  0  0  0  0  # atno 6909 bound_to 6896
  144.8808  140.6505  143.5207 H   0  0  0  0  0  0  0  0  0  0  0  0  # atno 7974 bound_to 7965
  154.4716  140.2039  155.9980 H   0  0  0  0  0  0  0  0  0  0  0  0  # atno 8008 bound_to 7997
  156.1021  140.3242  155.7926 H   0  0  0  0  0  0  0  0  0  0  0  0  # atno 8009 bound_to 7997
  155.4780  140.0536  157.2961 H   0  0  0  0  0  0  0  0  0  0  0  0  # atno 8010 bound_to 7997
  140.6272  143.2443  151.5334 H   0  0  0  0  0  0  0  0  0  0  0  0  # atno 10167 bound_to 10162
  157.0250  130.6170  149.5726 H   0  0  0  0  0  0  0  0  0  0  0  0  # atno 10718 bound_to 10713
  153.0217  135.6390  154.1495 H   0  0  0  0  0  0  0  0  0  0  0  0  # atno 10763 bound_to 10752
  154.1229  135.2845  155.3206 H   0  0  0  0  0  0  0  0  0  0  0  0  # atno 10764 bound_to 10752
  154.6251  135.5512  153.7680 H   0  0  0  0  0  0  0  0  0  0  0  0  # atno 10765 bound_to 10752
  141.1459  133.7983  157.0352 H   0  0  0  0  0  0  0  0  0  0  0  0  # atno 11005 bound_to 11000
  145.3957  139.1607  143.4205 LP  0  0  0  0  0  0  0  0  0  0  0  0  # atno 17320 bound_to 7965
  146.2993  140.4050  142.8710 LP  0  0  0  0  0  0  0  0  0  0  0  0  # atno 17321 bound_to 7965
  139.5490  144.2444  152.1496 LP  0  0  0  0  0  0  0  0  0  0  0  0  # atno 17342 bound_to 10162
  140.1678  144.4964  150.6596 LP  0  0  0  0  0  0  0  0  0  0  0  0  # atno 17343 bound_to 10162
  156.0089  130.5179  150.7923 LP  0  0  0  0  0  0  0  0  0  0  0  0  # atno 17370 bound_to 10713
  157.5221  131.0932  151.0065 LP  0  0  0  0  0  0  0  0  0  0  0  0  # atno 17371 bound_to 10713
  140.0728  134.9692  157.1496 LP  0  0  0  0  0  0  0  0  0  0  0  0  # atno 17394 bound_to 11000
  140.3686  134.2415  155.7180 LP  0  0  0  0  0  0  0  0  0  0  0  0  # atno 17395 bound_to 11000

$$$$
