AV-unprocessed.smi:34|AV-procd|sdf|231|dock6
  -GOLD-   2262015563D 1   1.00000     0.00000
 Structure written by MMmdl.
 54 58  0  0  0  0  0  0  0  0  2 V2000
  152.0422  139.5633  158.8570 O   0  0  0  0  0  0  0  0  0  0  0  0
  152.1698  140.4190  157.9788 C   0  0  0  0  0  0  0  0  0  0  0  0
  152.3459  140.2274  156.6470 N   0  5  0  0  0  0  0  0  0  0  0  0
  151.4822  139.4652  155.9595 C   0  0  0  0  0  0  0  0  0  0  0  0
  150.9038  139.9335  154.8239 N   0  0  0  0  0  0  0  0  0  0  0  0
  150.0340  139.1754  154.1457 C   0  0  0  0  0  0  0  0  0  0  0  0
  149.5991  137.9419  154.4227 N   0  0  0  0  0  0  0  0  0  0  0  0
  150.1668  137.4646  155.5685 C   0  0  0  0  0  0  0  0  0  0  0  0
  151.1063  138.1610  156.3826 C   0  0  0  0  0  0  0  0  0  0  0  0
  151.4793  137.3888  157.4719 N   0  0  0  0  0  0  0  0  0  0  0  0
  150.7634  136.2838  157.2756 C   0  0  0  0  0  0  0  0  0  0  0  0
  149.9678  136.2420  156.1856 N   0  0  0  0  0  0  0  0  0  0  0  0
  149.0561  135.1522  155.7157 C   0  0  2  0  0  0  0  0  0  0  0  0
  147.7396  135.5543  155.9631 O   0  0  0  0  0  0  0  0  0  0  0  0
  147.2198  134.8361  157.0785 C   0  0  1  0  0  0  0  0  0  0  0  0
  145.6871  134.8223  157.0529 C   0  0  0  0  0  0  0  0  0  0  0  0
  145.2139  134.6690  158.3808 O   0  0  0  0  0  0  0  0  0  0  0  0
  143.9273  134.3452  158.6087 C   0  0  0  0  0  0  0  0  0  0  0  0
  143.1210  134.0840  157.7140 O   0  0  0  0  0  0  0  0  0  0  0  0
  143.5813  134.3347  160.0597 C   0  0  0  0  0  0  0  0  0  0  0  0
  142.2434  134.0967  160.4521 C   0  0  0  0  0  0  0  0  0  0  0  0
  141.8866  134.0849  161.8146 C   0  0  0  0  0  0  0  0  0  0  0  0
  142.8632  134.3113  162.8017 C   0  0  0  0  0  0  0  0  0  0  0  0
  144.1975  134.5495  162.4244 C   0  0  0  0  0  0  0  0  0  0  0  0
  144.5564  134.5614  161.0625 C   0  0  0  0  0  0  0  0  0  0  0  0
  147.8774  133.4690  156.9104 C   0  0  1  0  0  0  0  0  0  0  0  0
  147.2736  132.8194  155.9102 F   0  0  0  0  0  0  0  0  0  0  0  0
  149.2950  133.8653  156.5230 C   0  0  1  0  0  0  0  0  0  0  0  0
  149.9223  132.8383  155.7826 O   0  0  0  0  0  0  0  0  0  0  0  0
  152.2052  141.8695  158.3783 C   0  0  0  0  0  0  0  0  0  0  0  0
  151.6799  142.8498  157.5059 C   0  0  0  0  0  0  0  0  0  0  0  0
  151.7259  144.2145  157.8512 C   0  0  0  0  0  0  0  0  0  0  0  0
  152.3077  144.6149  159.0685 C   0  0  0  0  0  0  0  0  0  0  0  0
  152.8471  143.6493  159.9388 C   0  0  0  0  0  0  0  0  0  0  0  0
  152.8003  142.2841  159.5949 C   0  0  0  0  0  0  0  0  0  0  0  0
  149.6251  139.6237  153.2526 H   0  0  0  0  0  0  0  0  0  0  0  0
  150.8263  135.4627  157.9719 H   0  0  0  0  0  0  0  0  0  0  0  0
  149.2285  135.0566  154.6429 H   0  0  0  0  0  0  0  0  0  0  0  0
  147.5680  135.2851  158.0090 H   0  0  0  0  0  0  0  0  0  0  0  0
  145.2981  135.7412  156.6119 H   0  0  0  0  0  0  0  0  0  0  0  0
  145.3330  133.9867  156.4478 H   0  0  0  0  0  0  0  0  0  0  0  0
  141.4757  133.9209  159.7124 H   0  0  0  0  0  0  0  0  0  0  0  0
  140.8616  133.9028  162.1022 H   0  0  0  0  0  0  0  0  0  0  0  0
  142.5890  134.3031  163.8463 H   0  0  0  0  0  0  0  0  0  0  0  0
  144.9481  134.7251  163.1807 H   0  0  0  0  0  0  0  0  0  0  0  0
  145.5891  134.7503  160.8083 H   0  0  0  0  0  0  0  0  0  0  0  0
  147.8261  132.8441  157.8024 H   0  0  0  0  0  0  0  0  0  0  0  0
  149.8776  134.0880  157.4187 H   0  0  0  0  0  0  0  0  0  0  0  0
  149.5674  132.8424  154.9066 H   0  0  0  0  0  0  0  0  0  0  0  0
  151.2318  142.5591  156.5667 H   0  0  0  0  0  0  0  0  0  0  0  0
  151.3159  144.9544  157.1801 H   0  0  0  0  0  0  0  0  0  0  0  0
  152.3439  145.6613  159.3326 H   0  0  0  0  0  0  0  0  0  0  0  0
  153.3001  143.9548  160.8704 H   0  0  0  0  0  0  0  0  0  0  0  0
  153.2292  141.5598  160.2723 H   0  0  0  0  0  0  0  0  0  0  0  0
  1  2  2  0  0  0  0
  2  3  1  0  0  0  0
  2 30  1  0  0  0  0
  3  4  1  0  0  0  0
  4  9  1  0  0  0  0
  4  5  2  0  0  0  0
  5  6  1  0  0  0  0
  6  7  2  0  0  0  0
  6 36  1  0  0  0  0
  7  8  1  0  0  0  0
  8 12  1  0  0  0  0
  8  9  2  0  0  0  0
  9 10  1  0  0  0  0
 10 11  2  0  0  0  0
 11 12  1  0  0  0  0
 11 37  1  0  0  0  0
 12 13  1  0  0  0  0
 13 28  1  0  0  0  0
 13 14  1  0  0  0  0
 13 38  1  0  0  0  0
 14 15  1  0  0  0  0
 15 16  1  0  0  0  0
 15 26  1  0  0  0  0
 15 39  1  0  0  0  0
 16 17  1  0  0  0  0
 16 40  1  0  0  0  0
 16 41  1  0  0  0  0
 17 18  1  0  0  0  0
 18 19  2  0  0  0  0
 18 20  1  0  0  0  0
 20 25  1  0  0  0  0
 20 21  2  0  0  0  0
 21 22  1  0  0  0  0
 21 42  1  0  0  0  0
 22 23  2  0  0  0  0
 22 43  1  0  0  0  0
 23 24  1  0  0  0  0
 23 44  1  0  0  0  0
 24 25  2  0  0  0  0
 24 45  1  0  0  0  0
 25 46  1  0  0  0  0
 26 27  1  0  0  0  0
 26 28  1  0  0  0  0
 26 47  1  0  0  0  0
 28 29  1  0  0  0  0
 28 48  1  0  0  0  0
 29 49  1  0  0  0  0
 30 35  1  0  0  0  0
 30 31  2  0  0  0  0
 31 32  1  0  0  0  0
 31 50  1  0  0  0  0
 32 33  2  0  0  0  0
 32 51  1  0  0  0  0
 33 34  1  0  0  0  0
 33 52  1  0  0  0  0
 34 35  2  0  0  0  0
 34 53  1  0  0  0  0
 35 54  1  0  0  0  0
M  CHG  1   3  -1
M  END
> <s_m_source_file>
AV-unprocessed.smi

> <i_m_source_file_index>
34

> <i_lp_mmshare_version>
43012

> <i_f3d_flags>
0

> <s_epik_input>
W2NIXTFbY0hdW2NIXVtjSF1bY0hdYzFDKD1PKVtOSF1jKG5bY0hdbjIpYyhjMjMpbltjSF1uM1tDQEBIXTRPW0NASF0oW0NAQEhdKEYpW0NASF00W09IXSlbQ0gyXU9DKD1PKWM1W2NIXVtjSF1bY0hdW2NIXVtjSF01

> <s_epik_cmdline>
J2VwaWtfcHl0aG9uJywgJy1waCcsICc3LjAnLCAnLXRuJywgJzgnLCAnLW1hJywgJzIwMCcsICctbWV0YWxfYmluZGluZycsICctaW1hZScsICc8aW5maWxlLm1hZT4nLCAnLW9tYWUnLCAnPG91dGZpbGUubWFlPic=

> <r_lp_tautomer_probability>
1

> <r_epik_Ionization_Penalty>
4.33227

> <r_epik_Ionization_Penalty_Charging>
3.41027

> <r_epik_Ionization_Penalty_Neutral>
0.922001

> <r_epik_State_Penalty>
3.41358

> <r_epik_Charging_Adjusted_Penalty>
6.82385

> <i_epik_Tot_Q>
-1

> <i_epik_Tot_abs_Q>
1

> <r_epik_Metal_State_Penalty>
0.496292

> <b_epik_Metal_Only>
1

> <s_epik_Chemistry_Notes>
This compound has an ester and may undergo hydrolysis at high or low pH. This compound contains an acetal/aminal-like group ( X-CH(R)-Y where X, Y are N, S, or O) that may be acid/base labile, releasing an aldehyde.

> <s_lp_Force_Field>
OPLS_2005

> <r_lp_Energy>
43.1366

> <b_lp_Chiralities_Consistent>
1

> <s_lp_Variant>
AV-unprocessed.smi:34-17

> <Gold.Version>
5.8.1

> <Gold.Id.Protein>
6NUR|6NUR_protein|mol2

> <Gold.PLP.Fitness>
53.6363

> <Gold.PLP.PLP>
-42.5609

> <Gold.PLP.part.hbond>
-3.0000

> <Gold.PLP.part.metal>
0.0000

> <Gold.PLP.part.buried>
-6.1131

> <Gold.PLP.part.nonpolar>
-33.9846

> <Gold.PLP.part.repulsive>
0.4098

> <Gold.PLP.ligand.clash>
0.0000

> <Gold.PLP.ligand.torsion>
2.0840

> <Gold.PLP.Chemscore.Hbond>
3.9913

> <Gold.PLP.Chemscore.CHOScore>
1.0000

> <Gold.PLP.Chemscore.Metal>
0.0000

> <Gold.Chemscore.Hbonds>
donor molecule, donor type, donor heavy atom, donor atom, acceptor molecule, acceptor atom, score
      P1  H  7989  7998       L1     5  1.00
      P1  H  7997  8010       L1     3  2.00
      P1  H 11000 11005       L1    19  1.00
      L1  C     6    36       P1  7957  1.00

> <Gold.PLP.Chemscore.Internal.Correction>
0.2697

> <Gold.Rescore>
     Score         DG    S(hbond)    S(metal)    S(lipo)     H(rot)  DE(clash)    DE(int)     intcor
     12.95     -17.39       1.82        0.00     108.71       2.69       0.08       4.36       ----

> <Gold.Chemscore.Fitness>
12.9530

> <Gold.Chemscore.DG>
-17.3937

> <Gold.Chemscore.ZeroCoef>
-5.4800

> <Gold.Chemscore.Hbond>
1.8241

> <Gold.Chemscore.Metal>
0.0000

> <Gold.Chemscore.Lipo>
108.7078

> <Gold.Chemscore.Internal_Hbond>
0.0000

> <Gold.Chemscore.DEClash>
0.0850

> <Gold.Chemscore.DEInternal>
4.3558

> <Gold.Chemscore.Rot>
2.6944

> <Gold.Chemscore.Internal.Correction>
   9.000000E+99

> <Gold.Chemscore.Hbonds>
donor molecule, donor type, donor heavy atom, donor atom, acceptor molecule, acceptor atom, score
      P1  H  7989  7998       L1     5  0.30
      P1  H  7997  8010       L1     3  0.47
      P1  H 11000 11005       L1    19  0.92

> <Gold.Chemscore.Hbond.Weighted>
-6.0925

> <Gold.Chemscore.Metal.Weighted>
-0.0000

> <Gold.Chemscore.Lipo.Weighted>
-12.7188

> <Gold.Chemscore.Internal_Hbond.Weighted>
0.0000

> <Gold.Chemscore.DEClash.Weighted>
0.0850

> <Gold.Chemscore.DEInternal.Weighted>
4.3558

> <Gold.Chemscore.Rot.Weighted>
6.8975

> <Gold.Chemscore.Internal.Correction.Weighted>
   9.000000E+99

> <Gold.Protein.RotatedTorsions>
[ 6907 6896 6895 6894 ] final   92.58 input  -60.11 | X-H torsion
[ 7974 7965 7964 7962 ] final   35.56 input  175.53 | X-H torsion
[ 8008 7997 7996 7995 ] final   73.67 input   59.86 | X-H torsion
[ 10167 10162 10161 10158 ] final  -43.66 input  -65.29 | X-H torsion
[ 10718 10713 10712 10709 ] final  -31.24 input   66.30 | X-H torsion
[ 10763 10752 10751 10750 ] final  114.55 input  -60.55 | X-H torsion
[ 11005 11000 10999 10996 ] final -107.67 input  -57.11 | X-H torsion

> <Gold.Protein.ActiveResidues>
 VAL166  LYS551  ARG553  GLY616  TRP617  ASP618  TYR619  PRO620  LYS621  CYS622 
 ASP623  PHE694  ASN695  SER759  ASP760  ASP761  ALA762  ILE779  LEU786  VAL792 
 PHE793  MET794  SER795  GLU796  ALA797  LYS798  CYS799  TRP800  GLU811  SER814 

> <Gold.Protein.RotatedAtoms>
  152.5453  134.1480  159.8506 H   0  0  0  0  0  0  0  0  0  0  0  0  # atno 6907 bound_to 6896
  151.1510  133.4900  159.2603 H   0  0  0  0  0  0  0  0  0  0  0  0  # atno 6908 bound_to 6896
  151.1472  135.0220  159.8707 H   0  0  0  0  0  0  0  0  0  0  0  0  # atno 6909 bound_to 6896
  146.1274  139.6127  142.9249 H   0  0  0  0  0  0  0  0  0  0  0  0  # atno 7974 bound_to 7965
  155.7870  140.3480  155.5328 H   0  0  0  0  0  0  0  0  0  0  0  0  # atno 8008 bound_to 7997
  155.8672  140.0980  157.1595 H   0  0  0  0  0  0  0  0  0  0  0  0  # atno 8009 bound_to 7997
  154.4015  140.1347  156.4020 H   0  0  0  0  0  0  0  0  0  0  0  0  # atno 8010 bound_to 7997
  140.6926  143.2971  151.3383 H   0  0  0  0  0  0  0  0  0  0  0  0  # atno 10167 bound_to 10162
  156.3897  130.4370  149.7404 H   0  0  0  0  0  0  0  0  0  0  0  0  # atno 10718 bound_to 10713
  153.5089  135.3622  155.2577 H   0  0  0  0  0  0  0  0  0  0  0  0  # atno 10763 bound_to 10752
  154.8743  135.4018  154.3392 H   0  0  0  0  0  0  0  0  0  0  0  0  # atno 10764 bound_to 10752
  153.4041  135.7076  153.6471 H   0  0  0  0  0  0  0  0  0  0  0  0  # atno 10765 bound_to 10752
  141.0942  133.9001  157.2004 H   0  0  0  0  0  0  0  0  0  0  0  0  # atno 11005 bound_to 11000
  145.5336  141.0425  143.2369 LP  0  0  0  0  0  0  0  0  0  0  0  0  # atno 17320 bound_to 7965
  144.7656  139.6854  143.7216 LP  0  0  0  0  0  0  0  0  0  0  0  0  # atno 17321 bound_to 7965
  139.6344  144.0658  152.2504 LP  0  0  0  0  0  0  0  0  0  0  0  0  # atno 17342 bound_to 10162
  140.0143  144.6200  150.7620 LP  0  0  0  0  0  0  0  0  0  0  0  0  # atno 17343 bound_to 10162
  156.4463  130.7885  151.2906 LP  0  0  0  0  0  0  0  0  0  0  0  0  # atno 17370 bound_to 10713
  157.7498  131.0109  150.3325 LP  0  0  0  0  0  0  0  0  0  0  0  0  # atno 17371 bound_to 10713
  139.9774  135.0109  156.9666 LP  0  0  0  0  0  0  0  0  0  0  0  0  # atno 17394 bound_to 11000
  140.5180  134.0935  155.7285 LP  0  0  0  0  0  0  0  0  0  0  0  0  # atno 17395 bound_to 11000

$$$$
