AV-unprocessed.smi:2919|AV-procd|sdf|11195|dock2
  -GOLD-   2272016 83D 1   1.00000     0.00000
 Structure written by MMmdl.
 34 36  0  0  0  0  0  0  0  0  1 V2000
  150.8466  137.2486  157.6289 C   0  0  0  0  0  0  0  0  0  0  0  0
  150.7787  138.7395  157.3490 C   0  0  0  0  0  0  0  0  0  0  0  0
  151.2921  139.5260  158.3201 N   0  0  0  0  0  0  0  0  0  0  0  0
  151.2891  140.8532  158.1874 N   0  0  0  0  0  0  0  0  0  0  0  0
  150.7767  141.4422  157.0798 C   0  0  0  0  0  0  0  0  0  0  0  0
  150.8102  142.8475  157.0128 N   0  0  0  0  0  0  0  0  0  0  0  0
  151.5667  143.6428  157.9744 C   0  0  1  0  0  0  0  0  0  0  0  0
  151.3603  145.1535  157.8017 C   0  0  0  0  0  0  0  0  0  0  0  0
  150.8744  145.5691  159.1957 C   0  0  2  0  0  0  0  0  0  0  0  0
  151.9796  145.4580  160.2548 C   0  0  0  0  0  0  0  0  0  0  0  0
  152.0892  143.9441  160.4340 C   0  0  0  0  0  0  0  0  0  0  0  0
  151.0656  143.4299  159.4129 C   0  0  1  0  0  0  0  0  0  0  0  0
  150.0797  144.4439  159.5250 O   0  0  0  0  0  0  0  0  0  0  0  0
  150.2199  140.6775  156.0219 C   0  0  0  0  0  0  0  0  0  0  0  0
  149.6674  141.3173  154.8293 C   0  0  0  0  0  0  0  0  0  0  0  0
  149.2303  141.8237  153.8854 N   0  0  0  0  0  0  0  0  0  0  0  0
  150.2198  139.2665  156.1595 C   0  0  0  0  0  0  0  0  0  0  0  0
  149.6435  138.3643  155.0709 C   0  0  0  0  0  0  0  0  0  0  0  0
  149.8449  136.8192  157.6524 H   0  0  0  0  0  0  0  0  0  0  0  0
  151.3194  137.0429  158.5901 H   0  0  0  0  0  0  0  0  0  0  0  0
  151.4270  136.7415  156.8579 H   0  0  0  0  0  0  0  0  0  0  0  0
  150.4623  143.3096  156.1849 H   0  0  0  0  0  0  0  0  0  0  0  0
  152.6217  143.3729  157.9102 H   0  0  0  0  0  0  0  0  0  0  0  0
  152.2736  145.6708  157.5065 H   0  0  0  0  0  0  0  0  0  0  0  0
  150.5933  145.3730  157.0573 H   0  0  0  0  0  0  0  0  0  0  0  0
  150.3378  146.5179  159.2118 H   0  0  0  0  0  0  0  0  0  0  0  0
  152.9138  145.9150  159.9265 H   0  0  0  0  0  0  0  0  0  0  0  0
  151.6748  145.9322  161.1884 H   0  0  0  0  0  0  0  0  0  0  0  0
  153.0944  143.5657  160.2457 H   0  0  0  0  0  0  0  0  0  0  0  0
  151.8005  143.6576  161.4458 H   0  0  0  0  0  0  0  0  0  0  0  0
  150.7079  142.4215  159.6249 H   0  0  0  0  0  0  0  0  0  0  0  0
  150.1862  138.5090  154.1362 H   0  0  0  0  0  0  0  0  0  0  0  0
  148.5947  138.6065  154.8970 H   0  0  0  0  0  0  0  0  0  0  0  0
  149.6940  137.3049  155.3154 H   0  0  0  0  0  0  0  0  0  0  0  0
  1  2  1  0  0  0  0
  1 19  1  0  0  0  0
  1 20  1  0  0  0  0
  1 21  1  0  0  0  0
  2 17  1  0  0  0  0
  2  3  2  0  0  0  0
  3  4  1  0  0  0  0
  4  5  2  0  0  0  0
  5  6  1  0  0  0  0
  5 14  1  0  0  0  0
  6  7  1  0  0  0  0
  6 22  1  0  0  0  0
  7 12  1  0  0  0  0
  7  8  1  0  0  0  0
  7 23  1  0  0  0  0
  8  9  1  0  0  0  0
  8 24  1  0  0  0  0
  8 25  1  0  0  0  0
  9 13  1  0  0  0  0
  9 10  1  0  0  0  0
  9 26  1  0  0  0  0
 10 11  1  0  0  0  0
 10 27  1  0  0  0  0
 10 28  1  0  0  0  0
 11 12  1  0  0  0  0
 11 29  1  0  0  0  0
 11 30  1  0  0  0  0
 12 13  1  0  0  0  0
 12 31  1  0  0  0  0
 14 15  1  0  0  0  0
 14 17  2  0  0  0  0
 15 16  3  0  0  0  0
 17 18  1  0  0  0  0
 18 32  1  0  0  0  0
 18 33  1  0  0  0  0
 18 34  1  0  0  0  0
M  END
> <s_m_source_file>
AV-unprocessed.smi

> <i_m_source_file_index>
2919

> <i_lp_mmshare_version>
43012

> <i_f3d_flags>
0

> <s_epik_input>
W0NIM11jMW5uYyhjKEMjTiljMVtDSDNdKVtOSF1bQ0BIXShbQ0gyXVtDQEBIXTIzKVtDQEBIXShPMylbQ0gyXVtDSDJdMg==

> <s_epik_cmdline>
J2VwaWtfcHl0aG9uJywgJy1waCcsICc3LjAnLCAnLXRuJywgJzgnLCAnLW1hJywgJzIwMCcsICctbWV0YWxfYmluZGluZycsICctaW1hZScsICc8aW5maWxlLm1hZT4nLCAnLW9tYWUnLCAnPG91dGZpbGUubWFlPic=

> <r_lp_tautomer_probability>
1

> <r_epik_Ionization_Penalty>
0.00143865

> <r_epik_Ionization_Penalty_Charging>
0

> <r_epik_Ionization_Penalty_Neutral>
0.00143865

> <r_epik_State_Penalty>
-0

> <r_epik_Charging_Adjusted_Penalty>
0

> <i_epik_Tot_Q>
0

> <i_epik_Tot_abs_Q>
0

> <r_epik_Metal_State_Penalty>
-0

> <b_epik_Metal_Only>
0

> <s_lp_Force_Field>
OPLS_2005

> <r_lp_Energy>
49.0135

> <b_lp_Chiralities_Consistent>
1

> <s_lp_Variant>
AV-unprocessed.smi:2919-4

> <Gold.Version>
5.8.1

> <Gold.Id.Protein>
6NUR|6NUR_protein|mol2

> <Gold.PLP.Fitness>
45.3345

> <Gold.PLP.PLP>
-38.5354

> <Gold.PLP.part.hbond>
-4.1754

> <Gold.PLP.part.metal>
0.0000

> <Gold.PLP.part.buried>
-1.1854

> <Gold.PLP.part.nonpolar>
-32.2308

> <Gold.PLP.part.repulsive>
0.5593

> <Gold.PLP.ligand.clash>
0.0000

> <Gold.PLP.ligand.torsion>
0.0395

> <Gold.PLP.Chemscore.Hbond>
2.2860

> <Gold.PLP.Chemscore.CHOScore>
0.0000

> <Gold.PLP.Chemscore.Metal>
0.0000

> <Gold.Chemscore.Hbonds>
donor molecule, donor type, donor heavy atom, donor atom, acceptor molecule, acceptor atom, score
      L1  H     6    22       P1  8028  0.50
      P1  H  8011  8017       L1    16  0.54

> <Gold.PLP.Chemscore.Internal.Correction>
0.0200

> <Gold.Rescore>
     Score         DG    S(hbond)    S(metal)    S(lipo)     H(rot)  DE(clash)    DE(int)     intcor
     17.12     -17.66       0.99        0.00      97.74       1.00       0.38       0.16       ----

> <Gold.Chemscore.Fitness>
17.1244

> <Gold.Chemscore.DG>
-17.6619

> <Gold.Chemscore.ZeroCoef>
-5.4800

> <Gold.Chemscore.Hbond>
0.9900

> <Gold.Chemscore.Metal>
0.0000

> <Gold.Chemscore.Lipo>
97.7392

> <Gold.Chemscore.Internal_Hbond>
0.0000

> <Gold.Chemscore.DEClash>
0.3768

> <Gold.Chemscore.DEInternal>
0.1608

> <Gold.Chemscore.Rot>
1.0000

> <Gold.Chemscore.Internal.Correction>
   9.000000E+99

> <Gold.Chemscore.Hbonds>
donor molecule, donor type, donor heavy atom, donor atom, acceptor molecule, acceptor atom, score
      L1  H     6    22       P1  8028  0.49
      P1  H  8011  8017       L1    16  0.54

> <Gold.Chemscore.Hbond.Weighted>
-3.3064

> <Gold.Chemscore.Metal.Weighted>
-0.0000

> <Gold.Chemscore.Lipo.Weighted>
-11.4355

> <Gold.Chemscore.Internal_Hbond.Weighted>
0.0000

> <Gold.Chemscore.DEClash.Weighted>
0.3768

> <Gold.Chemscore.DEInternal.Weighted>
0.1608

> <Gold.Chemscore.Rot.Weighted>
2.5600

> <Gold.Chemscore.Internal.Correction.Weighted>
   9.000000E+99

> <Gold.Protein.RotatedTorsions>
[ 6907 6896 6895 6894 ] final -106.30 input  -60.11 | X-H torsion
[ 7974 7965 7964 7962 ] final   48.34 input  175.53 | X-H torsion
[ 8008 7997 7996 7995 ] final  -55.62 input   59.86 | X-H torsion
[ 10167 10162 10161 10158 ] final -154.33 input  -65.29 | X-H torsion
[ 10718 10713 10712 10709 ] final  111.10 input   66.30 | X-H torsion
[ 10763 10752 10751 10750 ] final  -86.02 input  -60.55 | X-H torsion
[ 11005 11000 10999 10996 ] final  -28.82 input  -57.11 | X-H torsion

> <Gold.Protein.ActiveResidues>
 VAL166  LYS551  ARG553  GLY616  TRP617  ASP618  TYR619  PRO620  LYS621  CYS622 
 ASP623  PHE694  ASN695  SER759  ASP760  ASP761  ALA762  ILE779  LEU786  VAL792 
 PHE793  MET794  SER795  GLU796  ALA797  LYS798  CYS799  TRP800  GLU811  SER814 

> <Gold.Protein.RotatedAtoms>
  150.7382  133.9996  159.3633 H   0  0  0  0  0  0  0  0  0  0  0  0  # atno 6907 bound_to 6896
  151.7949  135.0723  160.0402 H   0  0  0  0  0  0  0  0  0  0  0  0  # atno 6908 bound_to 6896
  152.3181  133.5788  159.5762 H   0  0  0  0  0  0  0  0  0  0  0  0  # atno 6909 bound_to 6896
  146.0213  139.4655  142.9895 H   0  0  0  0  0  0  0  0  0  0  0  0  # atno 7974 bound_to 7965
  154.4201  140.1148  156.5506 H   0  0  0  0  0  0  0  0  0  0  0  0  # atno 8008 bound_to 7997
  155.6414  140.3496  155.4697 H   0  0  0  0  0  0  0  0  0  0  0  0  # atno 8009 bound_to 7997
  155.9868  140.1171  157.0666 H   0  0  0  0  0  0  0  0  0  0  0  0  # atno 8010 bound_to 7997
  139.7022  143.9244  152.2433 H   0  0  0  0  0  0  0  0  0  0  0  0  # atno 10167 bound_to 10162
  157.6461  131.0945  150.6700 H   0  0  0  0  0  0  0  0  0  0  0  0  # atno 10718 bound_to 10713
  154.6177  135.5464  153.7541 H   0  0  0  0  0  0  0  0  0  0  0  0  # atno 10763 bound_to 10752
  153.0224  135.6405  154.1486 H   0  0  0  0  0  0  0  0  0  0  0  0  # atno 10764 bound_to 10752
  154.1421  135.2907  155.3138 H   0  0  0  0  0  0  0  0  0  0  0  0  # atno 10765 bound_to 10752
  140.9242  133.7379  156.0843 H   0  0  0  0  0  0  0  0  0  0  0  0  # atno 11005 bound_to 11000
  145.7188  141.0082  143.1414 LP  0  0  0  0  0  0  0  0  0  0  0  0  # atno 17320 bound_to 7965
  144.6991  139.8845  143.7449 LP  0  0  0  0  0  0  0  0  0  0  0  0  # atno 17321 bound_to 7965
  139.9090  144.6867  150.8583 LP  0  0  0  0  0  0  0  0  0  0  0  0  # atno 17342 bound_to 10162
  140.7712  143.3457  151.2116 LP  0  0  0  0  0  0  0  0  0  0  0  0  # atno 17343 bound_to 10162
  156.7017  130.4625  149.5571 LP  0  0  0  0  0  0  0  0  0  0  0  0  # atno 17370 bound_to 10713
  156.1791  130.6487  151.0930 LP  0  0  0  0  0  0  0  0  0  0  0  0  # atno 17371 bound_to 10713
  140.7948  134.3576  157.5455 LP  0  0  0  0  0  0  0  0  0  0  0  0  # atno 17394 bound_to 11000
  139.8782  134.9162  156.3150 LP  0  0  0  0  0  0  0  0  0  0  0  0  # atno 17395 bound_to 11000

$$$$
