AV-unprocessed.smi:2105|AV-procd|sdf|8592|dock4
  -GOLD-   2272011323D 1   1.00000     0.00000
 Structure written by MMmdl.
 43 44  0  0  0  0  0  0  0  0  2 V2000
  149.0472  140.2413  154.3627 C   0  0  0  0  0  0  0  0  0  0  0  0
  150.2771  139.3772  154.6190 C   0  0  0  0  0  0  0  0  0  0  0  0
  151.3917  139.8939  154.6880 O   0  0  0  0  0  0  0  0  0  0  0  0
  150.0592  138.0608  154.7580 N   0  0  0  0  0  0  0  0  0  0  0  0
  151.0883  137.0600  155.0219 C   0  0  0  0  0  0  0  0  0  0  0  0
  150.4864  135.6922  155.4004 C   0  0  0  0  0  0  0  0  0  0  0  0
  149.5374  135.2125  154.4006 N   0  0  0  0  0  0  0  0  0  0  0  0
  149.0022  133.9839  154.3718 C   0  0  0  0  0  0  0  0  0  0  0  0
  149.2517  133.1125  155.2046 O   0  0  0  0  0  0  0  0  0  0  0  0
  148.1848  133.8321  153.3162 N   0  0  0  0  0  0  0  0  0  0  0  0
  147.4558  132.6709  152.9310 C   0  0  0  0  0  0  0  0  0  0  0  0
  147.7816  131.3920  153.4522 C   0  0  0  0  0  0  0  0  0  0  0  0
  147.0584  130.2580  153.0377 C   0  0  0  0  0  0  0  0  0  0  0  0
  146.0150  130.4188  152.1106 C   0  0  0  0  0  0  0  0  0  0  0  0
  145.7149  131.6503  151.6492 N   0  3  0  0  0  0  0  0  0  0  0  0
  146.3638  132.7823  152.0210 C   0  0  0  0  0  0  0  0  0  0  0  0
  145.9263  134.0053  151.4626 N   0  0  0  0  0  0  0  0  0  0  0  0
  144.9641  134.0138  150.3667 C   0  0  0  0  0  0  0  0  0  0  0  0
  144.4824  135.4590  150.2749 C   0  0  0  0  0  0  0  0  0  0  0  0
  144.4809  135.8970  151.7365 C   0  0  0  0  0  0  0  0  0  0  0  0
  145.6642  135.1371  152.3459 C   0  0  0  0  0  0  0  0  0  0  0  0
  148.4850  139.8646  153.5079 H   0  0  0  0  0  0  0  0  0  0  0  0
  149.3347  141.2723  154.1537 H   0  0  0  0  0  0  0  0  0  0  0  0
  148.3940  140.2395  155.2356 H   0  0  0  0  0  0  0  0  0  0  0  0
  149.1082  137.7284  154.6884 H   0  0  0  0  0  0  0  0  0  0  0  0
  151.7127  136.9505  154.1338 H   0  0  0  0  0  0  0  0  0  0  0  0
  151.7481  137.4277  155.8081 H   0  0  0  0  0  0  0  0  0  0  0  0
  151.2688  134.9447  155.5347 H   0  0  0  0  0  0  0  0  0  0  0  0
  149.9793  135.7705  156.3634 H   0  0  0  0  0  0  0  0  0  0  0  0
  149.2789  135.8644  153.6745 H   0  0  0  0  0  0  0  0  0  0  0  0
  148.1591  134.6001  152.6618 H   0  0  0  0  0  0  0  0  0  0  0  0
  148.5757  131.2626  154.1718 H   0  0  0  0  0  0  0  0  0  0  0  0
  147.3026  129.2796  153.4254 H   0  0  0  0  0  0  0  0  0  0  0  0
  145.4092  129.6080  151.7329 H   0  0  0  0  0  0  0  0  0  0  0  0
  145.4182  133.6783  149.4339 H   0  0  0  0  0  0  0  0  0  0  0  0
  144.1203  133.3614  150.5947 H   0  0  0  0  0  0  0  0  0  0  0  0
  145.1978  136.0561  149.7074 H   0  0  0  0  0  0  0  0  0  0  0  0
  143.5065  135.5533  149.7979 H   0  0  0  0  0  0  0  0  0  0  0  0
  144.5629  136.9776  151.8579 H   0  0  0  0  0  0  0  0  0  0  0  0
  143.5537  135.5751  152.2127 H   0  0  0  0  0  0  0  0  0  0  0  0
  145.4478  134.8202  153.3672 H   0  0  0  0  0  0  0  0  0  0  0  0
  146.5464  135.7778  152.3667 H   0  0  0  0  0  0  0  0  0  0  0  0
  144.9455  131.7354  150.9849 H   0  0  0  0  0  0  0  0  0  0  0  0
  1  2  1  0  0  0  0
  1 22  1  0  0  0  0
  1 23  1  0  0  0  0
  1 24  1  0  0  0  0
  2  3  2  0  0  0  0
  2  4  1  0  0  0  0
  4  5  1  0  0  0  0
  4 25  1  0  0  0  0
  5  6  1  0  0  0  0
  5 26  1  0  0  0  0
  5 27  1  0  0  0  0
  6  7  1  0  0  0  0
  6 28  1  0  0  0  0
  6 29  1  0  0  0  0
  7  8  1  0  0  0  0
  7 30  1  0  0  0  0
  8  9  2  0  0  0  0
  8 10  1  0  0  0  0
 10 11  1  0  0  0  0
 10 31  1  0  0  0  0
 11 16  1  0  0  0  0
 11 12  2  0  0  0  0
 12 13  1  0  0  0  0
 12 32  1  0  0  0  0
 13 14  2  0  0  0  0
 13 33  1  0  0  0  0
 14 15  1  0  0  0  0
 14 34  1  0  0  0  0
 15 16  2  0  0  0  0
 15 43  1  0  0  0  0
 16 17  1  0  0  0  0
 17 21  1  0  0  0  0
 17 18  1  0  0  0  0
 18 19  1  0  0  0  0
 18 35  1  0  0  0  0
 18 36  1  0  0  0  0
 19 20  1  0  0  0  0
 19 37  1  0  0  0  0
 19 38  1  0  0  0  0
 20 21  1  0  0  0  0
 20 39  1  0  0  0  0
 20 40  1  0  0  0  0
 21 41  1  0  0  0  0
 21 42  1  0  0  0  0
M  CHG  1  15   1
M  END
> <s_m_source_file>
AV-unprocessed.smi

> <i_m_source_file_index>
2105

> <i_lp_mmshare_version>
43012

> <i_f3d_flags>
0

> <s_epik_input>
W0NIM11DKD1PKVtOSF1bQ0gyXVtDSDJdW05IXUMoPU8pW05IXWMxW2NIXVtjSF1bY0hdbmMxTjJbQ0gyXVtDSDJdW0NIMl1bQ0gyXTI=

> <s_epik_cmdline>
J2VwaWtfcHl0aG9uJywgJy1waCcsICc3LjAnLCAnLXRuJywgJzgnLCAnLW1hJywgJzIwMCcsICctbWV0YWxfYmluZGluZycsICctaW1hZScsICc8aW5maWxlLm1hZT4nLCAnLW9tYWUnLCAnPG91dGZpbGUubWFlPic=

> <r_lp_tautomer_probability>
0.999994

> <r_epik_Ionization_Penalty>
1.12691

> <r_epik_Ionization_Penalty_Charging>
1.12689

> <r_epik_Ionization_Penalty_Neutral>
1.95207e-05

> <r_epik_State_Penalty>
1.18624

> <r_epik_Charging_Adjusted_Penalty>
2.31313

> <i_epik_Tot_Q>
1

> <i_epik_Tot_abs_Q>
1

> <r_epik_Metal_State_Penalty>
1.26987

> <b_epik_Metal_Only>
0

> <s_lp_Force_Field>
OPLS_2005

> <r_lp_Energy>
38.5687

> <b_lp_Chiralities_Consistent>
1

> <s_lp_Variant>
AV-unprocessed.smi:2105-2

> <Gold.Version>
5.8.1

> <Gold.Id.Protein>
6NUR|6NUR_protein|mol2

> <Gold.PLP.Fitness>
43.4646

> <Gold.PLP.PLP>
-34.9426

> <Gold.PLP.part.hbond>
-3.0000

> <Gold.PLP.part.metal>
0.0000

> <Gold.PLP.part.buried>
-4.7002

> <Gold.PLP.part.nonpolar>
-27.7537

> <Gold.PLP.part.repulsive>
0.3280

> <Gold.PLP.ligand.clash>
0.0122

> <Gold.PLP.ligand.torsion>
0.3645

> <Gold.PLP.Chemscore.Hbond>
2.9600

> <Gold.PLP.Chemscore.CHOScore>
0.0000

> <Gold.PLP.Chemscore.Metal>
0.0000

> <Gold.Chemscore.Hbonds>
donor molecule, donor type, donor heavy atom, donor atom, acceptor molecule, acceptor atom, score
      L1  H     7    30       P1  7948  0.98
      L1  H    10    31       P1  7948  1.00
      P1  H  7989  7998       L1     3  1.00

> <Gold.PLP.Chemscore.Internal.Correction>
0.3831

> <Gold.Rescore>
     Score         DG    S(hbond)    S(metal)    S(lipo)     H(rot)  DE(clash)    DE(int)     intcor
     13.54     -15.97       2.42        0.00      63.74       1.98       0.02       2.40       ----

> <Gold.Chemscore.Fitness>
13.5436

> <Gold.Chemscore.DG>
-15.9670

> <Gold.Chemscore.ZeroCoef>
-5.4800

> <Gold.Chemscore.Hbond>
2.4216

> <Gold.Chemscore.Metal>
0.0000

> <Gold.Chemscore.Lipo>
63.7383

> <Gold.Chemscore.Internal_Hbond>
0.0000

> <Gold.Chemscore.DEClash>
0.0246

> <Gold.Chemscore.DEInternal>
2.3988

> <Gold.Chemscore.Rot>
1.9760

> <Gold.Chemscore.Internal.Correction>
   9.000000E+99

> <Gold.Chemscore.Hbonds>
donor molecule, donor type, donor heavy atom, donor atom, acceptor molecule, acceptor atom, score
      L1  H     7    30       P1  7948  0.65
      L1  H    10    31       P1  7948  0.42
      P1  H  7989  7998       L1     3  0.78

> <Gold.Chemscore.Hbond.Weighted>
-8.0882

> <Gold.Chemscore.Metal.Weighted>
-0.0000

> <Gold.Chemscore.Lipo.Weighted>
-7.4574

> <Gold.Chemscore.Internal_Hbond.Weighted>
0.0000

> <Gold.Chemscore.DEClash.Weighted>
0.0246

> <Gold.Chemscore.DEInternal.Weighted>
2.3988

> <Gold.Chemscore.Rot.Weighted>
5.0585

> <Gold.Chemscore.Internal.Correction.Weighted>
   9.000000E+99

> <Gold.Protein.RotatedTorsions>
[ 6907 6896 6895 6894 ] final   34.95 input  -60.11 | X-H torsion
[ 7974 7965 7964 7962 ] final  163.66 input  175.53 | X-H torsion
[ 8008 7997 7996 7995 ] final  -39.53 input   59.86 | X-H torsion
[ 10167 10162 10161 10158 ] final -164.60 input  -65.29 | X-H torsion
[ 10718 10713 10712 10709 ] final -118.79 input   66.30 | X-H torsion
[ 10763 10752 10751 10750 ] final  -38.40 input  -60.55 | X-H torsion
[ 11005 11000 10999 10996 ] final  106.21 input  -57.11 | X-H torsion

> <Gold.Protein.ActiveResidues>
 VAL166  LYS551  ARG553  GLY616  TRP617  ASP618  TYR619  PRO620  LYS621  CYS622 
 ASP623  PHE694  ASN695  SER759  ASP760  ASP761  ALA762  ILE779  LEU786  VAL792 
 PHE793  MET794  SER795  GLU796  ALA797  LYS798  CYS799  TRP800  GLU811  SER814 

> <Gold.Protein.RotatedAtoms>
  152.1095  134.9284  160.0566 H   0  0  0  0  0  0  0  0  0  0  0  0  # atno 6907 bound_to 6896
  152.0468  133.3996  159.4368 H   0  0  0  0  0  0  0  0  0  0  0  0  # atno 6908 bound_to 6896
  150.6843  134.3274  159.4856 H   0  0  0  0  0  0  0  0  0  0  0  0  # atno 6909 bound_to 6896
  144.7579  139.8215  143.6343 H   0  0  0  0  0  0  0  0  0  0  0  0  # atno 7974 bound_to 7965
  154.4022  140.1549  156.2879 H   0  0  0  0  0  0  0  0  0  0  0  0  # atno 8008 bound_to 7997
  155.8811  140.3444  155.5867 H   0  0  0  0  0  0  0  0  0  0  0  0  # atno 8009 bound_to 7997
  155.7666  140.0824  157.2119 H   0  0  0  0  0  0  0  0  0  0  0  0  # atno 8010 bound_to 7997
  139.6239  144.0570  152.1958 H   0  0  0  0  0  0  0  0  0  0  0  0  # atno 10167 bound_to 10162
  156.1132  130.6265  150.9335 H   0  0  0  0  0  0  0  0  0  0  0  0  # atno 10718 bound_to 10713
  153.9121  135.6791  153.4750 H   0  0  0  0  0  0  0  0  0  0  0  0  # atno 10763 bound_to 10752
  153.1073  135.4800  154.8970 H   0  0  0  0  0  0  0  0  0  0  0  0  # atno 10764 bound_to 10752
  154.7521  135.3187  154.8493 H   0  0  0  0  0  0  0  0  0  0  0  0  # atno 10765 bound_to 10752
  139.8811  134.9362  156.5632 H   0  0  0  0  0  0  0  0  0  0  0  0  # atno 11005 bound_to 11000
  146.1611  139.4726  142.9987 LP  0  0  0  0  0  0  0  0  0  0  0  0  # atno 17320 bound_to 7965
  145.6715  141.0215  143.1655 LP  0  0  0  0  0  0  0  0  0  0  0  0  # atno 17321 bound_to 7965
  140.0218  144.6147  150.7560 LP  0  0  0  0  0  0  0  0  0  0  0  0  # atno 17342 bound_to 10162
  140.7399  143.2798  151.3634 LP  0  0  0  0  0  0  0  0  0  0  0  0  # atno 17343 bound_to 10162
  157.6315  131.0920  150.8433 LP  0  0  0  0  0  0  0  0  0  0  0  0  # atno 17370 bound_to 10713
  156.8540  130.5090  149.5309 LP  0  0  0  0  0  0  0  0  0  0  0  0  # atno 17371 bound_to 10713
  140.8154  133.8396  155.8847 LP  0  0  0  0  0  0  0  0  0  0  0  0  # atno 17394 bound_to 11000
  140.9468  134.1830  157.4757 LP  0  0  0  0  0  0  0  0  0  0  0  0  # atno 17395 bound_to 11000

$$$$
