AV-unprocessed.smi:302|AV-procd|sdf|2273|dock3
  -GOLD-   2262022163D 1   1.00000     0.00000
 Structure written by MMmdl.
 44 45  0  0  0  0  0  0  0  0  1 V2000
  153.5759  136.6933  164.0571 C   0  0  0  0  0  0  0  0  0  0  0  0
  154.7000  135.7648  163.5925 C   0  0  0  0  0  0  0  0  0  0  0  0
  154.2573  135.0522  162.4432 O   0  0  0  0  0  0  0  0  0  0  0  0
  154.7834  135.5087  161.1990 C   0  0  1  0  0  0  0  0  0  0  0  0
  154.6803  134.3335  160.2052 C   0  0  0  0  0  0  0  0  0  0  0  0
  155.2405  133.0065  160.7400 C   0  0  0  0  0  0  0  0  0  0  0  0
  154.0042  136.7468  160.7209 C   0  0  0  0  0  0  0  0  0  0  0  0
  152.9297  136.6015  160.1386 O   0  0  0  0  0  0  0  0  0  0  0  0
  154.5806  137.9356  160.9783 N   0  0  0  0  0  0  0  0  0  0  0  0
  154.1143  139.2363  160.6472 C   0  0  0  0  0  0  0  0  0  0  0  0
  154.7855  140.4342  160.9896 C   0  0  0  0  0  0  0  0  0  0  0  0
  154.2270  141.6643  160.5931 C   0  0  0  0  0  0  0  0  0  0  0  0
  153.0228  141.6606  159.8599 C   0  0  0  0  0  0  0  0  0  0  0  0
  152.4605  142.8843  159.4704 N   0  0  0  0  0  0  0  0  0  0  0  0
  152.5002  143.8994  160.5155 C   0  0  0  0  0  0  0  0  0  0  0  0
  151.9867  145.2412  159.9652 C   0  0  0  0  0  0  0  0  0  0  0  0
  150.6794  145.0683  159.4252 O   0  0  0  0  0  0  0  0  0  0  0  0
  150.6624  144.1266  158.3557 C   0  0  0  0  0  0  0  0  0  0  0  0
  151.1394  142.7566  158.8677 C   0  0  0  0  0  0  0  0  0  0  0  0
  152.3839  140.5180  159.5141 N   0  0  0  0  0  0  0  0  0  0  0  0
  152.9248  139.3422  159.8972 C   0  0  0  0  0  0  0  0  0  0  0  0
  153.8729  137.2502  164.9460 H   0  0  0  0  0  0  0  0  0  0  0  0
  152.6761  136.1283  164.3012 H   0  0  0  0  0  0  0  0  0  0  0  0
  153.3189  137.4147  163.2810 H   0  0  0  0  0  0  0  0  0  0  0  0
  155.5904  136.3545  163.3725 H   0  0  0  0  0  0  0  0  0  0  0  0
  154.9551  135.0662  164.3905 H   0  0  0  0  0  0  0  0  0  0  0  0
  155.8387  135.7575  161.3286 H   0  0  0  0  0  0  0  0  0  0  0  0
  153.6310  134.1851  159.9483 H   0  0  0  0  0  0  0  0  0  0  0  0
  155.1813  134.5878  159.2699 H   0  0  0  0  0  0  0  0  0  0  0  0
  155.0893  132.2053  160.0166 H   0  0  0  0  0  0  0  0  0  0  0  0
  154.7441  132.7155  161.6658 H   0  0  0  0  0  0  0  0  0  0  0  0
  156.3107  133.0702  160.9378 H   0  0  0  0  0  0  0  0  0  0  0  0
  155.4991  137.8980  161.3962 H   0  0  0  0  0  0  0  0  0  0  0  0
  155.7168  140.4356  161.5338 H   0  0  0  0  0  0  0  0  0  0  0  0
  154.7181  142.5926  160.8464 H   0  0  0  0  0  0  0  0  0  0  0  0
  151.8835  143.5860  161.3594 H   0  0  0  0  0  0  0  0  0  0  0  0
  153.5206  144.0114  160.8842 H   0  0  0  0  0  0  0  0  0  0  0  0
  151.9470  145.9840  160.7618 H   0  0  0  0  0  0  0  0  0  0  0  0
  152.6595  145.6304  159.1993 H   0  0  0  0  0  0  0  0  0  0  0  0
  149.6477  144.0499  157.9649 H   0  0  0  0  0  0  0  0  0  0  0  0
  151.2936  144.4777  157.5374 H   0  0  0  0  0  0  0  0  0  0  0  0
  151.1755  142.0405  158.0458 H   0  0  0  0  0  0  0  0  0  0  0  0
  150.4320  142.3708  159.6032 H   0  0  0  0  0  0  0  0  0  0  0  0
  152.3836  138.4560  159.5992 H   0  0  0  0  0  0  0  0  0  0  0  0
  1  2  1  0  0  0  0
  1 22  1  0  0  0  0
  1 23  1  0  0  0  0
  1 24  1  0  0  0  0
  2  3  1  0  0  0  0
  2 25  1  0  0  0  0
  2 26  1  0  0  0  0
  3  4  1  0  0  0  0
  4  5  1  0  0  0  0
  4  7  1  0  0  0  0
  4 27  1  0  0  0  0
  5  6  1  0  0  0  0
  5 28  1  0  0  0  0
  5 29  1  0  0  0  0
  6 30  1  0  0  0  0
  6 31  1  0  0  0  0
  6 32  1  0  0  0  0
  7  8  2  0  0  0  0
  7  9  1  0  0  0  0
  9 10  1  0  0  0  0
  9 33  1  0  0  0  0
 10 21  1  0  0  0  0
 10 11  2  0  0  0  0
 11 12  1  0  0  0  0
 11 34  1  0  0  0  0
 12 13  2  0  0  0  0
 12 35  1  0  0  0  0
 13 14  1  0  0  0  0
 13 20  1  0  0  0  0
 14 19  1  0  0  0  0
 14 15  1  0  0  0  0
 15 16  1  0  0  0  0
 15 36  1  0  0  0  0
 15 37  1  0  0  0  0
 16 17  1  0  0  0  0
 16 38  1  0  0  0  0
 16 39  1  0  0  0  0
 17 18  1  0  0  0  0
 18 19  1  0  0  0  0
 18 40  1  0  0  0  0
 18 41  1  0  0  0  0
 19 42  1  0  0  0  0
 19 43  1  0  0  0  0
 20 21  2  0  0  0  0
 21 44  1  0  0  0  0
M  END
> <s_m_source_file>
AV-unprocessed.smi

> <i_m_source_file_index>
302

> <i_lp_mmshare_version>
43012

> <i_f3d_flags>
0

> <s_epik_input>
W0NIM11bQ0gyXU9bQ0BIXShbQ0gyXVtDSDNdKUMoPU8pW05IXWMxW2NIXVtjSF1jKG5bY0hdMSlOMltDSDJdW0NIMl1PW0NIMl1bQ0gyXTI=

> <s_epik_cmdline>
J2VwaWtfcHl0aG9uJywgJy1waCcsICc3LjAnLCAnLXRuJywgJzgnLCAnLW1hJywgJzIwMCcsICctbWV0YWxfYmluZGluZycsICctaW1hZScsICc8aW5maWxlLm1hZT4nLCAnLW9tYWUnLCAnPG91dGZpbGUubWFlPic=

> <r_lp_tautomer_probability>
1

> <r_epik_Ionization_Penalty>
0.000497413

> <r_epik_Ionization_Penalty_Charging>
0

> <r_epik_Ionization_Penalty_Neutral>
0.000497413

> <r_epik_State_Penalty>
0.000308489

> <r_epik_Charging_Adjusted_Penalty>
0.000308489

> <i_epik_Tot_Q>
0

> <i_epik_Tot_abs_Q>
0

> <r_epik_Metal_State_Penalty>
-0

> <b_epik_Metal_Only>
0

> <s_lp_Force_Field>
OPLS_2005

> <r_lp_Energy>
26.1218

> <b_lp_Chiralities_Consistent>
1

> <s_lp_Variant>
AV-unprocessed.smi:302-2

> <Gold.Version>
5.8.1

> <Gold.Id.Protein>
6NUR|6NUR_protein|mol2

> <Gold.PLP.Fitness>
37.9291

> <Gold.PLP.PLP>
-37.7588

> <Gold.PLP.part.hbond>
-1.0000

> <Gold.PLP.part.metal>
0.0000

> <Gold.PLP.part.buried>
-5.3149

> <Gold.PLP.part.nonpolar>
-30.5707

> <Gold.PLP.part.repulsive>
0.1617

> <Gold.PLP.ligand.clash>
0.0000

> <Gold.PLP.ligand.torsion>
1.4875

> <Gold.PLP.Chemscore.Hbond>
1.0000

> <Gold.PLP.Chemscore.CHOScore>
0.0000

> <Gold.PLP.Chemscore.Metal>
0.0000

> <Gold.Chemscore.Hbonds>
donor molecule, donor type, donor heavy atom, donor atom, acceptor molecule, acceptor atom, score
      P1  H  6896  6908       L1     8  1.00

> <Gold.PLP.Chemscore.Internal.Correction>
0.1453

> <Gold.Rescore>
     Score         DG    S(hbond)    S(metal)    S(lipo)     H(rot)  DE(clash)    DE(int)     intcor
     14.53     -17.08       1.00        0.00     106.23       1.63       0.11       2.43       ----

> <Gold.Chemscore.Fitness>
14.5287

> <Gold.Chemscore.DG>
-17.0757

> <Gold.Chemscore.ZeroCoef>
-5.4800

> <Gold.Chemscore.Hbond>
0.9970

> <Gold.Chemscore.Metal>
0.0000

> <Gold.Chemscore.Lipo>
106.2263

> <Gold.Chemscore.Internal_Hbond>
0.0000

> <Gold.Chemscore.DEClash>
0.1142

> <Gold.Chemscore.DEInternal>
2.4328

> <Gold.Chemscore.Rot>
1.6260

> <Gold.Chemscore.Internal.Correction>
   9.000000E+99

> <Gold.Chemscore.Hbonds>
donor molecule, donor type, donor heavy atom, donor atom, acceptor molecule, acceptor atom, score
      P1  H  6896  6908       L1     8  0.99

> <Gold.Chemscore.Hbond.Weighted>
-3.3298

> <Gold.Chemscore.Metal.Weighted>
-0.0000

> <Gold.Chemscore.Lipo.Weighted>
-12.4285

> <Gold.Chemscore.Internal_Hbond.Weighted>
0.0000

> <Gold.Chemscore.DEClash.Weighted>
0.1142

> <Gold.Chemscore.DEInternal.Weighted>
2.4328

> <Gold.Chemscore.Rot.Weighted>
4.1626

> <Gold.Chemscore.Internal.Correction.Weighted>
   9.000000E+99

> <Gold.Protein.RotatedTorsions>
[ 6907 6896 6895 6894 ] final  -91.21 input  -60.11 | X-H torsion
[ 7974 7965 7964 7962 ] final   63.61 input  175.53 | X-H torsion
[ 8008 7997 7996 7995 ] final  146.42 input   59.86 | X-H torsion
[ 10167 10162 10161 10158 ] final  -15.24 input  -65.29 | X-H torsion
[ 10718 10713 10712 10709 ] final  -41.25 input   66.30 | X-H torsion
[ 10763 10752 10751 10750 ] final -104.00 input  -60.55 | X-H torsion
[ 11005 11000 10999 10996 ] final   -5.75 input  -57.11 | X-H torsion

> <Gold.Protein.ActiveResidues>
 VAL166  LYS551  ARG553  GLY616  TRP617  ASP618  TYR619  PRO620  LYS621  CYS622 
 ASP623  PHE694  ASN695  SER759  ASP760  ASP761  ALA762  ILE779  LEU786  VAL792 
 PHE793  MET794  SER795  GLU796  ALA797  LYS798  CYS799  TRP800  GLU811  SER814 

> <Gold.Protein.RotatedAtoms>
  150.6890  134.2313  159.4435 H   0  0  0  0  0  0  0  0  0  0  0  0  # atno 6907 bound_to 6896
  152.0263  134.9791  160.0581 H   0  0  0  0  0  0  0  0  0  0  0  0  # atno 6908 bound_to 6896
  152.1348  133.4394  159.4775 H   0  0  0  0  0  0  0  0  0  0  0  0  # atno 6909 bound_to 6896
  145.8598  139.3308  143.0825 H   0  0  0  0  0  0  0  0  0  0  0  0  # atno 7974 bound_to 7965
  156.2856  140.2183  156.5373 H   0  0  0  0  0  0  0  0  0  0  0  0  # atno 8008 bound_to 7997
  154.7399  140.0488  157.0823 H   0  0  0  0  0  0  0  0  0  0  0  0  # atno 8009 bound_to 7997
  155.0245  140.3128  155.4784 H   0  0  0  0  0  0  0  0  0  0  0  0  # atno 8010 bound_to 7997
  140.7215  143.5238  150.9601 H   0  0  0  0  0  0  0  0  0  0  0  0  # atno 10167 bound_to 10162
  156.2724  130.4208  149.8423 H   0  0  0  0  0  0  0  0  0  0  0  0  # atno 10718 bound_to 10713
  154.7847  135.4802  153.9921 H   0  0  0  0  0  0  0  0  0  0  0  0  # atno 10763 bound_to 10752
  153.1543  135.6797  153.8842 H   0  0  0  0  0  0  0  0  0  0  0  0  # atno 10764 bound_to 10752
  153.8476  135.3171  155.3408 H   0  0  0  0  0  0  0  0  0  0  0  0  # atno 10765 bound_to 10752
  140.6945  133.9042  155.8641 H   0  0  0  0  0  0  0  0  0  0  0  0  # atno 11005 bound_to 11000
  145.9261  140.9081  143.0380 LP  0  0  0  0  0  0  0  0  0  0  0  0  # atno 17320 bound_to 7965
  144.6727  140.1354  143.7441 LP  0  0  0  0  0  0  0  0  0  0  0  0  # atno 17321 bound_to 7965
  139.8956  143.6899  152.3139 LP  0  0  0  0  0  0  0  0  0  0  0  0  # atno 17342 bound_to 10162
  139.7230  144.7598  151.0924 LP  0  0  0  0  0  0  0  0  0  0  0  0  # atno 17343 bound_to 10162
  156.5900  130.8502  151.3405 LP  0  0  0  0  0  0  0  0  0  0  0  0  # atno 17370 bound_to 10713
  157.7288  130.9662  150.1759 LP  0  0  0  0  0  0  0  0  0  0  0  0  # atno 17371 bound_to 10713
  141.0214  134.0884  157.4116 LP  0  0  0  0  0  0  0  0  0  0  0  0  # atno 17394 bound_to 11000
  139.8914  135.0118  156.6789 LP  0  0  0  0  0  0  0  0  0  0  0  0  # atno 17395 bound_to 11000

$$$$
