AV-unprocessed.smi:1144|AV-procd|sdf|4881|dock7
  -GOLD-   22720 3453D 1   1.00000     0.00000
 Structure written by MMmdl.
 34 35  0  0  0  0  0  0  0  0  1 V2000
  146.8127  138.0258  153.4526 C   0  0  0  0  0  0  0  0  0  0  0  0
  147.0556  139.3634  153.9706 N   0  0  0  0  0  0  0  0  0  0  0  0
  146.7241  140.3879  152.9897 C   0  0  0  0  0  0  0  0  0  0  0  0
  146.9952  141.8008  153.5327 C   0  0  0  0  0  0  0  0  0  0  0  0
  148.3537  141.8965  153.9499 O   0  0  0  0  0  0  0  0  0  0  0  0
  148.7009  140.9455  154.9555 C   0  0  2  0  0  0  0  0  0  0  0  0
  150.1774  141.1450  155.3225 C   0  0  0  0  0  0  0  0  0  0  0  0
  150.3503  142.2172  156.2911 N   0  0  0  0  0  0  0  0  0  0  0  0
  151.1216  142.1147  157.4329 C   0  0  0  0  0  0  0  0  0  0  0  0
  151.9070  141.0406  157.5730 N   0  0  0  0  0  0  0  0  0  0  0  0
  152.6502  140.9666  158.6979 C   0  0  0  0  0  0  0  0  0  0  0  0
  152.6054  141.9710  159.6847 C   0  0  0  0  0  0  0  0  0  0  0  0
  151.7406  143.0592  159.4314 C   0  0  0  0  0  0  0  0  0  0  0  0
  151.5912  144.2176  160.4063 C   0  0  0  0  0  0  0  0  0  0  0  0
  152.3268  144.0322  161.5031 F   0  0  0  0  0  0  0  0  0  0  0  0
  151.9817  145.3503  159.8221 F   0  0  0  0  0  0  0  0  0  0  0  0
  150.3141  144.3381  160.7692 F   0  0  0  0  0  0  0  0  0  0  0  0
  151.0004  143.1222  158.2999 N   0  0  0  0  0  0  0  0  0  0  0  0
  148.4374  139.5301  154.4036 C   0  0  0  0  0  0  0  0  0  0  0  0
  145.7682  137.9083  153.1620 H   0  0  0  0  0  0  0  0  0  0  0  0
  147.0332  137.2727  154.2095 H   0  0  0  0  0  0  0  0  0  0  0  0
  147.4336  137.8221  152.5792 H   0  0  0  0  0  0  0  0  0  0  0  0
  147.3083  140.2331  152.0812 H   0  0  0  0  0  0  0  0  0  0  0  0
  145.6750  140.3029  152.7045 H   0  0  0  0  0  0  0  0  0  0  0  0
  146.8044  142.5470  152.7614 H   0  0  0  0  0  0  0  0  0  0  0  0
  146.3333  142.0278  154.3699 H   0  0  0  0  0  0  0  0  0  0  0  0
  148.0814  141.1077  155.8400 H   0  0  0  0  0  0  0  0  0  0  0  0
  150.5749  140.2259  155.7547 H   0  0  0  0  0  0  0  0  0  0  0  0
  150.7639  141.3598  154.4284 H   0  0  0  0  0  0  0  0  0  0  0  0
  149.9320  143.1142  156.0920 H   0  0  0  0  0  0  0  0  0  0  0  0
  153.2852  140.1004  158.8115 H   0  0  0  0  0  0  0  0  0  0  0  0
  153.2035  141.9035  160.5812 H   0  0  0  0  0  0  0  0  0  0  0  0
  148.6726  138.7915  155.1709 H   0  0  0  0  0  0  0  0  0  0  0  0
  149.1114  139.3358  153.5677 H   0  0  0  0  0  0  0  0  0  0  0  0
  1  2  1  0  0  0  0
  1 20  1  0  0  0  0
  1 21  1  0  0  0  0
  1 22  1  0  0  0  0
  2 19  1  0  0  0  0
  2  3  1  0  0  0  0
  3  4  1  0  0  0  0
  3 23  1  0  0  0  0
  3 24  1  0  0  0  0
  4  5  1  0  0  0  0
  4 25  1  0  0  0  0
  4 26  1  0  0  0  0
  5  6  1  0  0  0  0
  6  7  1  0  0  0  0
  6 19  1  0  0  0  0
  6 27  1  0  0  0  0
  7  8  1  0  0  0  0
  7 28  1  0  0  0  0
  7 29  1  0  0  0  0
  8  9  1  0  0  0  0
  8 30  1  0  0  0  0
  9 18  1  0  0  0  0
  9 10  2  0  0  0  0
 10 11  1  0  0  0  0
 11 12  2  0  0  0  0
 11 31  1  0  0  0  0
 12 13  1  0  0  0  0
 12 32  1  0  0  0  0
 13 14  1  0  0  0  0
 13 18  2  0  0  0  0
 14 15  1  0  0  0  0
 14 16  1  0  0  0  0
 14 17  1  0  0  0  0
 19 33  1  0  0  0  0
 19 34  1  0  0  0  0
M  END
> <s_m_source_file>
AV-unprocessed.smi

> <i_m_source_file_index>
1144

> <i_lp_mmshare_version>
43012

> <i_f3d_flags>
0

> <s_epik_input>
W0NIM11OMVtDSDJdW0NIMl1PW0NASF0oW0NIMl0xKVtDSDJdW05IXWMybltjSF1bY0hdYyhuMilDKEYpKEYpRg==

> <s_epik_cmdline>
J2VwaWtfcHl0aG9uJywgJy1waCcsICc3LjAnLCAnLXRuJywgJzgnLCAnLW1hJywgJzIwMCcsICctbWV0YWxfYmluZGluZycsICctaW1hZScsICc8aW5maWxlLm1hZT4nLCAnLW9tYWUnLCAnPG91dGZpbGUubWFlPic=

> <r_lp_tautomer_probability>
1

> <r_epik_Ionization_Penalty>
0.797829

> <r_epik_Ionization_Penalty_Charging>
0

> <r_epik_Ionization_Penalty_Neutral>
0.797829

> <r_epik_State_Penalty>
0.828842

> <r_epik_Charging_Adjusted_Penalty>
0.828842

> <i_epik_Tot_Q>
0

> <i_epik_Tot_abs_Q>
0

> <r_epik_Metal_State_Penalty>
0.828842

> <b_epik_Metal_Only>
0

> <s_lp_Force_Field>
OPLS_2005

> <r_lp_Energy>
14.496

> <b_lp_Chiralities_Consistent>
1

> <s_lp_Variant>
AV-unprocessed.smi:1144-6

> <Gold.Version>
5.8.1

> <Gold.Id.Protein>
6NUR|6NUR_protein|mol2

> <Gold.PLP.Fitness>
40.5168

> <Gold.PLP.PLP>
-36.6963

> <Gold.PLP.part.hbond>
-2.0000

> <Gold.PLP.part.metal>
0.0000

> <Gold.PLP.part.buried>
-3.3333

> <Gold.PLP.part.nonpolar>
-30.8181

> <Gold.PLP.part.repulsive>
0.5710

> <Gold.PLP.ligand.clash>
0.0000

> <Gold.PLP.ligand.torsion>
0.3367

> <Gold.PLP.Chemscore.Hbond>
1.4917

> <Gold.PLP.Chemscore.CHOScore>
0.0000

> <Gold.PLP.Chemscore.Metal>
0.0000

> <Gold.Chemscore.Hbonds>
donor molecule, donor type, donor heavy atom, donor atom, acceptor molecule, acceptor atom, score
      L1  H     8    30       P1  8028  1.00
      P1  H  8011  8017       L1     5  0.24

> <Gold.PLP.Chemscore.Internal.Correction>
0.0189

> <Gold.Rescore>
     Score         DG    S(hbond)    S(metal)    S(lipo)     H(rot)  DE(clash)    DE(int)     intcor
     15.03     -15.54       1.28        0.00      78.36       1.31       0.10       0.42       ----

> <Gold.Chemscore.Fitness>
15.0287

> <Gold.Chemscore.DG>
-15.5413

> <Gold.Chemscore.ZeroCoef>
-5.4800

> <Gold.Chemscore.Hbond>
1.2752

> <Gold.Chemscore.Metal>
0.0000

> <Gold.Chemscore.Lipo>
78.3627

> <Gold.Chemscore.Internal_Hbond>
0.0000

> <Gold.Chemscore.DEClash>
0.0951

> <Gold.Chemscore.DEInternal>
0.4175

> <Gold.Chemscore.Rot>
1.3149

> <Gold.Chemscore.Internal.Correction>
   9.000000E+99

> <Gold.Chemscore.Hbonds>
donor molecule, donor type, donor heavy atom, donor atom, acceptor molecule, acceptor atom, score
      L1  H     8    30       P1  8028  0.98
      P1  H  8011  8017       L1     5  0.22

> <Gold.Chemscore.Hbond.Weighted>
-4.2590

> <Gold.Chemscore.Metal.Weighted>
-0.0000

> <Gold.Chemscore.Lipo.Weighted>
-9.1684

> <Gold.Chemscore.Internal_Hbond.Weighted>
0.0000

> <Gold.Chemscore.DEClash.Weighted>
0.0951

> <Gold.Chemscore.DEInternal.Weighted>
0.4175

> <Gold.Chemscore.Rot.Weighted>
3.3662

> <Gold.Chemscore.Internal.Correction.Weighted>
   9.000000E+99

> <Gold.Protein.RotatedTorsions>
[ 6907 6896 6895 6894 ] final   12.32 input  -60.11 | X-H torsion
[ 7974 7965 7964 7962 ] final -137.50 input  175.53 | X-H torsion
[ 8008 7997 7996 7995 ] final  139.38 input   59.86 | X-H torsion
[ 10167 10162 10161 10158 ] final -159.85 input  -65.29 | X-H torsion
[ 10718 10713 10712 10709 ] final    9.58 input   66.30 | X-H torsion
[ 10763 10752 10751 10750 ] final  136.20 input  -60.55 | X-H torsion
[ 11005 11000 10999 10996 ] final  -97.43 input  -57.11 | X-H torsion

> <Gold.Protein.ActiveResidues>
 VAL166  LYS551  ARG553  GLY616  TRP617  ASP618  TYR619  PRO620  LYS621  CYS622 
 ASP623  PHE694  ASN695  SER759  ASP760  ASP761  ALA762  ILE779  LEU786  VAL792 
 PHE793  MET794  SER795  GLU796  ALA797  LYS798  CYS799  TRP800  GLU811  SER814 

> <Gold.Protein.RotatedAtoms>
  151.7684  135.0792  160.0355 H   0  0  0  0  0  0  0  0  0  0  0  0  # atno 6907 bound_to 6896
  152.3305  133.5949  159.5815 H   0  0  0  0  0  0  0  0  0  0  0  0  # atno 6908 bound_to 6896
  150.7420  133.9790  159.3612 H   0  0  0  0  0  0  0  0  0  0  0  0  # atno 6909 bound_to 6896
  144.8836  140.6543  143.5190 H   0  0  0  0  0  0  0  0  0  0  0  0  # atno 7974 bound_to 7965
  156.2990  140.2369  156.4229 H   0  0  0  0  0  0  0  0  0  0  0  0  # atno 8008 bound_to 7997
  154.8339  140.0431  157.1516 H   0  0  0  0  0  0  0  0  0  0  0  0  # atno 8009 bound_to 7997
  154.9177  140.2999  155.5236 H   0  0  0  0  0  0  0  0  0  0  0  0  # atno 8010 bound_to 7997
  139.6584  143.9958  152.2209 H   0  0  0  0  0  0  0  0  0  0  0  0  # atno 10167 bound_to 10162
  156.9684  130.5959  149.5667 H   0  0  0  0  0  0  0  0  0  0  0  0  # atno 10718 bound_to 10713
  153.8527  135.3077  155.3433 H   0  0  0  0  0  0  0  0  0  0  0  0  # atno 10763 bound_to 10752
  154.7884  135.4796  154.0000 H   0  0  0  0  0  0  0  0  0  0  0  0  # atno 10764 bound_to 10752
  153.1509  135.6843  153.8977 H   0  0  0  0  0  0  0  0  0  0  0  0  # atno 10765 bound_to 10752
  141.1379  133.8170  157.0704 H   0  0  0  0  0  0  0  0  0  0  0  0  # atno 11005 bound_to 11000
  145.3909  139.1617  143.4229 LP  0  0  0  0  0  0  0  0  0  0  0  0  # atno 17320 bound_to 7965
  146.3010  140.3998  142.8704 LP  0  0  0  0  0  0  0  0  0  0  0  0  # atno 17321 bound_to 7965
  139.9690  144.6506  150.8007 LP  0  0  0  0  0  0  0  0  0  0  0  0  # atno 17342 bound_to 10162
  140.7569  143.3075  151.2925 LP  0  0  0  0  0  0  0  0  0  0  0  0  # atno 17343 bound_to 10162
  156.0293  130.5385  150.8491 LP  0  0  0  0  0  0  0  0  0  0  0  0  # atno 17370 bound_to 10713
  157.5610  131.0946  150.9559 LP  0  0  0  0  0  0  0  0  0  0  0  0  # atno 17371 bound_to 10713
  140.0514  134.9803  157.1144 LP  0  0  0  0  0  0  0  0  0  0  0  0  # atno 17394 bound_to 11000
  140.3984  134.2109  155.7164 LP  0  0  0  0  0  0  0  0  0  0  0  0  # atno 17395 bound_to 11000

$$$$
