AV-unprocessed.smi:915|AV-procd|sdf|4154|dock6
  -GOLD-   22720 2 63D 1   1.00000     0.00000
 Structure written by MMmdl.
 34 35  0  0  0  0  0  0  0  0  1 V2000
  151.4622  139.8532  155.5974 C   0  0  0  0  0  0  0  0  0  0  0  0
  150.4363  140.9918  155.5838 C   0  0  0  0  0  0  0  0  0  0  0  0
  149.2525  140.6810  154.7192 C   0  0  0  0  0  0  0  0  0  0  0  0
  148.2725  141.5558  154.3180 C   0  0  0  0  0  0  0  0  0  0  0  0
  147.0695  140.7792  153.3233 S   0  0  0  0  0  0  0  0  0  0  0  0
  147.9587  139.2738  153.4914 C   0  0  0  0  0  0  0  0  0  0  0  0
  147.5205  138.0702  152.8794 N   0  0  0  0  0  0  0  0  0  0  0  0
  146.2785  137.5561  152.8537 C   0  0  0  0  0  0  0  0  0  0  0  0
  145.2873  138.0644  153.3785 O   0  0  0  0  0  0  0  0  0  0  0  0
  146.2463  136.4009  152.1732 N   0  0  0  0  0  0  0  0  0  0  0  0
  145.0595  135.5781  151.9578 C   0  0  0  0  0  0  0  0  0  0  0  0
  145.2659  134.5483  150.8321 C   0  0  2  0  0  0  0  0  0  0  0  0
  144.0970  133.5691  150.6446 C   0  0  0  0  0  0  0  0  0  0  0  0
  144.6561  132.3404  149.9278 C   0  0  0  0  0  0  0  0  0  0  0  0
  145.9627  131.9879  150.6386 C   0  0  0  0  0  0  0  0  0  0  0  0
  146.7539  133.5469  151.1111 S   0  0  0  0  0  0  0  0  0  0  0  0
  149.0618  139.3810  154.2407 N   0  0  0  0  0  0  0  0  0  0  0  0
  152.3100  140.1017  156.2358 H   0  0  0  0  0  0  0  0  0  0  0  0
  151.8462  139.6567  154.5960 H   0  0  0  0  0  0  0  0  0  0  0  0
  151.0200  138.9306  155.9745 H   0  0  0  0  0  0  0  0  0  0  0  0
  150.1109  141.1926  156.6051 H   0  0  0  0  0  0  0  0  0  0  0  0
  150.9193  141.9070  155.2395 H   0  0  0  0  0  0  0  0  0  0  0  0
  148.1852  142.6070  154.5487 H   0  0  0  0  0  0  0  0  0  0  0  0
  148.2370  137.5378  152.4086 H   0  0  0  0  0  0  0  0  0  0  0  0
  147.1095  136.0610  151.7755 H   0  0  0  0  0  0  0  0  0  0  0  0
  144.8495  135.0571  152.8923 H   0  0  0  0  0  0  0  0  0  0  0  0
  144.1841  136.1971  151.7539 H   0  0  0  0  0  0  0  0  0  0  0  0
  145.4263  135.0745  149.8901 H   0  0  0  0  0  0  0  0  0  0  0  0
  143.7042  133.2666  151.6165 H   0  0  0  0  0  0  0  0  0  0  0  0
  143.2744  134.0210  150.0897 H   0  0  0  0  0  0  0  0  0  0  0  0
  143.9527  131.5073  149.9356 H   0  0  0  0  0  0  0  0  0  0  0  0
  144.8591  132.5869  148.8848 H   0  0  0  0  0  0  0  0  0  0  0  0
  145.7524  131.4242  151.5479 H   0  0  0  0  0  0  0  0  0  0  0  0
  146.6223  131.3834  150.0157 H   0  0  0  0  0  0  0  0  0  0  0  0
  1  2  1  0  0  0  0
  1 18  1  0  0  0  0
  1 19  1  0  0  0  0
  1 20  1  0  0  0  0
  2  3  1  0  0  0  0
  2 21  1  0  0  0  0
  2 22  1  0  0  0  0
  3 17  1  0  0  0  0
  3  4  2  0  0  0  0
  4  5  1  0  0  0  0
  4 23  1  0  0  0  0
  5  6  1  0  0  0  0
  6  7  1  0  0  0  0
  6 17  2  0  0  0  0
  7  8  1  0  0  0  0
  7 24  1  0  0  0  0
  8  9  2  0  0  0  0
  8 10  1  0  0  0  0
 10 11  1  0  0  0  0
 10 25  1  0  0  0  0
 11 12  1  0  0  0  0
 11 26  1  0  0  0  0
 11 27  1  0  0  0  0
 12 16  1  0  0  0  0
 12 13  1  0  0  0  0
 12 28  1  0  0  0  0
 13 14  1  0  0  0  0
 13 29  1  0  0  0  0
 13 30  1  0  0  0  0
 14 15  1  0  0  0  0
 14 31  1  0  0  0  0
 14 32  1  0  0  0  0
 15 16  1  0  0  0  0
 15 33  1  0  0  0  0
 15 34  1  0  0  0  0
M  END
> <s_m_source_file>
AV-unprocessed.smi

> <i_m_source_file_index>
915

> <i_lp_mmshare_version>
43012

> <i_f3d_flags>
0

> <s_epik_input>
W0NIM11bQ0gyXWMxW2NIXXNjKG4xKVtOSF1DKD1PKVtOSF1bQ0gyXVtDQEBIXTJbQ0gyXVtDSDJdW0NIMl1TMg==

> <s_epik_cmdline>
J2VwaWtfcHl0aG9uJywgJy1waCcsICc3LjAnLCAnLXRuJywgJzgnLCAnLW1hJywgJzIwMCcsICctbWV0YWxfYmluZGluZycsICctaW1hZScsICc8aW5maWxlLm1hZT4nLCAnLW9tYWUnLCAnPG91dGZpbGUubWFlPic=

> <r_lp_tautomer_probability>
0.999

> <r_epik_Ionization_Penalty>
0.000460048

> <r_epik_Ionization_Penalty_Charging>
0

> <r_epik_Ionization_Penalty_Neutral>
0.000460048

> <r_epik_State_Penalty>
0.000177984

> <r_epik_Charging_Adjusted_Penalty>
0.000177984

> <i_epik_Tot_Q>
0

> <i_epik_Tot_abs_Q>
0

> <r_epik_Metal_State_Penalty>
0.00612978

> <b_epik_Metal_Only>
0

> <s_lp_Force_Field>
OPLS_2005

> <r_lp_Energy>
7.49707

> <b_lp_Chiralities_Consistent>
1

> <s_lp_Variant>
AV-unprocessed.smi:915-1

> <Gold.Version>
5.8.1

> <Gold.Id.Protein>
6NUR|6NUR_protein|mol2

> <Gold.PLP.Fitness>
41.6029

> <Gold.PLP.PLP>
-34.1584

> <Gold.PLP.part.hbond>
-2.0461

> <Gold.PLP.part.metal>
0.0000

> <Gold.PLP.part.buried>
-2.7738

> <Gold.PLP.part.nonpolar>
-30.4072

> <Gold.PLP.part.repulsive>
1.3960

> <Gold.PLP.ligand.clash>
0.0000

> <Gold.PLP.ligand.torsion>
0.6252

> <Gold.PLP.Chemscore.Hbond>
1.8960

> <Gold.PLP.Chemscore.CHOScore>
1.0000

> <Gold.PLP.Chemscore.Metal>
0.0000

> <Gold.Chemscore.Hbonds>
donor molecule, donor type, donor heavy atom, donor atom, acceptor molecule, acceptor atom, score
      L1  H     7    24       P1  7948  1.00
      L1  H    10    25       P1  7948  0.90
      L1  C     4    23       P1  8028  1.00

> <Gold.PLP.Chemscore.Internal.Correction>
0.0068

> <Gold.Rescore>
     Score         DG    S(hbond)    S(metal)    S(lipo)     H(rot)  DE(clash)    DE(int)     intcor
     16.89     -17.59       1.91        0.00      78.59       1.36       0.19       0.51       ----

> <Gold.Chemscore.Fitness>
16.8891

> <Gold.Chemscore.DG>
-17.5852

> <Gold.Chemscore.ZeroCoef>
-5.4800

> <Gold.Chemscore.Hbond>
1.9138

> <Gold.Chemscore.Metal>
0.0000

> <Gold.Chemscore.Lipo>
78.5946

> <Gold.Chemscore.Internal_Hbond>
0.0000

> <Gold.Chemscore.DEClash>
0.1909

> <Gold.Chemscore.DEInternal>
0.5052

> <Gold.Chemscore.Rot>
1.3603

> <Gold.Chemscore.Internal.Correction>
   9.000000E+99

> <Gold.Chemscore.Hbonds>
donor molecule, donor type, donor heavy atom, donor atom, acceptor molecule, acceptor atom, score
      L1  H     7    24       P1  7948  0.96
      L1  H    10    25       P1  7948  0.88

> <Gold.Chemscore.Hbond.Weighted>
-6.3921

> <Gold.Chemscore.Metal.Weighted>
-0.0000

> <Gold.Chemscore.Lipo.Weighted>
-9.1956

> <Gold.Chemscore.Internal_Hbond.Weighted>
0.0000

> <Gold.Chemscore.DEClash.Weighted>
0.1909

> <Gold.Chemscore.DEInternal.Weighted>
0.5052

> <Gold.Chemscore.Rot.Weighted>
3.4824

> <Gold.Chemscore.Internal.Correction.Weighted>
   9.000000E+99

> <Gold.Protein.RotatedTorsions>
[ 6907 6896 6895 6894 ] final  123.18 input  -60.11 | X-H torsion
[ 7974 7965 7964 7962 ] final -123.91 input  175.53 | X-H torsion
[ 8008 7997 7996 7995 ] final -116.91 input   59.86 | X-H torsion
[ 10167 10162 10161 10158 ] final -128.88 input  -65.29 | X-H torsion
[ 10718 10713 10712 10709 ] final -142.92 input   66.30 | X-H torsion
[ 10763 10752 10751 10750 ] final  -55.47 input  -60.55 | X-H torsion
[ 11005 11000 10999 10996 ] final  104.39 input  -57.11 | X-H torsion

> <Gold.Protein.ActiveResidues>
 VAL166  LYS551  ARG553  GLY616  TRP617  ASP618  TYR619  PRO620  LYS621  CYS622 
 ASP623  PHE694  ASN695  SER759  ASP760  ASP761  ALA762  ILE779  LEU786  VAL792 
 PHE793  MET794  SER795  GLU796  ALA797  LYS798  CYS799  TRP800  GLU811  SER814 

> <Gold.Protein.RotatedAtoms>
  152.4182  133.7073  159.6458 H   0  0  0  0  0  0  0  0  0  0  0  0  # atno 6907 bound_to 6896
  150.8059  133.8500  159.3211 H   0  0  0  0  0  0  0  0  0  0  0  0  # atno 6908 bound_to 6896
  151.6224  135.1033  160.0156 H   0  0  0  0  0  0  0  0  0  0  0  0  # atno 6909 bound_to 6896
  145.0137  140.7928  143.4423 H   0  0  0  0  0  0  0  0  0  0  0  0  # atno 7974 bound_to 7965
  155.0754  140.0394  157.2622 H   0  0  0  0  0  0  0  0  0  0  0  0  # atno 8008 bound_to 7997
  154.6949  140.2661  155.6751 H   0  0  0  0  0  0  0  0  0  0  0  0  # atno 8009 bound_to 7997
  156.2741  140.2752  156.1540 H   0  0  0  0  0  0  0  0  0  0  0  0  # atno 8010 bound_to 7997
  139.9457  143.6113  152.2490 H   0  0  0  0  0  0  0  0  0  0  0  0  # atno 10167 bound_to 10162
  156.3518  130.7692  151.1846 H   0  0  0  0  0  0  0  0  0  0  0  0  # atno 10718 bound_to 10713
  154.1913  135.6427  153.5061 H   0  0  0  0  0  0  0  0  0  0  0  0  # atno 10763 bound_to 10752
  153.0034  135.5429  154.6412 H   0  0  0  0  0  0  0  0  0  0  0  0  # atno 10764 bound_to 10752
  154.5801  135.2924  155.0714 H   0  0  0  0  0  0  0  0  0  0  0  0  # atno 10765 bound_to 10752
  139.8791  134.9298  156.5354 H   0  0  0  0  0  0  0  0  0  0  0  0  # atno 11005 bound_to 11000
  145.1989  139.2262  143.5203 LP  0  0  0  0  0  0  0  0  0  0  0  0  # atno 17320 bound_to 7965
  146.3474  140.1801  142.8589 LP  0  0  0  0  0  0  0  0  0  0  0  0  # atno 17321 bound_to 7965
  139.6669  144.7662  151.1856 LP  0  0  0  0  0  0  0  0  0  0  0  0  # atno 17342 bound_to 10162
  140.7598  143.5924  150.8782 LP  0  0  0  0  0  0  0  0  0  0  0  0  # atno 17343 bound_to 10162
  157.7462  131.0425  150.4699 LP  0  0  0  0  0  0  0  0  0  0  0  0  # atno 17370 bound_to 10713
  156.4896  130.4092  149.6414 LP  0  0  0  0  0  0  0  0  0  0  0  0  # atno 17371 bound_to 10713
  140.8349  133.8250  155.9019 LP  0  0  0  0  0  0  0  0  0  0  0  0  # atno 17394 bound_to 11000
  140.9293  134.2042  157.4875 LP  0  0  0  0  0  0  0  0  0  0  0  0  # atno 17395 bound_to 11000

$$$$
