AV-unprocessed.smi:153|AV-procd|sdf|1256|dock7
  -GOLD-   2262018493D 1   1.00000     0.00000
 Structure written by MMmdl.
 60 63  0  0  0  0  0  0  0  0  2 V2000
  152.8054  141.9683  160.7296 C   0  0  0  0  0  0  0  0  0  0  0  0
  152.7994  142.6995  159.3752 C   0  0  2  0  0  0  0  0  0  0  0  0
  152.8015  144.1118  159.5786 O   0  0  0  0  0  0  0  0  0  0  0  0
  151.6305  144.6837  159.0165 C   0  0  0  0  0  0  0  0  0  0  0  0
  151.2958  143.7613  157.8524 C   0  0  0  0  0  0  0  0  0  0  0  0
  151.6209  142.3863  158.4169 C   0  0  2  0  0  0  0  0  0  0  0  0
  150.4880  141.9317  159.1401 O   0  0  0  0  0  0  0  0  0  0  0  0
  151.9474  141.3536  157.3103 C   0  0  0  0  0  0  0  0  0  0  0  0
  150.7838  140.9444  156.5397 N   0  0  0  0  0  0  0  0  0  0  0  0
  149.6735  141.7064  156.2615 C   0  0  0  0  0  0  0  0  0  0  0  0
  148.7719  141.1210  155.5238 N   0  0  0  0  0  0  0  0  0  0  0  0
  149.2839  139.8487  155.2864 C   0  0  0  0  0  0  0  0  0  0  0  0
  148.8402  138.7054  154.5516 C   0  0  0  0  0  0  0  0  0  0  0  0
  147.6767  138.6241  153.8461 N   0  0  0  0  0  0  0  0  0  0  0  0
  146.4970  139.3429  154.3114 C   0  0  0  0  0  0  0  0  0  0  0  0
  147.7344  138.2413  152.4336 C   0  0  0  0  0  0  0  0  0  0  0  0
  146.3501  138.2756  151.7527 C   0  0  1  0  0  0  0  0  0  0  0  0
  146.5420  138.3928  150.3562 O   0  0  0  0  0  0  0  0  0  0  0  0
  145.5646  136.9723  152.0005 C   0  0  0  0  0  0  0  0  0  0  0  0
  146.3520  135.7585  151.6643 N   0  3  0  0  0  0  0  0  0  0  0  0
  146.6377  134.9186  152.8516 C   0  0  0  0  0  0  0  0  0  0  0  0
  147.5158  133.7183  152.4597 C   0  0  0  0  0  0  0  0  0  0  0  0
  146.8655  132.9653  151.4434 O   0  0  0  0  0  0  0  0  0  0  0  0
  146.6569  133.7320  150.2639 C   0  0  0  0  0  0  0  0  0  0  0  0
  145.7553  134.9373  150.5814 C   0  0  0  0  0  0  0  0  0  0  0  0
  149.6588  137.6196  154.5526 N   0  0  0  0  0  0  0  0  0  0  0  0
  150.8180  137.6351  155.2145 C   0  0  0  0  0  0  0  0  0  0  0  0
  151.3546  138.6235  155.9291 N   0  0  0  0  0  0  0  0  0  0  0  0
  150.5490  139.7229  155.9327 C   0  0  0  0  0  0  0  0  0  0  0  0
  152.7902  140.8866  160.5974 H   0  0  0  0  0  0  0  0  0  0  0  0
  151.9448  142.2454  161.3387 H   0  0  0  0  0  0  0  0  0  0  0  0
  153.7010  142.2186  161.2982 H   0  0  0  0  0  0  0  0  0  0  0  0
  153.7387  142.4822  158.8656 H   0  0  0  0  0  0  0  0  0  0  0  0
  150.8325  144.6742  159.7603 H   0  0  0  0  0  0  0  0  0  0  0  0
  151.7968  145.7151  158.7050 H   0  0  0  0  0  0  0  0  0  0  0  0
  150.2664  143.8633  157.5061 H   0  0  0  0  0  0  0  0  0  0  0  0
  151.9537  143.9934  157.0138 H   0  0  0  0  0  0  0  0  0  0  0  0
  149.7091  142.1755  158.6638 H   0  0  0  0  0  0  0  0  0  0  0  0
  152.6950  141.7534  156.6240 H   0  0  0  0  0  0  0  0  0  0  0  0
  152.3879  140.4583  157.7512 H   0  0  0  0  0  0  0  0  0  0  0  0
  149.5591  142.7223  156.6110 H   0  0  0  0  0  0  0  0  0  0  0  0
  146.3260  139.1643  155.3735 H   0  0  0  0  0  0  0  0  0  0  0  0
  145.6064  139.0101  153.7779 H   0  0  0  0  0  0  0  0  0  0  0  0
  146.6057  140.4149  154.1454 H   0  0  0  0  0  0  0  0  0  0  0  0
  148.4664  138.8274  151.8764 H   0  0  0  0  0  0  0  0  0  0  0  0
  148.1156  137.2201  152.4040 H   0  0  0  0  0  0  0  0  0  0  0  0
  145.7831  139.1333  152.1138 H   0  0  0  0  0  0  0  0  0  0  0  0
  145.7002  138.3256  149.9302 H   0  0  0  0  0  0  0  0  0  0  0  0
  145.2721  136.9391  153.0514 H   0  0  0  0  0  0  0  0  0  0  0  0
  144.6365  136.9672  151.4266 H   0  0  0  0  0  0  0  0  0  0  0  0
  147.1482  135.5110  153.6120 H   0  0  0  0  0  0  0  0  0  0  0  0
  145.7007  134.5708  153.2895 H   0  0  0  0  0  0  0  0  0  0  0  0
  148.4966  134.0494  152.1139 H   0  0  0  0  0  0  0  0  0  0  0  0
  147.6833  133.0761  153.3244 H   0  0  0  0  0  0  0  0  0  0  0  0
  147.6138  134.0586  149.8535 H   0  0  0  0  0  0  0  0  0  0  0  0
  146.1869  133.0996  149.5105 H   0  0  0  0  0  0  0  0  0  0  0  0
  144.7667  134.5910  150.8864 H   0  0  0  0  0  0  0  0  0  0  0  0
  145.6206  135.5310  149.6780 H   0  0  0  0  0  0  0  0  0  0  0  0
  151.4006  136.7272  155.1593 H   0  0  0  0  0  0  0  0  0  0  0  0
  147.2472  136.0875  151.3303 H   0  0  0  0  0  0  0  0  0  0  0  0
  1  2  1  0  0  0  0
  1 30  1  0  0  0  0
  1 31  1  0  0  0  0
  1 32  1  0  0  0  0
  2  6  1  0  0  0  0
  2  3  1  0  0  0  0
  2 33  1  0  0  0  0
  3  4  1  0  0  0  0
  4  5  1  0  0  0  0
  4 34  1  0  0  0  0
  4 35  1  0  0  0  0
  5  6  1  0  0  0  0
  5 36  1  0  0  0  0
  5 37  1  0  0  0  0
  6  7  1  0  0  0  0
  6  8  1  0  0  0  0
  7 38  1  0  0  0  0
  8  9  1  0  0  0  0
  8 39  1  0  0  0  0
  8 40  1  0  0  0  0
  9 29  1  0  0  0  0
  9 10  1  0  0  0  0
 10 11  2  0  0  0  0
 10 41  1  0  0  0  0
 11 12  1  0  0  0  0
 12 29  2  0  0  0  0
 12 13  1  0  0  0  0
 13 14  1  0  0  0  0
 13 26  2  0  0  0  0
 14 15  1  0  0  0  0
 14 16  1  0  0  0  0
 15 42  1  0  0  0  0
 15 43  1  0  0  0  0
 15 44  1  0  0  0  0
 16 17  1  0  0  0  0
 16 45  1  0  0  0  0
 16 46  1  0  0  0  0
 17 18  1  0  0  0  0
 17 19  1  0  0  0  0
 17 47  1  0  0  0  0
 18 48  1  0  0  0  0
 19 20  1  0  0  0  0
 19 49  1  0  0  0  0
 19 50  1  0  0  0  0
 20 25  1  0  0  0  0
 20 21  1  0  0  0  0
 20 60  1  0  0  0  0
 21 22  1  0  0  0  0
 21 51  1  0  0  0  0
 21 52  1  0  0  0  0
 22 23  1  0  0  0  0
 22 53  1  0  0  0  0
 22 54  1  0  0  0  0
 23 24  1  0  0  0  0
 24 25  1  0  0  0  0
 24 55  1  0  0  0  0
 24 56  1  0  0  0  0
 25 57  1  0  0  0  0
 25 58  1  0  0  0  0
 26 27  1  0  0  0  0
 27 28  2  0  0  0  0
 27 59  1  0  0  0  0
 28 29  1  0  0  0  0
M  CHG  1  20   1
M  END
> <s_m_source_file>
AV-unprocessed.smi

> <i_m_source_file_index>
153

> <i_lp_mmshare_version>
43012

> <i_f3d_flags>
0

> <s_epik_input>
W0NIMl0xW0NIMl1PW0NAQEhdKFtDSDNdKVtDQEBdMShbT0hdKVtDSDJdbihbY0hdbjIpYyhjMjMpbltjSF1uYzNOKFtDSDNdKVtDSDJdW0NASF0oW09IXSlbQ0gyXU40W0NIMl1bQ0gyXU9bQ0gyXVtDSDJdNA==

> <s_epik_cmdline>
J2VwaWtfcHl0aG9uJywgJy1waCcsICc3LjAnLCAnLXRuJywgJzgnLCAnLW1hJywgJzIwMCcsICctbWV0YWxfYmluZGluZycsICctaW1hZScsICc8aW5maWxlLm1hZT4nLCAnLW9tYWUnLCAnPG91dGZpbGUubWFlPic=

> <r_lp_tautomer_probability>
1

> <r_epik_Ionization_Penalty>
0.403509

> <r_epik_Ionization_Penalty_Charging>
0.40072

> <r_epik_Ionization_Penalty_Neutral>
0.00278876

> <r_epik_State_Penalty>
0.400058

> <r_epik_Charging_Adjusted_Penalty>
0.800778

> <i_epik_Tot_Q>
1

> <i_epik_Tot_abs_Q>
1

> <r_epik_Metal_State_Penalty>
0.400321

> <b_epik_Metal_Only>
0

> <s_lp_Force_Field>
OPLS_2005

> <r_lp_Energy>
47.9216

> <b_lp_Chiralities_Consistent>
1

> <s_lp_Variant>
AV-unprocessed.smi:153-7

> <Gold.Version>
5.8.1

> <Gold.Id.Protein>
6NUR|6NUR_protein|mol2

> <Gold.PLP.Fitness>
52.9522

> <Gold.PLP.PLP>
-42.1647

> <Gold.PLP.part.hbond>
-4.0000

> <Gold.PLP.part.metal>
0.0000

> <Gold.PLP.part.buried>
1.0131

> <Gold.PLP.part.nonpolar>
-39.6312

> <Gold.PLP.part.repulsive>
0.4391

> <Gold.PLP.ligand.clash>
0.0000

> <Gold.PLP.ligand.torsion>
2.3096

> <Gold.PLP.Chemscore.Hbond>
3.9120

> <Gold.PLP.Chemscore.CHOScore>
1.0000

> <Gold.PLP.Chemscore.Metal>
0.0000

> <Gold.Chemscore.Hbonds>
donor molecule, donor type, donor heavy atom, donor atom, acceptor molecule, acceptor atom, score
      L1  H    18    48       P1 10171  1.00
      L1  H    20    60       P1  7948  1.70
      P1  H  7954  7966       L1    18  0.75
      L1  C    10    41       P1  8028  1.00

> <Gold.PLP.Chemscore.Internal.Correction>
0.6708

> <Gold.Rescore>
     Score         DG    S(hbond)    S(metal)    S(lipo)     H(rot)  DE(clash)    DE(int)     intcor
     12.65     -18.64       2.88        0.00     109.35       3.62       2.73       3.26       ----

> <Gold.Chemscore.Fitness>
12.6519

> <Gold.Chemscore.DG>
-18.6375

> <Gold.Chemscore.ZeroCoef>
-5.4800

> <Gold.Chemscore.Hbond>
2.8819

> <Gold.Chemscore.Metal>
0.0000

> <Gold.Chemscore.Lipo>
109.3538

> <Gold.Chemscore.Internal_Hbond>
0.0000

> <Gold.Chemscore.DEClash>
2.7275

> <Gold.Chemscore.DEInternal>
3.2581

> <Gold.Chemscore.Rot>
3.6182

> <Gold.Chemscore.Internal.Correction>
   9.000000E+99

> <Gold.Chemscore.Hbonds>
donor molecule, donor type, donor heavy atom, donor atom, acceptor molecule, acceptor atom, score
      L1  H    18    48       P1 10171  0.98
      L1  H    20    60       P1  7948  0.83
      P1  H  7954  7966       L1    18  0.62

> <Gold.Chemscore.Hbond.Weighted>
-9.6256

> <Gold.Chemscore.Metal.Weighted>
-0.0000

> <Gold.Chemscore.Lipo.Weighted>
-12.7944

> <Gold.Chemscore.Internal_Hbond.Weighted>
0.0000

> <Gold.Chemscore.DEClash.Weighted>
2.7275

> <Gold.Chemscore.DEInternal.Weighted>
3.2581

> <Gold.Chemscore.Rot.Weighted>
9.2625

> <Gold.Chemscore.Internal.Correction.Weighted>
   9.000000E+99

> <Gold.Protein.RotatedTorsions>
[ 6907 6896 6895 6894 ] final -153.35 input  -60.11 | X-H torsion
[ 7974 7965 7964 7962 ] final  100.41 input  175.53 | X-H torsion
[ 8008 7997 7996 7995 ] final  130.79 input   59.86 | X-H torsion
[ 10167 10162 10161 10158 ] final  111.90 input  -65.29 | X-H torsion
[ 10718 10713 10712 10709 ] final   49.17 input   66.30 | X-H torsion
[ 10763 10752 10751 10750 ] final  -69.99 input  -60.55 | X-H torsion
[ 11005 11000 10999 10996 ] final  -19.56 input  -57.11 | X-H torsion

> <Gold.Protein.ActiveResidues>
 VAL166  LYS551  ARG553  GLY616  TRP617  ASP618  TYR619  PRO620  LYS621  CYS622 
 ASP623  PHE694  ASN695  SER759  ASP760  ASP761  ALA762  ILE779  LEU786  VAL792 
 PHE793  MET794  SER795  GLU796  ALA797  LYS798  CYS799  TRP800  GLU811  SER814 

> <Gold.Protein.RotatedAtoms>
  151.2413  133.4398  159.2607 H   0  0  0  0  0  0  0  0  0  0  0  0  # atno 6907 bound_to 6896
  151.0703  134.9794  159.8315 H   0  0  0  0  0  0  0  0  0  0  0  0  # atno 6908 bound_to 6896
  152.5411  134.2359  159.8896 H   0  0  0  0  0  0  0  0  0  0  0  0  # atno 6909 bound_to 6896
  145.3860  139.2371  143.3378 H   0  0  0  0  0  0  0  0  0  0  0  0  # atno 7974 bound_to 7965
  156.2960  140.2587  156.2819 H   0  0  0  0  0  0  0  0  0  0  0  0  # atno 8008 bound_to 7997
  154.9594  140.0393  157.2201 H   0  0  0  0  0  0  0  0  0  0  0  0  # atno 8009 bound_to 7997
  154.7961  140.2820  155.5960 H   0  0  0  0  0  0  0  0  0  0  0  0  # atno 8010 bound_to 7997
  139.6576  144.7129  151.1927 H   0  0  0  0  0  0  0  0  0  0  0  0  # atno 10167 bound_to 10162
  157.4759  130.8285  149.8039 H   0  0  0  0  0  0  0  0  0  0  0  0  # atno 10718 bound_to 10713
  154.4112  135.6008  153.5954 H   0  0  0  0  0  0  0  0  0  0  0  0  # atno 10763 bound_to 10752
  152.9790  135.5930  154.4067 H   0  0  0  0  0  0  0  0  0  0  0  0  # atno 10764 bound_to 10752
  154.3880  135.2841  155.2150 H   0  0  0  0  0  0  0  0  0  0  0  0  # atno 10765 bound_to 10752
  140.8379  133.7948  155.9829 H   0  0  0  0  0  0  0  0  0  0  0  0  # atno 11005 bound_to 11000
  146.2820  140.4535  142.8772 LP  0  0  0  0  0  0  0  0  0  0  0  0  # atno 17320 bound_to 7965
  144.8474  140.6949  143.6190 LP  0  0  0  0  0  0  0  0  0  0  0  0  # atno 17321 bound_to 7965
  140.7566  143.6047  150.8665 LP  0  0  0  0  0  0  0  0  0  0  0  0  # atno 17342 bound_to 10162
  139.9701  143.6066  152.2976 LP  0  0  0  0  0  0  0  0  0  0  0  0  # atno 17343 bound_to 10162
  156.0097  130.3839  150.2308 LP  0  0  0  0  0  0  0  0  0  0  0  0  # atno 17370 bound_to 10713
  157.0492  131.0058  151.3259 LP  0  0  0  0  0  0  0  0  0  0  0  0  # atno 17371 bound_to 10713
  140.8927  134.2475  157.5085 LP  0  0  0  0  0  0  0  0  0  0  0  0  # atno 17394 bound_to 11000
  139.8704  134.9669  156.4579 LP  0  0  0  0  0  0  0  0  0  0  0  0  # atno 17395 bound_to 11000

$$$$
