AV-unprocessed.smi:39|AV-procd|sdf|352|dock2
  -GOLD-   2262016193D 1   1.00000     0.00000
 Structure written by MMmdl.
 32 33  0  0  0  0  0  0  0  0  3 V2000
  153.5225  142.9249  159.9599 C   0  0  0  0  0  0  0  0  0  0  0  0
  152.4654  142.6076  158.9149 C   0  0  0  0  0  0  0  0  0  0  0  0
  152.1919  141.3378  158.5185 C   0  0  0  0  0  0  0  0  0  0  0  0
  151.2305  141.0171  157.5665 N   0  0  0  0  0  0  0  0  0  0  0  0
  150.9482  139.5924  157.1295 C   0  0  2  0  0  0  0  0  0  0  0  0
  151.8761  138.6043  157.8569 C   0  0  0  0  0  0  0  0  0  0  0  0
  152.4561  137.7880  156.7149 C   0  0  2  0  0  0  0  0  0  0  0  0
  153.7879  137.2691  157.0407 N   0  0  0  0  0  0  0  0  0  0  0  0
  154.5977  138.0730  157.5211 N   0  3  0  0  0  0  0  0  0  0  0  0
  155.2538  138.8387  158.0490 N   0  5  0  0  0  0  0  0  0  0  0  0
  152.4666  138.8145  155.5792 C   0  0  1  0  0  0  0  0  0  0  0  0
  152.5261  138.2027  154.1708 C   0  0  0  0  0  0  0  0  0  0  0  0
  151.6710  137.0822  154.0998 O   0  0  0  0  0  0  0  0  0  0  0  0
  151.2061  139.4495  155.7640 O   0  0  0  0  0  0  0  0  0  0  0  0
  150.4974  142.0547  156.9544 C   0  0  0  0  0  0  0  0  0  0  0  0
  149.6406  141.8463  156.0961 O   0  0  0  0  0  0  0  0  0  0  0  0
  150.7774  143.3577  157.3611 N   0  0  0  0  0  0  0  0  0  0  0  0
  151.7258  143.7234  158.3185 C   0  0  0  0  0  0  0  0  0  0  0  0
  151.8823  144.9115  158.5955 O   0  0  0  0  0  0  0  0  0  0  0  0
  149.8847  139.4298  157.3148 H   0  0  0  0  0  0  0  0  0  0  0  0
  151.7550  136.9843  156.4766 H   0  0  0  0  0  0  0  0  0  0  0  0
  153.2788  139.5280  155.7343 H   0  0  0  0  0  0  0  0  0  0  0  0
  150.2510  144.1011  156.9260 H   0  0  0  0  0  0  0  0  0  0  0  0
  153.9955  142.0216  160.3463 H   0  0  0  0  0  0  0  0  0  0  0  0
  153.0785  143.4550  160.8033 H   0  0  0  0  0  0  0  0  0  0  0  0
  154.3035  143.5544  159.5321 H   0  0  0  0  0  0  0  0  0  0  0  0
  152.7650  140.5478  158.9796 H   0  0  0  0  0  0  0  0  0  0  0  0
  152.6596  139.1492  158.3869 H   0  0  0  0  0  0  0  0  0  0  0  0
  151.3191  138.0017  158.5749 H   0  0  0  0  0  0  0  0  0  0  0  0
  152.1798  138.9201  153.4274 H   0  0  0  0  0  0  0  0  0  0  0  0
  153.5451  137.9232  153.9012 H   0  0  0  0  0  0  0  0  0  0  0  0
  151.3432  137.0094  153.2166 H   0  0  0  0  0  0  0  0  0  0  0  0
  1  2  1  0  0  0  0
  1 24  1  0  0  0  0
  1 25  1  0  0  0  0
  1 26  1  0  0  0  0
  2 18  1  0  0  0  0
  2  3  2  0  0  0  0
  3  4  1  0  0  0  0
  3 27  1  0  0  0  0
  4  5  1  0  0  0  0
  4 15  1  0  0  0  0
  5 20  1  0  0  0  0
  5 14  1  0  0  0  0
  5  6  1  0  0  0  0
  6  7  1  0  0  0  0
  6 28  1  0  0  0  0
  6 29  1  0  0  0  0
  7 21  1  0  0  0  0
  7  8  1  0  0  0  0
  7 11  1  0  0  0  0
  8  9  2  0  0  0  0
  9 10  2  0  0  0  0
 11 22  1  0  0  0  0
 11 12  1  0  0  0  0
 11 14  1  0  0  0  0
 12 13  1  0  0  0  0
 12 30  1  0  0  0  0
 12 31  1  0  0  0  0
 13 32  1  0  0  0  0
 15 16  2  0  0  0  0
 15 17  1  0  0  0  0
 17 23  1  0  0  0  0
 17 18  1  0  0  0  0
 18 19  2  0  0  0  0
M  CHG  1   9   1
M  CHG  1  10  -1
M  END
> <s_m_source_file>
AV-unprocessed.smi

> <i_m_source_file_index>
39

> <i_lp_mmshare_version>
43012

> <i_f3d_flags>
0

> <s_epik_input>
Tz1jMVtuSF1jKD1PKW4oW2NIXWMxW0NIM10pW0NASF0yW0NIMl1bQ0BIXShOPVtOK109W04tXSlbQ0BIXShPMilbQ0gyXVtPSF0=

> <s_epik_cmdline>
J2VwaWtfcHl0aG9uJywgJy1waCcsICc3LjAnLCAnLXRuJywgJzgnLCAnLW1hJywgJzIwMCcsICctbWV0YWxfYmluZGluZycsICctaW1hZScsICc8aW5maWxlLm1hZT4nLCAnLW9tYWUnLCAnPG91dGZpbGUubWFlPic=

> <r_lp_tautomer_probability>
0.999537

> <r_epik_Ionization_Penalty>
0.00127512

> <r_epik_Ionization_Penalty_Charging>
0.00127507

> <r_epik_Ionization_Penalty_Neutral>
5.43433e-08

> <r_epik_State_Penalty>
0.000844892

> <r_epik_Charging_Adjusted_Penalty>
0.00211996

> <i_epik_Tot_Q>
0

> <i_epik_Tot_abs_Q>
2

> <r_epik_Metal_State_Penalty>
0.680636

> <b_epik_Metal_Only>
0

> <s_epik_Chemistry_Notes>
This compound contains an acetal/aminal-like group ( X-CH(R)-Y where X, Y are N, S, or O) that may be acid/base labile, releasing an aldehyde.

> <s_lp_Force_Field>
OPLS_2005

> <r_lp_Energy>
24.5803

> <b_lp_Chiralities_Consistent>
1

> <s_lp_Variant>
AV-unprocessed.smi:39-2

> <Gold.Version>
5.8.1

> <Gold.Id.Protein>
6NUR|6NUR_protein|mol2

> <Gold.PLP.Fitness>
42.3823

> <Gold.PLP.PLP>
-30.7414

> <Gold.PLP.part.hbond>
-4.8449

> <Gold.PLP.part.metal>
0.0000

> <Gold.PLP.part.buried>
-6.6742

> <Gold.PLP.part.nonpolar>
-21.1439

> <Gold.PLP.part.repulsive>
1.2136

> <Gold.PLP.ligand.clash>
0.0000

> <Gold.PLP.ligand.torsion>
0.1997

> <Gold.PLP.Chemscore.Hbond>
4.0000

> <Gold.PLP.Chemscore.CHOScore>
0.0000

> <Gold.PLP.Chemscore.Metal>
0.0000

> <Gold.Chemscore.Hbonds>
donor molecule, donor type, donor heavy atom, donor atom, acceptor molecule, acceptor atom, score
      L1  H    13    32       P1  7949  1.00
      L1  H    17    23       P1  8028  1.00
      P1  H  7997  8009       L1    10  0.55
      P1  H 10752 10764       L1    13  1.00

> <Gold.PLP.Chemscore.Internal.Correction>
0.0404

> <Gold.Rescore>
     Score         DG    S(hbond)    S(metal)    S(lipo)     H(rot)  DE(clash)    DE(int)     intcor
     12.01     -14.42       2.87        0.00      54.65       2.75       1.39       1.01       ----

> <Gold.Chemscore.Fitness>
12.0124

> <Gold.Chemscore.DG>
-14.4177

> <Gold.Chemscore.ZeroCoef>
-5.4800

> <Gold.Chemscore.Hbond>
2.8711

> <Gold.Chemscore.Metal>
0.0000

> <Gold.Chemscore.Lipo>
54.6516

> <Gold.Chemscore.Internal_Hbond>
0.0000

> <Gold.Chemscore.DEClash>
1.3948

> <Gold.Chemscore.DEInternal>
1.0105

> <Gold.Chemscore.Rot>
2.7524

> <Gold.Chemscore.Internal.Correction>
   9.000000E+99

> <Gold.Chemscore.Hbonds>
donor molecule, donor type, donor heavy atom, donor atom, acceptor molecule, acceptor atom, score
      L1  H    13    32       P1  7949  0.67
      L1  H    17    23       P1  8028  0.92
      P1  H  7997  8009       L1    10  0.40
      P1  H 10752 10764       L1    13  0.13

> <Gold.Chemscore.Hbond.Weighted>
-9.5896

> <Gold.Chemscore.Metal.Weighted>
-0.0000

> <Gold.Chemscore.Lipo.Weighted>
-6.3942

> <Gold.Chemscore.Internal_Hbond.Weighted>
0.0000

> <Gold.Chemscore.DEClash.Weighted>
1.3948

> <Gold.Chemscore.DEInternal.Weighted>
1.0105

> <Gold.Chemscore.Rot.Weighted>
7.0461

> <Gold.Chemscore.Internal.Correction.Weighted>
   9.000000E+99

> <Gold.Protein.RotatedTorsions>
[ 6907 6896 6895 6894 ] final  124.21 input  -60.11 | X-H torsion
[ 7974 7965 7964 7962 ] final   36.38 input  175.53 | X-H torsion
[ 8008 7997 7996 7995 ] final  107.12 input   59.86 | X-H torsion
[ 10167 10162 10161 10158 ] final  146.05 input  -65.29 | X-H torsion
[ 10718 10713 10712 10709 ] final  163.36 input   66.30 | X-H torsion
[ 10763 10752 10751 10750 ] final  -77.90 input  -60.55 | X-H torsion
[ 11005 11000 10999 10996 ] final   30.04 input  -57.11 | X-H torsion

> <Gold.Protein.ActiveResidues>
 VAL166  LYS551  ARG553  GLY616  TRP617  ASP618  TYR619  PRO620  LYS621  CYS622 
 ASP623  PHE694  ASN695  SER759  ASP760  ASP761  ALA762  ILE779  LEU786  VAL792 
 PHE793  MET794  SER795  GLU796  ALA797  LYS798  CYS799  TRP800  GLU811  SER814 

> <Gold.Protein.RotatedAtoms>
  152.4097  133.6944  159.6386 H   0  0  0  0  0  0  0  0  0  0  0  0  # atno 6907 bound_to 6896
  150.7978  133.8646  159.3250 H   0  0  0  0  0  0  0  0  0  0  0  0  # atno 6908 bound_to 6896
  151.6391  135.1016  160.0189 H   0  0  0  0  0  0  0  0  0  0  0  0  # atno 6909 bound_to 6896
  146.1215  139.6025  142.9286 H   0  0  0  0  0  0  0  0  0  0  0  0  # atno 7974 bound_to 7965
  156.1799  140.3100  155.9128 H   0  0  0  0  0  0  0  0  0  0  0  0  # atno 8008 bound_to 7997
  155.3407  140.0465  157.3062 H   0  0  0  0  0  0  0  0  0  0  0  0  # atno 8009 bound_to 7997
  154.5331  140.2237  155.8780 H   0  0  0  0  0  0  0  0  0  0  0  0  # atno 8010 bound_to 7997
  139.4914  144.5857  151.6782 H   0  0  0  0  0  0  0  0  0  0  0  0  # atno 10167 bound_to 10162
  157.1096  131.0464  151.2463 H   0  0  0  0  0  0  0  0  0  0  0  0  # atno 10718 bound_to 10713
  154.5190  135.5748  153.6665 H   0  0  0  0  0  0  0  0  0  0  0  0  # atno 10763 bound_to 10752
  152.9913  135.6177  154.2780 H   0  0  0  0  0  0  0  0  0  0  0  0  # atno 10764 bound_to 10752
  154.2700  135.2853  155.2722 H   0  0  0  0  0  0  0  0  0  0  0  0  # atno 10765 bound_to 10752
  140.2986  134.2782  155.7759 H   0  0  0  0  0  0  0  0  0  0  0  0  # atno 11005 bound_to 11000
  145.5455  141.0417  143.2307 LP  0  0  0  0  0  0  0  0  0  0  0  0  # atno 17320 bound_to 7965
  144.7602  139.6976  143.7237 LP  0  0  0  0  0  0  0  0  0  0  0  0  # atno 17321 bound_to 7965
  140.5473  144.0482  150.6112 LP  0  0  0  0  0  0  0  0  0  0  0  0  # atno 17342 bound_to 10162
  140.3525  143.2955  152.0472 LP  0  0  0  0  0  0  0  0  0  0  0  0  # atno 17343 bound_to 10162
  157.4570  130.7631  149.7202 LP  0  0  0  0  0  0  0  0  0  0  0  0  # atno 17370 bound_to 10713
  155.9853  130.3984  150.3266 LP  0  0  0  0  0  0  0  0  0  0  0  0  # atno 17371 bound_to 10713
  141.2132  133.7631  156.9733 LP  0  0  0  0  0  0  0  0  0  0  0  0  # atno 17394 bound_to 11000
  140.1130  134.9465  157.2093 LP  0  0  0  0  0  0  0  0  0  0  0  0  # atno 17395 bound_to 11000

$$$$
