AV-unprocessed.smi:1186|AV-procd|sdf|4975|dock5
  -GOLD-   22720 3573D 1   1.00000     0.00000
 Structure written by MMmdl.
 39 40  0  0  0  0  0  0  0  0  1 V2000
  150.3083  136.5202  156.2019 O   0  0  0  0  0  0  0  0  0  0  0  0
  150.0046  136.4936  155.0093 C   0  0  0  0  0  0  0  0  0  0  0  0
  150.4618  137.3648  154.0993 N   0  0  0  0  0  0  0  0  0  0  0  0
  151.3896  138.4551  154.3846 C   0  0  0  0  0  0  0  0  0  0  0  0
  150.7557  139.6839  155.0247 C   0  0  0  0  0  0  0  0  0  0  0  0
  149.5535  140.2466  154.5442 C   0  0  0  0  0  0  0  0  0  0  0  0
  149.0401  141.3841  155.1938 C   0  0  0  0  0  0  0  0  0  0  0  0
  149.6324  141.9583  156.2611 N   0  0  0  0  0  0  0  0  0  0  0  0
  150.7786  141.4178  156.7434 C   0  0  0  0  0  0  0  0  0  0  0  0
  151.3828  142.0208  157.8675 N   0  0  0  0  0  0  0  0  0  0  0  0
  152.4595  141.2942  158.5376 C   0  0  0  0  0  0  0  0  0  0  0  0
  152.7991  141.9596  159.8819 C   0  0  0  0  0  0  0  0  0  0  0  0
  153.1136  143.3319  159.6707 O   0  0  0  0  0  0  0  0  0  0  0  0
  152.0141  144.0477  159.1172 C   0  0  0  0  0  0  0  0  0  0  0  0
  151.6389  143.4539  157.7484 C   0  0  0  0  0  0  0  0  0  0  0  0
  151.3698  140.2789  156.1459 C   0  0  0  0  0  0  0  0  0  0  0  0
  149.1863  135.5856  154.4610 N   0  0  0  0  0  0  0  0  0  0  0  0
  148.5658  134.4771  155.1792 C   0  0  0  0  0  0  0  0  0  0  0  0
  148.8502  133.1248  154.5040 C   0  0  0  0  0  0  0  0  0  0  0  0
  148.0120  132.2096  154.9886 F   0  0  0  0  0  0  0  0  0  0  0  0
  148.6639  133.2192  153.1873 F   0  0  0  0  0  0  0  0  0  0  0  0
  150.0993  132.7261  154.7427 F   0  0  0  0  0  0  0  0  0  0  0  0
  150.1587  137.2624  153.1420 H   0  0  0  0  0  0  0  0  0  0  0  0
  152.1569  138.0778  155.0606 H   0  0  0  0  0  0  0  0  0  0  0  0
  151.9041  138.7456  153.4668 H   0  0  0  0  0  0  0  0  0  0  0  0
  149.0314  139.8287  153.6965 H   0  0  0  0  0  0  0  0  0  0  0  0
  148.1261  141.8442  154.8483 H   0  0  0  0  0  0  0  0  0  0  0  0
  152.1642  140.2584  158.7107 H   0  0  0  0  0  0  0  0  0  0  0  0
  153.3414  141.2802  157.8958 H   0  0  0  0  0  0  0  0  0  0  0  0
  151.9676  141.8688  160.5826 H   0  0  0  0  0  0  0  0  0  0  0  0
  153.6560  141.4649  160.3393 H   0  0  0  0  0  0  0  0  0  0  0  0
  151.1641  144.0153  159.8007 H   0  0  0  0  0  0  0  0  0  0  0  0
  152.2933  145.0956  159.0071 H   0  0  0  0  0  0  0  0  0  0  0  0
  152.4540  143.6068  157.0398 H   0  0  0  0  0  0  0  0  0  0  0  0
  150.7742  143.9873  157.3560 H   0  0  0  0  0  0  0  0  0  0  0  0
  152.2933  139.8687  156.5271 H   0  0  0  0  0  0  0  0  0  0  0  0
  149.0005  135.6457  153.4707 H   0  0  0  0  0  0  0  0  0  0  0  0
  148.8956  134.4596  156.2192 H   0  0  0  0  0  0  0  0  0  0  0  0
  147.4905  134.6559  155.2027 H   0  0  0  0  0  0  0  0  0  0  0  0
  1  2  2  0  0  0  0
  2  3  1  0  0  0  0
  2 17  1  0  0  0  0
  3  4  1  0  0  0  0
  3 23  1  0  0  0  0
  4  5  1  0  0  0  0
  4 24  1  0  0  0  0
  4 25  1  0  0  0  0
  5 16  1  0  0  0  0
  5  6  2  0  0  0  0
  6  7  1  0  0  0  0
  6 26  1  0  0  0  0
  7  8  2  0  0  0  0
  7 27  1  0  0  0  0
  8  9  1  0  0  0  0
  9 10  1  0  0  0  0
  9 16  2  0  0  0  0
 10 15  1  0  0  0  0
 10 11  1  0  0  0  0
 11 12  1  0  0  0  0
 11 28  1  0  0  0  0
 11 29  1  0  0  0  0
 12 13  1  0  0  0  0
 12 30  1  0  0  0  0
 12 31  1  0  0  0  0
 13 14  1  0  0  0  0
 14 15  1  0  0  0  0
 14 32  1  0  0  0  0
 14 33  1  0  0  0  0
 15 34  1  0  0  0  0
 15 35  1  0  0  0  0
 16 36  1  0  0  0  0
 17 18  1  0  0  0  0
 17 37  1  0  0  0  0
 18 19  1  0  0  0  0
 18 38  1  0  0  0  0
 18 39  1  0  0  0  0
 19 20  1  0  0  0  0
 19 21  1  0  0  0  0
 19 22  1  0  0  0  0
M  END
> <s_m_source_file>
AV-unprocessed.smi

> <i_m_source_file_index>
1186

> <i_lp_mmshare_version>
43012

> <i_f3d_flags>
0

> <s_epik_input>
RkMoRikoRilbQ0gyXVtOSF1DKD1PKVtOSF1bQ0gyXWMxW2NIXVtjSF1uYyhbY0hdMSlOMltDSDJdW0NIMl1PW0NIMl1bQ0gyXTI=

> <s_epik_cmdline>
J2VwaWtfcHl0aG9uJywgJy1waCcsICc3LjAnLCAnLXRuJywgJzgnLCAnLW1hJywgJzIwMCcsICctbWV0YWxfYmluZGluZycsICctaW1hZScsICc8aW5maWxlLm1hZT4nLCAnLW9tYWUnLCAnPG91dGZpbGUubWFlPic=

> <r_lp_tautomer_probability>
1

> <r_epik_Ionization_Penalty>
0.00300827

> <r_epik_Ionization_Penalty_Charging>
0

> <r_epik_Ionization_Penalty_Neutral>
0.00300827

> <r_epik_State_Penalty>
0.0020903

> <r_epik_Charging_Adjusted_Penalty>
0.0020903

> <i_epik_Tot_Q>
0

> <i_epik_Tot_abs_Q>
0

> <r_epik_Metal_State_Penalty>
-0

> <b_epik_Metal_Only>
0

> <s_lp_Force_Field>
OPLS_2005

> <r_lp_Energy>
10.4369

> <b_lp_Chiralities_Consistent>
1

> <s_lp_Variant>
AV-unprocessed.smi:1186-1

> <Gold.Version>
5.8.1

> <Gold.Id.Protein>
6NUR|6NUR_protein|mol2

> <Gold.PLP.Fitness>
46.6291

> <Gold.PLP.PLP>
-42.1044

> <Gold.PLP.part.hbond>
-2.9177

> <Gold.PLP.part.metal>
0.0000

> <Gold.PLP.part.buried>
-5.7534

> <Gold.PLP.part.nonpolar>
-35.1013

> <Gold.PLP.part.repulsive>
1.5685

> <Gold.PLP.ligand.clash>
0.0000

> <Gold.PLP.ligand.torsion>
0.6430

> <Gold.PLP.Chemscore.Hbond>
1.8160

> <Gold.PLP.Chemscore.CHOScore>
0.0000

> <Gold.PLP.Chemscore.Metal>
0.0000

> <Gold.Chemscore.Hbonds>
donor molecule, donor type, donor heavy atom, donor atom, acceptor molecule, acceptor atom, score
      L1  H     3    23       P1  7948  0.70
      L1  H    17    37       P1  7948  1.00

> <Gold.PLP.Chemscore.Internal.Correction>
0.3627

> <Gold.Rescore>
     Score         DG    S(hbond)    S(metal)    S(lipo)     H(rot)  DE(clash)    DE(int)     intcor
     14.51     -15.32       1.57        0.00      84.92       2.09       0.04       0.76       ----

> <Gold.Chemscore.Fitness>
14.5147

> <Gold.Chemscore.DG>
-15.3161

> <Gold.Chemscore.ZeroCoef>
-5.4800

> <Gold.Chemscore.Hbond>
1.5722

> <Gold.Chemscore.Metal>
0.0000

> <Gold.Chemscore.Lipo>
84.9159

> <Gold.Chemscore.Internal_Hbond>
0.0000

> <Gold.Chemscore.DEClash>
0.0407

> <Gold.Chemscore.DEInternal>
0.7607

> <Gold.Chemscore.Rot>
2.0899

> <Gold.Chemscore.Internal.Correction>
   9.000000E+99

> <Gold.Chemscore.Hbonds>
donor molecule, donor type, donor heavy atom, donor atom, acceptor molecule, acceptor atom, score
      L1  H     3    23       P1  7948  0.08
      L1  H    17    37       P1  7948  0.82

> <Gold.Chemscore.Hbond.Weighted>
-5.2512

> <Gold.Chemscore.Metal.Weighted>
-0.0000

> <Gold.Chemscore.Lipo.Weighted>
-9.9352

> <Gold.Chemscore.Internal_Hbond.Weighted>
0.0000

> <Gold.Chemscore.DEClash.Weighted>
0.0407

> <Gold.Chemscore.DEInternal.Weighted>
0.7607

> <Gold.Chemscore.Rot.Weighted>
5.3502

> <Gold.Chemscore.Internal.Correction.Weighted>
   9.000000E+99

> <Gold.Protein.RotatedTorsions>
[ 6907 6896 6895 6894 ] final  -93.38 input  -60.11 | X-H torsion
[ 7974 7965 7964 7962 ] final  121.41 input  175.53 | X-H torsion
[ 8008 7997 7996 7995 ] final   64.63 input   59.86 | X-H torsion
[ 10167 10162 10161 10158 ] final   27.36 input  -65.29 | X-H torsion
[ 10718 10713 10712 10709 ] final   65.39 input   66.30 | X-H torsion
[ 10763 10752 10751 10750 ] final   51.20 input  -60.55 | X-H torsion
[ 11005 11000 10999 10996 ] final  125.73 input  -57.11 | X-H torsion

> <Gold.Protein.ActiveResidues>
 VAL166  LYS551  ARG553  GLY616  TRP617  ASP618  TYR619  PRO620  LYS621  CYS622 
 ASP623  PHE694  ASN695  SER759  ASP760  ASP761  ALA762  ILE779  LEU786  VAL792 
 PHE793  MET794  SER795  GLU796  ALA797  LYS798  CYS799  TRP800  GLU811  SER814 

> <Gold.Protein.RotatedAtoms>
  150.6921  134.1977  159.4309 H   0  0  0  0  0  0  0  0  0  0  0  0  # atno 6907 bound_to 6896
  151.9945  134.9959  160.0572 H   0  0  0  0  0  0  0  0  0  0  0  0  # atno 6908 bound_to 6896
  152.1637  133.4563  159.4910 H   0  0  0  0  0  0  0  0  0  0  0  0  # atno 6909 bound_to 6896
  145.1196  139.3398  143.4721 H   0  0  0  0  0  0  0  0  0  0  0  0  # atno 7974 bound_to 7965
  155.6490  140.3497  155.4741 H   0  0  0  0  0  0  0  0  0  0  0  0  # atno 8008 bound_to 7997
  155.9863  140.1184  157.0703 H   0  0  0  0  0  0  0  0  0  0  0  0  # atno 8009 bound_to 7997
  154.4206  140.1128  156.5490 H   0  0  0  0  0  0  0  0  0  0  0  0  # atno 8010 bound_to 7997
  140.4945  144.0414  150.6309 H   0  0  0  0  0  0  0  0  0  0  0  0  # atno 10167 bound_to 10162
  157.6102  130.9211  149.9970 H   0  0  0  0  0  0  0  0  0  0  0  0  # atno 10718 bound_to 10713
  152.9785  135.5853  154.4377 H   0  0  0  0  0  0  0  0  0  0  0  0  # atno 10763 bound_to 10752
  154.3982  135.2768  155.2114 H   0  0  0  0  0  0  0  0  0  0  0  0  # atno 10764 bound_to 10752
  154.3957  135.6115  153.5922 H   0  0  0  0  0  0  0  0  0  0  0  0  # atno 10765 bound_to 10752
  139.9421  134.9634  156.8602 H   0  0  0  0  0  0  0  0  0  0  0  0  # atno 11005 bound_to 11000
  146.3522  140.1150  142.8602 LP  0  0  0  0  0  0  0  0  0  0  0  0  # atno 17320 bound_to 7965
  145.0755  140.9185  143.4856 LP  0  0  0  0  0  0  0  0  0  0  0  0  # atno 17321 bound_to 7965
  140.3693  143.2864  152.0296 LP  0  0  0  0  0  0  0  0  0  0  0  0  # atno 17342 bound_to 10162
  139.4858  144.6243  151.7196 LP  0  0  0  0  0  0  0  0  0  0  0  0  # atno 17343 bound_to 10162
  156.1202  130.3646  149.9900 LP  0  0  0  0  0  0  0  0  0  0  0  0  # atno 17370 bound_to 10713
  156.7982  130.9281  151.3646 LP  0  0  0  0  0  0  0  0  0  0  0  0  # atno 17371 bound_to 10713
  140.5926  134.0247  155.7505 LP  0  0  0  0  0  0  0  0  0  0  0  0  # atno 17394 bound_to 11000
  141.1059  133.9695  157.2998 LP  0  0  0  0  0  0  0  0  0  0  0  0  # atno 17395 bound_to 11000

$$$$
