AV-unprocessed.smi:658|AV-procd|sdf|3235|dock2
  -GOLD-   22720 0183D 1   1.00000     0.00000
 Structure written by MMmdl.
 37 37  0  0  0  0  0  0  0  0  3 V2000
  147.5707  133.3217  153.3055 C   0  0  0  0  0  0  0  0  0  0  0  0
  146.5917  134.4894  153.0875 C   0  0  1  0  0  0  0  0  0  0  0  0
  147.2209  135.7393  153.5679 N   0  3  0  0  0  0  0  0  0  0  0  0
  147.9893  135.6061  154.8221 C   0  0  0  0  0  0  0  0  0  0  0  0
  148.3538  136.9811  155.3924 C   0  0  0  0  0  0  0  0  0  0  0  0
  149.1596  137.8363  154.4008 C   0  0  0  0  0  0  0  0  0  0  0  0
  150.8946  138.0925  154.9691 S   0  0  0  0  0  0  0  0  0  0  0  0
  151.6764  137.0338  154.0359 N   0  5  0  0  0  0  0  0  0  0  0  0
  151.2359  139.4862  154.6444 O   0  0  0  0  0  0  0  0  0  0  0  0
  150.9119  137.6941  156.3841 O   0  0  0  0  0  0  0  0  0  0  0  0
  146.1479  134.6452  151.6081 C   0  0  2  0  0  0  0  0  0  0  0  0
  145.4035  135.9685  151.3442 C   0  0  0  0  0  0  0  0  0  0  0  0
  145.3371  133.5201  151.1603 N   0  0  0  0  0  0  0  0  0  0  0  0
  145.7330  132.2192  150.9248 C   0  0  0  0  0  0  0  0  0  0  0  0
  144.6295  131.5225  150.5232 C   0  0  0  0  0  0  0  0  0  0  0  0
  143.5914  132.4951  150.5384 C   0  0  0  0  0  0  0  0  0  0  0  0
  144.0172  133.6886  150.9187 N   0  0  0  0  0  0  0  0  0  0  0  0
  147.1170  132.3608  153.0621 H   0  0  0  0  0  0  0  0  0  0  0  0
  147.8886  133.2673  154.3472 H   0  0  0  0  0  0  0  0  0  0  0  0
  148.4640  133.4338  152.6900 H   0  0  0  0  0  0  0  0  0  0  0  0
  145.7070  134.2820  153.6925 H   0  0  0  0  0  0  0  0  0  0  0  0
  147.8417  136.0865  152.8511 H   0  0  0  0  0  0  0  0  0  0  0  0
  147.4137  135.0398  155.5558 H   0  0  0  0  0  0  0  0  0  0  0  0
  148.8974  135.0375  154.6176 H   0  0  0  0  0  0  0  0  0  0  0  0
  147.4346  137.5085  155.6494 H   0  0  0  0  0  0  0  0  0  0  0  0
  148.9060  136.8585  156.3248 H   0  0  0  0  0  0  0  0  0  0  0  0
  149.2126  137.3415  153.4314 H   0  0  0  0  0  0  0  0  0  0  0  0
  148.7036  138.8141  154.2433 H   0  0  0  0  0  0  0  0  0  0  0  0
  151.1554  136.9360  153.1564 H   0  0  0  0  0  0  0  0  0  0  0  0
  147.0461  134.6466  150.9880 H   0  0  0  0  0  0  0  0  0  0  0  0
  146.0399  136.8325  151.5357 H   0  0  0  0  0  0  0  0  0  0  0  0
  144.5188  136.0631  151.9748 H   0  0  0  0  0  0  0  0  0  0  0  0
  145.0781  136.0328  150.3051 H   0  0  0  0  0  0  0  0  0  0  0  0
  146.7552  131.8985  151.0621 H   0  0  0  0  0  0  0  0  0  0  0  0
  144.5722  130.4773  150.2576 H   0  0  0  0  0  0  0  0  0  0  0  0
  142.5486  132.3704  150.2865 H   0  0  0  0  0  0  0  0  0  0  0  0
  146.4920  136.4227  153.7164 H   0  0  0  0  0  0  0  0  0  0  0  0
  1  2  1  0  0  0  0
  1 18  1  0  0  0  0
  1 19  1  0  0  0  0
  1 20  1  0  0  0  0
  2  3  1  0  0  0  0
  2 11  1  0  0  0  0
  2 21  1  0  0  0  0
  3  4  1  0  0  0  0
  3 22  1  0  0  0  0
  3 37  1  0  0  0  0
  4  5  1  0  0  0  0
  4 23  1  0  0  0  0
  4 24  1  0  0  0  0
  5  6  1  0  0  0  0
  5 25  1  0  0  0  0
  5 26  1  0  0  0  0
  6  7  1  0  0  0  0
  6 27  1  0  0  0  0
  6 28  1  0  0  0  0
  7  8  1  0  0  0  0
  7  9  2  0  0  0  0
  7 10  2  0  0  0  0
  8 29  1  0  0  0  0
 11 12  1  0  0  0  0
 11 13  1  0  0  0  0
 11 30  1  0  0  0  0
 12 31  1  0  0  0  0
 12 32  1  0  0  0  0
 12 33  1  0  0  0  0
 13 17  1  0  0  0  0
 13 14  1  0  0  0  0
 14 15  2  0  0  0  0
 14 34  1  0  0  0  0
 15 16  1  0  0  0  0
 15 35  1  0  0  0  0
 16 17  2  0  0  0  0
 16 36  1  0  0  0  0
M  CHG  1   3   1
M  CHG  1   8  -1
M  END
> <s_m_source_file>
AV-unprocessed.smi

> <i_m_source_file_index>
658

> <i_lp_mmshare_version>
43012

> <i_f3d_flags>
0

> <s_epik_input>
bjFbY0hdW2NIXVtjSF1uMVtDQEBIXShbQ0gzXSlbQ0BIXShbQ0gzXSlbTkhdW0NIMl1bQ0gyXVtDSDJdUyg9TykoPU8pW05IMl0=

> <s_epik_cmdline>
J2VwaWtfcHl0aG9uJywgJy1waCcsICc3LjAnLCAnLXRuJywgJzgnLCAnLW1hJywgJzIwMCcsICctbWV0YWxfYmluZGluZycsICctaW1hZScsICc8aW5maWxlLm1hZT4nLCAnLW9tYWUnLCAnPG91dGZpbGUubWFlPic=

> <r_lp_tautomer_probability>
1

> <r_epik_Ionization_Penalty>
4.63642

> <r_epik_Ionization_Penalty_Charging>
4.63641

> <r_epik_Ionization_Penalty_Neutral>
1.08396e-05

> <r_epik_State_Penalty>
4.63466

> <r_epik_Charging_Adjusted_Penalty>
9.27106

> <i_epik_Tot_Q>
0

> <i_epik_Tot_abs_Q>
2

> <r_epik_Metal_State_Penalty>
0.890424

> <b_epik_Metal_Only>
1

> <s_lp_Force_Field>
OPLS_2005

> <r_lp_Energy>
-2.21025

> <b_lp_Chiralities_Consistent>
1

> <s_lp_Variant>
AV-unprocessed.smi:658-6

> <Gold.Version>
5.8.1

> <Gold.Id.Protein>
6NUR|6NUR_protein|mol2

> <Gold.PLP.Fitness>
47.5465

> <Gold.PLP.PLP>
-26.8530

> <Gold.PLP.part.hbond>
-3.9307

> <Gold.PLP.part.metal>
0.0000

> <Gold.PLP.part.buried>
-2.5406

> <Gold.PLP.part.nonpolar>
-20.5706

> <Gold.PLP.part.repulsive>
0.2420

> <Gold.PLP.ligand.clash>
0.0000

> <Gold.PLP.ligand.torsion>
1.3191

> <Gold.PLP.Chemscore.Hbond>
5.8160

> <Gold.PLP.Chemscore.CHOScore>
1.8995

> <Gold.PLP.Chemscore.Metal>
0.0000

> <Gold.Chemscore.Hbonds>
donor molecule, donor type, donor heavy atom, donor atom, acceptor molecule, acceptor atom, score
      L1  H     3    22       P1  7948  1.79
      L1  H     8    29       P1  7949  0.85
      P1  H  7989  7998       L1     9  1.00
      P1  H 10752 10764       L1     8  2.00
      L1  C    14    34       P1 10747  0.89
      L1  C    16    36       P1 10186  0.58
      L1  C    16    36       P1 10952  0.46

> <Gold.PLP.Chemscore.Internal.Correction>
0.1853

> <Gold.Rescore>
     Score         DG    S(hbond)    S(metal)    S(lipo)     H(rot)  DE(clash)    DE(int)     intcor
     14.78     -15.87       3.64        0.00      51.47       3.04       0.07       1.02       ----

> <Gold.Chemscore.Fitness>
14.7803

> <Gold.Chemscore.DG>
-15.8696

> <Gold.Chemscore.ZeroCoef>
-5.4800

> <Gold.Chemscore.Hbond>
3.6385

> <Gold.Chemscore.Metal>
0.0000

> <Gold.Chemscore.Lipo>
51.4691

> <Gold.Chemscore.Internal_Hbond>
0.0000

> <Gold.Chemscore.DEClash>
0.0720

> <Gold.Chemscore.DEInternal>
1.0174

> <Gold.Chemscore.Rot>
3.0409

> <Gold.Chemscore.Internal.Correction>
   9.000000E+99

> <Gold.Chemscore.Hbonds>
donor molecule, donor type, donor heavy atom, donor atom, acceptor molecule, acceptor atom, score
      L1  H     3    22       P1  7948  0.87
      L1  H     8    29       P1  7949  0.41
      P1  H  7989  7998       L1     9  1.00
      P1  H 10752 10764       L1     8  0.78

> <Gold.Chemscore.Hbond.Weighted>
-12.1525

> <Gold.Chemscore.Metal.Weighted>
-0.0000

> <Gold.Chemscore.Lipo.Weighted>
-6.0219

> <Gold.Chemscore.Internal_Hbond.Weighted>
0.0000

> <Gold.Chemscore.DEClash.Weighted>
0.0720

> <Gold.Chemscore.DEInternal.Weighted>
1.0174

> <Gold.Chemscore.Rot.Weighted>
7.7848

> <Gold.Chemscore.Internal.Correction.Weighted>
   9.000000E+99

> <Gold.Protein.RotatedTorsions>
[ 6907 6896 6895 6894 ] final -148.25 input  -60.11 | X-H torsion
[ 7974 7965 7964 7962 ] final  -81.31 input  175.53 | X-H torsion
[ 8008 7997 7996 7995 ] final   27.07 input   59.86 | X-H torsion
[ 10167 10162 10161 10158 ] final  -58.01 input  -65.29 | X-H torsion
[ 10718 10713 10712 10709 ] final   59.71 input   66.30 | X-H torsion
[ 10763 10752 10751 10750 ] final  -82.98 input  -60.55 | X-H torsion
[ 11005 11000 10999 10996 ] final   95.91 input  -57.11 | X-H torsion

> <Gold.Protein.ActiveResidues>
 VAL166  LYS551  ARG553  GLY616  TRP617  ASP618  TYR619  PRO620  LYS621  CYS622 
 ASP623  PHE694  ASN695  SER759  ASP760  ASP761  ALA762  ILE779  LEU786  VAL792 
 PHE793  MET794  SER795  GLU796  ALA797  LYS798  CYS799  TRP800  GLU811  SER814 

> <Gold.Protein.RotatedAtoms>
  151.1672  133.4807  159.2593 H   0  0  0  0  0  0  0  0  0  0  0  0  # atno 6907 bound_to 6896
  151.1393  135.0171  159.8628 H   0  0  0  0  0  0  0  0  0  0  0  0  # atno 6908 bound_to 6896
  152.5462  134.1567  159.8594 H   0  0  0  0  0  0  0  0  0  0  0  0  # atno 6909 bound_to 6896
  145.5483  140.9500  143.1513 H   0  0  0  0  0  0  0  0  0  0  0  0  # atno 7974 bound_to 7965
  155.0372  140.3165  155.4737 H   0  0  0  0  0  0  0  0  0  0  0  0  # atno 8008 bound_to 7997
  156.2862  140.2169  156.5438 H   0  0  0  0  0  0  0  0  0  0  0  0  # atno 8009 bound_to 7997
  154.7320  140.0480  157.0723 H   0  0  0  0  0  0  0  0  0  0  0  0  # atno 8010 bound_to 7997
  140.6223  143.2424  151.5449 H   0  0  0  0  0  0  0  0  0  0  0  0  # atno 10167 bound_to 10162
  157.5697  130.8898  149.9245 H   0  0  0  0  0  0  0  0  0  0  0  0  # atno 10718 bound_to 10713
  154.5822  135.5572  153.7196 H   0  0  0  0  0  0  0  0  0  0  0  0  # atno 10763 bound_to 10752
  153.0085  135.6323  154.1966 H   0  0  0  0  0  0  0  0  0  0  0  0  # atno 10764 bound_to 10752
  154.1907  135.2882  155.3003 H   0  0  0  0  0  0  0  0  0  0  0  0  # atno 10765 bound_to 10752
  139.8785  134.8923  156.4081 H   0  0  0  0  0  0  0  0  0  0  0  0  # atno 11005 bound_to 11000
  144.7542  139.7116  143.7261 LP  0  0  0  0  0  0  0  0  0  0  0  0  # atno 17320 bound_to 7965
  146.1934  139.5187  142.9790 LP  0  0  0  0  0  0  0  0  0  0  0  0  # atno 17321 bound_to 7965
  139.5449  144.2547  152.1424 LP  0  0  0  0  0  0  0  0  0  0  0  0  # atno 17342 bound_to 10162
  140.1770  144.4881  150.6549 LP  0  0  0  0  0  0  0  0  0  0  0  0  # atno 17343 bound_to 10162
  156.0743  130.3681  150.0711 LP  0  0  0  0  0  0  0  0  0  0  0  0  # atno 17370 bound_to 10713
  156.8865  130.9574  151.3593 LP  0  0  0  0  0  0  0  0  0  0  0  0  # atno 17371 bound_to 10713
  140.9220  133.7638  155.9918 LP  0  0  0  0  0  0  0  0  0  0  0  0  # atno 17394 bound_to 11000
  140.8429  134.3045  157.5306 LP  0  0  0  0  0  0  0  0  0  0  0  0  # atno 17395 bound_to 11000

$$$$
