AV-unprocessed.smi:2204|AV-procd|sdf|8939|dock2
  -GOLD-   2272012153D 1   1.00000     0.00000
 Structure written by MMmdl.
 39 40  0  0  0  0  0  0  0  0  1 V2000
  153.9451  141.1550  160.9866 C   0  0  0  0  0  0  0  0  0  0  0  0
  153.1471  142.2390  160.3246 C   0  0  0  0  0  0  0  0  0  0  0  0
  152.6944  143.4659  160.8844 C   0  0  0  0  0  0  0  0  0  0  0  0
  152.0014  144.0644  159.8703 C   0  0  0  0  0  0  0  0  0  0  0  0
  151.2682  145.3650  159.8460 C   0  0  0  0  0  0  0  0  0  0  0  0
  152.0677  143.2135  158.7804 N   0  0  0  0  0  0  0  0  0  0  0  0
  151.4719  143.3595  157.4576 C   0  0  0  0  0  0  0  0  0  0  0  0
  150.6032  142.1515  157.0920 C   0  0  0  0  0  0  0  0  0  0  0  0
  149.5373  141.9613  157.6766 O   0  0  0  0  0  0  0  0  0  0  0  0
  151.0659  141.3574  156.1138 N   0  0  0  0  0  0  0  0  0  0  0  0
  150.3429  140.2647  155.4704 C   0  0  2  0  0  0  0  0  0  0  0  0
  151.3367  139.2336  154.9170 C   0  0  0  0  0  0  0  0  0  0  0  0
  149.4114  140.8285  154.3775 C   0  0  1  0  0  0  0  0  0  0  0  0
  148.3481  139.8482  153.8629 C   0  0  0  0  0  0  0  0  0  0  0  0
  147.2250  140.7779  153.4650 C   0  0  0  0  0  0  0  0  0  0  0  0
  147.3050  141.8332  154.5605 C   0  0  0  0  0  0  0  0  0  0  0  0
  148.6913  141.9660  154.8558 O   0  0  0  0  0  0  0  0  0  0  0  0
  152.7750  142.0971  159.0634 N   0  0  0  0  0  0  0  0  0  0  0  0
  154.3685  141.4988  161.9305 H   0  0  0  0  0  0  0  0  0  0  0  0
  154.7700  140.8268  160.3536 H   0  0  0  0  0  0  0  0  0  0  0  0
  153.3208  140.2870  161.2000 H   0  0  0  0  0  0  0  0  0  0  0  0
  152.8450  143.8438  161.8848 H   0  0  0  0  0  0  0  0  0  0  0  0
  151.3213  145.8599  160.8162 H   0  0  0  0  0  0  0  0  0  0  0  0
  150.2156  145.2131  159.6054 H   0  0  0  0  0  0  0  0  0  0  0  0
  151.6950  146.0385  159.1026 H   0  0  0  0  0  0  0  0  0  0  0  0
  150.8675  144.2661  157.4238 H   0  0  0  0  0  0  0  0  0  0  0  0
  152.2699  143.4827  156.7237 H   0  0  0  0  0  0  0  0  0  0  0  0
  151.9603  141.5938  155.7091 H   0  0  0  0  0  0  0  0  0  0  0  0
  149.7138  139.7553  156.2024 H   0  0  0  0  0  0  0  0  0  0  0  0
  150.8141  138.4008  154.4458 H   0  0  0  0  0  0  0  0  0  0  0  0
  151.9589  138.8232  155.7130 H   0  0  0  0  0  0  0  0  0  0  0  0
  151.9982  139.6762  154.1715 H   0  0  0  0  0  0  0  0  0  0  0  0
  150.0075  141.1637  153.5275 H   0  0  0  0  0  0  0  0  0  0  0  0
  148.7052  139.2327  153.0370 H   0  0  0  0  0  0  0  0  0  0  0  0
  147.9995  139.1801  154.6509 H   0  0  0  0  0  0  0  0  0  0  0  0
  147.4320  141.2257  152.4923 H   0  0  0  0  0  0  0  0  0  0  0  0
  146.2542  140.2835  153.4190 H   0  0  0  0  0  0  0  0  0  0  0  0
  146.8655  142.7848  154.2615 H   0  0  0  0  0  0  0  0  0  0  0  0
  146.7901  141.4885  155.4575 H   0  0  0  0  0  0  0  0  0  0  0  0
  1  2  1  0  0  0  0
  1 19  1  0  0  0  0
  1 20  1  0  0  0  0
  1 21  1  0  0  0  0
  2 18  2  0  0  0  0
  2  3  1  0  0  0  0
  3  4  2  0  0  0  0
  3 22  1  0  0  0  0
  4  5  1  0  0  0  0
  4  6  1  0  0  0  0
  5 23  1  0  0  0  0
  5 24  1  0  0  0  0
  5 25  1  0  0  0  0
  6  7  1  0  0  0  0
  6 18  1  0  0  0  0
  7  8  1  0  0  0  0
  7 26  1  0  0  0  0
  7 27  1  0  0  0  0
  8  9  2  0  0  0  0
  8 10  1  0  0  0  0
 10 11  1  0  0  0  0
 10 28  1  0  0  0  0
 11 12  1  0  0  0  0
 11 13  1  0  0  0  0
 11 29  1  0  0  0  0
 12 30  1  0  0  0  0
 12 31  1  0  0  0  0
 12 32  1  0  0  0  0
 13 17  1  0  0  0  0
 13 14  1  0  0  0  0
 13 33  1  0  0  0  0
 14 15  1  0  0  0  0
 14 34  1  0  0  0  0
 14 35  1  0  0  0  0
 15 16  1  0  0  0  0
 15 36  1  0  0  0  0
 15 37  1  0  0  0  0
 16 17  1  0  0  0  0
 16 38  1  0  0  0  0
 16 39  1  0  0  0  0
M  END
> <s_m_source_file>
AV-unprocessed.smi

> <i_m_source_file_index>
2204

> <i_lp_mmshare_version>
43012

> <i_f3d_flags>
0

> <s_epik_input>
W0NIM11jMVtjSF1jKFtDSDNdKW4objEpW0NIMl1DKD1PKVtOSF1bQ0BIXShbQ0gzXSlbQ0BASF0yW0NIMl1bQ0gyXVtDSDJdTzI=

> <s_epik_cmdline>
J2VwaWtfcHl0aG9uJywgJy1waCcsICc3LjAnLCAnLXRuJywgJzgnLCAnLW1hJywgJzIwMCcsICctbWV0YWxfYmluZGluZycsICctaW1hZScsICc8aW5maWxlLm1hZT4nLCAnLW9tYWUnLCAnPG91dGZpbGUubWFlPic=

> <r_lp_tautomer_probability>
1

> <r_epik_Ionization_Penalty>
0.000433354

> <r_epik_Ionization_Penalty_Charging>
0

> <r_epik_Ionization_Penalty_Neutral>
0.000433354

> <r_epik_State_Penalty>
-0

> <r_epik_Charging_Adjusted_Penalty>
0

> <i_epik_Tot_Q>
0

> <i_epik_Tot_abs_Q>
0

> <r_epik_Metal_State_Penalty>
-0

> <b_epik_Metal_Only>
0

> <s_lp_Force_Field>
OPLS_2005

> <r_lp_Energy>
16.4317

> <b_lp_Chiralities_Consistent>
1

> <s_lp_Variant>
AV-unprocessed.smi:2204-3

> <Gold.Version>
5.8.1

> <Gold.Id.Protein>
6NUR|6NUR_protein|mol2

> <Gold.PLP.Fitness>
41.4941

> <Gold.PLP.PLP>
-42.6990

> <Gold.PLP.part.hbond>
0.0000

> <Gold.PLP.part.metal>
0.0000

> <Gold.PLP.part.buried>
-4.9281

> <Gold.PLP.part.nonpolar>
-40.4489

> <Gold.PLP.part.repulsive>
2.2467

> <Gold.PLP.ligand.clash>
0.0000

> <Gold.PLP.ligand.torsion>
0.6203

> <Gold.PLP.Chemscore.Hbond>
0.0000

> <Gold.PLP.Chemscore.CHOScore>
0.0000

> <Gold.PLP.Chemscore.Metal>
0.0000

> <Gold.PLP.Chemscore.Internal.Correction>
0.0357

> <Gold.Rescore>
     Score         DG    S(hbond)    S(metal)    S(lipo)     H(rot)  DE(clash)    DE(int)     intcor
     13.04     -14.40       0.00        0.00     109.08       1.50       0.16       1.20       ----

> <Gold.Chemscore.Fitness>
13.0397

> <Gold.Chemscore.DG>
-14.4007

> <Gold.Chemscore.ZeroCoef>
-5.4800

> <Gold.Chemscore.Hbond>
0.0000

> <Gold.Chemscore.Metal>
0.0000

> <Gold.Chemscore.Lipo>
109.0766

> <Gold.Chemscore.Internal_Hbond>
0.0000

> <Gold.Chemscore.DEClash>
0.1599

> <Gold.Chemscore.DEInternal>
1.2012

> <Gold.Chemscore.Rot>
1.5005

> <Gold.Chemscore.Internal.Correction>
   9.000000E+99

> <Gold.Chemscore.Hbond.Weighted>
-0.0000

> <Gold.Chemscore.Metal.Weighted>
-0.0000

> <Gold.Chemscore.Lipo.Weighted>
-12.7620

> <Gold.Chemscore.Internal_Hbond.Weighted>
0.0000

> <Gold.Chemscore.DEClash.Weighted>
0.1599

> <Gold.Chemscore.DEInternal.Weighted>
1.2012

> <Gold.Chemscore.Rot.Weighted>
3.8412

> <Gold.Chemscore.Internal.Correction.Weighted>
   9.000000E+99

> <Gold.Protein.RotatedTorsions>
[ 6907 6896 6895 6894 ] final   49.45 input  -60.11 | X-H torsion
[ 7974 7965 7964 7962 ] final   21.21 input  175.53 | X-H torsion
[ 8008 7997 7996 7995 ] final  -51.05 input   59.86 | X-H torsion
[ 10167 10162 10161 10158 ] final  175.73 input  -65.29 | X-H torsion
[ 10718 10713 10712 10709 ] final   13.41 input   66.30 | X-H torsion
[ 10763 10752 10751 10750 ] final  -89.97 input  -60.55 | X-H torsion
[ 11005 11000 10999 10996 ] final  174.72 input  -57.11 | X-H torsion

> <Gold.Protein.ActiveResidues>
 VAL166  LYS551  ARG553  GLY616  TRP617  ASP618  TYR619  PRO620  LYS621  CYS622 
 ASP623  PHE694  ASN695  SER759  ASP760  ASP761  ALA762  ILE779  LEU786  VAL792 
 PHE793  MET794  SER795  GLU796  ALA797  LYS798  CYS799  TRP800  GLU811  SER814 

> <Gold.Protein.RotatedAtoms>
  152.2908  134.7723  160.0377 H   0  0  0  0  0  0  0  0  0  0  0  0  # atno 6907 bound_to 6896
  151.8269  133.3397  159.3609 H   0  0  0  0  0  0  0  0  0  0  0  0  # atno 6908 bound_to 6896
  150.7230  134.5449  159.5810 H   0  0  0  0  0  0  0  0  0  0  0  0  # atno 6909 bound_to 6896
  146.2080  139.8060  142.8710 H   0  0  0  0  0  0  0  0  0  0  0  0  # atno 7974 bound_to 7965
  154.4074  140.1257  156.4766 H   0  0  0  0  0  0  0  0  0  0  0  0  # atno 8008 bound_to 7997
  155.7127  140.3493  155.4961 H   0  0  0  0  0  0  0  0  0  0  0  0  # atno 8009 bound_to 7997
  155.9286  140.1065  157.1140 H   0  0  0  0  0  0  0  0  0  0  0  0  # atno 8010 bound_to 7997
  139.5188  144.2998  152.0389 H   0  0  0  0  0  0  0  0  0  0  0  0  # atno 10167 bound_to 10162
  157.0243  130.6167  149.5725 H   0  0  0  0  0  0  0  0  0  0  0  0  # atno 10718 bound_to 10713
  154.6609  135.5321  153.8017 H   0  0  0  0  0  0  0  0  0  0  0  0  # atno 10763 bound_to 10752
  153.0441  135.6505  154.0873 H   0  0  0  0  0  0  0  0  0  0  0  0  # atno 10764 bound_to 10752
  154.0782  135.2949  155.3275 H   0  0  0  0  0  0  0  0  0  0  0  0  # atno 10765 bound_to 10752
  140.3543  134.7167  157.4289 H   0  0  0  0  0  0  0  0  0  0  0  0  # atno 11005 bound_to 11000
  145.3246  141.0252  143.3481 LP  0  0  0  0  0  0  0  0  0  0  0  0  # atno 17320 bound_to 7965
  144.8842  139.4862  143.6708 LP  0  0  0  0  0  0  0  0  0  0  0  0  # atno 17321 bound_to 7965
  140.2446  144.4234  150.6246 LP  0  0  0  0  0  0  0  0  0  0  0  0  # atno 17342 bound_to 10162
  140.6267  143.2182  151.6581 LP  0  0  0  0  0  0  0  0  0  0  0  0  # atno 17343 bound_to 10162
  156.0091  130.5181  150.7930 LP  0  0  0  0  0  0  0  0  0  0  0  0  # atno 17370 bound_to 10713
  157.5226  131.0932  151.0059 LP  0  0  0  0  0  0  0  0  0  0  0  0  # atno 17371 bound_to 10713
  140.0677  134.5906  155.8676 LP  0  0  0  0  0  0  0  0  0  0  0  0  # atno 17394 bound_to 11000
  141.2003  133.6611  156.5888 LP  0  0  0  0  0  0  0  0  0  0  0  0  # atno 17395 bound_to 11000

$$$$
