AV-unprocessed.smi:48|AV-procd|sdf|451|dock1
  -GOLD-   2262016323D 1   1.00000     0.00000
 Structure written by MMmdl.
 30 32  0  0  0  0  0  0  0  0  1 V2000
  147.6393  139.9736  152.7209 O   0  0  0  0  0  0  0  0  0  0  0  0
  148.1744  140.6338  153.8481 C   0  0  0  0  0  0  0  0  0  0  0  0
  149.4079  139.8787  154.3668 C   0  0  1  0  0  0  0  0  0  0  0  0
  150.3251  140.7976  154.9429 O   0  0  0  0  0  0  0  0  0  0  0  0
  151.1306  140.1401  155.8693 C   0  0  1  0  0  0  0  0  0  0  0  0
  151.3074  141.0585  157.0386 N   0  0  0  0  0  0  0  0  0  0  0  0
  150.6502  142.2093  157.2879 C   0  0  0  0  0  0  0  0  0  0  0  0
  150.9685  142.8689  158.4011 N   0  0  0  0  0  0  0  0  0  0  0  0
  151.9426  142.0454  158.9416 C   0  0  0  0  0  0  0  0  0  0  0  0
  152.7217  142.1261  160.1214 C   0  0  0  0  0  0  0  0  0  0  0  0
  152.5461  143.4504  161.2135 Cl  0  0  0  0  0  0  0  0  0  0  0  0
  153.6113  141.1369  160.3761 N   0  0  0  0  0  0  0  0  0  0  0  0
  153.7267  140.1203  159.5126 C   0  0  0  0  0  0  0  0  0  0  0  0
  153.0659  139.9102  158.3685 N   0  0  0  0  0  0  0  0  0  0  0  0
  152.1696  140.9095  158.1136 C   0  0  0  0  0  0  0  0  0  0  0  0
  150.4358  138.8102  156.2406 C   0  0  1  0  0  0  0  0  0  0  0  0
  150.2510  138.6049  157.6304 O   0  0  0  0  0  0  0  0  0  0  0  0
  149.0967  138.9255  155.5242 C   0  0  2  0  0  0  0  0  0  0  0  0
  148.6854  137.6661  155.0317 O   0  0  0  0  0  0  0  0  0  0  0  0
  149.9098  139.3347  153.5634 H   0  0  0  0  0  0  0  0  0  0  0  0
  152.1359  139.9965  155.4707 H   0  0  0  0  0  0  0  0  0  0  0  0
  151.0347  137.9986  155.8239 H   0  0  0  0  0  0  0  0  0  0  0  0
  148.3353  139.3534  156.1785 H   0  0  0  0  0  0  0  0  0  0  0  0
  148.3536  139.7000  152.1660 H   0  0  0  0  0  0  0  0  0  0  0  0
  148.4164  141.6688  153.6045 H   0  0  0  0  0  0  0  0  0  0  0  0
  147.3980  140.6537  154.6134 H   0  0  0  0  0  0  0  0  0  0  0  0
  149.8968  142.5869  156.6120 H   0  0  0  0  0  0  0  0  0  0  0  0
  154.4528  139.3655  159.7759 H   0  0  0  0  0  0  0  0  0  0  0  0
  150.4636  137.7066  157.8325 H   0  0  0  0  0  0  0  0  0  0  0  0
  149.2760  137.4103  154.3394 H   0  0  0  0  0  0  0  0  0  0  0  0
  1  2  1  0  0  0  0
  1 24  1  0  0  0  0
  2  3  1  0  0  0  0
  2 25  1  0  0  0  0
  2 26  1  0  0  0  0
  3 20  1  0  0  0  0
  3 18  1  0  0  0  0
  3  4  1  0  0  0  0
  4  5  1  0  0  0  0
  5 21  1  0  0  0  0
  5  6  1  0  0  0  0
  5 16  1  0  0  0  0
  6 15  1  0  0  0  0
  6  7  1  0  0  0  0
  7  8  2  0  0  0  0
  7 27  1  0  0  0  0
  8  9  1  0  0  0  0
  9 15  2  0  0  0  0
  9 10  1  0  0  0  0
 10 11  1  0  0  0  0
 10 12  2  0  0  0  0
 12 13  1  0  0  0  0
 13 14  2  0  0  0  0
 13 28  1  0  0  0  0
 14 15  1  0  0  0  0
 16 22  1  0  0  0  0
 16 17  1  0  0  0  0
 16 18  1  0  0  0  0
 17 29  1  0  0  0  0
 18 23  1  0  0  0  0
 18 19  1  0  0  0  0
 19 30  1  0  0  0  0
M  END
> <s_m_source_file>
AV-unprocessed.smi

> <i_m_source_file_index>
48

> <i_lp_mmshare_version>
43012

> <i_f3d_flags>
0

> <s_epik_input>
W09IXVtDSDJdW0NASF0xT1tDQEhdKFtDQEhdKFtPSF0pW0NAQEhdMVtPSF0pbihbY0hdbjIpYyhjMjMpbltjSF1uYzNDbA==

> <s_epik_cmdline>
J2VwaWtfcHl0aG9uJywgJy1waCcsICc3LjAnLCAnLXRuJywgJzgnLCAnLW1hJywgJzIwMCcsICctbWV0YWxfYmluZGluZycsICctaW1hZScsICc8aW5maWxlLm1hZT4nLCAnLW9tYWUnLCAnPG91dGZpbGUubWFlPic=

> <r_lp_tautomer_probability>
1

> <r_epik_Ionization_Penalty>
3.45505e-06

> <r_epik_Ionization_Penalty_Charging>
0

> <r_epik_Ionization_Penalty_Neutral>
3.45505e-06

> <r_epik_State_Penalty>
-0

> <r_epik_Charging_Adjusted_Penalty>
0

> <i_epik_Tot_Q>
0

> <i_epik_Tot_abs_Q>
0

> <r_epik_Metal_State_Penalty>
-0

> <b_epik_Metal_Only>
0

> <s_epik_Chemistry_Notes>
This compound contains an acetal/aminal-like group ( X-CH(R)-Y where X, Y are N, S, or O) that may be acid/base labile, releasing an aldehyde.

> <s_lp_Force_Field>
OPLS_2005

> <r_lp_Energy>
37.1345

> <b_lp_Chiralities_Consistent>
1

> <s_lp_Variant>
AV-unprocessed.smi:48-5

> <Gold.Version>
5.8.1

> <Gold.Id.Protein>
6NUR|6NUR_protein|mol2

> <Gold.PLP.Fitness>
40.9914

> <Gold.PLP.PLP>
-31.1200

> <Gold.PLP.part.hbond>
-2.9531

> <Gold.PLP.part.metal>
0.0000

> <Gold.PLP.part.buried>
-4.3444

> <Gold.PLP.part.nonpolar>
-23.7466

> <Gold.PLP.part.repulsive>
0.1795

> <Gold.PLP.ligand.clash>
0.0000

> <Gold.PLP.ligand.torsion>
0.6534

> <Gold.PLP.Chemscore.Hbond>
2.7488

> <Gold.PLP.Chemscore.CHOScore>
0.9717

> <Gold.PLP.Chemscore.Metal>
0.0000

> <Gold.Chemscore.Hbonds>
donor molecule, donor type, donor heavy atom, donor atom, acceptor molecule, acceptor atom, score
      L1  H     1    24       P1  7957  1.00
      P1  H  7989  7998       L1     4  0.70
      P1  H  7997  8010       L1    14  0.96
      L1  C     7    27       P1  8028  0.96

> <Gold.PLP.Chemscore.Internal.Correction>
0.0166

> <Gold.Rescore>
     Score         DG    S(hbond)    S(metal)    S(lipo)     H(rot)  DE(clash)    DE(int)     intcor
      6.04      -6.99       1.52        0.00      52.69       3.80       0.03       0.92       ----

> <Gold.Chemscore.Fitness>
6.0371

> <Gold.Chemscore.DG>
-6.9924

> <Gold.Chemscore.ZeroCoef>
-5.4800

> <Gold.Chemscore.Hbond>
1.5208

> <Gold.Chemscore.Metal>
0.0000

> <Gold.Chemscore.Lipo>
52.6939

> <Gold.Chemscore.Internal_Hbond>
0.0000

> <Gold.Chemscore.DEClash>
0.0342

> <Gold.Chemscore.DEInternal>
0.9212

> <Gold.Chemscore.Rot>
3.8017

> <Gold.Chemscore.Internal.Correction>
   9.000000E+99

> <Gold.Chemscore.Hbonds>
donor molecule, donor type, donor heavy atom, donor atom, acceptor molecule, acceptor atom, score
      L1  H     1    24       P1  7957  0.95
      P1  H  7989  7998       L1     4  0.03
      P1  H  7997  8010       L1    14  0.22

> <Gold.Chemscore.Hbond.Weighted>
-5.0796

> <Gold.Chemscore.Metal.Weighted>
-0.0000

> <Gold.Chemscore.Lipo.Weighted>
-6.1652

> <Gold.Chemscore.Internal_Hbond.Weighted>
0.0000

> <Gold.Chemscore.DEClash.Weighted>
0.0342

> <Gold.Chemscore.DEInternal.Weighted>
0.9212

> <Gold.Chemscore.Rot.Weighted>
9.7324

> <Gold.Chemscore.Internal.Correction.Weighted>
   9.000000E+99

> <Gold.Protein.RotatedTorsions>
[ 6907 6896 6895 6894 ] final  105.85 input  -60.11 | X-H torsion
[ 7974 7965 7964 7962 ] final  -85.01 input  175.53 | X-H torsion
[ 8008 7997 7996 7995 ] final   42.61 input   59.86 | X-H torsion
[ 10167 10162 10161 10158 ] final -157.80 input  -65.29 | X-H torsion
[ 10718 10713 10712 10709 ] final    2.32 input   66.30 | X-H torsion
[ 10763 10752 10751 10750 ] final   69.55 input  -60.55 | X-H torsion
[ 11005 11000 10999 10996 ] final -169.58 input  -57.11 | X-H torsion

> <Gold.Protein.ActiveResidues>
 VAL166  LYS551  ARG553  GLY616  TRP617  ASP618  TYR619  PRO620  LYS621  CYS622 
 ASP623  PHE694  ASN695  SER759  ASP760  ASP761  ALA762  ILE779  LEU786  VAL792 
 PHE793  MET794  SER795  GLU796  ALA797  LYS798  CYS799  TRP800  GLU811  SER814 

> <Gold.Protein.RotatedAtoms>
  152.5215  133.9468  159.7652 H   0  0  0  0  0  0  0  0  0  0  0  0  # atno 6907 bound_to 6896
  150.9786  133.6260  159.2733 H   0  0  0  0  0  0  0  0  0  0  0  0  # atno 6908 bound_to 6896
  151.3446  135.0877  159.9435 H   0  0  0  0  0  0  0  0  0  0  0  0  # atno 6909 bound_to 6896
  145.4990  140.9548  143.1770 H   0  0  0  0  0  0  0  0  0  0  0  0  # atno 7974 bound_to 7965
  155.2891  140.3377  155.4253 H   0  0  0  0  0  0  0  0  0  0  0  0  # atno 8008 bound_to 7997
  156.2054  140.1749  156.7850 H   0  0  0  0  0  0  0  0  0  0  0  0  # atno 8009 bound_to 7997
  154.5614  140.0686  156.8809 H   0  0  0  0  0  0  0  0  0  0  0  0  # atno 8010 bound_to 7997
  139.6742  143.9692  152.2301 H   0  0  0  0  0  0  0  0  0  0  0  0  # atno 10167 bound_to 10162
  156.8612  130.5587  149.5663 H   0  0  0  0  0  0  0  0  0  0  0  0  # atno 10718 bound_to 10713
  153.0293  135.5206  154.7306 H   0  0  0  0  0  0  0  0  0  0  0  0  # atno 10763 bound_to 10752
  154.6335  135.2903  155.0191 H   0  0  0  0  0  0  0  0  0  0  0  0  # atno 10764 bound_to 10752
  154.1134  135.6618  153.4942 H   0  0  0  0  0  0  0  0  0  0  0  0  # atno 10765 bound_to 10752
  140.5291  134.5634  157.5070 H   0  0  0  0  0  0  0  0  0  0  0  0  # atno 11005 bound_to 11000
  144.7791  139.6565  143.7162 LP  0  0  0  0  0  0  0  0  0  0  0  0  # atno 17320 bound_to 7965
  146.2238  139.5684  142.9601 LP  0  0  0  0  0  0  0  0  0  0  0  0  # atno 17321 bound_to 7965
  139.9465  144.6648  150.8214 LP  0  0  0  0  0  0  0  0  0  0  0  0  # atno 17342 bound_to 10162
  140.7629  143.3210  151.2622 LP  0  0  0  0  0  0  0  0  0  0  0  0  # atno 17343 bound_to 10162
  156.0776  130.5794  150.9502 LP  0  0  0  0  0  0  0  0  0  0  0  0  # atno 17370 bound_to 10713
  157.6249  131.0926  150.8553 LP  0  0  0  0  0  0  0  0  0  0  0  0  # atno 17371 bound_to 10713
  139.9564  134.7528  156.0333 LP  0  0  0  0  0  0  0  0  0  0  0  0  # atno 17394 bound_to 11000
  141.1291  133.6591  156.3417 LP  0  0  0  0  0  0  0  0  0  0  0  0  # atno 17395 bound_to 11000

$$$$
