AV-unprocessed.smi:2768|AV-procd|sdf|10652|dock3
  -GOLD-   2272015103D 1   1.00000     0.00000
 Structure written by MMmdl.
 34 35  0  0  0  0  0  0  0  0  2 V2000
  152.4407  139.2221  155.4549 O   0  0  0  0  0  0  0  0  0  0  0  0
  151.3203  139.3877  155.9512 C   0  0  0  0  0  0  0  0  0  0  0  0
  150.9046  140.2947  156.8818 N   0  5  0  0  0  0  0  0  0  0  0  0
  151.7853  141.2452  157.5640 C   0  0  2  0  0  0  0  0  0  0  0  0
  151.9285  140.8351  159.0511 C   0  0  0  0  0  0  0  0  0  0  0  0
  152.7220  141.8590  159.9010 C   0  0  0  0  0  0  0  0  0  0  0  0
  152.1220  143.2781  159.8287 C   0  0  0  0  0  0  0  0  0  0  0  0
  151.9914  143.7069  158.3527 C   0  0  0  0  0  0  0  0  0  0  0  0
  151.1969  142.6834  157.4976 C   0  0  1  0  0  0  0  0  0  0  0  0
  151.1922  143.1409  156.1591 O   0  0  0  0  0  0  0  0  0  0  0  0
  150.1799  138.4485  155.5021 C   0  0  0  0  0  0  0  0  0  0  0  0
  150.6567  137.4783  154.7140 F   0  0  0  0  0  0  0  0  0  0  0  0
  149.6640  137.8602  156.5843 F   0  0  0  0  0  0  0  0  0  0  0  0
  149.0822  139.2376  154.7909 C   0  0  0  0  0  0  0  0  0  0  0  0
  147.9357  138.5825  154.2858 C   0  0  0  0  0  0  0  0  0  0  0  0
  146.9437  139.3506  153.6469 C   0  0  0  0  0  0  0  0  0  0  0  0
  147.1295  140.7413  153.5347 C   0  0  0  0  0  0  0  0  0  0  0  0
  148.3045  141.3039  154.0708 C   0  0  0  0  0  0  0  0  0  0  0  0
  149.2617  140.5764  154.6840 N   0  0  0  0  0  0  0  0  0  0  0  0
  152.7876  141.2702  157.1319 H   0  0  0  0  0  0  0  0  0  0  0  0
  150.1637  142.6706  157.8488 H   0  0  0  0  0  0  0  0  0  0  0  0
  150.9380  140.7108  159.4921 H   0  0  0  0  0  0  0  0  0  0  0  0
  152.4131  139.8601  159.1171 H   0  0  0  0  0  0  0  0  0  0  0  0
  152.7424  141.5281  160.9399 H   0  0  0  0  0  0  0  0  0  0  0  0
  153.7646  141.8880  159.5781 H   0  0  0  0  0  0  0  0  0  0  0  0
  151.1397  143.2870  160.3027 H   0  0  0  0  0  0  0  0  0  0  0  0
  152.7455  143.9845  160.3772 H   0  0  0  0  0  0  0  0  0  0  0  0
  151.5009  144.6799  158.3058 H   0  0  0  0  0  0  0  0  0  0  0  0
  152.9896  143.8570  157.9352 H   0  0  0  0  0  0  0  0  0  0  0  0
  150.3058  143.3785  155.9346 H   0  0  0  0  0  0  0  0  0  0  0  0
  147.8152  137.5145  154.3931 H   0  0  0  0  0  0  0  0  0  0  0  0
  146.0552  138.8807  153.2519 H   0  0  0  0  0  0  0  0  0  0  0  0
  146.3895  141.3620  153.0520 H   0  0  0  0  0  0  0  0  0  0  0  0
  148.4812  142.3672  154.0035 H   0  0  0  0  0  0  0  0  0  0  0  0
  1  2  2  0  0  0  0
  2  3  1  0  0  0  0
  2 11  1  0  0  0  0
  3  4  1  0  0  0  0
  4 20  1  0  0  0  0
  4  9  1  0  0  0  0
  4  5  1  0  0  0  0
  5  6  1  0  0  0  0
  5 22  1  0  0  0  0
  5 23  1  0  0  0  0
  6  7  1  0  0  0  0
  6 24  1  0  0  0  0
  6 25  1  0  0  0  0
  7  8  1  0  0  0  0
  7 26  1  0  0  0  0
  7 27  1  0  0  0  0
  8  9  1  0  0  0  0
  8 28  1  0  0  0  0
  8 29  1  0  0  0  0
  9 21  1  0  0  0  0
  9 10  1  0  0  0  0
 10 30  1  0  0  0  0
 11 12  1  0  0  0  0
 11 13  1  0  0  0  0
 11 14  1  0  0  0  0
 14 19  1  0  0  0  0
 14 15  2  0  0  0  0
 15 16  1  0  0  0  0
 15 31  1  0  0  0  0
 16 17  2  0  0  0  0
 16 32  1  0  0  0  0
 17 18  1  0  0  0  0
 17 33  1  0  0  0  0
 18 19  2  0  0  0  0
 18 34  1  0  0  0  0
M  CHG  1   3  -1
M  END
> <s_m_source_file>
AV-unprocessed.smi

> <i_m_source_file_index>
2768

> <i_lp_mmshare_version>
43012

> <i_f3d_flags>
0

> <s_epik_input>
bjFbY0hdW2NIXVtjSF1bY0hdYzFDKEYpKEYpQyg9TylbTkhdW0NAQEhdMltDSDJdW0NIMl1bQ0gyXVtDSDJdW0NASF0yW09IXQ==

> <s_epik_cmdline>
J2VwaWtfcHl0aG9uJywgJy1waCcsICc3LjAnLCAnLXRuJywgJzgnLCAnLW1hJywgJzIwMCcsICctbWV0YWxfYmluZGluZycsICctaW1hZScsICc8aW5maWxlLm1hZT4nLCAnLW9tYWUnLCAnPG91dGZpbGUubWFlPic=

> <r_lp_tautomer_probability>
1

> <r_epik_Ionization_Penalty>
5.70553

> <r_epik_Ionization_Penalty_Charging>
5.70553

> <r_epik_Ionization_Penalty_Neutral>
5.5493e-06

> <r_epik_State_Penalty>
5.70549

> <r_epik_Charging_Adjusted_Penalty>
11.411

> <i_epik_Tot_Q>
-1

> <i_epik_Tot_abs_Q>
1

> <r_epik_Metal_State_Penalty>
1.6859

> <b_epik_Metal_Only>
1

> <s_lp_Force_Field>
OPLS_2005

> <r_lp_Energy>
26.6713

> <b_lp_Chiralities_Consistent>
1

> <s_lp_Variant>
AV-unprocessed.smi:2768-5

> <Gold.Version>
5.8.1

> <Gold.Id.Protein>
6NUR|6NUR_protein|mol2

> <Gold.PLP.Fitness>
50.0994

> <Gold.PLP.PLP>
-41.1348

> <Gold.PLP.part.hbond>
-3.2816

> <Gold.PLP.part.metal>
0.0000

> <Gold.PLP.part.buried>
-4.4073

> <Gold.PLP.part.nonpolar>
-33.0893

> <Gold.PLP.part.repulsive>
0.1539

> <Gold.PLP.ligand.clash>
0.0541

> <Gold.PLP.ligand.torsion>
0.1997

> <Gold.PLP.Chemscore.Hbond>
2.1258

> <Gold.PLP.Chemscore.CHOScore>
1.0000

> <Gold.PLP.Chemscore.Metal>
0.0000

> <Gold.Chemscore.Hbonds>
donor molecule, donor type, donor heavy atom, donor atom, acceptor molecule, acceptor atom, score
      L1  H    10    30       P1  8028  1.00
      P1  H  7997  8008       L1     1  0.47
      L1  C    18    34       P1  8028  0.14

> <Gold.PLP.Chemscore.Internal.Correction>
0.0404

> <Gold.Rescore>
     Score         DG    S(hbond)    S(metal)    S(lipo)     H(rot)  DE(clash)    DE(int)     intcor
     16.46     -18.34       1.98        0.00      96.18       1.95       0.34       1.55       ----

> <Gold.Chemscore.Fitness>
16.4555

> <Gold.Chemscore.DG>
-18.3450

> <Gold.Chemscore.ZeroCoef>
-5.4800

> <Gold.Chemscore.Hbond>
1.9776

> <Gold.Chemscore.Metal>
0.0000

> <Gold.Chemscore.Lipo>
96.1758

> <Gold.Chemscore.Internal_Hbond>
0.0000

> <Gold.Chemscore.DEClash>
0.3358

> <Gold.Chemscore.DEInternal>
1.5537

> <Gold.Chemscore.Rot>
1.9503

> <Gold.Chemscore.Internal.Correction>
   9.000000E+99

> <Gold.Chemscore.Hbonds>
donor molecule, donor type, donor heavy atom, donor atom, acceptor molecule, acceptor atom, score
      L1  H    10    30       P1  8028  0.94
      P1  H  7997  8008       L1     1  0.48

> <Gold.Chemscore.Hbond.Weighted>
-6.6052

> <Gold.Chemscore.Metal.Weighted>
-0.0000

> <Gold.Chemscore.Lipo.Weighted>
-11.2526

> <Gold.Chemscore.Internal_Hbond.Weighted>
0.0000

> <Gold.Chemscore.DEClash.Weighted>
0.3358

> <Gold.Chemscore.DEInternal.Weighted>
1.5537

> <Gold.Chemscore.Rot.Weighted>
4.9928

> <Gold.Chemscore.Internal.Correction.Weighted>
   9.000000E+99

> <Gold.Protein.RotatedTorsions>
[ 6907 6896 6895 6894 ] final  -91.35 input  -60.11 | X-H torsion
[ 7974 7965 7964 7962 ] final  -59.23 input  175.53 | X-H torsion
[ 8008 7997 7996 7995 ] final  -34.95 input   59.86 | X-H torsion
[ 10167 10162 10161 10158 ] final   53.68 input  -65.29 | X-H torsion
[ 10718 10713 10712 10709 ] final  149.27 input   66.30 | X-H torsion
[ 10763 10752 10751 10750 ] final  -54.81 input  -60.55 | X-H torsion
[ 11005 11000 10999 10996 ] final -112.60 input  -57.11 | X-H torsion

> <Gold.Protein.ActiveResidues>
 VAL166  LYS551  ARG553  GLY616  TRP617  ASP618  TYR619  PRO620  LYS621  CYS622 
 ASP623  PHE694  ASN695  SER759  ASP760  ASP761  ALA762  ILE779  LEU786  VAL792 
 PHE793  MET794  SER795  GLU796  ALA797  LYS798  CYS799  TRP800  GLU811  SER814 

> <Gold.Protein.RotatedAtoms>
  150.6891  134.2291  159.4426 H   0  0  0  0  0  0  0  0  0  0  0  0  # atno 6907 bound_to 6896
  152.0242  134.9802  160.0580 H   0  0  0  0  0  0  0  0  0  0  0  0  # atno 6908 bound_to 6896
  152.1367  133.4405  159.4784 H   0  0  0  0  0  0  0  0  0  0  0  0  # atno 6909 bound_to 6896
  145.8299  140.8486  143.0089 H   0  0  0  0  0  0  0  0  0  0  0  0  # atno 7974 bound_to 7965
  154.4108  140.1670  156.2132 H   0  0  0  0  0  0  0  0  0  0  0  0  # atno 8008 bound_to 7997
  155.9426  140.3407  155.6317 H   0  0  0  0  0  0  0  0  0  0  0  0  # atno 8009 bound_to 7997
  155.6969  140.0740  157.2416 H   0  0  0  0  0  0  0  0  0  0  0  0  # atno 8010 bound_to 7997
  140.2382  144.3613  150.6390 H   0  0  0  0  0  0  0  0  0  0  0  0  # atno 10167 bound_to 10162
  157.2982  131.0866  151.1410 H   0  0  0  0  0  0  0  0  0  0  0  0  # atno 10718 bound_to 10713
  154.1808  135.6443  153.5033 H   0  0  0  0  0  0  0  0  0  0  0  0  # atno 10763 bound_to 10752
  153.0059  135.5405  154.6516 H   0  0  0  0  0  0  0  0  0  0  0  0  # atno 10764 bound_to 10752
  154.5880  135.2931  155.0638 H   0  0  0  0  0  0  0  0  0  0  0  0  # atno 10765 bound_to 10752
  141.0665  133.9450  157.2568 H   0  0  0  0  0  0  0  0  0  0  0  0  # atno 11005 bound_to 11000
  144.6740  140.0657  143.7474 LP  0  0  0  0  0  0  0  0  0  0  0  0  # atno 17320 bound_to 7965
  145.9582  139.2781  143.1171 LP  0  0  0  0  0  0  0  0  0  0  0  0  # atno 17321 bound_to 7965
  140.6134  143.2171  151.6841 LP  0  0  0  0  0  0  0  0  0  0  0  0  # atno 17342 bound_to 10162
  139.5086  144.3604  152.0567 LP  0  0  0  0  0  0  0  0  0  0  0  0  # atno 17343 bound_to 10162
  157.2779  130.6736  149.6051 LP  0  0  0  0  0  0  0  0  0  0  0  0  # atno 17370 bound_to 10713
  155.9670  130.4459  150.5518 LP  0  0  0  0  0  0  0  0  0  0  0  0  # atno 17371 bound_to 10713
  139.9481  135.0180  156.8914 LP  0  0  0  0  0  0  0  0  0  0  0  0  # atno 17394 bound_to 11000
  140.5762  134.0396  155.7448 LP  0  0  0  0  0  0  0  0  0  0  0  0  # atno 17395 bound_to 11000

$$$$
