AV-unprocessed.smi:1042|AV-procd|sdf|4537|dock5
  -GOLD-   22720 2563D 1   1.00000     0.00000
 Structure written by MMmdl.
 40 42  0  0  0  0  0  0  0  0  2 V2000
  150.6183  140.6060  156.1254 O   0  0  0  0  0  0  0  0  0  0  0  0
  150.1370  141.7344  156.0215 C   0  0  0  0  0  0  0  0  0  0  0  0
  149.2665  142.0782  155.0609 N   0  0  0  0  0  0  0  0  0  0  0  0
  148.7651  141.1825  154.0228 C   0  0  0  0  0  0  0  0  0  0  0  0
  148.3225  139.8171  154.5858 C   0  0  1  0  0  0  0  0  0  0  0  0
  147.1254  139.2043  153.8660 C   0  0  0  0  0  0  0  0  0  0  0  0
  147.2062  137.7384  154.2844 C   0  0  0  0  0  0  0  0  0  0  0  0
  148.6503  137.4275  154.3663 N   0  3  2  0  0  0  0  0  0  0  0  0
  148.9886  136.4264  155.4006 C   0  0  0  0  0  0  0  0  0  0  0  0
  150.1440  135.5318  155.0194 C   0  0  0  0  0  0  0  0  0  0  0  0
  148.7272  135.0021  154.9724 C   0  0  0  0  0  0  0  0  0  0  0  0
  149.3822  138.7088  154.5038 C   0  0  0  0  0  0  0  0  0  0  0  0
  150.4034  142.7728  156.8334 N   0  0  0  0  0  0  0  0  0  0  0  0
  151.3026  142.8185  157.9324 C   0  0  0  0  0  0  0  0  0  0  0  0
  151.6080  141.5650  158.5092 C   0  0  0  0  0  0  0  0  0  0  0  0
  152.4870  141.5038  159.6081 C   0  0  0  0  0  0  0  0  0  0  0  0
  153.0379  142.6993  160.1030 C   0  0  0  0  0  0  0  0  0  0  0  0
  152.6812  143.9048  159.4715 C   0  0  0  0  0  0  0  0  0  0  0  0
  151.8384  143.9659  158.4187 N   0  0  0  0  0  0  0  0  0  0  0  0
  148.9150  143.0247  155.0548 H   0  0  0  0  0  0  0  0  0  0  0  0
  147.9369  141.6596  153.4962 H   0  0  0  0  0  0  0  0  0  0  0  0
  149.5582  141.0446  153.2873 H   0  0  0  0  0  0  0  0  0  0  0  0
  148.0430  139.9363  155.6340 H   0  0  0  0  0  0  0  0  0  0  0  0
  146.1795  139.6713  154.1426 H   0  0  0  0  0  0  0  0  0  0  0  0
  147.2436  139.2917  152.7848 H   0  0  0  0  0  0  0  0  0  0  0  0
  146.7443  137.6171  155.2659 H   0  0  0  0  0  0  0  0  0  0  0  0
  146.6924  137.0740  153.5888 H   0  0  0  0  0  0  0  0  0  0  0  0
  148.8440  136.7297  156.4362 H   0  0  0  0  0  0  0  0  0  0  0  0
  150.6449  135.7123  154.0699 H   0  0  0  0  0  0  0  0  0  0  0  0
  150.7845  135.1697  155.8213 H   0  0  0  0  0  0  0  0  0  0  0  0
  148.4355  134.2913  155.7429 H   0  0  0  0  0  0  0  0  0  0  0  0
  148.2865  134.8317  153.9919 H   0  0  0  0  0  0  0  0  0  0  0  0
  150.0054  138.8330  153.6175 H   0  0  0  0  0  0  0  0  0  0  0  0
  150.0421  138.7246  155.3729 H   0  0  0  0  0  0  0  0  0  0  0  0
  149.9145  143.6338  156.6381 H   0  0  0  0  0  0  0  0  0  0  0  0
  151.1764  140.6555  158.1166 H   0  0  0  0  0  0  0  0  0  0  0  0
  152.7335  140.5556  160.0627 H   0  0  0  0  0  0  0  0  0  0  0  0
  153.7157  142.6929  160.9439 H   0  0  0  0  0  0  0  0  0  0  0  0
  153.0822  144.8449  159.8204 H   0  0  0  0  0  0  0  0  0  0  0  0
  148.9196  137.0414  153.4727 H   0  0  0  0  0  0  0  0  0  0  0  0
  1  2  2  0  0  0  0
  2  3  1  0  0  0  0
  2 13  1  0  0  0  0
  3  4  1  0  0  0  0
  3 20  1  0  0  0  0
  4  5  1  0  0  0  0
  4 21  1  0  0  0  0
  4 22  1  0  0  0  0
  5 12  1  0  0  0  0
  5  6  1  0  0  0  0
  5 23  1  0  0  0  0
  6  7  1  0  0  0  0
  6 24  1  0  0  0  0
  6 25  1  0  0  0  0
  7  8  1  0  0  0  0
  7 26  1  0  0  0  0
  7 27  1  0  0  0  0
  8  9  1  0  0  0  0
  8 12  1  0  0  0  0
  8 40  1  0  0  0  0
  9 11  1  0  0  0  0
  9 10  1  0  0  0  0
  9 28  1  0  0  0  0
 10 11  1  0  0  0  0
 10 29  1  0  0  0  0
 10 30  1  0  0  0  0
 11 31  1  0  0  0  0
 11 32  1  0  0  0  0
 12 33  1  0  0  0  0
 12 34  1  0  0  0  0
 13 14  1  0  0  0  0
 13 35  1  0  0  0  0
 14 19  1  0  0  0  0
 14 15  2  0  0  0  0
 15 16  1  0  0  0  0
 15 36  1  0  0  0  0
 16 17  2  0  0  0  0
 16 37  1  0  0  0  0
 17 18  1  0  0  0  0
 17 38  1  0  0  0  0
 18 19  2  0  0  0  0
 18 39  1  0  0  0  0
M  CHG  1   8   1
M  END
> <s_m_source_file>
AV-unprocessed.smi

> <i_m_source_file_index>
1042

> <i_lp_mmshare_version>
43012

> <i_f3d_flags>
0

> <s_epik_input>
bjFbY0hdW2NIXVtjSF1bY0hdYzFbTkhdQyg9TylbTkhdW0NIMl1bQ0BASF0yW0NIMl1bQ0gyXU4oW0NIMl0yKVtDSF0zW0NIMl1bQ0gyXTM=

> <s_epik_cmdline>
J2VwaWtfcHl0aG9uJywgJy1waCcsICc3LjAnLCAnLXRuJywgJzgnLCAnLW1hJywgJzIwMCcsICctbWV0YWxfYmluZGluZycsICctaW1hZScsICc8aW5maWxlLm1hZT4nLCAnLW9tYWUnLCAnPG91dGZpbGUubWFlPic=

> <r_lp_tautomer_probability>
1

> <r_epik_Ionization_Penalty>
0.000244736

> <r_epik_Ionization_Penalty_Charging>
0.000203384

> <r_epik_Ionization_Penalty_Neutral>
4.13519e-05

> <r_epik_State_Penalty>
-0

> <r_epik_Charging_Adjusted_Penalty>
0.000203384

> <i_epik_Tot_Q>
1

> <i_epik_Tot_abs_Q>
1

> <r_epik_Metal_State_Penalty>
-0

> <b_epik_Metal_Only>
0

> <s_lp_Force_Field>
OPLS_2005

> <r_lp_Energy>
38.5501

> <b_lp_Chiralities_Consistent>
1

> <s_lp_Variant>
AV-unprocessed.smi:1042-2

> <Gold.Version>
5.8.1

> <Gold.Id.Protein>
6NUR|6NUR_protein|mol2

> <Gold.PLP.Fitness>
45.5724

> <Gold.PLP.PLP>
-34.9027

> <Gold.PLP.part.hbond>
-3.0000

> <Gold.PLP.part.metal>
0.0000

> <Gold.PLP.part.buried>
-4.7646

> <Gold.PLP.part.nonpolar>
-27.2450

> <Gold.PLP.part.repulsive>
0.3312

> <Gold.PLP.ligand.clash>
0.0000

> <Gold.PLP.ligand.torsion>
1.2959

> <Gold.PLP.Chemscore.Hbond>
4.0000

> <Gold.PLP.Chemscore.CHOScore>
0.0000

> <Gold.PLP.Chemscore.Metal>
0.0000

> <Gold.Chemscore.Hbonds>
donor molecule, donor type, donor heavy atom, donor atom, acceptor molecule, acceptor atom, score
      L1  H     3    20       P1  8028  1.00
      L1  H     8    40       P1  7948  2.00
      L1  H    13    35       P1  8028  1.00

> <Gold.PLP.Chemscore.Internal.Correction>
1.2614

> <Gold.Rescore>
     Score         DG    S(hbond)    S(metal)    S(lipo)     H(rot)  DE(clash)    DE(int)     intcor
     15.91     -21.45       2.97        0.00      83.82       1.47       0.03       5.51       ----

> <Gold.Chemscore.Fitness>
15.9074

> <Gold.Chemscore.DG>
-21.4459

> <Gold.Chemscore.ZeroCoef>
-5.4800

> <Gold.Chemscore.Hbond>
2.9713

> <Gold.Chemscore.Metal>
0.0000

> <Gold.Chemscore.Lipo>
83.8191

> <Gold.Chemscore.Internal_Hbond>
0.0000

> <Gold.Chemscore.DEClash>
0.0292

> <Gold.Chemscore.DEInternal>
5.5093

> <Gold.Chemscore.Rot>
1.4707

> <Gold.Chemscore.Internal.Correction>
   9.000000E+99

> <Gold.Chemscore.Hbonds>
donor molecule, donor type, donor heavy atom, donor atom, acceptor molecule, acceptor atom, score
      L1  H     3    20       P1  8028  0.98
      L1  H     8    40       P1  7948  1.00
      L1  H    13    35       P1  8028  0.98

> <Gold.Chemscore.Hbond.Weighted>
-9.9241

> <Gold.Chemscore.Metal.Weighted>
-0.0000

> <Gold.Chemscore.Lipo.Weighted>
-9.8068

> <Gold.Chemscore.Internal_Hbond.Weighted>
0.0000

> <Gold.Chemscore.DEClash.Weighted>
0.0292

> <Gold.Chemscore.DEInternal.Weighted>
5.5093

> <Gold.Chemscore.Rot.Weighted>
3.7650

> <Gold.Chemscore.Internal.Correction.Weighted>
   9.000000E+99

> <Gold.Protein.RotatedTorsions>
[ 6907 6896 6895 6894 ] final    9.05 input  -60.11 | X-H torsion
[ 7974 7965 7964 7962 ] final   70.82 input  175.53 | X-H torsion
[ 8008 7997 7996 7995 ] final  -96.02 input   59.86 | X-H torsion
[ 10167 10162 10161 10158 ] final   84.76 input  -65.29 | X-H torsion
[ 10718 10713 10712 10709 ] final  -25.06 input   66.30 | X-H torsion
[ 10763 10752 10751 10750 ] final   -0.51 input  -60.55 | X-H torsion
[ 11005 11000 10999 10996 ] final  174.14 input  -57.11 | X-H torsion

> <Gold.Protein.ActiveResidues>
 VAL166  LYS551  ARG553  GLY616  TRP617  ASP618  TYR619  PRO620  LYS621  CYS622 
 ASP623  PHE694  ASN695  SER759  ASP760  ASP761  ALA762  ILE779  LEU786  VAL792 
 PHE793  MET794  SER795  GLU796  ALA797  LYS798  CYS799  TRP800  GLU811  SER814 

> <Gold.Protein.RotatedAtoms>
  151.7159  135.0904  160.0275 H   0  0  0  0  0  0  0  0  0  0  0  0  # atno 6907 bound_to 6896
  152.3632  133.6319  159.6039 H   0  0  0  0  0  0  0  0  0  0  0  0  # atno 6908 bound_to 6896
  150.7619  133.9306  159.3467 H   0  0  0  0  0  0  0  0  0  0  0  0  # atno 6909 bound_to 6896
  145.7735  139.2854  143.1307 H   0  0  0  0  0  0  0  0  0  0  0  0  # atno 7974 bound_to 7965
  154.7690  140.0475  157.1035 H   0  0  0  0  0  0  0  0  0  0  0  0  # atno 8008 bound_to 7997
  154.9844  140.3105  155.4913 H   0  0  0  0  0  0  0  0  0  0  0  0  # atno 8009 bound_to 7997
  156.2918  140.2230  156.4945 H   0  0  0  0  0  0  0  0  0  0  0  0  # atno 8010 bound_to 7997
  139.9047  144.6308  150.8600 H   0  0  0  0  0  0  0  0  0  0  0  0  # atno 10167 bound_to 10162
  156.4694  130.4521  149.6878 H   0  0  0  0  0  0  0  0  0  0  0  0  # atno 10718 bound_to 10713
  153.3329  135.6976  153.6933 H   0  0  0  0  0  0  0  0  0  0  0  0  # atno 10763 bound_to 10752
  153.5728  135.3513  155.2845 H   0  0  0  0  0  0  0  0  0  0  0  0  # atno 10764 bound_to 10752
  154.8621  135.4276  154.2522 H   0  0  0  0  0  0  0  0  0  0  0  0  # atno 10765 bound_to 10752
  140.3481  134.7219  157.4249 H   0  0  0  0  0  0  0  0  0  0  0  0  # atno 11005 bound_to 11000
  146.0146  140.8404  142.9953 LP  0  0  0  0  0  0  0  0  0  0  0  0  # atno 17320 bound_to 7965
  144.6808  140.2540  143.7328 LP  0  0  0  0  0  0  0  0  0  0  0  0  # atno 17321 bound_to 7965
  140.7699  143.3410  151.2208 LP  0  0  0  0  0  0  0  0  0  0  0  0  # atno 17342 bound_to 10162
  139.6994  143.9557  152.2898 LP  0  0  0  0  0  0  0  0  0  0  0  0  # atno 17343 bound_to 10162
  156.3634  130.7493  151.2468 LP  0  0  0  0  0  0  0  0  0  0  0  0  # atno 17370 bound_to 10713
  157.7492  131.0344  150.4314 LP  0  0  0  0  0  0  0  0  0  0  0  0  # atno 17371 bound_to 10713
  140.0726  134.5842  155.8626 LP  0  0  0  0  0  0  0  0  0  0  0  0  # atno 17394 bound_to 11000
  141.2020  133.6622  156.5981 LP  0  0  0  0  0  0  0  0  0  0  0  0  # atno 17395 bound_to 11000

$$$$
