AV-unprocessed.smi:37|AV-procd|sdf|331|dock8
  -GOLD-   2262016163D 1   1.00000     0.00000
 Structure written by MMmdl.
 43 44  0  0  0  0  0  0  0  0  2 V2000
  142.5503  135.2794  153.8722 C   0  0  0  0  0  0  0  0  0  0  0  0
  142.8082  136.2710  155.0144 C   0  0  0  0  0  0  0  0  0  0  0  0
  143.5710  135.6299  156.1713 C   0  0  0  0  0  0  0  0  0  0  0  0
  143.1122  134.6669  156.7865 O   0  0  0  0  0  0  0  0  0  0  0  0
  144.7496  136.2279  156.4088 O   0  0  0  0  0  0  0  0  0  0  0  0
  145.5297  135.8204  157.5206 C   0  0  0  0  0  0  0  0  0  0  0  0
  146.8622  136.5887  157.5186 C   0  0  2  0  0  0  0  0  0  0  0  0
  147.6185  136.1279  156.3926 O   0  0  0  0  0  0  0  0  0  0  0  0
  148.8961  135.7086  156.7743 C   0  0  1  0  0  0  0  0  0  0  0  0
  149.8987  136.8362  156.5891 N   0  0  0  0  0  0  0  0  0  0  0  0
  149.8172  138.0165  157.3124 C   0  0  0  0  0  0  0  0  0  0  0  0
  150.7100  139.0116  157.1344 C   0  0  0  0  0  0  0  0  0  0  0  0
  150.6036  140.1423  157.8536 F   0  0  0  0  0  0  0  0  0  0  0  0
  151.7836  138.8547  156.1560 C   0  0  0  0  0  0  0  0  0  0  0  0
  152.6031  139.7599  156.0084 O   0  0  0  0  0  0  0  0  0  0  0  0
  151.8263  137.6951  155.4388 N   0  5  0  0  0  0  0  0  0  0  0  0
  150.9221  136.6872  155.6116 C   0  0  0  0  0  0  0  0  0  0  0  0
  150.9473  135.6440  154.9580 O   0  0  0  0  0  0  0  0  0  0  0  0
  148.7786  135.3215  158.2488 C   0  0  2  0  0  0  0  0  0  0  0  0
  148.0754  133.4583  158.3797 Br  0  0  0  0  0  0  0  0  0  0  0  0
  147.7579  136.3354  158.7457 C   0  0  2  0  0  0  0  0  0  0  0  0
  147.0486  135.8940  159.8975 O   0  0  0  0  0  0  0  0  0  0  0  0
  147.5967  136.0070  161.1208 C   0  0  0  0  0  0  0  0  0  0  0  0
  148.3948  136.8733  161.4787 O   0  0  0  0  0  0  0  0  0  0  0  0
  147.1232  134.9163  162.0783 C   0  0  0  0  0  0  0  0  0  0  0  0
  147.5741  133.5190  161.6306 C   0  0  0  0  0  0  0  0  0  0  0  0
  142.0235  135.7677  153.0522 H   0  0  0  0  0  0  0  0  0  0  0  0
  141.9390  134.4385  154.2020 H   0  0  0  0  0  0  0  0  0  0  0  0
  143.4847  134.8818  153.4744 H   0  0  0  0  0  0  0  0  0  0  0  0
  143.3786  137.1234  154.6445 H   0  0  0  0  0  0  0  0  0  0  0  0
  141.8623  136.6623  155.3897 H   0  0  0  0  0  0  0  0  0  0  0  0
  144.9668  136.0402  158.4284 H   0  0  0  0  0  0  0  0  0  0  0  0
  145.7038  134.7443  157.4924 H   0  0  0  0  0  0  0  0  0  0  0  0
  146.6632  137.6575  157.4341 H   0  0  0  0  0  0  0  0  0  0  0  0
  149.2503  134.9073  156.1237 H   0  0  0  0  0  0  0  0  0  0  0  0
  149.0302  138.1664  158.0341 H   0  0  0  0  0  0  0  0  0  0  0  0
  149.7301  135.3627  158.7789 H   0  0  0  0  0  0  0  0  0  0  0  0
  148.2774  137.2702  158.9634 H   0  0  0  0  0  0  0  0  0  0  0  0
  147.5128  135.1291  163.0744 H   0  0  0  0  0  0  0  0  0  0  0  0
  146.0359  134.9549  162.1481 H   0  0  0  0  0  0  0  0  0  0  0  0
  147.2662  132.7659  162.3559 H   0  0  0  0  0  0  0  0  0  0  0  0
  148.6595  133.4636  161.5358 H   0  0  0  0  0  0  0  0  0  0  0  0
  147.1386  133.2467  160.6683 H   0  0  0  0  0  0  0  0  0  0  0  0
  1  2  1  0  0  0  0
  1 27  1  0  0  0  0
  1 28  1  0  0  0  0
  1 29  1  0  0  0  0
  2  3  1  0  0  0  0
  2 30  1  0  0  0  0
  2 31  1  0  0  0  0
  3  4  2  0  0  0  0
  3  5  1  0  0  0  0
  5  6  1  0  0  0  0
  6  7  1  0  0  0  0
  6 32  1  0  0  0  0
  6 33  1  0  0  0  0
  7 21  1  0  0  0  0
  7  8  1  0  0  0  0
  7 34  1  0  0  0  0
  8  9  1  0  0  0  0
  9 10  1  0  0  0  0
  9 19  1  0  0  0  0
  9 35  1  0  0  0  0
 10 17  1  0  0  0  0
 10 11  1  0  0  0  0
 11 12  2  0  0  0  0
 11 36  1  0  0  0  0
 12 13  1  0  0  0  0
 12 14  1  0  0  0  0
 14 15  2  0  0  0  0
 14 16  1  0  0  0  0
 16 17  1  0  0  0  0
 17 18  2  0  0  0  0
 19 20  1  0  0  0  0
 19 21  1  0  0  0  0
 19 37  1  0  0  0  0
 21 22  1  0  0  0  0
 21 38  1  0  0  0  0
 22 23  1  0  0  0  0
 23 24  2  0  0  0  0
 23 25  1  0  0  0  0
 25 26  1  0  0  0  0
 25 39  1  0  0  0  0
 25 40  1  0  0  0  0
 26 41  1  0  0  0  0
 26 42  1  0  0  0  0
 26 43  1  0  0  0  0
M  CHG  1  16  -1
M  END
> <s_m_source_file>
AV-unprocessed.smi

> <i_m_source_file_index>
37

> <i_lp_mmshare_version>
43012

> <i_f3d_flags>
0

> <s_epik_input>
W0NIM11bQ0gyXUMoPU8pT1tDSDJdW0NAQEhdMU9bQ0BASF0objJbY0hdYyhGKWMoPU8pW25IXWMyPU8pW0NAQEhdKEJyKVtDQEhdMU9DKD1PKVtDSDJdW0NIM10=

> <s_epik_cmdline>
J2VwaWtfcHl0aG9uJywgJy1waCcsICc3LjAnLCAnLXRuJywgJzgnLCAnLW1hJywgJzIwMCcsICctbWV0YWxfYmluZGluZycsICctaW1hZScsICc8aW5maWxlLm1hZT4nLCAnLW9tYWUnLCAnPG91dGZpbGUubWFlPic=

> <r_epik_Ionization_Penalty>
1.08158

> <r_epik_Ionization_Penalty_Charging>
9.05154e-09

> <r_epik_Ionization_Penalty_Neutral>
1.08158

> <r_epik_State_Penalty>
1.13706

> <r_epik_Charging_Adjusted_Penalty>
1.13706

> <i_epik_Tot_Q>
-1

> <i_epik_Tot_abs_Q>
1

> <r_epik_Metal_State_Penalty>
0.00343535

> <b_epik_Metal_Only>
0

> <s_epik_Chemistry_Notes>
This compound has an ester and may undergo hydrolysis at high or low pH. This compound contains an acetal/aminal-like group ( X-CH(R)-Y where X, Y are N, S, or O) that may be acid/base labile, releasing an aldehyde.

> <s_lp_Force_Field>
OPLS_2005

> <r_lp_Energy>
34.8108

> <b_lp_Chiralities_Consistent>
1

> <s_lp_Variant>
AV-unprocessed.smi:37-29

> <Gold.Version>
5.8.1

> <Gold.Id.Protein>
6NUR|6NUR_protein|mol2

> <Gold.PLP.Fitness>
35.4634

> <Gold.PLP.PLP>
-26.1521

> <Gold.PLP.part.hbond>
-4.4037

> <Gold.PLP.part.metal>
0.0000

> <Gold.PLP.part.buried>
-5.5832

> <Gold.PLP.part.nonpolar>
-16.7338

> <Gold.PLP.part.repulsive>
0.2758

> <Gold.PLP.ligand.clash>
0.0000

> <Gold.PLP.ligand.torsion>
0.7358

> <Gold.PLP.Chemscore.Hbond>
3.5650

> <Gold.PLP.Chemscore.CHOScore>
0.0000

> <Gold.PLP.Chemscore.Metal>
0.0000

> <Gold.Chemscore.Hbonds>
donor molecule, donor type, donor heavy atom, donor atom, acceptor molecule, acceptor atom, score
      P1  H  6931  6943       L1    24  1.00
      P1  H  7997  8009       L1    15  1.00
      P1  H 10752 10764       L1    18  0.95
      P1  H 11000 11005       L1     4  0.50

> <Gold.PLP.Chemscore.Internal.Correction>
0.0879

> <Gold.Rescore>
     Score         DG    S(hbond)    S(metal)    S(lipo)     H(rot)  DE(clash)    DE(int)     intcor
     11.32     -12.96       3.47        0.00      36.29       3.27       0.02       1.62       ----

> <Gold.Chemscore.Fitness>
11.3209

> <Gold.Chemscore.DG>
-12.9614

> <Gold.Chemscore.ZeroCoef>
-5.4800

> <Gold.Chemscore.Hbond>
3.4729

> <Gold.Chemscore.Metal>
0.0000

> <Gold.Chemscore.Lipo>
36.2855

> <Gold.Chemscore.Internal_Hbond>
0.0000

> <Gold.Chemscore.DEClash>
0.0186

> <Gold.Chemscore.DEInternal>
1.6219

> <Gold.Chemscore.Rot>
3.2669

> <Gold.Chemscore.Internal.Correction>
   9.000000E+99

> <Gold.Chemscore.Hbonds>
donor molecule, donor type, donor heavy atom, donor atom, acceptor molecule, acceptor atom, score
      P1  H  6931  6943       L1    24  0.97
      P1  H  7997  8009       L1    15  0.99
      P1  H 10752 10764       L1    18  0.20
      P1  H 11000 11005       L1     4  0.49

> <Gold.Chemscore.Hbond.Weighted>
-11.5993

> <Gold.Chemscore.Metal.Weighted>
-0.0000

> <Gold.Chemscore.Lipo.Weighted>
-4.2454

> <Gold.Chemscore.Internal_Hbond.Weighted>
0.0000

> <Gold.Chemscore.DEClash.Weighted>
0.0186

> <Gold.Chemscore.DEInternal.Weighted>
1.6219

> <Gold.Chemscore.Rot.Weighted>
8.3634

> <Gold.Chemscore.Internal.Correction.Weighted>
   9.000000E+99

> <Gold.Protein.RotatedTorsions>
[ 6907 6896 6895 6894 ] final  164.43 input  -60.11 | X-H torsion
[ 7974 7965 7964 7962 ] final  -11.57 input  175.53 | X-H torsion
[ 8008 7997 7996 7995 ] final -142.82 input   59.86 | X-H torsion
[ 10167 10162 10161 10158 ] final   83.78 input  -65.29 | X-H torsion
[ 10718 10713 10712 10709 ] final  -11.74 input   66.30 | X-H torsion
[ 10763 10752 10751 10750 ] final  -58.83 input  -60.55 | X-H torsion
[ 11005 11000 10999 10996 ] final  -86.84 input  -57.11 | X-H torsion

> <Gold.Protein.ActiveResidues>
 VAL166  LYS551  ARG553  GLY616  TRP617  ASP618  TYR619  PRO620  LYS621  CYS622 
 ASP623  PHE694  ASN695  SER759  ASP760  ASP761  ALA762  ILE779  LEU786  VAL792 
 PHE793  MET794  SER795  GLU796  ALA797  LYS798  CYS799  TRP800  GLU811  SER814 

> <Gold.Protein.RotatedAtoms>
  151.9099  133.3558  159.3859 H   0  0  0  0  0  0  0  0  0  0  0  0  # atno 6907 bound_to 6896
  150.7060  134.4742  159.5449 H   0  0  0  0  0  0  0  0  0  0  0  0  # atno 6908 bound_to 6896
  152.2347  134.8288  160.0519 H   0  0  0  0  0  0  0  0  0  0  0  0  # atno 6909 bound_to 6896
  146.2182  140.2931  142.8370 H   0  0  0  0  0  0  0  0  0  0  0  0  # atno 7974 bound_to 7965
  155.5005  140.0575  157.2940 H   0  0  0  0  0  0  0  0  0  0  0  0  # atno 8008 bound_to 7997
  154.4589  140.1986  156.0251 H   0  0  0  0  0  0  0  0  0  0  0  0  # atno 8009 bound_to 7997
  156.0852  140.3241  155.7748 H   0  0  0  0  0  0  0  0  0  0  0  0  # atno 8010 bound_to 7997
  139.9148  144.6249  150.8500 H   0  0  0  0  0  0  0  0  0  0  0  0  # atno 10167 bound_to 10162
  156.6547  130.4965  149.6050 H   0  0  0  0  0  0  0  0  0  0  0  0  # atno 10718 bound_to 10713
  154.2442  135.6338  153.5217 H   0  0  0  0  0  0  0  0  0  0  0  0  # atno 10763 bound_to 10752
  152.9924  135.5549  154.5878 H   0  0  0  0  0  0  0  0  0  0  0  0  # atno 10764 bound_to 10752
  154.5390  135.2893  155.1087 H   0  0  0  0  0  0  0  0  0  0  0  0  # atno 10765 bound_to 10752
  141.1625  133.7477  156.9220 H   0  0  0  0  0  0  0  0  0  0  0  0  # atno 11005 bound_to 11000
  144.9112  140.7759  143.5806 LP  0  0  0  0  0  0  0  0  0  0  0  0  # atno 17320 bound_to 7965
  145.2862  139.1900  143.4765 LP  0  0  0  0  0  0  0  0  0  0  0  0  # atno 17321 bound_to 7965
  140.7676  143.3339  151.2350 LP  0  0  0  0  0  0  0  0  0  0  0  0  # atno 17342 bound_to 10162
  139.6911  143.9690  152.2860 LP  0  0  0  0  0  0  0  0  0  0  0  0  # atno 17343 bound_to 10162
  156.2057  130.6647  151.1215 LP  0  0  0  0  0  0  0  0  0  0  0  0  # atno 17370 bound_to 10713
  157.7129  131.0725  150.6434 LP  0  0  0  0  0  0  0  0  0  0  0  0  # atno 17371 bound_to 10713
  140.1445  134.9272  157.2511 LP  0  0  0  0  0  0  0  0  0  0  0  0  # atno 17394 bound_to 11000
  140.2797  134.3364  155.7347 LP  0  0  0  0  0  0  0  0  0  0  0  0  # atno 17395 bound_to 11000

$$$$
