AV-unprocessed.smi:1815|AV-procd|sdf|7355|dock3
  -GOLD-   22720 9 13D 1   1.00000     0.00000
 Structure written by MMmdl.
 40 41  0  0  0  0  0  0  0  0  2 V2000
  148.6543  140.7064  154.4101 C   0  0  0  0  0  0  0  0  0  0  0  0
  149.3027  139.3374  154.1773 C   0  0  2  0  0  0  0  0  0  0  0  0
  148.6290  138.2275  155.0057 C   0  0  0  0  0  0  0  0  0  0  0  0
  149.3283  136.9348  154.8135 N   0  3  2  0  0  0  0  0  0  0  0  0
  148.6707  135.8245  155.5468 C   0  0  0  0  0  0  0  0  0  0  0  0
  148.8197  134.4712  154.8250 C   0  0  0  0  0  0  0  0  0  0  0  0
  148.2185  134.5032  153.4965 N   0  0  0  0  0  0  0  0  0  0  0  0
  147.1649  133.7658  153.1166 C   0  0  0  0  0  0  0  0  0  0  0  0
  146.5944  132.9692  153.8627 O   0  0  0  0  0  0  0  0  0  0  0  0
  146.8308  134.0114  151.8378 N   0  0  0  0  0  0  0  0  0  0  0  0
  145.7873  133.4232  151.0758 C   0  0  0  0  0  0  0  0  0  0  0  0
  145.1529  134.0327  150.0675 N   0  0  0  0  0  0  0  0  0  0  0  0
  144.1698  133.2190  149.4984 C   0  0  0  0  0  0  0  0  0  0  0  0
  144.0680  131.9850  150.0910 C   0  0  0  0  0  0  0  0  0  0  0  0
  145.2105  131.7937  151.3936 S   0  0  0  0  0  0  0  0  0  0  0  0
  150.7726  137.0797  155.1201 C   0  0  0  0  0  0  0  0  0  0  0  0
  151.3888  138.2219  154.2898 C   0  0  2  0  0  0  0  0  0  0  0  0
  152.8631  138.4577  154.6359 C   0  0  0  0  0  0  0  0  0  0  0  0
  150.6738  139.4252  154.5492 O   0  0  0  0  0  0  0  0  0  0  0  0
  147.6019  140.6959  154.1256 H   0  0  0  0  0  0  0  0  0  0  0  0
  149.1496  141.4774  153.8195 H   0  0  0  0  0  0  0  0  0  0  0  0
  148.7149  140.9997  155.4587 H   0  0  0  0  0  0  0  0  0  0  0  0
  149.2332  139.0978  153.1147 H   0  0  0  0  0  0  0  0  0  0  0  0
  148.6343  138.4893  156.0653 H   0  0  0  0  0  0  0  0  0  0  0  0
  147.5851  138.1296  154.7046 H   0  0  0  0  0  0  0  0  0  0  0  0
  149.0634  135.7668  156.5632 H   0  0  0  0  0  0  0  0  0  0  0  0
  147.6078  136.0522  155.6403 H   0  0  0  0  0  0  0  0  0  0  0  0
  149.8718  134.1905  154.7503 H   0  0  0  0  0  0  0  0  0  0  0  0
  148.3247  133.6775  155.3833 H   0  0  0  0  0  0  0  0  0  0  0  0
  148.6282  135.1344  152.8231 H   0  0  0  0  0  0  0  0  0  0  0  0
  147.3886  134.6965  151.3498 H   0  0  0  0  0  0  0  0  0  0  0  0
  143.5869  133.5994  148.6726 H   0  0  0  0  0  0  0  0  0  0  0  0
  143.3929  131.1802  149.8405 H   0  0  0  0  0  0  0  0  0  0  0  0
  150.9003  137.2775  156.1859 H   0  0  0  0  0  0  0  0  0  0  0  0
  151.3017  136.1530  154.9012 H   0  0  0  0  0  0  0  0  0  0  0  0
  151.3169  137.9839  153.2270 H   0  0  0  0  0  0  0  0  0  0  0  0
  153.4587  137.5642  154.4472 H   0  0  0  0  0  0  0  0  0  0  0  0
  152.9848  138.7257  155.6859 H   0  0  0  0  0  0  0  0  0  0  0  0
  153.2795  139.2669  154.0355 H   0  0  0  0  0  0  0  0  0  0  0  0
  149.2529  136.7161  153.8302 H   0  0  0  0  0  0  0  0  0  0  0  0
  1  2  1  0  0  0  0
  1 20  1  0  0  0  0
  1 21  1  0  0  0  0
  1 22  1  0  0  0  0
  2 19  1  0  0  0  0
  2  3  1  0  0  0  0
  2 23  1  0  0  0  0
  3  4  1  0  0  0  0
  3 24  1  0  0  0  0
  3 25  1  0  0  0  0
  4  5  1  0  0  0  0
  4 16  1  0  0  0  0
  4 40  1  0  0  0  0
  5  6  1  0  0  0  0
  5 26  1  0  0  0  0
  5 27  1  0  0  0  0
  6  7  1  0  0  0  0
  6 28  1  0  0  0  0
  6 29  1  0  0  0  0
  7  8  1  0  0  0  0
  7 30  1  0  0  0  0
  8  9  2  0  0  0  0
  8 10  1  0  0  0  0
 10 11  1  0  0  0  0
 10 31  1  0  0  0  0
 11 15  1  0  0  0  0
 11 12  2  0  0  0  0
 12 13  1  0  0  0  0
 13 14  2  0  0  0  0
 13 32  1  0  0  0  0
 14 15  1  0  0  0  0
 14 33  1  0  0  0  0
 16 17  1  0  0  0  0
 16 34  1  0  0  0  0
 16 35  1  0  0  0  0
 17 18  1  0  0  0  0
 17 19  1  0  0  0  0
 17 36  1  0  0  0  0
 18 37  1  0  0  0  0
 18 38  1  0  0  0  0
 18 39  1  0  0  0  0
M  CHG  1   4   1
M  END
> <s_m_source_file>
AV-unprocessed.smi

> <i_m_source_file_index>
1815

> <i_lp_mmshare_version>
43012

> <i_f3d_flags>
0

> <s_epik_input>
W0NIM11bQ0BASF0xW0NIMl1OKFtDSDJdW0NASF0oTzEpW0NIM10pW0NIMl1bQ0gyXVtOSF1DKD1PKVtOSF1jMm5bY0hdW2NIXXMy

> <s_epik_cmdline>
J2VwaWtfcHl0aG9uJywgJy1waCcsICc3LjAnLCAnLXRuJywgJzgnLCAnLW1hJywgJzIwMCcsICctbWV0YWxfYmluZGluZycsICctaW1hZScsICc8aW5maWxlLm1hZT4nLCAnLW9tYWUnLCAnPG91dGZpbGUubWFlPic=

> <r_lp_tautomer_probability>
0.999

> <r_epik_Ionization_Penalty>
0.695838

> <r_epik_Ionization_Penalty_Charging>
0.695697

> <r_epik_Ionization_Penalty_Neutral>
0.000141198

> <r_epik_State_Penalty>
0.717972

> <r_epik_Charging_Adjusted_Penalty>
1.41367

> <i_epik_Tot_Q>
1

> <i_epik_Tot_abs_Q>
1

> <r_epik_Metal_State_Penalty>
0.756405

> <b_epik_Metal_Only>
0

> <s_lp_Force_Field>
OPLS_2005

> <r_lp_Energy>
12.0644

> <b_lp_Chiralities_Consistent>
1

> <s_lp_Variant>
AV-unprocessed.smi:1815-6

> <Gold.Version>
5.8.1

> <Gold.Id.Protein>
6NUR|6NUR_protein|mol2

> <Gold.PLP.Fitness>
47.6316

> <Gold.PLP.PLP>
-30.7621

> <Gold.PLP.part.hbond>
-3.5517

> <Gold.PLP.part.metal>
0.0000

> <Gold.PLP.part.buried>
-4.7460

> <Gold.PLP.part.nonpolar>
-23.7410

> <Gold.PLP.part.repulsive>
0.5106

> <Gold.PLP.ligand.clash>
0.0000

> <Gold.PLP.ligand.torsion>
0.5325

> <Gold.PLP.Chemscore.Hbond>
4.2340

> <Gold.PLP.Chemscore.CHOScore>
1.7326

> <Gold.PLP.Chemscore.Metal>
0.0000

> <Gold.Chemscore.Hbonds>
donor molecule, donor type, donor heavy atom, donor atom, acceptor molecule, acceptor atom, score
      L1  H     4    40       P1  7948  2.00
      L1  H     7    30       P1  7948  0.81
      L1  H    10    31       P1  7948  0.46
      P1  H  7989  7998       L1    19  1.00
      L1  C    13    32       P1 10186  0.15
      L1  C    14    33       P1 10952  0.53

> <Gold.PLP.Chemscore.Internal.Correction>
0.0347

> <Gold.Rescore>
     Score         DG    S(hbond)    S(metal)    S(lipo)     H(rot)  DE(clash)    DE(int)     intcor
     18.22     -18.95       2.57        0.00      77.52       1.64       0.07       0.66       ----

> <Gold.Chemscore.Fitness>
18.2185

> <Gold.Chemscore.DG>
-18.9526

> <Gold.Chemscore.ZeroCoef>
-5.4800

> <Gold.Chemscore.Hbond>
2.5742

> <Gold.Chemscore.Metal>
0.0000

> <Gold.Chemscore.Lipo>
77.5155

> <Gold.Chemscore.Internal_Hbond>
0.0000

> <Gold.Chemscore.DEClash>
0.0706

> <Gold.Chemscore.DEInternal>
0.6636

> <Gold.Chemscore.Rot>
1.6385

> <Gold.Chemscore.Internal.Correction>
   9.000000E+99

> <Gold.Chemscore.Hbonds>
donor molecule, donor type, donor heavy atom, donor atom, acceptor molecule, acceptor atom, score
      L1  H     4    40       P1  7948  0.91
      L1  H     7    30       P1  7948  0.44
      L1  H    10    31       P1  7948  0.16
      P1  H  7989  7998       L1    19  0.37

> <Gold.Chemscore.Hbond.Weighted>
-8.5978

> <Gold.Chemscore.Metal.Weighted>
-0.0000

> <Gold.Chemscore.Lipo.Weighted>
-9.0693

> <Gold.Chemscore.Internal_Hbond.Weighted>
0.0000

> <Gold.Chemscore.DEClash.Weighted>
0.0706

> <Gold.Chemscore.DEInternal.Weighted>
0.6636

> <Gold.Chemscore.Rot.Weighted>
4.1945

> <Gold.Chemscore.Internal.Correction.Weighted>
   9.000000E+99

> <Gold.Protein.RotatedTorsions>
[ 6907 6896 6895 6894 ] final  117.83 input  -60.11 | X-H torsion
[ 7974 7965 7964 7962 ] final -117.29 input  175.53 | X-H torsion
[ 8008 7997 7996 7995 ] final  -88.14 input   59.86 | X-H torsion
[ 10167 10162 10161 10158 ] final   21.36 input  -65.29 | X-H torsion
[ 10718 10713 10712 10709 ] final -145.74 input   66.30 | X-H torsion
[ 10763 10752 10751 10750 ] final -165.88 input  -60.55 | X-H torsion
[ 11005 11000 10999 10996 ] final   29.72 input  -57.11 | X-H torsion

> <Gold.Protein.ActiveResidues>
 VAL166  LYS551  ARG553  GLY616  TRP617  ASP618  TYR619  PRO620  LYS621  CYS622 
 ASP623  PHE694  ASN695  SER759  ASP760  ASP761  ALA762  ILE779  LEU786  VAL792 
 PHE793  MET794  SER795  GLU796  ALA797  LYS798  CYS799  TRP800  GLU811  SER814 

> <Gold.Protein.RotatedAtoms>
  152.4585  133.7773  159.6831 H   0  0  0  0  0  0  0  0  0  0  0  0  # atno 6907 bound_to 6896
  150.8520  133.7763  159.3028 H   0  0  0  0  0  0  0  0  0  0  0  0  # atno 6908 bound_to 6896
  151.5355  135.1071  159.9965 H   0  0  0  0  0  0  0  0  0  0  0  0  # atno 6909 bound_to 6896
  145.0869  140.8464  143.4006 H   0  0  0  0  0  0  0  0  0  0  0  0  # atno 7974 bound_to 7965
  154.6713  140.0557  157.0168 H   0  0  0  0  0  0  0  0  0  0  0  0  # atno 8008 bound_to 7997
  155.1084  140.3236  155.4509 H   0  0  0  0  0  0  0  0  0  0  0  0  # atno 8009 bound_to 7997
  156.2658  140.2018  156.6209 H   0  0  0  0  0  0  0  0  0  0  0  0  # atno 8010 bound_to 7997
  140.5432  143.9640  150.6532 H   0  0  0  0  0  0  0  0  0  0  0  0  # atno 10167 bound_to 10162
  156.3862  130.7862  151.2060 H   0  0  0  0  0  0  0  0  0  0  0  0  # atno 10718 bound_to 10713
  154.6888  135.2967  154.9508 H   0  0  0  0  0  0  0  0  0  0  0  0  # atno 10763 bound_to 10752
  154.0479  135.6648  153.4801 H   0  0  0  0  0  0  0  0  0  0  0  0  # atno 10764 bound_to 10752
  153.0598  135.5122  154.7970 H   0  0  0  0  0  0  0  0  0  0  0  0  # atno 10765 bound_to 10752
  140.3020  134.2746  155.7752 H   0  0  0  0  0  0  0  0  0  0  0  0  # atno 11005 bound_to 11000
  145.1112  139.2756  143.5636 LP  0  0  0  0  0  0  0  0  0  0  0  0  # atno 17320 bound_to 7965
  146.3531  140.0708  142.8623 LP  0  0  0  0  0  0  0  0  0  0  0  0  # atno 17321 bound_to 7965
  140.3046  143.3238  152.0938 LP  0  0  0  0  0  0  0  0  0  0  0  0  # atno 17342 bound_to 10162
  139.4997  144.6675  151.6321 LP  0  0  0  0  0  0  0  0  0  0  0  0  # atno 17343 bound_to 10162
  157.7496  131.0329  150.4249 LP  0  0  0  0  0  0  0  0  0  0  0  0  # atno 17370 bound_to 10713
  156.4502  130.4010  149.6641 LP  0  0  0  0  0  0  0  0  0  0  0  0  # atno 17371 bound_to 10713
  141.2126  133.7652  156.9781 LP  0  0  0  0  0  0  0  0  0  0  0  0  # atno 17394 bound_to 11000
  140.1101  134.9482  157.2052 LP  0  0  0  0  0  0  0  0  0  0  0  0  # atno 17395 bound_to 11000

$$$$
