AV-unprocessed.smi:3197|AV-procd|sdf|12225|dock5
  -GOLD-   2272018 53D 1   1.00000     0.00000
 Structure written by MMmdl.
 33 34  0  0  0  0  0  0  0  0  1 V2000
  147.4128  139.0431  153.4275 C   0  0  0  0  0  0  0  0  0  0  0  0
  148.6988  138.8242  153.9606 C   0  0  0  0  0  0  0  0  0  0  0  0
  149.3592  139.7858  154.6424 N   0  0  0  0  0  0  0  0  0  0  0  0
  148.7393  140.9593  154.7911 C   0  0  0  0  0  0  0  0  0  0  0  0
  149.4438  141.9195  155.4920 N   0  0  0  0  0  0  0  0  0  0  0  0
  150.6310  141.6447  156.2872 C   0  0  0  0  0  0  0  0  0  0  0  0
  150.6585  142.4837  157.5689 C   0  0  0  0  0  0  0  0  0  0  0  0
  151.8162  142.1532  158.3182 O   0  0  0  0  0  0  0  0  0  0  0  0
  152.1733  143.1619  159.2487 C   0  0  0  0  0  0  0  0  0  0  0  0
  152.5602  142.5027  160.5801 C   0  0  2  0  0  0  0  0  0  0  0  0
  152.6239  143.4646  161.7487 C   0  0  0  0  0  0  0  0  0  0  0  0
  153.4631  142.6811  162.7529 C   0  0  0  0  0  0  0  0  0  0  0  0
  154.3642  141.8978  161.9757 O   0  0  0  0  0  0  0  0  0  0  0  0
  153.9724  141.9164  160.6056 C   0  0  0  0  0  0  0  0  0  0  0  0
  147.5239  141.2766  154.3281 N   0  0  0  0  0  0  0  0  0  0  0  0
  146.8578  140.3197  153.6460 C   0  0  0  0  0  0  0  0  0  0  0  0
  146.8826  138.2765  152.8823 H   0  0  0  0  0  0  0  0  0  0  0  0
  149.1993  137.8751  153.8397 H   0  0  0  0  0  0  0  0  0  0  0  0
  149.1351  142.8769  155.4060 H   0  0  0  0  0  0  0  0  0  0  0  0
  150.6319  140.5860  156.5489 H   0  0  0  0  0  0  0  0  0  0  0  0
  151.5262  141.8297  155.6923 H   0  0  0  0  0  0  0  0  0  0  0  0
  150.6379  143.5487  157.3311 H   0  0  0  0  0  0  0  0  0  0  0  0
  149.7705  142.2652  158.1638 H   0  0  0  0  0  0  0  0  0  0  0  0
  153.0026  143.7567  158.8619 H   0  0  0  0  0  0  0  0  0  0  0  0
  151.3298  143.8369  159.4020 H   0  0  0  0  0  0  0  0  0  0  0  0
  151.8439  141.7144  160.8182 H   0  0  0  0  0  0  0  0  0  0  0  0
  153.1438  144.3800  161.4617 H   0  0  0  0  0  0  0  0  0  0  0  0
  151.6416  143.7356  162.1368 H   0  0  0  0  0  0  0  0  0  0  0  0
  153.9954  143.3301  163.4486 H   0  0  0  0  0  0  0  0  0  0  0  0
  152.8307  142.0082  163.3332 H   0  0  0  0  0  0  0  0  0  0  0  0
  154.0165  140.9197  160.1661 H   0  0  0  0  0  0  0  0  0  0  0  0
  154.6679  142.5557  160.0600 H   0  0  0  0  0  0  0  0  0  0  0  0
  145.8769  140.5738  153.2726 H   0  0  0  0  0  0  0  0  0  0  0  0
  1 16  1  0  0  0  0
  1  2  2  0  0  0  0
  1 17  1  0  0  0  0
  2  3  1  0  0  0  0
  2 18  1  0  0  0  0
  3  4  2  0  0  0  0
  4  5  1  0  0  0  0
  4 15  1  0  0  0  0
  5  6  1  0  0  0  0
  5 19  1  0  0  0  0
  6  7  1  0  0  0  0
  6 20  1  0  0  0  0
  6 21  1  0  0  0  0
  7  8  1  0  0  0  0
  7 22  1  0  0  0  0
  7 23  1  0  0  0  0
  8  9  1  0  0  0  0
  9 10  1  0  0  0  0
  9 24  1  0  0  0  0
  9 25  1  0  0  0  0
 10 14  1  0  0  0  0
 10 11  1  0  0  0  0
 10 26  1  0  0  0  0
 11 12  1  0  0  0  0
 11 27  1  0  0  0  0
 11 28  1  0  0  0  0
 12 13  1  0  0  0  0
 12 29  1  0  0  0  0
 12 30  1  0  0  0  0
 13 14  1  0  0  0  0
 14 31  1  0  0  0  0
 14 32  1  0  0  0  0
 15 16  2  0  0  0  0
 16 33  1  0  0  0  0
M  END
> <s_m_source_file>
AV-unprocessed.smi

> <i_m_source_file_index>
3197

> <i_lp_mmshare_version>
43012

> <i_f3d_flags>
0

> <s_epik_input>
bjFbY0hdW2NIXVtjSF1uYzFbTkhdW0NIMl1bQ0gyXU9bQ0gyXVtDQEBIXTJbQ0gyXVtDSDJdT1tDSDJdMg==

> <s_epik_cmdline>
J2VwaWtfcHl0aG9uJywgJy1waCcsICc3LjAnLCAnLXRuJywgJzgnLCAnLW1hJywgJzIwMCcsICctbWV0YWxfYmluZGluZycsICctaW1hZScsICc8aW5maWxlLm1hZT4nLCAnLW9tYWUnLCAnPG91dGZpbGUubWFlPic=

> <r_lp_tautomer_probability>
1

> <r_epik_Ionization_Penalty>
0.000570263

> <r_epik_Ionization_Penalty_Charging>
0

> <r_epik_Ionization_Penalty_Neutral>
0.000570263

> <r_epik_State_Penalty>
0.000357543

> <r_epik_Charging_Adjusted_Penalty>
0.000357543

> <i_epik_Tot_Q>
0

> <i_epik_Tot_abs_Q>
0

> <r_epik_Metal_State_Penalty>
-0

> <b_epik_Metal_Only>
0

> <s_lp_Force_Field>
OPLS_2005

> <r_lp_Energy>
12.4723

> <b_lp_Chiralities_Consistent>
1

> <s_lp_Variant>
AV-unprocessed.smi:3197-1

> <Gold.Version>
5.8.1

> <Gold.Id.Protein>
6NUR|6NUR_protein|mol2

> <Gold.PLP.Fitness>
44.5782

> <Gold.PLP.PLP>
-37.5684

> <Gold.PLP.part.hbond>
-2.0000

> <Gold.PLP.part.metal>
0.0000

> <Gold.PLP.part.buried>
-2.7377

> <Gold.PLP.part.nonpolar>
-33.0583

> <Gold.PLP.part.repulsive>
0.4741

> <Gold.PLP.ligand.clash>
0.0000

> <Gold.PLP.ligand.torsion>
0.7399

> <Gold.PLP.Chemscore.Hbond>
1.0000

> <Gold.PLP.Chemscore.CHOScore>
1.8057

> <Gold.PLP.Chemscore.Metal>
0.0000

> <Gold.Chemscore.Hbonds>
donor molecule, donor type, donor heavy atom, donor atom, acceptor molecule, acceptor atom, score
      L1  H     5    19       P1  8028  1.00
      L1  C     2    18       P1  7948  0.87
      L1  C    16    33       P1 10175  1.00

> <Gold.PLP.Chemscore.Internal.Correction>
0.0726

> <Gold.Rescore>
     Score         DG    S(hbond)    S(metal)    S(lipo)     H(rot)  DE(clash)    DE(int)     intcor
     13.92     -14.64       0.99        0.00      91.03       1.88       0.01       0.71       ----

> <Gold.Chemscore.Fitness>
13.9223

> <Gold.Chemscore.DG>
-14.6394

> <Gold.Chemscore.ZeroCoef>
-5.4800

> <Gold.Chemscore.Hbond>
0.9934

> <Gold.Chemscore.Metal>
0.0000

> <Gold.Chemscore.Lipo>
91.0269

> <Gold.Chemscore.Internal_Hbond>
0.0000

> <Gold.Chemscore.DEClash>
0.0111

> <Gold.Chemscore.DEInternal>
0.7059

> <Gold.Chemscore.Rot>
1.8784

> <Gold.Chemscore.Internal.Correction>
   9.000000E+99

> <Gold.Chemscore.Hbonds>
donor molecule, donor type, donor heavy atom, donor atom, acceptor molecule, acceptor atom, score
      L1  H     5    19       P1  8028  1.00

> <Gold.Chemscore.Hbond.Weighted>
-3.3180

> <Gold.Chemscore.Metal.Weighted>
-0.0000

> <Gold.Chemscore.Lipo.Weighted>
-10.6501

> <Gold.Chemscore.Internal_Hbond.Weighted>
0.0000

> <Gold.Chemscore.DEClash.Weighted>
0.0111

> <Gold.Chemscore.DEInternal.Weighted>
0.7059

> <Gold.Chemscore.Rot.Weighted>
4.8087

> <Gold.Chemscore.Internal.Correction.Weighted>
   9.000000E+99

> <Gold.Protein.RotatedTorsions>
[ 6907 6896 6895 6894 ] final  106.18 input  -60.11 | X-H torsion
[ 7974 7965 7964 7962 ] final  -30.32 input  175.53 | X-H torsion
[ 8008 7997 7996 7995 ] final -147.13 input   59.86 | X-H torsion
[ 10167 10162 10161 10158 ] final -138.90 input  -65.29 | X-H torsion
[ 10718 10713 10712 10709 ] final -118.35 input   66.30 | X-H torsion
[ 10763 10752 10751 10750 ] final   55.42 input  -60.55 | X-H torsion
[ 11005 11000 10999 10996 ] final    2.51 input  -57.11 | X-H torsion

> <Gold.Protein.ActiveResidues>
 VAL166  LYS551  ARG553  GLY616  TRP617  ASP618  TYR619  PRO620  LYS621  CYS622 
 ASP623  PHE694  ASN695  SER759  ASP760  ASP761  ALA762  ILE779  LEU786  VAL792 
 PHE793  MET794  SER795  GLU796  ALA797  LYS798  CYS799  TRP800  GLU811  SER814 

> <Gold.Protein.RotatedAtoms>
  152.5203  133.9419  159.7630 H   0  0  0  0  0  0  0  0  0  0  0  0  # atno 6907 bound_to 6896
  150.9747  133.6299  159.2739 H   0  0  0  0  0  0  0  0  0  0  0  0  # atno 6908 bound_to 6896
  151.3497  135.0887  159.9452 H   0  0  0  0  0  0  0  0  0  0  0  0  # atno 6909 bound_to 6896
  146.1152  140.5525  142.8760 H   0  0  0  0  0  0  0  0  0  0  0  0  # atno 7974 bound_to 7965
  155.5706  140.0634  157.2807 H   0  0  0  0  0  0  0  0  0  0  0  0  # atno 8008 bound_to 7997
  154.4362  140.1869  156.0921 H   0  0  0  0  0  0  0  0  0  0  0  0  # atno 8009 bound_to 7997
  156.0379  140.3299  155.7215 H   0  0  0  0  0  0  0  0  0  0  0  0  # atno 8010 bound_to 7997
  139.8433  143.7294  152.2662 H   0  0  0  0  0  0  0  0  0  0  0  0  # atno 10167 bound_to 10162
  156.1100  130.6241  150.9279 H   0  0  0  0  0  0  0  0  0  0  0  0  # atno 10718 bound_to 10713
  152.9817  135.5711  154.5063 H   0  0  0  0  0  0  0  0  0  0  0  0  # atno 10763 bound_to 10752
  154.4574  135.2780  155.1739 H   0  0  0  0  0  0  0  0  0  0  0  0  # atno 10764 bound_to 10752
  154.3341  135.6243  153.5619 H   0  0  0  0  0  0  0  0  0  0  0  0  # atno 10765 bound_to 10752
  140.6035  133.9814  155.8143 H   0  0  0  0  0  0  0  0  0  0  0  0  # atno 11005 bound_to 11000
  144.7546  140.5277  143.6777 LP  0  0  0  0  0  0  0  0  0  0  0  0  # atno 17320 bound_to 7965
  145.5582  139.1478  143.3356 LP  0  0  0  0  0  0  0  0  0  0  0  0  # atno 17321 bound_to 7965
  139.7537  144.7527  151.0467 LP  0  0  0  0  0  0  0  0  0  0  0  0  # atno 17342 bound_to 10162
  140.7796  143.4830  150.9993 LP  0  0  0  0  0  0  0  0  0  0  0  0  # atno 17343 bound_to 10162
  157.6280  131.0924  150.8496 LP  0  0  0  0  0  0  0  0  0  0  0  0  # atno 17370 bound_to 10713
  156.8609  130.5113  149.5304 LP  0  0  0  0  0  0  0  0  0  0  0  0  # atno 17371 bound_to 10713
  141.0856  133.9995  157.3318 LP  0  0  0  0  0  0  0  0  0  0  0  0  # atno 17394 bound_to 11000
  139.9222  135.0201  156.8106 LP  0  0  0  0  0  0  0  0  0  0  0  0  # atno 17395 bound_to 11000

$$$$
