AV-unprocessed.smi:1474|AV-procd|sdf|5975|dock3
  -GOLD-   22720 6 63D 1   1.00000     0.00000
 Structure written by MMmdl.
 43 44  0  0  0  0  0  0  0  0  1 V2000
  152.2641  143.7223  159.7677 C   0  0  0  0  0  0  0  0  0  0  0  0
  152.8339  142.5291  159.2589 O   0  0  0  0  0  0  0  0  0  0  0  0
  151.8847  141.7183  158.5866 C   0  0  0  0  0  0  0  0  0  0  0  0
  152.5366  140.3845  158.2105 C   0  0  0  0  0  0  0  0  0  0  0  0
  152.4864  140.2342  156.7950 O   0  0  0  0  0  0  0  0  0  0  0  0
  151.3736  139.6427  156.2336 C   0  0  0  0  0  0  0  0  0  0  0  0
  150.4863  138.9439  157.0763 C   0  0  0  0  0  0  0  0  0  0  0  0
  149.3509  138.3340  156.5101 C   0  0  0  0  0  0  0  0  0  0  0  0
  149.1411  138.4376  155.1178 C   0  0  0  0  0  0  0  0  0  0  0  0
  147.9334  137.8101  154.4360 C   0  0  0  0  0  0  0  0  0  0  0  0
  148.0703  136.3817  154.1690 N   0  0  0  0  0  0  0  0  0  0  0  0
  147.9715  135.4146  155.0947 C   0  0  0  0  0  0  0  0  0  0  0  0
  147.7508  135.6476  156.2835 O   0  0  0  0  0  0  0  0  0  0  0  0
  148.1276  133.9674  154.5901 C   0  0  1  0  0  0  0  0  0  0  0  0
  149.4999  133.7187  153.9368 C   0  0  0  0  0  0  0  0  0  0  0  0
  150.6609  133.7021  154.9493 C   0  0  0  0  0  0  0  0  0  0  0  0
  150.3449  132.9323  156.2407 C   0  0  0  0  0  0  0  0  0  0  0  0
  151.2645  132.5981  156.9842 O   0  0  0  0  0  0  0  0  0  0  0  0
  149.0621  132.6768  156.5522 N   0  0  0  0  0  0  0  0  0  0  0  0
  147.8950  132.9187  155.7014 C   0  0  0  0  0  0  0  0  0  0  0  0
  150.0837  139.1644  154.3611 C   0  0  0  0  0  0  0  0  0  0  0  0
  151.1742  139.7530  154.8966 N   0  0  0  0  0  0  0  0  0  0  0  0
  153.0322  144.3101  160.2705 H   0  0  0  0  0  0  0  0  0  0  0  0
  151.4771  143.5070  160.4916 H   0  0  0  0  0  0  0  0  0  0  0  0
  151.8454  144.3320  158.9660 H   0  0  0  0  0  0  0  0  0  0  0  0
  151.0371  141.5352  159.2487 H   0  0  0  0  0  0  0  0  0  0  0  0
  151.5025  142.2191  157.6957 H   0  0  0  0  0  0  0  0  0  0  0  0
  153.5642  140.3487  158.5763 H   0  0  0  0  0  0  0  0  0  0  0  0
  151.9826  139.5723  158.6839 H   0  0  0  0  0  0  0  0  0  0  0  0
  150.6731  138.8788  158.1381 H   0  0  0  0  0  0  0  0  0  0  0  0
  148.6568  137.7979  157.1401 H   0  0  0  0  0  0  0  0  0  0  0  0
  147.0662  137.9532  155.0806 H   0  0  0  0  0  0  0  0  0  0  0  0
  147.7156  138.3381  153.5059 H   0  0  0  0  0  0  0  0  0  0  0  0
  148.2516  136.1101  153.2137 H   0  0  0  0  0  0  0  0  0  0  0  0
  147.3598  133.8112  153.8304 H   0  0  0  0  0  0  0  0  0  0  0  0
  149.4736  132.7624  153.4125 H   0  0  0  0  0  0  0  0  0  0  0  0
  149.6942  134.4703  153.1704 H   0  0  0  0  0  0  0  0  0  0  0  0
  151.5512  133.2777  154.4842 H   0  0  0  0  0  0  0  0  0  0  0  0
  150.9198  134.7235  155.2295 H   0  0  0  0  0  0  0  0  0  0  0  0
  148.8861  132.2093  157.4300 H   0  0  0  0  0  0  0  0  0  0  0  0
  147.0540  133.2059  156.3342 H   0  0  0  0  0  0  0  0  0  0  0  0
  147.6183  131.9669  155.2465 H   0  0  0  0  0  0  0  0  0  0  0  0
  149.9622  139.2767  153.2938 H   0  0  0  0  0  0  0  0  0  0  0  0
  1  2  1  0  0  0  0
  1 23  1  0  0  0  0
  1 24  1  0  0  0  0
  1 25  1  0  0  0  0
  2  3  1  0  0  0  0
  3  4  1  0  0  0  0
  3 26  1  0  0  0  0
  3 27  1  0  0  0  0
  4  5  1  0  0  0  0
  4 28  1  0  0  0  0
  4 29  1  0  0  0  0
  5  6  1  0  0  0  0
  6 22  1  0  0  0  0
  6  7  2  0  0  0  0
  7  8  1  0  0  0  0
  7 30  1  0  0  0  0
  8  9  2  0  0  0  0
  8 31  1  0  0  0  0
  9 10  1  0  0  0  0
  9 21  1  0  0  0  0
 10 11  1  0  0  0  0
 10 32  1  0  0  0  0
 10 33  1  0  0  0  0
 11 12  1  0  0  0  0
 11 34  1  0  0  0  0
 12 13  2  0  0  0  0
 12 14  1  0  0  0  0
 14 20  1  0  0  0  0
 14 15  1  0  0  0  0
 14 35  1  0  0  0  0
 15 16  1  0  0  0  0
 15 36  1  0  0  0  0
 15 37  1  0  0  0  0
 16 17  1  0  0  0  0
 16 38  1  0  0  0  0
 16 39  1  0  0  0  0
 17 18  2  0  0  0  0
 17 19  1  0  0  0  0
 19 20  1  0  0  0  0
 19 40  1  0  0  0  0
 20 41  1  0  0  0  0
 20 42  1  0  0  0  0
 21 22  2  0  0  0  0
 21 43  1  0  0  0  0
M  END
> <s_m_source_file>
AV-unprocessed.smi

> <i_m_source_file_index>
1474

> <i_lp_mmshare_version>
43012

> <i_f3d_flags>
0

> <s_epik_input>
W0NIM11PW0NIMl1bQ0gyXU9jMVtjSF1bY0hdYyhbY0hdbjEpW0NIMl1bTkhdQyg9TylbQ0BASF0yW0NIMl1bQ0gyXUMoPU8pW05IXVtDSDJdMg==

> <s_epik_cmdline>
J2VwaWtfcHl0aG9uJywgJy1waCcsICc3LjAnLCAnLXRuJywgJzgnLCAnLW1hJywgJzIwMCcsICctbWV0YWxfYmluZGluZycsICctaW1hZScsICc8aW5maWxlLm1hZT4nLCAnLW9tYWUnLCAnPG91dGZpbGUubWFlPic=

> <r_lp_tautomer_probability>
1

> <r_epik_Ionization_Penalty>
6.19599e-05

> <r_epik_Ionization_Penalty_Charging>
0

> <r_epik_Ionization_Penalty_Neutral>
6.19599e-05

> <r_epik_State_Penalty>
-0

> <r_epik_Charging_Adjusted_Penalty>
0

> <i_epik_Tot_Q>
0

> <i_epik_Tot_abs_Q>
0

> <r_epik_Metal_State_Penalty>
-0

> <b_epik_Metal_Only>
0

> <s_lp_Force_Field>
OPLS_2005

> <r_lp_Energy>
8.64292

> <b_lp_Chiralities_Consistent>
1

> <s_lp_Variant>
AV-unprocessed.smi:1474-2

> <Gold.Version>
5.8.1

> <Gold.Id.Protein>
6NUR|6NUR_protein|mol2

> <Gold.PLP.Fitness>
38.8951

> <Gold.PLP.PLP>
-26.1427

> <Gold.PLP.part.hbond>
-4.0000

> <Gold.PLP.part.metal>
0.0000

> <Gold.PLP.part.buried>
-3.0954

> <Gold.PLP.part.nonpolar>
-18.9349

> <Gold.PLP.part.repulsive>
0.0878

> <Gold.PLP.ligand.clash>
0.0000

> <Gold.PLP.ligand.torsion>
1.1326

> <Gold.PLP.Chemscore.Hbond>
3.9500

> <Gold.PLP.Chemscore.CHOScore>
1.0000

> <Gold.PLP.Chemscore.Metal>
0.0000

> <Gold.Chemscore.Hbonds>
donor molecule, donor type, donor heavy atom, donor atom, acceptor molecule, acceptor atom, score
      L1  H    11    34       P1  7948  0.98
      P1  H  6896  6908       L1    18  0.11
      P1  H  7989  7998       L1    22  1.00
      P1  H  7997  8009       L1     5  1.00
      L1  C    21    43       P1  7957  1.00

> <Gold.PLP.Chemscore.Internal.Correction>
0.1675

> <Gold.Rescore>
     Score         DG    S(hbond)    S(metal)    S(lipo)     H(rot)  DE(clash)    DE(int)     intcor
     14.59     -15.73       2.82        0.00      62.14       2.52       0.02       1.12       ----

> <Gold.Chemscore.Fitness>
14.5906

> <Gold.Chemscore.DG>
-15.7303

> <Gold.Chemscore.ZeroCoef>
-5.4800

> <Gold.Chemscore.Hbond>
2.8238

> <Gold.Chemscore.Metal>
0.0000

> <Gold.Chemscore.Lipo>
62.1394

> <Gold.Chemscore.Internal_Hbond>
0.0000

> <Gold.Chemscore.DEClash>
0.0174

> <Gold.Chemscore.DEInternal>
1.1223

> <Gold.Chemscore.Rot>
2.5201

> <Gold.Chemscore.Internal.Correction>
   9.000000E+99

> <Gold.Chemscore.Hbonds>
donor molecule, donor type, donor heavy atom, donor atom, acceptor molecule, acceptor atom, score
      L1  H    11    34       P1  7948  0.90
      P1  H  6896  6908       L1    18  0.12
      P1  H  7989  7998       L1    22  0.26
      P1  H  7997  8009       L1     5  0.24

> <Gold.Chemscore.Hbond.Weighted>
-9.4314

> <Gold.Chemscore.Metal.Weighted>
-0.0000

> <Gold.Chemscore.Lipo.Weighted>
-7.2703

> <Gold.Chemscore.Internal_Hbond.Weighted>
0.0000

> <Gold.Chemscore.DEClash.Weighted>
0.0174

> <Gold.Chemscore.DEInternal.Weighted>
1.1223

> <Gold.Chemscore.Rot.Weighted>
6.4514

> <Gold.Chemscore.Internal.Correction.Weighted>
   9.000000E+99

> <Gold.Protein.RotatedTorsions>
[ 6907 6896 6895 6894 ] final   93.64 input  -60.11 | X-H torsion
[ 7974 7965 7964 7962 ] final   65.58 input  175.53 | X-H torsion
[ 8008 7997 7996 7995 ] final -164.98 input   59.86 | X-H torsion
[ 10167 10162 10161 10158 ] final  150.41 input  -65.29 | X-H torsion
[ 10718 10713 10712 10709 ] final  -84.12 input   66.30 | X-H torsion
[ 10763 10752 10751 10750 ] final   77.33 input  -60.55 | X-H torsion
[ 11005 11000 10999 10996 ] final   70.42 input  -57.11 | X-H torsion

> <Gold.Protein.ActiveResidues>
 VAL166  LYS551  ARG553  GLY616  TRP617  ASP618  TYR619  PRO620  LYS621  CYS622 
 ASP623  PHE694  ASN695  SER759  ASP760  ASP761  ALA762  ILE779  LEU786  VAL792 
 PHE793  MET794  SER795  GLU796  ALA797  LYS798  CYS799  TRP800  GLU811  SER814 

> <Gold.Protein.RotatedAtoms>
  152.5452  134.1316  159.8441 H   0  0  0  0  0  0  0  0  0  0  0  0  # atno 6907 bound_to 6896
  151.1361  133.4996  159.2605 H   0  0  0  0  0  0  0  0  0  0  0  0  # atno 6908 bound_to 6896
  151.1622  135.0289  159.8770 H   0  0  0  0  0  0  0  0  0  0  0  0  # atno 6909 bound_to 6896
  145.8368  139.3171  143.0955 H   0  0  0  0  0  0  0  0  0  0  0  0  # atno 7974 bound_to 7965
  155.8434  140.0952  157.1720 H   0  0  0  0  0  0  0  0  0  0  0  0  # atno 8008 bound_to 7997
  154.3982  140.1397  156.3817 H   0  0  0  0  0  0  0  0  0  0  0  0  # atno 8009 bound_to 7997
  155.8040  140.3452  155.5421 H   0  0  0  0  0  0  0  0  0  0  0  0  # atno 8010 bound_to 7997
  139.4850  144.5524  151.7377 H   0  0  0  0  0  0  0  0  0  0  0  0  # atno 10167 bound_to 10162
  156.0010  130.4687  150.4362 H   0  0  0  0  0  0  0  0  0  0  0  0  # atno 10718 bound_to 10713
  153.0790  135.4918  154.8464 H   0  0  0  0  0  0  0  0  0  0  0  0  # atno 10763 bound_to 10752
  154.7126  135.3023  154.9176 H   0  0  0  0  0  0  0  0  0  0  0  0  # atno 10764 bound_to 10752
  153.9865  135.6783  153.4805 H   0  0  0  0  0  0  0  0  0  0  0  0  # atno 10765 bound_to 10752
  139.9599  134.7079  156.0669 H   0  0  0  0  0  0  0  0  0  0  0  0  # atno 11005 bound_to 11000
  145.9510  140.8908  143.0259 LP  0  0  0  0  0  0  0  0  0  0  0  0  # atno 17320 bound_to 7965
  144.6736  140.1680  143.7417 LP  0  0  0  0  0  0  0  0  0  0  0  0  # atno 17321 bound_to 7965
  140.5080  144.1069  150.5987 LP  0  0  0  0  0  0  0  0  0  0  0  0  # atno 17342 bound_to 10162
  140.3984  143.2716  151.9977 LP  0  0  0  0  0  0  0  0  0  0  0  0  # atno 17343 bound_to 10162
  157.2407  131.0524  151.2438 LP  0  0  0  0  0  0  0  0  0  0  0  0  # atno 17370 bound_to 10713
  157.3623  130.7138  149.6510 LP  0  0  0  0  0  0  0  0  0  0  0  0  # atno 17371 bound_to 10713
  141.1275  133.6595  156.3375 LP  0  0  0  0  0  0  0  0  0  0  0  0  # atno 17394 bound_to 11000
  140.5524  134.6014  157.5411 LP  0  0  0  0  0  0  0  0  0  0  0  0  # atno 17395 bound_to 11000

$$$$
