AV-unprocessed.smi:2026|AV-procd|sdf|8203|dock2
  -GOLD-   2272010463D 1   1.00000     0.00000
 Structure written by MMmdl.
 47 49  0  0  0  0  0  0  0  0  2 V2000
  151.8043  145.4627  159.8944 C   0  0  0  0  0  0  0  0  0  0  0  0
  151.7561  144.1490  159.1329 C   0  0  0  0  0  0  0  0  0  0  0  0
  151.0338  144.0984  157.9186 C   0  0  0  0  0  0  0  0  0  0  0  0
  151.0090  142.8823  157.2453 C   0  0  0  0  0  0  0  0  0  0  0  0
  150.3998  142.5090  156.0448 N   0  3  0  0  0  0  0  0  0  0  0  0
  150.6614  141.1961  155.7905 C   0  0  0  0  0  0  0  0  0  0  0  0
  151.4271  140.7271  156.8123 N   0  0  0  0  0  0  0  0  0  0  0  0
  151.9908  139.3927  157.0459 C   0  0  0  0  0  0  0  0  0  0  0  0
  150.9634  138.4224  157.6654 C   0  0  2  0  0  0  0  0  0  0  0  0
  150.7209  138.7929  159.0072 O   0  0  0  0  0  0  0  0  0  0  0  0
  151.4051  136.9449  157.6342 C   0  0  0  0  0  0  0  0  0  0  0  0
  150.6631  136.1561  156.6424 N   0  0  0  0  0  0  0  0  0  0  0  0
  150.5693  136.4658  155.3365 C   0  0  0  0  0  0  0  0  0  0  0  0
  151.0757  137.4359  154.7754 O   0  0  0  0  0  0  0  0  0  0  0  0
  149.8136  135.5369  154.7366 N   0  0  0  0  0  0  0  0  0  0  0  0
  149.3388  134.5169  155.6513 C   0  0  0  0  0  0  0  0  0  0  0  0
  147.8019  134.5295  155.7362 C   0  0  0  0  0  0  0  0  0  0  0  0
  149.8911  133.1329  155.2658 C   0  0  0  0  0  0  0  0  0  0  0  0
  149.9781  135.0402  156.9282 C   0  0  0  0  0  0  0  0  0  0  0  0
  149.8531  134.5054  158.0299 O   0  0  0  0  0  0  0  0  0  0  0  0
  151.6700  141.7430  157.7416 C   0  0  0  0  0  0  0  0  0  0  0  0
  152.3869  141.7750  158.9346 C   0  0  0  0  0  0  0  0  0  0  0  0
  152.4252  143.0019  159.6337 C   0  0  0  0  0  0  0  0  0  0  0  0
  153.2019  143.0668  160.9379 C   0  0  0  0  0  0  0  0  0  0  0  0
  151.2345  146.2408  159.3856 H   0  0  0  0  0  0  0  0  0  0  0  0
  152.8327  145.8120  159.9898 H   0  0  0  0  0  0  0  0  0  0  0  0
  151.3849  145.3421  160.8934 H   0  0  0  0  0  0  0  0  0  0  0  0
  150.5243  144.9683  157.5302 H   0  0  0  0  0  0  0  0  0  0  0  0
  150.3246  140.6313  154.9332 H   0  0  0  0  0  0  0  0  0  0  0  0
  152.3672  139.0229  156.0920 H   0  0  0  0  0  0  0  0  0  0  0  0
  152.8586  139.5025  157.6979 H   0  0  0  0  0  0  0  0  0  0  0  0
  150.0136  138.5165  157.1389 H   0  0  0  0  0  0  0  0  0  0  0  0
  150.3138  139.6457  159.0150 H   0  0  0  0  0  0  0  0  0  0  0  0
  152.4794  136.8839  157.4502 H   0  0  0  0  0  0  0  0  0  0  0  0
  151.2513  136.4945  158.6164 H   0  0  0  0  0  0  0  0  0  0  0  0
  149.5877  135.5366  153.7525 H   0  0  0  0  0  0  0  0  0  0  0  0
  147.4389  133.7934  156.4543 H   0  0  0  0  0  0  0  0  0  0  0  0
  147.3550  134.2932  154.7701 H   0  0  0  0  0  0  0  0  0  0  0  0
  147.4215  135.5050  156.0414 H   0  0  0  0  0  0  0  0  0  0  0  0
  149.5417  132.3622  155.9536 H   0  0  0  0  0  0  0  0  0  0  0  0
  150.9822  133.1152  155.2775 H   0  0  0  0  0  0  0  0  0  0  0  0
  149.5703  132.8483  154.2635 H   0  0  0  0  0  0  0  0  0  0  0  0
  152.8988  140.9024  159.3111 H   0  0  0  0  0  0  0  0  0  0  0  0
  153.6875  142.1166  161.1609 H   0  0  0  0  0  0  0  0  0  0  0  0
  152.5361  143.3042  161.7678 H   0  0  0  0  0  0  0  0  0  0  0  0
  153.9779  143.8307  160.8853 H   0  0  0  0  0  0  0  0  0  0  0  0
  149.8477  143.1041  155.4407 H   0  0  0  0  0  0  0  0  0  0  0  0
  1  2  1  0  0  0  0
  1 25  1  0  0  0  0
  1 26  1  0  0  0  0
  1 27  1  0  0  0  0
  2 23  1  0  0  0  0
  2  3  2  0  0  0  0
  3  4  1  0  0  0  0
  3 28  1  0  0  0  0
  4 21  2  0  0  0  0
  4  5  1  0  0  0  0
  5  6  2  0  0  0  0
  5 47  1  0  0  0  0
  6  7  1  0  0  0  0
  6 29  1  0  0  0  0
  7  8  1  0  0  0  0
  7 21  1  0  0  0  0
  8  9  1  0  0  0  0
  8 30  1  0  0  0  0
  8 31  1  0  0  0  0
  9 10  1  0  0  0  0
  9 11  1  0  0  0  0
  9 32  1  0  0  0  0
 10 33  1  0  0  0  0
 11 12  1  0  0  0  0
 11 34  1  0  0  0  0
 11 35  1  0  0  0  0
 12 19  1  0  0  0  0
 12 13  1  0  0  0  0
 13 14  2  0  0  0  0
 13 15  1  0  0  0  0
 15 16  1  0  0  0  0
 15 36  1  0  0  0  0
 16 17  1  0  0  0  0
 16 18  1  0  0  0  0
 16 19  1  0  0  0  0
 17 37  1  0  0  0  0
 17 38  1  0  0  0  0
 17 39  1  0  0  0  0
 18 40  1  0  0  0  0
 18 41  1  0  0  0  0
 18 42  1  0  0  0  0
 19 20  2  0  0  0  0
 21 22  1  0  0  0  0
 22 23  2  0  0  0  0
 22 43  1  0  0  0  0
 23 24  1  0  0  0  0
 24 44  1  0  0  0  0
 24 45  1  0  0  0  0
 24 46  1  0  0  0  0
M  CHG  1   5   1
M  END
> <s_m_source_file>
AV-unprocessed.smi

> <i_m_source_file_index>
2026

> <i_lp_mmshare_version>
43012

> <i_f3d_flags>
0

> <s_epik_input>
W0NIM11jKFtjSF0xKWMoW0NIM10pW2NIXWMoYzEyKW4oW2NIXW4yKVtDSDJdW0NASF0oW09IXSlbQ0gyXU4oQzM9TylDKD1PKVtOSF1DMyhbQ0gzXSlbQ0gzXQ==

> <s_epik_cmdline>
J2VwaWtfcHl0aG9uJywgJy1waCcsICc3LjAnLCAnLXRuJywgJzgnLCAnLW1hJywgJzIwMCcsICctbWV0YWxfYmluZGluZycsICctaW1hZScsICc8aW5maWxlLm1hZT4nLCAnLW9tYWUnLCAnPG91dGZpbGUubWFlPic=

> <r_lp_tautomer_probability>
1

> <r_epik_Ionization_Penalty>
1.08255

> <r_epik_Ionization_Penalty_Charging>
1.08249

> <r_epik_Ionization_Penalty_Neutral>
6.65731e-05

> <r_epik_State_Penalty>
1.13805

> <r_epik_Charging_Adjusted_Penalty>
2.22054

> <i_epik_Tot_Q>
1

> <i_epik_Tot_abs_Q>
1

> <r_epik_Metal_State_Penalty>
1.29676

> <b_epik_Metal_Only>
0

> <s_lp_Force_Field>
OPLS_2005

> <r_lp_Energy>
25.6396

> <b_lp_Chiralities_Consistent>
1

> <s_lp_Variant>
AV-unprocessed.smi:2026-3

> <Gold.Version>
5.8.1

> <Gold.Id.Protein>
6NUR|6NUR_protein|mol2

> <Gold.PLP.Fitness>
54.9148

> <Gold.PLP.PLP>
-45.1180

> <Gold.PLP.part.hbond>
-3.4542

> <Gold.PLP.part.metal>
0.0000

> <Gold.PLP.part.buried>
-7.0864

> <Gold.PLP.part.nonpolar>
-35.0783

> <Gold.PLP.part.repulsive>
0.3169

> <Gold.PLP.ligand.clash>
0.0000

> <Gold.PLP.ligand.torsion>
1.0821

> <Gold.PLP.Chemscore.Hbond>
3.9760

> <Gold.PLP.Chemscore.CHOScore>
0.0000

> <Gold.PLP.Chemscore.Metal>
0.0000

> <Gold.Chemscore.Hbonds>
donor molecule, donor type, donor heavy atom, donor atom, acceptor molecule, acceptor atom, score
      L1  H     5    47       P1  8028  1.44
      L1  H    15    36       P1  7948  0.80
      P1  H  6896  6908       L1    20  1.00

> <Gold.PLP.Chemscore.Internal.Correction>
0.0330

> <Gold.Rescore>
     Score         DG    S(hbond)    S(metal)    S(lipo)     H(rot)  DE(clash)    DE(int)     intcor
     19.88     -21.00       2.90        0.00     104.50       2.49       0.01       1.11       ----

> <Gold.Chemscore.Fitness>
19.8791

> <Gold.Chemscore.DG>
-20.9985

> <Gold.Chemscore.ZeroCoef>
-5.4800

> <Gold.Chemscore.Hbond>
2.8962

> <Gold.Chemscore.Metal>
0.0000

> <Gold.Chemscore.Lipo>
104.5044

> <Gold.Chemscore.Internal_Hbond>
0.0000

> <Gold.Chemscore.DEClash>
0.0050

> <Gold.Chemscore.DEInternal>
1.1143

> <Gold.Chemscore.Rot>
2.4929

> <Gold.Chemscore.Internal.Correction>
   9.000000E+99

> <Gold.Chemscore.Hbonds>
donor molecule, donor type, donor heavy atom, donor atom, acceptor molecule, acceptor atom, score
      L1  H     5    47       P1  8028  0.72
      L1  H    15    36       P1  7948  0.16
      P1  H  6896  6908       L1    20  0.93

> <Gold.Chemscore.Hbond.Weighted>
-9.6733

> <Gold.Chemscore.Metal.Weighted>
-0.0000

> <Gold.Chemscore.Lipo.Weighted>
-12.2270

> <Gold.Chemscore.Internal_Hbond.Weighted>
0.0000

> <Gold.Chemscore.DEClash.Weighted>
0.0050

> <Gold.Chemscore.DEInternal.Weighted>
1.1143

> <Gold.Chemscore.Rot.Weighted>
6.3819

> <Gold.Chemscore.Internal.Correction.Weighted>
   9.000000E+99

> <Gold.Protein.RotatedTorsions>
[ 6907 6896 6895 6894 ] final  134.39 input  -60.11 | X-H torsion
[ 7974 7965 7964 7962 ] final   91.93 input  175.53 | X-H torsion
[ 8008 7997 7996 7995 ] final   98.33 input   59.86 | X-H torsion
[ 10167 10162 10161 10158 ] final  179.12 input  -65.29 | X-H torsion
[ 10718 10713 10712 10709 ] final -161.56 input   66.30 | X-H torsion
[ 10763 10752 10751 10750 ] final   35.96 input  -60.55 | X-H torsion
[ 11005 11000 10999 10996 ] final  -15.56 input  -57.11 | X-H torsion

> <Gold.Protein.ActiveResidues>
 VAL166  LYS551  ARG553  GLY616  TRP617  ASP618  TYR619  PRO620  LYS621  CYS622 
 ASP623  PHE694  ASN695  SER759  ASP760  ASP761  ALA762  ILE779  LEU786  VAL792 
 PHE793  MET794  SER795  GLU796  ALA797  LYS798  CYS799  TRP800  GLU811  SER814 

> <Gold.Protein.RotatedAtoms>
  152.3118  133.5761  159.5685 H   0  0  0  0  0  0  0  0  0  0  0  0  # atno 6907 bound_to 6896
  150.7327  134.0141  159.3688 H   0  0  0  0  0  0  0  0  0  0  0  0  # atno 6908 bound_to 6896
  151.8033  135.0703  160.0454 H   0  0  0  0  0  0  0  0  0  0  0  0  # atno 6909 bound_to 6896
  145.4991  139.2276  143.2787 H   0  0  0  0  0  0  0  0  0  0  0  0  # atno 7974 bound_to 7965
  156.0993  140.3245  155.7920 H   0  0  0  0  0  0  0  0  0  0  0  0  # atno 8008 bound_to 7997
  155.4864  140.0558  157.2977 H   0  0  0  0  0  0  0  0  0  0  0  0  # atno 8009 bound_to 7997
  154.4686  140.2001  156.0068 H   0  0  0  0  0  0  0  0  0  0  0  0  # atno 8010 bound_to 7997
  139.5323  144.2598  152.0716 H   0  0  0  0  0  0  0  0  0  0  0  0  # atno 10167 bound_to 10162
  156.5980  130.8798  151.2907 H   0  0  0  0  0  0  0  0  0  0  0  0  # atno 10718 bound_to 10713
  153.0097  135.6319  154.1910 H   0  0  0  0  0  0  0  0  0  0  0  0  # atno 10763 bound_to 10752
  154.1653  135.2821  155.3098 H   0  0  0  0  0  0  0  0  0  0  0  0  # atno 10764 bound_to 10752
  154.5950  135.5605  153.7377 H   0  0  0  0  0  0  0  0  0  0  0  0  # atno 10765 bound_to 10752
  140.7979  133.8237  155.9441 H   0  0  0  0  0  0  0  0  0  0  0  0  # atno 11005 bound_to 11000
  146.2237  140.5790  142.9006 LP  0  0  0  0  0  0  0  0  0  0  0  0  # atno 17320 bound_to 7965
  144.7790  140.5801  143.6618 LP  0  0  0  0  0  0  0  0  0  0  0  0  # atno 17321 bound_to 7965
  140.2064  144.4607  150.6407 LP  0  0  0  0  0  0  0  0  0  0  0  0  # atno 17342 bound_to 10162
  140.6508  143.2224  151.6080 LP  0  0  0  0  0  0  0  0  0  0  0  0  # atno 17343 bound_to 10162
  157.7287  130.9660  150.1753 LP  0  0  0  0  0  0  0  0  0  0  0  0  # atno 17370 bound_to 10713
  156.2493  130.3699  149.8250 LP  0  0  0  0  0  0  0  0  0  0  0  0  # atno 17371 bound_to 10713
  140.9324  134.2004  157.4854 LP  0  0  0  0  0  0  0  0  0  0  0  0  # atno 17394 bound_to 11000
  139.8724  134.9838  156.5214 LP  0  0  0  0  0  0  0  0  0  0  0  0  # atno 17395 bound_to 11000

$$$$
