AV-unprocessed.smi:1983|AV-procd|sdf|8034|dock5
  -GOLD-   2272010233D 1   1.00000     0.00000
 Structure written by MMmdl.
 50 51  0  0  0  0  0  0  0  0  2 V2000
  150.2257  133.9770  155.1165 C   0  0  0  0  0  0  0  0  0  0  0  0
  148.7809  134.5020  155.0526 C   0  0  2  0  0  0  0  0  0  0  0  0
  147.8362  133.5275  154.3278 C   0  0  0  0  0  0  0  0  0  0  0  0
  147.8667  133.7543  152.9347 O   0  0  0  0  0  0  0  0  0  0  0  0
  148.7418  135.7976  154.3796 N   0  0  0  0  0  0  0  0  0  0  0  0
  148.3184  136.9438  154.9306 C   0  0  0  0  0  0  0  0  0  0  0  0
  147.9279  137.0502  156.0934 O   0  0  0  0  0  0  0  0  0  0  0  0
  148.3702  137.9641  154.0628 N   0  0  0  0  0  0  0  0  0  0  0  0
  147.9539  139.3286  154.3655 C   0  0  0  0  0  0  0  0  0  0  0  0
  148.9032  140.0487  155.3079 C   0  0  0  0  0  0  0  0  0  0  0  0
  149.6034  139.3413  156.3091 C   0  0  0  0  0  0  0  0  0  0  0  0
  150.4794  140.0379  157.1669 C   0  0  0  0  0  0  0  0  0  0  0  0
  150.6398  141.4347  157.0089 C   0  0  0  0  0  0  0  0  0  0  0  0
  151.4823  142.2157  157.8116 N   0  0  0  0  0  0  0  0  0  0  0  0
  150.8210  143.4042  158.3317 C   0  0  0  0  0  0  0  0  0  0  0  0
  151.8349  144.2919  159.0793 C   0  0  1  0  0  0  0  0  0  0  0  0
  151.1636  145.4960  159.7484 C   0  0  0  0  0  0  0  0  0  0  0  0
  152.4776  143.5182  160.0907 O   0  0  0  0  0  0  0  0  0  0  0  0
  153.1923  142.4038  159.5609 C   0  0  1  0  0  0  0  0  0  0  0  0
  153.9120  141.6970  160.7142 C   0  0  0  0  0  0  0  0  0  0  0  0
  152.1979  141.4741  158.8416 C   0  0  0  0  0  0  0  0  0  0  0  0
  149.9406  142.0734  156.0444 N   0  3  0  0  0  0  0  0  0  0  0  0
  149.0955  141.4422  155.2007 C   0  0  0  0  0  0  0  0  0  0  0  0
  150.2729  133.0192  155.6354 H   0  0  0  0  0  0  0  0  0  0  0  0
  150.8750  134.6689  155.6540 H   0  0  0  0  0  0  0  0  0  0  0  0
  150.6423  133.8353  154.1189 H   0  0  0  0  0  0  0  0  0  0  0  0
  148.4103  134.6341  156.0713 H   0  0  0  0  0  0  0  0  0  0  0  0
  148.1461  132.4961  154.5014 H   0  0  0  0  0  0  0  0  0  0  0  0
  146.8136  133.6229  154.6946 H   0  0  0  0  0  0  0  0  0  0  0  0
  148.4696  134.4601  152.7577 H   0  0  0  0  0  0  0  0  0  0  0  0
  149.0464  135.8168  153.4172 H   0  0  0  0  0  0  0  0  0  0  0  0
  148.7006  137.7813  153.1263 H   0  0  0  0  0  0  0  0  0  0  0  0
  147.9042  139.8864  153.4300 H   0  0  0  0  0  0  0  0  0  0  0  0
  146.9423  139.3253  154.7757 H   0  0  0  0  0  0  0  0  0  0  0  0
  149.4711  138.2748  156.4196 H   0  0  0  0  0  0  0  0  0  0  0  0
  151.0126  139.5011  157.9376 H   0  0  0  0  0  0  0  0  0  0  0  0
  150.3667  143.9628  157.5121 H   0  0  0  0  0  0  0  0  0  0  0  0
  150.0157  143.1052  159.0045 H   0  0  0  0  0  0  0  0  0  0  0  0
  152.5880  144.6585  158.3795 H   0  0  0  0  0  0  0  0  0  0  0  0
  150.6670  146.1285  159.0123 H   0  0  0  0  0  0  0  0  0  0  0  0
  151.8967  146.1099  160.2723 H   0  0  0  0  0  0  0  0  0  0  0  0
  150.4163  145.1776  160.4756 H   0  0  0  0  0  0  0  0  0  0  0  0
  153.9414  142.7624  158.8525 H   0  0  0  0  0  0  0  0  0  0  0  0
  154.4821  140.8397  160.3545 H   0  0  0  0  0  0  0  0  0  0  0  0
  153.2038  141.3388  161.4618 H   0  0  0  0  0  0  0  0  0  0  0  0
  154.6081  142.3730  161.2115 H   0  0  0  0  0  0  0  0  0  0  0  0
  151.4925  141.0612  159.5638 H   0  0  0  0  0  0  0  0  0  0  0  0
  152.7275  140.6354  158.3876 H   0  0  0  0  0  0  0  0  0  0  0  0
  148.5989  142.0688  154.4740 H   0  0  0  0  0  0  0  0  0  0  0  0
  150.0603  143.0818  155.9450 H   0  0  0  0  0  0  0  0  0  0  0  0
  1  2  1  0  0  0  0
  1 24  1  0  0  0  0
  1 25  1  0  0  0  0
  1 26  1  0  0  0  0
  2  3  1  0  0  0  0
  2  5  1  0  0  0  0
  2 27  1  0  0  0  0
  3  4  1  0  0  0  0
  3 28  1  0  0  0  0
  3 29  1  0  0  0  0
  4 30  1  0  0  0  0
  5  6  1  0  0  0  0
  5 31  1  0  0  0  0
  6  7  2  0  0  0  0
  6  8  1  0  0  0  0
  8  9  1  0  0  0  0
  8 32  1  0  0  0  0
  9 10  1  0  0  0  0
  9 33  1  0  0  0  0
  9 34  1  0  0  0  0
 10 23  1  0  0  0  0
 10 11  2  0  0  0  0
 11 12  1  0  0  0  0
 11 35  1  0  0  0  0
 12 13  2  0  0  0  0
 12 36  1  0  0  0  0
 13 14  1  0  0  0  0
 13 22  1  0  0  0  0
 14 21  1  0  0  0  0
 14 15  1  0  0  0  0
 15 16  1  0  0  0  0
 15 37  1  0  0  0  0
 15 38  1  0  0  0  0
 16 17  1  0  0  0  0
 16 18  1  0  0  0  0
 16 39  1  0  0  0  0
 17 40  1  0  0  0  0
 17 41  1  0  0  0  0
 17 42  1  0  0  0  0
 18 19  1  0  0  0  0
 19 20  1  0  0  0  0
 19 21  1  0  0  0  0
 19 43  1  0  0  0  0
 20 44  1  0  0  0  0
 20 45  1  0  0  0  0
 20 46  1  0  0  0  0
 21 47  1  0  0  0  0
 21 48  1  0  0  0  0
 22 23  2  0  0  0  0
 22 50  1  0  0  0  0
 23 49  1  0  0  0  0
M  CHG  1  22   1
M  END
> <s_m_source_file>
AV-unprocessed.smi

> <i_m_source_file_index>
1983

> <i_lp_mmshare_version>
43012

> <i_f3d_flags>
0

> <s_epik_input>
W09IXVtDSDJdW0NAQEhdKFtDSDNdKVtOSF1DKD1PKVtOSF1bQ0gyXWMxW2NIXVtjSF1jKG5bY0hdMSlOMltDSDJdW0NAQEhdKFtDSDNdKU9bQ0BASF0oW0NIM10pW0NIMl0y

> <s_epik_cmdline>
J2VwaWtfcHl0aG9uJywgJy1waCcsICc3LjAnLCAnLXRuJywgJzgnLCAnLW1hJywgJzIwMCcsICctbWV0YWxfYmluZGluZycsICctaW1hZScsICc8aW5maWxlLm1hZT4nLCAnLW9tYWUnLCAnPG91dGZpbGUubWFlPic=

> <r_lp_tautomer_probability>
0.999994

> <r_epik_Ionization_Penalty>
2.55677

> <r_epik_Ionization_Penalty_Charging>
2.55673

> <r_epik_Ionization_Penalty_Neutral>
3.71772e-05

> <r_epik_State_Penalty>
2.72571

> <r_epik_Charging_Adjusted_Penalty>
5.28244

> <i_epik_Tot_Q>
1

> <i_epik_Tot_abs_Q>
1

> <r_epik_Metal_State_Penalty>
2.73364

> <b_epik_Metal_Only>
0

> <s_lp_Force_Field>
OPLS_2005

> <r_lp_Energy>
19.4893

> <b_lp_Chiralities_Consistent>
1

> <s_lp_Variant>
AV-unprocessed.smi:1983-7

> <Gold.Version>
5.8.1

> <Gold.Id.Protein>
6NUR|6NUR_protein|mol2

> <Gold.PLP.Fitness>
48.9511

> <Gold.PLP.PLP>
-37.2709

> <Gold.PLP.part.hbond>
-4.0000

> <Gold.PLP.part.metal>
0.0000

> <Gold.PLP.part.buried>
-7.1179

> <Gold.PLP.part.nonpolar>
-28.2490

> <Gold.PLP.part.repulsive>
0.1788

> <Gold.PLP.ligand.clash>
0.0000

> <Gold.PLP.ligand.torsion>
0.8237

> <Gold.PLP.Chemscore.Hbond>
4.3820

> <Gold.PLP.Chemscore.CHOScore>
0.0000

> <Gold.PLP.Chemscore.Metal>
0.0000

> <Gold.Chemscore.Hbonds>
donor molecule, donor type, donor heavy atom, donor atom, acceptor molecule, acceptor atom, score
      L1  H     4    30       P1  7948  0.85
      L1  H     5    31       P1  7948  1.00
      L1  H     8    32       P1  7948  0.82
      L1  H    22    50       P1  8028  1.52

> <Gold.PLP.Chemscore.Internal.Correction>
0.1814

> <Gold.Rescore>
     Score         DG    S(hbond)    S(metal)    S(lipo)     H(rot)  DE(clash)    DE(int)     intcor
     20.37     -21.61       3.47        0.00      97.18       2.66       0.00       1.25       ----

> <Gold.Chemscore.Fitness>
20.3680

> <Gold.Chemscore.DG>
-21.6132

> <Gold.Chemscore.ZeroCoef>
-5.4800

> <Gold.Chemscore.Hbond>
3.4678

> <Gold.Chemscore.Metal>
0.0000

> <Gold.Chemscore.Lipo>
97.1779

> <Gold.Chemscore.Internal_Hbond>
0.0000

> <Gold.Chemscore.DEClash>
0.0000

> <Gold.Chemscore.DEInternal>
1.2451

> <Gold.Chemscore.Rot>
2.6637

> <Gold.Chemscore.Internal.Correction>
   9.000000E+99

> <Gold.Chemscore.Hbonds>
donor molecule, donor type, donor heavy atom, donor atom, acceptor molecule, acceptor atom, score
      L1  H     4    30       P1  7948  0.14
      L1  H     5    31       P1  7948  0.83
      L1  H     8    32       P1  7948  0.78
      L1  H    22    50       P1  8028  0.70

> <Gold.Chemscore.Hbond.Weighted>
-11.5824

> <Gold.Chemscore.Metal.Weighted>
-0.0000

> <Gold.Chemscore.Lipo.Weighted>
-11.3698

> <Gold.Chemscore.Internal_Hbond.Weighted>
0.0000

> <Gold.Chemscore.DEClash.Weighted>
0.0000

> <Gold.Chemscore.DEInternal.Weighted>
1.2451

> <Gold.Chemscore.Rot.Weighted>
6.8191

> <Gold.Chemscore.Internal.Correction.Weighted>
   9.000000E+99

> <Gold.Protein.RotatedTorsions>
[ 6907 6896 6895 6894 ] final -159.81 input  -60.11 | X-H torsion
[ 7974 7965 7964 7962 ] final  160.56 input  175.53 | X-H torsion
[ 8008 7997 7996 7995 ] final -114.17 input   59.86 | X-H torsion
[ 10167 10162 10161 10158 ] final   12.71 input  -65.29 | X-H torsion
[ 10718 10713 10712 10709 ] final -176.38 input   66.30 | X-H torsion
[ 10763 10752 10751 10750 ] final  -66.04 input  -60.55 | X-H torsion
[ 11005 11000 10999 10996 ] final  -42.68 input  -57.11 | X-H torsion

> <Gold.Protein.ActiveResidues>
 VAL166  LYS551  ARG553  GLY616  TRP617  ASP618  TYR619  PRO620  LYS621  CYS622 
 ASP623  PHE694  ASN695  SER759  ASP760  ASP761  ALA762  ILE779  LEU786  VAL792 
 PHE793  MET794  SER795  GLU796  ALA797  LYS798  CYS799  TRP800  GLU811  SER814 

> <Gold.Protein.RotatedAtoms>
  151.3393  133.3969  159.2669 H   0  0  0  0  0  0  0  0  0  0  0  0  # atno 6907 bound_to 6896
  150.9891  134.9230  159.7899 H   0  0  0  0  0  0  0  0  0  0  0  0  # atno 6908 bound_to 6896
  152.5241  134.3358  159.9251 H   0  0  0  0  0  0  0  0  0  0  0  0  # atno 6909 bound_to 6896
  144.7730  139.7774  143.6289 H   0  0  0  0  0  0  0  0  0  0  0  0  # atno 7974 bound_to 7965
  155.0321  140.0393  157.2478 H   0  0  0  0  0  0  0  0  0  0  0  0  # atno 8008 bound_to 7997
  154.7288  140.2726  155.6451 H   0  0  0  0  0  0  0  0  0  0  0  0  # atno 8009 bound_to 7997
  156.2836  140.2688  156.1982 H   0  0  0  0  0  0  0  0  0  0  0  0  # atno 8010 bound_to 7997
  140.6050  143.8526  150.7004 H   0  0  0  0  0  0  0  0  0  0  0  0  # atno 10167 bound_to 10162
  156.8138  130.9595  151.3115 H   0  0  0  0  0  0  0  0  0  0  0  0  # atno 10718 bound_to 10713
  154.3540  135.6130  153.5657 H   0  0  0  0  0  0  0  0  0  0  0  0  # atno 10763 bound_to 10752
  152.9797  135.5799  154.4710 H   0  0  0  0  0  0  0  0  0  0  0  0  # atno 10764 bound_to 10752
  154.4436  135.2851  155.1807 H   0  0  0  0  0  0  0  0  0  0  0  0  # atno 10765 bound_to 10752
  141.0332  133.6811  156.2627 H   0  0  0  0  0  0  0  0  0  0  0  0  # atno 11005 bound_to 11000
  146.1891  139.5122  142.9817 LP  0  0  0  0  0  0  0  0  0  0  0  0  # atno 17320 bound_to 7965
  145.6267  141.0312  143.1886 LP  0  0  0  0  0  0  0  0  0  0  0  0  # atno 17321 bound_to 7965
  140.2081  143.3905  152.1740 LP  0  0  0  0  0  0  0  0  0  0  0  0  # atno 17342 bound_to 10162
  139.5318  144.7168  151.5028 LP  0  0  0  0  0  0  0  0  0  0  0  0  # atno 17343 bound_to 10162
  157.6492  130.8870  149.9599 LP  0  0  0  0  0  0  0  0  0  0  0  0  # atno 17370 bound_to 10713
  156.1029  130.3654  150.0186 LP  0  0  0  0  0  0  0  0  0  0  0  0  # atno 17371 bound_to 10713
  140.6369  134.5206  157.5565 LP  0  0  0  0  0  0  0  0  0  0  0  0  # atno 17394 bound_to 11000
  139.9222  134.8126  156.1176 LP  0  0  0  0  0  0  0  0  0  0  0  0  # atno 17395 bound_to 11000

$$$$
