AV-unprocessed.smi:691|AV-procd|sdf|3365|dock9
  -GOLD-   22720 0343D 1   1.00000     0.00000
 Structure written by MMmdl.
 37 38  0  0  0  0  0  0  0  0  1 V2000
  143.4126  133.9633  151.9828 C   0  0  0  0  0  0  0  0  0  0  0  0
  144.8453  134.5140  151.7815 C   0  0  2  0  0  0  0  0  0  0  0  0
  144.8116  135.6703  150.7462 C   0  0  0  0  0  0  0  0  0  0  0  0
  144.2951  135.2456  149.5005 O   0  0  0  0  0  0  0  0  0  0  0  0
  145.7924  133.3821  151.3458 C   0  0  0  0  0  0  0  0  0  0  0  0
  146.1533  132.6190  152.6227 C   0  0  0  0  0  0  0  0  0  0  0  0
  145.9948  133.6197  153.7747 C   0  0  0  0  0  0  0  0  0  0  0  0
  145.4276  134.9167  153.1659 C   0  0  1  0  0  0  0  0  0  0  0  0
  146.5024  135.9088  153.0746 N   0  0  0  0  0  0  0  0  0  0  0  0
  146.4970  137.1264  153.6366 C   0  0  0  0  0  0  0  0  0  0  0  0
  145.5631  137.5597  154.3103 O   0  0  0  0  0  0  0  0  0  0  0  0
  147.6367  137.7858  153.3667 N   0  0  0  0  0  0  0  0  0  0  0  0
  148.0339  139.0917  153.7664 C   0  0  0  0  0  0  0  0  0  0  0  0
  147.1791  140.2210  153.7991 C   0  0  0  0  0  0  0  0  0  0  0  0
  147.7069  141.4623  154.2045 C   0  0  0  0  0  0  0  0  0  0  0  0
  149.0684  141.5321  154.5572 C   0  0  0  0  0  0  0  0  0  0  0  0
  149.8971  140.4679  154.5202 N   0  0  0  0  0  0  0  0  0  0  0  0
  149.3841  139.2815  154.1302 C   0  0  0  0  0  0  0  0  0  0  0  0
  143.0118  133.5329  151.0647 H   0  0  0  0  0  0  0  0  0  0  0  0
  142.7305  134.7533  152.2986 H   0  0  0  0  0  0  0  0  0  0  0  0
  143.3752  133.1826  152.7426 H   0  0  0  0  0  0  0  0  0  0  0  0
  144.2007  136.4946  151.1155 H   0  0  0  0  0  0  0  0  0  0  0  0
  145.8082  136.0711  150.5612 H   0  0  0  0  0  0  0  0  0  0  0  0
  144.9971  135.2474  148.8679 H   0  0  0  0  0  0  0  0  0  0  0  0
  145.3574  132.7326  150.5853 H   0  0  0  0  0  0  0  0  0  0  0  0
  146.7023  133.8076  150.9202 H   0  0  0  0  0  0  0  0  0  0  0  0
  145.4668  131.7830  152.7639 H   0  0  0  0  0  0  0  0  0  0  0  0
  147.1613  132.2059  152.5726 H   0  0  0  0  0  0  0  0  0  0  0  0
  145.3001  133.2176  154.5133 H   0  0  0  0  0  0  0  0  0  0  0  0
  146.9403  133.7842  154.2937 H   0  0  0  0  0  0  0  0  0  0  0  0
  144.6380  135.3014  153.8142 H   0  0  0  0  0  0  0  0  0  0  0  0
  147.3159  135.6398  152.5409 H   0  0  0  0  0  0  0  0  0  0  0  0
  148.3285  137.2704  152.8422 H   0  0  0  0  0  0  0  0  0  0  0  0
  146.1405  140.1704  153.5140 H   0  0  0  0  0  0  0  0  0  0  0  0
  147.0815  142.3421  154.2409 H   0  0  0  0  0  0  0  0  0  0  0  0
  149.5042  142.4690  154.8718 H   0  0  0  0  0  0  0  0  0  0  0  0
  150.0776  138.4534  154.1106 H   0  0  0  0  0  0  0  0  0  0  0  0
  1  2  1  0  0  0  0
  1 19  1  0  0  0  0
  1 20  1  0  0  0  0
  1 21  1  0  0  0  0
  2  8  1  0  0  0  0
  2  3  1  0  0  0  0
  2  5  1  0  0  0  0
  3  4  1  0  0  0  0
  3 22  1  0  0  0  0
  3 23  1  0  0  0  0
  4 24  1  0  0  0  0
  5  6  1  0  0  0  0
  5 25  1  0  0  0  0
  5 26  1  0  0  0  0
  6  7  1  0  0  0  0
  6 27  1  0  0  0  0
  6 28  1  0  0  0  0
  7  8  1  0  0  0  0
  7 29  1  0  0  0  0
  7 30  1  0  0  0  0
  8  9  1  0  0  0  0
  8 31  1  0  0  0  0
  9 10  1  0  0  0  0
  9 32  1  0  0  0  0
 10 11  2  0  0  0  0
 10 12  1  0  0  0  0
 12 13  1  0  0  0  0
 12 33  1  0  0  0  0
 13 18  1  0  0  0  0
 13 14  2  0  0  0  0
 14 15  1  0  0  0  0
 14 34  1  0  0  0  0
 15 16  2  0  0  0  0
 15 35  1  0  0  0  0
 16 17  1  0  0  0  0
 16 36  1  0  0  0  0
 17 18  2  0  0  0  0
 18 37  1  0  0  0  0
M  END
> <s_m_source_file>
AV-unprocessed.smi

> <i_m_source_file_index>
691

> <i_lp_mmshare_version>
43012

> <i_f3d_flags>
0

> <s_epik_input>
W09IXVtDSDJdW0NAXTEoW0NIM10pW0NIMl1bQ0gyXVtDSDJdW0NASF0xW05IXUMoPU8pW05IXWMyW2NIXVtjSF1bY0hdbltjSF0y

> <s_epik_cmdline>
J2VwaWtfcHl0aG9uJywgJy1waCcsICc3LjAnLCAnLXRuJywgJzgnLCAnLW1hJywgJzIwMCcsICctbWV0YWxfYmluZGluZycsICctaW1hZScsICc8aW5maWxlLm1hZT4nLCAnLW9tYWUnLCAnPG91dGZpbGUubWFlPic=

> <r_epik_Ionization_Penalty>
0.00496828

> <r_epik_Ionization_Penalty_Charging>
0

> <r_epik_Ionization_Penalty_Neutral>
0.00496828

> <r_epik_State_Penalty>
0.00358054

> <r_epik_Charging_Adjusted_Penalty>
0.00358054

> <i_epik_Tot_Q>
0

> <i_epik_Tot_abs_Q>
0

> <r_epik_Metal_State_Penalty>
-0

> <b_epik_Metal_Only>
0

> <s_lp_Force_Field>
OPLS_2005

> <r_lp_Energy>
30.5868

> <b_lp_Chiralities_Consistent>
1

> <s_lp_Variant>
AV-unprocessed.smi:691-2

> <Gold.Version>
5.8.1

> <Gold.Id.Protein>
6NUR|6NUR_protein|mol2

> <Gold.PLP.Fitness>
42.0506

> <Gold.PLP.PLP>
-28.3438

> <Gold.PLP.part.hbond>
-3.9421

> <Gold.PLP.part.metal>
0.0000

> <Gold.PLP.part.buried>
-2.2095

> <Gold.PLP.part.nonpolar>
-22.1944

> <Gold.PLP.part.repulsive>
0.2250

> <Gold.PLP.ligand.clash>
0.0000

> <Gold.PLP.ligand.torsion>
0.3156

> <Gold.PLP.Chemscore.Hbond>
3.7760

> <Gold.PLP.Chemscore.CHOScore>
1.0000

> <Gold.PLP.Chemscore.Metal>
0.0000

> <Gold.Chemscore.Hbonds>
donor molecule, donor type, donor heavy atom, donor atom, acceptor molecule, acceptor atom, score
      L1  H     4    24       P1  7921  1.00
      L1  H     9    32       P1  7948  0.91
      L1  H    12    33       P1  7948  1.00
      P1  H  7989  7998       L1    17  0.84
      L1  C    16    36       P1  8028  1.00

> <Gold.PLP.Chemscore.Internal.Correction>
0.0100

> <Gold.Rescore>
     Score         DG    S(hbond)    S(metal)    S(lipo)     H(rot)  DE(clash)    DE(int)     intcor
     19.74     -20.09       3.46        0.00      65.10       1.78       0.06       0.30       ----

> <Gold.Chemscore.Fitness>
19.7360

> <Gold.Chemscore.DG>
-20.0891

> <Gold.Chemscore.ZeroCoef>
-5.4800

> <Gold.Chemscore.Hbond>
3.4606

> <Gold.Chemscore.Metal>
0.0000

> <Gold.Chemscore.Lipo>
65.1036

> <Gold.Chemscore.Internal_Hbond>
0.0000

> <Gold.Chemscore.DEClash>
0.0572

> <Gold.Chemscore.DEInternal>
0.2958

> <Gold.Chemscore.Rot>
1.7838

> <Gold.Chemscore.Internal.Correction>
   9.000000E+99

> <Gold.Chemscore.Hbonds>
donor molecule, donor type, donor heavy atom, donor atom, acceptor molecule, acceptor atom, score
      L1  H     4    24       P1  7921  1.00
      L1  H     9    32       P1  7948  0.90
      L1  H    12    33       P1  7948  0.95
      P1  H  7989  7998       L1    17  0.48

> <Gold.Chemscore.Hbond.Weighted>
-11.5586

> <Gold.Chemscore.Metal.Weighted>
-0.0000

> <Gold.Chemscore.Lipo.Weighted>
-7.6171

> <Gold.Chemscore.Internal_Hbond.Weighted>
0.0000

> <Gold.Chemscore.DEClash.Weighted>
0.0572

> <Gold.Chemscore.DEInternal.Weighted>
0.2958

> <Gold.Chemscore.Rot.Weighted>
4.5666

> <Gold.Chemscore.Internal.Correction.Weighted>
   9.000000E+99

> <Gold.Protein.RotatedTorsions>
[ 6907 6896 6895 6894 ] final   66.27 input  -60.11 | X-H torsion
[ 7974 7965 7964 7962 ] final  -49.82 input  175.53 | X-H torsion
[ 8008 7997 7996 7995 ] final  -23.94 input   59.86 | X-H torsion
[ 10167 10162 10161 10158 ] final  -67.19 input  -65.29 | X-H torsion
[ 10718 10713 10712 10709 ] final  164.70 input   66.30 | X-H torsion
[ 10763 10752 10751 10750 ] final   83.12 input  -60.55 | X-H torsion
[ 11005 11000 10999 10996 ] final  121.71 input  -57.11 | X-H torsion

> <Gold.Protein.ActiveResidues>
 VAL166  LYS551  ARG553  GLY616  TRP617  ASP618  TYR619  PRO620  LYS621  CYS622 
 ASP623  PHE694  ASN695  SER759  ASP760  ASP761  ALA762  ILE779  LEU786  VAL792 
 PHE793  MET794  SER795  GLU796  ALA797  LYS798  CYS799  TRP800  GLU811  SER814 

> <Gold.Protein.RotatedAtoms>
  152.4469  134.5476  159.9857 H   0  0  0  0  0  0  0  0  0  0  0  0  # atno 6907 bound_to 6896
  151.5558  133.3404  159.2969 H   0  0  0  0  0  0  0  0  0  0  0  0  # atno 6908 bound_to 6896
  150.8387  134.7704  159.6978 H   0  0  0  0  0  0  0  0  0  0  0  0  # atno 6909 bound_to 6896
  145.9364  140.7702  142.9574 H   0  0  0  0  0  0  0  0  0  0  0  0  # atno 7974 bound_to 7965
  154.4557  140.1967  156.0387 H   0  0  0  0  0  0  0  0  0  0  0  0  # atno 8008 bound_to 7997
  156.0740  140.3280  155.7583 H   0  0  0  0  0  0  0  0  0  0  0  0  # atno 8009 bound_to 7997
  155.5217  140.0570  157.2896 H   0  0  0  0  0  0  0  0  0  0  0  0  # atno 8010 bound_to 7997
  140.5601  143.2312  151.6745 H   0  0  0  0  0  0  0  0  0  0  0  0  # atno 10167 bound_to 10162
  157.0907  131.0417  151.2538 H   0  0  0  0  0  0  0  0  0  0  0  0  # atno 10718 bound_to 10713
  153.1263  135.4703  154.9277 H   0  0  0  0  0  0  0  0  0  0  0  0  # atno 10763 bound_to 10752
  154.7623  135.3135  154.8357 H   0  0  0  0  0  0  0  0  0  0  0  0  # atno 10764 bound_to 10752
  153.8909  135.6885  153.4814 H   0  0  0  0  0  0  0  0  0  0  0  0  # atno 10765 bound_to 10752
  139.9237  134.9639  156.7999 H   0  0  0  0  0  0  0  0  0  0  0  0  # atno 11005 bound_to 11000
  144.6772  140.2210  143.7366 LP  0  0  0  0  0  0  0  0  0  0  0  0  # atno 17320 bound_to 7965
  145.8358  139.2107  143.1856 LP  0  0  0  0  0  0  0  0  0  0  0  0  # atno 17321 bound_to 7965
  139.5066  144.3676  152.0502 LP  0  0  0  0  0  0  0  0  0  0  0  0  # atno 17342 bound_to 10162
  140.2801  144.3869  150.6122 LP  0  0  0  0  0  0  0  0  0  0  0  0  # atno 17343 bound_to 10162
  157.4724  130.7716  149.7336 LP  0  0  0  0  0  0  0  0  0  0  0  0  # atno 17370 bound_to 10713
  155.9899  130.3948  150.3053 LP  0  0  0  0  0  0  0  0  0  0  0  0  # atno 17371 bound_to 10713
  140.6398  133.9828  155.7702 LP  0  0  0  0  0  0  0  0  0  0  0  0  # atno 17394 bound_to 11000
  141.0778  134.0108  157.3431 LP  0  0  0  0  0  0  0  0  0  0  0  0  # atno 17395 bound_to 11000

$$$$
