AV-unprocessed.smi:1900|AV-procd|sdf|7713|dock7
  -GOLD-   22720 9453D 1   1.00000     0.00000
 Structure written by MMmdl.
 43 44  0  0  0  0  0  0  0  0  1 V2000
  152.3054  138.2290  154.4450 C   0  0  0  0  0  0  0  0  0  0  0  0
  151.1300  138.9648  155.0963 C   0  0  2  0  0  0  0  0  0  0  0  0
  149.8062  138.7147  154.3514 C   0  0  0  0  0  0  0  0  0  0  0  0
  148.7086  139.4840  154.9218 N   0  0  0  0  0  0  0  0  0  0  0  0
  147.4461  139.1893  154.2439 C   0  0  0  0  0  0  0  0  0  0  0  0
  147.4665  139.3556  152.7134 C   0  0  0  0  0  0  0  0  0  0  0  0
  146.2998  138.6348  152.0142 C   0  0  0  0  0  0  0  0  0  0  0  0
  146.5711  137.2120  151.8469 N   0  0  0  0  0  0  0  0  0  0  0  0
  145.6427  136.2850  151.5695 C   0  0  0  0  0  0  0  0  0  0  0  0
  144.4481  136.5425  151.4189 O   0  0  0  0  0  0  0  0  0  0  0  0
  146.1862  135.0604  151.4782 N   0  0  0  0  0  0  0  0  0  0  0  0
  145.5153  133.8437  151.1981 C   0  0  0  0  0  0  0  0  0  0  0  0
  146.0206  132.5104  151.2112 C   0  0  0  0  0  0  0  0  0  0  0  0
  145.0767  131.6365  150.8906 N   0  0  0  0  0  0  0  0  0  0  0  0
  143.9789  132.3953  150.6741 N   0  0  0  0  0  0  0  0  0  0  0  0
  144.2016  133.7433  150.8496 C   0  0  0  0  0  0  0  0  0  0  0  0
  149.0539  140.9035  154.8878 C   0  0  0  0  0  0  0  0  0  0  0  0
  150.3886  141.2049  155.5972 C   0  0  1  0  0  0  0  0  0  0  0  0
  150.2887  141.1277  157.1304 C   0  0  0  0  0  0  0  0  0  0  0  0
  151.4232  140.3610  155.0880 O   0  0  0  0  0  0  0  0  0  0  0  0
  143.0955  131.9828  150.4102 H   0  0  0  0  0  0  0  0  0  0  0  0
  152.1363  137.1521  154.4321 H   0  0  0  0  0  0  0  0  0  0  0  0
  153.2306  138.4138  154.9910 H   0  0  0  0  0  0  0  0  0  0  0  0
  152.4544  138.5573  153.4161 H   0  0  0  0  0  0  0  0  0  0  0  0
  151.0384  138.6205  156.1268 H   0  0  0  0  0  0  0  0  0  0  0  0
  149.9254  138.9689  153.2969 H   0  0  0  0  0  0  0  0  0  0  0  0
  149.5695  137.6508  154.3905 H   0  0  0  0  0  0  0  0  0  0  0  0
  147.1304  138.1742  154.4888 H   0  0  0  0  0  0  0  0  0  0  0  0
  146.6689  139.8453  154.6386 H   0  0  0  0  0  0  0  0  0  0  0  0
  147.4765  140.4122  152.4470 H   0  0  0  0  0  0  0  0  0  0  0  0
  148.4060  138.9530  152.3338 H   0  0  0  0  0  0  0  0  0  0  0  0
  145.3891  138.7443  152.6032 H   0  0  0  0  0  0  0  0  0  0  0  0
  146.0938  139.0843  151.0411 H   0  0  0  0  0  0  0  0  0  0  0  0
  147.5295  136.9137  151.9538 H   0  0  0  0  0  0  0  0  0  0  0  0
  147.1827  134.9910  151.6233 H   0  0  0  0  0  0  0  0  0  0  0  0
  147.0121  132.1463  151.4352 H   0  0  0  0  0  0  0  0  0  0  0  0
  143.4296  134.4865  150.7155 H   0  0  0  0  0  0  0  0  0  0  0  0
  149.1211  141.2351  153.8506 H   0  0  0  0  0  0  0  0  0  0  0  0
  148.2709  141.5012  155.3528 H   0  0  0  0  0  0  0  0  0  0  0  0
  150.6766  142.2267  155.3487 H   0  0  0  0  0  0  0  0  0  0  0  0
  149.5714  141.8566  157.5084 H   0  0  0  0  0  0  0  0  0  0  0  0
  151.2518  141.3397  157.5948 H   0  0  0  0  0  0  0  0  0  0  0  0
  149.9615  140.1456  157.4708 H   0  0  0  0  0  0  0  0  0  0  0  0
  1  2  1  0  0  0  0
  1 22  1  0  0  0  0
  1 23  1  0  0  0  0
  1 24  1  0  0  0  0
  2 20  1  0  0  0  0
  2  3  1  0  0  0  0
  2 25  1  0  0  0  0
  3  4  1  0  0  0  0
  3 26  1  0  0  0  0
  3 27  1  0  0  0  0
  4  5  1  0  0  0  0
  4 17  1  0  0  0  0
  5  6  1  0  0  0  0
  5 28  1  0  0  0  0
  5 29  1  0  0  0  0
  6  7  1  0  0  0  0
  6 30  1  0  0  0  0
  6 31  1  0  0  0  0
  7  8  1  0  0  0  0
  7 32  1  0  0  0  0
  7 33  1  0  0  0  0
  8  9  1  0  0  0  0
  8 34  1  0  0  0  0
  9 10  2  0  0  0  0
  9 11  1  0  0  0  0
 11 12  1  0  0  0  0
 11 35  1  0  0  0  0
 12 16  2  0  0  0  0
 12 13  1  0  0  0  0
 13 14  2  0  0  0  0
 13 36  1  0  0  0  0
 14 15  1  0  0  0  0
 15 21  1  0  0  0  0
 15 16  1  0  0  0  0
 16 37  1  0  0  0  0
 17 18  1  0  0  0  0
 17 38  1  0  0  0  0
 17 39  1  0  0  0  0
 18 19  1  0  0  0  0
 18 20  1  0  0  0  0
 18 40  1  0  0  0  0
 19 41  1  0  0  0  0
 19 42  1  0  0  0  0
 19 43  1  0  0  0  0
M  END
> <s_m_source_file>
AV-unprocessed.smi

> <i_m_source_file_index>
1900

> <i_lp_mmshare_version>
43012

> <i_f3d_flags>
0

> <s_epik_input>
W0NIM11bQ0BASF0xW0NIMl1OKFtDSDJdW0NASF0oTzEpW0NIM10pW0NIMl1bQ0gyXVtDSDJdW05IXUMoPU8pW05IXWMyW2NIXW5bbkhdW2NIXTI=

> <s_epik_cmdline>
J2VwaWtfcHl0aG9uJywgJy1waCcsICc3LjAnLCAnLXRuJywgJzgnLCAnLW1hJywgJzIwMCcsICctbWV0YWxfYmluZGluZycsICctaW1hZScsICc8aW5maWxlLm1hZT4nLCAnLW9tYWUnLCAnPG91dGZpbGUubWFlPic=

> <r_lp_tautomer_probability>
0.5

> <r_epik_Ionization_Penalty>
0.594715

> <r_epik_Ionization_Penalty_Charging>
0

> <r_epik_Ionization_Penalty_Neutral>
0.594715

> <r_epik_State_Penalty>
0.608529

> <r_epik_Charging_Adjusted_Penalty>
0.608529

> <i_epik_Tot_Q>
0

> <i_epik_Tot_abs_Q>
0

> <r_epik_Metal_State_Penalty>
0.608528

> <b_epik_Metal_Only>
0

> <s_lp_Force_Field>
OPLS_2005

> <r_lp_Energy>
27.7437

> <b_lp_Chiralities_Consistent>
1

> <s_lp_Variant>
AV-unprocessed.smi:1900-5

> <Gold.Version>
5.8.1

> <Gold.Id.Protein>
6NUR|6NUR_protein|mol2

> <Gold.PLP.Fitness>
44.1501

> <Gold.PLP.PLP>
-31.9428

> <Gold.PLP.part.hbond>
-2.9930

> <Gold.PLP.part.metal>
0.0000

> <Gold.PLP.part.buried>
-2.7894

> <Gold.PLP.part.nonpolar>
-29.5200

> <Gold.PLP.part.repulsive>
3.5885

> <Gold.PLP.ligand.clash>
0.0000

> <Gold.PLP.ligand.torsion>
0.3295

> <Gold.PLP.Chemscore.Hbond>
2.7201

> <Gold.PLP.Chemscore.CHOScore>
1.5553

> <Gold.PLP.Chemscore.Metal>
0.0000

> <Gold.Chemscore.Hbonds>
donor molecule, donor type, donor heavy atom, donor atom, acceptor molecule, acceptor atom, score
      L1  H     8    34       P1  7948  1.00
      L1  H    11    35       P1  7948  0.65
      P1  H  7989  7998       L1    20  0.98
      L1  C    13    36       P1 10747  0.77
      L1  C    16    37       P1 10186  0.63

> <Gold.PLP.Chemscore.Internal.Correction>
0.0402

> <Gold.Rescore>
     Score         DG    S(hbond)    S(metal)    S(lipo)     H(rot)  DE(clash)    DE(int)     intcor
     12.98     -17.38       2.08        0.00      83.55       1.88       2.80       1.60       ----

> <Gold.Chemscore.Fitness>
12.9757

> <Gold.Chemscore.DG>
-17.3766

> <Gold.Chemscore.ZeroCoef>
-5.4800

> <Gold.Chemscore.Hbond>
2.0759

> <Gold.Chemscore.Metal>
0.0000

> <Gold.Chemscore.Lipo>
83.5515

> <Gold.Chemscore.Internal_Hbond>
0.0000

> <Gold.Chemscore.DEClash>
2.8025

> <Gold.Chemscore.DEInternal>
1.5984

> <Gold.Chemscore.Rot>
1.8799

> <Gold.Chemscore.Internal.Correction>
   9.000000E+99

> <Gold.Chemscore.Hbonds>
donor molecule, donor type, donor heavy atom, donor atom, acceptor molecule, acceptor atom, score
      L1  H     8    34       P1  7948  0.96
      L1  H    11    35       P1  7948  0.53
      P1  H  7989  7998       L1    20  0.35

> <Gold.Chemscore.Hbond.Weighted>
-6.9337

> <Gold.Chemscore.Metal.Weighted>
-0.0000

> <Gold.Chemscore.Lipo.Weighted>
-9.7755

> <Gold.Chemscore.Internal_Hbond.Weighted>
0.0000

> <Gold.Chemscore.DEClash.Weighted>
2.8025

> <Gold.Chemscore.DEInternal.Weighted>
1.5984

> <Gold.Chemscore.Rot.Weighted>
4.8126

> <Gold.Chemscore.Internal.Correction.Weighted>
   9.000000E+99

> <Gold.Protein.RotatedTorsions>
[ 6907 6896 6895 6894 ] final -100.03 input  -60.11 | X-H torsion
[ 7974 7965 7964 7962 ] final   40.94 input  175.53 | X-H torsion
[ 8008 7997 7996 7995 ] final  123.90 input   59.86 | X-H torsion
[ 10167 10162 10161 10158 ] final   63.17 input  -65.29 | X-H torsion
[ 10718 10713 10712 10709 ] final  -10.05 input   66.30 | X-H torsion
[ 10763 10752 10751 10750 ] final  148.86 input  -60.55 | X-H torsion
[ 11005 11000 10999 10996 ] final -129.07 input  -57.11 | X-H torsion

> <Gold.Protein.ActiveResidues>
 VAL166  LYS551  ARG553  GLY616  TRP617  ASP618  TYR619  PRO620  LYS621  CYS622 
 ASP623  PHE694  ASN695  SER759  ASP760  ASP761  ALA762  ILE779  LEU786  VAL792 
 PHE793  MET794  SER795  GLU796  ALA797  LYS798  CYS799  TRP800  GLU811  SER814 

> <Gold.Protein.RotatedAtoms>
  150.7101  134.0949  159.3944 H   0  0  0  0  0  0  0  0  0  0  0  0  # atno 6907 bound_to 6896
  151.8935  135.0405  160.0509 H   0  0  0  0  0  0  0  0  0  0  0  0  # atno 6908 bound_to 6896
  152.2472  133.5149  159.5341 H   0  0  0  0  0  0  0  0  0  0  0  0  # atno 6909 bound_to 6896
  146.0864  139.5474  142.9504 H   0  0  0  0  0  0  0  0  0  0  0  0  # atno 7974 bound_to 7965
  156.2782  140.2752  156.1702 H   0  0  0  0  0  0  0  0  0  0  0  0  # atno 8008 bound_to 7997
  155.0663  140.0387  157.2611 H   0  0  0  0  0  0  0  0  0  0  0  0  # atno 8009 bound_to 7997
  154.7076  140.2662  155.6665 H   0  0  0  0  0  0  0  0  0  0  0  0  # atno 8010 bound_to 7997
  140.1360  144.4598  150.6838 H   0  0  0  0  0  0  0  0  0  0  0  0  # atno 10167 bound_to 10162
  156.6791  130.5031  149.5977 H   0  0  0  0  0  0  0  0  0  0  0  0  # atno 10718 bound_to 10713
  154.0617  135.2873  155.3323 H   0  0  0  0  0  0  0  0  0  0  0  0  # atno 10763 bound_to 10752
  154.6804  135.5265  153.8258 H   0  0  0  0  0  0  0  0  0  0  0  0  # atno 10764 bound_to 10752
  153.0520  135.6580  154.0805 H   0  0  0  0  0  0  0  0  0  0  0  0  # atno 10765 bound_to 10752
  140.9463  134.1126  157.4104 H   0  0  0  0  0  0  0  0  0  0  0  0  # atno 11005 bound_to 11000
  145.6121  141.0337  143.1961 LP  0  0  0  0  0  0  0  0  0  0  0  0  # atno 17320 bound_to 7965
  144.7329  139.7672  143.7340 LP  0  0  0  0  0  0  0  0  0  0  0  0  # atno 17321 bound_to 7965
  140.6789  143.2317  151.5436 LP  0  0  0  0  0  0  0  0  0  0  0  0  # atno 17342 bound_to 10162
  139.5496  144.2431  152.1505 LP  0  0  0  0  0  0  0  0  0  0  0  0  # atno 17343 bound_to 10162
  156.1881  130.6542  151.1030 LP  0  0  0  0  0  0  0  0  0  0  0  0  # atno 17370 bound_to 10713
  157.7050  131.0760  150.6697 LP  0  0  0  0  0  0  0  0  0  0  0  0  # atno 17371 bound_to 10713
  139.8834  135.0052  156.6299 LP  0  0  0  0  0  0  0  0  0  0  0  0  # atno 17394 bound_to 11000
  140.7665  133.8774  155.8458 LP  0  0  0  0  0  0  0  0  0  0  0  0  # atno 17395 bound_to 11000

$$$$
