AV-unprocessed.smi:160|AV-procd|sdf|1366|dock3
  -GOLD-   2262019 83D 1   1.00000     0.00000
 Structure written by MMmdl.
 28 29  0  0  0  0  0  0  0  0  2 V2000
  151.2856  136.8358  159.4238 N   0  5  0  0  0  0  0  0  0  0  0  0
  150.0036  137.2576  159.4864 C   0  0  0  0  0  0  0  0  0  0  0  0
  149.1706  136.9327  160.3319 O   0  0  0  0  0  0  0  0  0  0  0  0
  149.6073  138.2207  158.3928 C   0  0  0  0  0  0  0  0  0  0  0  0
  148.3217  138.6766  158.2953 N   0  0  0  0  0  0  0  0  0  0  0  0
  148.4573  139.4681  157.2398 C   0  0  0  0  0  0  0  0  0  0  0  0
  149.6910  139.4941  156.7266 N   0  0  0  0  0  0  0  0  0  0  0  0
  150.2287  140.2806  155.5661 C   0  0  1  0  0  0  0  0  0  0  0  0
  149.7182  139.7122  154.4002 O   0  0  0  0  0  0  0  0  0  0  0  0
  148.6905  140.5250  153.8290 C   0  0  1  0  0  0  0  0  0  0  0  0
  147.4267  139.6833  153.5838 C   0  0  0  0  0  0  0  0  0  0  0  0
  147.7069  138.6349  152.6806 O   0  0  0  0  0  0  0  0  0  0  0  0
  148.4688  141.6898  154.8100 C   0  0  2  0  0  0  0  0  0  0  0  0
  148.2518  142.8945  154.1016 O   0  0  0  0  0  0  0  0  0  0  0  0
  149.7798  141.7506  155.5804 C   0  0  1  0  0  0  0  0  0  0  0  0
  149.6035  142.2861  156.8794 O   0  0  0  0  0  0  0  0  0  0  0  0
  150.4695  138.6803  157.4814 N   0  0  0  0  0  0  0  0  0  0  0  0
  151.3096  140.1533  155.6334 H   0  0  0  0  0  0  0  0  0  0  0  0
  149.0768  140.9160  152.8856 H   0  0  0  0  0  0  0  0  0  0  0  0
  147.6289  141.4870  155.4766 H   0  0  0  0  0  0  0  0  0  0  0  0
  150.5252  142.3284  155.0315 H   0  0  0  0  0  0  0  0  0  0  0  0
  151.9581  137.2141  160.1015 H   0  0  0  0  0  0  0  0  0  0  0  0
  147.6386  140.0426  156.8325 H   0  0  0  0  0  0  0  0  0  0  0  0
  147.0235  139.2830  154.5140 H   0  0  0  0  0  0  0  0  0  0  0  0
  146.6474  140.2991  153.1337 H   0  0  0  0  0  0  0  0  0  0  0  0
  148.2057  138.9879  151.9599 H   0  0  0  0  0  0  0  0  0  0  0  0
  148.2755  143.6119  154.7160 H   0  0  0  0  0  0  0  0  0  0  0  0
  149.3306  143.1870  156.8004 H   0  0  0  0  0  0  0  0  0  0  0  0
  1  2  1  0  0  0  0
  1 22  1  0  0  0  0
  2  3  2  0  0  0  0
  2  4  1  0  0  0  0
  4 17  2  0  0  0  0
  4  5  1  0  0  0  0
  5  6  2  0  0  0  0
  6  7  1  0  0  0  0
  6 23  1  0  0  0  0
  7  8  1  0  0  0  0
  7 17  1  0  0  0  0
  8 18  1  0  0  0  0
  8 15  1  0  0  0  0
  8  9  1  0  0  0  0
  9 10  1  0  0  0  0
 10 19  1  0  0  0  0
 10 11  1  0  0  0  0
 10 13  1  0  0  0  0
 11 12  1  0  0  0  0
 11 24  1  0  0  0  0
 11 25  1  0  0  0  0
 12 26  1  0  0  0  0
 13 20  1  0  0  0  0
 13 14  1  0  0  0  0
 13 15  1  0  0  0  0
 14 27  1  0  0  0  0
 15 21  1  0  0  0  0
 15 16  1  0  0  0  0
 16 28  1  0  0  0  0
M  CHG  1   1  -1
M  END
> <s_m_source_file>
AV-unprocessed.smi

> <i_m_source_file_index>
160

> <i_lp_mmshare_version>
43012

> <i_f3d_flags>
0

> <s_epik_input>
W05IMl1DKD1PKWMxbltjSF1uKG4xKVtDQEBIXTJPW0NASF0oW0NIMl1bT0hdKVtDQEBIXShbT0hdKVtDQEhdMltPSF0=

> <s_epik_cmdline>
J2VwaWtfcHl0aG9uJywgJy1waCcsICc3LjAnLCAnLXRuJywgJzgnLCAnLW1hJywgJzIwMCcsICctbWV0YWxfYmluZGluZycsICctaW1hZScsICc8aW5maWxlLm1hZT4nLCAnLW9tYWUnLCAnPG91dGZpbGUubWFlPic=

> <r_lp_tautomer_probability>
1

> <r_epik_Ionization_Penalty>
6.6993

> <r_epik_Ionization_Penalty_Charging>
6.6993

> <r_epik_Ionization_Penalty_Neutral>
6.01698e-06

> <r_epik_State_Penalty>
6.69929

> <r_epik_Charging_Adjusted_Penalty>
13.3986

> <i_epik_Tot_Q>
-1

> <i_epik_Tot_abs_Q>
1

> <r_epik_Metal_State_Penalty>
2.62798

> <b_epik_Metal_Only>
1

> <s_epik_Chemistry_Notes>
This compound contains an acetal/aminal-like group ( X-CH(R)-Y where X, Y are N, S, or O) that may be acid/base labile, releasing an aldehyde.

> <s_lp_Force_Field>
OPLS_2005

> <r_lp_Energy>
43.6415

> <b_lp_Chiralities_Consistent>
1

> <s_lp_Variant>
AV-unprocessed.smi:160-24

> <Gold.Version>
5.8.1

> <Gold.Id.Protein>
6NUR|6NUR_protein|mol2

> <Gold.PLP.Fitness>
40.0578

> <Gold.PLP.PLP>
-23.7572

> <Gold.PLP.part.hbond>
-8.4013

> <Gold.PLP.part.metal>
0.0000

> <Gold.PLP.part.buried>
1.4691

> <Gold.PLP.part.nonpolar>
-15.6005

> <Gold.PLP.part.repulsive>
0.1259

> <Gold.PLP.ligand.clash>
0.0000

> <Gold.PLP.ligand.torsion>
0.2920

> <Gold.PLP.Chemscore.Hbond>
5.6240

> <Gold.PLP.Chemscore.CHOScore>
0.0000

> <Gold.PLP.Chemscore.Metal>
0.0000

> <Gold.Chemscore.Hbonds>
donor molecule, donor type, donor heavy atom, donor atom, acceptor molecule, acceptor atom, score
      L1  H    12    26       P1  7957  1.00
      L1  H    14    27       P1  8028  1.00
      L1  H    16    28       P1  8028  0.99
      P1  H  6896  6908       L1     1  2.00
      P1  H  6931  6943       L1     3  0.62

> <Gold.PLP.Chemscore.Internal.Correction>
0.0126

> <Gold.Rescore>
     Score         DG    S(hbond)    S(metal)    S(lipo)     H(rot)  DE(clash)    DE(int)     intcor
      9.57     -12.40       4.11        0.00      30.31       4.04       1.84       0.99       ----

> <Gold.Chemscore.Fitness>
9.5683

> <Gold.Chemscore.DG>
-12.3975

> <Gold.Chemscore.ZeroCoef>
-5.4800

> <Gold.Chemscore.Hbond>
4.1062

> <Gold.Chemscore.Metal>
0.0000

> <Gold.Chemscore.Lipo>
30.3050

> <Gold.Chemscore.Internal_Hbond>
0.0000

> <Gold.Chemscore.DEClash>
1.8436

> <Gold.Chemscore.DEInternal>
0.9856

> <Gold.Chemscore.Rot>
4.0403

> <Gold.Chemscore.Internal.Correction>
   9.000000E+99

> <Gold.Chemscore.Hbonds>
donor molecule, donor type, donor heavy atom, donor atom, acceptor molecule, acceptor atom, score
      L1  H    12    26       P1  7957  0.95
      L1  H    14    27       P1  8028  0.88
      L1  H    16    28       P1  8028  0.92
      P1  H  6896  6908       L1     1  0.19
      P1  H  6931  6943       L1     3  0.47

> <Gold.Chemscore.Hbond.Weighted>
-13.7148

> <Gold.Chemscore.Metal.Weighted>
-0.0000

> <Gold.Chemscore.Lipo.Weighted>
-3.5457

> <Gold.Chemscore.Internal_Hbond.Weighted>
0.0000

> <Gold.Chemscore.DEClash.Weighted>
1.8436

> <Gold.Chemscore.DEInternal.Weighted>
0.9856

> <Gold.Chemscore.Rot.Weighted>
10.3431

> <Gold.Chemscore.Internal.Correction.Weighted>
   9.000000E+99

> <Gold.Protein.RotatedTorsions>
[ 6907 6896 6895 6894 ] final -148.33 input  -60.11 | X-H torsion
[ 7974 7965 7964 7962 ] final   -5.49 input  175.53 | X-H torsion
[ 8008 7997 7996 7995 ] final -104.95 input   59.86 | X-H torsion
[ 10167 10162 10161 10158 ] final   80.70 input  -65.29 | X-H torsion
[ 10718 10713 10712 10709 ] final  -19.34 input   66.30 | X-H torsion
[ 10763 10752 10751 10750 ] final -100.47 input  -60.55 | X-H torsion
[ 11005 11000 10999 10996 ] final  -58.81 input  -57.11 | X-H torsion

> <Gold.Protein.ActiveResidues>
 VAL166  LYS551  ARG553  GLY616  TRP617  ASP618  TYR619  PRO620  LYS621  CYS622 
 ASP623  PHE694  ASN695  SER759  ASP760  ASP761  ALA762  ILE779  LEU786  VAL792 
 PHE793  MET794  SER795  GLU796  ALA797  LYS798  CYS799  TRP800  GLU811  SER814 

> <Gold.Protein.RotatedAtoms>
  151.1683  133.4801  159.2593 H   0  0  0  0  0  0  0  0  0  0  0  0  # atno 6907 bound_to 6896
  151.1383  135.0166  159.8624 H   0  0  0  0  0  0  0  0  0  0  0  0  # atno 6908 bound_to 6896
  152.5462  134.1579  159.8598 H   0  0  0  0  0  0  0  0  0  0  0  0  # atno 6909 bound_to 6896
  146.2352  140.2028  142.8334 H   0  0  0  0  0  0  0  0  0  0  0  0  # atno 7974 bound_to 7965
  154.8928  140.0415  157.1848 H   0  0  0  0  0  0  0  0  0  0  0  0  # atno 8008 bound_to 7997
  154.8523  140.2931  155.5569 H   0  0  0  0  0  0  0  0  0  0  0  0  # atno 8009 bound_to 7997
  156.2996  140.2462  156.3484 H   0  0  0  0  0  0  0  0  0  0  0  0  # atno 8010 bound_to 7997
  139.9470  144.6051  150.8197 H   0  0  0  0  0  0  0  0  0  0  0  0  # atno 10167 bound_to 10162
  156.5470  130.4692  149.6471 H   0  0  0  0  0  0  0  0  0  0  0  0  # atno 10718 bound_to 10713
  154.7582  135.4933  153.9414 H   0  0  0  0  0  0  0  0  0  0  0  0  # atno 10763 bound_to 10752
  153.1220  135.6734  153.9327 H   0  0  0  0  0  0  0  0  0  0  0  0  # atno 10764 bound_to 10752
  153.9057  135.3105  155.3427 H   0  0  0  0  0  0  0  0  0  0  0  0  # atno 10765 bound_to 10752
  141.1223  133.6613  156.4977 H   0  0  0  0  0  0  0  0  0  0  0  0  # atno 11005 bound_to 11000
  144.9768  140.8421  143.5421 LP  0  0  0  0  0  0  0  0  0  0  0  0  # atno 17320 bound_to 7965
  145.2016  139.2249  143.5189 LP  0  0  0  0  0  0  0  0  0  0  0  0  # atno 17321 bound_to 7965
  140.7594  143.3128  151.2804 LP  0  0  0  0  0  0  0  0  0  0  0  0  # atno 17342 bound_to 10162
  139.6658  144.0107  152.2722 LP  0  0  0  0  0  0  0  0  0  0  0  0  # atno 17343 bound_to 10162
  156.2920  130.7129  151.1980 LP  0  0  0  0  0  0  0  0  0  0  0  0  # atno 17370 bound_to 10713
  157.7395  131.0529  150.5229 LP  0  0  0  0  0  0  0  0  0  0  0  0  # atno 17371 bound_to 10713
  140.4471  134.6962  157.5021 LP  0  0  0  0  0  0  0  0  0  0  0  0  # atno 17394 bound_to 11000
  140.0190  134.6576  155.9267 LP  0  0  0  0  0  0  0  0  0  0  0  0  # atno 17395 bound_to 11000

$$$$
