AV-unprocessed.smi:2390|AV-procd|sdf|9476|dock6
  -GOLD-   2272013103D 1   1.00000     0.00000
 Structure written by MMmdl.
 45 46  0  0  0  0  0  0  0  0  1 V2000
  152.7452  142.4688  161.6277 C   0  0  0  0  0  0  0  0  0  0  0  0
  152.2298  143.4359  160.5829 C   0  0  0  0  0  0  0  0  0  0  0  0
  152.7088  144.7594  160.5202 C   0  0  0  0  0  0  0  0  0  0  0  0
  152.1887  145.6060  159.5250 C   0  0  0  0  0  0  0  0  0  0  0  0
  151.2184  145.0982  158.6395 C   0  0  0  0  0  0  0  0  0  0  0  0
  150.7900  143.7581  158.7715 C   0  0  0  0  0  0  0  0  0  0  0  0
  149.8109  143.3431  157.8302 N   0  0  0  0  0  0  0  0  0  0  0  0
  149.2257  142.1378  157.7171 C   0  0  0  0  0  0  0  0  0  0  0  0
  149.4348  141.1738  158.4542 O   0  0  0  0  0  0  0  0  0  0  0  0
  148.3732  142.1105  156.6822 N   0  0  0  0  0  0  0  0  0  0  0  0
  147.6010  140.9493  156.2393 C   0  0  1  0  0  0  0  0  0  0  0  0
  146.1205  141.3412  156.0815 C   0  0  0  0  0  0  0  0  0  0  0  0
  148.2453  140.3116  154.9680 C   0  0  1  0  0  0  0  0  0  0  0  0
  148.3669  141.3779  153.8488 C   0  0  0  0  0  0  0  0  0  0  0  0
  149.5311  139.6174  155.2336 N   0  0  0  0  0  0  0  0  0  0  0  0
  150.6368  140.5497  155.4827 C   0  0  0  0  0  0  0  0  0  0  0  0
  151.9742  139.8360  155.7462 C   0  0  0  0  0  0  0  0  0  0  0  0
  152.2884  138.9863  154.6519 O   0  0  0  0  0  0  0  0  0  0  0  0
  151.2773  138.0143  154.4262 C   0  0  0  0  0  0  0  0  0  0  0  0
  149.9367  138.7152  154.1488 C   0  0  0  0  0  0  0  0  0  0  0  0
  151.2976  142.9497  159.7353 N   0  0  0  0  0  0  0  0  0  0  0  0
  153.5906  142.8895  162.1728 H   0  0  0  0  0  0  0  0  0  0  0  0
  153.0722  141.5401  161.1590 H   0  0  0  0  0  0  0  0  0  0  0  0
  151.9589  142.2338  162.3454 H   0  0  0  0  0  0  0  0  0  0  0  0
  153.4544  145.1183  161.2146 H   0  0  0  0  0  0  0  0  0  0  0  0
  152.5285  146.6278  159.4410 H   0  0  0  0  0  0  0  0  0  0  0  0
  150.8101  145.7351  157.8680 H   0  0  0  0  0  0  0  0  0  0  0  0
  149.5339  144.0408  157.1557 H   0  0  0  0  0  0  0  0  0  0  0  0
  148.2702  142.9516  156.1335 H   0  0  0  0  0  0  0  0  0  0  0  0
  147.5809  140.1942  157.0236 H   0  0  0  0  0  0  0  0  0  0  0  0
  145.5388  140.5217  155.6585 H   0  0  0  0  0  0  0  0  0  0  0  0
  145.9857  142.2164  155.4464 H   0  0  0  0  0  0  0  0  0  0  0  0
  145.6836  141.5844  157.0506 H   0  0  0  0  0  0  0  0  0  0  0  0
  147.5375  139.5633  154.6081 H   0  0  0  0  0  0  0  0  0  0  0  0
  147.4341  141.9121  153.6806 H   0  0  0  0  0  0  0  0  0  0  0  0
  148.6096  140.9356  152.8839 H   0  0  0  0  0  0  0  0  0  0  0  0
  149.1344  142.1169  154.0807 H   0  0  0  0  0  0  0  0  0  0  0  0
  150.7486  141.2256  154.6335 H   0  0  0  0  0  0  0  0  0  0  0  0
  150.4313  141.1670  156.3552 H   0  0  0  0  0  0  0  0  0  0  0  0
  152.7745  140.5657  155.8698 H   0  0  0  0  0  0  0  0  0  0  0  0
  151.9271  139.2536  156.6678 H   0  0  0  0  0  0  0  0  0  0  0  0
  151.5632  137.3943  153.5766 H   0  0  0  0  0  0  0  0  0  0  0  0
  151.1952  137.3541  155.2914 H   0  0  0  0  0  0  0  0  0  0  0  0
  149.2006  137.9276  154.0039 H   0  0  0  0  0  0  0  0  0  0  0  0
  150.0015  139.2683  153.2107 H   0  0  0  0  0  0  0  0  0  0  0  0
  1  2  1  0  0  0  0
  1 22  1  0  0  0  0
  1 23  1  0  0  0  0
  1 24  1  0  0  0  0
  2 21  1  0  0  0  0
  2  3  2  0  0  0  0
  3  4  1  0  0  0  0
  3 25  1  0  0  0  0
  4  5  2  0  0  0  0
  4 26  1  0  0  0  0
  5  6  1  0  0  0  0
  5 27  1  0  0  0  0
  6  7  1  0  0  0  0
  6 21  2  0  0  0  0
  7  8  1  0  0  0  0
  7 28  1  0  0  0  0
  8  9  2  0  0  0  0
  8 10  1  0  0  0  0
 10 11  1  0  0  0  0
 10 29  1  0  0  0  0
 11 12  1  0  0  0  0
 11 13  1  0  0  0  0
 11 30  1  0  0  0  0
 12 31  1  0  0  0  0
 12 32  1  0  0  0  0
 12 33  1  0  0  0  0
 13 14  1  0  0  0  0
 13 15  1  0  0  0  0
 13 34  1  0  0  0  0
 14 35  1  0  0  0  0
 14 36  1  0  0  0  0
 14 37  1  0  0  0  0
 15 20  1  0  0  0  0
 15 16  1  0  0  0  0
 16 17  1  0  0  0  0
 16 38  1  0  0  0  0
 16 39  1  0  0  0  0
 17 18  1  0  0  0  0
 17 40  1  0  0  0  0
 17 41  1  0  0  0  0
 18 19  1  0  0  0  0
 19 20  1  0  0  0  0
 19 42  1  0  0  0  0
 19 43  1  0  0  0  0
 20 44  1  0  0  0  0
 20 45  1  0  0  0  0
M  END
> <s_m_source_file>
AV-unprocessed.smi

> <i_m_source_file_index>
2390

> <i_lp_mmshare_version>
43012

> <i_f3d_flags>
0

> <s_epik_input>
W0NIM11jMVtjSF1bY0hdW2NIXWMobjEpW05IXUMoPU8pW05IXVtDQEhdKFtDSDNdKVtDQEhdKFtDSDNdKU4yW0NIMl1bQ0gyXU9bQ0gyXVtDSDJdMg==

> <s_epik_cmdline>
J2VwaWtfcHl0aG9uJywgJy1waCcsICc3LjAnLCAnLXRuJywgJzgnLCAnLW1hJywgJzIwMCcsICctbWV0YWxfYmluZGluZycsICctaW1hZScsICc8aW5maWxlLm1hZT4nLCAnLW9tYWUnLCAnPG91dGZpbGUubWFlPic=

> <r_epik_Ionization_Penalty>
0.266074

> <r_epik_Ionization_Penalty_Charging>
0

> <r_epik_Ionization_Penalty_Neutral>
0.266074

> <r_epik_State_Penalty>
0.257924

> <r_epik_Charging_Adjusted_Penalty>
0.257924

> <i_epik_Tot_Q>
0

> <i_epik_Tot_abs_Q>
0

> <r_epik_Metal_State_Penalty>
0.257919

> <b_epik_Metal_Only>
0

> <s_lp_Force_Field>
OPLS_2005

> <r_lp_Energy>
36.7319

> <b_lp_Chiralities_Consistent>
1

> <s_lp_Variant>
AV-unprocessed.smi:2390-4

> <Gold.Version>
5.8.1

> <Gold.Id.Protein>
6NUR|6NUR_protein|mol2

> <Gold.PLP.Fitness>
46.8433

> <Gold.PLP.PLP>
-41.1997

> <Gold.PLP.part.hbond>
-5.0089

> <Gold.PLP.part.metal>
0.0000

> <Gold.PLP.part.buried>
-3.6534

> <Gold.PLP.part.nonpolar>
-32.4078

> <Gold.PLP.part.repulsive>
0.1802

> <Gold.PLP.ligand.clash>
0.0061

> <Gold.PLP.ligand.torsion>
0.4185

> <Gold.PLP.Chemscore.Hbond>
2.1276

> <Gold.PLP.Chemscore.CHOScore>
0.0000

> <Gold.PLP.Chemscore.Metal>
0.0000

> <Gold.Chemscore.Hbonds>
donor molecule, donor type, donor heavy atom, donor atom, acceptor molecule, acceptor atom, score
      L1  H     7    28       P1  8028  1.00
      L1  H    10    29       P1  8028  1.00
      P1  H  7989  7998       L1    18  0.01

> <Gold.PLP.Chemscore.Internal.Correction>
0.1038

> <Gold.Rescore>
     Score         DG    S(hbond)    S(metal)    S(lipo)     H(rot)  DE(clash)    DE(int)     intcor
     16.50     -19.23       1.44        0.00     107.89       1.44       0.74       1.98       ----

> <Gold.Chemscore.Fitness>
16.5036

> <Gold.Chemscore.DG>
-19.2291

> <Gold.Chemscore.ZeroCoef>
-5.4800

> <Gold.Chemscore.Hbond>
1.4405

> <Gold.Chemscore.Metal>
0.0000

> <Gold.Chemscore.Lipo>
107.8913

> <Gold.Chemscore.Internal_Hbond>
0.0000

> <Gold.Chemscore.DEClash>
0.7442

> <Gold.Chemscore.DEInternal>
1.9813

> <Gold.Chemscore.Rot>
1.4396

> <Gold.Chemscore.Internal.Correction>
   9.000000E+99

> <Gold.Chemscore.Hbonds>
donor molecule, donor type, donor heavy atom, donor atom, acceptor molecule, acceptor atom, score
      L1  H     7    28       P1  8028  0.50
      L1  H    10    29       P1  8028  0.78

> <Gold.Chemscore.Hbond.Weighted>
-4.8113

> <Gold.Chemscore.Metal.Weighted>
-0.0000

> <Gold.Chemscore.Lipo.Weighted>
-12.6233

> <Gold.Chemscore.Internal_Hbond.Weighted>
0.0000

> <Gold.Chemscore.DEClash.Weighted>
0.7442

> <Gold.Chemscore.DEInternal.Weighted>
1.9813

> <Gold.Chemscore.Rot.Weighted>
3.6855

> <Gold.Chemscore.Internal.Correction.Weighted>
   9.000000E+99

> <Gold.Protein.RotatedTorsions>
[ 6907 6896 6895 6894 ] final  -79.18 input  -60.11 | X-H torsion
[ 7974 7965 7964 7962 ] final   66.12 input  175.53 | X-H torsion
[ 8008 7997 7996 7995 ] final   42.30 input   59.86 | X-H torsion
[ 10167 10162 10161 10158 ] final  113.52 input  -65.29 | X-H torsion
[ 10718 10713 10712 10709 ] final   21.05 input   66.30 | X-H torsion
[ 10763 10752 10751 10750 ] final   37.52 input  -60.55 | X-H torsion
[ 11005 11000 10999 10996 ] final   35.14 input  -57.11 | X-H torsion

> <Gold.Protein.ActiveResidues>
 VAL166  LYS551  ARG553  GLY616  TRP617  ASP618  TYR619  PRO620  LYS621  CYS622 
 ASP623  PHE694  ASN695  SER759  ASP760  ASP761  ALA762  ILE779  LEU786  VAL792 
 PHE793  MET794  SER795  GLU796  ALA797  LYS798  CYS799  TRP800  GLU811  SER814 

> <Gold.Protein.RotatedAtoms>
  150.6955  134.4159  159.5182 H   0  0  0  0  0  0  0  0  0  0  0  0  # atno 6907 bound_to 6896
  152.1910  134.8669  160.0526 H   0  0  0  0  0  0  0  0  0  0  0  0  # atno 6908 bound_to 6896
  151.9624  133.3665  159.4077 H   0  0  0  0  0  0  0  0  0  0  0  0  # atno 6909 bound_to 6896
  145.8304  139.3136  143.0991 H   0  0  0  0  0  0  0  0  0  0  0  0  # atno 7974 bound_to 7965
  155.2839  140.3374  155.4256 H   0  0  0  0  0  0  0  0  0  0  0  0  # atno 8008 bound_to 7997
  156.2077  140.1757  156.7804 H   0  0  0  0  0  0  0  0  0  0  0  0  # atno 8009 bound_to 7997
  154.5643  140.0681  156.8852 H   0  0  0  0  0  0  0  0  0  0  0  0  # atno 8010 bound_to 7997
  139.6455  144.7126  151.2150 H   0  0  0  0  0  0  0  0  0  0  0  0  # atno 10167 bound_to 10162
  157.1331  130.6599  149.5957 H   0  0  0  0  0  0  0  0  0  0  0  0  # atno 10718 bound_to 10713
  153.0034  135.6275  154.2159 H   0  0  0  0  0  0  0  0  0  0  0  0  # atno 10763 bound_to 10752
  154.1902  135.2809  155.3026 H   0  0  0  0  0  0  0  0  0  0  0  0  # atno 10764 bound_to 10752
  154.5766  135.5660  153.7204 H   0  0  0  0  0  0  0  0  0  0  0  0  # atno 10765 bound_to 10752
  140.2457  134.3362  155.7909 H   0  0  0  0  0  0  0  0  0  0  0  0  # atno 11005 bound_to 11000
  145.9577  140.8860  143.0227 LP  0  0  0  0  0  0  0  0  0  0  0  0  # atno 17320 bound_to 7965
  144.6740  140.1769  143.7409 LP  0  0  0  0  0  0  0  0  0  0  0  0  # atno 17321 bound_to 7965
  140.7512  143.6238  150.8488 LP  0  0  0  0  0  0  0  0  0  0  0  0  # atno 17342 bound_to 10162
  139.9880  143.5878  152.2920 LP  0  0  0  0  0  0  0  0  0  0  0  0  # atno 17343 bound_to 10162
  155.9804  130.4804  150.6769 LP  0  0  0  0  0  0  0  0  0  0  0  0  # atno 17370 bound_to 10713
  157.4375  131.0857  151.0977 LP  0  0  0  0  0  0  0  0  0  0  0  0  # atno 17371 bound_to 10713
  141.2206  133.7324  156.8957 LP  0  0  0  0  0  0  0  0  0  0  0  0  # atno 17394 bound_to 11000
  140.1608  134.9167  157.2712 LP  0  0  0  0  0  0  0  0  0  0  0  0  # atno 17395 bound_to 11000

$$$$
