AV-unprocessed.smi:278|AV-procd|sdf|2094|dock8
  -GOLD-   2262021373D 1   1.00000     0.00000
 Structure written by MMmdl.
 50 54  0  0  0  0  0  0  0  0  1 V2000
  155.8987  136.1248  162.1695 O   0  0  0  0  0  0  0  0  0  0  0  0
  154.9845  137.2767  162.1942 S   0  0  0  0  0  0  0  0  0  0  0  0
  153.6415  137.1830  161.6008 O   0  0  0  0  0  0  0  0  0  0  0  0
  154.8344  137.8814  163.9203 C   0  0  0  0  0  0  0  0  0  0  0  0
  155.7109  139.1373  164.0148 C   0  0  0  0  0  0  0  0  0  0  0  0
  155.7743  139.8146  162.6337 C   0  0  2  0  0  0  0  0  0  0  0  0
  154.5003  140.5777  162.2546 C   0  0  0  0  0  0  0  0  0  0  0  0
  154.4378  140.5143  160.8014 N   0  0  0  0  0  0  0  0  0  0  0  0
  153.3599  140.9838  160.1199 C   0  0  0  0  0  0  0  0  0  0  0  0
  153.0518  142.3049  160.2153 N   0  0  0  0  0  0  0  0  0  0  0  0
  152.0026  142.8084  159.5594 C   0  0  0  0  0  0  0  0  0  0  0  0
  151.1417  142.1810  158.7569 N   0  0  0  0  0  0  0  0  0  0  0  0
  151.4491  140.8577  158.6442 C   0  0  0  0  0  0  0  0  0  0  0  0
  152.5287  140.1813  159.2825 C   0  0  0  0  0  0  0  0  0  0  0  0
  152.5211  138.8403  158.9111 N   0  0  0  0  0  0  0  0  0  0  0  0
  151.4973  138.7308  158.1098 C   0  0  0  0  0  0  0  0  0  0  0  0
  150.7992  139.8956  157.8926 N   0  0  0  0  0  0  0  0  0  0  0  0
  149.6312  140.0676  157.0475 C   0  0  0  0  0  0  0  0  0  0  0  0
  149.9902  140.6444  155.6641 C   0  0  1  0  0  0  0  0  0  0  0  0
  151.0307  139.8960  155.0630 O   0  0  0  0  0  0  0  0  0  0  0  0
  148.7784  140.7283  154.7146 C   0  0  1  0  0  0  0  0  0  0  0  0
  147.3959  140.6571  155.3862 C   0  0  0  0  0  0  0  0  0  0  0  0
  146.7252  141.9535  154.9685 C   0  0  0  0  0  0  0  0  0  0  0  0
  147.4634  142.3145  153.6863 C   0  0  0  0  0  0  0  0  0  0  0  0
  148.8020  141.9455  153.9737 O   0  0  0  0  0  0  0  0  0  0  0  0
  155.1958  139.3717  160.3092 C   0  0  0  0  0  0  0  0  0  0  0  0
  155.8755  138.7513  161.5386 C   0  0  2  0  0  0  0  0  0  0  0  0
  156.6253  140.4942  162.5721 H   0  0  0  0  0  0  0  0  0  0  0  0
  156.9078  138.4615  161.3409 H   0  0  0  0  0  0  0  0  0  0  0  0
  153.7872  138.1252  164.1004 H   0  0  0  0  0  0  0  0  0  0  0  0
  155.1328  137.1010  164.6203 H   0  0  0  0  0  0  0  0  0  0  0  0
  155.3574  139.8196  164.7885 H   0  0  0  0  0  0  0  0  0  0  0  0
  156.7200  138.8357  164.2977 H   0  0  0  0  0  0  0  0  0  0  0  0
  153.6142  140.0989  162.6732 H   0  0  0  0  0  0  0  0  0  0  0  0
  154.5315  141.6082  162.6097 H   0  0  0  0  0  0  0  0  0  0  0  0
  151.8294  143.8656  159.6957 H   0  0  0  0  0  0  0  0  0  0  0  0
  151.2252  137.7930  157.6478 H   0  0  0  0  0  0  0  0  0  0  0  0
  149.1308  139.1037  156.9458 H   0  0  0  0  0  0  0  0  0  0  0  0
  148.9332  140.7290  157.5622 H   0  0  0  0  0  0  0  0  0  0  0  0
  150.3760  141.6553  155.8019 H   0  0  0  0  0  0  0  0  0  0  0  0
  150.6565  139.1101  154.6947 H   0  0  0  0  0  0  0  0  0  0  0  0
  148.8471  139.9152  153.9899 H   0  0  0  0  0  0  0  0  0  0  0  0
  146.8399  139.8021  154.9994 H   0  0  0  0  0  0  0  0  0  0  0  0
  147.4399  140.5540  156.4709 H   0  0  0  0  0  0  0  0  0  0  0  0
  145.6487  141.8531  154.8281 H   0  0  0  0  0  0  0  0  0  0  0  0
  146.9008  142.7210  155.7233 H   0  0  0  0  0  0  0  0  0  0  0  0
  147.0938  141.7277  152.8439 H   0  0  0  0  0  0  0  0  0  0  0  0
  147.3820  143.3721  153.4348 H   0  0  0  0  0  0  0  0  0  0  0  0
  154.5700  138.6523  159.7806 H   0  0  0  0  0  0  0  0  0  0  0  0
  155.9488  139.7347  159.6092 H   0  0  0  0  0  0  0  0  0  0  0  0
  1  2  2  0  0  0  0
  2 27  1  0  0  0  0
  2  3  2  0  0  0  0
  2  4  1  0  0  0  0
  4  5  1  0  0  0  0
  4 30  1  0  0  0  0
  4 31  1  0  0  0  0
  5  6  1  0  0  0  0
  5 32  1  0  0  0  0
  5 33  1  0  0  0  0
  6 28  1  0  0  0  0
  6 27  1  0  0  0  0
  6  7  1  0  0  0  0
  7  8  1  0  0  0  0
  7 34  1  0  0  0  0
  7 35  1  0  0  0  0
  8  9  1  0  0  0  0
  8 26  1  0  0  0  0
  9 14  1  0  0  0  0
  9 10  2  0  0  0  0
 10 11  1  0  0  0  0
 11 12  2  0  0  0  0
 11 36  1  0  0  0  0
 12 13  1  0  0  0  0
 13 17  1  0  0  0  0
 13 14  2  0  0  0  0
 14 15  1  0  0  0  0
 15 16  2  0  0  0  0
 16 17  1  0  0  0  0
 16 37  1  0  0  0  0
 17 18  1  0  0  0  0
 18 19  1  0  0  0  0
 18 38  1  0  0  0  0
 18 39  1  0  0  0  0
 19 20  1  0  0  0  0
 19 21  1  0  0  0  0
 19 40  1  0  0  0  0
 20 41  1  0  0  0  0
 21 25  1  0  0  0  0
 21 22  1  0  0  0  0
 21 42  1  0  0  0  0
 22 23  1  0  0  0  0
 22 43  1  0  0  0  0
 22 44  1  0  0  0  0
 23 24  1  0  0  0  0
 23 45  1  0  0  0  0
 23 46  1  0  0  0  0
 24 25  1  0  0  0  0
 24 47  1  0  0  0  0
 24 48  1  0  0  0  0
 26 27  1  0  0  0  0
 26 49  1  0  0  0  0
 26 50  1  0  0  0  0
 27 29  1  0  0  0  0
M  END
> <s_m_source_file>
AV-unprocessed.smi

> <i_m_source_file_index>
278

> <i_lp_mmshare_version>
43012

> <i_f3d_flags>
0

> <s_epik_input>
W0NIMl0xW0NIMl1TKD1PKSg9TylbQ0BASF0oW0NAQEhdMTIpW0NIMl1OKFtDSDJdMiljKG5bY0hdbjMpYyhjMzQpbltjSF1uNFtDSDJdW0NASF0oW09IXSlbQ0BASF01W0NIMl1bQ0gyXVtDSDJdTzU=

> <s_epik_cmdline>
J2VwaWtfcHl0aG9uJywgJy1waCcsICc3LjAnLCAnLXRuJywgJzgnLCAnLW1hJywgJzIwMCcsICctbWV0YWxfYmluZGluZycsICctaW1hZScsICc8aW5maWxlLm1hZT4nLCAnLW9tYWUnLCAnPG91dGZpbGUubWFlPic=

> <r_lp_tautomer_probability>
1

> <r_epik_Ionization_Penalty>
0.000636766

> <r_epik_Ionization_Penalty_Charging>
0

> <r_epik_Ionization_Penalty_Neutral>
0.000636766

> <r_epik_State_Penalty>
0.000329976

> <r_epik_Charging_Adjusted_Penalty>
0.000329976

> <i_epik_Tot_Q>
0

> <i_epik_Tot_abs_Q>
0

> <r_epik_Metal_State_Penalty>
-0

> <b_epik_Metal_Only>
0

> <s_lp_Force_Field>
OPLS_2005

> <r_lp_Energy>
51.0774

> <b_lp_Chiralities_Consistent>
1

> <s_lp_Variant>
AV-unprocessed.smi:278-8

> <Gold.Version>
5.8.1

> <Gold.Id.Protein>
6NUR|6NUR_protein|mol2

> <Gold.PLP.Fitness>
40.6063

> <Gold.PLP.PLP>
-40.3951

> <Gold.PLP.part.hbond>
-2.0000

> <Gold.PLP.part.metal>
0.0000

> <Gold.PLP.part.buried>
-8.2794

> <Gold.PLP.part.nonpolar>
-30.8530

> <Gold.PLP.part.repulsive>
0.2197

> <Gold.PLP.ligand.clash>
0.0000

> <Gold.PLP.ligand.torsion>
2.1700

> <Gold.PLP.Chemscore.Hbond>
1.4320

> <Gold.PLP.Chemscore.CHOScore>
0.0000

> <Gold.PLP.Chemscore.Metal>
0.0000

> <Gold.Chemscore.Hbonds>
donor molecule, donor type, donor heavy atom, donor atom, acceptor molecule, acceptor atom, score
      P1  H  7989  7998       L1    20  1.00
      P1  H  8011  8017       L1    25  0.45

> <Gold.PLP.Chemscore.Internal.Correction>
0.2552

> <Gold.Rescore>
     Score         DG    S(hbond)    S(metal)    S(lipo)     H(rot)  DE(clash)    DE(int)     intcor
      9.60     -13.11       1.23        0.00      76.69       2.13       1.07       2.45       ----

> <Gold.Chemscore.Fitness>
9.5951

> <Gold.Chemscore.DG>
-13.1100

> <Gold.Chemscore.ZeroCoef>
-5.4800

> <Gold.Chemscore.Hbond>
1.2340

> <Gold.Chemscore.Metal>
0.0000

> <Gold.Chemscore.Lipo>
76.6929

> <Gold.Chemscore.Internal_Hbond>
0.0000

> <Gold.Chemscore.DEClash>
1.0690

> <Gold.Chemscore.DEInternal>
2.4458

> <Gold.Chemscore.Rot>
2.1346

> <Gold.Chemscore.Internal.Correction>
   9.000000E+99

> <Gold.Chemscore.Hbonds>
donor molecule, donor type, donor heavy atom, donor atom, acceptor molecule, acceptor atom, score
      P1  H  7989  7998       L1    20  0.26
      P1  H  8011  8017       L1    25  0.20

> <Gold.Chemscore.Hbond.Weighted>
-4.1215

> <Gold.Chemscore.Metal.Weighted>
-0.0000

> <Gold.Chemscore.Lipo.Weighted>
-8.9731

> <Gold.Chemscore.Internal_Hbond.Weighted>
0.0000

> <Gold.Chemscore.DEClash.Weighted>
1.0690

> <Gold.Chemscore.DEInternal.Weighted>
2.4458

> <Gold.Chemscore.Rot.Weighted>
5.4646

> <Gold.Chemscore.Internal.Correction.Weighted>
   9.000000E+99

> <Gold.Protein.RotatedTorsions>
[ 6907 6896 6895 6894 ] final  -65.13 input  -60.11 | X-H torsion
[ 7974 7965 7964 7962 ] final   99.00 input  175.53 | X-H torsion
[ 8008 7997 7996 7995 ] final -110.68 input   59.86 | X-H torsion
[ 10167 10162 10161 10158 ] final  -59.46 input  -65.29 | X-H torsion
[ 10718 10713 10712 10709 ] final  -52.58 input   66.30 | X-H torsion
[ 10763 10752 10751 10750 ] final   -1.84 input  -60.55 | X-H torsion
[ 11005 11000 10999 10996 ] final  114.16 input  -57.11 | X-H torsion

> <Gold.Protein.ActiveResidues>
 VAL166  LYS551  ARG553  GLY616  TRP617  ASP618  TYR619  PRO620  LYS621  CYS622 
 ASP623  PHE694  ASN695  SER759  ASP760  ASP761  ALA762  ILE779  LEU786  VAL792 
 PHE793  MET794  SER795  GLU796  ALA797  LYS798  CYS799  TRP800  GLU811  SER814 

> <Gold.Protein.RotatedAtoms>
  150.7543  134.6203  159.6132 H   0  0  0  0  0  0  0  0  0  0  0  0  # atno 6907 bound_to 6896
  152.3511  134.7001  160.0245 H   0  0  0  0  0  0  0  0  0  0  0  0  # atno 6908 bound_to 6896
  151.7421  133.3286  159.3405 H   0  0  0  0  0  0  0  0  0  0  0  0  # atno 6909 bound_to 6896
  145.4047  139.2342  143.3281 H   0  0  0  0  0  0  0  0  0  0  0  0  # atno 7974 bound_to 7965
  154.9782  140.0396  157.2265 H   0  0  0  0  0  0  0  0  0  0  0  0  # atno 8008 bound_to 7997
  154.7738  140.2806  155.6094 H   0  0  0  0  0  0  0  0  0  0  0  0  # atno 8009 bound_to 7997
  156.2925  140.2605  156.2547 H   0  0  0  0  0  0  0  0  0  0  0  0  # atno 8010 bound_to 7997
  140.6134  143.2394  151.5656 H   0  0  0  0  0  0  0  0  0  0  0  0  # atno 10167 bound_to 10162
  156.1609  130.4149  149.9794 H   0  0  0  0  0  0  0  0  0  0  0  0  # atno 10718 bound_to 10713
  153.3501  135.6985  153.6796 H   0  0  0  0  0  0  0  0  0  0  0  0  # atno 10763 bound_to 10752
  153.5526  135.3551  155.2766 H   0  0  0  0  0  0  0  0  0  0  0  0  # atno 10764 bound_to 10752
  154.8652  135.4230  154.2734 H   0  0  0  0  0  0  0  0  0  0  0  0  # atno 10765 bound_to 10752
  139.8972  134.9563  156.6849 H   0  0  0  0  0  0  0  0  0  0  0  0  # atno 11005 bound_to 11000
  146.2734  140.4749  142.8805 LP  0  0  0  0  0  0  0  0  0  0  0  0  # atno 17320 bound_to 7965
  144.8350  140.6767  143.6266 LP  0  0  0  0  0  0  0  0  0  0  0  0  # atno 17321 bound_to 7965
  139.5379  144.2730  152.1289 LP  0  0  0  0  0  0  0  0  0  0  0  0  # atno 17342 bound_to 10162
  140.1934  144.4729  150.6467 LP  0  0  0  0  0  0  0  0  0  0  0  0  # atno 17343 bound_to 10162
  156.7623  130.9155  151.3642 LP  0  0  0  0  0  0  0  0  0  0  0  0  # atno 17370 bound_to 10713
  157.6732  130.9070  150.0088 LP  0  0  0  0  0  0  0  0  0  0  0  0  # atno 17371 bound_to 10713
  140.7270  133.9091  155.8185 LP  0  0  0  0  0  0  0  0  0  0  0  0  # atno 17394 bound_to 11000
  141.0183  134.0925  157.4148 LP  0  0  0  0  0  0  0  0  0  0  0  0  # atno 17395 bound_to 11000

$$$$
