AV-unprocessed.smi:155|AV-procd|sdf|1273|dock6
  -GOLD-   2262018533D 1   1.00000     0.00000
 Structure written by MMmdl.
 63 66  0  0  0  0  0  0  0  0  2 V2000
  151.1439  143.7951  159.7409 C   0  0  0  0  0  0  0  0  0  0  0  0
  152.3119  143.2926  159.0256 N   0  0  0  0  0  0  0  0  0  0  0  0
  152.8297  144.3672  158.1900 C   0  0  0  0  0  0  0  0  0  0  0  0
  151.9695  142.1441  158.1856 C   0  0  0  0  0  0  0  0  0  0  0  0
  150.9171  142.5078  157.1171 C   0  0  0  0  0  0  0  0  0  0  0  0
  150.6158  141.3601  156.2220 N   0  3  2  0  0  0  0  0  0  0  0  0
  151.8023  140.4973  155.9474 C   0  0  0  0  0  0  0  0  0  0  0  0
  151.5673  139.4123  154.8750 C   0  0  0  0  0  0  0  0  0  0  0  0
  150.3158  138.5467  155.1163 C   0  0  0  0  0  0  0  0  0  0  0  0
  149.0851  139.3392  155.2118 N   0  0  0  0  0  0  0  0  0  0  0  0
  148.1622  139.0141  156.1594 C   0  0  0  0  0  0  0  0  0  0  0  0
  147.0269  139.7594  156.2238 N   0  0  0  0  0  0  0  0  0  0  0  0
  146.0789  139.4848  157.1230 C   0  0  0  0  0  0  0  0  0  0  0  0
  146.0573  138.5189  158.0409 N   0  0  0  0  0  0  0  0  0  0  0  0
  147.1903  137.7631  157.9877 C   0  0  0  0  0  0  0  0  0  0  0  0
  148.2848  137.9390  157.0919 C   0  0  0  0  0  0  0  0  0  0  0  0
  149.2457  136.9648  157.3428 N   0  0  0  0  0  0  0  0  0  0  0  0
  148.7596  136.2716  158.3348 C   0  0  0  0  0  0  0  0  0  0  0  0
  147.5280  136.6838  158.7853 N   0  0  0  0  0  0  0  0  0  0  0  0
  146.7574  136.1030  159.8723 C   0  0  0  0  0  0  0  0  0  0  0  0
  147.5517  135.9404  161.1881 C   0  0  1  0  0  0  0  0  0  0  0  0
  147.6211  137.1691  161.8864 O   0  0  0  0  0  0  0  0  0  0  0  0
  147.0534  134.8145  162.1239 C   0  0  1  0  0  0  0  0  0  0  0  0
  145.6556  135.0091  162.7272 C   0  0  0  0  0  0  0  0  0  0  0  0
  145.0975  133.5949  162.8323 C   0  0  0  0  0  0  0  0  0  0  0  0
  146.2354  132.7010  162.3415 C   0  0  0  0  0  0  0  0  0  0  0  0
  146.9839  133.5472  161.4861 O   0  0  0  0  0  0  0  0  0  0  0  0
  148.9740  140.5847  154.4479 C   0  0  0  0  0  0  0  0  0  0  0  0
  149.8425  141.7430  155.0074 C   0  0  0  0  0  0  0  0  0  0  0  0
  150.7415  143.0494  160.4252 H   0  0  0  0  0  0  0  0  0  0  0  0
  150.3505  144.0901  159.0528 H   0  0  0  0  0  0  0  0  0  0  0  0
  151.4127  144.6665  160.3391 H   0  0  0  0  0  0  0  0  0  0  0  0
  153.7250  144.0433  157.6581 H   0  0  0  0  0  0  0  0  0  0  0  0
  153.1049  145.2286  158.8000 H   0  0  0  0  0  0  0  0  0  0  0  0
  152.0921  144.6906  157.4538 H   0  0  0  0  0  0  0  0  0  0  0  0
  152.8719  141.7571  157.7096 H   0  0  0  0  0  0  0  0  0  0  0  0
  151.5906  141.3314  158.8052 H   0  0  0  0  0  0  0  0  0  0  0  0
  150.0121  142.8648  157.6071 H   0  0  0  0  0  0  0  0  0  0  0  0
  151.2713  143.3463  156.5164 H   0  0  0  0  0  0  0  0  0  0  0  0
  152.6405  141.1207  155.6336 H   0  0  0  0  0  0  0  0  0  0  0  0
  152.1056  140.0088  156.8729 H   0  0  0  0  0  0  0  0  0  0  0  0
  151.5229  139.8673  153.8852 H   0  0  0  0  0  0  0  0  0  0  0  0
  152.4404  138.7601  154.8422 H   0  0  0  0  0  0  0  0  0  0  0  0
  150.2030  137.8224  154.3093 H   0  0  0  0  0  0  0  0  0  0  0  0
  150.4767  137.9744  156.0308 H   0  0  0  0  0  0  0  0  0  0  0  0
  145.2130  140.1301  157.1027 H   0  0  0  0  0  0  0  0  0  0  0  0
  149.2890  135.4355  158.7677 H   0  0  0  0  0  0  0  0  0  0  0  0
  145.8835  136.7311  160.0488 H   0  0  0  0  0  0  0  0  0  0  0  0
  146.3736  135.1373  159.5407 H   0  0  0  0  0  0  0  0  0  0  0  0
  148.5789  135.6990  160.9123 H   0  0  0  0  0  0  0  0  0  0  0  0
  146.9835  137.1543  162.5834 H   0  0  0  0  0  0  0  0  0  0  0  0
  147.7662  134.7149  162.9450 H   0  0  0  0  0  0  0  0  0  0  0  0
  145.7087  135.5058  163.6966 H   0  0  0  0  0  0  0  0  0  0  0  0
  145.0112  135.6099  162.0849 H   0  0  0  0  0  0  0  0  0  0  0  0
  144.7852  133.3390  163.8451 H   0  0  0  0  0  0  0  0  0  0  0  0
  144.2309  133.4912  162.1785 H   0  0  0  0  0  0  0  0  0  0  0  0
  146.8648  132.3803  163.1731 H   0  0  0  0  0  0  0  0  0  0  0  0
  145.8799  131.8134  161.8181 H   0  0  0  0  0  0  0  0  0  0  0  0
  149.2786  140.3745  153.4221 H   0  0  0  0  0  0  0  0  0  0  0  0
  147.9312  140.8915  154.3656 H   0  0  0  0  0  0  0  0  0  0  0  0
  149.1668  142.5661  155.2410 H   0  0  0  0  0  0  0  0  0  0  0  0
  150.5192  142.1272  154.2431 H   0  0  0  0  0  0  0  0  0  0  0  0
  149.9717  140.7875  156.7498 H   0  0  0  0  0  0  0  0  0  0  0  0
  1  2  1  0  0  0  0
  1 30  1  0  0  0  0
  1 31  1  0  0  0  0
  1 32  1  0  0  0  0
  2  3  1  0  0  0  0
  2  4  1  0  0  0  0
  3 33  1  0  0  0  0
  3 34  1  0  0  0  0
  3 35  1  0  0  0  0
  4  5  1  0  0  0  0
  4 36  1  0  0  0  0
  4 37  1  0  0  0  0
  5  6  1  0  0  0  0
  5 38  1  0  0  0  0
  5 39  1  0  0  0  0
  6 29  1  0  0  0  0
  6  7  1  0  0  0  0
  6 63  1  0  0  0  0
  7  8  1  0  0  0  0
  7 40  1  0  0  0  0
  7 41  1  0  0  0  0
  8  9  1  0  0  0  0
  8 42  1  0  0  0  0
  8 43  1  0  0  0  0
  9 10  1  0  0  0  0
  9 44  1  0  0  0  0
  9 45  1  0  0  0  0
 10 11  1  0  0  0  0
 10 28  1  0  0  0  0
 11 16  1  0  0  0  0
 11 12  2  0  0  0  0
 12 13  1  0  0  0  0
 13 14  2  0  0  0  0
 13 46  1  0  0  0  0
 14 15  1  0  0  0  0
 15 19  1  0  0  0  0
 15 16  2  0  0  0  0
 16 17  1  0  0  0  0
 17 18  2  0  0  0  0
 18 19  1  0  0  0  0
 18 47  1  0  0  0  0
 19 20  1  0  0  0  0
 20 21  1  0  0  0  0
 20 48  1  0  0  0  0
 20 49  1  0  0  0  0
 21 22  1  0  0  0  0
 21 23  1  0  0  0  0
 21 50  1  0  0  0  0
 22 51  1  0  0  0  0
 23 27  1  0  0  0  0
 23 24  1  0  0  0  0
 23 52  1  0  0  0  0
 24 25  1  0  0  0  0
 24 53  1  0  0  0  0
 24 54  1  0  0  0  0
 25 26  1  0  0  0  0
 25 55  1  0  0  0  0
 25 56  1  0  0  0  0
 26 27  1  0  0  0  0
 26 57  1  0  0  0  0
 26 58  1  0  0  0  0
 28 29  1  0  0  0  0
 28 59  1  0  0  0  0
 28 60  1  0  0  0  0
 29 61  1  0  0  0  0
 29 62  1  0  0  0  0
M  CHG  1   6   1
M  END
> <s_m_source_file>
AV-unprocessed.smi

> <i_m_source_file_index>
155

> <i_lp_mmshare_version>
43012

> <i_f3d_flags>
0

> <s_epik_input>
W0NIM11OKFtDSDNdKVtDSDJdW0NIMl1OMVtDSDJdW0NIMl1bQ0gyXU4oW0NIMl1bQ0gyXTEpYyhuW2NIXW4yKWMoYzIzKW5bY0hdbjNbQ0gyXVtDQEhdKFtPSF0pW0NAQEhdNFtDSDJdW0NIMl1bQ0gyXU80

> <s_epik_cmdline>
J2VwaWtfcHl0aG9uJywgJy1waCcsICc3LjAnLCAnLXRuJywgJzgnLCAnLW1hJywgJzIwMCcsICctbWV0YWxfYmluZGluZycsICctaW1hZScsICc8aW5maWxlLm1hZT4nLCAnLW9tYWUnLCAnPG91dGZpbGUubWFlPic=

> <r_epik_Ionization_Penalty>
0.0619615

> <r_epik_Ionization_Penalty_Charging>
0.0161638

> <r_epik_Ionization_Penalty_Neutral>
0.0457976

> <r_epik_State_Penalty>
0.403408

> <r_epik_Charging_Adjusted_Penalty>
0.419572

> <i_epik_Tot_Q>
1

> <i_epik_Tot_abs_Q>
1

> <r_epik_Metal_State_Penalty>
0.404222

> <b_epik_Metal_Only>
0

> <s_lp_Force_Field>
OPLS_2005

> <r_lp_Energy>
55.0815

> <b_lp_Chiralities_Consistent>
1

> <s_lp_Variant>
AV-unprocessed.smi:155-7

> <Gold.Version>
5.8.1

> <Gold.Id.Protein>
6NUR|6NUR_protein|mol2

> <Gold.PLP.Fitness>
46.5355

> <Gold.PLP.PLP>
-42.5578

> <Gold.PLP.part.hbond>
-2.0000

> <Gold.PLP.part.metal>
0.0000

> <Gold.PLP.part.buried>
-3.5629

> <Gold.PLP.part.nonpolar>
-35.9121

> <Gold.PLP.part.repulsive>
0.0961

> <Gold.PLP.ligand.clash>
0.0000

> <Gold.PLP.ligand.torsion>
0.5401

> <Gold.PLP.Chemscore.Hbond>
1.6257

> <Gold.PLP.Chemscore.CHOScore>
0.0000

> <Gold.PLP.Chemscore.Metal>
0.0000

> <Gold.Chemscore.Hbonds>
donor molecule, donor type, donor heavy atom, donor atom, acceptor molecule, acceptor atom, score
      P1  H  6931  6943       L1    22  0.99
      P1  H  6934  6947       L1    22  0.54

> <Gold.PLP.Chemscore.Internal.Correction>
0.1807

> <Gold.Rescore>
     Score         DG    S(hbond)    S(metal)    S(lipo)     H(rot)  DE(clash)    DE(int)     intcor
     15.13     -17.68       1.46        0.00     120.28       2.63       0.79       1.76       ----

> <Gold.Chemscore.Fitness>
15.1284

> <Gold.Chemscore.DG>
-17.6783

> <Gold.Chemscore.ZeroCoef>
-5.4800

> <Gold.Chemscore.Hbond>
1.4566

> <Gold.Chemscore.Metal>
0.0000

> <Gold.Chemscore.Lipo>
120.2751

> <Gold.Chemscore.Internal_Hbond>
0.0000

> <Gold.Chemscore.DEClash>
0.7859

> <Gold.Chemscore.DEInternal>
1.7641

> <Gold.Chemscore.Rot>
2.6324

> <Gold.Chemscore.Internal.Correction>
   9.000000E+99

> <Gold.Chemscore.Hbonds>
donor molecule, donor type, donor heavy atom, donor atom, acceptor molecule, acceptor atom, score
      P1  H  6931  6943       L1    22  0.93
      P1  H  6934  6947       L1    22  0.16

> <Gold.Chemscore.Hbond.Weighted>
-4.8650

> <Gold.Chemscore.Metal.Weighted>
-0.0000

> <Gold.Chemscore.Lipo.Weighted>
-14.0722

> <Gold.Chemscore.Internal_Hbond.Weighted>
0.0000

> <Gold.Chemscore.DEClash.Weighted>
0.7859

> <Gold.Chemscore.DEInternal.Weighted>
1.7641

> <Gold.Chemscore.Rot.Weighted>
6.7389

> <Gold.Chemscore.Internal.Correction.Weighted>
   9.000000E+99

> <Gold.Protein.RotatedTorsions>
[ 6907 6896 6895 6894 ] final  -87.18 input  -60.11 | X-H torsion
[ 7974 7965 7964 7962 ] final  113.06 input  175.53 | X-H torsion
[ 8008 7997 7996 7995 ] final  -13.41 input   59.86 | X-H torsion
[ 10167 10162 10161 10158 ] final  -24.31 input  -65.29 | X-H torsion
[ 10718 10713 10712 10709 ] final -134.28 input   66.30 | X-H torsion
[ 10763 10752 10751 10750 ] final -171.62 input  -60.55 | X-H torsion
[ 11005 11000 10999 10996 ] final   40.46 input  -57.11 | X-H torsion

> <Gold.Protein.ActiveResidues>
 VAL166  LYS551  ARG553  GLY616  TRP617  ASP618  TYR619  PRO620  LYS621  CYS622 
 ASP623  PHE694  ASN695  SER759  ASP760  ASP761  ALA762  ILE779  LEU786  VAL792 
 PHE793  MET794  SER795  GLU796  ALA797  LYS798  CYS799  TRP800  GLU811  SER814 

> <Gold.Protein.RotatedAtoms>
  150.6866  134.2937  159.4676 H   0  0  0  0  0  0  0  0  0  0  0  0  # atno 6907 bound_to 6896
  152.0839  134.9450  160.0582 H   0  0  0  0  0  0  0  0  0  0  0  0  # atno 6908 bound_to 6896
  152.0792  133.4109  159.4530 H   0  0  0  0  0  0  0  0  0  0  0  0  # atno 6909 bound_to 6896
  145.2217  139.2859  143.4215 H   0  0  0  0  0  0  0  0  0  0  0  0  # atno 7974 bound_to 7965
  154.5295  140.2250  155.8830 H   0  0  0  0  0  0  0  0  0  0  0  0  # atno 8008 bound_to 7997
  156.1749  140.3113  155.9004 H   0  0  0  0  0  0  0  0  0  0  0  0  # atno 8009 bound_to 7997
  155.3481  140.0454  157.3036 H   0  0  0  0  0  0  0  0  0  0  0  0  # atno 8010 bound_to 7997
  140.7288  143.4365  151.0722 H   0  0  0  0  0  0  0  0  0  0  0  0  # atno 10167 bound_to 10162
  156.2537  130.7169  151.1077 H   0  0  0  0  0  0  0  0  0  0  0  0  # atno 10718 bound_to 10713
  154.6284  135.2883  155.0245 H   0  0  0  0  0  0  0  0  0  0  0  0  # atno 10763 bound_to 10752
  154.1414  135.6518  153.4947 H   0  0  0  0  0  0  0  0  0  0  0  0  # atno 10764 bound_to 10752
  153.0268  135.5334  154.7102 H   0  0  0  0  0  0  0  0  0  0  0  0  # atno 10765 bound_to 10752
  140.1928  134.3966  155.8137 H   0  0  0  0  0  0  0  0  0  0  0  0  # atno 11005 bound_to 11000
  146.3374  140.2525  142.8599 LP  0  0  0  0  0  0  0  0  0  0  0  0  # atno 17320 bound_to 7965
  144.9759  140.8413  143.5427 LP  0  0  0  0  0  0  0  0  0  0  0  0  # atno 17321 bound_to 7965
  139.8027  143.8061  152.3164 LP  0  0  0  0  0  0  0  0  0  0  0  0  # atno 17342 bound_to 10162
  139.8083  144.7346  150.9731 LP  0  0  0  0  0  0  0  0  0  0  0  0  # atno 17343 bound_to 10162
  157.7224  131.0672  150.6077 LP  0  0  0  0  0  0  0  0  0  0  0  0  # atno 17370 bound_to 10713
  156.6159  130.4393  149.5841 LP  0  0  0  0  0  0  0  0  0  0  0  0  # atno 17371 bound_to 10713
  141.2226  133.7055  156.8125 LP  0  0  0  0  0  0  0  0  0  0  0  0  # atno 17394 bound_to 11000
  140.2140  134.8806  157.3306 LP  0  0  0  0  0  0  0  0  0  0  0  0  # atno 17395 bound_to 11000

$$$$
