AV-unprocessed.smi:264|AV-procd|sdf|2012|dock4
  -GOLD-   2262021213D 1   1.00000     0.00000
 Structure written by MMmdl.
 52 56  0  0  0  0  0  0  0  0  1 V2000
  152.9498  138.1358  154.8865 C   0  0  0  0  0  0  0  0  0  0  0  0
  151.7143  138.5209  155.7163 C   0  0  1  0  0  0  0  0  0  0  0  0
  152.0302  139.5643  156.6378 O   0  0  0  0  0  0  0  0  0  0  0  0
  151.1511  140.6653  156.4527 C   0  0  0  0  0  0  0  0  0  0  0  0
  149.8961  140.0514  155.8468 C   0  0  0  0  0  0  0  0  0  0  0  0
  150.4651  138.9792  154.9286 C   0  0  1  0  0  0  0  0  0  0  0  0
  150.8366  139.5913  153.7030 O   0  0  0  0  0  0  0  0  0  0  0  0
  149.4819  137.8248  154.6213 C   0  0  0  0  0  0  0  0  0  0  0  0
  148.9190  137.2129  155.8153 N   0  0  0  0  0  0  0  0  0  0  0  0
  147.8765  137.6953  156.5741 C   0  0  0  0  0  0  0  0  0  0  0  0
  147.5587  136.9675  157.6095 N   0  0  0  0  0  0  0  0  0  0  0  0
  148.4384  135.8926  157.5531 C   0  0  0  0  0  0  0  0  0  0  0  0
  148.6545  134.7355  158.3547 C   0  0  0  0  0  0  0  0  0  0  0  0
  147.9613  134.4203  159.4690 N   0  0  0  0  0  0  0  0  0  0  0  0
  148.1934  133.0590  159.9246 C   0  0  0  0  0  0  0  0  0  0  0  0
  147.1895  132.7090  161.0325 C   0  0  0  0  0  0  0  0  0  0  0  0
  147.2615  133.6711  162.0852 O   0  0  0  0  0  0  0  0  0  0  0  0
  147.0271  135.0228  161.6745 C   0  0  2  0  0  0  0  0  0  0  0  0
  147.2176  135.9173  162.8962 C   0  0  0  0  0  0  0  0  0  0  0  0
  146.1599  136.9946  162.7111 C   0  0  0  0  0  0  0  0  0  0  0  0
  145.0590  136.2528  162.2212 O   0  0  0  0  0  0  0  0  0  0  0  0
  145.5514  135.2918  161.2948 C   0  0  0  0  0  0  0  0  0  0  0  0
  148.0222  135.3954  160.5500 C   0  0  0  0  0  0  0  0  0  0  0  0
  149.6502  133.8892  157.9952 N   0  0  0  0  0  0  0  0  0  0  0  0
  150.3841  134.1443  156.9079 C   0  0  0  0  0  0  0  0  0  0  0  0
  150.2941  135.1729  156.0621 N   0  0  0  0  0  0  0  0  0  0  0  0
  149.3013  136.0329  156.4296 C   0  0  0  0  0  0  0  0  0  0  0  0
  152.7127  137.3471  154.1721 H   0  0  0  0  0  0  0  0  0  0  0  0
  153.7477  137.7693  155.5326 H   0  0  0  0  0  0  0  0  0  0  0  0
  153.3448  138.9880  154.3325 H   0  0  0  0  0  0  0  0  0  0  0  0
  151.4426  137.6641  156.3344 H   0  0  0  0  0  0  0  0  0  0  0  0
  150.9557  141.1846  157.3910 H   0  0  0  0  0  0  0  0  0  0  0  0
  151.6070  141.3734  155.7592 H   0  0  0  0  0  0  0  0  0  0  0  0
  149.3071  139.5925  156.6417 H   0  0  0  0  0  0  0  0  0  0  0  0
  149.2629  140.7795  155.3378 H   0  0  0  0  0  0  0  0  0  0  0  0
  150.0938  139.5668  153.1195 H   0  0  0  0  0  0  0  0  0  0  0  0
  148.6607  138.1850  153.9999 H   0  0  0  0  0  0  0  0  0  0  0  0
  149.9808  137.0456  154.0438 H   0  0  0  0  0  0  0  0  0  0  0  0
  147.3614  138.6153  156.3378 H   0  0  0  0  0  0  0  0  0  0  0  0
  148.0917  132.3598  159.0934 H   0  0  0  0  0  0  0  0  0  0  0  0
  149.2135  132.9690  160.3008 H   0  0  0  0  0  0  0  0  0  0  0  0
  146.1788  132.6546  160.6278 H   0  0  0  0  0  0  0  0  0  0  0  0
  147.4138  131.7240  161.4417 H   0  0  0  0  0  0  0  0  0  0  0  0
  146.9967  135.3599  163.8079 H   0  0  0  0  0  0  0  0  0  0  0  0
  148.2257  136.3217  162.9937 H   0  0  0  0  0  0  0  0  0  0  0  0
  145.9167  137.5129  163.6389 H   0  0  0  0  0  0  0  0  0  0  0  0
  146.4719  137.7321  161.9701 H   0  0  0  0  0  0  0  0  0  0  0  0
  145.4680  135.6957  160.2850 H   0  0  0  0  0  0  0  0  0  0  0  0
  144.9267  134.4007  161.3464 H   0  0  0  0  0  0  0  0  0  0  0  0
  149.0319  135.4151  160.9595 H   0  0  0  0  0  0  0  0  0  0  0  0
  147.8133  136.3948  160.1654 H   0  0  0  0  0  0  0  0  0  0  0  0
  151.1555  133.4218  156.6848 H   0  0  0  0  0  0  0  0  0  0  0  0
  1  2  1  0  0  0  0
  1 28  1  0  0  0  0
  1 29  1  0  0  0  0
  1 30  1  0  0  0  0
  2  6  1  0  0  0  0
  2  3  1  0  0  0  0
  2 31  1  0  0  0  0
  3  4  1  0  0  0  0
  4  5  1  0  0  0  0
  4 32  1  0  0  0  0
  4 33  1  0  0  0  0
  5  6  1  0  0  0  0
  5 34  1  0  0  0  0
  5 35  1  0  0  0  0
  6  7  1  0  0  0  0
  6  8  1  0  0  0  0
  7 36  1  0  0  0  0
  8  9  1  0  0  0  0
  8 37  1  0  0  0  0
  8 38  1  0  0  0  0
  9 27  1  0  0  0  0
  9 10  1  0  0  0  0
 10 11  2  0  0  0  0
 10 39  1  0  0  0  0
 11 12  1  0  0  0  0
 12 27  2  0  0  0  0
 12 13  1  0  0  0  0
 13 14  1  0  0  0  0
 13 24  2  0  0  0  0
 14 23  1  0  0  0  0
 14 15  1  0  0  0  0
 15 16  1  0  0  0  0
 15 40  1  0  0  0  0
 15 41  1  0  0  0  0
 16 17  1  0  0  0  0
 16 42  1  0  0  0  0
 16 43  1  0  0  0  0
 17 18  1  0  0  0  0
 18 22  1  0  0  0  0
 18 19  1  0  0  0  0
 18 23  1  0  0  0  0
 19 20  1  0  0  0  0
 19 44  1  0  0  0  0
 19 45  1  0  0  0  0
 20 21  1  0  0  0  0
 20 46  1  0  0  0  0
 20 47  1  0  0  0  0
 21 22  1  0  0  0  0
 22 48  1  0  0  0  0
 22 49  1  0  0  0  0
 23 50  1  0  0  0  0
 23 51  1  0  0  0  0
 24 25  1  0  0  0  0
 25 26  2  0  0  0  0
 25 52  1  0  0  0  0
 26 27  1  0  0  0  0
M  END
> <s_m_source_file>
AV-unprocessed.smi

> <i_m_source_file_index>
264

> <i_lp_mmshare_version>
43012

> <i_f3d_flags>
0

> <s_epik_input>
W0NIMl0xW0NIMl1PW0NAQEhdKFtDSDNdKVtDQEBdMShbT0hdKVtDSDJdbihbY0hdbjIpYyhjMjMpbltjSF1uYzNOKFtDSDJdNClbQ0gyXVtDSDJdT1tDQF00NVtDSDJdW0NIMl1PW0NIMl01

> <s_epik_cmdline>
J2VwaWtfcHl0aG9uJywgJy1waCcsICc3LjAnLCAnLXRuJywgJzgnLCAnLW1hJywgJzIwMCcsICctbWV0YWxfYmluZGluZycsICctaW1hZScsICc8aW5maWxlLm1hZT4nLCAnLW9tYWUnLCAnPG91dGZpbGUubWFlPic=

> <r_lp_tautomer_probability>
1

> <r_epik_Ionization_Penalty>
0.00539389

> <r_epik_Ionization_Penalty_Charging>
0

> <r_epik_Ionization_Penalty_Neutral>
0.00539389

> <r_epik_State_Penalty>
0.00375441

> <r_epik_Charging_Adjusted_Penalty>
0.00375441

> <i_epik_Tot_Q>
0

> <i_epik_Tot_abs_Q>
0

> <r_epik_Metal_State_Penalty>
-0

> <b_epik_Metal_Only>
0

> <s_lp_Force_Field>
OPLS_2005

> <r_lp_Energy>
56.7772

> <b_lp_Chiralities_Consistent>
1

> <s_lp_Variant>
AV-unprocessed.smi:264-6

> <Gold.Version>
5.8.1

> <Gold.Id.Protein>
6NUR|6NUR_protein|mol2

> <Gold.PLP.Fitness>
38.3724

> <Gold.PLP.PLP>
-32.0400

> <Gold.PLP.part.hbond>
-2.6278

> <Gold.PLP.part.metal>
0.0000

> <Gold.PLP.part.buried>
-5.1148

> <Gold.PLP.part.nonpolar>
-25.8812

> <Gold.PLP.part.repulsive>
0.0627

> <Gold.PLP.ligand.clash>
0.0000

> <Gold.PLP.ligand.torsion>
0.4576

> <Gold.PLP.Chemscore.Hbond>
2.3600

> <Gold.PLP.Chemscore.CHOScore>
0.0000

> <Gold.PLP.Chemscore.Metal>
0.0000

> <Gold.Chemscore.Hbonds>
donor molecule, donor type, donor heavy atom, donor atom, acceptor molecule, acceptor atom, score
      L1  H     7    36       P1  7957  0.71
      P1  H  6896  6909       L1    24  1.00
      P1  H  7989  7998       L1     7  0.93
      P1  H  7997  8009       L1     3  0.06

> <Gold.PLP.Chemscore.Internal.Correction>
0.1677

> <Gold.Rescore>
     Score         DG    S(hbond)    S(metal)    S(lipo)     H(rot)  DE(clash)    DE(int)     intcor
     15.42     -16.60       2.15        0.00      79.68       2.11       0.56       0.61       ----

> <Gold.Chemscore.Fitness>
15.4248

> <Gold.Chemscore.DG>
-16.5958

> <Gold.Chemscore.ZeroCoef>
-5.4800

> <Gold.Chemscore.Hbond>
2.1513

> <Gold.Chemscore.Metal>
0.0000

> <Gold.Chemscore.Lipo>
79.6799

> <Gold.Chemscore.Internal_Hbond>
0.0000

> <Gold.Chemscore.DEClash>
0.5616

> <Gold.Chemscore.DEInternal>
0.6094

> <Gold.Chemscore.Rot>
2.1063

> <Gold.Chemscore.Internal.Correction>
   9.000000E+99

> <Gold.Chemscore.Hbonds>
donor molecule, donor type, donor heavy atom, donor atom, acceptor molecule, acceptor atom, score
      L1  H     7    36       P1  7957  0.67
      P1  H  6896  6909       L1    24  0.33
      P1  H  7989  7998       L1     7  0.62
      P1  H  7997  8009       L1     3  0.08

> <Gold.Chemscore.Hbond.Weighted>
-7.1854

> <Gold.Chemscore.Metal.Weighted>
-0.0000

> <Gold.Chemscore.Lipo.Weighted>
-9.3226

> <Gold.Chemscore.Internal_Hbond.Weighted>
0.0000

> <Gold.Chemscore.DEClash.Weighted>
0.5616

> <Gold.Chemscore.DEInternal.Weighted>
0.6094

> <Gold.Chemscore.Rot.Weighted>
5.3921

> <Gold.Chemscore.Internal.Correction.Weighted>
   9.000000E+99

> <Gold.Protein.RotatedTorsions>
[ 6907 6896 6895 6894 ] final   -1.98 input  -60.11 | X-H torsion
[ 7974 7965 7964 7962 ] final -109.10 input  175.53 | X-H torsion
[ 8008 7997 7996 7995 ] final  177.96 input   59.86 | X-H torsion
[ 10167 10162 10161 10158 ] final   57.47 input  -65.29 | X-H torsion
[ 10718 10713 10712 10709 ] final   74.19 input   66.30 | X-H torsion
[ 10763 10752 10751 10750 ] final  -95.40 input  -60.55 | X-H torsion
[ 11005 11000 10999 10996 ] final -117.70 input  -57.11 | X-H torsion

> <Gold.Protein.ActiveResidues>
 VAL166  LYS551  ARG553  GLY616  TRP617  ASP618  TYR619  PRO620  LYS621  CYS622 
 ASP623  PHE694  ASN695  SER759  ASP760  ASP761  ALA762  ILE779  LEU786  VAL792 
 PHE793  MET794  SER795  GLU796  ALA797  LYS798  CYS799  TRP800  GLU811  SER814 

> <Gold.Protein.RotatedAtoms>
  151.5373  135.1068  159.9917 H   0  0  0  0  0  0  0  0  0  0  0  0  # atno 6907 bound_to 6896
  152.4551  133.7703  159.6806 H   0  0  0  0  0  0  0  0  0  0  0  0  # atno 6908 bound_to 6896
  150.8492  133.7747  159.3056 H   0  0  0  0  0  0  0  0  0  0  0  0  # atno 6909 bound_to 6896
  145.1846  140.8987  143.3460 H   0  0  0  0  0  0  0  0  0  0  0  0  # atno 7974 bound_to 7965
  156.0599  140.1345  156.9953 H   0  0  0  0  0  0  0  0  0  0  0  0  # atno 8008 bound_to 7997
  154.4476  140.0993  156.6572 H   0  0  0  0  0  0  0  0  0  0  0  0  # atno 8009 bound_to 7997
  155.5394  140.3460  155.4445 H   0  0  0  0  0  0  0  0  0  0  0  0  # atno 8010 bound_to 7997
  140.1976  144.4021  150.6543 H   0  0  0  0  0  0  0  0  0  0  0  0  # atno 10167 bound_to 10162
  157.6581  130.9665  150.1176 H   0  0  0  0  0  0  0  0  0  0  0  0  # atno 10718 bound_to 10713
  154.7145  135.5122  153.8716 H   0  0  0  0  0  0  0  0  0  0  0  0  # atno 10763 bound_to 10752
  153.0808  135.6631  154.0058 H   0  0  0  0  0  0  0  0  0  0  0  0  # atno 10764 bound_to 10752
  153.9893  135.3021  155.3393 H   0  0  0  0  0  0  0  0  0  0  0  0  # atno 10765 bound_to 10752
  141.0337  133.9943  157.3104 H   0  0  0  0  0  0  0  0  0  0  0  0  # atno 11005 bound_to 11000
  145.0102  139.3517  143.6124 LP  0  0  0  0  0  0  0  0  0  0  0  0  # atno 17320 bound_to 7965
  146.3447  139.9361  142.8747 LP  0  0  0  0  0  0  0  0  0  0  0  0  # atno 17321 bound_to 7965
  140.6412  143.2204  151.6285 LP  0  0  0  0  0  0  0  0  0  0  0  0  # atno 17342 bound_to 10162
  139.5230  144.3146  152.0963 LP  0  0  0  0  0  0  0  0  0  0  0  0  # atno 17343 bound_to 10162
  156.2056  130.3663  149.8734 LP  0  0  0  0  0  0  0  0  0  0  0  0  # atno 17370 bound_to 10713
  156.6626  130.8788  151.3550 LP  0  0  0  0  0  0  0  0  0  0  0  0  # atno 17371 bound_to 10713
  139.9225  135.0201  156.8117 LP  0  0  0  0  0  0  0  0  0  0  0  0  # atno 17394 bound_to 11000
  140.6361  133.9861  155.7685 LP  0  0  0  0  0  0  0  0  0  0  0  0  # atno 17395 bound_to 11000

$$$$
