AV-unprocessed.smi:2427|AV-procd|sdf|9578|dock1
  -GOLD-   2272013213D 1   1.00000     0.00000
 Structure written by MMmdl.
 35 36  0  0  0  0  0  0  0  0  3 V2000
  148.1968  133.5938  155.7511 O   0  0  0  0  0  0  0  0  0  0  0  0
  148.6653  134.1409  154.7518 C   0  0  0  0  0  0  0  0  0  0  0  0
  150.1324  134.5911  154.7226 C   0  0  0  0  0  0  0  0  0  0  0  0
  150.3960  135.7422  155.6022 N   0  0  0  0  0  0  0  0  0  0  0  0
  150.8090  136.9400  154.9859 C   0  0  0  0  0  0  0  0  0  0  0  0
  151.0836  138.0524  155.6950 C   0  0  0  0  0  0  0  0  0  0  0  0
  151.5136  139.2717  155.0463 N   0  3  0  0  0  0  0  0  0  0  0  0
  150.6767  139.9568  154.4679 O   0  0  0  0  0  0  0  0  0  0  0  0
  152.6996  139.5848  155.0921 O   0  5  0  0  0  0  0  0  0  0  0  0
  150.9380  137.9859  157.1364 C   0  0  0  0  0  0  0  0  0  0  0  0
  150.5480  136.8419  157.7322 C   0  0  0  0  0  0  0  0  0  0  0  0
  150.2562  135.6307  156.9589 C   0  0  0  0  0  0  0  0  0  0  0  0
  149.9076  134.5798  157.4976 O   0  0  0  0  0  0  0  0  0  0  0  0
  147.9563  134.3705  153.6363 N   0  0  0  0  0  0  0  0  0  0  0  0
  146.5438  134.0546  153.4507 C   0  0  0  0  0  0  0  0  0  0  0  0
  146.1190  134.1880  151.9779 C   0  0  2  0  0  0  0  0  0  0  0  0
  144.6165  134.0696  151.7192 C   0  0  0  0  0  0  0  0  0  0  0  0
  144.5931  133.6545  150.2663 C   0  0  0  0  0  0  0  0  0  0  0  0
  145.7962  132.7180  150.1865 C   0  0  0  0  0  0  0  0  0  0  0  0
  146.7024  133.1461  151.2013 O   0  0  0  0  0  0  0  0  0  0  0  0
  150.7542  133.7398  155.0032 H   0  0  0  0  0  0  0  0  0  0  0  0
  150.4230  134.8307  153.6977 H   0  0  0  0  0  0  0  0  0  0  0  0
  150.8942  136.8847  153.9101 H   0  0  0  0  0  0  0  0  0  0  0  0
  151.1414  138.8525  157.7483 H   0  0  0  0  0  0  0  0  0  0  0  0
  150.4468  136.8146  158.8074 H   0  0  0  0  0  0  0  0  0  0  0  0
  148.4254  134.8176  152.8620 H   0  0  0  0  0  0  0  0  0  0  0  0
  146.3902  133.0267  153.7794 H   0  0  0  0  0  0  0  0  0  0  0  0
  145.9140  134.6755  154.0899 H   0  0  0  0  0  0  0  0  0  0  0  0
  146.4783  135.1354  151.5721 H   0  0  0  0  0  0  0  0  0  0  0  0
  144.1793  133.2843  152.3374 H   0  0  0  0  0  0  0  0  0  0  0  0
  144.0755  134.9972  151.9087 H   0  0  0  0  0  0  0  0  0  0  0  0
  143.6593  133.1759  149.9700 H   0  0  0  0  0  0  0  0  0  0  0  0
  144.7503  134.5245  149.6273 H   0  0  0  0  0  0  0  0  0  0  0  0
  145.4969  131.6916  150.4023 H   0  0  0  0  0  0  0  0  0  0  0  0
  146.2659  132.7333  149.2027 H   0  0  0  0  0  0  0  0  0  0  0  0
  1  2  2  0  0  0  0
  2  3  1  0  0  0  0
  2 14  1  0  0  0  0
  3  4  1  0  0  0  0
  3 21  1  0  0  0  0
  3 22  1  0  0  0  0
  4 12  1  0  0  0  0
  4  5  1  0  0  0  0
  5  6  2  0  0  0  0
  5 23  1  0  0  0  0
  6  7  1  0  0  0  0
  6 10  1  0  0  0  0
  7  8  2  0  0  0  0
  7  9  1  0  0  0  0
 10 11  2  0  0  0  0
 10 24  1  0  0  0  0
 11 12  1  0  0  0  0
 11 25  1  0  0  0  0
 12 13  2  0  0  0  0
 14 15  1  0  0  0  0
 14 26  1  0  0  0  0
 15 16  1  0  0  0  0
 15 27  1  0  0  0  0
 15 28  1  0  0  0  0
 16 20  1  0  0  0  0
 16 17  1  0  0  0  0
 16 29  1  0  0  0  0
 17 18  1  0  0  0  0
 17 30  1  0  0  0  0
 17 31  1  0  0  0  0
 18 19  1  0  0  0  0
 18 32  1  0  0  0  0
 18 33  1  0  0  0  0
 19 20  1  0  0  0  0
 19 34  1  0  0  0  0
 19 35  1  0  0  0  0
M  CHG  1   7   1
M  CHG  1   9  -1
M  END
> <s_m_source_file>
AV-unprocessed.smi

> <i_m_source_file_index>
2427

> <i_lp_mmshare_version>
43012

> <i_f3d_flags>
0

> <s_epik_input>
TzFbQ0gyXVtDSDJdW0NIMl1bQ0BIXTFbQ0gyXVtOSF1DKD1PKVtDSDJdbjJbY0hdYyhbTitdKD1PKVtPLV0pW2NIXVtjSF1jMj1P

> <s_epik_cmdline>
J2VwaWtfcHl0aG9uJywgJy1waCcsICc3LjAnLCAnLXRuJywgJzgnLCAnLW1hJywgJzIwMCcsICctbWV0YWxfYmluZGluZycsICctaW1hZScsICc8aW5maWxlLm1hZT4nLCAnLW9tYWUnLCAnPG91dGZpbGUubWFlPic=

> <r_lp_tautomer_probability>
1

> <r_epik_Ionization_Penalty>
2.69366e-08

> <r_epik_Ionization_Penalty_Charging>
7.76344e-11

> <r_epik_Ionization_Penalty_Neutral>
2.6859e-08

> <r_epik_State_Penalty>
-0

> <r_epik_Charging_Adjusted_Penalty>
7.76344e-11

> <i_epik_Tot_Q>
0

> <i_epik_Tot_abs_Q>
2

> <r_epik_Metal_State_Penalty>
-0

> <b_epik_Metal_Only>
0

> <s_lp_Force_Field>
OPLS_2005

> <r_lp_Energy>
28.4558

> <b_lp_Chiralities_Consistent>
1

> <s_lp_Variant>
AV-unprocessed.smi:2427-1

> <Gold.Version>
5.8.1

> <Gold.Id.Protein>
6NUR|6NUR_protein|mol2

> <Gold.PLP.Fitness>
41.3834

> <Gold.PLP.PLP>
-29.7096

> <Gold.PLP.part.hbond>
-5.0000

> <Gold.PLP.part.metal>
0.0000

> <Gold.PLP.part.buried>
-6.1506

> <Gold.PLP.part.nonpolar>
-19.5266

> <Gold.PLP.part.repulsive>
0.3382

> <Gold.PLP.ligand.clash>
0.0000

> <Gold.PLP.ligand.torsion>
1.6291

> <Gold.PLP.Chemscore.Hbond>
3.8480

> <Gold.PLP.Chemscore.CHOScore>
1.0629

> <Gold.PLP.Chemscore.Metal>
0.0000

> <Gold.Chemscore.Hbonds>
donor molecule, donor type, donor heavy atom, donor atom, acceptor molecule, acceptor atom, score
      L1  H    14    26       P1  7948  1.00
      P1  H  6896  6908       L1    13  0.86
      P1  H  7989  7998       L1     8  1.00
      P1  H  7997  8008       L1     9  1.00
      L1  C     5    23       P1  7948  0.08
      L1  C     5    23       P1  7949  0.80

> <Gold.PLP.Chemscore.Internal.Correction>
0.1993

> <Gold.Rescore>
     Score         DG    S(hbond)    S(metal)    S(lipo)     H(rot)  DE(clash)    DE(int)     intcor
     14.43     -18.33       3.63        0.00      47.81       1.90       0.02       3.88       ----

> <Gold.Chemscore.Fitness>
14.4277

> <Gold.Chemscore.DG>
-18.3347

> <Gold.Chemscore.ZeroCoef>
-5.4800

> <Gold.Chemscore.Hbond>
3.6335

> <Gold.Chemscore.Metal>
0.0000

> <Gold.Chemscore.Lipo>
47.8122

> <Gold.Chemscore.Internal_Hbond>
0.0000

> <Gold.Chemscore.DEClash>
0.0234

> <Gold.Chemscore.DEInternal>
3.8835

> <Gold.Chemscore.Rot>
1.9044

> <Gold.Chemscore.Internal.Correction>
   9.000000E+99

> <Gold.Chemscore.Hbonds>
donor molecule, donor type, donor heavy atom, donor atom, acceptor molecule, acceptor atom, score
      L1  H    14    26       P1  7948  0.49
      P1  H  6896  6908       L1    13  0.77
      P1  H  7989  7998       L1     8  0.30
      P1  H  7997  8008       L1     9  0.94

> <Gold.Chemscore.Hbond.Weighted>
-12.1359

> <Gold.Chemscore.Metal.Weighted>
-0.0000

> <Gold.Chemscore.Lipo.Weighted>
-5.5940

> <Gold.Chemscore.Internal_Hbond.Weighted>
0.0000

> <Gold.Chemscore.DEClash.Weighted>
0.0234

> <Gold.Chemscore.DEInternal.Weighted>
3.8835

> <Gold.Chemscore.Rot.Weighted>
4.8753

> <Gold.Chemscore.Internal.Correction.Weighted>
   9.000000E+99

> <Gold.Protein.RotatedTorsions>
[ 6907 6896 6895 6894 ] final  136.66 input  -60.11 | X-H torsion
[ 7974 7965 7964 7962 ] final  -26.48 input  175.53 | X-H torsion
[ 8008 7997 7996 7995 ] final  -16.58 input   59.86 | X-H torsion
[ 10167 10162 10161 10158 ] final   38.25 input  -65.29 | X-H torsion
[ 10718 10713 10712 10709 ] final   51.98 input   66.30 | X-H torsion
[ 10763 10752 10751 10750 ] final -114.34 input  -60.55 | X-H torsion
[ 11005 11000 10999 10996 ] final -171.06 input  -57.11 | X-H torsion

> <Gold.Protein.ActiveResidues>
 VAL166  LYS551  ARG553  GLY616  TRP617  ASP618  TYR619  PRO620  LYS621  CYS622 
 ASP623  PHE694  ASN695  SER759  ASP760  ASP761  ALA762  ILE779  LEU786  VAL792 
 PHE793  MET794  SER795  GLU796  ALA797  LYS798  CYS799  TRP800  GLU811  SER814 

> <Gold.Protein.RotatedAtoms>
  152.2869  133.5523  159.5532 H   0  0  0  0  0  0  0  0  0  0  0  0  # atno 6907 bound_to 6896
  150.7219  134.0485  159.3799 H   0  0  0  0  0  0  0  0  0  0  0  0  # atno 6908 bound_to 6896
  151.8392  135.0596  160.0497 H   0  0  0  0  0  0  0  0  0  0  0  0  # atno 6909 bound_to 6896
  146.1422  140.5025  142.8647 H   0  0  0  0  0  0  0  0  0  0  0  0  # atno 7974 bound_to 7965
  154.5042  140.2165  155.9285 H   0  0  0  0  0  0  0  0  0  0  0  0  # atno 8008 bound_to 7997
  156.1473  140.3168  155.8557 H   0  0  0  0  0  0  0  0  0  0  0  0  # atno 8009 bound_to 7997
  155.4007  140.0484  157.3027 H   0  0  0  0  0  0  0  0  0  0  0  0  # atno 8010 bound_to 7997
  140.3955  144.1795  150.6132 H   0  0  0  0  0  0  0  0  0  0  0  0  # atno 10167 bound_to 10162
  157.5032  130.8451  149.8342 H   0  0  0  0  0  0  0  0  0  0  0  0  # atno 10718 bound_to 10713
  154.8436  135.4421  154.1491 H   0  0  0  0  0  0  0  0  0  0  0  0  # atno 10763 bound_to 10752
  153.2656  135.6940  153.7539 H   0  0  0  0  0  0  0  0  0  0  0  0  # atno 10764 bound_to 10752
  153.6799  135.3405  155.3151 H   0  0  0  0  0  0  0  0  0  0  0  0  # atno 10765 bound_to 10752
  140.5125  134.5788  157.5023 H   0  0  0  0  0  0  0  0  0  0  0  0  # atno 11005 bound_to 11000
  144.7806  140.5832  143.6608 LP  0  0  0  0  0  0  0  0  0  0  0  0  # atno 17320 bound_to 7965
  145.5019  139.1483  143.3652 LP  0  0  0  0  0  0  0  0  0  0  0  0  # atno 17321 bound_to 7965
  140.4795  143.2384  151.8975 LP  0  0  0  0  0  0  0  0  0  0  0  0  # atno 17342 bound_to 10162
  139.4787  144.5284  151.8701 LP  0  0  0  0  0  0  0  0  0  0  0  0  # atno 17343 bound_to 10162
  156.0242  130.3785  150.1872 LP  0  0  0  0  0  0  0  0  0  0  0  0  # atno 17370 bound_to 10713
  157.0062  130.9937  151.3378 LP  0  0  0  0  0  0  0  0  0  0  0  0  # atno 17371 bound_to 10713
  139.9651  134.7387  156.0156 LP  0  0  0  0  0  0  0  0  0  0  0  0  # atno 17394 bound_to 11000
  141.1378  133.6571  156.3642 LP  0  0  0  0  0  0  0  0  0  0  0  0  # atno 17395 bound_to 11000

$$$$
