AV-unprocessed.smi:1850|AV-procd|sdf|7522|dock2
  -GOLD-   22720 9233D 1   1.00000     0.00000
 Structure written by MMmdl.
 40 41  0  0  0  0  0  0  0  0  1 V2000
  151.8632  129.6771  154.8885 C   0  0  0  0  0  0  0  0  0  0  0  0
  151.3099  130.3195  156.1683 C   0  0  0  0  0  0  0  0  0  0  0  0
  151.0349  131.7497  155.9745 N   0  0  0  0  0  0  0  0  0  0  0  0
  150.1148  132.0883  154.9633 C   0  0  0  0  0  0  0  0  0  0  0  0
  149.7725  133.3669  154.6931 C   0  0  0  0  0  0  0  0  0  0  0  0
  148.8439  133.7696  153.7216 N   0  0  0  0  0  0  0  0  0  0  0  0
  147.7096  133.1608  153.3273 C   0  0  0  0  0  0  0  0  0  0  0  0
  147.3084  132.0634  153.7143 O   0  0  0  0  0  0  0  0  0  0  0  0
  147.0551  133.9070  152.4257 N   0  0  0  0  0  0  0  0  0  0  0  0
  145.7959  133.5440  151.7820 C   0  0  0  0  0  0  0  0  0  0  0  0
  145.9299  132.1847  151.0649 C   0  0  0  0  0  0  0  0  0  0  0  0
  144.6423  131.8169  150.3100 C   0  0  0  0  0  0  0  0  0  0  0  0
  144.2376  132.9241  149.3242 C   0  0  0  0  0  0  0  0  0  0  0  0
  144.0960  134.2774  150.0382 C   0  0  0  0  0  0  0  0  0  0  0  0
  145.3842  134.6488  150.7906 C   0  0  0  0  0  0  0  0  0  0  0  0
  150.3908  134.3941  155.5035 C   0  0  0  0  0  0  0  0  0  0  0  0
  151.2631  134.0808  156.4809 C   0  0  0  0  0  0  0  0  0  0  0  0
  151.6259  132.6912  156.7689 C   0  0  0  0  0  0  0  0  0  0  0  0
  152.4098  132.3939  157.6708 O   0  0  0  0  0  0  0  0  0  0  0  0
  152.0787  128.6205  155.0476 H   0  0  0  0  0  0  0  0  0  0  0  0
  152.7882  130.1603  154.5728 H   0  0  0  0  0  0  0  0  0  0  0  0
  151.1493  129.7497  154.0675 H   0  0  0  0  0  0  0  0  0  0  0  0
  150.4127  129.7885  156.4909 H   0  0  0  0  0  0  0  0  0  0  0  0
  152.0246  130.1828  156.9813 H   0  0  0  0  0  0  0  0  0  0  0  0
  149.7054  131.2293  154.4554 H   0  0  0  0  0  0  0  0  0  0  0  0
  149.0635  134.6419  153.2640 H   0  0  0  0  0  0  0  0  0  0  0  0
  147.4573  134.7952  152.1639 H   0  0  0  0  0  0  0  0  0  0  0  0
  145.0136  133.4652  152.5395 H   0  0  0  0  0  0  0  0  0  0  0  0
  146.7626  132.2193  150.3608 H   0  0  0  0  0  0  0  0  0  0  0  0
  146.1672  131.4009  151.7851 H   0  0  0  0  0  0  0  0  0  0  0  0
  144.7805  130.8758  149.7767 H   0  0  0  0  0  0  0  0  0  0  0  0
  143.8353  131.6515  151.0250 H   0  0  0  0  0  0  0  0  0  0  0  0
  144.9869  133.0030  148.5355 H   0  0  0  0  0  0  0  0  0  0  0  0
  143.2992  132.6619  148.8347 H   0  0  0  0  0  0  0  0  0  0  0  0
  143.8503  135.0556  149.3151 H   0  0  0  0  0  0  0  0  0  0  0  0
  143.2626  134.2342  150.7406 H   0  0  0  0  0  0  0  0  0  0  0  0
  145.2397  135.5911  151.3204 H   0  0  0  0  0  0  0  0  0  0  0  0
  146.1860  134.8189  150.0706 H   0  0  0  0  0  0  0  0  0  0  0  0
  150.1530  135.4327  155.3246 H   0  0  0  0  0  0  0  0  0  0  0  0
  151.7074  134.8717  157.0673 H   0  0  0  0  0  0  0  0  0  0  0  0
  1  2  1  0  0  0  0
  1 20  1  0  0  0  0
  1 21  1  0  0  0  0
  1 22  1  0  0  0  0
  2  3  1  0  0  0  0
  2 23  1  0  0  0  0
  2 24  1  0  0  0  0
  3 18  1  0  0  0  0
  3  4  1  0  0  0  0
  4  5  2  0  0  0  0
  4 25  1  0  0  0  0
  5  6  1  0  0  0  0
  5 16  1  0  0  0  0
  6  7  1  0  0  0  0
  6 26  1  0  0  0  0
  7  8  2  0  0  0  0
  7  9  1  0  0  0  0
  9 10  1  0  0  0  0
  9 27  1  0  0  0  0
 10 15  1  0  0  0  0
 10 11  1  0  0  0  0
 10 28  1  0  0  0  0
 11 12  1  0  0  0  0
 11 29  1  0  0  0  0
 11 30  1  0  0  0  0
 12 13  1  0  0  0  0
 12 31  1  0  0  0  0
 12 32  1  0  0  0  0
 13 14  1  0  0  0  0
 13 33  1  0  0  0  0
 13 34  1  0  0  0  0
 14 15  1  0  0  0  0
 14 35  1  0  0  0  0
 14 36  1  0  0  0  0
 15 37  1  0  0  0  0
 15 38  1  0  0  0  0
 16 17  2  0  0  0  0
 16 39  1  0  0  0  0
 17 18  1  0  0  0  0
 17 40  1  0  0  0  0
 18 19  2  0  0  0  0
M  END
> <s_m_source_file>
AV-unprocessed.smi

> <i_m_source_file_index>
1850

> <i_lp_mmshare_version>
43012

> <i_f3d_flags>
0

> <s_epik_input>
W0NIM11bQ0gyXW4xW2NIXWMoW2NIXVtjSF1jMT1PKVtOSF1DKD1PKVtOSF1bQ0hdMltDSDJdW0NIMl1bQ0gyXVtDSDJdW0NIMl0y

> <s_epik_cmdline>
J2VwaWtfcHl0aG9uJywgJy1waCcsICc3LjAnLCAnLXRuJywgJzgnLCAnLW1hJywgJzIwMCcsICctbWV0YWxfYmluZGluZycsICctaW1hZScsICc8aW5maWxlLm1hZT4nLCAnLW9tYWUnLCAnPG91dGZpbGUubWFlPic=

> <r_lp_tautomer_probability>
1

> <r_epik_Ionization_Penalty>
2.61962e-05

> <r_epik_Ionization_Penalty_Charging>
4.78076e-06

> <r_epik_Ionization_Penalty_Neutral>
2.14155e-05

> <r_epik_State_Penalty>
-0

> <r_epik_Charging_Adjusted_Penalty>
4.78076e-06

> <i_epik_Tot_Q>
0

> <i_epik_Tot_abs_Q>
0

> <r_epik_Metal_State_Penalty>
-0

> <b_epik_Metal_Only>
0

> <s_lp_Force_Field>
OPLS_2005

> <r_lp_Energy>
22.0322

> <b_lp_Chiralities_Consistent>
1

> <s_lp_Variant>
AV-unprocessed.smi:1850-1

> <Gold.Version>
5.8.1

> <Gold.Id.Protein>
6NUR|6NUR_protein|mol2

> <Gold.PLP.Fitness>
43.0776

> <Gold.PLP.PLP>
-35.5572

> <Gold.PLP.part.hbond>
-3.0000

> <Gold.PLP.part.metal>
0.0000

> <Gold.PLP.part.buried>
-2.7899

> <Gold.PLP.part.nonpolar>
-30.1427

> <Gold.PLP.part.repulsive>
0.0865

> <Gold.PLP.ligand.clash>
0.0000

> <Gold.PLP.ligand.torsion>
0.2664

> <Gold.PLP.Chemscore.Hbond>
2.6825

> <Gold.PLP.Chemscore.CHOScore>
0.0000

> <Gold.PLP.Chemscore.Metal>
0.0000

> <Gold.Chemscore.Hbonds>
donor molecule, donor type, donor heavy atom, donor atom, acceptor molecule, acceptor atom, score
      L1  H     6    26       P1  7948  0.58
      L1  H     9    27       P1  7948  0.94
      P1  H  6896  6907       L1    19  1.00

> <Gold.PLP.Chemscore.Internal.Correction>
0.0056

> <Gold.Rescore>
     Score         DG    S(hbond)    S(metal)    S(lipo)     H(rot)  DE(clash)    DE(int)     intcor
     15.97     -18.30       1.97        0.00      78.92       1.17       0.13       2.20       ----

> <Gold.Chemscore.Fitness>
15.9691

> <Gold.Chemscore.DG>
-18.2983

> <Gold.Chemscore.ZeroCoef>
-5.4800

> <Gold.Chemscore.Hbond>
1.9671

> <Gold.Chemscore.Metal>
0.0000

> <Gold.Chemscore.Lipo>
78.9157

> <Gold.Chemscore.Internal_Hbond>
0.0000

> <Gold.Chemscore.DEClash>
0.1255

> <Gold.Chemscore.DEInternal>
2.2037

> <Gold.Chemscore.Rot>
1.1660

> <Gold.Chemscore.Internal.Correction>
   9.000000E+99

> <Gold.Chemscore.Hbonds>
donor molecule, donor type, donor heavy atom, donor atom, acceptor molecule, acceptor atom, score
      L1  H     6    26       P1  7948  0.05
      L1  H     9    27       P1  7948  0.78
      P1  H  6896  6907       L1    19  0.81

> <Gold.Chemscore.Hbond.Weighted>
-6.5702

> <Gold.Chemscore.Metal.Weighted>
-0.0000

> <Gold.Chemscore.Lipo.Weighted>
-9.2331

> <Gold.Chemscore.Internal_Hbond.Weighted>
0.0000

> <Gold.Chemscore.DEClash.Weighted>
0.1255

> <Gold.Chemscore.DEInternal.Weighted>
2.2037

> <Gold.Chemscore.Rot.Weighted>
2.9850

> <Gold.Chemscore.Internal.Correction.Weighted>
   9.000000E+99

> <Gold.Protein.RotatedTorsions>
[ 6907 6896 6895 6894 ] final  157.26 input  -60.11 | X-H torsion
[ 7974 7965 7964 7962 ] final   25.12 input  175.53 | X-H torsion
[ 8008 7997 7996 7995 ] final  109.60 input   59.86 | X-H torsion
[ 10167 10162 10161 10158 ] final   47.94 input  -65.29 | X-H torsion
[ 10718 10713 10712 10709 ] final  128.56 input   66.30 | X-H torsion
[ 10763 10752 10751 10750 ] final  -47.33 input  -60.55 | X-H torsion
[ 11005 11000 10999 10996 ] final   55.85 input  -57.11 | X-H torsion

> <Gold.Protein.ActiveResidues>
 VAL166  LYS551  ARG553  GLY616  TRP617  ASP618  TYR619  PRO620  LYS621  CYS622 
 ASP623  PHE694  ASN695  SER759  ASP760  ASP761  ALA762  ILE779  LEU786  VAL792 
 PHE793  MET794  SER795  GLU796  ALA797  LYS798  CYS799  TRP800  GLU811  SER814 

> <Gold.Protein.RotatedAtoms>
  152.0177  133.3886  159.4245 H   0  0  0  0  0  0  0  0  0  0  0  0  # atno 6907 bound_to 6896
  150.6893  134.3660  159.4980 H   0  0  0  0  0  0  0  0  0  0  0  0  # atno 6908 bound_to 6896
  152.1430  134.9048  160.0603 H   0  0  0  0  0  0  0  0  0  0  0  0  # atno 6909 bound_to 6896
  146.1904  139.7510  142.8836 H   0  0  0  0  0  0  0  0  0  0  0  0  # atno 7974 bound_to 7965
  156.1991  140.3054  155.9489 H   0  0  0  0  0  0  0  0  0  0  0  0  # atno 8008 bound_to 7997
  155.2996  140.0446  157.3045 H   0  0  0  0  0  0  0  0  0  0  0  0  # atno 8009 bound_to 7997
  154.5548  140.2302  155.8437 H   0  0  0  0  0  0  0  0  0  0  0  0  # atno 8010 bound_to 7997
  140.2984  144.2963  150.6224 H   0  0  0  0  0  0  0  0  0  0  0  0  # atno 10167 bound_to 10162
  157.5233  131.1098  150.9121 H   0  0  0  0  0  0  0  0  0  0  0  0  # atno 10718 bound_to 10713
  154.0597  135.6620  153.4810 H   0  0  0  0  0  0  0  0  0  0  0  0  # atno 10763 bound_to 10752
  153.0431  135.5132  154.7671 H   0  0  0  0  0  0  0  0  0  0  0  0  # atno 10764 bound_to 10752
  154.6703  135.3028  154.9717 H   0  0  0  0  0  0  0  0  0  0  0  0  # atno 10765 bound_to 10752
  140.0575  134.5649  155.9191 H   0  0  0  0  0  0  0  0  0  0  0  0  # atno 11005 bound_to 11000
  145.3809  141.0358  143.3178 LP  0  0  0  0  0  0  0  0  0  0  0  0  # atno 17320 bound_to 7965
  144.8476  139.5372  143.6871 LP  0  0  0  0  0  0  0  0  0  0  0  0  # atno 17321 bound_to 7965
  140.5672  143.2185  151.7662 LP  0  0  0  0  0  0  0  0  0  0  0  0  # atno 17342 bound_to 10162
  139.4921  144.4267  151.9918 LP  0  0  0  0  0  0  0  0  0  0  0  0  # atno 17343 bound_to 10162
  156.9724  130.5496  149.5291 LP  0  0  0  0  0  0  0  0  0  0  0  0  # atno 17370 bound_to 10713
  156.0369  130.5455  150.8675 LP  0  0  0  0  0  0  0  0  0  0  0  0  # atno 17371 bound_to 10713
  141.1958  133.6589  156.5663 LP  0  0  0  0  0  0  0  0  0  0  0  0  # atno 17394 bound_to 11000
  140.3821  134.7514  157.4668 LP  0  0  0  0  0  0  0  0  0  0  0  0  # atno 17395 bound_to 11000

$$$$
