AV-unprocessed.smi:636|AV-procd|sdf|3140|dock6
  -GOLD-   22720 0 63D 1   1.00000     0.00000
 Structure written by MMmdl.
 39 41  0  0  0  0  0  0  0  0  1 V2000
  149.0806  139.7042  156.3308 O   0  0  0  0  0  0  0  0  0  0  0  0
  149.3157  140.9098  156.2627 C   0  0  0  0  0  0  0  0  0  0  0  0
  150.7775  141.3785  156.1556 C   0  0  0  0  0  0  0  0  0  0  0  0
  151.4373  141.6521  157.4456 N   0  0  0  0  0  0  0  0  0  0  0  0
  151.1095  142.8640  158.0824 C   0  0  0  0  0  0  0  0  0  0  0  0
  151.6390  143.2374  159.2618 C   0  0  0  0  0  0  0  0  0  0  0  0
  151.3190  144.5836  159.8921 C   0  0  0  0  0  0  0  0  0  0  0  0
  151.7332  145.5666  159.0943 F   0  0  0  0  0  0  0  0  0  0  0  0
  150.0069  144.7254  160.0796 F   0  0  0  0  0  0  0  0  0  0  0  0
  151.9276  144.7207  161.0707 F   0  0  0  0  0  0  0  0  0  0  0  0
  152.6046  142.3312  159.8500 C   0  0  0  0  0  0  0  0  0  0  0  0
  152.9451  141.1718  159.2518 C   0  0  0  0  0  0  0  0  0  0  0  0
  154.1028  140.1293  159.9980 Cl  0  0  0  0  0  0  0  0  0  0  0  0
  152.3469  140.7769  157.9702 C   0  0  0  0  0  0  0  0  0  0  0  0
  152.6471  139.7297  157.3954 O   0  0  0  0  0  0  0  0  0  0  0  0
  148.3496  141.8443  156.2797 N   0  0  0  0  0  0  0  0  0  0  0  0
  146.9160  141.5973  156.3747 C   0  0  0  0  0  0  0  0  0  0  0  0
  146.2394  141.5701  155.0140 C   0  0  0  0  0  0  0  0  0  0  0  0
  147.0214  141.2930  153.7515 C   0  0  0  0  0  0  0  0  0  0  0  0
  146.4569  142.6720  154.0039 C   0  0  0  0  0  0  0  0  0  0  0  0
  146.2420  142.6134  157.2781 C   0  0  0  0  0  0  0  0  0  0  0  0
  146.5280  142.6482  158.7600 C   0  0  0  0  0  0  0  0  0  0  0  0
  145.1697  142.2078  158.2612 C   0  0  0  0  0  0  0  0  0  0  0  0
  151.3350  140.6167  155.6088 H   0  0  0  0  0  0  0  0  0  0  0  0
  150.8115  142.2606  155.5138 H   0  0  0  0  0  0  0  0  0  0  0  0
  150.4068  143.4796  157.5396 H   0  0  0  0  0  0  0  0  0  0  0  0
  153.0627  142.5874  160.7940 H   0  0  0  0  0  0  0  0  0  0  0  0
  148.6338  142.8112  156.2220 H   0  0  0  0  0  0  0  0  0  0  0  0
  146.7699  140.6183  156.8358 H   0  0  0  0  0  0  0  0  0  0  0  0
  145.2362  141.1483  155.0411 H   0  0  0  0  0  0  0  0  0  0  0  0
  148.0998  141.1748  153.8326 H   0  0  0  0  0  0  0  0  0  0  0  0
  146.5415  140.6846  152.9877 H   0  0  0  0  0  0  0  0  0  0  0  0
  145.6000  142.9834  153.4102 H   0  0  0  0  0  0  0  0  0  0  0  0
  147.1620  143.4620  154.2544 H   0  0  0  0  0  0  0  0  0  0  0  0
  146.1009  143.5840  156.8055 H   0  0  0  0  0  0  0  0  0  0  0  0
  147.1848  141.8825  159.1680 H   0  0  0  0  0  0  0  0  0  0  0  0
  146.5987  143.6247  159.2345 H   0  0  0  0  0  0  0  0  0  0  0  0
  144.3348  142.8909  158.4027 H   0  0  0  0  0  0  0  0  0  0  0  0
  144.9269  141.1506  158.3462 H   0  0  0  0  0  0  0  0  0  0  0  0
  1  2  2  0  0  0  0
  2  3  1  0  0  0  0
  2 16  1  0  0  0  0
  3  4  1  0  0  0  0
  3 24  1  0  0  0  0
  3 25  1  0  0  0  0
  4 14  1  0  0  0  0
  4  5  1  0  0  0  0
  5  6  2  0  0  0  0
  5 26  1  0  0  0  0
  6  7  1  0  0  0  0
  6 11  1  0  0  0  0
  7  8  1  0  0  0  0
  7  9  1  0  0  0  0
  7 10  1  0  0  0  0
 11 12  2  0  0  0  0
 11 27  1  0  0  0  0
 12 13  1  0  0  0  0
 12 14  1  0  0  0  0
 14 15  2  0  0  0  0
 16 17  1  0  0  0  0
 16 28  1  0  0  0  0
 17 18  1  0  0  0  0
 17 21  1  0  0  0  0
 17 29  1  0  0  0  0
 18 20  1  0  0  0  0
 18 19  1  0  0  0  0
 18 30  1  0  0  0  0
 19 20  1  0  0  0  0
 19 31  1  0  0  0  0
 19 32  1  0  0  0  0
 20 33  1  0  0  0  0
 20 34  1  0  0  0  0
 21 23  1  0  0  0  0
 21 22  1  0  0  0  0
 21 35  1  0  0  0  0
 22 23  1  0  0  0  0
 22 36  1  0  0  0  0
 22 37  1  0  0  0  0
 23 38  1  0  0  0  0
 23 39  1  0  0  0  0
M  END
> <s_m_source_file>
AV-unprocessed.smi

> <i_m_source_file_index>
636

> <i_lp_mmshare_version>
43012

> <i_f3d_flags>
0

> <s_epik_input>
W0NIMl0xW0NIMl1bQ0hdMVtDSF0oW0NIXTJbQ0gyXVtDSDJdMilbTkhdQyg9TylbQ0gyXW4zW2NIXWMoQyhGKShGKUYpW2NIXWMoQ2wpYzM9Tw==

> <s_epik_cmdline>
J2VwaWtfcHl0aG9uJywgJy1waCcsICc3LjAnLCAnLXRuJywgJzgnLCAnLW1hJywgJzIwMCcsICctbWV0YWxfYmluZGluZycsICctaW1hZScsICc8aW5maWxlLm1hZT4nLCAnLW9tYWUnLCAnPG91dGZpbGUubWFlPic=

> <r_lp_tautomer_probability>
1

> <r_epik_Ionization_Penalty>
2.07964e-08

> <r_epik_Ionization_Penalty_Charging>
3.83819e-10

> <r_epik_Ionization_Penalty_Neutral>
2.04126e-08

> <r_epik_State_Penalty>
-0

> <r_epik_Charging_Adjusted_Penalty>
3.83819e-10

> <i_epik_Tot_Q>
0

> <i_epik_Tot_abs_Q>
0

> <r_epik_Metal_State_Penalty>
-0

> <b_epik_Metal_Only>
0

> <s_lp_Force_Field>
OPLS_2005

> <r_lp_Energy>
34.6708

> <b_lp_Chiralities_Consistent>
1

> <s_lp_Variant>
AV-unprocessed.smi:636-1

> <Gold.Version>
5.8.1

> <Gold.Id.Protein>
6NUR|6NUR_protein|mol2

> <Gold.PLP.Fitness>
53.4161

> <Gold.PLP.PLP>
-47.3404

> <Gold.PLP.part.hbond>
-2.0000

> <Gold.PLP.part.metal>
0.0000

> <Gold.PLP.part.buried>
-6.4590

> <Gold.PLP.part.nonpolar>
-39.4686

> <Gold.PLP.part.repulsive>
0.0248

> <Gold.PLP.ligand.clash>
0.0000

> <Gold.PLP.ligand.torsion>
2.1251

> <Gold.PLP.Chemscore.Hbond>
2.0000

> <Gold.PLP.Chemscore.CHOScore>
0.6884

> <Gold.PLP.Chemscore.Metal>
0.0000

> <Gold.Chemscore.Hbonds>
donor molecule, donor type, donor heavy atom, donor atom, acceptor molecule, acceptor atom, score
      L1  H    16    28       P1  8028  1.00
      P1  H  7997  8008       L1    15  1.00
      L1  C     5    26       P1  8028  0.57

> <Gold.PLP.Chemscore.Internal.Correction>
2.2605

> <Gold.Rescore>
     Score         DG    S(hbond)    S(metal)    S(lipo)     H(rot)  DE(clash)    DE(int)     intcor
     15.03     -17.65       1.91        0.00      91.06       1.90       0.61       2.01       ----

> <Gold.Chemscore.Fitness>
15.0294

> <Gold.Chemscore.DG>
-17.6482

> <Gold.Chemscore.ZeroCoef>
-5.4800

> <Gold.Chemscore.Hbond>
1.9080

> <Gold.Chemscore.Metal>
0.0000

> <Gold.Chemscore.Lipo>
91.0586

> <Gold.Chemscore.Internal_Hbond>
0.0000

> <Gold.Chemscore.DEClash>
0.6125

> <Gold.Chemscore.DEInternal>
2.0063

> <Gold.Chemscore.Rot>
1.8979

> <Gold.Chemscore.Internal.Correction>
   9.000000E+99

> <Gold.Chemscore.Hbonds>
donor molecule, donor type, donor heavy atom, donor atom, acceptor molecule, acceptor atom, score
      L1  H    16    28       P1  8028  0.94
      P1  H  7997  8008       L1    15  0.45

> <Gold.Chemscore.Hbond.Weighted>
-6.3729

> <Gold.Chemscore.Metal.Weighted>
-0.0000

> <Gold.Chemscore.Lipo.Weighted>
-10.6539

> <Gold.Chemscore.Internal_Hbond.Weighted>
0.0000

> <Gold.Chemscore.DEClash.Weighted>
0.6125

> <Gold.Chemscore.DEInternal.Weighted>
2.0063

> <Gold.Chemscore.Rot.Weighted>
4.8586

> <Gold.Chemscore.Internal.Correction.Weighted>
   9.000000E+99

> <Gold.Protein.RotatedTorsions>
[ 6907 6896 6895 6894 ] final    7.25 input  -60.11 | X-H torsion
[ 7974 7965 7964 7962 ] final  -43.91 input  175.53 | X-H torsion
[ 8008 7997 7996 7995 ] final  -61.62 input   59.86 | X-H torsion
[ 10167 10162 10161 10158 ] final  123.94 input  -65.29 | X-H torsion
[ 10718 10713 10712 10709 ] final  169.97 input   66.30 | X-H torsion
[ 10763 10752 10751 10750 ] final  108.33 input  -60.55 | X-H torsion
[ 11005 11000 10999 10996 ] final  -99.60 input  -57.11 | X-H torsion

> <Gold.Protein.ActiveResidues>
 VAL166  LYS551  ARG553  GLY616  TRP617  ASP618  TYR619  PRO620  LYS621  CYS622 
 ASP623  PHE694  ASN695  SER759  ASP760  ASP761  ALA762  ILE779  LEU786  VAL792 
 PHE793  MET794  SER795  GLU796  ALA797  LYS798  CYS799  TRP800  GLU811  SER814 

> <Gold.Protein.RotatedAtoms>
  151.6869  135.0953  160.0226 H   0  0  0  0  0  0  0  0  0  0  0  0  # atno 6907 bound_to 6896
  152.3802  133.6531  159.6163 H   0  0  0  0  0  0  0  0  0  0  0  0  # atno 6908 bound_to 6896
  150.7741  133.9043  159.3392 H   0  0  0  0  0  0  0  0  0  0  0  0  # atno 6909 bound_to 6896
  145.9973  140.7114  142.9287 H   0  0  0  0  0  0  0  0  0  0  0  0  # atno 7974 bound_to 7965
  154.4457  140.1014  156.6459 H   0  0  0  0  0  0  0  0  0  0  0  0  # atno 8008 bound_to 7997
  155.5450  140.3484  155.4437 H   0  0  0  0  0  0  0  0  0  0  0  0  # atno 8009 bound_to 7997
  156.0570  140.1317  156.9975 H   0  0  0  0  0  0  0  0  0  0  0  0  # atno 8010 bound_to 7997
  139.5770  144.6968  151.3626 H   0  0  0  0  0  0  0  0  0  0  0  0  # atno 10167 bound_to 10162
  157.0149  131.0215  151.2792 H   0  0  0  0  0  0  0  0  0  0  0  0  # atno 10718 bound_to 10713
  153.4192  135.3815  155.2100 H   0  0  0  0  0  0  0  0  0  0  0  0  # atno 10763 bound_to 10752
  154.8743  135.3813  154.4405 H   0  0  0  0  0  0  0  0  0  0  0  0  # atno 10764 bound_to 10752
  153.4923  135.7088  153.5940 H   0  0  0  0  0  0  0  0  0  0  0  0  # atno 10765 bound_to 10752
  141.1302  133.8334  157.0993 H   0  0  0  0  0  0  0  0  0  0  0  0  # atno 11005 bound_to 11000
  144.6908  140.3172  143.7238 LP  0  0  0  0  0  0  0  0  0  0  0  0  # atno 17320 bound_to 7965
  145.7540  139.1803  143.2305 LP  0  0  0  0  0  0  0  0  0  0  0  0  # atno 17321 bound_to 7965
  140.7052  143.7531  150.7470 LP  0  0  0  0  0  0  0  0  0  0  0  0  # atno 17342 bound_to 10162
  140.1054  143.4749  152.2401 LP  0  0  0  0  0  0  0  0  0  0  0  0  # atno 17343 bound_to 10162
  157.5293  130.8048  149.7898 LP  0  0  0  0  0  0  0  0  0  0  0  0  # atno 17370 bound_to 10713
  156.0123  130.3828  150.2225 LP  0  0  0  0  0  0  0  0  0  0  0  0  # atno 17371 bound_to 10713
  140.0343  134.9886  157.0841 LP  0  0  0  0  0  0  0  0  0  0  0  0  # atno 17394 bound_to 11000
  140.4235  134.1855  155.7165 LP  0  0  0  0  0  0  0  0  0  0  0  0  # atno 17395 bound_to 11000

$$$$
