AV-unprocessed.smi:766|AV-procd|sdf|3653|dock10
  -GOLD-   22720 1 63D 1   1.00000     0.00000
 Structure written by MMmdl.
 48 50  0  0  0  0  0  0  0  0  3 V2000
  152.4008  143.6817  160.3142 C   0  0  0  0  0  0  0  0  0  0  0  0
  152.0905  142.7501  159.1547 C   0  0  0  0  0  0  0  0  0  0  0  0
  151.0964  143.1356  158.2276 C   0  0  0  0  0  0  0  0  0  0  0  0
  150.8373  142.2643  157.1765 C   0  0  0  0  0  0  0  0  0  0  0  0
  149.9318  142.3548  156.1176 N   0  3  0  0  0  0  0  0  0  0  0  0
  150.0418  141.2500  155.3296 C   0  0  0  0  0  0  0  0  0  0  0  0
  151.0028  140.4524  155.8711 N   0  0  0  0  0  0  0  0  0  0  0  0
  151.5139  139.1543  155.4064 C   0  0  0  0  0  0  0  0  0  0  0  0
  150.5610  137.9853  155.7241 C   0  0  2  0  0  0  0  0  0  0  0  0
  151.1788  136.7611  155.3777 O   0  0  0  0  0  0  0  0  0  0  0  0
  149.2353  138.1007  154.9537 C   0  0  0  0  0  0  0  0  0  0  0  0
  148.4234  136.8765  155.0996 N   0  3  0  0  0  0  0  0  0  0  0  0
  146.9717  137.1231  155.2093 C   0  0  0  0  0  0  0  0  0  0  0  0
  146.3049  137.2018  153.8236 C   0  0  0  0  0  0  0  0  0  0  0  0
  145.0210  136.5209  153.7574 N   0  0  0  0  0  0  0  0  0  0  0  0
  143.8673  136.9402  153.1279 C   0  0  0  0  0  0  0  0  0  0  0  0
  142.9281  135.9650  153.3042 C   0  0  0  0  0  0  0  0  0  0  0  0
  143.6139  134.9660  154.0494 C   0  0  0  0  0  0  0  0  0  0  0  0
  144.8680  135.2974  154.3108 N   0  0  0  0  0  0  0  0  0  0  0  0
  151.5278  141.0455  157.0265 C   0  0  0  0  0  0  0  0  0  0  0  0
  152.5081  140.6494  157.9337 C   0  0  0  0  0  0  0  0  0  0  0  0
  152.7865  141.5219  159.0102 C   0  0  0  0  0  0  0  0  0  0  0  0
  153.8510  141.1161  160.0155 C   0  0  0  0  0  0  0  0  0  0  0  0
  151.7738  144.5735  160.2883 H   0  0  0  0  0  0  0  0  0  0  0  0
  153.4412  144.0050  160.2770 H   0  0  0  0  0  0  0  0  0  0  0  0
  152.2269  143.1807  161.2667 H   0  0  0  0  0  0  0  0  0  0  0  0
  150.5617  144.0683  158.3323 H   0  0  0  0  0  0  0  0  0  0  0  0
  149.4711  141.0463  154.4349 H   0  0  0  0  0  0  0  0  0  0  0  0
  151.6504  139.2359  154.3272 H   0  0  0  0  0  0  0  0  0  0  0  0
  152.5064  138.9847  155.8246 H   0  0  0  0  0  0  0  0  0  0  0  0
  150.3590  137.9755  156.7962 H   0  0  0  0  0  0  0  0  0  0  0  0
  150.5515  136.0635  155.4944 H   0  0  0  0  0  0  0  0  0  0  0  0
  148.6568  138.9425  155.3368 H   0  0  0  0  0  0  0  0  0  0  0  0
  149.4242  138.2977  153.8971 H   0  0  0  0  0  0  0  0  0  0  0  0
  148.5827  136.2957  154.2879 H   0  0  0  0  0  0  0  0  0  0  0  0
  146.5167  136.3171  155.7861 H   0  0  0  0  0  0  0  0  0  0  0  0
  146.7991  138.0440  155.7678 H   0  0  0  0  0  0  0  0  0  0  0  0
  146.1585  138.2448  153.5394 H   0  0  0  0  0  0  0  0  0  0  0  0
  146.9591  136.7615  153.0704 H   0  0  0  0  0  0  0  0  0  0  0  0
  143.8096  137.8881  152.6131 H   0  0  0  0  0  0  0  0  0  0  0  0
  141.9085  135.9622  152.9484 H   0  0  0  0  0  0  0  0  0  0  0  0
  143.2417  134.0154  154.4018 H   0  0  0  0  0  0  0  0  0  0  0  0
  153.0368  139.7134  157.8290 H   0  0  0  0  0  0  0  0  0  0  0  0
  154.2908  140.1506  159.7638 H   0  0  0  0  0  0  0  0  0  0  0  0
  153.4233  141.0365  161.0151 H   0  0  0  0  0  0  0  0  0  0  0  0
  154.6550  141.8518  160.0396 H   0  0  0  0  0  0  0  0  0  0  0  0
  148.7330  136.3765  155.9204 H   0  0  0  0  0  0  0  0  0  0  0  0
  149.2875  143.1155  155.9418 H   0  0  0  0  0  0  0  0  0  0  0  0
  1  2  1  0  0  0  0
  1 24  1  0  0  0  0
  1 25  1  0  0  0  0
  1 26  1  0  0  0  0
  2 22  1  0  0  0  0
  2  3  2  0  0  0  0
  3  4  1  0  0  0  0
  3 27  1  0  0  0  0
  4 20  2  0  0  0  0
  4  5  1  0  0  0  0
  5  6  2  0  0  0  0
  5 48  1  0  0  0  0
  6  7  1  0  0  0  0
  6 28  1  0  0  0  0
  7  8  1  0  0  0  0
  7 20  1  0  0  0  0
  8  9  1  0  0  0  0
  8 29  1  0  0  0  0
  8 30  1  0  0  0  0
  9 10  1  0  0  0  0
  9 11  1  0  0  0  0
  9 31  1  0  0  0  0
 10 32  1  0  0  0  0
 11 12  1  0  0  0  0
 11 33  1  0  0  0  0
 11 34  1  0  0  0  0
 12 13  1  0  0  0  0
 12 35  1  0  0  0  0
 12 47  1  0  0  0  0
 13 14  1  0  0  0  0
 13 36  1  0  0  0  0
 13 37  1  0  0  0  0
 14 15  1  0  0  0  0
 14 38  1  0  0  0  0
 14 39  1  0  0  0  0
 15 19  1  0  0  0  0
 15 16  1  0  0  0  0
 16 17  2  0  0  0  0
 16 40  1  0  0  0  0
 17 18  1  0  0  0  0
 17 41  1  0  0  0  0
 18 19  2  0  0  0  0
 18 42  1  0  0  0  0
 20 21  1  0  0  0  0
 21 22  2  0  0  0  0
 21 43  1  0  0  0  0
 22 23  1  0  0  0  0
 23 44  1  0  0  0  0
 23 45  1  0  0  0  0
 23 46  1  0  0  0  0
M  CHG  1   5   1
M  CHG  1  12   1
M  END
> <s_m_source_file>
AV-unprocessed.smi

> <i_m_source_file_index>
766

> <i_lp_mmshare_version>
43012

> <i_f3d_flags>
0

> <s_epik_input>
W0NIM11jKFtjSF0xKWMoW0NIM10pW2NIXWMoYzEyKW4oW2NIXW4yKVtDSDJdW0NASF0oW09IXSlbQ0gyXVtOSF1bQ0gyXVtDSDJdbjNbY0hdW2NIXVtjSF1uMw==

> <s_epik_cmdline>
J2VwaWtfcHl0aG9uJywgJy1waCcsICc3LjAnLCAnLXRuJywgJzgnLCAnLW1hJywgJzIwMCcsICctbWV0YWxfYmluZGluZycsICctaW1hZScsICc8aW5maWxlLm1hZT4nLCAnLW9tYWUnLCAnPG91dGZpbGUubWFlPic=

> <r_lp_tautomer_probability>
1

> <r_epik_Ionization_Penalty>
1.25103

> <r_epik_Ionization_Penalty_Charging>
1.25102

> <r_epik_Ionization_Penalty_Neutral>
6.05394e-06

> <r_epik_State_Penalty>
1.2613

> <r_epik_Charging_Adjusted_Penalty>
2.51232

> <i_epik_Tot_Q>
2

> <i_epik_Tot_abs_Q>
2

> <r_epik_Metal_State_Penalty>
1.33164

> <b_epik_Metal_Only>
0

> <s_lp_Force_Field>
OPLS_2005

> <r_lp_Energy>
19.7351

> <b_lp_Chiralities_Consistent>
1

> <s_lp_Variant>
AV-unprocessed.smi:766-3

> <Gold.Version>
5.8.1

> <Gold.Id.Protein>
6NUR|6NUR_protein|mol2

> <Gold.PLP.Fitness>
59.9713

> <Gold.PLP.PLP>
-38.2426

> <Gold.PLP.part.hbond>
-3.0000

> <Gold.PLP.part.metal>
0.0000

> <Gold.PLP.part.buried>
-2.4841

> <Gold.PLP.part.nonpolar>
-32.5258

> <Gold.PLP.part.repulsive>
0.1611

> <Gold.PLP.ligand.clash>
0.0000

> <Gold.PLP.ligand.torsion>
1.2273

> <Gold.PLP.Chemscore.Hbond>
5.0000

> <Gold.PLP.Chemscore.CHOScore>
2.9957

> <Gold.PLP.Chemscore.Metal>
0.0000

> <Gold.Chemscore.Hbonds>
donor molecule, donor type, donor heavy atom, donor atom, acceptor molecule, acceptor atom, score
      L1  H     5    48       P1  8028  2.00
      P1  H 10752 10765       L1    10  0.44
      L1  C    16    40       P1 10171  0.14
      L1  C    16    40       P1 10175  0.94
      L1  C    18    42       P1 10957  1.00

> <Gold.PLP.Chemscore.Internal.Correction>
0.1964

> <Gold.Rescore>
     Score         DG    S(hbond)    S(metal)    S(lipo)     H(rot)  DE(clash)    DE(int)     intcor
     16.40     -17.43       2.45        0.00      98.29       3.02       0.06       0.98       ----

> <Gold.Chemscore.Fitness>
16.4007

> <Gold.Chemscore.DG>
-17.4312

> <Gold.Chemscore.ZeroCoef>
-5.4800

> <Gold.Chemscore.Hbond>
2.4522

> <Gold.Chemscore.Metal>
0.0000

> <Gold.Chemscore.Lipo>
98.2851

> <Gold.Chemscore.Internal_Hbond>
0.0000

> <Gold.Chemscore.DEClash>
0.0554

> <Gold.Chemscore.DEInternal>
0.9751

> <Gold.Chemscore.Rot>
3.0229

> <Gold.Chemscore.Internal.Correction>
   9.000000E+99

> <Gold.Chemscore.Hbonds>
donor molecule, donor type, donor heavy atom, donor atom, acceptor molecule, acceptor atom, score
      L1  H     5    48       P1  8028  0.97
      L1  H    12    35       P1  7948  0.05
      P1  H 10752 10765       L1    10  0.13

> <Gold.Chemscore.Hbond.Weighted>
-8.1905

> <Gold.Chemscore.Metal.Weighted>
-0.0000

> <Gold.Chemscore.Lipo.Weighted>
-11.4994

> <Gold.Chemscore.Internal_Hbond.Weighted>
0.0000

> <Gold.Chemscore.DEClash.Weighted>
0.0554

> <Gold.Chemscore.DEInternal.Weighted>
0.9751

> <Gold.Chemscore.Rot.Weighted>
7.7386

> <Gold.Chemscore.Internal.Correction.Weighted>
   9.000000E+99

> <Gold.Protein.RotatedTorsions>
[ 6907 6896 6895 6894 ] final  179.70 input  -60.11 | X-H torsion
[ 7974 7965 7964 7962 ] final -149.36 input  175.53 | X-H torsion
[ 8008 7997 7996 7995 ] final    3.50 input   59.86 | X-H torsion
[ 10167 10162 10161 10158 ] final   95.45 input  -65.29 | X-H torsion
[ 10718 10713 10712 10709 ] final  -78.40 input   66.30 | X-H torsion
[ 10763 10752 10751 10750 ] final  176.27 input  -60.55 | X-H torsion
[ 11005 11000 10999 10996 ] final -137.72 input  -57.11 | X-H torsion

> <Gold.Protein.ActiveResidues>
 VAL166  LYS551  ARG553  GLY616  TRP617  ASP618  TYR619  PRO620  LYS621  CYS622 
 ASP623  PHE694  ASN695  SER759  ASP760  ASP761  ALA762  ILE779  LEU786  VAL792 
 PHE793  MET794  SER795  GLU796  ALA797  LYS798  CYS799  TRP800  GLU811  SER814 

> <Gold.Protein.RotatedAtoms>
  151.6675  133.3315  159.3188 H   0  0  0  0  0  0  0  0  0  0  0  0  # atno 6907 bound_to 6896
  150.7884  134.6891  159.6496 H   0  0  0  0  0  0  0  0  0  0  0  0  # atno 6908 bound_to 6896
  152.3958  134.6371  160.0142 H   0  0  0  0  0  0  0  0  0  0  0  0  # atno 6909 bound_to 6896
  144.7972  140.5075  143.5732 H   0  0  0  0  0  0  0  0  0  0  0  0  # atno 7974 bound_to 7965
  154.7044  140.2680  155.6688 H   0  0  0  0  0  0  0  0  0  0  0  0  # atno 8008 bound_to 7997
  156.2775  140.2765  156.1590 H   0  0  0  0  0  0  0  0  0  0  0  0  # atno 8009 bound_to 7997
  155.0720  140.0372  157.2601 H   0  0  0  0  0  0  0  0  0  0  0  0  # atno 8010 bound_to 7997
  139.7987  144.6822  150.9794 H   0  0  0  0  0  0  0  0  0  0  0  0  # atno 10167 bound_to 10162
  156.0118  130.4517  150.3491 H   0  0  0  0  0  0  0  0  0  0  0  0  # atno 10718 bound_to 10713
  154.4788  135.2774  155.1586 H   0  0  0  0  0  0  0  0  0  0  0  0  # atno 10763 bound_to 10752
  154.3305  135.6191  153.5553 H   0  0  0  0  0  0  0  0  0  0  0  0  # atno 10764 bound_to 10752
  152.9873  135.5764  154.5185 H   0  0  0  0  0  0  0  0  0  0  0  0  # atno 10765 bound_to 10752
  140.8684  134.2081  157.4665 H   0  0  0  0  0  0  0  0  0  0  0  0  # atno 11005 bound_to 11000
  145.5643  139.1480  143.3324 LP  0  0  0  0  0  0  0  0  0  0  0  0  # atno 17320 bound_to 7965
  146.2244  140.5778  142.9003 LP  0  0  0  0  0  0  0  0  0  0  0  0  # atno 17321 bound_to 7965
  140.7820  143.4304  151.0703 LP  0  0  0  0  0  0  0  0  0  0  0  0  # atno 17342 bound_to 10162
  139.7977  143.8128  152.3159 LP  0  0  0  0  0  0  0  0  0  0  0  0  # atno 17343 bound_to 10162
  157.1584  131.0338  151.2852 LP  0  0  0  0  0  0  0  0  0  0  0  0  # atno 17370 bound_to 10713
  157.4332  130.7502  149.7007 LP  0  0  0  0  0  0  0  0  0  0  0  0  # atno 17371 bound_to 10713
  139.8710  134.9763  156.4915 LP  0  0  0  0  0  0  0  0  0  0  0  0  # atno 17394 bound_to 11000
  140.8601  133.8066  155.9256 LP  0  0  0  0  0  0  0  0  0  0  0  0  # atno 17395 bound_to 11000

$$$$
