AV-unprocessed.smi:2409|AV-procd|sdf|9525|dock5
  -GOLD-   2272013153D 1   1.00000     0.00000
 Structure written by MMmdl.
 35 36  0  0  0  0  0  0  0  0  1 V2000
  147.5855  140.8363  153.8584 C   0  0  0  0  0  0  0  0  0  0  0  0
  148.0029  139.8426  154.7787 O   0  0  0  0  0  0  0  0  0  0  0  0
  149.3434  139.6911  154.8360 C   0  0  0  0  0  0  0  0  0  0  0  0
  150.1521  138.6118  154.6109 C   0  0  0  0  0  0  0  0  0  0  0  0
  149.8199  137.2832  154.2443 N   0  0  0  0  0  0  0  0  0  0  0  0
  149.8259  136.1885  155.0272 C   0  0  0  0  0  0  0  0  0  0  0  0
  150.0883  136.1962  156.2278 O   0  0  0  0  0  0  0  0  0  0  0  0
  149.4540  135.0579  154.4012 N   0  0  0  0  0  0  0  0  0  0  0  0
  149.3588  133.7406  154.9547 C   0  0  1  0  0  0  0  0  0  0  0  0
  148.0063  133.0684  154.8718 C   0  0  0  0  0  0  0  0  0  0  0  0
  149.1387  132.5777  154.0095 C   0  0  2  0  0  0  0  0  0  0  0  0
  149.7683  131.2290  154.2816 C   0  0  0  0  0  0  0  0  0  0  0  0
  151.4686  139.0729  154.8885 C   0  0  0  0  0  0  0  0  0  0  0  0
  152.7687  138.3223  154.8409 C   0  0  0  0  0  0  0  0  0  0  0  0
  151.4667  140.3603  155.2150 N   0  0  0  0  0  0  0  0  0  0  0  0
  150.1673  140.7437  155.1762 N   0  0  0  0  0  0  0  0  0  0  0  0
  149.8165  142.1108  155.5013 C   0  0  0  0  0  0  0  0  0  0  0  0
  146.4976  140.9001  153.8585 H   0  0  0  0  0  0  0  0  0  0  0  0
  147.9086  140.5911  152.8457 H   0  0  0  0  0  0  0  0  0  0  0  0
  147.9791  141.8189  154.1211 H   0  0  0  0  0  0  0  0  0  0  0  0
  149.4713  137.1606  153.3050 H   0  0  0  0  0  0  0  0  0  0  0  0
  149.1353  135.1565  153.4481 H   0  0  0  0  0  0  0  0  0  0  0  0
  149.9130  133.5357  155.8697 H   0  0  0  0  0  0  0  0  0  0  0  0
  147.7045  132.4493  155.7145 H   0  0  0  0  0  0  0  0  0  0  0  0
  147.1978  133.6048  154.3783 H   0  0  0  0  0  0  0  0  0  0  0  0
  149.0730  132.8229  152.9508 H   0  0  0  0  0  0  0  0  0  0  0  0
  149.8037  131.0258  155.3524 H   0  0  0  0  0  0  0  0  0  0  0  0
  150.7855  131.2063  153.8905 H   0  0  0  0  0  0  0  0  0  0  0  0
  149.1907  130.4417  153.7969 H   0  0  0  0  0  0  0  0  0  0  0  0
  152.6200  137.2825  154.5490 H   0  0  0  0  0  0  0  0  0  0  0  0
  153.2580  138.3250  155.8150 H   0  0  0  0  0  0  0  0  0  0  0  0
  153.4538  138.7718  154.1220 H   0  0  0  0  0  0  0  0  0  0  0  0
  148.8325  142.3521  155.0982 H   0  0  0  0  0  0  0  0  0  0  0  0
  150.5485  142.7964  155.0731 H   0  0  0  0  0  0  0  0  0  0  0  0
  149.7981  142.2361  156.5840 H   0  0  0  0  0  0  0  0  0  0  0  0
  1  2  1  0  0  0  0
  1 18  1  0  0  0  0
  1 19  1  0  0  0  0
  1 20  1  0  0  0  0
  2  3  1  0  0  0  0
  3 16  1  0  0  0  0
  3  4  2  0  0  0  0
  4  5  1  0  0  0  0
  4 13  1  0  0  0  0
  5  6  1  0  0  0  0
  5 21  1  0  0  0  0
  6  7  2  0  0  0  0
  6  8  1  0  0  0  0
  8  9  1  0  0  0  0
  8 22  1  0  0  0  0
  9 11  1  0  0  0  0
  9 10  1  0  0  0  0
  9 23  1  0  0  0  0
 10 11  1  0  0  0  0
 10 24  1  0  0  0  0
 10 25  1  0  0  0  0
 11 12  1  0  0  0  0
 11 26  1  0  0  0  0
 12 27  1  0  0  0  0
 12 28  1  0  0  0  0
 12 29  1  0  0  0  0
 13 14  1  0  0  0  0
 13 15  2  0  0  0  0
 14 30  1  0  0  0  0
 14 31  1  0  0  0  0
 14 32  1  0  0  0  0
 15 16  1  0  0  0  0
 16 17  1  0  0  0  0
 17 33  1  0  0  0  0
 17 34  1  0  0  0  0
 17 35  1  0  0  0  0
M  END
> <s_m_source_file>
AV-unprocessed.smi

> <i_m_source_file_index>
2409

> <i_lp_mmshare_version>
43012

> <i_f3d_flags>
0

> <s_epik_input>
W0NIM11uMW5jKFtDSDNdKWMoYzFPW0NIM10pW05IXUMoPU8pW05IXVtDQEBIXTJbQ0gyXVtDQEhdMltDSDNd

> <s_epik_cmdline>
J2VwaWtfcHl0aG9uJywgJy1waCcsICc3LjAnLCAnLXRuJywgJzgnLCAnLW1hJywgJzIwMCcsICctbWV0YWxfYmluZGluZycsICctaW1hZScsICc8aW5maWxlLm1hZT4nLCAnLW9tYWUnLCAnPG91dGZpbGUubWFlPic=

> <r_lp_tautomer_probability>
1

> <r_epik_Ionization_Penalty>
0.000417804

> <r_epik_Ionization_Penalty_Charging>
0

> <r_epik_Ionization_Penalty_Neutral>
0.000417804

> <r_epik_State_Penalty>
-0

> <r_epik_Charging_Adjusted_Penalty>
0

> <i_epik_Tot_Q>
0

> <i_epik_Tot_abs_Q>
0

> <r_epik_Metal_State_Penalty>
-0

> <b_epik_Metal_Only>
0

> <s_lp_Force_Field>
OPLS_2005

> <r_lp_Energy>
34.5155

> <b_lp_Chiralities_Consistent>
1

> <s_lp_Variant>
AV-unprocessed.smi:2409-4

> <Gold.Version>
5.8.1

> <Gold.Id.Protein>
6NUR|6NUR_protein|mol2

> <Gold.PLP.Fitness>
34.3153

> <Gold.PLP.PLP>
-28.8339

> <Gold.PLP.part.hbond>
-3.0763

> <Gold.PLP.part.metal>
0.0000

> <Gold.PLP.part.buried>
0.5614

> <Gold.PLP.part.nonpolar>
-26.5715

> <Gold.PLP.part.repulsive>
0.1833

> <Gold.PLP.ligand.clash>
0.0000

> <Gold.PLP.ligand.torsion>
0.7374

> <Gold.PLP.Chemscore.Hbond>
2.3068

> <Gold.PLP.Chemscore.CHOScore>
0.0000

> <Gold.PLP.Chemscore.Metal>
0.0000

> <Gold.Chemscore.Hbonds>
donor molecule, donor type, donor heavy atom, donor atom, acceptor molecule, acceptor atom, score
      L1  H     5    21       P1  7948  1.00
      L1  H     8    22       P1  7948  0.99
      P1  H  7989  7998       L1    15  0.31

> <Gold.PLP.Chemscore.Internal.Correction>
0.0359

> <Gold.Rescore>
     Score         DG    S(hbond)    S(metal)    S(lipo)     H(rot)  DE(clash)    DE(int)     intcor
     12.40     -14.33       1.54        0.00      58.71       1.23       0.23       1.70       ----

> <Gold.Chemscore.Fitness>
12.3981

> <Gold.Chemscore.DG>
-14.3323

> <Gold.Chemscore.ZeroCoef>
-5.4800

> <Gold.Chemscore.Hbond>
1.5358

> <Gold.Chemscore.Metal>
0.0000

> <Gold.Chemscore.Lipo>
58.7129

> <Gold.Chemscore.Internal_Hbond>
0.0000

> <Gold.Chemscore.DEClash>
0.2329

> <Gold.Chemscore.DEInternal>
1.7013

> <Gold.Chemscore.Rot>
1.2292

> <Gold.Chemscore.Internal.Correction>
   9.000000E+99

> <Gold.Chemscore.Hbonds>
donor molecule, donor type, donor heavy atom, donor atom, acceptor molecule, acceptor atom, score
      L1  H     5    21       P1  7948  0.87
      L1  H     8    22       P1  7948  0.24

> <Gold.Chemscore.Hbond.Weighted>
-5.1296

> <Gold.Chemscore.Metal.Weighted>
-0.0000

> <Gold.Chemscore.Lipo.Weighted>
-6.8694

> <Gold.Chemscore.Internal_Hbond.Weighted>
0.0000

> <Gold.Chemscore.DEClash.Weighted>
0.2329

> <Gold.Chemscore.DEInternal.Weighted>
1.7013

> <Gold.Chemscore.Rot.Weighted>
3.1467

> <Gold.Chemscore.Internal.Correction.Weighted>
   9.000000E+99

> <Gold.Protein.RotatedTorsions>
[ 6907 6896 6895 6894 ] final   80.35 input  -60.11 | X-H torsion
[ 7974 7965 7964 7962 ] final -179.84 input  175.53 | X-H torsion
[ 8008 7997 7996 7995 ] final  147.80 input   59.86 | X-H torsion
[ 10167 10162 10161 10158 ] final  172.51 input  -65.29 | X-H torsion
[ 10718 10713 10712 10709 ] final  173.85 input   66.30 | X-H torsion
[ 10763 10752 10751 10750 ] final -178.87 input  -60.55 | X-H torsion
[ 11005 11000 10999 10996 ] final  -66.59 input  -57.11 | X-H torsion

> <Gold.Protein.ActiveResidues>
 VAL166  LYS551  ARG553  GLY616  TRP617  ASP618  TYR619  PRO620  LYS621  CYS622 
 ASP623  PHE694  ASN695  SER759  ASP760  ASP761  ALA762  ILE779  LEU786  VAL792 
 PHE793  MET794  SER795  GLU796  ALA797  LYS798  CYS799  TRP800  GLU811  SER814 

> <Gold.Protein.RotatedAtoms>
  152.5232  134.3370  159.9203 H   0  0  0  0  0  0  0  0  0  0  0  0  # atno 6907 bound_to 6896
  151.3320  133.3990  159.2671 H   0  0  0  0  0  0  0  0  0  0  0  0  # atno 6908 bound_to 6896
  150.9873  134.9233  159.7937 H   0  0  0  0  0  0  0  0  0  0  0  0  # atno 6909 bound_to 6896
  144.7139  140.0658  143.6431 H   0  0  0  0  0  0  0  0  0  0  0  0  # atno 7974 bound_to 7965
  156.2813  140.2146  156.5595 H   0  0  0  0  0  0  0  0  0  0  0  0  # atno 8008 bound_to 7997
  154.7224  140.0502  157.0675 H   0  0  0  0  0  0  0  0  0  0  0  0  # atno 8009 bound_to 7997
  155.0460  140.3151  155.4711 H   0  0  0  0  0  0  0  0  0  0  0  0  # atno 8010 bound_to 7997
  139.5079  144.3365  152.0060 H   0  0  0  0  0  0  0  0  0  0  0  0  # atno 10167 bound_to 10162
  156.9582  131.0052  151.2933 H   0  0  0  0  0  0  0  0  0  0  0  0  # atno 10718 bound_to 10713
  154.5422  135.2807  155.1085 H   0  0  0  0  0  0  0  0  0  0  0  0  # atno 10763 bound_to 10752
  154.2563  135.6330  153.5262 H   0  0  0  0  0  0  0  0  0  0  0  0  # atno 10764 bound_to 10752
  152.9981  135.5595  154.5964 H   0  0  0  0  0  0  0  0  0  0  0  0  # atno 10765 bound_to 10752
  141.1486  133.6702  156.6163 H   0  0  0  0  0  0  0  0  0  0  0  0  # atno 11005 bound_to 11000
  145.9826  139.2952  143.1033 LP  0  0  0  0  0  0  0  0  0  0  0  0  # atno 17320 bound_to 7965
  145.8994  140.9253  143.0511 LP  0  0  0  0  0  0  0  0  0  0  0  0  # atno 17321 bound_to 7965
  140.2804  144.3866  150.6121 LP  0  0  0  0  0  0  0  0  0  0  0  0  # atno 17342 bound_to 10162
  140.6022  143.2167  151.7049 LP  0  0  0  0  0  0  0  0  0  0  0  0  # atno 17343 bound_to 10162
  157.5675  130.8288  149.8347 LP  0  0  0  0  0  0  0  0  0  0  0  0  # atno 17370 bound_to 10713
  156.0333  130.3758  150.1628 LP  0  0  0  0  0  0  0  0  0  0  0  0  # atno 17371 bound_to 10713
  140.3575  134.7716  157.4510 LP  0  0  0  0  0  0  0  0  0  0  0  0  # atno 17394 bound_to 11000
  140.0811  134.5729  155.8539 LP  0  0  0  0  0  0  0  0  0  0  0  0  # atno 17395 bound_to 11000

$$$$
