AV-unprocessed.smi:1419|AV-procd|sdf|5780|dock7
  -GOLD-   22720 5423D 1   1.00000     0.00000
 Structure written by MMmdl.
 41 42  0  0  0  0  0  0  0  0  1 V2000
  145.6775  132.1158  149.3302 C   0  0  0  0  0  0  0  0  0  0  0  0
  145.6502  131.9823  150.8586 C   0  0  2  0  0  0  0  0  0  0  0  0
  146.6857  132.9135  151.5245 C   0  0  0  0  0  0  0  0  0  0  0  0
  146.1616  134.2436  151.7792 N   0  0  0  0  0  0  0  0  0  0  0  0
  145.5650  135.0974  150.8604 C   0  0  0  0  0  0  0  0  0  0  0  0
  145.2438  136.2482  151.5438 C   0  0  0  0  0  0  0  0  0  0  0  0
  145.6231  136.1219  152.8780 N   0  0  0  0  0  0  0  0  0  0  0  0
  146.1557  134.9084  152.9429 C   0  0  0  0  0  0  0  0  0  0  0  0
  145.9064  130.5893  151.2232 N   0  0  0  0  0  0  0  0  0  0  0  0
  146.1668  130.1344  152.4617 C   0  0  0  0  0  0  0  0  0  0  0  0
  146.1011  130.8581  153.4563 O   0  0  0  0  0  0  0  0  0  0  0  0
  146.5016  128.8222  152.5222 N   0  0  0  0  0  0  0  0  0  0  0  0
  146.9207  127.9751  151.3975 C   0  0  0  0  0  0  0  0  0  0  0  0
  148.4504  127.7970  151.4814 C   0  0  2  0  0  0  0  0  0  0  0  0
  148.9904  126.8845  150.3756 C   0  0  0  0  0  0  0  0  0  0  0  0
  148.7837  127.2153  152.7421 O   0  0  0  0  0  0  0  0  0  0  0  0
  148.3449  127.9789  153.8661 C   0  0  2  0  0  0  0  0  0  0  0  0
  148.7812  127.2508  155.1416 C   0  0  0  0  0  0  0  0  0  0  0  0
  146.8146  128.1549  153.7874 C   0  0  0  0  0  0  0  0  0  0  0  0
  145.4607  133.1393  149.0229 H   0  0  0  0  0  0  0  0  0  0  0  0
  144.9328  131.4685  148.8656 H   0  0  0  0  0  0  0  0  0  0  0  0
  146.6534  131.8466  148.9244 H   0  0  0  0  0  0  0  0  0  0  0  0
  144.6534  132.2789  151.1895 H   0  0  0  0  0  0  0  0  0  0  0  0
  147.0295  132.4881  152.4685 H   0  0  0  0  0  0  0  0  0  0  0  0
  147.5657  133.0136  150.8878 H   0  0  0  0  0  0  0  0  0  0  0  0
  145.4295  134.8267  149.8237 H   0  0  0  0  0  0  0  0  0  0  0  0
  144.7720  137.1494  151.1811 H   0  0  0  0  0  0  0  0  0  0  0  0
  146.5610  134.4973  153.8558 H   0  0  0  0  0  0  0  0  0  0  0  0
  145.9591  129.9267  150.4634 H   0  0  0  0  0  0  0  0  0  0  0  0
  146.4238  127.0065  151.4736 H   0  0  0  0  0  0  0  0  0  0  0  0
  146.6416  128.3694  150.4205 H   0  0  0  0  0  0  0  0  0  0  0  0
  148.9391  128.7693  151.4002 H   0  0  0  0  0  0  0  0  0  0  0  0
  148.7734  127.2928  149.3884 H   0  0  0  0  0  0  0  0  0  0  0  0
  148.5456  125.8905  150.4328 H   0  0  0  0  0  0  0  0  0  0  0  0
  150.0715  126.7711  150.4581 H   0  0  0  0  0  0  0  0  0  0  0  0
  148.8291  128.9571  153.8402 H   0  0  0  0  0  0  0  0  0  0  0  0
  148.4786  127.8040  156.0309 H   0  0  0  0  0  0  0  0  0  0  0  0
  149.8650  127.1377  155.1735 H   0  0  0  0  0  0  0  0  0  0  0  0
  148.3399  126.2554  155.1991 H   0  0  0  0  0  0  0  0  0  0  0  0
  146.4513  128.7083  154.6547 H   0  0  0  0  0  0  0  0  0  0  0  0
  146.3157  127.1850  153.8219 H   0  0  0  0  0  0  0  0  0  0  0  0
  1  2  1  0  0  0  0
  1 20  1  0  0  0  0
  1 21  1  0  0  0  0
  1 22  1  0  0  0  0
  2  3  1  0  0  0  0
  2  9  1  0  0  0  0
  2 23  1  0  0  0  0
  3  4  1  0  0  0  0
  3 24  1  0  0  0  0
  3 25  1  0  0  0  0
  4  8  1  0  0  0  0
  4  5  1  0  0  0  0
  5  6  2  0  0  0  0
  5 26  1  0  0  0  0
  6  7  1  0  0  0  0
  6 27  1  0  0  0  0
  7  8  2  0  0  0  0
  8 28  1  0  0  0  0
  9 10  1  0  0  0  0
  9 29  1  0  0  0  0
 10 11  2  0  0  0  0
 10 12  1  0  0  0  0
 12 19  1  0  0  0  0
 12 13  1  0  0  0  0
 13 14  1  0  0  0  0
 13 30  1  0  0  0  0
 13 31  1  0  0  0  0
 14 15  1  0  0  0  0
 14 16  1  0  0  0  0
 14 32  1  0  0  0  0
 15 33  1  0  0  0  0
 15 34  1  0  0  0  0
 15 35  1  0  0  0  0
 16 17  1  0  0  0  0
 17 18  1  0  0  0  0
 17 19  1  0  0  0  0
 17 36  1  0  0  0  0
 18 37  1  0  0  0  0
 18 38  1  0  0  0  0
 18 39  1  0  0  0  0
 19 40  1  0  0  0  0
 19 41  1  0  0  0  0
M  END
> <s_m_source_file>
AV-unprocessed.smi

> <i_m_source_file_index>
1419

> <i_lp_mmshare_version>
43012

> <i_f3d_flags>
0

> <s_epik_input>
W2NIXTFuW2NIXVtjSF1uMVtDSDJdW0NAQEhdKFtDSDNdKVtOSF1DKD1PKU4yW0NIMl1bQ0BASF0oW0NIM10pT1tDQEBIXShbQ0gzXSlbQ0gyXTI=

> <s_epik_cmdline>
J2VwaWtfcHl0aG9uJywgJy1waCcsICc3LjAnLCAnLXRuJywgJzgnLCAnLW1hJywgJzIwMCcsICctbWV0YWxfYmluZGluZycsICctaW1hZScsICc8aW5maWxlLm1hZT4nLCAnLW9tYWUnLCAnPG91dGZpbGUubWFlPic=

> <r_lp_tautomer_probability>
1

> <r_epik_Ionization_Penalty>
0.625124

> <r_epik_Ionization_Penalty_Charging>
0.625093

> <r_epik_Ionization_Penalty_Neutral>
3.17415e-05

> <r_epik_State_Penalty>
0.641455

> <r_epik_Charging_Adjusted_Penalty>
1.26655

> <i_epik_Tot_Q>
0

> <i_epik_Tot_abs_Q>
0

> <r_epik_Metal_State_Penalty>
0.307717

> <b_epik_Metal_Only>
0

> <s_lp_Force_Field>
OPLS_2005

> <r_lp_Energy>
27.7679

> <b_lp_Chiralities_Consistent>
1

> <s_lp_Variant>
AV-unprocessed.smi:1419-7

> <Gold.Version>
5.8.1

> <Gold.Id.Protein>
6NUR|6NUR_protein|mol2

> <Gold.PLP.Fitness>
40.7994

> <Gold.PLP.PLP>
-35.8693

> <Gold.PLP.part.hbond>
-0.4440

> <Gold.PLP.part.metal>
0.0000

> <Gold.PLP.part.buried>
-2.9852

> <Gold.PLP.part.nonpolar>
-31.7555

> <Gold.PLP.part.repulsive>
0.4893

> <Gold.PLP.ligand.clash>
0.0000

> <Gold.PLP.ligand.torsion>
0.5747

> <Gold.PLP.Chemscore.Hbond>
0.0000

> <Gold.PLP.Chemscore.CHOScore>
2.0000

> <Gold.PLP.Chemscore.Metal>
0.0000

> <Gold.Chemscore.Hbonds>
donor molecule, donor type, donor heavy atom, donor atom, acceptor molecule, acceptor atom, score
      L1  C     5    26       P1  7921  1.00
      L1  C     6    27       P1 10171  1.00

> <Gold.PLP.Chemscore.Internal.Correction>
0.0795

> <Gold.Rescore>
     Score         DG    S(hbond)    S(metal)    S(lipo)     H(rot)  DE(clash)    DE(int)     intcor
      9.41     -11.17       0.00        0.00      83.13       1.58       0.06       1.70       ----

> <Gold.Chemscore.Fitness>
9.4145

> <Gold.Chemscore.DG>
-11.1696

> <Gold.Chemscore.ZeroCoef>
-5.4800

> <Gold.Chemscore.Hbond>
0.0000

> <Gold.Chemscore.Metal>
0.0000

> <Gold.Chemscore.Lipo>
83.1329

> <Gold.Chemscore.Internal_Hbond>
0.0000

> <Gold.Chemscore.DEClash>
0.0594

> <Gold.Chemscore.DEInternal>
1.6958

> <Gold.Chemscore.Rot>
1.5769

> <Gold.Chemscore.Internal.Correction>
   9.000000E+99

> <Gold.Chemscore.Hbond.Weighted>
-0.0000

> <Gold.Chemscore.Metal.Weighted>
-0.0000

> <Gold.Chemscore.Lipo.Weighted>
-9.7265

> <Gold.Chemscore.Internal_Hbond.Weighted>
0.0000

> <Gold.Chemscore.DEClash.Weighted>
0.0594

> <Gold.Chemscore.DEInternal.Weighted>
1.6958

> <Gold.Chemscore.Rot.Weighted>
4.0369

> <Gold.Chemscore.Internal.Correction.Weighted>
   9.000000E+99

> <Gold.Protein.RotatedTorsions>
[ 6907 6896 6895 6894 ] final -170.03 input  -60.11 | X-H torsion
[ 7974 7965 7964 7962 ] final  128.46 input  175.53 | X-H torsion
[ 8008 7997 7996 7995 ] final  141.39 input   59.86 | X-H torsion
[ 10167 10162 10161 10158 ] final -118.23 input  -65.29 | X-H torsion
[ 10718 10713 10712 10709 ] final   64.82 input   66.30 | X-H torsion
[ 10763 10752 10751 10750 ] final  123.75 input  -60.55 | X-H torsion
[ 11005 11000 10999 10996 ] final   15.15 input  -57.11 | X-H torsion

> <Gold.Protein.ActiveResidues>
 VAL166  LYS551  ARG553  GLY616  TRP617  ASP618  TYR619  PRO620  LYS621  CYS622 
 ASP623  PHE694  ASN695  SER759  ASP760  ASP761  ALA762  ILE779  LEU786  VAL792 
 PHE793  MET794  SER795  GLU796  ALA797  LYS798  CYS799  TRP800  GLU811  SER814 

> <Gold.Protein.RotatedAtoms>
  151.5012  133.3504  159.2869 H   0  0  0  0  0  0  0  0  0  0  0  0  # atno 6907 bound_to 6896
  150.8772  134.8159  159.7209 H   0  0  0  0  0  0  0  0  0  0  0  0  # atno 6908 bound_to 6896
  152.4738  134.4905  159.9745 H   0  0  0  0  0  0  0  0  0  0  0  0  # atno 6909 bound_to 6896
  145.0393  139.3977  143.5110 H   0  0  0  0  0  0  0  0  0  0  0  0  # atno 7974 bound_to 7965
  156.2966  140.2316  156.4557 H   0  0  0  0  0  0  0  0  0  0  0  0  # atno 8008 bound_to 7997
  154.8062  140.0445  157.1330 H   0  0  0  0  0  0  0  0  0  0  0  0  # atno 8009 bound_to 7997
  154.9476  140.3037  155.5094 H   0  0  0  0  0  0  0  0  0  0  0  0  # atno 8010 bound_to 7997
  140.0597  143.4980  152.2038 H   0  0  0  0  0  0  0  0  0  0  0  0  # atno 10167 bound_to 10162
  157.6065  130.9180  149.9895 H   0  0  0  0  0  0  0  0  0  0  0  0  # atno 10718 bound_to 10713
  153.6505  135.3363  155.3098 H   0  0  0  0  0  0  0  0  0  0  0  0  # atno 10763 bound_to 10752
  154.8539  135.4340  154.1909 H   0  0  0  0  0  0  0  0  0  0  0  0  # atno 10764 bound_to 10752
  153.2851  135.7012  153.7422 H   0  0  0  0  0  0  0  0  0  0  0  0  # atno 10765 bound_to 10752
  140.4616  134.1122  155.7717 H   0  0  0  0  0  0  0  0  0  0  0  0  # atno 11005 bound_to 11000
  146.3507  139.9985  142.8678 LP  0  0  0  0  0  0  0  0  0  0  0  0  # atno 17320 bound_to 7965
  145.1668  140.9701  143.4345 LP  0  0  0  0  0  0  0  0  0  0  0  0  # atno 17321 bound_to 7965
  139.5901  144.7547  151.3421 LP  0  0  0  0  0  0  0  0  0  0  0  0  # atno 17342 bound_to 10162
  140.7178  143.7220  150.7689 LP  0  0  0  0  0  0  0  0  0  0  0  0  # atno 17343 bound_to 10162
  156.1153  130.3648  149.9979 LP  0  0  0  0  0  0  0  0  0  0  0  0  # atno 17370 bound_to 10713
  156.8070  130.9311  151.3645 LP  0  0  0  0  0  0  0  0  0  0  0  0  # atno 17371 bound_to 10713
  141.1619  133.8777  157.1825 LP  0  0  0  0  0  0  0  0  0  0  0  0  # atno 17394 bound_to 11000
  139.9942  135.0053  157.0044 LP  0  0  0  0  0  0  0  0  0  0  0  0  # atno 17395 bound_to 11000

$$$$
