AV-unprocessed.smi:158|AV-procd|sdf|1327|dock4
  -GOLD-   2262019 23D 1   1.00000     0.00000
 Structure written by MMmdl.
 31 33  0  0  0  0  0  0  0  0  1 V2000
  152.5192  140.4323  158.8634 N   0  0  0  0  0  0  0  0  0  0  0  0
  152.1275  140.2502  157.5942 C   0  0  0  0  0  0  0  0  0  0  0  0
  152.8885  139.4710  156.7917 N   0  0  0  0  0  0  0  0  0  0  0  0
  152.5298  139.2610  155.5199 C   0  0  0  0  0  0  0  0  0  0  0  0
  153.5696  138.2545  154.5823 Cl  0  0  0  0  0  0  0  0  0  0  0  0
  151.4545  139.7449  154.8917 N   0  0  0  0  0  0  0  0  0  0  0  0
  150.6843  140.5387  155.6915 C   0  0  0  0  0  0  0  0  0  0  0  0
  150.9549  140.8345  157.0555 C   0  0  0  0  0  0  0  0  0  0  0  0
  149.9655  141.6602  157.5686 N   0  0  0  0  0  0  0  0  0  0  0  0
  149.1575  141.8416  156.5595 C   0  0  0  0  0  0  0  0  0  0  0  0
  149.5144  141.2124  155.3858 N   0  0  0  0  0  0  0  0  0  0  0  0
  148.7626  141.2585  154.0842 C   0  0  2  0  0  0  0  0  0  0  0  0
  147.9010  142.3604  154.0876 O   0  0  0  0  0  0  0  0  0  0  0  0
  146.5438  141.9381  153.9368 C   0  0  2  0  0  0  0  0  0  0  0  0
  145.5651  142.8906  154.6472 C   0  0  0  0  0  0  0  0  0  0  0  0
  144.2514  142.3768  154.5835 O   0  0  0  0  0  0  0  0  0  0  0  0
  146.5193  140.4628  154.3644 C   0  0  2  0  0  0  0  0  0  0  0  0
  146.3642  140.3167  155.7643 O   0  0  0  0  0  0  0  0  0  0  0  0
  147.8881  140.0095  153.8914 C   0  0  2  0  0  0  0  0  0  0  0  0
  148.3602  138.9291  154.5184 F   0  0  0  0  0  0  0  0  0  0  0  0
  149.5432  141.3642  153.3301 H   0  0  0  0  0  0  0  0  0  0  0  0
  146.3455  141.9784  152.8641 H   0  0  0  0  0  0  0  0  0  0  0  0
  145.7171  139.9120  153.8721 H   0  0  0  0  0  0  0  0  0  0  0  0
  147.8563  139.7814  152.8253 H   0  0  0  0  0  0  0  0  0  0  0  0
  151.9669  141.0095  159.4814 H   0  0  0  0  0  0  0  0  0  0  0  0
  153.3652  139.9946  159.1984 H   0  0  0  0  0  0  0  0  0  0  0  0
  148.2704  142.4528  156.6407 H   0  0  0  0  0  0  0  0  0  0  0  0
  145.8417  143.0608  155.6873 H   0  0  0  0  0  0  0  0  0  0  0  0
  145.5739  143.8634  154.1553 H   0  0  0  0  0  0  0  0  0  0  0  0
  144.2640  141.5852  154.0671 H   0  0  0  0  0  0  0  0  0  0  0  0
  146.6690  141.1069  156.1834 H   0  0  0  0  0  0  0  0  0  0  0  0
  1  2  1  0  0  0  0
  1 25  1  0  0  0  0
  1 26  1  0  0  0  0
  2  8  1  0  0  0  0
  2  3  2  0  0  0  0
  3  4  1  0  0  0  0
  4  5  1  0  0  0  0
  4  6  2  0  0  0  0
  6  7  1  0  0  0  0
  7 11  1  0  0  0  0
  7  8  2  0  0  0  0
  8  9  1  0  0  0  0
  9 10  2  0  0  0  0
 10 11  1  0  0  0  0
 10 27  1  0  0  0  0
 11 12  1  0  0  0  0
 12 21  1  0  0  0  0
 12 19  1  0  0  0  0
 12 13  1  0  0  0  0
 13 14  1  0  0  0  0
 14 22  1  0  0  0  0
 14 15  1  0  0  0  0
 14 17  1  0  0  0  0
 15 16  1  0  0  0  0
 15 28  1  0  0  0  0
 15 29  1  0  0  0  0
 16 30  1  0  0  0  0
 17 23  1  0  0  0  0
 17 18  1  0  0  0  0
 17 19  1  0  0  0  0
 18 31  1  0  0  0  0
 19 24  1  0  0  0  0
 19 20  1  0  0  0  0
M  END
> <s_m_source_file>
AV-unprocessed.smi

> <i_m_source_file_index>
158

> <i_lp_mmshare_version>
43012

> <i_f3d_flags>
0

> <s_epik_input>
Q2xjKG4xKW5jKFtOSDJdKWMoYzEyKW5bY0hdbjJbQ0BASF0zT1tDQEhdKFtDSDJdW09IXSlbQ0BASF0oW09IXSlbQ0BASF0zRg==

> <s_epik_cmdline>
J2VwaWtfcHl0aG9uJywgJy1waCcsICc3LjAnLCAnLXRuJywgJzgnLCAnLW1hJywgJzIwMCcsICctbWV0YWxfYmluZGluZycsICctaW1hZScsICc8aW5maWxlLm1hZT4nLCAnLW9tYWUnLCAnPG91dGZpbGUubWFlPic=

> <r_lp_tautomer_probability>
1

> <r_epik_Ionization_Penalty>
6.51543e-05

> <r_epik_Ionization_Penalty_Charging>
0

> <r_epik_Ionization_Penalty_Neutral>
6.51543e-05

> <r_epik_State_Penalty>
-0

> <r_epik_Charging_Adjusted_Penalty>
0

> <i_epik_Tot_Q>
0

> <i_epik_Tot_abs_Q>
0

> <r_epik_Metal_State_Penalty>
-0

> <b_epik_Metal_Only>
0

> <s_epik_Chemistry_Notes>
This compound contains an acetal/aminal-like group ( X-CH(R)-Y where X, Y are N, S, or O) that may be acid/base labile, releasing an aldehyde.

> <s_lp_Force_Field>
OPLS_2005

> <r_lp_Energy>
41.2985

> <b_lp_Chiralities_Consistent>
1

> <s_lp_Variant>
AV-unprocessed.smi:158-5

> <Gold.Version>
5.8.1

> <Gold.Id.Protein>
6NUR|6NUR_protein|mol2

> <Gold.PLP.Fitness>
40.5757

> <Gold.PLP.PLP>
-30.4398

> <Gold.PLP.part.hbond>
-4.6708

> <Gold.PLP.part.metal>
0.0000

> <Gold.PLP.part.buried>
2.1759

> <Gold.PLP.part.nonpolar>
-27.3261

> <Gold.PLP.part.repulsive>
1.3387

> <Gold.PLP.ligand.clash>
0.0000

> <Gold.PLP.ligand.torsion>
0.5841

> <Gold.PLP.Chemscore.Hbond>
2.9920

> <Gold.PLP.Chemscore.CHOScore>
0.5011

> <Gold.PLP.Chemscore.Metal>
0.0000

> <Gold.Chemscore.Hbonds>
donor molecule, donor type, donor heavy atom, donor atom, acceptor molecule, acceptor atom, score
      L1  H    16    30       P1 10175  0.85
      P1  H  7989  7998       L1     6  0.95
      P1  H  7997  8010       L1     3  1.00
      L1  C    10    27       P1  8028  0.53

> <Gold.PLP.Chemscore.Internal.Correction>
0.8248

> <Gold.Rescore>
     Score         DG    S(hbond)    S(metal)    S(lipo)     H(rot)  DE(clash)    DE(int)     intcor
      6.65      -7.91       1.97        0.00      32.90       3.12       0.04       1.22       ----

> <Gold.Chemscore.Fitness>
6.6550

> <Gold.Chemscore.DG>
-7.9106

> <Gold.Chemscore.ZeroCoef>
-5.4800

> <Gold.Chemscore.Hbond>
1.9690

> <Gold.Chemscore.Metal>
0.0000

> <Gold.Chemscore.Lipo>
32.8980

> <Gold.Chemscore.Internal_Hbond>
0.0000

> <Gold.Chemscore.DEClash>
0.0375

> <Gold.Chemscore.DEInternal>
1.2181

> <Gold.Chemscore.Rot>
3.1230

> <Gold.Chemscore.Internal.Correction>
   9.000000E+99

> <Gold.Chemscore.Hbonds>
donor molecule, donor type, donor heavy atom, donor atom, acceptor molecule, acceptor atom, score
      L1  H    16    30       P1 10175  0.13
      P1  H  7989  7998       L1     6  0.21
      P1  H  7997  8010       L1     3  0.37

> <Gold.Chemscore.Hbond.Weighted>
-6.5765

> <Gold.Chemscore.Metal.Weighted>
-0.0000

> <Gold.Chemscore.Lipo.Weighted>
-3.8491

> <Gold.Chemscore.Internal_Hbond.Weighted>
0.0000

> <Gold.Chemscore.DEClash.Weighted>
0.0375

> <Gold.Chemscore.DEInternal.Weighted>
1.2181

> <Gold.Chemscore.Rot.Weighted>
7.9950

> <Gold.Chemscore.Internal.Correction.Weighted>
   9.000000E+99

> <Gold.Protein.RotatedTorsions>
[ 6907 6896 6895 6894 ] final   86.30 input  -60.11 | X-H torsion
[ 7974 7965 7964 7962 ] final -162.59 input  175.53 | X-H torsion
[ 8008 7997 7996 7995 ] final   54.19 input   59.86 | X-H torsion
[ 10167 10162 10161 10158 ] final   21.84 input  -65.29 | X-H torsion
[ 10718 10713 10712 10709 ] final    5.04 input   66.30 | X-H torsion
[ 10763 10752 10751 10750 ] final  122.39 input  -60.55 | X-H torsion
[ 11005 11000 10999 10996 ] final  -75.63 input  -57.11 | X-H torsion

> <Gold.Protein.ActiveResidues>
 VAL166  LYS551  ARG553  GLY616  TRP617  ASP618  TYR619  PRO620  LYS621  CYS622 
 ASP623  PHE694  ASN695  SER759  ASP760  ASP761  ALA762  ILE779  LEU786  VAL792 
 PHE793  MET794  SER795  GLU796  ALA797  LYS798  CYS799  TRP800  GLU811  SER814 

> <Gold.Protein.RotatedAtoms>
  152.5392  134.2452  159.8877 H   0  0  0  0  0  0  0  0  0  0  0  0  # atno 6907 bound_to 6896
  151.2417  133.4389  159.2615 H   0  0  0  0  0  0  0  0  0  0  0  0  # atno 6908 bound_to 6896
  151.0620  134.9757  159.8321 H   0  0  0  0  0  0  0  0  0  0  0  0  # atno 6909 bound_to 6896
  144.7353  140.3231  143.6167 H   0  0  0  0  0  0  0  0  0  0  0  0  # atno 7974 bound_to 7965
  155.4806  140.3468  155.4339 H   0  0  0  0  0  0  0  0  0  0  0  0  # atno 8008 bound_to 7997
  156.1042  140.1443  156.9456 H   0  0  0  0  0  0  0  0  0  0  0  0  # atno 8009 bound_to 7997
  154.4713  140.0900  156.7130 H   0  0  0  0  0  0  0  0  0  0  0  0  # atno 8010 bound_to 7997
  140.5395  143.9702  150.6511 H   0  0  0  0  0  0  0  0  0  0  0  0  # atno 10167 bound_to 10162
  156.9015  130.5723  149.5648 H   0  0  0  0  0  0  0  0  0  0  0  0  # atno 10718 bound_to 10713
  153.6290  135.3399  155.3035 H   0  0  0  0  0  0  0  0  0  0  0  0  # atno 10763 bound_to 10752
  154.8584  135.4291  154.2126 H   0  0  0  0  0  0  0  0  0  0  0  0  # atno 10764 bound_to 10752
  153.3017  135.7025  153.7270 H   0  0  0  0  0  0  0  0  0  0  0  0  # atno 10765 bound_to 10752
  141.1647  133.6954  156.7546 H   0  0  0  0  0  0  0  0  0  0  0  0  # atno 11005 bound_to 11000
  145.7548  139.1805  143.2300 LP  0  0  0  0  0  0  0  0  0  0  0  0  # atno 17320 bound_to 7965
  146.1032  140.7518  142.9539 LP  0  0  0  0  0  0  0  0  0  0  0  0  # atno 17321 bound_to 7965
  140.3099  143.3205  152.0889 LP  0  0  0  0  0  0  0  0  0  0  0  0  # atno 17342 bound_to 10162
  139.4983  144.6643  151.6393 LP  0  0  0  0  0  0  0  0  0  0  0  0  # atno 17343 bound_to 10162
  156.0579  130.5637  150.9132 LP  0  0  0  0  0  0  0  0  0  0  0  0  # atno 17370 bound_to 10713
  157.6023  131.0940  150.8939 LP  0  0  0  0  0  0  0  0  0  0  0  0  # atno 17371 bound_to 10713
  140.2578  134.8490  157.3730 LP  0  0  0  0  0  0  0  0  0  0  0  0  # atno 17394 bound_to 11000
  140.1640  134.4693  155.7875 LP  0  0  0  0  0  0  0  0  0  0  0  0  # atno 17395 bound_to 11000

$$$$
