AV-unprocessed.smi:1527|AV-procd|sdf|6149|dock6
  -GOLD-   22720 6293D 1   1.00000     0.00000
 Structure written by MMmdl.
 31 31  0  0  0  0  0  0  0  0  1 V2000
  153.4370  141.9366  161.8719 C   0  0  0  0  0  0  0  0  0  0  0  0
  153.9883  141.3746  160.5530 C   0  0  0  0  0  0  0  0  0  0  0  0
  153.2040  141.8372  159.3111 C   0  0  2  0  0  0  0  0  0  0  0  0
  152.4502  143.1508  159.5673 C   0  0  0  0  0  0  0  0  0  0  0  0
  152.2630  140.7997  158.8955 N   0  0  0  0  0  0  0  0  0  0  0  0
  152.5872  139.6456  158.2927 C   0  0  0  0  0  0  0  0  0  0  0  0
  153.7401  139.3429  157.9821 O   0  0  0  0  0  0  0  0  0  0  0  0
  151.4209  138.6991  157.9763 C   0  0  0  0  0  0  0  0  0  0  0  0
  151.1963  138.5328  156.5336 N   0  0  0  0  0  0  0  0  0  0  0  0
  150.5082  139.5806  155.9408 N   0  0  0  0  0  0  0  0  0  0  0  0
  150.2609  139.5545  154.6749 C   0  0  0  0  0  0  0  0  0  0  0  0
  149.5807  140.6149  154.1285 O   0  0  0  0  0  0  0  0  0  0  0  0
  150.6848  138.4436  153.8515 C   0  0  0  0  0  0  0  0  0  0  0  0
  151.3514  137.4257  154.4387 C   0  0  0  0  0  0  0  0  0  0  0  0
  151.6506  137.4240  155.8717 C   0  0  0  0  0  0  0  0  0  0  0  0
  152.2558  136.5106  156.4331 O   0  0  0  0  0  0  0  0  0  0  0  0
  149.6054  140.4735  153.1946 H   0  0  0  0  0  0  0  0  0  0  0  0
  153.9970  141.5472  162.7222 H   0  0  0  0  0  0  0  0  0  0  0  0
  152.3909  141.6616  162.0093 H   0  0  0  0  0  0  0  0  0  0  0  0
  153.5036  143.0243  161.9053 H   0  0  0  0  0  0  0  0  0  0  0  0
  155.0383  141.6526  160.4535 H   0  0  0  0  0  0  0  0  0  0  0  0
  153.9674  140.2854  160.6040 H   0  0  0  0  0  0  0  0  0  0  0  0
  153.9279  142.0153  158.5137 H   0  0  0  0  0  0  0  0  0  0  0  0
  153.1366  143.9455  159.8611 H   0  0  0  0  0  0  0  0  0  0  0  0
  151.7122  143.0380  160.3623 H   0  0  0  0  0  0  0  0  0  0  0  0
  151.9268  143.4853  158.6709 H   0  0  0  0  0  0  0  0  0  0  0  0
  151.2886  140.9632  159.1045 H   0  0  0  0  0  0  0  0  0  0  0  0
  151.5935  137.7251  158.4389 H   0  0  0  0  0  0  0  0  0  0  0  0
  150.5254  139.0968  158.4569 H   0  0  0  0  0  0  0  0  0  0  0  0
  150.4687  138.4370  152.7932 H   0  0  0  0  0  0  0  0  0  0  0  0
  151.6738  136.5895  153.8360 H   0  0  0  0  0  0  0  0  0  0  0  0
  1  2  1  0  0  0  0
  1 18  1  0  0  0  0
  1 19  1  0  0  0  0
  1 20  1  0  0  0  0
  2  3  1  0  0  0  0
  2 21  1  0  0  0  0
  2 22  1  0  0  0  0
  3  4  1  0  0  0  0
  3  5  1  0  0  0  0
  3 23  1  0  0  0  0
  4 24  1  0  0  0  0
  4 25  1  0  0  0  0
  4 26  1  0  0  0  0
  5  6  1  0  0  0  0
  5 27  1  0  0  0  0
  6  7  2  0  0  0  0
  6  8  1  0  0  0  0
  8 28  1  0  0  0  0
  8 29  1  0  0  0  0
  8  9  1  0  0  0  0
  9 10  1  0  0  0  0
  9 15  1  0  0  0  0
 10 11  2  0  0  0  0
 11 12  1  0  0  0  0
 11 13  1  0  0  0  0
 12 17  1  0  0  0  0
 13 30  1  0  0  0  0
 13 14  2  0  0  0  0
 14 31  1  0  0  0  0
 14 15  1  0  0  0  0
 15 16  2  0  0  0  0
M  END
> <s_m_source_file>
AV-unprocessed.smi

> <i_m_source_file_index>
1527

> <i_lp_mmshare_version>
43012

> <i_f3d_flags>
0

> <s_epik_input>
W0NIM11bQ0gyXVtDQEhdKFtDSDNdKVtOSF1DKD1PKVtDSDJdbjFbbkhdYyg9TylbY0hdW2NIXWMxPU8=

> <s_epik_cmdline>
J2VwaWtfcHl0aG9uJywgJy1waCcsICc3LjAnLCAnLXRuJywgJzgnLCAnLW1hJywgJzIwMCcsICctbWV0YWxfYmluZGluZycsICctaW1hZScsICc8aW5maWxlLm1hZT4nLCAnLW9tYWUnLCAnPG91dGZpbGUubWFlPic=

> <r_lp_tautomer_probability>
0.9996

> <r_epik_Ionization_Penalty>
2.12171

> <r_epik_Ionization_Penalty_Charging>
3.79077e-08

> <r_epik_Ionization_Penalty_Neutral>
2.12171

> <r_epik_State_Penalty>
1.69857

> <r_epik_Charging_Adjusted_Penalty>
1.69857

> <i_epik_Tot_Q>
0

> <i_epik_Tot_abs_Q>
0

> <r_epik_Metal_State_Penalty>
1.69857

> <b_epik_Metal_Only>
0

> <s_lp_Force_Field>
OPLS_2005

> <r_lp_Energy>
14.661

> <b_lp_Chiralities_Consistent>
1

> <s_lp_Variant>
AV-unprocessed.smi:1527-3

> <Gold.Version>
5.8.1

> <Gold.Id.Protein>
6NUR|6NUR_protein|mol2

> <Gold.PLP.Fitness>
38.3685

> <Gold.PLP.PLP>
-31.3820

> <Gold.PLP.part.hbond>
-3.9427

> <Gold.PLP.part.metal>
0.0000

> <Gold.PLP.part.buried>
-3.5009

> <Gold.PLP.part.nonpolar>
-23.6919

> <Gold.PLP.part.repulsive>
0.1261

> <Gold.PLP.ligand.clash>
0.0000

> <Gold.PLP.ligand.torsion>
1.0136

> <Gold.PLP.Chemscore.Hbond>
3.0000

> <Gold.PLP.Chemscore.CHOScore>
0.0000

> <Gold.PLP.Chemscore.Metal>
0.0000

> <Gold.Chemscore.Hbonds>
donor molecule, donor type, donor heavy atom, donor atom, acceptor molecule, acceptor atom, score
      L1  H    12    17       P1  7957  0.88
      P1  H  7997  8009       L1     7  0.93
      P1  H 10752 10763       L1    16  1.00

> <Gold.PLP.Chemscore.Internal.Correction>
0.0138

> <Gold.Rescore>
     Score         DG    S(hbond)    S(metal)    S(lipo)     H(rot)  DE(clash)    DE(int)     intcor
     14.88     -15.87       2.85        0.00      63.90       2.58       0.09       0.90       ----

> <Gold.Chemscore.Fitness>
14.8794

> <Gold.Chemscore.DG>
-15.8683

> <Gold.Chemscore.ZeroCoef>
-5.4800

> <Gold.Chemscore.Hbond>
2.8498

> <Gold.Chemscore.Metal>
0.0000

> <Gold.Chemscore.Lipo>
63.8994

> <Gold.Chemscore.Internal_Hbond>
0.0000

> <Gold.Chemscore.DEClash>
0.0922

> <Gold.Chemscore.DEInternal>
0.8966

> <Gold.Chemscore.Rot>
2.5806

> <Gold.Chemscore.Internal.Correction>
   9.000000E+99

> <Gold.Chemscore.Hbonds>
donor molecule, donor type, donor heavy atom, donor atom, acceptor molecule, acceptor atom, score
      L1  H    12    17       P1  7957  0.86
      P1  H  7997  8009       L1     7  0.87
      P1  H 10752 10763       L1    16  0.81

> <Gold.Chemscore.Hbond.Weighted>
-9.5183

> <Gold.Chemscore.Metal.Weighted>
-0.0000

> <Gold.Chemscore.Lipo.Weighted>
-7.4762

> <Gold.Chemscore.Internal_Hbond.Weighted>
0.0000

> <Gold.Chemscore.DEClash.Weighted>
0.0922

> <Gold.Chemscore.DEInternal.Weighted>
0.8966

> <Gold.Chemscore.Rot.Weighted>
6.6063

> <Gold.Chemscore.Internal.Correction.Weighted>
   9.000000E+99

> <Gold.Protein.RotatedTorsions>
[ 6907 6896 6895 6894 ] final  -15.43 input  -60.11 | X-H torsion
[ 7974 7965 7964 7962 ] final  172.10 input  175.53 | X-H torsion
[ 8008 7997 7996 7995 ] final  165.33 input   59.86 | X-H torsion
[ 10167 10162 10161 10158 ] final   -1.54 input  -65.29 | X-H torsion
[ 10718 10713 10712 10709 ] final -168.22 input   66.30 | X-H torsion
[ 10763 10752 10751 10750 ] final  100.89 input  -60.55 | X-H torsion
[ 11005 11000 10999 10996 ] final  176.85 input  -57.11 | X-H torsion

> <Gold.Protein.ActiveResidues>
 VAL166  LYS551  ARG553  GLY616  TRP617  ASP618  TYR619  PRO620  LYS621  CYS622 
 ASP623  PHE694  ASN695  SER759  ASP760  ASP761  ALA762  ILE779  LEU786  VAL792 
 PHE793  MET794  SER795  GLU796  ALA797  LYS798  CYS799  TRP800  GLU811  SER814 

> <Gold.Protein.RotatedAtoms>
  151.3240  135.0825  159.9315 H   0  0  0  0  0  0  0  0  0  0  0  0  # atno 6907 bound_to 6896
  152.5250  133.9610  159.7727 H   0  0  0  0  0  0  0  0  0  0  0  0  # atno 6908 bound_to 6896
  150.9936  133.6072  159.2735 H   0  0  0  0  0  0  0  0  0  0  0  0  # atno 6909 bound_to 6896
  144.7277  139.9448  143.6430 H   0  0  0  0  0  0  0  0  0  0  0  0  # atno 7974 bound_to 7965
  156.1809  140.1673  156.8276 H   0  0  0  0  0  0  0  0  0  0  0  0  # atno 8008 bound_to 7997
  154.5359  140.0747  156.8460 H   0  0  0  0  0  0  0  0  0  0  0  0  # atno 8009 bound_to 7997
  155.3312  140.3379  155.4242 H   0  0  0  0  0  0  0  0  0  0  0  0  # atno 8010 bound_to 7997
  140.6814  143.6763  150.8142 H   0  0  0  0  0  0  0  0  0  0  0  0  # atno 10167 bound_to 10162
  156.6938  130.9169  151.3072 H   0  0  0  0  0  0  0  0  0  0  0  0  # atno 10718 bound_to 10713
  153.3197  135.4063  155.1406 H   0  0  0  0  0  0  0  0  0  0  0  0  # atno 10763 bound_to 10752
  154.8597  135.3584  154.5613 H   0  0  0  0  0  0  0  0  0  0  0  0  # atno 10764 bound_to 10752
  153.6045  135.7070  153.5430 H   0  0  0  0  0  0  0  0  0  0  0  0  # atno 10765 bound_to 10752
  140.3777  134.6974  157.4431 H   0  0  0  0  0  0  0  0  0  0  0  0  # atno 11005 bound_to 11000
  146.0756  139.3745  143.0496 LP  0  0  0  0  0  0  0  0  0  0  0  0  # atno 17320 bound_to 7965
  145.7909  140.9815  143.1049 LP  0  0  0  0  0  0  0  0  0  0  0  0  # atno 17321 bound_to 7965
  140.0464  143.5294  152.2694 LP  0  0  0  0  0  0  0  0  0  0  0  0  # atno 17342 bound_to 10162
  139.6140  144.7615  151.2889 LP  0  0  0  0  0  0  0  0  0  0  0  0  # atno 17343 bound_to 10162
  157.6999  130.9322  150.0754 LP  0  0  0  0  0  0  0  0  0  0  0  0  # atno 17370 bound_to 10713
  156.1778  130.3649  149.9076 LP  0  0  0  0  0  0  0  0  0  0  0  0  # atno 17371 bound_to 10713
  140.0503  134.6140  155.8870 LP  0  0  0  0  0  0  0  0  0  0  0  0  # atno 17394 bound_to 11000
  141.1934  133.6579  156.5546 LP  0  0  0  0  0  0  0  0  0  0  0  0  # atno 17395 bound_to 11000

$$$$
