AV-unprocessed.smi:578|AV-procd|sdf|2981|dock1
  -GOLD-   2262023493D 1   1.00000     0.00000
 Structure written by MMmdl.
 33 34  0  0  0  0  0  0  0  0  3 V2000
  153.3648  142.1251  161.1309 C   0  0  0  0  0  0  0  0  0  0  0  0
  152.3601  142.6285  160.0895 C   0  0  2  0  0  0  0  0  0  0  0  0
  152.1745  141.6245  158.9378 C   0  0  0  0  0  0  0  0  0  0  0  0
  151.2941  142.1879  157.9239 N   0  0  0  0  0  0  0  0  0  0  0  0
  150.9470  141.2778  156.9164 C   0  0  0  0  0  0  0  0  0  0  0  0
  149.6165  141.2457  156.4472 C   0  0  0  0  0  0  0  0  0  0  0  0
  149.2641  140.3298  155.4364 C   0  0  0  0  0  0  0  0  0  0  0  0
  150.1985  139.4977  154.9299 N   0  3  0  0  0  0  0  0  0  0  0  0
  151.4869  139.4867  155.3417 C   0  0  0  0  0  0  0  0  0  0  0  0
  152.4411  138.5178  154.7084 C   0  0  0  0  0  0  0  0  0  0  0  0
  153.6612  138.7917  154.7032 O   0  0  0  0  0  0  0  0  0  0  0  0
  151.9793  137.4681  154.2074 O   0  5  0  0  0  0  0  0  0  0  0  0
  151.8918  140.3869  156.3544 C   0  0  0  0  0  0  0  0  0  0  0  0
  151.7853  143.4598  157.4098 C   0  0  0  0  0  0  0  0  0  0  0  0
  152.0198  144.4596  158.5602 C   0  0  1  0  0  0  0  0  0  0  0  0
  150.7199  145.0393  159.1459 C   0  0  0  0  0  0  0  0  0  0  0  0
  152.8453  143.8659  159.5665 O   0  0  0  0  0  0  0  0  0  0  0  0
  153.0375  141.1812  161.5676 H   0  0  0  0  0  0  0  0  0  0  0  0
  153.4781  142.8447  161.9422 H   0  0  0  0  0  0  0  0  0  0  0  0
  154.3481  141.9659  160.6872 H   0  0  0  0  0  0  0  0  0  0  0  0
  151.4059  142.7901  160.5918 H   0  0  0  0  0  0  0  0  0  0  0  0
  153.1420  141.3846  158.4943 H   0  0  0  0  0  0  0  0  0  0  0  0
  151.7530  140.6923  159.3164 H   0  0  0  0  0  0  0  0  0  0  0  0
  148.8733  141.9138  156.8575 H   0  0  0  0  0  0  0  0  0  0  0  0
  148.2716  140.2372  155.0209 H   0  0  0  0  0  0  0  0  0  0  0  0
  152.9167  140.3944  156.6967 H   0  0  0  0  0  0  0  0  0  0  0  0
  152.7243  143.2943  156.8793 H   0  0  0  0  0  0  0  0  0  0  0  0
  151.0805  143.8720  156.6863 H   0  0  0  0  0  0  0  0  0  0  0  0
  152.5863  145.3000  158.1584 H   0  0  0  0  0  0  0  0  0  0  0  0
  150.1679  145.5935  158.3867 H   0  0  0  0  0  0  0  0  0  0  0  0
  150.9363  145.7270  159.9637 H   0  0  0  0  0  0  0  0  0  0  0  0
  150.0553  144.2646  159.5271 H   0  0  0  0  0  0  0  0  0  0  0  0
  149.9285  138.8391  154.1986 H   0  0  0  0  0  0  0  0  0  0  0  0
  1  2  1  0  0  0  0
  1 18  1  0  0  0  0
  1 19  1  0  0  0  0
  1 20  1  0  0  0  0
  2 17  1  0  0  0  0
  2  3  1  0  0  0  0
  2 21  1  0  0  0  0
  3  4  1  0  0  0  0
  3 22  1  0  0  0  0
  3 23  1  0  0  0  0
  4  5  1  0  0  0  0
  4 14  1  0  0  0  0
  5 13  1  0  0  0  0
  5  6  2  0  0  0  0
  6  7  1  0  0  0  0
  6 24  1  0  0  0  0
  7  8  2  0  0  0  0
  7 25  1  0  0  0  0
  8  9  1  0  0  0  0
  8 33  1  0  0  0  0
  9 10  1  0  0  0  0
  9 13  2  0  0  0  0
 10 11  2  0  0  0  0
 10 12  1  0  0  0  0
 13 26  1  0  0  0  0
 14 15  1  0  0  0  0
 14 27  1  0  0  0  0
 14 28  1  0  0  0  0
 15 16  1  0  0  0  0
 15 17  1  0  0  0  0
 15 29  1  0  0  0  0
 16 30  1  0  0  0  0
 16 31  1  0  0  0  0
 16 32  1  0  0  0  0
M  CHG  1   8   1
M  CHG  1  12  -1
M  END
> <s_m_source_file>
AV-unprocessed.smi

> <i_m_source_file_index>
578

> <i_lp_mmshare_version>
43012

> <i_f3d_flags>
0

> <s_epik_input>
W0NIM11bQ0BASF0xW0NIMl1OKFtDSDJdW0NASF0oTzEpW0NIM10pYzJbY0hdW2NIXW5jKFtjSF0yKUMoPU8pW09IXQ==

> <s_epik_cmdline>
J2VwaWtfcHl0aG9uJywgJy1waCcsICc3LjAnLCAnLXRuJywgJzgnLCAnLW1hJywgJzIwMCcsICctbWV0YWxfYmluZGluZycsICctaW1hZScsICc8aW5maWxlLm1hZT4nLCAnLW9tYWUnLCAnPG91dGZpbGUubWFlPic=

> <r_epik_Ionization_Penalty>
0.0203651

> <r_epik_Ionization_Penalty_Charging>
0.0203651

> <r_epik_Ionization_Penalty_Neutral>
3.18831e-12

> <r_epik_State_Penalty>
0.0163096

> <r_epik_Charging_Adjusted_Penalty>
0.0366747

> <i_epik_Tot_Q>
0

> <i_epik_Tot_abs_Q>
2

> <r_epik_Metal_State_Penalty>
1.99323

> <b_epik_Metal_Only>
0

> <s_lp_Force_Field>
OPLS_2005

> <r_lp_Energy>
19.2563

> <b_lp_Chiralities_Consistent>
1

> <s_lp_Variant>
AV-unprocessed.smi:578-1

> <Gold.Version>
5.8.1

> <Gold.Id.Protein>
6NUR|6NUR_protein|mol2

> <Gold.PLP.Fitness>
47.8657

> <Gold.PLP.PLP>
-37.9466

> <Gold.PLP.part.hbond>
-2.0000

> <Gold.PLP.part.metal>
0.0000

> <Gold.PLP.part.buried>
-7.5167

> <Gold.PLP.part.nonpolar>
-29.6745

> <Gold.PLP.part.repulsive>
0.3012

> <Gold.PLP.ligand.clash>
0.0000

> <Gold.PLP.ligand.torsion>
0.8971

> <Gold.PLP.Chemscore.Hbond>
3.8720

> <Gold.PLP.Chemscore.CHOScore>
0.0000

> <Gold.PLP.Chemscore.Metal>
0.0000

> <Gold.Chemscore.Hbonds>
donor molecule, donor type, donor heavy atom, donor atom, acceptor molecule, acceptor atom, score
      P1  H  7997  8008       L1    11  1.98
      P1  H 10752 10765       L1    12  1.87

> <Gold.PLP.Chemscore.Internal.Correction>
0.0971

> <Gold.Rescore>
     Score         DG    S(hbond)    S(metal)    S(lipo)     H(rot)  DE(clash)    DE(int)     intcor
     19.16     -20.07       1.82        0.00      94.65       1.00       0.04       0.88       ----

> <Gold.Chemscore.Fitness>
19.1571

> <Gold.Chemscore.DG>
-20.0724

> <Gold.Chemscore.ZeroCoef>
-5.4800

> <Gold.Chemscore.Hbond>
1.8199

> <Gold.Chemscore.Metal>
0.0000

> <Gold.Chemscore.Lipo>
94.6479

> <Gold.Chemscore.Internal_Hbond>
0.0000

> <Gold.Chemscore.DEClash>
0.0402

> <Gold.Chemscore.DEInternal>
0.8751

> <Gold.Chemscore.Rot>
1.0000

> <Gold.Chemscore.Internal.Correction>
   9.000000E+99

> <Gold.Chemscore.Hbonds>
donor molecule, donor type, donor heavy atom, donor atom, acceptor molecule, acceptor atom, score
      P1  H  7997  8008       L1    11  0.93
      P1  H 10752 10765       L1    12  0.83

> <Gold.Chemscore.Hbond.Weighted>
-6.0786

> <Gold.Chemscore.Metal.Weighted>
-0.0000

> <Gold.Chemscore.Lipo.Weighted>
-11.0738

> <Gold.Chemscore.Internal_Hbond.Weighted>
0.0000

> <Gold.Chemscore.DEClash.Weighted>
0.0402

> <Gold.Chemscore.DEInternal.Weighted>
0.8751

> <Gold.Chemscore.Rot.Weighted>
2.5600

> <Gold.Chemscore.Internal.Correction.Weighted>
   9.000000E+99

> <Gold.Protein.RotatedTorsions>
[ 6907 6896 6895 6894 ] final  -92.26 input  -60.11 | X-H torsion
[ 7974 7965 7964 7962 ] final  139.75 input  175.53 | X-H torsion
[ 8008 7997 7996 7995 ] final   -8.63 input   59.86 | X-H torsion
[ 10167 10162 10161 10158 ] final  -55.80 input  -65.29 | X-H torsion
[ 10718 10713 10712 10709 ] final  -52.39 input   66.30 | X-H torsion
[ 10763 10752 10751 10750 ] final  155.82 input  -60.55 | X-H torsion
[ 11005 11000 10999 10996 ] final   50.73 input  -57.11 | X-H torsion

> <Gold.Protein.ActiveResidues>
 VAL166  LYS551  ARG553  GLY616  TRP617  ASP618  TYR619  PRO620  LYS621  CYS622 
 ASP623  PHE694  ASN695  SER759  ASP760  ASP761  ALA762  ILE779  LEU786  VAL792 
 PHE793  MET794  SER795  GLU796  ALA797  LYS798  CYS799  TRP800  GLU811  SER814 

> <Gold.Protein.RotatedAtoms>
  150.6903  134.2149  159.4373 H   0  0  0  0  0  0  0  0  0  0  0  0  # atno 6907 bound_to 6896
  152.0109  134.9874  160.0577 H   0  0  0  0  0  0  0  0  0  0  0  0  # atno 6908 bound_to 6896
  152.1490  133.4475  159.4841 H   0  0  0  0  0  0  0  0  0  0  0  0  # atno 6909 bound_to 6896
  144.9250  139.5119  143.5645 H   0  0  0  0  0  0  0  0  0  0  0  0  # atno 7974 bound_to 7965
  154.5723  140.2376  155.8174 H   0  0  0  0  0  0  0  0  0  0  0  0  # atno 8008 bound_to 7997
  156.2116  140.3024  155.9703 H   0  0  0  0  0  0  0  0  0  0  0  0  # atno 8009 bound_to 7997
  155.2690  140.0417  157.2995 H   0  0  0  0  0  0  0  0  0  0  0  0  # atno 8010 bound_to 7997
  140.6354  143.2479  151.5132 H   0  0  0  0  0  0  0  0  0  0  0  0  # atno 10167 bound_to 10162
  156.1625  130.4149  149.9770 H   0  0  0  0  0  0  0  0  0  0  0  0  # atno 10718 bound_to 10713
  154.1745  135.2803  155.3071 H   0  0  0  0  0  0  0  0  0  0  0  0  # atno 10763 bound_to 10752
  154.6050  135.5517  153.7416 H   0  0  0  0  0  0  0  0  0  0  0  0  # atno 10764 bound_to 10752
  153.0155  135.6401  154.1885 H   0  0  0  0  0  0  0  0  0  0  0  0  # atno 10765 bound_to 10752
  140.0992  134.5104  155.8778 H   0  0  0  0  0  0  0  0  0  0  0  0  # atno 11005 bound_to 11000
  146.3222  139.8158  142.8937 LP  0  0  0  0  0  0  0  0  0  0  0  0  # atno 17320 bound_to 7965
  145.3234  141.0249  143.3487 LP  0  0  0  0  0  0  0  0  0  0  0  0  # atno 17321 bound_to 7965
  139.5565  144.2263  152.1620 LP  0  0  0  0  0  0  0  0  0  0  0  0  # atno 17342 bound_to 10162
  140.1518  144.5107  150.6683 LP  0  0  0  0  0  0  0  0  0  0  0  0  # atno 17343 bound_to 10162
  156.7595  130.9145  151.3641 LP  0  0  0  0  0  0  0  0  0  0  0  0  # atno 17370 bound_to 10713
  157.6743  130.9080  150.0114 LP  0  0  0  0  0  0  0  0  0  0  0  0  # atno 17371 bound_to 10713
  141.2101  133.6691  156.6484 LP  0  0  0  0  0  0  0  0  0  0  0  0  # atno 17394 bound_to 11000
  140.3243  134.7981  157.4277 LP  0  0  0  0  0  0  0  0  0  0  0  0  # atno 17395 bound_to 11000

$$$$
