AV-unprocessed.smi:1554|AV-procd|sdf|6254|dock7
  -GOLD-   22720 6443D 1   1.00000     0.00000
 Structure written by MMmdl.
 48 50  0  0  0  0  0  0  0  0  2 V2000
  152.7618  143.1988  161.2059 C   0  0  0  0  0  0  0  0  0  0  0  0
  152.2239  142.7231  159.8671 C   0  0  0  0  0  0  0  0  0  0  0  0
  152.5461  141.4162  159.4370 C   0  0  0  0  0  0  0  0  0  0  0  0
  152.0401  141.0100  158.2078 C   0  0  0  0  0  0  0  0  0  0  0  0
  152.1763  139.8039  157.5174 N   0  3  0  0  0  0  0  0  0  0  0  0
  151.4975  139.8755  156.3393 C   0  0  0  0  0  0  0  0  0  0  0  0
  150.9295  141.1097  156.2667 N   0  0  0  0  0  0  0  0  0  0  0  0
  150.1007  141.6955  155.2032 C   0  0  0  0  0  0  0  0  0  0  0  0
  148.9042  140.8005  154.8189 C   0  0  2  0  0  0  0  0  0  0  0  0
  149.3616  139.6921  154.0707 O   0  0  0  0  0  0  0  0  0  0  0  0
  147.8577  141.5417  153.9633 C   0  0  0  0  0  0  0  0  0  0  0  0
  146.9188  142.3848  154.7041 N   0  0  0  0  0  0  0  0  0  0  0  0
  146.0227  141.6118  155.5610 C   0  0  0  0  0  0  0  0  0  0  0  0
  145.0218  142.5120  156.3050 C   0  0  0  0  0  0  0  0  0  0  0  0
  144.2875  143.2912  155.3669 O   0  0  0  0  0  0  0  0  0  0  0  0
  145.1219  144.1008  154.5433 C   0  0  2  0  0  0  0  0  0  0  0  0
  144.2279  144.8957  153.5859 C   0  0  0  0  0  0  0  0  0  0  0  0
  146.1171  143.1948  153.7927 C   0  0  0  0  0  0  0  0  0  0  0  0
  151.2390  141.8528  157.4126 C   0  0  0  0  0  0  0  0  0  0  0  0
  150.9121  143.1434  157.8226 C   0  0  0  0  0  0  0  0  0  0  0  0
  151.4158  143.5750  159.0705 C   0  0  0  0  0  0  0  0  0  0  0  0
  151.0741  144.9778  159.5433 C   0  0  0  0  0  0  0  0  0  0  0  0
  153.4058  142.4491  161.6665 H   0  0  0  0  0  0  0  0  0  0  0  0
  151.9425  143.4039  161.8952 H   0  0  0  0  0  0  0  0  0  0  0  0
  153.3487  144.1094  161.0835 H   0  0  0  0  0  0  0  0  0  0  0  0
  153.1606  140.7620  160.0380 H   0  0  0  0  0  0  0  0  0  0  0  0
  151.4238  139.0949  155.5956 H   0  0  0  0  0  0  0  0  0  0  0  0
  149.7413  142.6549  155.5775 H   0  0  0  0  0  0  0  0  0  0  0  0
  150.7246  141.9222  154.3386 H   0  0  0  0  0  0  0  0  0  0  0  0
  148.4427  140.3996  155.7209 H   0  0  0  0  0  0  0  0  0  0  0  0
  149.4506  139.9557  153.1679 H   0  0  0  0  0  0  0  0  0  0  0  0
  148.3941  142.1592  153.2411 H   0  0  0  0  0  0  0  0  0  0  0  0
  147.2961  140.8160  153.3723 H   0  0  0  0  0  0  0  0  0  0  0  0
  145.4755  140.8820  154.9622 H   0  0  0  0  0  0  0  0  0  0  0  0
  146.5932  141.0479  156.2979 H   0  0  0  0  0  0  0  0  0  0  0  0
  144.3263  141.9065  156.8864 H   0  0  0  0  0  0  0  0  0  0  0  0
  145.5402  143.1676  157.0064 H   0  0  0  0  0  0  0  0  0  0  0  0
  145.6702  144.8019  155.1751 H   0  0  0  0  0  0  0  0  0  0  0  0
  144.8221  145.5405  152.9379 H   0  0  0  0  0  0  0  0  0  0  0  0
  143.5329  145.5289  154.1375 H   0  0  0  0  0  0  0  0  0  0  0  0
  143.6414  144.2309  152.9510 H   0  0  0  0  0  0  0  0  0  0  0  0
  146.7718  143.8134  153.1777 H   0  0  0  0  0  0  0  0  0  0  0  0
  145.5698  142.5452  153.1075 H   0  0  0  0  0  0  0  0  0  0  0  0
  150.3020  143.7956  157.2158 H   0  0  0  0  0  0  0  0  0  0  0  0
  150.4184  145.4884  158.8372 H   0  0  0  0  0  0  0  0  0  0  0  0
  151.9792  145.5762  159.6500 H   0  0  0  0  0  0  0  0  0  0  0  0
  150.5634  144.9450  160.5060 H   0  0  0  0  0  0  0  0  0  0  0  0
  152.6951  138.9909  157.8245 H   0  0  0  0  0  0  0  0  0  0  0  0
  1  2  1  0  0  0  0
  1 23  1  0  0  0  0
  1 24  1  0  0  0  0
  1 25  1  0  0  0  0
  2 21  1  0  0  0  0
  2  3  2  0  0  0  0
  3  4  1  0  0  0  0
  3 26  1  0  0  0  0
  4 19  2  0  0  0  0
  4  5  1  0  0  0  0
  5  6  2  0  0  0  0
  5 48  1  0  0  0  0
  6  7  1  0  0  0  0
  6 27  1  0  0  0  0
  7  8  1  0  0  0  0
  7 19  1  0  0  0  0
  8  9  1  0  0  0  0
  8 28  1  0  0  0  0
  8 29  1  0  0  0  0
  9 10  1  0  0  0  0
  9 11  1  0  0  0  0
  9 30  1  0  0  0  0
 10 31  1  0  0  0  0
 11 12  1  0  0  0  0
 11 32  1  0  0  0  0
 11 33  1  0  0  0  0
 12 18  1  0  0  0  0
 12 13  1  0  0  0  0
 13 14  1  0  0  0  0
 13 34  1  0  0  0  0
 13 35  1  0  0  0  0
 14 15  1  0  0  0  0
 14 36  1  0  0  0  0
 14 37  1  0  0  0  0
 15 16  1  0  0  0  0
 16 17  1  0  0  0  0
 16 18  1  0  0  0  0
 16 38  1  0  0  0  0
 17 39  1  0  0  0  0
 17 40  1  0  0  0  0
 17 41  1  0  0  0  0
 18 42  1  0  0  0  0
 18 43  1  0  0  0  0
 19 20  1  0  0  0  0
 20 21  2  0  0  0  0
 20 44  1  0  0  0  0
 21 22  1  0  0  0  0
 22 45  1  0  0  0  0
 22 46  1  0  0  0  0
 22 47  1  0  0  0  0
M  CHG  1   5   1
M  END
> <s_m_source_file>
AV-unprocessed.smi

> <i_m_source_file_index>
1554

> <i_lp_mmshare_version>
43012

> <i_f3d_flags>
0

> <s_epik_input>
W0NIM11jKFtjSF0xKWMoW0NIM10pW2NIXWMoYzEyKW4oW2NIXW4yKVtDSDJdW0NASF0oW09IXSlbQ0gyXU4zW0NIMl1bQ0gyXU9bQ0BASF0oW0NIM10pW0NIMl0z

> <s_epik_cmdline>
J2VwaWtfcHl0aG9uJywgJy1waCcsICc3LjAnLCAnLXRuJywgJzgnLCAnLW1hJywgJzIwMCcsICctbWV0YWxfYmluZGluZycsICctaW1hZScsICc8aW5maWxlLm1hZT4nLCAnLW9tYWUnLCAnPG91dGZpbGUubWFlPic=

> <r_epik_Ionization_Penalty>
1.42504

> <r_epik_Ionization_Penalty_Charging>
1.21068

> <r_epik_Ionization_Penalty_Neutral>
0.214359

> <r_epik_State_Penalty>
1.46962

> <r_epik_Charging_Adjusted_Penalty>
2.6803

> <i_epik_Tot_Q>
1

> <i_epik_Tot_abs_Q>
1

> <r_epik_Metal_State_Penalty>
5.48754

> <b_epik_Metal_Only>
0

> <s_lp_Force_Field>
OPLS_2005

> <r_lp_Energy>
32.4448

> <b_lp_Chiralities_Consistent>
1

> <s_lp_Variant>
AV-unprocessed.smi:1554-15

> <Gold.Version>
5.8.1

> <Gold.Id.Protein>
6NUR|6NUR_protein|mol2

> <Gold.PLP.Fitness>
48.6464

> <Gold.PLP.PLP>
-46.4408

> <Gold.PLP.part.hbond>
-1.0000

> <Gold.PLP.part.metal>
0.0000

> <Gold.PLP.part.buried>
-6.8861

> <Gold.PLP.part.nonpolar>
-39.4610

> <Gold.PLP.part.repulsive>
0.4746

> <Gold.PLP.ligand.clash>
0.0000

> <Gold.PLP.ligand.torsion>
0.3988

> <Gold.PLP.Chemscore.Hbond>
1.0000

> <Gold.PLP.Chemscore.CHOScore>
0.0000

> <Gold.PLP.Chemscore.Metal>
0.0000

> <Gold.Chemscore.Hbonds>
donor molecule, donor type, donor heavy atom, donor atom, acceptor molecule, acceptor atom, score
      L1  H    10    31       P1  7957  1.00

> <Gold.PLP.Chemscore.Internal.Correction>
0.0031

> <Gold.Rescore>
     Score         DG    S(hbond)    S(metal)    S(lipo)     H(rot)  DE(clash)    DE(int)     intcor
     17.75     -18.75       0.98        0.00     130.04       2.04       0.45       0.54       ----

> <Gold.Chemscore.Fitness>
17.7521

> <Gold.Chemscore.DG>
-18.7472

> <Gold.Chemscore.ZeroCoef>
-5.4800

> <Gold.Chemscore.Hbond>
0.9827

> <Gold.Chemscore.Metal>
0.0000

> <Gold.Chemscore.Lipo>
130.0373

> <Gold.Chemscore.Internal_Hbond>
0.0000

> <Gold.Chemscore.DEClash>
0.4523

> <Gold.Chemscore.DEInternal>
0.5428

> <Gold.Chemscore.Rot>
2.0427

> <Gold.Chemscore.Internal.Correction>
   9.000000E+99

> <Gold.Chemscore.Hbonds>
donor molecule, donor type, donor heavy atom, donor atom, acceptor molecule, acceptor atom, score
      L1  H    10    31       P1  7957  0.94

> <Gold.Chemscore.Hbond.Weighted>
-3.2823

> <Gold.Chemscore.Metal.Weighted>
-0.0000

> <Gold.Chemscore.Lipo.Weighted>
-15.2144

> <Gold.Chemscore.Internal_Hbond.Weighted>
0.0000

> <Gold.Chemscore.DEClash.Weighted>
0.4523

> <Gold.Chemscore.DEInternal.Weighted>
0.5428

> <Gold.Chemscore.Rot.Weighted>
5.2294

> <Gold.Chemscore.Internal.Correction.Weighted>
   9.000000E+99

> <Gold.Protein.RotatedTorsions>
[ 6907 6896 6895 6894 ] final  134.38 input  -60.11 | X-H torsion
[ 7974 7965 7964 7962 ] final -138.81 input  175.53 | X-H torsion
[ 8008 7997 7996 7995 ] final  166.29 input   59.86 | X-H torsion
[ 10167 10162 10161 10158 ] final   -0.24 input  -65.29 | X-H torsion
[ 10718 10713 10712 10709 ] final   -2.29 input   66.30 | X-H torsion
[ 10763 10752 10751 10750 ] final  -26.47 input  -60.55 | X-H torsion
[ 11005 11000 10999 10996 ] final -167.73 input  -57.11 | X-H torsion

> <Gold.Protein.ActiveResidues>
 VAL166  LYS551  ARG553  GLY616  TRP617  ASP618  TYR619  PRO620  LYS621  CYS622 
 ASP623  PHE694  ASN695  SER759  ASP760  ASP761  ALA762  ILE779  LEU786  VAL792 
 PHE793  MET794  SER795  GLU796  ALA797  LYS798  CYS799  TRP800  GLU811  SER814 

> <Gold.Protein.RotatedAtoms>
  152.3119  133.5762  159.5686 H   0  0  0  0  0  0  0  0  0  0  0  0  # atno 6907 bound_to 6896
  150.7327  134.0139  159.3688 H   0  0  0  0  0  0  0  0  0  0  0  0  # atno 6908 bound_to 6896
  151.8031  135.0703  160.0454 H   0  0  0  0  0  0  0  0  0  0  0  0  # atno 6909 bound_to 6896
  144.8728  140.6392  143.5256 H   0  0  0  0  0  0  0  0  0  0  0  0  # atno 7974 bound_to 7965
  156.1730  140.1647  156.8412 H   0  0  0  0  0  0  0  0  0  0  0  0  # atno 8008 bound_to 7997
  154.5277  140.0764  156.8323 H   0  0  0  0  0  0  0  0  0  0  0  0  # atno 8009 bound_to 7997
  155.3471  140.3388  155.4241 H   0  0  0  0  0  0  0  0  0  0  0  0  # atno 8010 bound_to 7997
  140.6759  143.6918  150.8022 H   0  0  0  0  0  0  0  0  0  0  0  0  # atno 10167 bound_to 10162
  156.7930  130.5368  149.5733 H   0  0  0  0  0  0  0  0  0  0  0  0  # atno 10718 bound_to 10713
  153.7165  135.6947  153.5024 H   0  0  0  0  0  0  0  0  0  0  0  0  # atno 10763 bound_to 10752
  153.2235  135.4362  155.0515 H   0  0  0  0  0  0  0  0  0  0  0  0  # atno 10764 bound_to 10752
  154.8298  135.3466  154.6700 H   0  0  0  0  0  0  0  0  0  0  0  0  # atno 10765 bound_to 10752
  140.5499  134.5438  157.5120 H   0  0  0  0  0  0  0  0  0  0  0  0  # atno 11005 bound_to 11000
  145.4099  139.1582  143.4131 LP  0  0  0  0  0  0  0  0  0  0  0  0  # atno 17320 bound_to 7965
  146.2942  140.4202  142.8728 LP  0  0  0  0  0  0  0  0  0  0  0  0  # atno 17321 bound_to 7965
  140.0611  143.5154  152.2627 LP  0  0  0  0  0  0  0  0  0  0  0  0  # atno 17342 bound_to 10162
  139.6051  144.7594  151.3081 LP  0  0  0  0  0  0  0  0  0  0  0  0  # atno 17343 bound_to 10162
  156.1147  130.6066  151.0102 LP  0  0  0  0  0  0  0  0  0  0  0  0  # atno 17370 bound_to 10713
  157.6591  131.0884  150.7879 LP  0  0  0  0  0  0  0  0  0  0  0  0  # atno 17371 bound_to 10713
  139.9460  134.7701  156.0561 LP  0  0  0  0  0  0  0  0  0  0  0  0  # atno 17394 bound_to 11000
  141.1177  133.6622  156.3136 LP  0  0  0  0  0  0  0  0  0  0  0  0  # atno 17395 bound_to 11000

$$$$
