AV-unprocessed.smi:1627|AV-procd|sdf|6516|dock9
  -GOLD-   22720 7183D 1   1.00000     0.00000
 Structure written by MMmdl.
 43 44  0  0  0  0  0  0  0  0  1 V2000
  156.7505  134.4515  161.1914 C   0  0  0  0  0  0  0  0  0  0  0  0
  155.6714  135.1037  162.0683 C   0  0  2  0  0  0  0  0  0  0  0  0
  154.8207  134.0632  162.5432 O   0  0  0  0  0  0  0  0  0  0  0  0
  153.9649  134.4156  163.6257 C   0  0  0  0  0  0  0  0  0  0  0  0
  153.7100  133.1771  164.4933 C   0  0  0  0  0  0  0  0  0  0  0  0
  154.8246  132.8656  165.1539 F   0  0  0  0  0  0  0  0  0  0  0  0
  152.7439  133.4257  165.3772 F   0  0  0  0  0  0  0  0  0  0  0  0
  153.3627  132.1420  163.7290 F   0  0  0  0  0  0  0  0  0  0  0  0
  154.8578  136.1384  161.2738 C   0  0  0  0  0  0  0  0  0  0  0  0
  154.1322  135.7645  160.3526 O   0  0  0  0  0  0  0  0  0  0  0  0
  155.0090  137.4202  161.6551 N   0  0  0  0  0  0  0  0  0  0  0  0
  154.3618  138.5765  161.1426 C   0  0  0  0  0  0  0  0  0  0  0  0
  154.4818  139.7804  161.8655 C   0  0  0  0  0  0  0  0  0  0  0  0
  153.8264  140.9333  161.3938 C   0  0  0  0  0  0  0  0  0  0  0  0
  153.0612  140.8425  160.2132 C   0  0  0  0  0  0  0  0  0  0  0  0
  152.4023  141.9850  159.7377 N   0  0  0  0  0  0  0  0  0  0  0  0
  151.6288  141.7377  158.5232 C   0  0  0  0  0  0  0  0  0  0  0  0
  150.7652  142.9602  158.1668 C   0  0  0  0  0  0  0  0  0  0  0  0
  151.6264  144.2294  158.0640 C   0  0  0  0  0  0  0  0  0  0  0  0
  152.4424  144.4242  159.3521 C   0  0  0  0  0  0  0  0  0  0  0  0
  153.2629  143.1641  159.6782 C   0  0  0  0  0  0  0  0  0  0  0  0
  152.9277  139.6880  159.5187 N   0  0  0  0  0  0  0  0  0  0  0  0
  153.5592  138.5858  159.9758 C   0  0  0  0  0  0  0  0  0  0  0  0
  157.4294  135.1979  160.7775 H   0  0  0  0  0  0  0  0  0  0  0  0
  156.3127  133.8977  160.3600 H   0  0  0  0  0  0  0  0  0  0  0  0
  157.3483  133.7502  161.7737 H   0  0  0  0  0  0  0  0  0  0  0  0
  156.1625  135.5849  162.9164 H   0  0  0  0  0  0  0  0  0  0  0  0
  154.4305  135.1980  164.2266 H   0  0  0  0  0  0  0  0  0  0  0  0
  153.0134  134.8065  163.2634 H   0  0  0  0  0  0  0  0  0  0  0  0
  155.7099  137.5921  162.3614 H   0  0  0  0  0  0  0  0  0  0  0  0
  155.0704  139.8242  162.7703 H   0  0  0  0  0  0  0  0  0  0  0  0
  153.9081  141.8675  161.9304 H   0  0  0  0  0  0  0  0  0  0  0  0
  152.3070  141.5115  157.6990 H   0  0  0  0  0  0  0  0  0  0  0  0
  150.9930  140.8625  158.6636 H   0  0  0  0  0  0  0  0  0  0  0  0
  150.2400  142.7854  157.2275 H   0  0  0  0  0  0  0  0  0  0  0  0
  149.9988  143.1001  158.9302 H   0  0  0  0  0  0  0  0  0  0  0  0
  152.3018  144.1460  157.2116 H   0  0  0  0  0  0  0  0  0  0  0  0
  150.9961  145.0998  157.8805 H   0  0  0  0  0  0  0  0  0  0  0  0
  153.1039  145.2850  159.2514 H   0  0  0  0  0  0  0  0  0  0  0  0
  151.7685  144.6450  160.1810 H   0  0  0  0  0  0  0  0  0  0  0  0
  153.7780  143.2930  160.6311 H   0  0  0  0  0  0  0  0  0  0  0  0
  154.0310  143.0168  158.9174 H   0  0  0  0  0  0  0  0  0  0  0  0
  153.3868  137.6937  159.3945 H   0  0  0  0  0  0  0  0  0  0  0  0
  1  2  1  0  0  0  0
  1 24  1  0  0  0  0
  1 25  1  0  0  0  0
  1 26  1  0  0  0  0
  2  3  1  0  0  0  0
  2  9  1  0  0  0  0
  2 27  1  0  0  0  0
  3  4  1  0  0  0  0
  4  5  1  0  0  0  0
  4 28  1  0  0  0  0
  4 29  1  0  0  0  0
  5  6  1  0  0  0  0
  5  7  1  0  0  0  0
  5  8  1  0  0  0  0
  9 10  2  0  0  0  0
  9 11  1  0  0  0  0
 11 12  1  0  0  0  0
 11 30  1  0  0  0  0
 12 23  1  0  0  0  0
 12 13  2  0  0  0  0
 13 14  1  0  0  0  0
 13 31  1  0  0  0  0
 14 15  2  0  0  0  0
 14 32  1  0  0  0  0
 15 16  1  0  0  0  0
 15 22  1  0  0  0  0
 16 21  1  0  0  0  0
 16 17  1  0  0  0  0
 17 18  1  0  0  0  0
 17 33  1  0  0  0  0
 17 34  1  0  0  0  0
 18 19  1  0  0  0  0
 18 35  1  0  0  0  0
 18 36  1  0  0  0  0
 19 20  1  0  0  0  0
 19 37  1  0  0  0  0
 19 38  1  0  0  0  0
 20 21  1  0  0  0  0
 20 39  1  0  0  0  0
 20 40  1  0  0  0  0
 21 41  1  0  0  0  0
 21 42  1  0  0  0  0
 22 23  2  0  0  0  0
 23 43  1  0  0  0  0
M  END
> <s_m_source_file>
AV-unprocessed.smi

> <i_m_source_file_index>
1627

> <i_lp_mmshare_version>
43012

> <i_f3d_flags>
0

> <s_epik_input>
RkMoRikoRilbQ0gyXU9bQ0BASF0oW0NIM10pQyg9TylbTkhdYzFbY0hdW2NIXWMobltjSF0xKU4yW0NIMl1bQ0gyXVtDSDJdW0NIMl1bQ0gyXTI=

> <s_epik_cmdline>
J2VwaWtfcHl0aG9uJywgJy1waCcsICc3LjAnLCAnLXRuJywgJzgnLCAnLW1hJywgJzIwMCcsICctbWV0YWxfYmluZGluZycsICctaW1hZScsICc8aW5maWxlLm1hZT4nLCAnLW9tYWUnLCAnPG91dGZpbGUubWFlPic=

> <r_lp_tautomer_probability>
1

> <r_epik_Ionization_Penalty>
0.0254771

> <r_epik_Ionization_Penalty_Charging>
0

> <r_epik_Ionization_Penalty_Neutral>
0.0254771

> <r_epik_State_Penalty>
0.0187406

> <r_epik_Charging_Adjusted_Penalty>
0.0187406

> <i_epik_Tot_Q>
0

> <i_epik_Tot_abs_Q>
0

> <r_epik_Metal_State_Penalty>
0.017939

> <b_epik_Metal_Only>
0

> <s_lp_Force_Field>
OPLS_2005

> <r_lp_Energy>
26.2479

> <b_lp_Chiralities_Consistent>
1

> <s_lp_Variant>
AV-unprocessed.smi:1627-1

> <Gold.Version>
5.8.1

> <Gold.Id.Protein>
6NUR|6NUR_protein|mol2

> <Gold.PLP.Fitness>
42.8847

> <Gold.PLP.PLP>
-40.9793

> <Gold.PLP.part.hbond>
-0.9621

> <Gold.PLP.part.metal>
0.0000

> <Gold.PLP.part.buried>
-4.6827

> <Gold.PLP.part.nonpolar>
-35.7018

> <Gold.PLP.part.repulsive>
0.0000

> <Gold.PLP.ligand.clash>
0.0000

> <Gold.PLP.ligand.torsion>
0.6286

> <Gold.PLP.Chemscore.Hbond>
0.9913

> <Gold.PLP.Chemscore.CHOScore>
0.0000

> <Gold.PLP.Chemscore.Metal>
0.0000

> <Gold.Chemscore.Hbonds>
donor molecule, donor type, donor heavy atom, donor atom, acceptor molecule, acceptor atom, score
      P1  H  6896  6908       L1    10  0.99

> <Gold.PLP.Chemscore.Internal.Correction>
0.1889

> <Gold.Rescore>
     Score         DG    S(hbond)    S(metal)    S(lipo)     H(rot)  DE(clash)    DE(int)     intcor
     13.86     -15.67       1.00        0.00      99.45       1.87       0.06       1.75       ----

> <Gold.Chemscore.Fitness>
13.8629

> <Gold.Chemscore.DG>
-15.6711

> <Gold.Chemscore.ZeroCoef>
-5.4800

> <Gold.Chemscore.Hbond>
0.9983

> <Gold.Chemscore.Metal>
0.0000

> <Gold.Chemscore.Lipo>
99.4459

> <Gold.Chemscore.Internal_Hbond>
0.0000

> <Gold.Chemscore.DEClash>
0.0583

> <Gold.Chemscore.DEInternal>
1.7499

> <Gold.Chemscore.Rot>
1.8665

> <Gold.Chemscore.Internal.Correction>
   9.000000E+99

> <Gold.Chemscore.Hbonds>
donor molecule, donor type, donor heavy atom, donor atom, acceptor molecule, acceptor atom, score
      P1  H  6896  6908       L1    10  0.92

> <Gold.Chemscore.Hbond.Weighted>
-3.3342

> <Gold.Chemscore.Metal.Weighted>
-0.0000

> <Gold.Chemscore.Lipo.Weighted>
-11.6352

> <Gold.Chemscore.Internal_Hbond.Weighted>
0.0000

> <Gold.Chemscore.DEClash.Weighted>
0.0583

> <Gold.Chemscore.DEInternal.Weighted>
1.7499

> <Gold.Chemscore.Rot.Weighted>
4.7783

> <Gold.Chemscore.Internal.Correction.Weighted>
   9.000000E+99

> <Gold.Protein.RotatedTorsions>
[ 6907 6896 6895 6894 ] final  -57.10 input  -60.11 | X-H torsion
[ 7974 7965 7964 7962 ] final -159.27 input  175.53 | X-H torsion
[ 8008 7997 7996 7995 ] final   52.90 input   59.86 | X-H torsion
[ 10167 10162 10161 10158 ] final  161.82 input  -65.29 | X-H torsion
[ 10718 10713 10712 10709 ] final  -53.89 input   66.30 | X-H torsion
[ 10763 10752 10751 10750 ] final  -78.48 input  -60.55 | X-H torsion
[ 11005 11000 10999 10996 ] final -118.81 input  -57.11 | X-H torsion

> <Gold.Protein.ActiveResidues>
 VAL166  LYS551  ARG553  GLY616  TRP617  ASP618  TYR619  PRO620  LYS621  CYS622 
 ASP623  PHE694  ASN695  SER759  ASP760  ASP761  ALA762  ILE779  LEU786  VAL792 
 PHE793  MET794  SER795  GLU796  ALA797  LYS798  CYS799  TRP800  GLU811  SER814 

> <Gold.Protein.RotatedAtoms>
  150.8113  134.7270  159.6690 H   0  0  0  0  0  0  0  0  0  0  0  0  # atno 6907 bound_to 6896
  152.4233  134.5911  159.9984 H   0  0  0  0  0  0  0  0  0  0  0  0  # atno 6908 bound_to 6896
  151.6120  133.3309  159.3105 H   0  0  0  0  0  0  0  0  0  0  0  0  # atno 6909 bound_to 6896
  144.7472  140.3708  143.6076 H   0  0  0  0  0  0  0  0  0  0  0  0  # atno 7974 bound_to 7965
  155.4594  140.3461  155.4311 H   0  0  0  0  0  0  0  0  0  0  0  0  # atno 8008 bound_to 7997
  156.1170  140.1476  156.9287 H   0  0  0  0  0  0  0  0  0  0  0  0  # atno 8009 bound_to 7997
  154.4796  140.0874  156.7325 H   0  0  0  0  0  0  0  0  0  0  0  0  # atno 8010 bound_to 7997
  139.4853  144.4498  151.8844 H   0  0  0  0  0  0  0  0  0  0  0  0  # atno 10167 bound_to 10162
  156.1497  130.4151  149.9965 H   0  0  0  0  0  0  0  0  0  0  0  0  # atno 10718 bound_to 10713
  154.5264  135.5728  153.6722 H   0  0  0  0  0  0  0  0  0  0  0  0  # atno 10763 bound_to 10752
  152.9929  135.6194  154.2687 H   0  0  0  0  0  0  0  0  0  0  0  0  # atno 10764 bound_to 10752
  154.2611  135.2856  155.2757 H   0  0  0  0  0  0  0  0  0  0  0  0  # atno 10765 bound_to 10752
  141.0259  134.0054  157.3214 H   0  0  0  0  0  0  0  0  0  0  0  0  # atno 11005 bound_to 11000
  145.7079  139.1677  143.2555 LP  0  0  0  0  0  0  0  0  0  0  0  0  # atno 17320 bound_to 7965
  146.1368  140.7112  142.9386 LP  0  0  0  0  0  0  0  0  0  0  0  0  # atno 17321 bound_to 7965
  140.3955  144.2561  150.5896 LP  0  0  0  0  0  0  0  0  0  0  0  0  # atno 17342 bound_to 10162
  140.5106  143.2291  151.8540 LP  0  0  0  0  0  0  0  0  0  0  0  0  # atno 17343 bound_to 10162
  156.7826  130.9227  151.3646 LP  0  0  0  0  0  0  0  0  0  0  0  0  # atno 17370 bound_to 10713
  157.6646  130.8997  149.9905 LP  0  0  0  0  0  0  0  0  0  0  0  0  # atno 17371 bound_to 10713
  139.9176  135.0198  156.7941 LP  0  0  0  0  0  0  0  0  0  0  0  0  # atno 17394 bound_to 11000
  140.6491  133.9747  155.7746 LP  0  0  0  0  0  0  0  0  0  0  0  0  # atno 17395 bound_to 11000

$$$$
