AV-unprocessed.smi:49|AV-procd|sdf|467|dock5
  -GOLD-   2262016333D 1   1.00000     0.00000
 Structure written by MMmdl.
 28 29  0  0  0  0  0  0  0  0  2 V2000
  147.1974  139.1510  152.8890 C   0  0  0  0  0  0  0  0  0  0  0  0
  146.2317  138.0070  153.2183 C   0  0  0  0  0  0  0  0  0  0  0  0
  145.9181  137.1703  152.0225 C   0  0  0  0  0  0  0  0  0  0  0  0
  145.1097  136.0692  152.0817 N   0  0  0  0  0  0  0  0  0  0  0  0
  145.1768  135.6563  150.8175 C   0  0  0  0  0  0  0  0  0  0  0  0
  144.4664  134.4694  150.2390 C   0  0  2  0  0  0  0  0  0  0  0  0
  143.6657  133.6408  151.2444 C   0  0  0  0  0  0  0  0  0  0  0  0
  143.7468  132.2280  150.6683 C   0  0  1  0  0  0  0  0  0  0  0  0
  142.7231  132.0342  149.7125 O   0  0  0  0  0  0  0  0  0  0  0  0
  145.1198  132.1801  149.9782 C   0  0  0  0  0  0  0  0  0  0  0  0
  145.5315  133.5788  149.7385 N   0  3  0  0  0  0  0  0  0  0  0  0
  145.9602  136.4386  150.0712 N   0  0  0  0  0  0  0  0  0  0  0  0
  146.4672  137.4275  150.8367 N   0  0  0  0  0  0  0  0  0  0  0  0
  143.8364  134.7696  149.4001 H   0  0  0  0  0  0  0  0  0  0  0  0
  143.6512  131.4636  151.4403 H   0  0  0  0  0  0  0  0  0  0  0  0
  146.1735  136.3399  149.0886 H   0  0  0  0  0  0  0  0  0  0  0  0
  147.4111  139.7464  153.7770 H   0  0  0  0  0  0  0  0  0  0  0  0
  146.7762  139.8168  152.1351 H   0  0  0  0  0  0  0  0  0  0  0  0
  148.1452  138.7690  152.5080 H   0  0  0  0  0  0  0  0  0  0  0  0
  146.6611  137.3721  153.9942 H   0  0  0  0  0  0  0  0  0  0  0  0
  145.3050  138.4112  153.6275 H   0  0  0  0  0  0  0  0  0  0  0  0
  144.1667  133.6483  152.2140 H   0  0  0  0  0  0  0  0  0  0  0  0
  142.6494  134.0070  151.3959 H   0  0  0  0  0  0  0  0  0  0  0  0
  142.3220  132.8696  149.5237 H   0  0  0  0  0  0  0  0  0  0  0  0
  145.8578  131.7241  150.6389 H   0  0  0  0  0  0  0  0  0  0  0  0
  145.1085  131.6045  149.0515 H   0  0  0  0  0  0  0  0  0  0  0  0
  145.7004  133.7475  148.7574 H   0  0  0  0  0  0  0  0  0  0  0  0
  146.3743  133.7602  150.2658 H   0  0  0  0  0  0  0  0  0  0  0  0
  1  2  1  0  0  0  0
  1 17  1  0  0  0  0
  1 18  1  0  0  0  0
  1 19  1  0  0  0  0
  2 20  1  0  0  0  0
  2 21  1  0  0  0  0
  2  3  1  0  0  0  0
  3  4  1  0  0  0  0
  3 13  2  0  0  0  0
  4  5  2  0  0  0  0
  5  6  1  0  0  0  0
  5 12  1  0  0  0  0
  6 14  1  0  0  0  0
  6 11  1  0  0  0  0
  6  7  1  0  0  0  0
  7  8  1  0  0  0  0
  7 22  1  0  0  0  0
  7 23  1  0  0  0  0
  8 15  1  0  0  0  0
  8  9  1  0  0  0  0
  8 10  1  0  0  0  0
  9 24  1  0  0  0  0
 10 11  1  0  0  0  0
 10 25  1  0  0  0  0
 10 26  1  0  0  0  0
 11 27  1  0  0  0  0
 11 28  1  0  0  0  0
 12 13  1  0  0  0  0
 12 16  1  0  0  0  0
M  CHG  1  11   1
M  END
> <s_m_source_file>
AV-unprocessed.smi

> <i_m_source_file_index>
49

> <i_lp_mmshare_version>
43012

> <i_f3d_flags>
0

> <s_epik_input>
W0NIM11bQ0gyXWMxbmMobltuSF0xKVtDQEBIXTJbQ0gyXVtDQEBIXShbT0hdKVtDSDJdW05IXTI=

> <s_epik_cmdline>
J2VwaWtfcHl0aG9uJywgJy1waCcsICc3LjAnLCAnLXRuJywgJzgnLCAnLW1hJywgJzIwMCcsICctbWV0YWxfYmluZGluZycsICctaW1hZScsICc8aW5maWxlLm1hZT4nLCAnLW9tYWUnLCAnPG91dGZpbGUubWFlPic=

> <r_epik_Ionization_Penalty>
0.372103

> <r_epik_Ionization_Penalty_Charging>
0.0688988

> <r_epik_Ionization_Penalty_Neutral>
0.303204

> <r_epik_State_Penalty>
0.737493

> <r_epik_Charging_Adjusted_Penalty>
0.806392

> <i_epik_Tot_Q>
1

> <i_epik_Tot_abs_Q>
1

> <r_epik_Metal_State_Penalty>
1.01235

> <b_epik_Metal_Only>
0

> <s_lp_Force_Field>
OPLS_2005

> <r_lp_Energy>
18.9462

> <b_lp_Chiralities_Consistent>
1

> <s_lp_Variant>
AV-unprocessed.smi:49-5

> <Gold.Version>
5.8.1

> <Gold.Id.Protein>
6NUR|6NUR_protein|mol2

> <Gold.PLP.Fitness>
36.1879

> <Gold.PLP.PLP>
-23.2406

> <Gold.PLP.part.hbond>
-6.4741

> <Gold.PLP.part.metal>
0.0000

> <Gold.PLP.part.buried>
0.1316

> <Gold.PLP.part.nonpolar>
-19.4372

> <Gold.PLP.part.repulsive>
2.9670

> <Gold.PLP.ligand.clash>
0.0000

> <Gold.PLP.ligand.torsion>
0.0134

> <Gold.PLP.Chemscore.Hbond>
4.3182

> <Gold.PLP.Chemscore.CHOScore>
0.0000

> <Gold.PLP.Chemscore.Metal>
0.0000

> <Gold.Chemscore.Hbonds>
donor molecule, donor type, donor heavy atom, donor atom, acceptor molecule, acceptor atom, score
      L1  H     9    24       P1 10186  1.00
      L1  H    11    27       P1  7921  0.91
      L1  H    12    16       P1  7921  0.70
      P1  H  7954  7966       L1    13  1.00
      P1  H 10785 10796       L1     9  0.63

> <Gold.PLP.Chemscore.Internal.Correction>
0.0196

> <Gold.Rescore>
     Score         DG    S(hbond)    S(metal)    S(lipo)     H(rot)  DE(clash)    DE(int)     intcor
     13.71     -15.64       2.85        0.00      46.86       1.89       1.88       0.05       ----

> <Gold.Chemscore.Fitness>
13.7092

> <Gold.Chemscore.DG>
-15.6423

> <Gold.Chemscore.ZeroCoef>
-5.4800

> <Gold.Chemscore.Hbond>
2.8486

> <Gold.Chemscore.Metal>
0.0000

> <Gold.Chemscore.Lipo>
46.8552

> <Gold.Chemscore.Internal_Hbond>
0.0000

> <Gold.Chemscore.DEClash>
1.8828

> <Gold.Chemscore.DEInternal>
0.0503

> <Gold.Chemscore.Rot>
1.8883

> <Gold.Chemscore.Internal.Correction>
   9.000000E+99

> <Gold.Chemscore.Hbonds>
donor molecule, donor type, donor heavy atom, donor atom, acceptor molecule, acceptor atom, score
      L1  H     9    24       P1 10186  0.93
      L1  H    11    27       P1  7921  0.20
      L1  H    12    16       P1  7921  0.66
      P1  H  7954  7966       L1    13  0.33
      P1  H 10785 10796       L1     9  0.31

> <Gold.Chemscore.Hbond.Weighted>
-9.5142

> <Gold.Chemscore.Metal.Weighted>
-0.0000

> <Gold.Chemscore.Lipo.Weighted>
-5.4821

> <Gold.Chemscore.Internal_Hbond.Weighted>
0.0000

> <Gold.Chemscore.DEClash.Weighted>
1.8828

> <Gold.Chemscore.DEInternal.Weighted>
0.0503

> <Gold.Chemscore.Rot.Weighted>
4.8340

> <Gold.Chemscore.Internal.Correction.Weighted>
   9.000000E+99

> <Gold.Protein.RotatedTorsions>
[ 6907 6896 6895 6894 ] final  155.19 input  -60.11 | X-H torsion
[ 7974 7965 7964 7962 ] final  -30.73 input  175.53 | X-H torsion
[ 8008 7997 7996 7995 ] final   64.98 input   59.86 | X-H torsion
[ 10167 10162 10161 10158 ] final -119.23 input  -65.29 | X-H torsion
[ 10718 10713 10712 10709 ] final  -78.74 input   66.30 | X-H torsion
[ 10763 10752 10751 10750 ] final -102.39 input  -60.55 | X-H torsion
[ 11005 11000 10999 10996 ] final   16.59 input  -57.11 | X-H torsion

> <Gold.Protein.ActiveResidues>
 VAL166  LYS551  ARG553  GLY616  TRP617  ASP618  TYR619  PRO620  LYS621  CYS622 
 ASP623  PHE694  ASN695  SER759  ASP760  ASP761  ALA762  ILE779  LEU786  VAL792 
 PHE793  MET794  SER795  GLU796  ALA797  LYS798  CYS799  TRP800  GLU811  SER814 

> <Gold.Protein.RotatedAtoms>
  152.0476  133.4005  159.4363 H   0  0  0  0  0  0  0  0  0  0  0  0  # atno 6907 bound_to 6896
  150.6872  134.3344  159.4850 H   0  0  0  0  0  0  0  0  0  0  0  0  # atno 6908 bound_to 6896
  152.1150  134.9247  160.0616 H   0  0  0  0  0  0  0  0  0  0  0  0  # atno 6909 bound_to 6896
  146.1121  140.5577  142.8773 H   0  0  0  0  0  0  0  0  0  0  0  0  # atno 7974 bound_to 7965
  155.6546  140.3497  155.4760 H   0  0  0  0  0  0  0  0  0  0  0  0  # atno 8008 bound_to 7997
  155.9819  140.1176  157.0741 H   0  0  0  0  0  0  0  0  0  0  0  0  # atno 8009 bound_to 7997
  154.4194  140.1136  156.5434 H   0  0  0  0  0  0  0  0  0  0  0  0  # atno 8010 bound_to 7997
  140.0489  143.5079  152.2092 H   0  0  0  0  0  0  0  0  0  0  0  0  # atno 10167 bound_to 10162
  156.0110  130.4526  150.3543 H   0  0  0  0  0  0  0  0  0  0  0  0  # atno 10718 bound_to 10713
  154.7730  135.4862  153.9688 H   0  0  0  0  0  0  0  0  0  0  0  0  # atno 10763 bound_to 10752
  153.1393  135.6769  153.9061 H   0  0  0  0  0  0  0  0  0  0  0  0  # atno 10764 bound_to 10752
  153.8740  135.3140  155.3421 H   0  0  0  0  0  0  0  0  0  0  0  0  # atno 10765 bound_to 10752
  140.4454  134.1278  155.7695 H   0  0  0  0  0  0  0  0  0  0  0  0  # atno 11005 bound_to 11000
  144.7521  140.5216  143.6795 LP  0  0  0  0  0  0  0  0  0  0  0  0  # atno 17320 bound_to 7965
  145.5642  139.1480  143.3324 LP  0  0  0  0  0  0  0  0  0  0  0  0  # atno 17321 bound_to 7965
  139.5966  144.7569  151.3273 LP  0  0  0  0  0  0  0  0  0  0  0  0  # atno 17342 bound_to 10162
  140.7226  143.7094  150.7781 LP  0  0  0  0  0  0  0  0  0  0  0  0  # atno 17343 bound_to 10162
  157.1634  131.0351  151.2830 LP  0  0  0  0  0  0  0  0  0  0  0  0  # atno 17370 bound_to 10713
  157.4291  130.7480  149.6975 LP  0  0  0  0  0  0  0  0  0  0  0  0  # atno 17371 bound_to 10713
  141.1687  133.8651  157.1636 LP  0  0  0  0  0  0  0  0  0  0  0  0  # atno 17394 bound_to 11000
  140.0042  135.0015  157.0256 LP  0  0  0  0  0  0  0  0  0  0  0  0  # atno 17395 bound_to 11000

$$$$
