AV-unprocessed.smi:835|AV-procd|sdf|3888|dock2
  -GOLD-   22720 1343D 1   1.00000     0.00000
 Structure written by MMmdl.
 41 43  0  0  0  0  0  0  0  0  2 V2000
  151.2640  142.3417  157.5898 C   0  0  0  0  0  0  0  0  0  0  0  0
  150.9222  141.3699  156.4991 C   0  0  0  0  0  0  0  0  0  0  0  0
  149.8272  141.4231  155.5881 C   0  0  0  0  0  0  0  0  0  0  0  0
  150.0105  140.2982  154.8312 C   0  0  0  0  0  0  0  0  0  0  0  0
  149.2604  139.8307  153.7978 N   0  0  0  0  0  0  0  0  0  0  0  0
  148.0169  139.3205  153.8263 C   0  0  0  0  0  0  0  0  0  0  0  0
  147.3229  139.1810  154.8335 O   0  0  0  0  0  0  0  0  0  0  0  0
  147.6071  138.9697  152.5991 N   0  0  0  0  0  0  0  0  0  0  0  0
  146.3039  138.3869  152.2973 C   0  0  2  0  0  0  0  0  0  0  0  0
  145.7674  137.4427  153.3768 C   0  0  0  0  0  0  0  0  0  0  0  0
  144.9032  136.4284  152.6081 C   0  0  0  0  0  0  0  0  0  0  0  0
  145.1264  136.6810  151.1654 N   0  3  2  0  0  0  0  0  0  0  0  0
  145.1333  135.4639  150.3268 C   0  0  0  0  0  0  0  0  0  0  0  0
  144.2767  134.3481  150.8758 C   0  0  0  0  0  0  0  0  0  0  0  0
  145.7839  134.2755  150.9936 C   0  0  0  0  0  0  0  0  0  0  0  0
  146.3533  137.4902  151.0646 C   0  0  0  0  0  0  0  0  0  0  0  0
  151.1362  139.6412  155.2761 N   0  0  0  0  0  0  0  0  0  0  0  0
  151.7343  138.4104  154.7968 C   0  0  0  0  0  0  0  0  0  0  0  0
  151.6959  140.3072  156.3091 N   0  0  0  0  0  0  0  0  0  0  0  0
  150.6379  143.2325  157.5340 H   0  0  0  0  0  0  0  0  0  0  0  0
  152.3034  142.6634  157.5203 H   0  0  0  0  0  0  0  0  0  0  0  0
  151.1173  141.8941  158.5730 H   0  0  0  0  0  0  0  0  0  0  0  0
  149.0509  142.1701  155.5205 H   0  0  0  0  0  0  0  0  0  0  0  0
  149.7027  139.8785  152.8918 H   0  0  0  0  0  0  0  0  0  0  0  0
  148.2373  139.1170  151.8240 H   0  0  0  0  0  0  0  0  0  0  0  0
  145.5774  139.1828  152.1199 H   0  0  0  0  0  0  0  0  0  0  0  0
  146.5890  136.9209  153.8700 H   0  0  0  0  0  0  0  0  0  0  0  0
  145.2043  137.9732  154.1455 H   0  0  0  0  0  0  0  0  0  0  0  0
  145.1875  135.4110  152.8809 H   0  0  0  0  0  0  0  0  0  0  0  0
  143.8437  136.5486  152.8356 H   0  0  0  0  0  0  0  0  0  0  0  0
  145.2257  135.6135  149.2522 H   0  0  0  0  0  0  0  0  0  0  0  0
  143.7096  134.5332  151.7865 H   0  0  0  0  0  0  0  0  0  0  0  0
  143.8006  133.6816  150.1594 H   0  0  0  0  0  0  0  0  0  0  0  0
  146.2993  133.5610  150.3546 H   0  0  0  0  0  0  0  0  0  0  0  0
  146.2188  134.4131  151.9819 H   0  0  0  0  0  0  0  0  0  0  0  0
  146.3847  138.0569  150.1335 H   0  0  0  0  0  0  0  0  0  0  0  0
  147.2287  136.8385  151.0985 H   0  0  0  0  0  0  0  0  0  0  0  0
  151.0669  137.5744  155.0059 H   0  0  0  0  0  0  0  0  0  0  0  0
  152.6917  138.2318  155.2880 H   0  0  0  0  0  0  0  0  0  0  0  0
  151.8980  138.4763  153.7211 H   0  0  0  0  0  0  0  0  0  0  0  0
  144.3666  137.2693  150.8541 H   0  0  0  0  0  0  0  0  0  0  0  0
  1  2  1  0  0  0  0
  1 20  1  0  0  0  0
  1 21  1  0  0  0  0
  1 22  1  0  0  0  0
  2 19  2  0  0  0  0
  2  3  1  0  0  0  0
  3  4  2  0  0  0  0
  3 23  1  0  0  0  0
  4  5  1  0  0  0  0
  4 17  1  0  0  0  0
  5  6  1  0  0  0  0
  5 24  1  0  0  0  0
  6  7  2  0  0  0  0
  6  8  1  0  0  0  0
  8  9  1  0  0  0  0
  8 25  1  0  0  0  0
  9 16  1  0  0  0  0
  9 10  1  0  0  0  0
  9 26  1  0  0  0  0
 10 11  1  0  0  0  0
 10 27  1  0  0  0  0
 10 28  1  0  0  0  0
 11 12  1  0  0  0  0
 11 29  1  0  0  0  0
 11 30  1  0  0  0  0
 12 13  1  0  0  0  0
 12 16  1  0  0  0  0
 12 41  1  0  0  0  0
 13 15  1  0  0  0  0
 13 14  1  0  0  0  0
 13 31  1  0  0  0  0
 14 15  1  0  0  0  0
 14 32  1  0  0  0  0
 14 33  1  0  0  0  0
 15 34  1  0  0  0  0
 15 35  1  0  0  0  0
 16 36  1  0  0  0  0
 16 37  1  0  0  0  0
 17 18  1  0  0  0  0
 17 19  1  0  0  0  0
 18 38  1  0  0  0  0
 18 39  1  0  0  0  0
 18 40  1  0  0  0  0
M  CHG  1  12   1
M  END
> <s_m_source_file>
AV-unprocessed.smi

> <i_m_source_file_index>
835

> <i_lp_mmshare_version>
43012

> <i_f3d_flags>
0

> <s_epik_input>
W0NIM11jMVtjSF1jKG4objEpW0NIM10pW05IXUMoPU8pW05IXVtDQEBIXTJbQ0gyXVtDSDJdTihbQ0gyXTIpW0NIXTNbQ0gyXVtDSDJdMw==

> <s_epik_cmdline>
J2VwaWtfcHl0aG9uJywgJy1waCcsICc3LjAnLCAnLXRuJywgJzgnLCAnLW1hJywgJzIwMCcsICctbWV0YWxfYmluZGluZycsICctaW1hZScsICc8aW5maWxlLm1hZT4nLCAnLW9tYWUnLCAnPG91dGZpbGUubWFlPic=

> <r_lp_tautomer_probability>
1

> <r_epik_Ionization_Penalty>
0.000700689

> <r_epik_Ionization_Penalty_Charging>
0.000627528

> <r_epik_Ionization_Penalty_Neutral>
7.31611e-05

> <r_epik_State_Penalty>
0.00039643

> <r_epik_Charging_Adjusted_Penalty>
0.00102396

> <i_epik_Tot_Q>
1

> <i_epik_Tot_abs_Q>
1

> <r_epik_Metal_State_Penalty>
-0

> <b_epik_Metal_Only>
0

> <s_lp_Force_Field>
OPLS_2005

> <r_lp_Energy>
38.0167

> <b_lp_Chiralities_Consistent>
1

> <s_lp_Variant>
AV-unprocessed.smi:835-3

> <Gold.Version>
5.8.1

> <Gold.Id.Protein>
6NUR|6NUR_protein|mol2

> <Gold.PLP.Fitness>
41.7198

> <Gold.PLP.PLP>
-35.0268

> <Gold.PLP.part.hbond>
-3.7079

> <Gold.PLP.part.metal>
0.0000

> <Gold.PLP.part.buried>
2.0615

> <Gold.PLP.part.nonpolar>
-33.8869

> <Gold.PLP.part.repulsive>
0.3325

> <Gold.PLP.ligand.clash>
0.0000

> <Gold.PLP.ligand.torsion>
1.6415

> <Gold.PLP.Chemscore.Hbond>
2.9040

> <Gold.PLP.Chemscore.CHOScore>
0.0000

> <Gold.PLP.Chemscore.Metal>
0.0000

> <Gold.Chemscore.Hbonds>
donor molecule, donor type, donor heavy atom, donor atom, acceptor molecule, acceptor atom, score
      L1  H     5    24       P1  7957  1.00
      L1  H     8    25       P1  7957  0.98
      L1  H    12    41       P1 10171  0.94

> <Gold.PLP.Chemscore.Internal.Correction>
1.2641

> <Gold.Rescore>
     Score         DG    S(hbond)    S(metal)    S(lipo)     H(rot)  DE(clash)    DE(int)     intcor
     15.88     -20.04       2.80        0.00      71.18       1.22       1.08       3.08       ----

> <Gold.Chemscore.Fitness>
15.8774

> <Gold.Chemscore.DG>
-20.0385

> <Gold.Chemscore.ZeroCoef>
-5.4800

> <Gold.Chemscore.Hbond>
2.8001

> <Gold.Chemscore.Metal>
0.0000

> <Gold.Chemscore.Lipo>
71.1828

> <Gold.Chemscore.Internal_Hbond>
0.0000

> <Gold.Chemscore.DEClash>
1.0768

> <Gold.Chemscore.DEInternal>
3.0843

> <Gold.Chemscore.Rot>
1.2196

> <Gold.Chemscore.Internal.Correction>
   9.000000E+99

> <Gold.Chemscore.Hbonds>
donor molecule, donor type, donor heavy atom, donor atom, acceptor molecule, acceptor atom, score
      L1  H     5    24       P1  7957  0.95
      L1  H     8    25       P1  7957  0.90
      L1  H    12    41       P1 10171  0.91

> <Gold.Chemscore.Hbond.Weighted>
-9.3524

> <Gold.Chemscore.Metal.Weighted>
-0.0000

> <Gold.Chemscore.Lipo.Weighted>
-8.3284

> <Gold.Chemscore.Internal_Hbond.Weighted>
0.0000

> <Gold.Chemscore.DEClash.Weighted>
1.0768

> <Gold.Chemscore.DEInternal.Weighted>
3.0843

> <Gold.Chemscore.Rot.Weighted>
3.1223

> <Gold.Chemscore.Internal.Correction.Weighted>
   9.000000E+99

> <Gold.Protein.RotatedTorsions>
[ 6907 6896 6895 6894 ] final  109.10 input  -60.11 | X-H torsion
[ 7974 7965 7964 7962 ] final  175.48 input  175.53 | X-H torsion
[ 8008 7997 7996 7995 ] final -115.21 input   59.86 | X-H torsion
[ 10167 10162 10161 10158 ] final  125.62 input  -65.29 | X-H torsion
[ 10718 10713 10712 10709 ] final   99.25 input   66.30 | X-H torsion
[ 10763 10752 10751 10750 ] final  106.72 input  -60.55 | X-H torsion
[ 11005 11000 10999 10996 ] final -133.94 input  -57.11 | X-H torsion

> <Gold.Protein.ActiveResidues>
 VAL166  LYS551  ARG553  GLY616  TRP617  ASP618  TYR619  PRO620  LYS621  CYS622 
 ASP623  PHE694  ASN695  SER759  ASP760  ASP761  ALA762  ILE779  LEU786  VAL792 
 PHE793  MET794  SER795  GLU796  ALA797  LYS798  CYS799  TRP800  GLU811  SER814 

> <Gold.Protein.RotatedAtoms>
  152.5082  133.8992  159.7432 H   0  0  0  0  0  0  0  0  0  0  0  0  # atno 6907 bound_to 6896
  150.9412  133.6646  159.2797 H   0  0  0  0  0  0  0  0  0  0  0  0  # atno 6908 bound_to 6896
  151.3956  135.0968  159.9592 H   0  0  0  0  0  0  0  0  0  0  0  0  # atno 6909 bound_to 6896
  144.7201  139.9953  143.6440 H   0  0  0  0  0  0  0  0  0  0  0  0  # atno 7974 bound_to 7965
  155.0485  140.0393  157.2535 H   0  0  0  0  0  0  0  0  0  0  0  0  # atno 8008 bound_to 7997
  154.7157  140.2702  155.6563 H   0  0  0  0  0  0  0  0  0  0  0  0  # atno 8009 bound_to 7997
  156.2802  140.2713  156.1813 H   0  0  0  0  0  0  0  0  0  0  0  0  # atno 8010 bound_to 7997
  139.5676  144.6920  151.3868 H   0  0  0  0  0  0  0  0  0  0  0  0  # atno 10167 bound_to 10162
  157.6880  131.0664  150.4919 H   0  0  0  0  0  0  0  0  0  0  0  0  # atno 10718 bound_to 10713
  153.3968  135.3868  155.1960 H   0  0  0  0  0  0  0  0  0  0  0  0  # atno 10763 bound_to 10752
  154.8725  135.3761  154.4669 H   0  0  0  0  0  0  0  0  0  0  0  0  # atno 10764 bound_to 10752
  153.5161  135.7087  153.5817 H   0  0  0  0  0  0  0  0  0  0  0  0  # atno 10765 bound_to 10752
  140.9035  134.1660  157.4443 H   0  0  0  0  0  0  0  0  0  0  0  0  # atno 11005 bound_to 11000
  146.0379  139.3394  143.0715 LP  0  0  0  0  0  0  0  0  0  0  0  0  # atno 17320 bound_to 7965
  145.8372  140.9600  143.0818 LP  0  0  0  0  0  0  0  0  0  0  0  0  # atno 17321 bound_to 7965
  140.6960  143.7749  150.7327 LP  0  0  0  0  0  0  0  0  0  0  0  0  # atno 17342 bound_to 10162
  140.1245  143.4582  152.2293 LP  0  0  0  0  0  0  0  0  0  0  0  0  # atno 17343 bound_to 10162
  156.5246  130.4170  149.6233 LP  0  0  0  0  0  0  0  0  0  0  0  0  # atno 17370 bound_to 10713
  156.3124  130.7236  151.2131 LP  0  0  0  0  0  0  0  0  0  0  0  0  # atno 17371 bound_to 10713
  139.8746  134.9907  156.5517 LP  0  0  0  0  0  0  0  0  0  0  0  0  # atno 17394 bound_to 11000
  140.8200  133.8361  155.8887 LP  0  0  0  0  0  0  0  0  0  0  0  0  # atno 17395 bound_to 11000

$$$$
