AV-unprocessed.smi:261|AV-procd|sdf|1997|dock7
  -GOLD-   2262021193D 1   1.00000     0.00000
 Structure written by MMmdl.
 51 54  0  0  0  0  0  0  0  0  1 V2000
  148.1334  128.0187  151.6603 C   0  0  0  0  0  0  0  0  0  0  0  0
  146.8015  128.4003  151.9644 O   0  0  0  0  0  0  0  0  0  0  0  0
  146.4478  129.6794  151.4583 C   0  0  1  0  0  0  0  0  0  0  0  0
  144.9416  129.9550  151.4947 C   0  0  0  0  0  0  0  0  0  0  0  0
  144.8337  131.4890  151.5416 C   0  0  2  0  0  0  0  0  0  0  0  0
  144.7588  132.0940  150.1278 C   0  0  0  0  0  0  0  0  0  0  0  0
  145.7881  132.8535  149.7456 N   0  0  0  0  0  0  0  0  0  0  0  0
  143.7903  131.8924  149.3965 O   0  0  0  0  0  0  0  0  0  0  0  0
  146.0517  131.8870  152.2477 N   0  0  0  0  0  0  0  0  0  0  0  0
  146.2444  133.0808  152.8750 C   0  0  0  0  0  0  0  0  0  0  0  0
  146.8820  133.0678  154.0760 N   0  0  0  0  0  0  0  0  0  0  0  0
  147.1070  134.2006  154.7455 C   0  0  0  0  0  0  0  0  0  0  0  0
  146.7846  135.4474  154.4032 N   0  0  0  0  0  0  0  0  0  0  0  0
  146.1434  135.4778  153.2008 C   0  0  0  0  0  0  0  0  0  0  0  0
  145.8313  134.3554  152.3776 C   0  0  0  0  0  0  0  0  0  0  0  0
  145.1667  134.7962  151.2373 N   0  0  0  0  0  0  0  0  0  0  0  0
  145.0945  136.0905  151.3759 C   0  0  0  0  0  0  0  0  0  0  0  0
  145.6741  136.5877  152.5193 N   0  0  0  0  0  0  0  0  0  0  0  0
  145.7327  137.9812  152.9282 C   0  0  0  0  0  0  0  0  0  0  0  0
  147.1595  138.5768  152.9096 C   0  0  1  0  0  0  0  0  0  0  0  0
  147.4098  138.9322  151.5647 O   0  0  0  0  0  0  0  0  0  0  0  0
  147.3586  139.8518  153.7618 C   0  0  1  0  0  0  0  0  0  0  0  0
  148.7961  140.3602  153.8940 C   0  0  0  0  0  0  0  0  0  0  0  0
  148.6303  141.8400  154.1945 C   0  0  0  0  0  0  0  0  0  0  0  0
  147.2063  142.1494  153.7305 C   0  0  0  0  0  0  0  0  0  0  0  0
  146.7536  140.9567  153.1049 O   0  0  0  0  0  0  0  0  0  0  0  0
  147.0072  130.7883  152.3502 C   0  0  0  0  0  0  0  0  0  0  0  0
  146.8287  129.8133  150.4440 H   0  0  0  0  0  0  0  0  0  0  0  0
  143.9452  131.7602  152.1125 H   0  0  0  0  0  0  0  0  0  0  0  0
  148.3465  127.0509  152.1138 H   0  0  0  0  0  0  0  0  0  0  0  0
  148.8514  128.7388  152.0550 H   0  0  0  0  0  0  0  0  0  0  0  0
  148.2879  127.9228  150.5852 H   0  0  0  0  0  0  0  0  0  0  0  0
  144.4122  129.5072  150.6524 H   0  0  0  0  0  0  0  0  0  0  0  0
  144.5143  129.5354  152.4067 H   0  0  0  0  0  0  0  0  0  0  0  0
  145.7862  133.2826  148.8317 H   0  0  0  0  0  0  0  0  0  0  0  0
  146.5614  133.0033  150.3772 H   0  0  0  0  0  0  0  0  0  0  0  0
  147.6202  134.0920  155.6895 H   0  0  0  0  0  0  0  0  0  0  0  0
  144.6191  136.7215  150.6390 H   0  0  0  0  0  0  0  0  0  0  0  0
  145.0891  138.5367  152.2442 H   0  0  0  0  0  0  0  0  0  0  0  0
  145.2910  138.0868  153.9199 H   0  0  0  0  0  0  0  0  0  0  0  0
  147.8850  137.8156  153.1985 H   0  0  0  0  0  0  0  0  0  0  0  0
  148.1590  139.5075  151.5403 H   0  0  0  0  0  0  0  0  0  0  0  0
  146.9209  139.7296  154.7547 H   0  0  0  0  0  0  0  0  0  0  0  0
  149.3588  139.8434  154.6707 H   0  0  0  0  0  0  0  0  0  0  0  0
  149.3278  140.2412  152.9490 H   0  0  0  0  0  0  0  0  0  0  0  0
  148.7339  142.0396  155.2617 H   0  0  0  0  0  0  0  0  0  0  0  0
  149.3739  142.4369  153.6658 H   0  0  0  0  0  0  0  0  0  0  0  0
  146.5646  142.3773  154.5824 H   0  0  0  0  0  0  0  0  0  0  0  0
  147.1654  142.9900  153.0376 H   0  0  0  0  0  0  0  0  0  0  0  0
  147.0568  130.4608  153.3898 H   0  0  0  0  0  0  0  0  0  0  0  0
  148.0094  131.0795  152.0333 H   0  0  0  0  0  0  0  0  0  0  0  0
  1  2  1  0  0  0  0
  1 30  1  0  0  0  0
  1 31  1  0  0  0  0
  1 32  1  0  0  0  0
  2  3  1  0  0  0  0
  3 28  1  0  0  0  0
  3 27  1  0  0  0  0
  3  4  1  0  0  0  0
  4  5  1  0  0  0  0
  4 33  1  0  0  0  0
  4 34  1  0  0  0  0
  5 29  1  0  0  0  0
  5  6  1  0  0  0  0
  5  9  1  0  0  0  0
  6  7  1  0  0  0  0
  6  8  2  0  0  0  0
  7 35  1  0  0  0  0
  7 36  1  0  0  0  0
  9 10  1  0  0  0  0
  9 27  1  0  0  0  0
 10 15  1  0  0  0  0
 10 11  2  0  0  0  0
 11 12  1  0  0  0  0
 12 13  2  0  0  0  0
 12 37  1  0  0  0  0
 13 14  1  0  0  0  0
 14 18  1  0  0  0  0
 14 15  2  0  0  0  0
 15 16  1  0  0  0  0
 16 17  2  0  0  0  0
 17 18  1  0  0  0  0
 17 38  1  0  0  0  0
 18 19  1  0  0  0  0
 19 20  1  0  0  0  0
 19 39  1  0  0  0  0
 19 40  1  0  0  0  0
 20 21  1  0  0  0  0
 20 22  1  0  0  0  0
 20 41  1  0  0  0  0
 21 42  1  0  0  0  0
 22 26  1  0  0  0  0
 22 23  1  0  0  0  0
 22 43  1  0  0  0  0
 23 24  1  0  0  0  0
 23 44  1  0  0  0  0
 23 45  1  0  0  0  0
 24 25  1  0  0  0  0
 24 46  1  0  0  0  0
 24 47  1  0  0  0  0
 25 26  1  0  0  0  0
 25 48  1  0  0  0  0
 25 49  1  0  0  0  0
 27 50  1  0  0  0  0
 27 51  1  0  0  0  0
M  END
> <s_m_source_file>
AV-unprocessed.smi

> <i_m_source_file_index>
261

> <i_lp_mmshare_version>
43012

> <i_f3d_flags>
0

> <s_epik_input>
W0NIM11PW0NASF0xW0NIMl1bQ0BASF0oQyg9TylbTkgyXSlOKFtDSDJdMSljKG5bY0hdbjIpYyhjMjMpbltjSF1uM1tDSDJdW0NASF0oW09IXSlbQ0BASF00W0NIMl1bQ0gyXVtDSDJdTzQ=

> <s_epik_cmdline>
J2VwaWtfcHl0aG9uJywgJy1waCcsICc3LjAnLCAnLXRuJywgJzgnLCAnLW1hJywgJzIwMCcsICctbWV0YWxfYmluZGluZycsICctaW1hZScsICc8aW5maWxlLm1hZT4nLCAnLW9tYWUnLCAnPG91dGZpbGUubWFlPic=

> <r_lp_tautomer_probability>
1

> <r_epik_Ionization_Penalty>
0.000713824

> <r_epik_Ionization_Penalty_Charging>
0

> <r_epik_Ionization_Penalty_Neutral>
0.000713824

> <r_epik_State_Penalty>
0.000402132

> <r_epik_Charging_Adjusted_Penalty>
0.000402132

> <i_epik_Tot_Q>
0

> <i_epik_Tot_abs_Q>
0

> <r_epik_Metal_State_Penalty>
-0

> <b_epik_Metal_Only>
0

> <s_lp_Force_Field>
OPLS_2005

> <r_lp_Energy>
45.931

> <b_lp_Chiralities_Consistent>
1

> <s_lp_Variant>
AV-unprocessed.smi:261-15

> <Gold.Version>
5.8.1

> <Gold.Id.Protein>
6NUR|6NUR_protein|mol2

> <Gold.PLP.Fitness>
49.5211

> <Gold.PLP.PLP>
-40.3934

> <Gold.PLP.part.hbond>
-4.7967

> <Gold.PLP.part.metal>
0.0000

> <Gold.PLP.part.buried>
-2.1346

> <Gold.PLP.part.nonpolar>
-33.3060

> <Gold.PLP.part.repulsive>
0.9914

> <Gold.PLP.ligand.clash>
0.0000

> <Gold.PLP.ligand.torsion>
1.1477

> <Gold.PLP.Chemscore.Hbond>
2.7514

> <Gold.PLP.Chemscore.CHOScore>
1.0000

> <Gold.PLP.Chemscore.Metal>
0.0000

> <Gold.Chemscore.Hbonds>
donor molecule, donor type, donor heavy atom, donor atom, acceptor molecule, acceptor atom, score
      L1  H     7    35       P1  7921  0.50
      L1  H    21    42       P1  7957  1.00
      P1  H  7954  7966       L1    21  0.32
      P1  H 10785 10796       L1     8  0.83
      L1  C    17    38       P1 10171  1.00

> <Gold.PLP.Chemscore.Internal.Correction>
0.1687

> <Gold.Rescore>
     Score         DG    S(hbond)    S(metal)    S(lipo)     H(rot)  DE(clash)    DE(int)     intcor
      7.73     -14.14       2.03        0.00      85.54       3.18       1.26       5.15       ----

> <Gold.Chemscore.Fitness>
7.7283

> <Gold.Chemscore.DG>
-14.1356

> <Gold.Chemscore.ZeroCoef>
-5.4800

> <Gold.Chemscore.Hbond>
2.0347

> <Gold.Chemscore.Metal>
0.0000

> <Gold.Chemscore.Lipo>
85.5428

> <Gold.Chemscore.Internal_Hbond>
0.0000

> <Gold.Chemscore.DEClash>
1.2551

> <Gold.Chemscore.DEInternal>
5.1522

> <Gold.Chemscore.Rot>
3.1831

> <Gold.Chemscore.Internal.Correction>
   9.000000E+99

> <Gold.Chemscore.Hbonds>
donor molecule, donor type, donor heavy atom, donor atom, acceptor molecule, acceptor atom, score
      L1  H     7    35       P1  7921  0.02
      L1  H    21    42       P1  7957  0.93
      P1  H  7954  7966       L1    21  0.01
      P1  H 10785 10796       L1     8  0.82

> <Gold.Chemscore.Hbond.Weighted>
-6.7957

> <Gold.Chemscore.Metal.Weighted>
-0.0000

> <Gold.Chemscore.Lipo.Weighted>
-10.0085

> <Gold.Chemscore.Internal_Hbond.Weighted>
0.0000

> <Gold.Chemscore.DEClash.Weighted>
1.2551

> <Gold.Chemscore.DEInternal.Weighted>
5.1522

> <Gold.Chemscore.Rot.Weighted>
8.1486

> <Gold.Chemscore.Internal.Correction.Weighted>
   9.000000E+99

> <Gold.Protein.RotatedTorsions>
[ 6907 6896 6895 6894 ] final  102.91 input  -60.11 | X-H torsion
[ 7974 7965 7964 7962 ] final   -1.96 input  175.53 | X-H torsion
[ 8008 7997 7996 7995 ] final -123.19 input   59.86 | X-H torsion
[ 10167 10162 10161 10158 ] final   44.85 input  -65.29 | X-H torsion
[ 10718 10713 10712 10709 ] final   54.72 input   66.30 | X-H torsion
[ 10763 10752 10751 10750 ] final  -55.51 input  -60.55 | X-H torsion
[ 11005 11000 10999 10996 ] final -100.58 input  -57.11 | X-H torsion

> <Gold.Protein.ActiveResidues>
 VAL166  LYS551  ARG553  GLY616  TRP617  ASP618  TYR619  PRO620  LYS621  CYS622 
 ASP623  PHE694  ASN695  SER759  ASP760  ASP761  ALA762  ILE779  LEU786  VAL792 
 PHE793  MET794  SER795  GLU796  ALA797  LYS798  CYS799  TRP800  GLU811  SER814 

> <Gold.Protein.RotatedAtoms>
  152.5310  133.9905  159.7848 H   0  0  0  0  0  0  0  0  0  0  0  0  # atno 6907 bound_to 6896
  151.0142  133.5929  159.2686 H   0  0  0  0  0  0  0  0  0  0  0  0  # atno 6908 bound_to 6896
  151.2992  135.0770  159.9286 H   0  0  0  0  0  0  0  0  0  0  0  0  # atno 6909 bound_to 6896
  146.2410  140.1499  142.8334 H   0  0  0  0  0  0  0  0  0  0  0  0  # atno 7974 bound_to 7965
  155.1764  140.0409  157.2873 H   0  0  0  0  0  0  0  0  0  0  0  0  # atno 8008 bound_to 7997
  154.6233  140.2506  155.7494 H   0  0  0  0  0  0  0  0  0  0  0  0  # atno 8009 bound_to 7997
  156.2446  140.2890  156.0552 H   0  0  0  0  0  0  0  0  0  0  0  0  # atno 8010 bound_to 7997
  140.3301  144.2599  150.6169 H   0  0  0  0  0  0  0  0  0  0  0  0  # atno 10167 bound_to 10162
  157.5282  130.8612  149.8651 H   0  0  0  0  0  0  0  0  0  0  0  0  # atno 10718 bound_to 10713
  154.1920  135.6426  153.5062 H   0  0  0  0  0  0  0  0  0  0  0  0  # atno 10763 bound_to 10752
  153.0033  135.5431  154.6405 H   0  0  0  0  0  0  0  0  0  0  0  0  # atno 10764 bound_to 10752
  154.5797  135.2924  155.0718 H   0  0  0  0  0  0  0  0  0  0  0  0  # atno 10765 bound_to 10752
  141.1265  133.8410  157.1121 H   0  0  0  0  0  0  0  0  0  0  0  0  # atno 11005 bound_to 11000
  145.0176  140.8767  143.5186 LP  0  0  0  0  0  0  0  0  0  0  0  0  # atno 17320 bound_to 7965
  145.1542  139.2496  143.5425 LP  0  0  0  0  0  0  0  0  0  0  0  0  # atno 17321 bound_to 7965
  140.5405  143.2224  151.8092 LP  0  0  0  0  0  0  0  0  0  0  0  0  # atno 17342 bound_to 10162
  139.4858  144.4606  151.9545 LP  0  0  0  0  0  0  0  0  0  0  0  0  # atno 17343 bound_to 10162
  156.0403  130.3741  150.1454 LP  0  0  0  0  0  0  0  0  0  0  0  0  # atno 17370 bound_to 10713
  156.9639  130.9813  151.3473 LP  0  0  0  0  0  0  0  0  0  0  0  0  # atno 17371 bound_to 10713
  140.0269  134.9920  157.0703 LP  0  0  0  0  0  0  0  0  0  0  0  0  # atno 17394 bound_to 11000
  140.4348  134.1742  155.7170 LP  0  0  0  0  0  0  0  0  0  0  0  0  # atno 17395 bound_to 11000

$$$$
