AV-unprocessed.smi:1047|AV-procd|sdf|4588|dock6
  -GOLD-   22720 3 63D 1   1.00000     0.00000
 Structure written by MMmdl.
 57 59  0  0  0  0  0  0  0  0  3 V2000
  150.2626  129.3639  154.2657 C   0  0  0  0  0  0  0  0  0  0  0  0
  150.1908  130.7593  154.9021 C   0  0  0  0  0  0  0  0  0  0  0  0
  149.2241  131.6690  154.2890 N   0  0  0  0  0  0  0  0  0  0  0  0
  147.8468  131.2049  154.4349 C   0  0  0  0  0  0  0  0  0  0  0  0
  146.8421  132.1902  153.8146 C   0  0  0  0  0  0  0  0  0  0  0  0
  147.0184  133.4808  154.3900 O   0  0  0  0  0  0  0  0  0  0  0  0
  148.3372  133.9942  154.2169 C   0  0  1  0  0  0  0  0  0  0  0  0
  148.3980  135.3790  154.8754 C   0  0  0  0  0  0  0  0  0  0  0  0
  149.6122  136.1116  154.4646 N   0  3  0  0  0  0  0  0  0  0  0  0
  149.6647  137.5035  154.9543 C   0  0  0  0  0  0  0  0  0  0  0  0
  150.9138  138.2441  154.4374 C   0  0  2  0  0  0  0  0  0  0  0  0
  151.7918  137.3116  153.8397 O   0  0  0  0  0  0  0  0  0  0  0  0
  151.7074  138.9744  155.5405 C   0  0  0  0  0  0  0  0  0  0  0  0
  151.1378  140.2829  155.8941 N   0  0  0  0  0  0  0  0  0  0  0  0
  150.2543  141.0559  155.2053 C   0  0  0  0  0  0  0  0  0  0  0  0
  150.0371  142.1839  155.9363 N   0  3  0  0  0  0  0  0  0  0  0  0
  150.7969  142.1348  157.1066 C   0  0  0  0  0  0  0  0  0  0  0  0
  150.9107  143.0405  158.1548 C   0  0  0  0  0  0  0  0  0  0  0  0
  151.7763  142.6931  159.2164 C   0  0  0  0  0  0  0  0  0  0  0  0
  151.9212  143.6595  160.3799 C   0  0  0  0  0  0  0  0  0  0  0  0
  152.4956  141.4703  159.2008 C   0  0  0  0  0  0  0  0  0  0  0  0
  153.4232  141.1064  160.3477 C   0  0  0  0  0  0  0  0  0  0  0  0
  152.3665  140.5626  158.1251 C   0  0  0  0  0  0  0  0  0  0  0  0
  151.5087  140.9190  157.0863 C   0  0  0  0  0  0  0  0  0  0  0  0
  149.3354  133.0083  154.8563 C   0  0  0  0  0  0  0  0  0  0  0  0
  151.0806  128.7882  154.6990 H   0  0  0  0  0  0  0  0  0  0  0  0
  150.4371  129.4291  153.1915 H   0  0  0  0  0  0  0  0  0  0  0  0
  149.3474  128.7945  154.4273 H   0  0  0  0  0  0  0  0  0  0  0  0
  149.9850  130.6613  155.9692 H   0  0  0  0  0  0  0  0  0  0  0  0
  151.1848  131.2023  154.8284 H   0  0  0  0  0  0  0  0  0  0  0  0
  147.7218  130.2338  153.9566 H   0  0  0  0  0  0  0  0  0  0  0  0
  147.6124  131.0665  155.4915 H   0  0  0  0  0  0  0  0  0  0  0  0
  146.9733  132.2454  152.7329 H   0  0  0  0  0  0  0  0  0  0  0  0
  145.8213  131.8548  153.9970 H   0  0  0  0  0  0  0  0  0  0  0  0
  148.5543  134.0888  153.1511 H   0  0  0  0  0  0  0  0  0  0  0  0
  147.5106  135.9575  154.6145 H   0  0  0  0  0  0  0  0  0  0  0  0
  148.4065  135.2744  155.9612 H   0  0  0  0  0  0  0  0  0  0  0  0
  150.4206  135.6151  154.8112 H   0  0  0  0  0  0  0  0  0  0  0  0
  148.7618  138.0054  154.6062 H   0  0  0  0  0  0  0  0  0  0  0  0
  149.6359  137.5153  156.0450 H   0  0  0  0  0  0  0  0  0  0  0  0
  150.6201  138.9703  153.6781 H   0  0  0  0  0  0  0  0  0  0  0  0
  151.5045  137.1376  152.9565 H   0  0  0  0  0  0  0  0  0  0  0  0
  151.7938  138.3612  156.4375 H   0  0  0  0  0  0  0  0  0  0  0  0
  152.7283  139.1571  155.2016 H   0  0  0  0  0  0  0  0  0  0  0  0
  149.8074  140.8190  154.2501 H   0  0  0  0  0  0  0  0  0  0  0  0
  150.3608  143.9703  158.1594 H   0  0  0  0  0  0  0  0  0  0  0  0
  151.6536  143.1730  161.3182 H   0  0  0  0  0  0  0  0  0  0  0  0
  151.2735  144.5288  160.2604 H   0  0  0  0  0  0  0  0  0  0  0  0
  152.9487  144.0167  160.4547 H   0  0  0  0  0  0  0  0  0  0  0  0
  153.9368  140.1625  160.1621 H   0  0  0  0  0  0  0  0  0  0  0  0
  152.8602  141.0032  161.2757 H   0  0  0  0  0  0  0  0  0  0  0  0
  154.1834  141.8755  160.4868 H   0  0  0  0  0  0  0  0  0  0  0  0
  152.9140  139.6319  158.1202 H   0  0  0  0  0  0  0  0  0  0  0  0
  149.1657  132.9668  155.9337 H   0  0  0  0  0  0  0  0  0  0  0  0
  150.3502  133.3825  154.7163 H   0  0  0  0  0  0  0  0  0  0  0  0
  149.6485  136.1236  153.4551 H   0  0  0  0  0  0  0  0  0  0  0  0
  149.4187  142.9336  155.6529 H   0  0  0  0  0  0  0  0  0  0  0  0
  1  2  1  0  0  0  0
  1 26  1  0  0  0  0
  1 27  1  0  0  0  0
  1 28  1  0  0  0  0
  2  3  1  0  0  0  0
  2 29  1  0  0  0  0
  2 30  1  0  0  0  0
  3 25  1  0  0  0  0
  3  4  1  0  0  0  0
  4  5  1  0  0  0  0
  4 31  1  0  0  0  0
  4 32  1  0  0  0  0
  5  6  1  0  0  0  0
  5 33  1  0  0  0  0
  5 34  1  0  0  0  0
  6  7  1  0  0  0  0
  7  8  1  0  0  0  0
  7 25  1  0  0  0  0
  7 35  1  0  0  0  0
  8  9  1  0  0  0  0
  8 36  1  0  0  0  0
  8 37  1  0  0  0  0
  9 10  1  0  0  0  0
  9 38  1  0  0  0  0
  9 56  1  0  0  0  0
 10 11  1  0  0  0  0
 10 39  1  0  0  0  0
 10 40  1  0  0  0  0
 11 12  1  0  0  0  0
 11 13  1  0  0  0  0
 11 41  1  0  0  0  0
 12 42  1  0  0  0  0
 13 14  1  0  0  0  0
 13 43  1  0  0  0  0
 13 44  1  0  0  0  0
 14 24  1  0  0  0  0
 14 15  1  0  0  0  0
 15 16  2  0  0  0  0
 15 45  1  0  0  0  0
 16 17  1  0  0  0  0
 16 57  1  0  0  0  0
 17 24  2  0  0  0  0
 17 18  1  0  0  0  0
 18 19  2  0  0  0  0
 18 46  1  0  0  0  0
 19 20  1  0  0  0  0
 19 21  1  0  0  0  0
 20 47  1  0  0  0  0
 20 48  1  0  0  0  0
 20 49  1  0  0  0  0
 21 22  1  0  0  0  0
 21 23  2  0  0  0  0
 22 50  1  0  0  0  0
 22 51  1  0  0  0  0
 22 52  1  0  0  0  0
 23 24  1  0  0  0  0
 23 53  1  0  0  0  0
 25 54  1  0  0  0  0
 25 55  1  0  0  0  0
M  CHG  1   9   1
M  CHG  1  16   1
M  END
> <s_m_source_file>
AV-unprocessed.smi

> <i_m_source_file_index>
1047

> <i_lp_mmshare_version>
43012

> <i_f3d_flags>
0

> <s_epik_input>
W0NIM11bQ0gyXU4xW0NIMl1bQ0gyXU9bQ0BIXShbQ0gyXTEpW0NIMl1bTkhdW0NIMl1bQ0BIXShbT0hdKVtDSDJdbihbY0hdbjIpYyhjMjMpW2NIXWMoW0NIM10pYyhbY0hdMylbQ0gzXQ==

> <s_epik_cmdline>
J2VwaWtfcHl0aG9uJywgJy1waCcsICc3LjAnLCAnLXRuJywgJzgnLCAnLW1hJywgJzIwMCcsICctbWV0YWxfYmluZGluZycsICctaW1hZScsICc8aW5maWxlLm1hZT4nLCAnLW9tYWUnLCAnPG91dGZpbGUubWFlPic=

> <r_epik_Ionization_Penalty>
1.75732

> <r_epik_Ionization_Penalty_Charging>
1.18089

> <r_epik_Ionization_Penalty_Neutral>
0.576429

> <r_epik_State_Penalty>
1.69377

> <r_epik_Charging_Adjusted_Penalty>
2.87466

> <i_epik_Tot_Q>
2

> <i_epik_Tot_abs_Q>
2

> <r_epik_Metal_State_Penalty>
5.70174

> <b_epik_Metal_Only>
0

> <s_lp_Force_Field>
OPLS_2005

> <r_lp_Energy>
42.0789

> <b_lp_Chiralities_Consistent>
1

> <s_lp_Variant>
AV-unprocessed.smi:1047-29

> <Gold.Version>
5.8.1

> <Gold.Id.Protein>
6NUR|6NUR_protein|mol2

> <Gold.PLP.Fitness>
62.7681

> <Gold.PLP.PLP>
-47.5227

> <Gold.PLP.part.hbond>
-4.0000

> <Gold.PLP.part.metal>
0.0000

> <Gold.PLP.part.buried>
-5.1859

> <Gold.PLP.part.nonpolar>
-38.8379

> <Gold.PLP.part.repulsive>
0.2400

> <Gold.PLP.ligand.clash>
0.0000

> <Gold.PLP.ligand.torsion>
1.2616

> <Gold.PLP.Chemscore.Hbond>
5.8921

> <Gold.PLP.Chemscore.CHOScore>
0.0000

> <Gold.PLP.Chemscore.Metal>
0.0000

> <Gold.Chemscore.Hbonds>
donor molecule, donor type, donor heavy atom, donor atom, acceptor molecule, acceptor atom, score
      L1  H     9    56       P1  7948  2.00
      L1  H    12    42       P1  7949  1.00
      L1  H    16    57       P1  8028  2.00
      P1  H 10752 10764       L1    12  0.79

> <Gold.PLP.Chemscore.Internal.Correction>
0.0922

> <Gold.Rescore>
     Score         DG    S(hbond)    S(metal)    S(lipo)     H(rot)  DE(clash)    DE(int)     intcor
     20.25     -21.81       2.81        0.00     118.28       2.69       0.31       1.25       ----

> <Gold.Chemscore.Fitness>
20.2514

> <Gold.Chemscore.DG>
-21.8071

> <Gold.Chemscore.ZeroCoef>
-5.4800

> <Gold.Chemscore.Hbond>
2.8080

> <Gold.Chemscore.Metal>
0.0000

> <Gold.Chemscore.Lipo>
118.2825

> <Gold.Chemscore.Internal_Hbond>
0.0000

> <Gold.Chemscore.DEClash>
0.3096

> <Gold.Chemscore.DEInternal>
1.2460

> <Gold.Chemscore.Rot>
2.6917

> <Gold.Chemscore.Internal.Correction>
   9.000000E+99

> <Gold.Chemscore.Hbonds>
donor molecule, donor type, donor heavy atom, donor atom, acceptor molecule, acceptor atom, score
      L1  H     9    56       P1  7948  0.25
      L1  H    12    42       P1  7949  0.88
      L1  H    16    57       P1  8028  0.96
      P1  H 10752 10764       L1    12  0.11

> <Gold.Chemscore.Hbond.Weighted>
-9.3787

> <Gold.Chemscore.Metal.Weighted>
-0.0000

> <Gold.Chemscore.Lipo.Weighted>
-13.8390

> <Gold.Chemscore.Internal_Hbond.Weighted>
0.0000

> <Gold.Chemscore.DEClash.Weighted>
0.3096

> <Gold.Chemscore.DEInternal.Weighted>
1.2460

> <Gold.Chemscore.Rot.Weighted>
6.8907

> <Gold.Chemscore.Internal.Correction.Weighted>
   9.000000E+99

> <Gold.Protein.RotatedTorsions>
[ 6907 6896 6895 6894 ] final   94.87 input  -60.11 | X-H torsion
[ 7974 7965 7964 7962 ] final -118.97 input  175.53 | X-H torsion
[ 8008 7997 7996 7995 ] final   14.33 input   59.86 | X-H torsion
[ 10167 10162 10161 10158 ] final  -55.27 input  -65.29 | X-H torsion
[ 10718 10713 10712 10709 ] final -160.56 input   66.30 | X-H torsion
[ 10763 10752 10751 10750 ] final  -97.69 input  -60.55 | X-H torsion
[ 11005 11000 10999 10996 ] final -177.96 input  -57.11 | X-H torsion

> <Gold.Protein.ActiveResidues>
 VAL166  LYS551  ARG553  GLY616  TRP617  ASP618  TYR619  PRO620  LYS621  CYS622 
 ASP623  PHE694  ASN695  SER759  ASP760  ASP761  ALA762  ILE779  LEU786  VAL792 
 PHE793  MET794  SER795  GLU796  ALA797  LYS798  CYS799  TRP800  GLU811  SER814 

> <Gold.Protein.RotatedAtoms>
  152.5447  134.1127  159.8365 H   0  0  0  0  0  0  0  0  0  0  0  0  # atno 6907 bound_to 6896
  151.1192  133.5109  159.2610 H   0  0  0  0  0  0  0  0  0  0  0  0  # atno 6908 bound_to 6896
  151.1798  135.0365  159.8842 H   0  0  0  0  0  0  0  0  0  0  0  0  # atno 6909 bound_to 6896
  145.0678  140.8337  143.4113 H   0  0  0  0  0  0  0  0  0  0  0  0  # atno 7974 bound_to 7965
  154.8470  140.2923  155.5623 H   0  0  0  0  0  0  0  0  0  0  0  0  # atno 8008 bound_to 7997
  156.3014  140.2503  156.3354 H   0  0  0  0  0  0  0  0  0  0  0  0  # atno 8009 bound_to 7997
  154.9063  140.0390  157.1910 H   0  0  0  0  0  0  0  0  0  0  0  0  # atno 8010 bound_to 7997
  140.6384  143.2494  151.5057 H   0  0  0  0  0  0  0  0  0  0  0  0  # atno 10167 bound_to 10162
  156.5839  130.8741  151.2872 H   0  0  0  0  0  0  0  0  0  0  0  0  # atno 10718 bound_to 10713
  154.7350  135.5037  153.9026 H   0  0  0  0  0  0  0  0  0  0  0  0  # atno 10763 bound_to 10752
  153.0986  135.6679  153.9724 H   0  0  0  0  0  0  0  0  0  0  0  0  # atno 10764 bound_to 10752
  153.9515  135.3057  155.3417 H   0  0  0  0  0  0  0  0  0  0  0  0  # atno 10765 bound_to 10752
  140.4351  134.6483  157.4730 H   0  0  0  0  0  0  0  0  0  0  0  0  # atno 11005 bound_to 11000
  145.1329  139.2620  143.5530 LP  0  0  0  0  0  0  0  0  0  0  0  0  # atno 17320 bound_to 7965
  146.3527  140.0985  142.8609 LP  0  0  0  0  0  0  0  0  0  0  0  0  # atno 17321 bound_to 7965
  139.5593  144.2196  152.1665 LP  0  0  0  0  0  0  0  0  0  0  0  0  # atno 17342 bound_to 10162
  140.1459  144.5159  150.6716 LP  0  0  0  0  0  0  0  0  0  0  0  0  # atno 17343 bound_to 10162
  157.7320  130.9708  150.1907 LP  0  0  0  0  0  0  0  0  0  0  0  0  # atno 17370 bound_to 10713
  156.2608  130.3710  149.8133 LP  0  0  0  0  0  0  0  0  0  0  0  0  # atno 17371 bound_to 10713
  140.0108  134.6693  155.9384 LP  0  0  0  0  0  0  0  0  0  0  0  0  # atno 17394 bound_to 11000
  141.1729  133.6538  156.4720 LP  0  0  0  0  0  0  0  0  0  0  0  0  # atno 17395 bound_to 11000

$$$$
