AV-unprocessed.smi:188|AV-procd|sdf|1472|dock9
  -GOLD-   2262019293D 1   1.00000     0.00000
 Structure written by MMmdl.
 49 53  0  0  0  0  0  0  0  0  1 V2000
  155.5688  135.9210  164.0047 O   0  0  0  0  0  0  0  0  0  0  0  0
  155.1593  136.1006  162.8602 C   0  0  0  0  0  0  0  0  0  0  0  0
  155.0490  135.1690  161.9087 N   0  0  0  0  0  0  0  0  0  0  0  0
  154.5736  135.6604  160.7660 C   0  0  0  0  0  0  0  0  0  0  0  0
  154.3709  135.0308  159.7292 O   0  0  0  0  0  0  0  0  0  0  0  0
  154.3193  137.1551  160.9586 C   0  0  0  0  0  0  0  0  0  0  0  0
  152.8305  137.5439  160.8057 C   0  0  0  0  0  0  0  0  0  0  0  0
  152.3791  137.5769  159.3334 C   0  0  0  0  0  0  0  0  0  0  0  0
  153.2683  138.4152  158.5293 N   0  0  0  0  0  0  0  0  0  0  0  0
  152.7630  138.7722  157.3208 C   0  0  0  0  0  0  0  0  0  0  0  0
  153.2407  138.1929  156.1866 N   0  0  0  0  0  0  0  0  0  0  0  0
  152.7394  138.5272  154.9941 C   0  0  0  0  0  0  0  0  0  0  0  0
  151.7767  139.4061  154.7109 N   0  0  0  0  0  0  0  0  0  0  0  0
  151.3014  140.0019  155.8413 C   0  0  0  0  0  0  0  0  0  0  0  0
  151.7321  139.7433  157.1740 C   0  0  0  0  0  0  0  0  0  0  0  0
  151.0230  140.5426  158.0628 N   0  0  0  0  0  0  0  0  0  0  0  0
  150.2133  141.2259  157.3010 C   0  0  0  0  0  0  0  0  0  0  0  0
  150.3199  140.9720  155.9518 N   0  0  0  0  0  0  0  0  0  0  0  0
  149.5441  141.5944  154.8888 C   0  0  0  0  0  0  0  0  0  0  0  0
  148.0201  141.3806  155.0062 C   0  0  0  0  0  0  0  0  0  0  0  0
  147.3222  141.6532  153.6619 C   0  0  0  0  0  0  0  0  0  0  0  0
  147.4358  140.5477  152.7881 O   0  0  0  0  0  0  0  0  0  0  0  0
  147.5729  140.0848  155.6989 C   0  0  0  0  0  0  0  0  0  0  0  0
  146.6879  140.8000  156.5861 O   0  0  0  0  0  0  0  0  0  0  0  0
  147.3468  142.0314  156.2228 C   0  0  0  0  0  0  0  0  0  0  0  0
  154.6871  138.0577  158.5880 C   0  0  0  0  0  0  0  0  0  0  0  0
  155.1932  138.0418  160.0421 C   0  0  0  0  0  0  0  0  0  0  0  0
  154.7444  137.2659  162.3456 N   0  0  0  0  0  0  0  0  0  0  0  0
  155.2986  134.1998  162.0412 H   0  0  0  0  0  0  0  0  0  0  0  0
  152.1940  136.8573  161.3659 H   0  0  0  0  0  0  0  0  0  0  0  0
  152.6695  138.5294  161.2453 H   0  0  0  0  0  0  0  0  0  0  0  0
  152.3726  136.5701  158.9150 H   0  0  0  0  0  0  0  0  0  0  0  0
  151.3504  137.9328  159.2870 H   0  0  0  0  0  0  0  0  0  0  0  0
  153.1722  138.0176  154.1460 H   0  0  0  0  0  0  0  0  0  0  0  0
  149.5172  141.9467  157.7047 H   0  0  0  0  0  0  0  0  0  0  0  0
  149.7826  142.6587  154.8829 H   0  0  0  0  0  0  0  0  0  0  0  0
  149.9081  141.2114  153.9347 H   0  0  0  0  0  0  0  0  0  0  0  0
  146.2687  141.8984  153.7958 H   0  0  0  0  0  0  0  0  0  0  0  0
  147.7696  142.5159  153.1668 H   0  0  0  0  0  0  0  0  0  0  0  0
  148.1812  140.6865  152.2238 H   0  0  0  0  0  0  0  0  0  0  0  0
  147.0457  139.3883  155.0458 H   0  0  0  0  0  0  0  0  0  0  0  0
  148.3629  139.5766  156.2533 H   0  0  0  0  0  0  0  0  0  0  0  0
  148.0460  142.3584  156.9943 H   0  0  0  0  0  0  0  0  0  0  0  0
  146.6435  142.8265  155.9723 H   0  0  0  0  0  0  0  0  0  0  0  0
  154.8346  137.0823  158.1234 H   0  0  0  0  0  0  0  0  0  0  0  0
  155.2749  138.7752  158.0135 H   0  0  0  0  0  0  0  0  0  0  0  0
  155.1956  139.0630  160.4261 H   0  0  0  0  0  0  0  0  0  0  0  0
  156.2325  137.7106  160.0619 H   0  0  0  0  0  0  0  0  0  0  0  0
  154.7240  138.1373  162.8552 H   0  0  0  0  0  0  0  0  0  0  0  0
  1  2  2  0  0  0  0
  2 28  1  0  0  0  0
  2  3  1  0  0  0  0
  3  4  1  0  0  0  0
  3 29  1  0  0  0  0
  4  5  2  0  0  0  0
  4  6  1  0  0  0  0
  6 27  1  0  0  0  0
  6  7  1  0  0  0  0
  6 28  1  0  0  0  0
  7  8  1  0  0  0  0
  7 30  1  0  0  0  0
  7 31  1  0  0  0  0
  8  9  1  0  0  0  0
  8 32  1  0  0  0  0
  8 33  1  0  0  0  0
  9 10  1  0  0  0  0
  9 26  1  0  0  0  0
 10 15  1  0  0  0  0
 10 11  2  0  0  0  0
 11 12  1  0  0  0  0
 12 13  2  0  0  0  0
 12 34  1  0  0  0  0
 13 14  1  0  0  0  0
 14 18  1  0  0  0  0
 14 15  2  0  0  0  0
 15 16  1  0  0  0  0
 16 17  2  0  0  0  0
 17 18  1  0  0  0  0
 17 35  1  0  0  0  0
 18 19  1  0  0  0  0
 19 20  1  0  0  0  0
 19 36  1  0  0  0  0
 19 37  1  0  0  0  0
 20 25  1  0  0  0  0
 20 21  1  0  0  0  0
 20 23  1  0  0  0  0
 21 22  1  0  0  0  0
 21 38  1  0  0  0  0
 21 39  1  0  0  0  0
 22 40  1  0  0  0  0
 23 24  1  0  0  0  0
 23 41  1  0  0  0  0
 23 42  1  0  0  0  0
 24 25  1  0  0  0  0
 25 43  1  0  0  0  0
 25 44  1  0  0  0  0
 26 27  1  0  0  0  0
 26 45  1  0  0  0  0
 26 46  1  0  0  0  0
 27 47  1  0  0  0  0
 27 48  1  0  0  0  0
 28 49  1  0  0  0  0
M  END
> <s_m_source_file>
AV-unprocessed.smi

> <i_m_source_file_index>
188

> <i_lp_mmshare_version>
43012

> <i_f3d_flags>
0

> <s_epik_input>
Tz1DKFtOSF0xKVtOSF1DKD1PKUMxMltDSDJdW0NIMl1OKFtDSDJdW0NIMl0yKWMobltjSF1uMyljKGMzNCluW2NIXW40W0NIMl1DNShbQ0gyXVtPSF0pW0NIMl1PW0NIMl01

> <s_epik_cmdline>
J2VwaWtfcHl0aG9uJywgJy1waCcsICc3LjAnLCAnLXRuJywgJzgnLCAnLW1hJywgJzIwMCcsICctbWV0YWxfYmluZGluZycsICctaW1hZScsICc8aW5maWxlLm1hZT4nLCAnLW9tYWUnLCAnPG91dGZpbGUubWFlPic=

> <r_lp_tautomer_probability>
1

> <r_epik_Ionization_Penalty>
0.00868263

> <r_epik_Ionization_Penalty_Charging>
0

> <r_epik_Ionization_Penalty_Neutral>
0.00868263

> <r_epik_State_Penalty>
0.00519311

> <r_epik_Charging_Adjusted_Penalty>
0.00519311

> <i_epik_Tot_Q>
0

> <i_epik_Tot_abs_Q>
0

> <r_epik_Metal_State_Penalty>
0.404007

> <b_epik_Metal_Only>
0

> <s_lp_Force_Field>
OPLS_2005

> <r_lp_Energy>
48.5208

> <b_lp_Chiralities_Consistent>
1

> <s_lp_Variant>
AV-unprocessed.smi:188-1

> <Gold.Version>
5.8.1

> <Gold.Id.Protein>
6NUR|6NUR_protein|mol2

> <Gold.PLP.Fitness>
42.0900

> <Gold.PLP.PLP>
-34.6309

> <Gold.PLP.part.hbond>
-3.9498

> <Gold.PLP.part.metal>
0.0000

> <Gold.PLP.part.buried>
-3.7857

> <Gold.PLP.part.nonpolar>
-26.0373

> <Gold.PLP.part.repulsive>
0.1826

> <Gold.PLP.ligand.clash>
0.0000

> <Gold.PLP.ligand.torsion>
1.1351

> <Gold.PLP.Chemscore.Hbond>
3.0000

> <Gold.PLP.Chemscore.CHOScore>
0.0000

> <Gold.PLP.Chemscore.Metal>
0.0000

> <Gold.Chemscore.Hbonds>
donor molecule, donor type, donor heavy atom, donor atom, acceptor molecule, acceptor atom, score
      L1  H    22    40       P1  7957  1.00
      P1  H  6896  6909       L1     5  1.00
      P1  H  7989  7998       L1    13  1.00

> <Gold.PLP.Chemscore.Internal.Correction>
0.7293

> <Gold.Rescore>
     Score         DG    S(hbond)    S(metal)    S(lipo)     H(rot)  DE(clash)    DE(int)     intcor
      9.86     -11.55       2.00        0.00      57.80       2.88       0.68       1.01       ----

> <Gold.Chemscore.Fitness>
9.8620

> <Gold.Chemscore.DG>
-11.5507

> <Gold.Chemscore.ZeroCoef>
-5.4800

> <Gold.Chemscore.Hbond>
1.9979

> <Gold.Chemscore.Metal>
0.0000

> <Gold.Chemscore.Lipo>
57.8018

> <Gold.Chemscore.Internal_Hbond>
0.0000

> <Gold.Chemscore.DEClash>
0.6828

> <Gold.Chemscore.DEInternal>
1.0059

> <Gold.Chemscore.Rot>
2.8770

> <Gold.Chemscore.Internal.Correction>
   9.000000E+99

> <Gold.Chemscore.Hbonds>
donor molecule, donor type, donor heavy atom, donor atom, acceptor molecule, acceptor atom, score
      L1  H    22    40       P1  7957  0.96
      P1  H  6896  6909       L1     5  0.30
      P1  H  7989  7998       L1    13  0.25

> <Gold.Chemscore.Hbond.Weighted>
-6.6730

> <Gold.Chemscore.Metal.Weighted>
-0.0000

> <Gold.Chemscore.Lipo.Weighted>
-6.7628

> <Gold.Chemscore.Internal_Hbond.Weighted>
0.0000

> <Gold.Chemscore.DEClash.Weighted>
0.6828

> <Gold.Chemscore.DEInternal.Weighted>
1.0059

> <Gold.Chemscore.Rot.Weighted>
7.3651

> <Gold.Chemscore.Internal.Correction.Weighted>
   9.000000E+99

> <Gold.Protein.RotatedTorsions>
[ 6907 6896 6895 6894 ] final -171.08 input  -60.11 | X-H torsion
[ 7974 7965 7964 7962 ] final  -46.91 input  175.53 | X-H torsion
[ 8008 7997 7996 7995 ] final -104.74 input   59.86 | X-H torsion
[ 10167 10162 10161 10158 ] final   79.53 input  -65.29 | X-H torsion
[ 10718 10713 10712 10709 ] final -169.93 input   66.30 | X-H torsion
[ 10763 10752 10751 10750 ] final -110.53 input  -60.55 | X-H torsion
[ 11005 11000 10999 10996 ] final  160.51 input  -57.11 | X-H torsion

> <Gold.Protein.ActiveResidues>
 VAL166  LYS551  ARG553  GLY616  TRP617  ASP618  TYR619  PRO620  LYS621  CYS622 
 ASP623  PHE694  ASN695  SER759  ASP760  ASP761  ALA762  ILE779  LEU786  VAL792 
 PHE793  MET794  SER795  GLU796  ALA797  LYS798  CYS799  TRP800  GLU811  SER814 

> <Gold.Protein.RotatedAtoms>
  151.5181  133.3472  159.2896 H   0  0  0  0  0  0  0  0  0  0  0  0  # atno 6907 bound_to 6896
  150.8670  134.8037  159.7137 H   0  0  0  0  0  0  0  0  0  0  0  0  # atno 6908 bound_to 6896
  152.4671  134.5059  159.9791 H   0  0  0  0  0  0  0  0  0  0  0  0  # atno 6909 bound_to 6896
  145.9670  140.7421  142.9429 H   0  0  0  0  0  0  0  0  0  0  0  0  # atno 7974 bound_to 7965
  154.8897  140.0416  157.1831 H   0  0  0  0  0  0  0  0  0  0  0  0  # atno 8008 bound_to 7997
  154.8554  140.2935  155.5551 H   0  0  0  0  0  0  0  0  0  0  0  0  # atno 8009 bound_to 7997
  156.2997  140.2457  156.3519 H   0  0  0  0  0  0  0  0  0  0  0  0  # atno 8010 bound_to 7997
  139.9594  144.5971  150.8086 H   0  0  0  0  0  0  0  0  0  0  0  0  # atno 10167 bound_to 10162
  156.7187  130.9262  151.3095 H   0  0  0  0  0  0  0  0  0  0  0  0  # atno 10718 bound_to 10713
  154.8253  135.4561  154.0899 H   0  0  0  0  0  0  0  0  0  0  0  0  # atno 10763 bound_to 10752
  153.2219  135.6895  153.7997 H   0  0  0  0  0  0  0  0  0  0  0  0  # atno 10764 bound_to 10752
  153.7411  135.3312  155.3281 H   0  0  0  0  0  0  0  0  0  0  0  0  # atno 10765 bound_to 10752
  140.2067  134.8298  157.3076 H   0  0  0  0  0  0  0  0  0  0  0  0  # atno 11005 bound_to 11000
  144.6828  140.2686  143.7309 LP  0  0  0  0  0  0  0  0  0  0  0  0  # atno 17320 bound_to 7965
  145.7959  139.1945  143.2076 LP  0  0  0  0  0  0  0  0  0  0  0  0  # atno 17321 bound_to 7965
  140.7558  143.3053  151.2977 LP  0  0  0  0  0  0  0  0  0  0  0  0  # atno 17342 bound_to 10162
  139.6566  144.0265  152.2664 LP  0  0  0  0  0  0  0  0  0  0  0  0  # atno 17343 bound_to 10162
  157.6907  130.9230  150.0505 LP  0  0  0  0  0  0  0  0  0  0  0  0  # atno 17370 bound_to 10713
  156.1609  130.3644  149.9300 LP  0  0  0  0  0  0  0  0  0  0  0  0  # atno 17371 bound_to 10713
  140.1995  134.4272  155.7670 LP  0  0  0  0  0  0  0  0  0  0  0  0  # atno 17394 bound_to 11000
  141.2227  133.7065  156.8160 LP  0  0  0  0  0  0  0  0  0  0  0  0  # atno 17395 bound_to 11000

$$$$
