AV-unprocessed.smi:2761|AV-procd|sdf|10634|dock6
  -GOLD-   2272015 83D 1   1.00000     0.00000
 Structure written by MMmdl.
 26 27  0  0  0  0  0  0  0  0  2 V2000
  150.7080  141.7734  158.6431 O   0  0  0  0  0  0  0  0  0  0  0  0
  151.7734  141.2925  158.2513 C   0  0  0  0  0  0  0  0  0  0  0  0
  152.9023  141.2067  158.9883 N   0  0  0  0  0  0  0  0  0  0  0  0
  153.1078  141.6144  160.3102 C   0  0  0  0  0  0  0  0  0  0  0  0
  152.4159  142.8392  160.6202 C   0  0  0  0  0  0  0  0  0  0  0  0
  152.5434  143.3280  161.8738 C   0  0  0  0  0  0  0  0  0  0  0  0
  153.3542  142.6382  162.8804 C   0  0  0  0  0  0  0  0  0  0  0  0
  153.4420  143.1188  164.0081 O   0  0  0  0  0  0  0  0  0  0  0  0
  153.9838  141.4766  162.5141 N   0  5  0  0  0  0  0  0  0  0  0  0
  153.8377  140.9656  161.1657 N   0  0  0  0  0  0  0  0  0  0  0  0
  151.8778  140.7594  156.8133 C   0  0  2  0  0  0  0  0  0  0  0  0
  150.6018  141.0275  155.9817 C   0  0  0  0  0  0  0  0  0  0  0  0
  150.7601  140.4742  154.6814 O   0  0  0  0  0  0  0  0  0  0  0  0
  150.9835  139.0726  154.7377 C   0  0  0  0  0  0  0  0  0  0  0  0
  152.2612  138.8053  155.5484 C   0  0  0  0  0  0  0  0  0  0  0  0
  152.1036  139.3510  156.8509 O   0  0  0  0  0  0  0  0  0  0  0  0
  153.6900  140.7871  158.5172 H   0  0  0  0  0  0  0  0  0  0  0  0
  151.8096  143.3752  159.9048 H   0  0  0  0  0  0  0  0  0  0  0  0
  152.0381  144.2446  162.1398 H   0  0  0  0  0  0  0  0  0  0  0  0
  152.7331  141.2481  156.3433 H   0  0  0  0  0  0  0  0  0  0  0  0
  149.7196  140.6018  156.4630 H   0  0  0  0  0  0  0  0  0  0  0  0
  150.4256  142.0986  155.8771 H   0  0  0  0  0  0  0  0  0  0  0  0
  150.1248  138.5701  155.1854 H   0  0  0  0  0  0  0  0  0  0  0  0
  151.0896  138.6871  153.7234 H   0  0  0  0  0  0  0  0  0  0  0  0
  152.4411  137.7335  155.6306 H   0  0  0  0  0  0  0  0  0  0  0  0
  153.1322  139.2422  155.0580 H   0  0  0  0  0  0  0  0  0  0  0  0
  1  2  2  0  0  0  0
  2  3  1  0  0  0  0
  2 11  1  0  0  0  0
  3 17  1  0  0  0  0
  3  4  1  0  0  0  0
  4  5  1  0  0  0  0
  4 10  2  0  0  0  0
  5  6  2  0  0  0  0
  5 18  1  0  0  0  0
  6  7  1  0  0  0  0
  6 19  1  0  0  0  0
  7  8  2  0  0  0  0
  7  9  1  0  0  0  0
  9 10  1  0  0  0  0
 11 16  1  0  0  0  0
 11 12  1  0  0  0  0
 11 20  1  0  0  0  0
 12 13  1  0  0  0  0
 12 21  1  0  0  0  0
 12 22  1  0  0  0  0
 13 14  1  0  0  0  0
 14 15  1  0  0  0  0
 14 23  1  0  0  0  0
 14 24  1  0  0  0  0
 15 16  1  0  0  0  0
 15 25  1  0  0  0  0
 15 26  1  0  0  0  0
M  CHG  1   9  -1
M  END
> <s_m_source_file>
AV-unprocessed.smi

> <i_m_source_file_index>
2761

> <i_lp_mmshare_version>
43012

> <i_f3d_flags>
0

> <s_epik_input>
TzFbQ0gyXVtDSDJdT1tDSDJdW0NASF0xQyg9TylbTkhdYzJbY0hdW2NIXWMoW09IXSlubjI=

> <s_epik_cmdline>
J2VwaWtfcHl0aG9uJywgJy1waCcsICc3LjAnLCAnLXRuJywgJzgnLCAnLW1hJywgJzIwMCcsICctbWV0YWxfYmluZGluZycsICctaW1hZScsICc8aW5maWxlLm1hZT4nLCAnLW9tYWUnLCAnPG91dGZpbGUubWFlPic=

> <r_lp_tautomer_probability>
1

> <r_epik_Ionization_Penalty>
4.21844

> <r_epik_Ionization_Penalty_Charging>
0.119247

> <r_epik_Ionization_Penalty_Neutral>
4.0992

> <r_epik_State_Penalty>
4.09486

> <r_epik_Charging_Adjusted_Penalty>
4.2141

> <i_epik_Tot_Q>
-1

> <i_epik_Tot_abs_Q>
1

> <r_epik_Metal_State_Penalty>
0.651223

> <b_epik_Metal_Only>
1

> <s_lp_Force_Field>
OPLS_2005

> <r_lp_Energy>
28.3559

> <b_lp_Chiralities_Consistent>
1

> <s_lp_Variant>
AV-unprocessed.smi:2761-3

> <Gold.Version>
5.8.1

> <Gold.Id.Protein>
6NUR|6NUR_protein|mol2

> <Gold.PLP.Fitness>
37.7675

> <Gold.PLP.PLP>
-35.4471

> <Gold.PLP.part.hbond>
-2.9218

> <Gold.PLP.part.metal>
0.0000

> <Gold.PLP.part.buried>
-6.8720

> <Gold.PLP.part.nonpolar>
-24.4822

> <Gold.PLP.part.repulsive>
0.2765

> <Gold.PLP.ligand.clash>
0.0000

> <Gold.PLP.ligand.torsion>
0.3406

> <Gold.PLP.Chemscore.Hbond>
1.0000

> <Gold.PLP.Chemscore.CHOScore>
0.0000

> <Gold.PLP.Chemscore.Metal>
0.0000

> <Gold.Chemscore.Hbonds>
donor molecule, donor type, donor heavy atom, donor atom, acceptor molecule, acceptor atom, score
      P1  H  7989  7998       L1    13  0.98

> <Gold.PLP.Chemscore.Internal.Correction>
0.0016

> <Gold.Rescore>
     Score         DG    S(hbond)    S(metal)    S(lipo)     H(rot)  DE(clash)    DE(int)     intcor
      9.71     -11.81       0.92        0.00      49.84       1.00       0.02       2.08       ----

> <Gold.Chemscore.Fitness>
9.7075

> <Gold.Chemscore.DG>
-11.8148

> <Gold.Chemscore.ZeroCoef>
-5.4800

> <Gold.Chemscore.Hbond>
0.9172

> <Gold.Chemscore.Metal>
0.0000

> <Gold.Chemscore.Lipo>
49.8396

> <Gold.Chemscore.Internal_Hbond>
0.0000

> <Gold.Chemscore.DEClash>
0.0234

> <Gold.Chemscore.DEInternal>
2.0838

> <Gold.Chemscore.Rot>
1.0000

> <Gold.Chemscore.Internal.Correction>
   9.000000E+99

> <Gold.Chemscore.Hbonds>
donor molecule, donor type, donor heavy atom, donor atom, acceptor molecule, acceptor atom, score
      P1  H  7989  7998       L1    13  0.31

> <Gold.Chemscore.Hbond.Weighted>
-3.0635

> <Gold.Chemscore.Metal.Weighted>
-0.0000

> <Gold.Chemscore.Lipo.Weighted>
-5.8312

> <Gold.Chemscore.Internal_Hbond.Weighted>
0.0000

> <Gold.Chemscore.DEClash.Weighted>
0.0234

> <Gold.Chemscore.DEInternal.Weighted>
2.0838

> <Gold.Chemscore.Rot.Weighted>
2.5600

> <Gold.Chemscore.Internal.Correction.Weighted>
   9.000000E+99

> <Gold.Protein.RotatedTorsions>
[ 6907 6896 6895 6894 ] final -136.41 input  -60.11 | X-H torsion
[ 7974 7965 7964 7962 ] final    7.38 input  175.53 | X-H torsion
[ 8008 7997 7996 7995 ] final  -94.30 input   59.86 | X-H torsion
[ 10167 10162 10161 10158 ] final   97.24 input  -65.29 | X-H torsion
[ 10718 10713 10712 10709 ] final   58.31 input   66.30 | X-H torsion
[ 10763 10752 10751 10750 ] final  -29.53 input  -60.55 | X-H torsion
[ 11005 11000 10999 10996 ] final  147.43 input  -57.11 | X-H torsion

> <Gold.Protein.ActiveResidues>
 VAL166  LYS551  ARG553  GLY616  TRP617  ASP618  TYR619  PRO620  LYS621  CYS622 
 ASP623  PHE694  ASN695  SER759  ASP760  ASP761  ALA762  ILE779  LEU786  VAL792 
 PHE793  MET794  SER795  GLU796  ALA797  LYS798  CYS799  TRP800  GLU811  SER814 

> <Gold.Protein.RotatedAtoms>
  151.0097  133.5977  159.2684 H   0  0  0  0  0  0  0  0  0  0  0  0  # atno 6907 bound_to 6896
  151.3133  135.0799  159.9290 H   0  0  0  0  0  0  0  0  0  0  0  0  # atno 6908 bound_to 6896
  152.5296  133.9758  159.7837 H   0  0  0  0  0  0  0  0  0  0  0  0  # atno 6909 bound_to 6896
  146.2427  140.0092  142.8408 H   0  0  0  0  0  0  0  0  0  0  0  0  # atno 7974 bound_to 7965
  154.7467  140.0490  157.0858 H   0  0  0  0  0  0  0  0  0  0  0  0  # atno 8008 bound_to 7997
  155.0110  140.3136  155.4810 H   0  0  0  0  0  0  0  0  0  0  0  0  # atno 8009 bound_to 7997
  156.2876  140.2184  156.5224 H   0  0  0  0  0  0  0  0  0  0  0  0  # atno 8010 bound_to 7997
  139.7819  144.6885  151.0010 H   0  0  0  0  0  0  0  0  0  0  0  0  # atno 10167 bound_to 10162
  157.5586  130.8818  149.9075 H   0  0  0  0  0  0  0  0  0  0  0  0  # atno 10718 bound_to 10713
  153.7661  135.6916  153.4915 H   0  0  0  0  0  0  0  0  0  0  0  0  # atno 10763 bound_to 10752
  153.1905  135.4472  155.0142 H   0  0  0  0  0  0  0  0  0  0  0  0  # atno 10764 bound_to 10752
  154.8135  135.3388  154.7173 H   0  0  0  0  0  0  0  0  0  0  0  0  # atno 10765 bound_to 10752
  140.0875  134.9061  157.1598 H   0  0  0  0  0  0  0  0  0  0  0  0  # atno 11005 bound_to 11000
  145.1344  140.9536  143.4525 LP  0  0  0  0  0  0  0  0  0  0  0  0  # atno 17320 bound_to 7965
  145.0357  139.3303  143.6002 LP  0  0  0  0  0  0  0  0  0  0  0  0  # atno 17321 bound_to 7965
  140.7818  143.4473  151.0463 LP  0  0  0  0  0  0  0  0  0  0  0  0  # atno 17342 bound_to 10162
  139.8154  143.7894  152.3174 LP  0  0  0  0  0  0  0  0  0  0  0  0  # atno 17343 bound_to 10162
  156.0641  130.3695  150.0917 LP  0  0  0  0  0  0  0  0  0  0  0  0  # atno 17370 bound_to 10713
  156.9083  130.9643  151.3566 LP  0  0  0  0  0  0  0  0  0  0  0  0  # atno 17371 bound_to 10713
  140.3399  134.2715  155.7214 LP  0  0  0  0  0  0  0  0  0  0  0  0  # atno 17394 bound_to 11000
  141.2067  133.7825  157.0161 LP  0  0  0  0  0  0  0  0  0  0  0  0  # atno 17395 bound_to 11000

$$$$
