AV-unprocessed.smi:57|AV-procd|sdf|581|dock2
  -GOLD-   2262016483D 1   1.00000     0.00000
 Structure written by MMmdl.
 27 28  0  0  0  0  0  0  0  0  1 V2000
  148.2526  139.7229  153.0502 N   0  0  0  0  0  0  0  0  0  0  0  0
  149.2916  139.5556  153.8790 C   0  0  0  0  0  0  0  0  0  0  0  0
  150.0556  138.4037  153.7042 N   0  0  0  0  0  0  0  0  0  0  0  0
  151.1738  138.0756  154.4821 C   0  0  0  0  0  0  0  0  0  0  0  0
  151.7870  137.0350  154.2541 O   0  0  0  0  0  0  0  0  0  0  0  0
  151.4452  139.0672  155.4843 C   0  0  0  0  0  0  0  0  0  0  0  0
  152.4517  139.1233  156.4449 N   0  0  0  0  0  0  0  0  0  0  0  0
  152.2275  140.2412  157.0785 C   0  0  0  0  0  0  0  0  0  0  0  0
  151.1382  140.9348  156.6136 N   0  0  0  0  0  0  0  0  0  0  0  0
  150.6015  142.2023  157.0672 C   0  0  0  0  0  0  0  0  0  0  0  0
  151.5669  142.8001  157.8665 O   0  0  0  0  0  0  0  0  0  0  0  0
  151.4911  144.2158  157.8754 C   0  0  0  0  0  0  0  0  0  0  0  0
  152.3996  144.7440  158.9898 C   0  0  0  0  0  0  0  0  0  0  0  0
  151.8918  145.9624  159.4877 O   0  0  0  0  0  0  0  0  0  0  0  0
  150.6300  140.1778  155.5811 C   0  0  0  0  0  0  0  0  0  0  0  0
  149.5416  140.4668  154.8026 N   0  0  0  0  0  0  0  0  0  0  0  0
  148.0512  139.0352  152.3390 H   0  0  0  0  0  0  0  0  0  0  0  0
  147.6699  140.5432  153.1384 H   0  0  0  0  0  0  0  0  0  0  0  0
  149.8016  137.7543  152.9743 H   0  0  0  0  0  0  0  0  0  0  0  0
  152.8473  140.5867  157.8931 H   0  0  0  0  0  0  0  0  0  0  0  0
  149.6888  142.0242  157.6382 H   0  0  0  0  0  0  0  0  0  0  0  0
  150.3689  142.8127  156.1926 H   0  0  0  0  0  0  0  0  0  0  0  0
  151.8101  144.6156  156.9112 H   0  0  0  0  0  0  0  0  0  0  0  0
  150.4607  144.5342  158.0436 H   0  0  0  0  0  0  0  0  0  0  0  0
  152.4640  144.0237  159.8058 H   0  0  0  0  0  0  0  0  0  0  0  0
  153.4105  144.9046  158.6140 H   0  0  0  0  0  0  0  0  0  0  0  0
  152.4225  146.2299  160.2228 H   0  0  0  0  0  0  0  0  0  0  0  0
  1  2  1  0  0  0  0
  1 18  1  0  0  0  0
  1 17  1  0  0  0  0
  2 16  2  0  0  0  0
  2  3  1  0  0  0  0
  3 19  1  0  0  0  0
  3  4  1  0  0  0  0
  4  5  2  0  0  0  0
  4  6  1  0  0  0  0
  6 15  2  0  0  0  0
  6  7  1  0  0  0  0
  7  8  2  0  0  0  0
  8 20  1  0  0  0  0
  8  9  1  0  0  0  0
  9 10  1  0  0  0  0
  9 15  1  0  0  0  0
 10 11  1  0  0  0  0
 10 21  1  0  0  0  0
 10 22  1  0  0  0  0
 11 12  1  0  0  0  0
 12 13  1  0  0  0  0
 12 23  1  0  0  0  0
 12 24  1  0  0  0  0
 13 14  1  0  0  0  0
 13 25  1  0  0  0  0
 13 26  1  0  0  0  0
 14 27  1  0  0  0  0
 15 16  1  0  0  0  0
M  END
> <s_m_source_file>
AV-unprocessed.smi

> <i_m_source_file_index>
57

> <i_lp_mmshare_version>
43012

> <i_f3d_flags>
0

> <s_epik_input>
Tz1jMW5jKFtOSDJdKVtuSF1jKGMxMiluKFtjSF1uMilbQ0gyXU9bQ0gyXVtDSDJdW09IXQ==

> <s_epik_cmdline>
J2VwaWtfcHl0aG9uJywgJy1waCcsICc3LjAnLCAnLXRuJywgJzgnLCAnLW1hJywgJzIwMCcsICctbWV0YWxfYmluZGluZycsICctaW1hZScsICc8aW5maWxlLm1hZT4nLCAnLW9tYWUnLCAnPG91dGZpbGUubWFlPic=

> <r_lp_tautomer_probability>
1

> <r_epik_Ionization_Penalty>
0.00151458

> <r_epik_Ionization_Penalty_Charging>
0.0014384

> <r_epik_Ionization_Penalty_Neutral>
7.61793e-05

> <r_epik_State_Penalty>
-0

> <r_epik_Charging_Adjusted_Penalty>
0.0014384

> <i_epik_Tot_Q>
0

> <i_epik_Tot_abs_Q>
0

> <r_epik_Metal_State_Penalty>
0.317918

> <b_epik_Metal_Only>
0

> <s_epik_Chemistry_Notes>
This compound contains an acetal/aminal-like group ( X-CH(R)-Y where X, Y are N, S, or O) that may be acid/base labile, releasing an aldehyde.

> <s_lp_Force_Field>
OPLS_2005

> <r_lp_Energy>
2.65481

> <b_lp_Chiralities_Consistent>
1

> <s_lp_Variant>
AV-unprocessed.smi:57-1

> <Gold.Version>
5.8.1

> <Gold.Id.Protein>
6NUR|6NUR_protein|mol2

> <Gold.PLP.Fitness>
36.1116

> <Gold.PLP.PLP>
-31.2268

> <Gold.PLP.part.hbond>
-4.7318

> <Gold.PLP.part.metal>
0.0000

> <Gold.PLP.part.buried>
-3.4873

> <Gold.PLP.part.nonpolar>
-25.3096

> <Gold.PLP.part.repulsive>
1.0653

> <Gold.PLP.ligand.clash>
0.0000

> <Gold.PLP.ligand.torsion>
0.5612

> <Gold.PLP.Chemscore.Hbond>
2.0000

> <Gold.PLP.Chemscore.CHOScore>
0.0000

> <Gold.PLP.Chemscore.Metal>
0.0000

> <Gold.Chemscore.Hbonds>
donor molecule, donor type, donor heavy atom, donor atom, acceptor molecule, acceptor atom, score
      L1  H     3    19       P1  7948  1.00
      P1  H 10752 10765       L1     5  1.00

> <Gold.PLP.Chemscore.Internal.Correction>
0.0072

> <Gold.Rescore>
     Score         DG    S(hbond)    S(metal)    S(lipo)     H(rot)  DE(clash)    DE(int)     intcor
      5.46      -6.04       1.91        0.00      31.91       3.74       0.03       0.55       ----

> <Gold.Chemscore.Fitness>
5.4590

> <Gold.Chemscore.DG>
-6.0373

> <Gold.Chemscore.ZeroCoef>
-5.4800

> <Gold.Chemscore.Hbond>
1.9147

> <Gold.Chemscore.Metal>
0.0000

> <Gold.Chemscore.Lipo>
31.9088

> <Gold.Chemscore.Internal_Hbond>
0.0000

> <Gold.Chemscore.DEClash>
0.0333

> <Gold.Chemscore.DEInternal>
0.5450

> <Gold.Chemscore.Rot>
3.7387

> <Gold.Chemscore.Internal.Correction>
   9.000000E+99

> <Gold.Chemscore.Hbonds>
donor molecule, donor type, donor heavy atom, donor atom, acceptor molecule, acceptor atom, score
      L1  H     3    19       P1  7948  0.47
      P1  H 10752 10765       L1     5  0.99

> <Gold.Chemscore.Hbond.Weighted>
-6.3950

> <Gold.Chemscore.Metal.Weighted>
-0.0000

> <Gold.Chemscore.Lipo.Weighted>
-3.7333

> <Gold.Chemscore.Internal_Hbond.Weighted>
0.0000

> <Gold.Chemscore.DEClash.Weighted>
0.0333

> <Gold.Chemscore.DEInternal.Weighted>
0.5450

> <Gold.Chemscore.Rot.Weighted>
9.5710

> <Gold.Chemscore.Internal.Correction.Weighted>
   9.000000E+99

> <Gold.Protein.RotatedTorsions>
[ 6907 6896 6895 6894 ] final   11.90 input  -60.11 | X-H torsion
[ 7974 7965 7964 7962 ] final  -59.64 input  175.53 | X-H torsion
[ 8008 7997 7996 7995 ] final  179.84 input   59.86 | X-H torsion
[ 10167 10162 10161 10158 ] final  175.67 input  -65.29 | X-H torsion
[ 10718 10713 10712 10709 ] final  -10.19 input   66.30 | X-H torsion
[ 10763 10752 10751 10750 ] final  156.24 input  -60.55 | X-H torsion
[ 11005 11000 10999 10996 ] final   99.28 input  -57.11 | X-H torsion

> <Gold.Protein.ActiveResidues>
 VAL166  LYS551  ARG553  GLY616  TRP617  ASP618  TYR619  PRO620  LYS621  CYS622 
 ASP623  PHE694  ASN695  SER759  ASP760  ASP761  ALA762  ILE779  LEU786  VAL792 
 PHE793  MET794  SER795  GLU796  ALA797  LYS798  CYS799  TRP800  GLU811  SER814 

> <Gold.Protein.RotatedAtoms>
  151.7617  135.0808  160.0346 H   0  0  0  0  0  0  0  0  0  0  0  0  # atno 6907 bound_to 6896
  152.3349  133.5995  159.5844 H   0  0  0  0  0  0  0  0  0  0  0  0  # atno 6908 bound_to 6896
  150.7444  133.9728  159.3593 H   0  0  0  0  0  0  0  0  0  0  0  0  # atno 6909 bound_to 6896
  145.8250  140.8516  143.0113 H   0  0  0  0  0  0  0  0  0  0  0  0  # atno 7974 bound_to 7965
  156.0388  140.1299  157.0178 H   0  0  0  0  0  0  0  0  0  0  0  0  # atno 8008 bound_to 7997
  154.4382  140.1034  156.6277 H   0  0  0  0  0  0  0  0  0  0  0  0  # atno 8009 bound_to 7997
  155.5697  140.3466  155.4514 H   0  0  0  0  0  0  0  0  0  0  0  0  # atno 8010 bound_to 7997
  139.5186  144.3005  152.0383 H   0  0  0  0  0  0  0  0  0  0  0  0  # atno 10167 bound_to 10162
  156.6770  130.5026  149.5982 H   0  0  0  0  0  0  0  0  0  0  0  0  # atno 10718 bound_to 10713
  154.1811  135.2799  155.3051 H   0  0  0  0  0  0  0  0  0  0  0  0  # atno 10763 bound_to 10752
  154.6002  135.5532  153.7369 H   0  0  0  0  0  0  0  0  0  0  0  0  # atno 10764 bound_to 10752
  153.0138  135.6390  154.1950 H   0  0  0  0  0  0  0  0  0  0  0  0  # atno 10765 bound_to 10752
  139.8771  134.9088  156.4582 H   0  0  0  0  0  0  0  0  0  0  0  0  # atno 11005 bound_to 11000
  144.6744  140.0589  143.7476 LP  0  0  0  0  0  0  0  0  0  0  0  0  # atno 17320 bound_to 7965
  145.9633  139.2816  143.1142 LP  0  0  0  0  0  0  0  0  0  0  0  0  # atno 17321 bound_to 7965
  140.2452  144.4227  150.6243 LP  0  0  0  0  0  0  0  0  0  0  0  0  # atno 17342 bound_to 10162
  140.6263  143.2181  151.6590 LP  0  0  0  0  0  0  0  0  0  0  0  0  # atno 17343 bound_to 10162
  156.1896  130.6551  151.1046 LP  0  0  0  0  0  0  0  0  0  0  0  0  # atno 17370 bound_to 10713
  157.7057  131.0757  150.6675 LP  0  0  0  0  0  0  0  0  0  0  0  0  # atno 17371 bound_to 10713
  140.8883  133.7867  155.9543 LP  0  0  0  0  0  0  0  0  0  0  0  0  # atno 17394 bound_to 11000
  140.8781  134.2645  157.5158 LP  0  0  0  0  0  0  0  0  0  0  0  0  # atno 17395 bound_to 11000

$$$$
