AV-unprocessed.smi:1412|AV-procd|sdf|5740|dock6
  -GOLD-   22720 5373D 1   1.00000     0.00000
 Structure written by MMmdl.
 41 42  0  0  0  0  0  0  0  0  1 V2000
  146.9268  139.1825  151.8985 C   0  0  0  0  0  0  0  0  0  0  0  0
  146.9977  140.3014  152.9557 C   0  0  0  0  0  0  0  0  0  0  0  0
  147.0522  139.8805  154.4639 C   0  0  1  0  0  0  0  0  0  0  0  0
  146.2762  140.9368  155.2913 C   0  0  0  0  0  0  0  0  0  0  0  0
  146.2975  138.5254  154.6229 C   0  0  0  0  0  0  0  0  0  0  0  0
  144.9459  138.5876  154.0719 N   0  0  0  0  0  0  0  0  0  0  0  0
  143.9479  137.7455  154.3691 C   0  0  0  0  0  0  0  0  0  0  0  0
  144.0708  136.7871  155.1317 O   0  0  0  0  0  0  0  0  0  0  0  0
  142.8178  138.0918  153.7320 N   0  0  0  0  0  0  0  0  0  0  0  0
  141.5444  137.4755  153.8183 C   0  0  0  0  0  0  0  0  0  0  0  0
  141.4638  136.2804  154.4149 N   0  0  0  0  0  0  0  0  0  0  0  0
  140.1634  135.7907  154.4263 N   0  0  0  0  0  0  0  0  0  0  0  0
  139.3134  136.6364  153.8361 C   0  0  0  0  0  0  0  0  0  0  0  0
  140.0160  138.1165  153.2080 S   0  0  0  0  0  0  0  0  0  0  0  0
  148.4756  139.7518  154.9063 N   0  0  0  0  0  0  0  0  0  0  0  0
  149.2891  138.8126  154.1219 C   0  0  0  0  0  0  0  0  0  0  0  0
  150.7015  138.6343  154.7047 C   0  0  0  0  0  0  0  0  0  0  0  0
  151.3481  139.8970  154.7932 O   0  0  0  0  0  0  0  0  0  0  0  0
  150.6260  140.8154  155.6026 C   0  0  0  0  0  0  0  0  0  0  0  0
  149.2149  141.0168  155.0249 C   0  0  0  0  0  0  0  0  0  0  0  0
  146.8008  139.6128  150.9050 H   0  0  0  0  0  0  0  0  0  0  0  0
  146.0860  138.5107  152.0660 H   0  0  0  0  0  0  0  0  0  0  0  0
  147.8395  138.5882  151.8662 H   0  0  0  0  0  0  0  0  0  0  0  0
  147.8614  140.9258  152.7224 H   0  0  0  0  0  0  0  0  0  0  0  0
  146.1247  140.9303  152.7832 H   0  0  0  0  0  0  0  0  0  0  0  0
  145.2297  140.9913  154.9931 H   0  0  0  0  0  0  0  0  0  0  0  0
  146.6893  141.9380  155.1711 H   0  0  0  0  0  0  0  0  0  0  0  0
  146.2754  140.7055  156.3559 H   0  0  0  0  0  0  0  0  0  0  0  0
  146.8317  137.7069  154.1422 H   0  0  0  0  0  0  0  0  0  0  0  0
  146.2686  138.2293  155.6719 H   0  0  0  0  0  0  0  0  0  0  0  0
  144.7572  139.3457  153.4322 H   0  0  0  0  0  0  0  0  0  0  0  0
  142.8689  138.8986  153.1276 H   0  0  0  0  0  0  0  0  0  0  0  0
  138.2649  136.3863  153.7702 H   0  0  0  0  0  0  0  0  0  0  0  0
  148.8301  137.8270  154.0888 H   0  0  0  0  0  0  0  0  0  0  0  0
  149.3758  139.1584  153.0919 H   0  0  0  0  0  0  0  0  0  0  0  0
  150.6559  138.1702  155.6912 H   0  0  0  0  0  0  0  0  0  0  0  0
  151.2926  137.9757  154.0684 H   0  0  0  0  0  0  0  0  0  0  0  0
  150.5745  140.4473  156.6285 H   0  0  0  0  0  0  0  0  0  0  0  0
  151.1624  141.7639  155.6292 H   0  0  0  0  0  0  0  0  0  0  0  0
  149.3024  141.4974  154.0507 H   0  0  0  0  0  0  0  0  0  0  0  0
  148.6986  141.7152  155.6793 H   0  0  0  0  0  0  0  0  0  0  0  0
  1  2  1  0  0  0  0
  1 21  1  0  0  0  0
  1 22  1  0  0  0  0
  1 23  1  0  0  0  0
  2  3  1  0  0  0  0
  2 24  1  0  0  0  0
  2 25  1  0  0  0  0
  3  4  1  0  0  0  0
  3  5  1  0  0  0  0
  3 15  1  0  0  0  0
  4 26  1  0  0  0  0
  4 27  1  0  0  0  0
  4 28  1  0  0  0  0
  5  6  1  0  0  0  0
  5 29  1  0  0  0  0
  5 30  1  0  0  0  0
  6  7  1  0  0  0  0
  6 31  1  0  0  0  0
  7  8  2  0  0  0  0
  7  9  1  0  0  0  0
  9 10  1  0  0  0  0
  9 32  1  0  0  0  0
 10 14  1  0  0  0  0
 10 11  2  0  0  0  0
 11 12  1  0  0  0  0
 12 13  2  0  0  0  0
 13 14  1  0  0  0  0
 13 33  1  0  0  0  0
 15 20  1  0  0  0  0
 15 16  1  0  0  0  0
 16 17  1  0  0  0  0
 16 34  1  0  0  0  0
 16 35  1  0  0  0  0
 17 18  1  0  0  0  0
 17 36  1  0  0  0  0
 17 37  1  0  0  0  0
 18 19  1  0  0  0  0
 19 20  1  0  0  0  0
 19 38  1  0  0  0  0
 19 39  1  0  0  0  0
 20 40  1  0  0  0  0
 20 41  1  0  0  0  0
M  END
> <s_m_source_file>
AV-unprocessed.smi

> <i_m_source_file_index>
1412

> <i_lp_mmshare_version>
43012

> <i_f3d_flags>
0

> <s_epik_input>
W0NIMl0xW0NIMl1PW0NIMl1bQ0gyXU4xW0NAQF0oW0NIM10pKFtDSDJdW0NIM10pW0NIMl1bTkhdQyg9TylbTkhdYzJubltjSF1zMg==

> <s_epik_cmdline>
J2VwaWtfcHl0aG9uJywgJy1waCcsICc3LjAnLCAnLXRuJywgJzgnLCAnLW1hJywgJzIwMCcsICctbWV0YWxfYmluZGluZycsICctaW1hZScsICc8aW5maWxlLm1hZT4nLCAnLW9tYWUnLCAnPG91dGZpbGUubWFlPic=

> <r_lp_tautomer_probability>
1

> <r_epik_Ionization_Penalty>
0.295854

> <r_epik_Ionization_Penalty_Charging>
0

> <r_epik_Ionization_Penalty_Neutral>
0.295854

> <r_epik_State_Penalty>
0.288723

> <r_epik_Charging_Adjusted_Penalty>
0.288723

> <i_epik_Tot_Q>
0

> <i_epik_Tot_abs_Q>
0

> <r_epik_Metal_State_Penalty>
0.510549

> <b_epik_Metal_Only>
0

> <s_lp_Force_Field>
OPLS_2005

> <r_lp_Energy>
43.1066

> <b_lp_Chiralities_Consistent>
1

> <s_lp_Variant>
AV-unprocessed.smi:1412-1

> <Gold.Version>
5.8.1

> <Gold.Id.Protein>
6NUR|6NUR_protein|mol2

> <Gold.PLP.Fitness>
42.7551

> <Gold.PLP.PLP>
-32.5031

> <Gold.PLP.part.hbond>
-4.2594

> <Gold.PLP.part.metal>
0.0000

> <Gold.PLP.part.buried>
-1.7989

> <Gold.PLP.part.nonpolar>
-25.8612

> <Gold.PLP.part.repulsive>
0.3157

> <Gold.PLP.ligand.clash>
0.0000

> <Gold.PLP.ligand.torsion>
0.9059

> <Gold.PLP.Chemscore.Hbond>
4.0000

> <Gold.PLP.Chemscore.CHOScore>
0.0000

> <Gold.PLP.Chemscore.Metal>
0.0000

> <Gold.Chemscore.Hbonds>
donor molecule, donor type, donor heavy atom, donor atom, acceptor molecule, acceptor atom, score
      L1  H     6    31       P1 10175  1.00
      L1  H     9    32       P1 10175  1.00
      P1  H  7989  7998       L1    18  0.95
      P1  H 11000 11005       L1    12  1.00

> <Gold.PLP.Chemscore.Internal.Correction>
0.0637

> <Gold.Rescore>
     Score         DG    S(hbond)    S(metal)    S(lipo)     H(rot)  DE(clash)    DE(int)     intcor
     17.17     -20.75       3.46        0.00      72.41       1.86       1.58       2.00       ----

> <Gold.Chemscore.Fitness>
17.1685

> <Gold.Chemscore.DG>
-20.7467

> <Gold.Chemscore.ZeroCoef>
-5.4800

> <Gold.Chemscore.Hbond>
3.4607

> <Gold.Chemscore.Metal>
0.0000

> <Gold.Chemscore.Lipo>
72.4086

> <Gold.Chemscore.Internal_Hbond>
0.0000

> <Gold.Chemscore.DEClash>
1.5798

> <Gold.Chemscore.DEInternal>
1.9984

> <Gold.Chemscore.Rot>
1.8609

> <Gold.Chemscore.Internal.Correction>
   9.000000E+99

> <Gold.Chemscore.Hbonds>
donor molecule, donor type, donor heavy atom, donor atom, acceptor molecule, acceptor atom, score
      L1  H     6    31       P1 10175  0.98
      L1  H     9    32       P1 10175  0.99
      P1  H  7989  7998       L1    18  0.21
      P1  H 11000 11005       L1    12  0.43

> <Gold.Chemscore.Hbond.Weighted>
-11.5587

> <Gold.Chemscore.Metal.Weighted>
-0.0000

> <Gold.Chemscore.Lipo.Weighted>
-8.4718

> <Gold.Chemscore.Internal_Hbond.Weighted>
0.0000

> <Gold.Chemscore.DEClash.Weighted>
1.5798

> <Gold.Chemscore.DEInternal.Weighted>
1.9984

> <Gold.Chemscore.Rot.Weighted>
4.7638

> <Gold.Chemscore.Internal.Correction.Weighted>
   9.000000E+99

> <Gold.Protein.RotatedTorsions>
[ 6907 6896 6895 6894 ] final -131.65 input  -60.11 | X-H torsion
[ 7974 7965 7964 7962 ] final -133.75 input  175.53 | X-H torsion
[ 8008 7997 7996 7995 ] final   89.47 input   59.86 | X-H torsion
[ 10167 10162 10161 10158 ] final  -33.39 input  -65.29 | X-H torsion
[ 10718 10713 10712 10709 ] final  173.13 input   66.30 | X-H torsion
[ 10763 10752 10751 10750 ] final  176.41 input  -60.55 | X-H torsion
[ 11005 11000 10999 10996 ] final   38.75 input  -57.11 | X-H torsion

> <Gold.Protein.ActiveResidues>
 VAL166  LYS551  ARG553  GLY616  TRP617  ASP618  TYR619  PRO620  LYS621  CYS622 
 ASP623  PHE694  ASN695  SER759  ASP760  ASP761  ALA762  ILE779  LEU786  VAL792 
 PHE793  MET794  SER795  GLU796  ALA797  LYS798  CYS799  TRP800  GLU811  SER814 

> <Gold.Protein.RotatedAtoms>
  150.9534  133.6524  159.2767 H   0  0  0  0  0  0  0  0  0  0  0  0  # atno 6907 bound_to 6896
  151.3872  135.0948  159.9524 H   0  0  0  0  0  0  0  0  0  0  0  0  # atno 6908 bound_to 6896
  152.5119  133.9056  159.7517 H   0  0  0  0  0  0  0  0  0  0  0  0  # atno 6909 bound_to 6896
  144.9165  140.6960  143.4992 H   0  0  0  0  0  0  0  0  0  0  0  0  # atno 7974 bound_to 7965
  156.0003  140.3360  155.6839 H   0  0  0  0  0  0  0  0  0  0  0  0  # atno 8008 bound_to 7997
  155.6299  140.0684  157.2670 H   0  0  0  0  0  0  0  0  0  0  0  0  # atno 8009 bound_to 7997
  154.4247  140.1761  156.1449 H   0  0  0  0  0  0  0  0  0  0  0  0  # atno 8010 bound_to 7997
  140.7205  143.3624  151.1938 H   0  0  0  0  0  0  0  0  0  0  0  0  # atno 10167 bound_to 10162
  156.9688  131.0083  151.2910 H   0  0  0  0  0  0  0  0  0  0  0  0  # atno 10718 bound_to 10713
  154.4807  135.2775  155.1572 H   0  0  0  0  0  0  0  0  0  0  0  0  # atno 10763 bound_to 10752
  154.3284  135.6195  153.5543 H   0  0  0  0  0  0  0  0  0  0  0  0  # atno 10764 bound_to 10752
  152.9875  135.5759  154.5208 H   0  0  0  0  0  0  0  0  0  0  0  0  # atno 10765 bound_to 10752
  140.2095  134.3772  155.8056 H   0  0  0  0  0  0  0  0  0  0  0  0  # atno 11005 bound_to 11000
  145.3367  139.1744  143.4507 LP  0  0  0  0  0  0  0  0  0  0  0  0  # atno 17320 bound_to 7965
  146.3184  140.3404  142.8647 LP  0  0  0  0  0  0  0  0  0  0  0  0  # atno 17321 bound_to 7965
  139.7178  143.9272  152.2973 LP  0  0  0  0  0  0  0  0  0  0  0  0  # atno 17342 bound_to 10162
  139.9019  144.6907  150.8656 LP  0  0  0  0  0  0  0  0  0  0  0  0  # atno 17343 bound_to 10162
  157.5607  130.8244  149.8262 LP  0  0  0  0  0  0  0  0  0  0  0  0  # atno 17370 bound_to 10713
  156.0291  130.3770  150.1737 LP  0  0  0  0  0  0  0  0  0  0  0  0  # atno 17371 bound_to 10713
  141.2226  133.7135  156.8394 LP  0  0  0  0  0  0  0  0  0  0  0  0  # atno 17394 bound_to 11000
  140.1966  134.8927  157.3122 LP  0  0  0  0  0  0  0  0  0  0  0  0  # atno 17395 bound_to 11000

$$$$
