AV-unprocessed.smi:826|AV-procd|sdf|3853|dock6
  -GOLD-   22720 1303D 1   1.00000     0.00000
 Structure written by MMmdl.
 39 40  0  0  0  0  0  0  0  0  1 V2000
  143.5491  143.7759  162.4633 C   0  0  0  0  0  0  0  0  0  0  0  0
  144.3726  143.9606  161.2349 C   0  0  0  0  0  0  0  0  0  0  0  0
  144.1723  144.9707  160.3801 N   0  0  0  0  0  0  0  0  0  0  0  0
  145.0552  144.9370  159.3098 N   0  0  0  0  0  0  0  0  0  0  0  0
  145.8985  143.8984  159.3899 C   0  0  0  0  0  0  0  0  0  0  0  0
  146.8998  143.6187  158.4227 N   0  0  0  0  0  0  0  0  0  0  0  0
  147.5034  142.4453  158.1655 C   0  0  0  0  0  0  0  0  0  0  0  0
  147.2453  141.3748  158.7170 O   0  0  0  0  0  0  0  0  0  0  0  0
  148.4439  142.5792  157.2175 N   0  0  0  0  0  0  0  0  0  0  0  0
  149.3116  141.5048  156.7370 C   0  0  1  0  0  0  0  0  0  0  0  0
  149.3789  141.5905  155.2032 C   0  0  0  0  0  0  0  0  0  0  0  0
  150.7325  141.6724  157.2985 C   0  0  0  0  0  0  0  0  0  0  0  0
  151.6185  140.8658  157.0111 O   0  0  0  0  0  0  0  0  0  0  0  0
  150.9308  142.7288  158.1010 N   0  0  0  0  0  0  0  0  0  0  0  0
  152.2062  143.0917  158.7120 C   0  0  0  0  0  0  0  0  0  0  0  0
  152.6707  142.0028  159.6983 C   0  0  0  0  0  0  0  0  0  0  0  0
  153.0675  142.7344  160.9817 C   0  0  0  0  0  0  0  0  0  0  0  0
  152.1751  143.9707  161.0018 C   0  0  0  0  0  0  0  0  0  0  0  0
  152.0870  144.3911  159.5346 C   0  0  0  0  0  0  0  0  0  0  0  0
  145.6804  142.8685  160.7946 S   0  0  0  0  0  0  0  0  0  0  0  0
  143.6036  144.6674  163.0886 H   0  0  0  0  0  0  0  0  0  0  0  0
  143.9098  142.9230  163.0384 H   0  0  0  0  0  0  0  0  0  0  0  0
  142.5079  143.5992  162.1922 H   0  0  0  0  0  0  0  0  0  0  0  0
  147.2076  144.4100  157.8770 H   0  0  0  0  0  0  0  0  0  0  0  0
  148.5936  143.4946  156.8194 H   0  0  0  0  0  0  0  0  0  0  0  0
  148.8984  140.5374  157.0301 H   0  0  0  0  0  0  0  0  0  0  0  0
  150.0171  140.8077  154.7914 H   0  0  0  0  0  0  0  0  0  0  0  0
  149.7709  142.5512  154.8655 H   0  0  0  0  0  0  0  0  0  0  0  0
  148.3890  141.4661  154.7628 H   0  0  0  0  0  0  0  0  0  0  0  0
  150.1476  143.3398  158.2822 H   0  0  0  0  0  0  0  0  0  0  0  0
  152.9609  143.2213  157.9340 H   0  0  0  0  0  0  0  0  0  0  0  0
  151.8556  141.3130  159.9223 H   0  0  0  0  0  0  0  0  0  0  0  0
  153.4926  141.4087  159.2980 H   0  0  0  0  0  0  0  0  0  0  0  0
  152.9498  142.1155  161.8716 H   0  0  0  0  0  0  0  0  0  0  0  0
  154.1131  143.0391  160.9234 H   0  0  0  0  0  0  0  0  0  0  0  0
  151.1830  143.7022  161.3671 H   0  0  0  0  0  0  0  0  0  0  0  0
  152.5650  144.7612  161.6435 H   0  0  0  0  0  0  0  0  0  0  0  0
  152.9281  145.0436  159.2966 H   0  0  0  0  0  0  0  0  0  0  0  0
  151.1773  144.9571  159.3282 H   0  0  0  0  0  0  0  0  0  0  0  0
  1  2  1  0  0  0  0
  1 21  1  0  0  0  0
  1 22  1  0  0  0  0
  1 23  1  0  0  0  0
  2 20  1  0  0  0  0
  2  3  2  0  0  0  0
  3  4  1  0  0  0  0
  4  5  2  0  0  0  0
  5  6  1  0  0  0  0
  5 20  1  0  0  0  0
  6  7  1  0  0  0  0
  6 24  1  0  0  0  0
  7  8  2  0  0  0  0
  7  9  1  0  0  0  0
  9 10  1  0  0  0  0
  9 25  1  0  0  0  0
 10 11  1  0  0  0  0
 10 12  1  0  0  0  0
 10 26  1  0  0  0  0
 11 27  1  0  0  0  0
 11 28  1  0  0  0  0
 11 29  1  0  0  0  0
 12 13  2  0  0  0  0
 12 14  1  0  0  0  0
 14 15  1  0  0  0  0
 14 30  1  0  0  0  0
 15 19  1  0  0  0  0
 15 16  1  0  0  0  0
 15 31  1  0  0  0  0
 16 17  1  0  0  0  0
 16 32  1  0  0  0  0
 16 33  1  0  0  0  0
 17 18  1  0  0  0  0
 17 34  1  0  0  0  0
 17 35  1  0  0  0  0
 18 19  1  0  0  0  0
 18 36  1  0  0  0  0
 18 37  1  0  0  0  0
 19 38  1  0  0  0  0
 19 39  1  0  0  0  0
M  END
> <s_m_source_file>
AV-unprocessed.smi

> <i_m_source_file_index>
826

> <i_lp_mmshare_version>
43012

> <i_f3d_flags>
0

> <s_epik_input>
W0NIM11jMW5uYyhzMSlbTkhdQyg9TylbTkhdW0NASF0oW0NIM10pQyg9TylbTkhdW0NIXTJbQ0gyXVtDSDJdW0NIMl1bQ0gyXTI=

> <s_epik_cmdline>
J2VwaWtfcHl0aG9uJywgJy1waCcsICc3LjAnLCAnLXRuJywgJzgnLCAnLW1hJywgJzIwMCcsICctbWV0YWxfYmluZGluZycsICctaW1hZScsICc8aW5maWxlLm1hZT4nLCAnLW9tYWUnLCAnPG91dGZpbGUubWFlPic=

> <r_lp_tautomer_probability>
1

> <r_epik_Ionization_Penalty>
0.00368568

> <r_epik_Ionization_Penalty_Charging>
0

> <r_epik_Ionization_Penalty_Neutral>
0.00368568

> <r_epik_State_Penalty>
-0

> <r_epik_Charging_Adjusted_Penalty>
0

> <i_epik_Tot_Q>
0

> <i_epik_Tot_abs_Q>
0

> <r_epik_Metal_State_Penalty>
0.369753

> <b_epik_Metal_Only>
0

> <s_lp_Force_Field>
OPLS_2005

> <r_lp_Energy>
15.8717

> <b_lp_Chiralities_Consistent>
1

> <s_lp_Variant>
AV-unprocessed.smi:826-2

> <Gold.Version>
5.8.1

> <Gold.Id.Protein>
6NUR|6NUR_protein|mol2

> <Gold.PLP.Fitness>
44.9732

> <Gold.PLP.PLP>
-38.7036

> <Gold.PLP.part.hbond>
-3.0000

> <Gold.PLP.part.metal>
0.0000

> <Gold.PLP.part.buried>
-4.5099

> <Gold.PLP.part.nonpolar>
-32.2517

> <Gold.PLP.part.repulsive>
0.3544

> <Gold.PLP.ligand.clash>
0.0000

> <Gold.PLP.ligand.torsion>
0.3205

> <Gold.PLP.Chemscore.Hbond>
2.3016

> <Gold.PLP.Chemscore.CHOScore>
0.0000

> <Gold.PLP.Chemscore.Metal>
0.0000

> <Gold.Chemscore.Hbonds>
donor molecule, donor type, donor heavy atom, donor atom, acceptor molecule, acceptor atom, score
      L1  H     6    24       P1  8029  1.00
      L1  H     9    25       P1  8028  1.00
      P1  H  6934  6946       L1     8  0.28

> <Gold.PLP.Chemscore.Internal.Correction>
0.0058

> <Gold.Rescore>
     Score         DG    S(hbond)    S(metal)    S(lipo)     H(rot)  DE(clash)    DE(int)     intcor
     13.92     -15.73       1.11        0.00      92.04       1.65       0.38       1.43       ----

> <Gold.Chemscore.Fitness>
13.9172

> <Gold.Chemscore.DG>
-15.7259

> <Gold.Chemscore.ZeroCoef>
-5.4800

> <Gold.Chemscore.Hbond>
1.1051

> <Gold.Chemscore.Metal>
0.0000

> <Gold.Chemscore.Lipo>
92.0357

> <Gold.Chemscore.Internal_Hbond>
0.0000

> <Gold.Chemscore.DEClash>
0.3829

> <Gold.Chemscore.DEInternal>
1.4258

> <Gold.Chemscore.Rot>
1.6458

> <Gold.Chemscore.Internal.Correction>
   9.000000E+99

> <Gold.Chemscore.Hbonds>
donor molecule, donor type, donor heavy atom, donor atom, acceptor molecule, acceptor atom, score
      L1  H     6    24       P1  8029  0.26
      L1  H     9    25       P1  8028  0.35
      P1  H  6934  6946       L1     8  0.27

> <Gold.Chemscore.Hbond.Weighted>
-3.6911

> <Gold.Chemscore.Metal.Weighted>
-0.0000

> <Gold.Chemscore.Lipo.Weighted>
-10.7682

> <Gold.Chemscore.Internal_Hbond.Weighted>
0.0000

> <Gold.Chemscore.DEClash.Weighted>
0.3829

> <Gold.Chemscore.DEInternal.Weighted>
1.4258

> <Gold.Chemscore.Rot.Weighted>
4.2133

> <Gold.Chemscore.Internal.Correction.Weighted>
   9.000000E+99

> <Gold.Protein.RotatedTorsions>
[ 6907 6896 6895 6894 ] final  124.23 input  -60.11 | X-H torsion
[ 7974 7965 7964 7962 ] final   -6.23 input  175.53 | X-H torsion
[ 8008 7997 7996 7995 ] final   48.89 input   59.86 | X-H torsion
[ 10167 10162 10161 10158 ] final   83.62 input  -65.29 | X-H torsion
[ 10718 10713 10712 10709 ] final    1.62 input   66.30 | X-H torsion
[ 10763 10752 10751 10750 ] final  127.86 input  -60.55 | X-H torsion
[ 11005 11000 10999 10996 ] final   74.60 input  -57.11 | X-H torsion

> <Gold.Protein.ActiveResidues>
 VAL166  LYS551  ARG553  GLY616  TRP617  ASP618  TYR619  PRO620  LYS621  CYS622 
 ASP623  PHE694  ASN695  SER759  ASP760  ASP761  ALA762  ILE779  LEU786  VAL792 
 PHE793  MET794  SER795  GLU796  ALA797  LYS798  CYS799  TRP800  GLU811  SER814 

> <Gold.Protein.RotatedAtoms>
  152.4096  133.6942  159.6385 H   0  0  0  0  0  0  0  0  0  0  0  0  # atno 6907 bound_to 6896
  150.7977  133.8648  159.3251 H   0  0  0  0  0  0  0  0  0  0  0  0  # atno 6908 bound_to 6896
  151.6394  135.1016  160.0189 H   0  0  0  0  0  0  0  0  0  0  0  0  # atno 6909 bound_to 6896
  146.2336  140.2139  142.8336 H   0  0  0  0  0  0  0  0  0  0  0  0  # atno 7974 bound_to 7965
  155.3931  140.3434  155.4252 H   0  0  0  0  0  0  0  0  0  0  0  0  # atno 8008 bound_to 7997
  156.1546  140.1581  156.8746 H   0  0  0  0  0  0  0  0  0  0  0  0  # atno 8009 bound_to 7997
  154.5083  140.0796  156.7920 H   0  0  0  0  0  0  0  0  0  0  0  0  # atno 8010 bound_to 7997
  139.9165  144.6239  150.8483 H   0  0  0  0  0  0  0  0  0  0  0  0  # atno 10167 bound_to 10162
  156.8509  130.5553  149.5670 H   0  0  0  0  0  0  0  0  0  0  0  0  # atno 10718 bound_to 10713
  153.7162  135.3260  155.3257 H   0  0  0  0  0  0  0  0  0  0  0  0  # atno 10763 bound_to 10752
  154.8370  135.4488  154.1264 H   0  0  0  0  0  0  0  0  0  0  0  0  # atno 10764 bound_to 10752
  153.2371  135.6966  153.7904 H   0  0  0  0  0  0  0  0  0  0  0  0  # atno 10765 bound_to 10752
  139.9383  134.7446  156.1167 H   0  0  0  0  0  0  0  0  0  0  0  0  # atno 11005 bound_to 11000
  144.9685  140.8345  143.5470 LP  0  0  0  0  0  0  0  0  0  0  0  0  # atno 17320 bound_to 7965
  145.2117  139.2201  143.5139 LP  0  0  0  0  0  0  0  0  0  0  0  0  # atno 17321 bound_to 7965
  140.7673  143.3327  151.2374 LP  0  0  0  0  0  0  0  0  0  0  0  0  # atno 17342 bound_to 10162
  139.6898  143.9712  152.2853 LP  0  0  0  0  0  0  0  0  0  0  0  0  # atno 17343 bound_to 10162
  156.0829  130.5835  150.9595 LP  0  0  0  0  0  0  0  0  0  0  0  0  # atno 17370 bound_to 10713
  157.6304  131.0921  150.8452 LP  0  0  0  0  0  0  0  0  0  0  0  0  # atno 17371 bound_to 10713
  141.1007  133.6678  156.2748 LP  0  0  0  0  0  0  0  0  0  0  0  0  # atno 17394 bound_to 11000
  140.6017  134.5548  157.5518 LP  0  0  0  0  0  0  0  0  0  0  0  0  # atno 17395 bound_to 11000

$$$$
