AV-unprocessed.smi:1022|AV-procd|sdf|4460|dock4
  -GOLD-   22720 2433D 1   1.00000     0.00000
 Structure written by MMmdl.
 32 33  0  0  0  0  0  0  0  0  2 V2000
  145.7784  143.1707  154.3987 C   0  0  0  0  0  0  0  0  0  0  0  0
  146.6861  142.1729  154.8320 O   0  0  0  0  0  0  0  0  0  0  0  0
  147.7095  141.9220  153.8823 C   0  0  0  0  0  0  0  0  0  0  0  0
  148.2931  140.5155  154.1102 C   0  0  2  0  0  0  0  0  0  0  0  0
  147.1945  139.4464  154.2049 C   0  0  0  0  0  0  0  0  0  0  0  0
  149.0895  140.4899  155.3349 N   0  0  0  0  0  0  0  0  0  0  0  0
  150.3856  140.1583  155.4300 C   0  0  0  0  0  0  0  0  0  0  0  0
  151.0115  139.8226  154.4218 O   0  0  0  0  0  0  0  0  0  0  0  0
  150.8784  140.2440  156.6867 N   0  5  0  0  0  0  0  0  0  0  0  0
  151.1959  141.4430  157.2025 C   0  0  0  0  0  0  0  0  0  0  0  0
  150.9417  142.5925  156.5615 N   0  0  0  0  0  0  0  0  0  0  0  0
  151.3531  143.7129  157.2690 N   0  0  0  0  0  0  0  0  0  0  0  0
  151.9206  143.3925  158.4344 C   0  0  0  0  0  0  0  0  0  0  0  0
  152.4445  144.4222  159.3789 C   0  0  0  0  0  0  0  0  0  0  0  0
  151.9894  144.4786  160.8209 C   0  0  0  0  0  0  0  0  0  0  0  0
  151.5633  145.5544  159.8549 C   0  0  0  0  0  0  0  0  0  0  0  0
  152.0015  141.6676  158.7549 S   0  0  0  0  0  0  0  0  0  0  0  0
  145.0157  143.3280  155.1611 H   0  0  0  0  0  0  0  0  0  0  0  0
  145.2768  142.8739  153.4767 H   0  0  0  0  0  0  0  0  0  0  0  0
  146.2875  144.1206  154.2308 H   0  0  0  0  0  0  0  0  0  0  0  0
  147.2901  141.9986  152.8777 H   0  0  0  0  0  0  0  0  0  0  0  0
  148.4947  142.6758  153.9641 H   0  0  0  0  0  0  0  0  0  0  0  0
  148.9386  140.2605  153.2677 H   0  0  0  0  0  0  0  0  0  0  0  0
  146.6046  139.4053  153.2889 H   0  0  0  0  0  0  0  0  0  0  0  0
  146.5119  139.6500  155.0308 H   0  0  0  0  0  0  0  0  0  0  0  0
  147.6232  138.4563  154.3623 H   0  0  0  0  0  0  0  0  0  0  0  0
  148.6194  140.7556  156.1877 H   0  0  0  0  0  0  0  0  0  0  0  0
  153.4887  144.6426  159.1663 H   0  0  0  0  0  0  0  0  0  0  0  0
  151.2265  143.7755  161.1487 H   0  0  0  0  0  0  0  0  0  0  0  0
  152.7321  144.7427  161.5709 H   0  0  0  0  0  0  0  0  0  0  0  0
  152.0207  146.5359  159.9602 H   0  0  0  0  0  0  0  0  0  0  0  0
  150.5241  145.5554  159.5320 H   0  0  0  0  0  0  0  0  0  0  0  0
  1  2  1  0  0  0  0
  1 18  1  0  0  0  0
  1 19  1  0  0  0  0
  1 20  1  0  0  0  0
  2  3  1  0  0  0  0
  3  4  1  0  0  0  0
  3 21  1  0  0  0  0
  3 22  1  0  0  0  0
  4  5  1  0  0  0  0
  4  6  1  0  0  0  0
  4 23  1  0  0  0  0
  5 24  1  0  0  0  0
  5 25  1  0  0  0  0
  5 26  1  0  0  0  0
  6  7  1  0  0  0  0
  6 27  1  0  0  0  0
  7  8  2  0  0  0  0
  7  9  1  0  0  0  0
  9 10  1  0  0  0  0
 10 17  1  0  0  0  0
 10 11  2  0  0  0  0
 11 12  1  0  0  0  0
 12 13  2  0  0  0  0
 13 14  1  0  0  0  0
 13 17  1  0  0  0  0
 14 16  1  0  0  0  0
 14 15  1  0  0  0  0
 14 28  1  0  0  0  0
 15 16  1  0  0  0  0
 15 29  1  0  0  0  0
 15 30  1  0  0  0  0
 16 31  1  0  0  0  0
 16 32  1  0  0  0  0
M  CHG  1   9  -1
M  END
> <s_m_source_file>
AV-unprocessed.smi

> <i_m_source_file_index>
1022

> <i_lp_mmshare_version>
43012

> <i_f3d_flags>
0

> <s_epik_input>
W0NIM11PW0NIMl1bQ0BIXShbQ0gzXSlbTkhdQyg9TylbTkhdYzFubmMoczEpW0NIXTJbQ0gyXVtDSDJdMg==

> <s_epik_cmdline>
J2VwaWtfcHl0aG9uJywgJy1waCcsICc3LjAnLCAnLXRuJywgJzgnLCAnLW1hJywgJzIwMCcsICctbWV0YWxfYmluZGluZycsICctaW1hZScsICc8aW5maWxlLm1hZT4nLCAnLW9tYWUnLCAnPG91dGZpbGUubWFlPic=

> <r_lp_tautomer_probability>
1

> <r_epik_Ionization_Penalty>
3.79487

> <r_epik_Ionization_Penalty_Charging>
3.64217

> <r_epik_Ionization_Penalty_Neutral>
0.152695

> <r_epik_State_Penalty>
3.6409

> <r_epik_Charging_Adjusted_Penalty>
7.28307

> <i_epik_Tot_Q>
-1

> <i_epik_Tot_abs_Q>
1

> <r_epik_Metal_State_Penalty>
0.534129

> <b_epik_Metal_Only>
1

> <s_lp_Force_Field>
OPLS_2005

> <r_lp_Energy>
-0.766609

> <b_lp_Chiralities_Consistent>
1

> <s_lp_Variant>
AV-unprocessed.smi:1022-3

> <Gold.Version>
5.8.1

> <Gold.Id.Protein>
6NUR|6NUR_protein|mol2

> <Gold.PLP.Fitness>
36.4092

> <Gold.PLP.PLP>
-35.2147

> <Gold.PLP.part.hbond>
-1.0000

> <Gold.PLP.part.metal>
0.0000

> <Gold.PLP.part.buried>
-5.9336

> <Gold.PLP.part.nonpolar>
-28.4449

> <Gold.PLP.part.repulsive>
0.7577

> <Gold.PLP.ligand.clash>
0.0000

> <Gold.PLP.ligand.torsion>
0.9794

> <Gold.PLP.Chemscore.Hbond>
0.9913

> <Gold.PLP.Chemscore.CHOScore>
0.0000

> <Gold.PLP.Chemscore.Metal>
0.0000

> <Gold.Chemscore.Hbonds>
donor molecule, donor type, donor heavy atom, donor atom, acceptor molecule, acceptor atom, score
      P1  H  7989  7998       L1     8  0.99

> <Gold.PLP.Chemscore.Internal.Correction>
0.1797

> <Gold.Rescore>
     Score         DG    S(hbond)    S(metal)    S(lipo)     H(rot)  DE(clash)    DE(int)     intcor
     12.37     -13.95       0.98        0.00      81.36       1.69       0.08       1.51       ----

> <Gold.Chemscore.Fitness>
12.3657

> <Gold.Chemscore.DG>
-13.9475

> <Gold.Chemscore.ZeroCoef>
-5.4800

> <Gold.Chemscore.Hbond>
0.9822

> <Gold.Chemscore.Metal>
0.0000

> <Gold.Chemscore.Lipo>
81.3556

> <Gold.Chemscore.Internal_Hbond>
0.0000

> <Gold.Chemscore.DEClash>
0.0767

> <Gold.Chemscore.DEInternal>
1.5050

> <Gold.Chemscore.Rot>
1.6921

> <Gold.Chemscore.Internal.Correction>
   9.000000E+99

> <Gold.Chemscore.Hbonds>
donor molecule, donor type, donor heavy atom, donor atom, acceptor molecule, acceptor atom, score
      P1  H  7989  7998       L1     8  0.91

> <Gold.Chemscore.Hbond.Weighted>
-3.2805

> <Gold.Chemscore.Metal.Weighted>
-0.0000

> <Gold.Chemscore.Lipo.Weighted>
-9.5186

> <Gold.Chemscore.Internal_Hbond.Weighted>
0.0000

> <Gold.Chemscore.DEClash.Weighted>
0.0767

> <Gold.Chemscore.DEInternal.Weighted>
1.5050

> <Gold.Chemscore.Rot.Weighted>
4.3317

> <Gold.Chemscore.Internal.Correction.Weighted>
   9.000000E+99

> <Gold.Protein.RotatedTorsions>
[ 6907 6896 6895 6894 ] final -153.95 input  -60.11 | X-H torsion
[ 7974 7965 7964 7962 ] final -146.77 input  175.53 | X-H torsion
[ 8008 7997 7996 7995 ] final   90.15 input   59.86 | X-H torsion
[ 10167 10162 10161 10158 ] final   97.79 input  -65.29 | X-H torsion
[ 10718 10713 10712 10709 ] final  142.24 input   66.30 | X-H torsion
[ 10763 10752 10751 10750 ] final  171.05 input  -60.55 | X-H torsion
[ 11005 11000 10999 10996 ] final   99.14 input  -57.11 | X-H torsion

> <Gold.Protein.ActiveResidues>
 VAL166  LYS551  ARG553  GLY616  TRP617  ASP618  TYR619  PRO620  LYS621  CYS622 
 ASP623  PHE694  ASN695  SER759  ASP760  ASP761  ALA762  ILE779  LEU786  VAL792 
 PHE793  MET794  SER795  GLU796  ALA797  LYS798  CYS799  TRP800  GLU811  SER814 

> <Gold.Protein.RotatedAtoms>
  151.2502  133.4354  159.2610 H   0  0  0  0  0  0  0  0  0  0  0  0  # atno 6907 bound_to 6896
  151.0625  134.9746  159.8278 H   0  0  0  0  0  0  0  0  0  0  0  0  # atno 6908 bound_to 6896
  152.5400  134.2451  159.8930 H   0  0  0  0  0  0  0  0  0  0  0  0  # atno 6909 bound_to 6896
  144.8137  140.5413  143.5625 H   0  0  0  0  0  0  0  0  0  0  0  0  # atno 7974 bound_to 7965
  156.0085  140.3352  155.6917 H   0  0  0  0  0  0  0  0  0  0  0  0  # atno 8008 bound_to 7997
  155.6190  140.0673  157.2701 H   0  0  0  0  0  0  0  0  0  0  0  0  # atno 8009 bound_to 7997
  154.4273  140.1780  156.1340 H   0  0  0  0  0  0  0  0  0  0  0  0  # atno 8010 bound_to 7997
  139.7769  144.6902  151.0077 H   0  0  0  0  0  0  0  0  0  0  0  0  # atno 10167 bound_to 10162
  157.3828  131.0994  151.0722 H   0  0  0  0  0  0  0  0  0  0  0  0  # atno 10718 bound_to 10713
  154.4063  135.2755  155.2065 H   0  0  0  0  0  0  0  0  0  0  0  0  # atno 10763 bound_to 10752
  154.4070  135.6031  153.5933 H   0  0  0  0  0  0  0  0  0  0  0  0  # atno 10764 bound_to 10752
  152.9831  135.5940  154.4338 H   0  0  0  0  0  0  0  0  0  0  0  0  # atno 10765 bound_to 10752
  139.8771  134.9082  156.4562 H   0  0  0  0  0  0  0  0  0  0  0  0  # atno 11005 bound_to 11000
  145.5263  139.1476  143.3524 LP  0  0  0  0  0  0  0  0  0  0  0  0  # atno 17320 bound_to 7965
  146.2439  140.5404  142.8922 LP  0  0  0  0  0  0  0  0  0  0  0  0  # atno 17321 bound_to 7965
  140.7817  143.4526  151.0391 LP  0  0  0  0  0  0  0  0  0  0  0  0  # atno 17342 bound_to 10162
  139.8208  143.7822  152.3176 LP  0  0  0  0  0  0  0  0  0  0  0  0  # atno 17343 bound_to 10162
  157.1785  130.6299  149.5664 LP  0  0  0  0  0  0  0  0  0  0  0  0  # atno 17370 bound_to 10713
  155.9779  130.4761  150.6626 LP  0  0  0  0  0  0  0  0  0  0  0  0  # atno 17371 bound_to 10713
  140.8897  133.7857  155.9558 LP  0  0  0  0  0  0  0  0  0  0  0  0  # atno 17394 bound_to 11000
  140.8767  134.2661  157.5164 LP  0  0  0  0  0  0  0  0  0  0  0  0  # atno 17395 bound_to 11000

$$$$
