AV-unprocessed.smi:861|AV-procd|sdf|3971|dock8
  -GOLD-   22720 1443D 1   1.00000     0.00000
 Structure written by MMmdl.
 43 44  0  0  0  0  0  0  0  0  1 V2000
  151.6640  144.7984  160.2422 C   0  0  0  0  0  0  0  0  0  0  0  0
  152.0473  143.9046  159.0504 C   0  0  0  0  0  0  0  0  0  0  0  0
  152.5859  144.7622  157.8947 C   0  0  0  0  0  0  0  0  0  0  0  0
  150.8785  143.0179  158.5730 C   0  0  0  0  0  0  0  0  0  0  0  0
  151.2279  142.1186  157.3703 C   0  0  0  0  0  0  0  0  0  0  0  0
  150.3210  140.9914  157.1530 N   0  0  0  0  0  0  0  0  0  0  0  0
  148.9300  141.4278  157.2040 C   0  0  0  0  0  0  0  0  0  0  0  0
  147.9533  140.2614  156.9846 C   0  0  0  0  0  0  0  0  0  0  0  0
  148.2058  139.2491  157.9522 O   0  0  0  0  0  0  0  0  0  0  0  0
  149.5377  138.7435  157.8991 C   0  0  2  0  0  0  0  0  0  0  0  0
  149.7067  137.6556  158.9737 C   0  0  0  0  0  0  0  0  0  0  0  0
  148.5159  136.8254  159.1171 N   0  0  0  0  0  0  0  0  0  0  0  0
  148.1633  136.2686  160.3552 C   0  0  0  0  0  0  0  0  0  0  0  0
  148.2123  134.8685  160.5081 C   0  0  0  0  0  0  0  0  0  0  0  0
  147.8585  134.3351  161.7594 C   0  0  0  0  0  0  0  0  0  0  0  0
  147.4840  135.2442  162.7655 C   0  0  0  0  0  0  0  0  0  0  0  0
  147.4579  136.5809  162.5659 N   0  0  0  0  0  0  0  0  0  0  0  0
  147.7965  137.0862  161.3744 N   0  0  0  0  0  0  0  0  0  0  0  0
  150.5129  139.9165  158.1254 C   0  0  0  0  0  0  0  0  0  0  0  0
  150.8265  145.4516  159.9946 H   0  0  0  0  0  0  0  0  0  0  0  0
  152.5003  145.4319  160.5391 H   0  0  0  0  0  0  0  0  0  0  0  0
  151.3838  144.2115  161.1163 H   0  0  0  0  0  0  0  0  0  0  0  0
  152.8588  143.2496  159.3700 H   0  0  0  0  0  0  0  0  0  0  0  0
  151.8202  145.4390  157.5143 H   0  0  0  0  0  0  0  0  0  0  0  0
  152.9228  144.1402  157.0648 H   0  0  0  0  0  0  0  0  0  0  0  0
  153.4353  145.3662  158.2150 H   0  0  0  0  0  0  0  0  0  0  0  0
  150.5216  142.4031  159.4006 H   0  0  0  0  0  0  0  0  0  0  0  0
  150.0497  143.6712  158.3022 H   0  0  0  0  0  0  0  0  0  0  0  0
  151.2838  142.7252  156.4652 H   0  0  0  0  0  0  0  0  0  0  0  0
  152.2308  141.7221  157.5262 H   0  0  0  0  0  0  0  0  0  0  0  0
  148.7228  141.8915  158.1699 H   0  0  0  0  0  0  0  0  0  0  0  0
  148.7521  142.1922  156.4468 H   0  0  0  0  0  0  0  0  0  0  0  0
  146.9234  140.6034  157.0878 H   0  0  0  0  0  0  0  0  0  0  0  0
  148.0573  139.8511  155.9792 H   0  0  0  0  0  0  0  0  0  0  0  0
  149.7227  138.3097  156.9143 H   0  0  0  0  0  0  0  0  0  0  0  0
  150.5182  136.9892  158.6802 H   0  0  0  0  0  0  0  0  0  0  0  0
  150.0083  138.0916  159.9266 H   0  0  0  0  0  0  0  0  0  0  0  0
  147.8062  136.8954  158.4025 H   0  0  0  0  0  0  0  0  0  0  0  0
  148.5090  134.2227  159.6946 H   0  0  0  0  0  0  0  0  0  0  0  0
  147.8735  133.2710  161.9418 H   0  0  0  0  0  0  0  0  0  0  0  0
  147.2020  134.8950  163.7478 H   0  0  0  0  0  0  0  0  0  0  0  0
  151.5303  139.5322  158.0666 H   0  0  0  0  0  0  0  0  0  0  0  0
  150.3834  140.3066  159.1361 H   0  0  0  0  0  0  0  0  0  0  0  0
  1  2  1  0  0  0  0
  1 20  1  0  0  0  0
  1 21  1  0  0  0  0
  1 22  1  0  0  0  0
  2  3  1  0  0  0  0
  2  4  1  0  0  0  0
  2 23  1  0  0  0  0
  3 24  1  0  0  0  0
  3 25  1  0  0  0  0
  3 26  1  0  0  0  0
  4  5  1  0  0  0  0
  4 27  1  0  0  0  0
  4 28  1  0  0  0  0
  5  6  1  0  0  0  0
  5 29  1  0  0  0  0
  5 30  1  0  0  0  0
  6 19  1  0  0  0  0
  6  7  1  0  0  0  0
  7  8  1  0  0  0  0
  7 31  1  0  0  0  0
  7 32  1  0  0  0  0
  8  9  1  0  0  0  0
  8 33  1  0  0  0  0
  8 34  1  0  0  0  0
  9 10  1  0  0  0  0
 10 11  1  0  0  0  0
 10 19  1  0  0  0  0
 10 35  1  0  0  0  0
 11 12  1  0  0  0  0
 11 36  1  0  0  0  0
 11 37  1  0  0  0  0
 12 13  1  0  0  0  0
 12 38  1  0  0  0  0
 13 18  1  0  0  0  0
 13 14  2  0  0  0  0
 14 15  1  0  0  0  0
 14 39  1  0  0  0  0
 15 16  2  0  0  0  0
 15 40  1  0  0  0  0
 16 17  1  0  0  0  0
 16 41  1  0  0  0  0
 17 18  2  0  0  0  0
 19 42  1  0  0  0  0
 19 43  1  0  0  0  0
M  END
> <s_m_source_file>
AV-unprocessed.smi

> <i_m_source_file_index>
861

> <i_lp_mmshare_version>
43012

> <i_f3d_flags>
0

> <s_epik_input>
W0NIM11bQ0hdKFtDSDNdKVtDSDJdW0NIMl1OMVtDSDJdW0NIMl1PW0NASF0oW0NIMl0xKVtDSDJdW05IXWMyW2NIXVtjSF1bY0hdbm4y

> <s_epik_cmdline>
J2VwaWtfcHl0aG9uJywgJy1waCcsICc3LjAnLCAnLXRuJywgJzgnLCAnLW1hJywgJzIwMCcsICctbWV0YWxfYmluZGluZycsICctaW1hZScsICc8aW5maWxlLm1hZT4nLCAnLW9tYWUnLCAnPG91dGZpbGUubWFlPic=

> <r_lp_tautomer_probability>
0.999978

> <r_epik_Ionization_Penalty>
1.1508

> <r_epik_Ionization_Penalty_Charging>
0

> <r_epik_Ionization_Penalty_Neutral>
1.1508

> <r_epik_State_Penalty>
1.22808

> <r_epik_Charging_Adjusted_Penalty>
1.22808

> <i_epik_Tot_Q>
0

> <i_epik_Tot_abs_Q>
0

> <r_epik_Metal_State_Penalty>
1.22149

> <b_epik_Metal_Only>
0

> <s_lp_Force_Field>
OPLS_2005

> <r_lp_Energy>
31.1204

> <b_lp_Chiralities_Consistent>
1

> <s_lp_Variant>
AV-unprocessed.smi:861-6

> <Gold.Version>
5.8.1

> <Gold.Id.Protein>
6NUR|6NUR_protein|mol2

> <Gold.PLP.Fitness>
42.1701

> <Gold.PLP.PLP>
-39.1625

> <Gold.PLP.part.hbond>
-2.8373

> <Gold.PLP.part.metal>
0.0000

> <Gold.PLP.part.buried>
-5.9150

> <Gold.PLP.part.nonpolar>
-29.7739

> <Gold.PLP.part.repulsive>
0.2096

> <Gold.PLP.ligand.clash>
0.0000

> <Gold.PLP.ligand.torsion>
1.2126

> <Gold.PLP.Chemscore.Hbond>
1.7920

> <Gold.PLP.Chemscore.CHOScore>
0.0000

> <Gold.PLP.Chemscore.Metal>
0.0000

> <Gold.Chemscore.Hbonds>
donor molecule, donor type, donor heavy atom, donor atom, acceptor molecule, acceptor atom, score
      P1  H  6931  6943       L1    18  0.95
      P1  H  6934  6947       L1    18  0.70

> <Gold.PLP.Chemscore.Internal.Correction>
0.0567

> <Gold.Rescore>
     Score         DG    S(hbond)    S(metal)    S(lipo)     H(rot)  DE(clash)    DE(int)     intcor
     15.76     -16.75       1.23        0.00      97.59       1.66       0.05       0.94       ----

> <Gold.Chemscore.Fitness>
15.7597

> <Gold.Chemscore.DG>
-16.7484

> <Gold.Chemscore.ZeroCoef>
-5.4800

> <Gold.Chemscore.Hbond>
1.2270

> <Gold.Chemscore.Metal>
0.0000

> <Gold.Chemscore.Lipo>
97.5855

> <Gold.Chemscore.Internal_Hbond>
0.0000

> <Gold.Chemscore.DEClash>
0.0485

> <Gold.Chemscore.DEInternal>
0.9402

> <Gold.Chemscore.Rot>
1.6591

> <Gold.Chemscore.Internal.Correction>
   9.000000E+99

> <Gold.Chemscore.Hbonds>
donor molecule, donor type, donor heavy atom, donor atom, acceptor molecule, acceptor atom, score
      P1  H  6931  6943       L1    18  0.19
      P1  H  6934  6947       L1    18  0.63

> <Gold.Chemscore.Hbond.Weighted>
-4.0983

> <Gold.Chemscore.Metal.Weighted>
-0.0000

> <Gold.Chemscore.Lipo.Weighted>
-11.4175

> <Gold.Chemscore.Internal_Hbond.Weighted>
0.0000

> <Gold.Chemscore.DEClash.Weighted>
0.0485

> <Gold.Chemscore.DEInternal.Weighted>
0.9402

> <Gold.Chemscore.Rot.Weighted>
4.2474

> <Gold.Chemscore.Internal.Correction.Weighted>
   9.000000E+99

> <Gold.Protein.RotatedTorsions>
[ 6907 6896 6895 6894 ] final  179.09 input  -60.11 | X-H torsion
[ 7974 7965 7964 7962 ] final   -7.30 input  175.53 | X-H torsion
[ 8008 7997 7996 7995 ] final  -21.23 input   59.86 | X-H torsion
[ 10167 10162 10161 10158 ] final   73.44 input  -65.29 | X-H torsion
[ 10718 10713 10712 10709 ] final -135.64 input   66.30 | X-H torsion
[ 10763 10752 10751 10750 ] final -169.87 input  -60.55 | X-H torsion
[ 11005 11000 10999 10996 ] final   80.50 input  -57.11 | X-H torsion

> <Gold.Protein.ActiveResidues>
 VAL166  LYS551  ARG553  GLY616  TRP617  ASP618  TYR619  PRO620  LYS621  CYS622 
 ASP623  PHE694  ASN695  SER759  ASP760  ASP761  ALA762  ILE779  LEU786  VAL792 
 PHE793  MET794  SER795  GLU796  ALA797  LYS798  CYS799  TRP800  GLU811  SER814 

> <Gold.Protein.RotatedAtoms>
  151.6774  133.3312  159.3210 H   0  0  0  0  0  0  0  0  0  0  0  0  # atno 6907 bound_to 6896
  150.7839  134.6811  159.6453 H   0  0  0  0  0  0  0  0  0  0  0  0  # atno 6908 bound_to 6896
  152.3904  134.6454  160.0162 H   0  0  0  0  0  0  0  0  0  0  0  0  # atno 6909 bound_to 6896
  146.2310  140.2300  142.8340 H   0  0  0  0  0  0  0  0  0  0  0  0  # atno 7974 bound_to 7965
  154.4719  140.2040  155.9974 H   0  0  0  0  0  0  0  0  0  0  0  0  # atno 8008 bound_to 7997
  156.1025  140.3241  155.7931 H   0  0  0  0  0  0  0  0  0  0  0  0  # atno 8009 bound_to 7997
  155.4774  140.0536  157.2962 H   0  0  0  0  0  0  0  0  0  0  0  0  # atno 8010 bound_to 7997
  140.0245  144.5514  150.7555 H   0  0  0  0  0  0  0  0  0  0  0  0  # atno 10167 bound_to 10162
  156.2683  130.7250  151.1209 H   0  0  0  0  0  0  0  0  0  0  0  0  # atno 10718 bound_to 10713
  154.6476  135.2907  155.0027 H   0  0  0  0  0  0  0  0  0  0  0  0  # atno 10763 bound_to 10752
  154.1131  135.6559  153.4893 H   0  0  0  0  0  0  0  0  0  0  0  0  # atno 10764 bound_to 10752
  153.0359  135.5270  154.7370 H   0  0  0  0  0  0  0  0  0  0  0  0  # atno 10765 bound_to 10752
  139.9132  134.7925  156.1917 H   0  0  0  0  0  0  0  0  0  0  0  0  # atno 11005 bound_to 11000
  144.9565  140.8232  143.5539 LP  0  0  0  0  0  0  0  0  0  0  0  0  # atno 17320 bound_to 7965
  145.2266  139.2134  143.5065 LP  0  0  0  0  0  0  0  0  0  0  0  0  # atno 17321 bound_to 7965
  140.7328  143.2710  151.3888 LP  0  0  0  0  0  0  0  0  0  0  0  0  # atno 17342 bound_to 10162
  139.6117  144.1084  152.2305 LP  0  0  0  0  0  0  0  0  0  0  0  0  # atno 17343 bound_to 10162
  157.7275  131.0638  150.5862 LP  0  0  0  0  0  0  0  0  0  0  0  0  # atno 17370 bound_to 10713
  156.5956  130.4341  149.5918 LP  0  0  0  0  0  0  0  0  0  0  0  0  # atno 17371 bound_to 10713
  141.0579  133.6856  156.1896 LP  0  0  0  0  0  0  0  0  0  0  0  0  # atno 17394 bound_to 11000
  140.6707  134.4871  157.5587 LP  0  0  0  0  0  0  0  0  0  0  0  0  # atno 17395 bound_to 11000

$$$$
