AV-unprocessed.smi:1607|AV-procd|sdf|6463|dock8
  -GOLD-   22720 7123D 1   1.00000     0.00000
 Structure written by MMmdl.
 39 40  0  0  0  0  0  0  0  0  2 V2000
  153.2826  142.5529  161.9627 C   0  0  0  0  0  0  0  0  0  0  0  0
  152.8863  143.1906  160.6234 C   0  0  2  0  0  0  0  0  0  0  0  0
  152.0930  144.4913  160.8341 C   0  0  0  0  0  0  0  0  0  0  0  0
  151.6860  145.0899  159.4823 C   0  0  0  0  0  0  0  0  0  0  0  0
  150.9105  144.0652  158.6402 C   0  0  0  0  0  0  0  0  0  0  0  0
  151.7023  142.8232  158.4458 N   0  3  2  0  0  0  0  0  0  0  0  0
  151.0318  141.8718  157.5243 C   0  0  0  0  0  0  0  0  0  0  0  0
  152.0128  140.8502  156.9167 C   0  0  0  0  0  0  0  0  0  0  0  0
  151.3180  139.8594  156.1033 N   0  0  0  0  0  0  0  0  0  0  0  0
  151.9185  138.9020  155.3791 C   0  0  0  0  0  0  0  0  0  0  0  0
  153.1397  138.7574  155.3284 O   0  0  0  0  0  0  0  0  0  0  0  0
  151.0040  137.9622  154.5938 C   0  0  0  0  0  0  0  0  0  0  0  0
  151.0450  136.6201  155.1418 N   0  0  0  0  0  0  0  0  0  0  0  0
  150.2229  135.5810  154.9803 C   0  0  0  0  0  0  0  0  0  0  0  0
  150.6253  134.5276  155.6743 N   0  0  0  0  0  0  0  0  0  0  0  0
  151.7767  134.9810  156.2963 N   0  0  0  0  0  0  0  0  0  0  0  0
  152.0302  136.2226  155.9849 N   0  0  0  0  0  0  0  0  0  0  0  0
  152.0817  142.2088  159.7470 C   0  0  0  0  0  0  0  0  0  0  0  0
  152.4039  142.2734  162.5447 H   0  0  0  0  0  0  0  0  0  0  0  0
  153.8756  143.2413  162.5656 H   0  0  0  0  0  0  0  0  0  0  0  0
  153.8797  141.6536  161.8091 H   0  0  0  0  0  0  0  0  0  0  0  0
  153.8072  143.4392  160.0931 H   0  0  0  0  0  0  0  0  0  0  0  0
  151.2011  144.2928  161.4302 H   0  0  0  0  0  0  0  0  0  0  0  0
  152.6887  145.2126  161.3949 H   0  0  0  0  0  0  0  0  0  0  0  0
  151.0780  145.9815  159.6375 H   0  0  0  0  0  0  0  0  0  0  0  0
  152.5758  145.4125  158.9399 H   0  0  0  0  0  0  0  0  0  0  0  0
  149.9610  143.8228  159.1205 H   0  0  0  0  0  0  0  0  0  0  0  0
  150.6733  144.5086  157.6722 H   0  0  0  0  0  0  0  0  0  0  0  0
  150.2143  141.3734  158.0480 H   0  0  0  0  0  0  0  0  0  0  0  0
  150.5751  142.4259  156.7030 H   0  0  0  0  0  0  0  0  0  0  0  0
  152.7350  141.3630  156.2807 H   0  0  0  0  0  0  0  0  0  0  0  0
  152.5884  140.3369  157.6875 H   0  0  0  0  0  0  0  0  0  0  0  0
  150.3092  139.9106  156.0799 H   0  0  0  0  0  0  0  0  0  0  0  0
  149.9767  138.3264  154.6340 H   0  0  0  0  0  0  0  0  0  0  0  0
  151.2944  137.9350  153.5423 H   0  0  0  0  0  0  0  0  0  0  0  0
  149.3377  135.5974  154.3617 H   0  0  0  0  0  0  0  0  0  0  0  0
  152.6809  141.3151  159.5773 H   0  0  0  0  0  0  0  0  0  0  0  0
  151.1808  141.8863  160.2718 H   0  0  0  0  0  0  0  0  0  0  0  0
  152.5589  143.1059  157.9916 H   0  0  0  0  0  0  0  0  0  0  0  0
  1  2  1  0  0  0  0
  1 19  1  0  0  0  0
  1 20  1  0  0  0  0
  1 21  1  0  0  0  0
  2 18  1  0  0  0  0
  2  3  1  0  0  0  0
  2 22  1  0  0  0  0
  3  4  1  0  0  0  0
  3 23  1  0  0  0  0
  3 24  1  0  0  0  0
  4  5  1  0  0  0  0
  4 25  1  0  0  0  0
  4 26  1  0  0  0  0
  5  6  1  0  0  0  0
  5 27  1  0  0  0  0
  5 28  1  0  0  0  0
  6  7  1  0  0  0  0
  6 18  1  0  0  0  0
  6 39  1  0  0  0  0
  7  8  1  0  0  0  0
  7 29  1  0  0  0  0
  7 30  1  0  0  0  0
  8  9  1  0  0  0  0
  8 31  1  0  0  0  0
  8 32  1  0  0  0  0
  9 10  1  0  0  0  0
  9 33  1  0  0  0  0
 10 11  2  0  0  0  0
 10 12  1  0  0  0  0
 12 13  1  0  0  0  0
 12 34  1  0  0  0  0
 12 35  1  0  0  0  0
 13 17  1  0  0  0  0
 13 14  1  0  0  0  0
 14 15  2  0  0  0  0
 14 36  1  0  0  0  0
 15 16  1  0  0  0  0
 16 17  2  0  0  0  0
 18 37  1  0  0  0  0
 18 38  1  0  0  0  0
M  CHG  1   6   1
M  END
> <s_m_source_file>
AV-unprocessed.smi

> <i_m_source_file_index>
1607

> <i_lp_mmshare_version>
43012

> <i_f3d_flags>
0

> <s_epik_input>
W0NIM11bQ0BASF0xW0NIMl1bQ0gyXVtDSDJdTihbQ0gyXTEpW0NIMl1bQ0gyXVtOSF1DKD1PKVtDSDJdbjJbY0hdbm5uMg==

> <s_epik_cmdline>
J2VwaWtfcHl0aG9uJywgJy1waCcsICc3LjAnLCAnLXRuJywgJzgnLCAnLW1hJywgJzIwMCcsICctbWV0YWxfYmluZGluZycsICctaW1hZScsICc8aW5maWxlLm1hZT4nLCAnLW9tYWUnLCAnPG91dGZpbGUubWFlPic=

> <r_lp_tautomer_probability>
1

> <r_epik_Ionization_Penalty>
0.00268321

> <r_epik_Ionization_Penalty_Charging>
0.00267875

> <r_epik_Ionization_Penalty_Neutral>
4.46125e-06

> <r_epik_State_Penalty>
0.00186642

> <r_epik_Charging_Adjusted_Penalty>
0.00454517

> <i_epik_Tot_Q>
1

> <i_epik_Tot_abs_Q>
1

> <r_epik_Metal_State_Penalty>
-0

> <b_epik_Metal_Only>
0

> <s_lp_Force_Field>
OPLS_2005

> <r_lp_Energy>
18.3574

> <b_lp_Chiralities_Consistent>
1

> <s_lp_Variant>
AV-unprocessed.smi:1607-1

> <Gold.Version>
5.8.1

> <Gold.Id.Protein>
6NUR|6NUR_protein|mol2

> <Gold.PLP.Fitness>
44.0478

> <Gold.PLP.PLP>
-37.8889

> <Gold.PLP.part.hbond>
-3.0000

> <Gold.PLP.part.metal>
0.0000

> <Gold.PLP.part.buried>
-6.9860

> <Gold.PLP.part.nonpolar>
-29.3664

> <Gold.PLP.part.repulsive>
0.2387

> <Gold.PLP.ligand.clash>
0.0000

> <Gold.PLP.ligand.torsion>
0.4417

> <Gold.PLP.Chemscore.Hbond>
1.3400

> <Gold.PLP.Chemscore.CHOScore>
1.0000

> <Gold.PLP.Chemscore.Metal>
0.0000

> <Gold.Chemscore.Hbonds>
donor molecule, donor type, donor heavy atom, donor atom, acceptor molecule, acceptor atom, score
      P1  H  7997  8009       L1    11  1.00
      P1  H 10752 10765       L1    17  0.14
      L1  C    14    36       P1  7948  0.88

> <Gold.PLP.Chemscore.Internal.Correction>
0.0223

> <Gold.Rescore>
     Score         DG    S(hbond)    S(metal)    S(lipo)     H(rot)  DE(clash)    DE(int)     intcor
     10.49     -12.28       0.94        0.00      90.22       2.69       0.36       1.44       ----

> <Gold.Chemscore.Fitness>
10.4869

> <Gold.Chemscore.DG>
-12.2800

> <Gold.Chemscore.ZeroCoef>
-5.4800

> <Gold.Chemscore.Hbond>
0.9396

> <Gold.Chemscore.Metal>
0.0000

> <Gold.Chemscore.Lipo>
90.2232

> <Gold.Chemscore.Internal_Hbond>
0.0000

> <Gold.Chemscore.DEClash>
0.3559

> <Gold.Chemscore.DEInternal>
1.4371

> <Gold.Chemscore.Rot>
2.6932

> <Gold.Chemscore.Internal.Correction>
   9.000000E+99

> <Gold.Chemscore.Hbonds>
donor molecule, donor type, donor heavy atom, donor atom, acceptor molecule, acceptor atom, score
      P1  H  7997  8009       L1    11  0.90

> <Gold.Chemscore.Hbond.Weighted>
-3.1383

> <Gold.Chemscore.Metal.Weighted>
-0.0000

> <Gold.Chemscore.Lipo.Weighted>
-10.5561

> <Gold.Chemscore.Internal_Hbond.Weighted>
0.0000

> <Gold.Chemscore.DEClash.Weighted>
0.3559

> <Gold.Chemscore.DEInternal.Weighted>
1.4371

> <Gold.Chemscore.Rot.Weighted>
6.8945

> <Gold.Chemscore.Internal.Correction.Weighted>
   9.000000E+99

> <Gold.Protein.RotatedTorsions>
[ 6907 6896 6895 6894 ] final  -29.35 input  -60.11 | X-H torsion
[ 7974 7965 7964 7962 ] final  -74.00 input  175.53 | X-H torsion
[ 8008 7997 7996 7995 ] final -151.82 input   59.86 | X-H torsion
[ 10167 10162 10161 10158 ] final   -9.35 input  -65.29 | X-H torsion
[ 10718 10713 10712 10709 ] final  -96.48 input   66.30 | X-H torsion
[ 10763 10752 10751 10750 ] final -164.56 input  -60.55 | X-H torsion
[ 11005 11000 10999 10996 ] final   64.25 input  -57.11 | X-H torsion

> <Gold.Protein.ActiveResidues>
 VAL166  LYS551  ARG553  GLY616  TRP617  ASP618  TYR619  PRO620  LYS621  CYS622 
 ASP623  PHE694  ASN695  SER759  ASP760  ASP761  ALA762  ILE779  LEU786  VAL792 
 PHE793  MET794  SER795  GLU796  ALA797  LYS798  CYS799  TRP800  GLU811  SER814 

> <Gold.Protein.RotatedAtoms>
  151.1205  135.0076  159.8535 H   0  0  0  0  0  0  0  0  0  0  0  0  # atno 6907 bound_to 6896
  152.5447  134.1729  159.8614 H   0  0  0  0  0  0  0  0  0  0  0  0  # atno 6908 bound_to 6896
  151.1786  133.4694  159.2627 H   0  0  0  0  0  0  0  0  0  0  0  0  # atno 6909 bound_to 6896
  145.6448  140.9300  143.1016 H   0  0  0  0  0  0  0  0  0  0  0  0  # atno 7974 bound_to 7965
  155.6453  140.0706  157.2605 H   0  0  0  0  0  0  0  0  0  0  0  0  # atno 8008 bound_to 7997
  154.4174  140.1743  156.1667 H   0  0  0  0  0  0  0  0  0  0  0  0  # atno 8009 bound_to 7997
  155.9821  140.3353  155.6676 H   0  0  0  0  0  0  0  0  0  0  0  0  # atno 8010 bound_to 7997
  140.7085  143.5868  150.8935 H   0  0  0  0  0  0  0  0  0  0  0  0  # atno 10167 bound_to 10162
  156.0063  130.5153  150.6231 H   0  0  0  0  0  0  0  0  0  0  0  0  # atno 10718 bound_to 10713
  154.7016  135.2989  154.9332 H   0  0  0  0  0  0  0  0  0  0  0  0  # atno 10763 bound_to 10752
  154.0262  135.6676  153.4780 H   0  0  0  0  0  0  0  0  0  0  0  0  # atno 10764 bound_to 10752
  153.0686  135.5074  154.8164 H   0  0  0  0  0  0  0  0  0  0  0  0  # atno 10765 bound_to 10752
  139.9971  134.6500  155.9992 H   0  0  0  0  0  0  0  0  0  0  0  0  # atno 11005 bound_to 11000
  144.7144  139.8251  143.7404 LP  0  0  0  0  0  0  0  0  0  0  0  0  # atno 17320 bound_to 7965
  146.1251  139.4276  143.0203 LP  0  0  0  0  0  0  0  0  0  0  0  0  # atno 17321 bound_to 7965
  139.9594  143.6181  152.3007 LP  0  0  0  0  0  0  0  0  0  0  0  0  # atno 17342 bound_to 10162
  139.6728  144.7660  151.1751 LP  0  0  0  0  0  0  0  0  0  0  0  0  # atno 17343 bound_to 10162
  157.4043  131.0814  151.1280 LP  0  0  0  0  0  0  0  0  0  0  0  0  # atno 17370 bound_to 10713
  157.1931  130.6361  149.5711 LP  0  0  0  0  0  0  0  0  0  0  0  0  # atno 17371 bound_to 10713
  141.1613  133.6539  156.4328 LP  0  0  0  0  0  0  0  0  0  0  0  0  # atno 17394 bound_to 11000
  140.4797  134.6676  157.5166 LP  0  0  0  0  0  0  0  0  0  0  0  0  # atno 17395 bound_to 11000

$$$$
