AV-unprocessed.smi:356|AV-procd|sdf|2410|dock1
  -GOLD-   2262022343D 1   1.00000     0.00000
 Structure written by MMmdl.
 42 44  0  0  0  0  0  0  0  0  2 V2000
  151.8043  137.8587  158.6307 C   0  0  0  0  0  0  0  0  0  0  0  0
  151.8741  139.3530  158.6260 C   0  0  0  0  0  0  0  0  0  0  0  0
  152.5157  140.0362  159.5735 N   0  0  0  0  0  0  0  0  0  0  0  0
  152.3370  141.3472  159.1761 C   0  0  0  0  0  0  0  0  0  0  0  0
  152.7783  142.5538  159.7646 C   0  0  0  0  0  0  0  0  0  0  0  0
  152.4676  143.7939  159.1689 C   0  0  0  0  0  0  0  0  0  0  0  0
  151.7133  143.8456  157.9790 C   0  0  0  0  0  0  0  0  0  0  0  0
  151.2628  142.6553  157.3763 C   0  0  0  0  0  0  0  0  0  0  0  0
  151.5752  141.4198  157.9752 C   0  0  0  0  0  0  0  0  0  0  0  0
  151.2864  140.0959  157.6558 N   0  0  0  0  0  0  0  0  0  0  0  0
  150.5158  139.6285  156.5118 C   0  0  0  0  0  0  0  0  0  0  0  0
  151.3844  138.9299  155.4454 C   0  0  2  0  0  0  0  0  0  0  0  0
  152.3897  139.8407  155.0483 O   0  0  0  0  0  0  0  0  0  0  0  0
  150.5933  138.4872  154.1942 C   0  0  0  0  0  0  0  0  0  0  0  0
  149.8519  137.2176  154.4023 N   0  3  0  0  0  0  0  0  0  0  0  0
  150.7260  136.0607  154.7202 C   0  0  0  0  0  0  0  0  0  0  0  0
  149.8870  134.7817  154.8833 C   0  0  0  0  0  0  0  0  0  0  0  0
  148.9020  134.9793  155.8900 O   0  0  0  0  0  0  0  0  0  0  0  0
  148.0034  136.0295  155.5557 C   0  0  0  0  0  0  0  0  0  0  0  0
  148.7809  137.3491  155.4187 C   0  0  0  0  0  0  0  0  0  0  0  0
  152.3794  137.4525  159.4634 H   0  0  0  0  0  0  0  0  0  0  0  0
  152.2162  137.4563  157.7053 H   0  0  0  0  0  0  0  0  0  0  0  0
  150.7722  137.5264  158.7358 H   0  0  0  0  0  0  0  0  0  0  0  0
  153.3574  142.5253  160.6758 H   0  0  0  0  0  0  0  0  0  0  0  0
  152.8109  144.7100  159.6269 H   0  0  0  0  0  0  0  0  0  0  0  0
  151.4814  144.8001  157.5292 H   0  0  0  0  0  0  0  0  0  0  0  0
  150.6842  142.6936  156.4656 H   0  0  0  0  0  0  0  0  0  0  0  0
  149.7448  138.9467  156.8731 H   0  0  0  0  0  0  0  0  0  0  0  0
  149.9853  140.4760  156.0765 H   0  0  0  0  0  0  0  0  0  0  0  0
  151.8740  138.0728  155.9046 H   0  0  0  0  0  0  0  0  0  0  0  0
  152.5326  140.4576  155.7506 H   0  0  0  0  0  0  0  0  0  0  0  0
  149.8836  139.2547  153.8843 H   0  0  0  0  0  0  0  0  0  0  0  0
  151.2953  138.3698  153.3670 H   0  0  0  0  0  0  0  0  0  0  0  0
  151.4626  135.9074  153.9322 H   0  0  0  0  0  0  0  0  0  0  0  0
  151.2792  136.2611  155.6393 H   0  0  0  0  0  0  0  0  0  0  0  0
  149.4115  134.5044  153.9410 H   0  0  0  0  0  0  0  0  0  0  0  0
  150.5264  133.9481  155.1745 H   0  0  0  0  0  0  0  0  0  0  0  0
  147.4725  135.7915  154.6325 H   0  0  0  0  0  0  0  0  0  0  0  0
  147.2529  136.1157  156.3417 H   0  0  0  0  0  0  0  0  0  0  0  0
  149.2192  137.6268  156.3787 H   0  0  0  0  0  0  0  0  0  0  0  0
  148.0960  138.1490  155.1348 H   0  0  0  0  0  0  0  0  0  0  0  0
  149.3892  137.0121  153.5277 H   0  0  0  0  0  0  0  0  0  0  0  0
  1  2  1  0  0  0  0
  1 21  1  0  0  0  0
  1 22  1  0  0  0  0
  1 23  1  0  0  0  0
  2 10  1  0  0  0  0
  2  3  2  0  0  0  0
  3  4  1  0  0  0  0
  4  9  2  0  0  0  0
  4  5  1  0  0  0  0
  5  6  2  0  0  0  0
  5 24  1  0  0  0  0
  6  7  1  0  0  0  0
  6 25  1  0  0  0  0
  7  8  2  0  0  0  0
  7 26  1  0  0  0  0
  8  9  1  0  0  0  0
  8 27  1  0  0  0  0
  9 10  1  0  0  0  0
 10 11  1  0  0  0  0
 11 12  1  0  0  0  0
 11 28  1  0  0  0  0
 11 29  1  0  0  0  0
 12 13  1  0  0  0  0
 12 14  1  0  0  0  0
 12 30  1  0  0  0  0
 13 31  1  0  0  0  0
 14 15  1  0  0  0  0
 14 32  1  0  0  0  0
 14 33  1  0  0  0  0
 15 20  1  0  0  0  0
 15 16  1  0  0  0  0
 15 42  1  0  0  0  0
 16 17  1  0  0  0  0
 16 34  1  0  0  0  0
 16 35  1  0  0  0  0
 17 18  1  0  0  0  0
 17 36  1  0  0  0  0
 17 37  1  0  0  0  0
 18 19  1  0  0  0  0
 19 20  1  0  0  0  0
 19 38  1  0  0  0  0
 19 39  1  0  0  0  0
 20 40  1  0  0  0  0
 20 41  1  0  0  0  0
M  CHG  1  15   1
M  END
> <s_m_source_file>
AV-unprocessed.smi

> <i_m_source_file_index>
356

> <i_lp_mmshare_version>
43012

> <i_f3d_flags>
0

> <s_epik_input>
W2NIXTFbY0hdW2NIXVtjSF1jKGMxMiluKGMobjIpW0NIM10pW0NIMl1bQ0BIXShbT0hdKVtDSDJdTjNbQ0gyXVtDSDJdT1tDSDJdW0NIMl0z

> <s_epik_cmdline>
J2VwaWtfcHl0aG9uJywgJy1waCcsICc3LjAnLCAnLXRuJywgJzgnLCAnLW1hJywgJzIwMCcsICctbWV0YWxfYmluZGluZycsICctaW1hZScsICc8aW5maWxlLm1hZT4nLCAnLW9tYWUnLCAnPG91dGZpbGUubWFlPic=

> <r_epik_Ionization_Penalty>
0.706388

> <r_epik_Ionization_Penalty_Charging>
0.608065

> <r_epik_Ionization_Penalty_Neutral>
0.0983237

> <r_epik_State_Penalty>
0.742533

> <r_epik_Charging_Adjusted_Penalty>
1.3506

> <i_epik_Tot_Q>
1

> <i_epik_Tot_abs_Q>
1

> <r_epik_Metal_State_Penalty>
0.651809

> <b_epik_Metal_Only>
0

> <s_lp_Force_Field>
OPLS_2005

> <r_lp_Energy>
21.62

> <b_lp_Chiralities_Consistent>
1

> <s_lp_Variant>
AV-unprocessed.smi:356-3

> <Gold.Version>
5.8.1

> <Gold.Id.Protein>
6NUR|6NUR_protein|mol2

> <Gold.PLP.Fitness>
45.7333

> <Gold.PLP.PLP>
-38.2522

> <Gold.PLP.part.hbond>
-2.0511

> <Gold.PLP.part.metal>
0.0000

> <Gold.PLP.part.buried>
-5.5562

> <Gold.PLP.part.nonpolar>
-31.2352

> <Gold.PLP.part.repulsive>
0.0613

> <Gold.PLP.ligand.clash>
0.0000

> <Gold.PLP.ligand.torsion>
0.3094

> <Gold.PLP.Chemscore.Hbond>
2.6720

> <Gold.PLP.Chemscore.CHOScore>
0.0000

> <Gold.PLP.Chemscore.Metal>
0.0000

> <Gold.Chemscore.Hbonds>
donor molecule, donor type, donor heavy atom, donor atom, acceptor molecule, acceptor atom, score
      L1  H    15    42       P1  7948  2.00
      P1  H  7989  7998       L1    13  0.67

> <Gold.PLP.Chemscore.Internal.Correction>
0.0838

> <Gold.Rescore>
     Score         DG    S(hbond)    S(metal)    S(lipo)     H(rot)  DE(clash)    DE(int)     intcor
     17.43     -17.93       1.74        0.00     101.78       2.07       0.00       0.49       ----

> <Gold.Chemscore.Fitness>
17.4340

> <Gold.Chemscore.DG>
-17.9253

> <Gold.Chemscore.ZeroCoef>
-5.4800

> <Gold.Chemscore.Hbond>
1.7441

> <Gold.Chemscore.Metal>
0.0000

> <Gold.Chemscore.Lipo>
101.7765

> <Gold.Chemscore.Internal_Hbond>
0.0000

> <Gold.Chemscore.DEClash>
0.0000

> <Gold.Chemscore.DEInternal>
0.4913

> <Gold.Chemscore.Rot>
2.0656

> <Gold.Chemscore.Internal.Correction>
   9.000000E+99

> <Gold.Chemscore.Hbonds>
donor molecule, donor type, donor heavy atom, donor atom, acceptor molecule, acceptor atom, score
      L1  H    15    42       P1  7948  0.94
      P1  H  7989  7998       L1    13  0.26

> <Gold.Chemscore.Hbond.Weighted>
-5.8253

> <Gold.Chemscore.Metal.Weighted>
-0.0000

> <Gold.Chemscore.Lipo.Weighted>
-11.9079

> <Gold.Chemscore.Internal_Hbond.Weighted>
0.0000

> <Gold.Chemscore.DEClash.Weighted>
0.0000

> <Gold.Chemscore.DEInternal.Weighted>
0.4913

> <Gold.Chemscore.Rot.Weighted>
5.2879

> <Gold.Chemscore.Internal.Correction.Weighted>
   9.000000E+99

> <Gold.Protein.RotatedTorsions>
[ 6907 6896 6895 6894 ] final   -5.20 input  -60.11 | X-H torsion
[ 7974 7965 7964 7962 ] final   61.51 input  175.53 | X-H torsion
[ 8008 7997 7996 7995 ] final -123.97 input   59.86 | X-H torsion
[ 10167 10162 10161 10158 ] final   94.40 input  -65.29 | X-H torsion
[ 10718 10713 10712 10709 ] final    5.70 input   66.30 | X-H torsion
[ 10763 10752 10751 10750 ] final   56.65 input  -60.55 | X-H torsion
[ 11005 11000 10999 10996 ] final  -35.24 input  -57.11 | X-H torsion

> <Gold.Protein.ActiveResidues>
 VAL166  LYS551  ARG553  GLY616  TRP617  ASP618  TYR619  PRO620  LYS621  CYS622 
 ASP623  PHE694  ASN695  SER759  ASP760  ASP761  ALA762  ILE779  LEU786  VAL792 
 PHE793  MET794  SER795  GLU796  ALA797  LYS798  CYS799  TRP800  GLU811  SER814 

> <Gold.Protein.RotatedAtoms>
  151.4854  135.1054  159.9788 H   0  0  0  0  0  0  0  0  0  0  0  0  # atno 6907 bound_to 6896
  152.4762  133.8141  159.7029 H   0  0  0  0  0  0  0  0  0  0  0  0  # atno 6908 bound_to 6896
  150.8802  133.7321  159.2960 H   0  0  0  0  0  0  0  0  0  0  0  0  # atno 6909 bound_to 6896
  145.8839  139.3463  143.0689 H   0  0  0  0  0  0  0  0  0  0  0  0  # atno 7974 bound_to 7965
  155.1893  140.0412  157.2897 H   0  0  0  0  0  0  0  0  0  0  0  0  # atno 8008 bound_to 7997
  154.6150  140.2486  155.7593 H   0  0  0  0  0  0  0  0  0  0  0  0  # atno 8009 bound_to 7997
  156.2401  140.2907  156.0430 H   0  0  0  0  0  0  0  0  0  0  0  0  # atno 8010 bound_to 7997
  139.8087  144.6783  150.9669 H   0  0  0  0  0  0  0  0  0  0  0  0  # atno 10167 bound_to 10162
  156.9113  130.5757  149.5647 H   0  0  0  0  0  0  0  0  0  0  0  0  # atno 10718 bound_to 10713
  152.9836  135.5669  154.5264 H   0  0  0  0  0  0  0  0  0  0  0  0  # atno 10763 bound_to 10752
  154.4743  135.2786  155.1621 H   0  0  0  0  0  0  0  0  0  0  0  0  # atno 10764 bound_to 10752
  154.3156  135.6279  153.5538 H   0  0  0  0  0  0  0  0  0  0  0  0  # atno 10765 bound_to 10752
  140.9780  133.7072  156.1635 H   0  0  0  0  0  0  0  0  0  0  0  0  # atno 11005 bound_to 11000
  145.8990  140.9255  143.0513 LP  0  0  0  0  0  0  0  0  0  0  0  0  # atno 17320 bound_to 7965
  144.6728  140.1007  143.7460 LP  0  0  0  0  0  0  0  0  0  0  0  0  # atno 17321 bound_to 7965
  140.7818  143.4207  151.0845 LP  0  0  0  0  0  0  0  0  0  0  0  0  # atno 17342 bound_to 10162
  139.7875  143.8266  152.3147 LP  0  0  0  0  0  0  0  0  0  0  0  0  # atno 17343 bound_to 10162
  156.0534  130.5600  150.9039 LP  0  0  0  0  0  0  0  0  0  0  0  0  # atno 17370 bound_to 10713
  157.5965  131.0943  150.9032 LP  0  0  0  0  0  0  0  0  0  0  0  0  # atno 17371 bound_to 10713
  140.7229  134.4338  157.5573 LP  0  0  0  0  0  0  0  0  0  0  0  0  # atno 17394 bound_to 11000
  139.8938  134.8721  156.2205 LP  0  0  0  0  0  0  0  0  0  0  0  0  # atno 17395 bound_to 11000

$$$$
