AV-unprocessed.smi:805|AV-procd|sdf|3797|dock4
  -GOLD-   22720 1233D 1   1.00000     0.00000
 Structure written by MMmdl.
 40 41  0  0  0  0  0  0  0  0  1 V2000
  145.3547  131.2570  150.7387 C   0  0  0  0  0  0  0  0  0  0  0  0
  144.1546  132.1640  151.0212 C   0  0  0  0  0  0  0  0  0  0  0  0
  144.3582  132.8218  152.2606 O   0  0  0  0  0  0  0  0  0  0  0  0
  144.1109  134.2175  152.1930 C   0  0  1  0  0  0  0  0  0  0  0  0
  144.7590  135.0363  153.3142 C   0  0  0  0  0  0  0  0  0  0  0  0
  145.0357  136.0866  152.2374 C   0  0  1  0  0  0  0  0  0  0  0  0
  146.3248  136.7473  152.4132 N   0  0  0  0  0  0  0  0  0  0  0  0
  146.5032  137.8866  153.0950 C   0  0  0  0  0  0  0  0  0  0  0  0
  145.5890  138.4891  153.6572 O   0  0  0  0  0  0  0  0  0  0  0  0
  147.7949  138.2585  153.0880 N   0  0  0  0  0  0  0  0  0  0  0  0
  148.3925  139.3978  153.6920 C   0  0  0  0  0  0  0  0  0  0  0  0
  147.6158  140.5698  153.8014 C   0  0  0  0  0  0  0  0  0  0  0  0
  148.1747  141.7102  154.4087 C   0  0  0  0  0  0  0  0  0  0  0  0
  149.4940  141.6310  154.8944 C   0  0  0  0  0  0  0  0  0  0  0  0
  150.2464  140.5137  154.8125 N   0  0  0  0  0  0  0  0  0  0  0  0
  149.7047  139.4237  154.2271 C   0  0  0  0  0  0  0  0  0  0  0  0
  145.0242  134.9506  151.1792 C   0  0  0  0  0  0  0  0  0  0  0  0
  146.3673  134.2686  150.8643 C   0  0  0  0  0  0  0  0  0  0  0  0
  144.3771  135.2980  149.8388 C   0  0  0  0  0  0  0  0  0  0  0  0
  145.2312  130.7297  149.7925 H   0  0  0  0  0  0  0  0  0  0  0  0
  145.4741  130.5108  151.5244 H   0  0  0  0  0  0  0  0  0  0  0  0
  146.2770  131.8352  150.6821 H   0  0  0  0  0  0  0  0  0  0  0  0
  144.0457  132.8973  150.2207 H   0  0  0  0  0  0  0  0  0  0  0  0
  143.2402  131.5702  151.0519 H   0  0  0  0  0  0  0  0  0  0  0  0
  143.0551  134.4604  152.0500 H   0  0  0  0  0  0  0  0  0  0  0  0
  144.0732  135.3570  154.0986 H   0  0  0  0  0  0  0  0  0  0  0  0
  145.6569  134.5710  153.7252 H   0  0  0  0  0  0  0  0  0  0  0  0
  144.1951  136.7760  152.1264 H   0  0  0  0  0  0  0  0  0  0  0  0
  147.1276  136.3103  151.9844 H   0  0  0  0  0  0  0  0  0  0  0  0
  148.4368  137.6189  152.6433 H   0  0  0  0  0  0  0  0  0  0  0  0
  146.6049  140.5993  153.4214 H   0  0  0  0  0  0  0  0  0  0  0  0
  147.6059  142.6237  154.5007 H   0  0  0  0  0  0  0  0  0  0  0  0
  149.9548  142.4865  155.3658 H   0  0  0  0  0  0  0  0  0  0  0  0
  150.3461  138.5567  154.2152 H   0  0  0  0  0  0  0  0  0  0  0  0
  147.0239  134.9210  150.2877 H   0  0  0  0  0  0  0  0  0  0  0  0
  146.2242  133.3576  150.2825 H   0  0  0  0  0  0  0  0  0  0  0  0
  146.9070  133.9867  151.7685 H   0  0  0  0  0  0  0  0  0  0  0  0
  145.0108  135.9604  149.2484 H   0  0  0  0  0  0  0  0  0  0  0  0
  143.4219  135.8058  149.9756 H   0  0  0  0  0  0  0  0  0  0  0  0
  144.1853  134.4047  149.2437 H   0  0  0  0  0  0  0  0  0  0  0  0
  1  2  1  0  0  0  0
  1 20  1  0  0  0  0
  1 21  1  0  0  0  0
  1 22  1  0  0  0  0
  2  3  1  0  0  0  0
  2 23  1  0  0  0  0
  2 24  1  0  0  0  0
  3  4  1  0  0  0  0
  4 17  1  0  0  0  0
  4  5  1  0  0  0  0
  4 25  1  0  0  0  0
  5  6  1  0  0  0  0
  5 26  1  0  0  0  0
  5 27  1  0  0  0  0
  6  7  1  0  0  0  0
  6 17  1  0  0  0  0
  6 28  1  0  0  0  0
  7  8  1  0  0  0  0
  7 29  1  0  0  0  0
  8  9  2  0  0  0  0
  8 10  1  0  0  0  0
 10 11  1  0  0  0  0
 10 30  1  0  0  0  0
 11 16  1  0  0  0  0
 11 12  2  0  0  0  0
 12 13  1  0  0  0  0
 12 31  1  0  0  0  0
 13 14  2  0  0  0  0
 13 32  1  0  0  0  0
 14 15  1  0  0  0  0
 14 33  1  0  0  0  0
 15 16  2  0  0  0  0
 16 34  1  0  0  0  0
 17 18  1  0  0  0  0
 17 19  1  0  0  0  0
 18 35  1  0  0  0  0
 18 36  1  0  0  0  0
 18 37  1  0  0  0  0
 19 38  1  0  0  0  0
 19 39  1  0  0  0  0
 19 40  1  0  0  0  0
M  END
> <s_m_source_file>
AV-unprocessed.smi

> <i_m_source_file_index>
805

> <i_lp_mmshare_version>
43012

> <i_f3d_flags>
0

> <s_epik_input>
W0NIM11bQ0gyXU9bQ0BASF0oQzEoW0NIM10pW0NIM10pW0NIMl1bQ0BIXTFbTkhdQyg9TylbTkhdYzJbY0hdW2NIXVtjSF1uW2NIXTI=

> <s_epik_cmdline>
J2VwaWtfcHl0aG9uJywgJy1waCcsICc3LjAnLCAnLXRuJywgJzgnLCAnLW1hJywgJzIwMCcsICctbWV0YWxfYmluZGluZycsICctaW1hZScsICc8aW5maWxlLm1hZT4nLCAnLW9tYWUnLCAnPG91dGZpbGUubWFlPic=

> <r_epik_Ionization_Penalty>
0.00485231

> <r_epik_Ionization_Penalty_Charging>
0

> <r_epik_Ionization_Penalty_Neutral>
0.00485231

> <r_epik_State_Penalty>
0.00349213

> <r_epik_Charging_Adjusted_Penalty>
0.00349213

> <i_epik_Tot_Q>
0

> <i_epik_Tot_abs_Q>
0

> <r_epik_Metal_State_Penalty>
-0

> <b_epik_Metal_Only>
0

> <s_lp_Force_Field>
OPLS_2005

> <r_lp_Energy>
21.475

> <b_lp_Chiralities_Consistent>
1

> <s_lp_Variant>
AV-unprocessed.smi:805-2

> <Gold.Version>
5.8.1

> <Gold.Id.Protein>
6NUR|6NUR_protein|mol2

> <Gold.PLP.Fitness>
39.4619

> <Gold.PLP.PLP>
-29.5611

> <Gold.PLP.part.hbond>
-3.4698

> <Gold.PLP.part.metal>
0.0000

> <Gold.PLP.part.buried>
0.4310

> <Gold.PLP.part.nonpolar>
-28.0604

> <Gold.PLP.part.repulsive>
1.4734

> <Gold.PLP.ligand.clash>
0.0000

> <Gold.PLP.ligand.torsion>
0.8953

> <Gold.PLP.Chemscore.Hbond>
2.9032

> <Gold.PLP.Chemscore.CHOScore>
0.8932

> <Gold.PLP.Chemscore.Metal>
0.0000

> <Gold.Chemscore.Hbonds>
donor molecule, donor type, donor heavy atom, donor atom, acceptor molecule, acceptor atom, score
      L1  H     7    29       P1  7948  0.98
      L1  H    10    30       P1  7948  1.00
      P1  H  7989  7998       L1    15  0.86
      L1  C    14    33       P1  8028  0.90

> <Gold.PLP.Chemscore.Internal.Correction>
0.3021

> <Gold.Rescore>
     Score         DG    S(hbond)    S(metal)    S(lipo)     H(rot)  DE(clash)    DE(int)     intcor
     15.07     -18.60       2.04        0.00      83.54       1.36       1.46       2.06       ----

> <Gold.Chemscore.Fitness>
15.0749

> <Gold.Chemscore.DG>
-18.5965

> <Gold.Chemscore.ZeroCoef>
-5.4800

> <Gold.Chemscore.Hbond>
2.0394

> <Gold.Chemscore.Metal>
0.0000

> <Gold.Chemscore.Lipo>
83.5372

> <Gold.Chemscore.Internal_Hbond>
0.0000

> <Gold.Chemscore.DEClash>
1.4581

> <Gold.Chemscore.DEInternal>
2.0635

> <Gold.Chemscore.Rot>
1.3551

> <Gold.Chemscore.Internal.Correction>
   9.000000E+99

> <Gold.Chemscore.Hbonds>
donor molecule, donor type, donor heavy atom, donor atom, acceptor molecule, acceptor atom, score
      L1  H     7    29       P1  7948  0.92
      L1  H    10    30       P1  7948  0.99
      P1  H  7989  7998       L1    15  0.09

> <Gold.Chemscore.Hbond.Weighted>
-6.8117

> <Gold.Chemscore.Metal.Weighted>
-0.0000

> <Gold.Chemscore.Lipo.Weighted>
-9.7738

> <Gold.Chemscore.Internal_Hbond.Weighted>
0.0000

> <Gold.Chemscore.DEClash.Weighted>
1.4581

> <Gold.Chemscore.DEInternal.Weighted>
2.0635

> <Gold.Chemscore.Rot.Weighted>
3.4691

> <Gold.Chemscore.Internal.Correction.Weighted>
   9.000000E+99

> <Gold.Protein.RotatedTorsions>
[ 6907 6896 6895 6894 ] final  132.24 input  -60.11 | X-H torsion
[ 7974 7965 7964 7962 ] final   -3.04 input  175.53 | X-H torsion
[ 8008 7997 7996 7995 ] final -142.97 input   59.86 | X-H torsion
[ 10167 10162 10161 10158 ] final   34.04 input  -65.29 | X-H torsion
[ 10718 10713 10712 10709 ] final   -1.40 input   66.30 | X-H torsion
[ 10763 10752 10751 10750 ] final  -13.39 input  -60.55 | X-H torsion
[ 11005 11000 10999 10996 ] final  -15.36 input  -57.11 | X-H torsion

> <Gold.Protein.ActiveResidues>
 VAL166  LYS551  ARG553  GLY616  TRP617  ASP618  TYR619  PRO620  LYS621  CYS622 
 ASP623  PHE694  ASN695  SER759  ASP760  ASP761  ALA762  ILE779  LEU786  VAL792 
 PHE793  MET794  SER795  GLU796  ALA797  LYS798  CYS799  TRP800  GLU811  SER814 

> <Gold.Protein.RotatedAtoms>
  152.3344  133.5995  159.5831 H   0  0  0  0  0  0  0  0  0  0  0  0  # atno 6907 bound_to 6896
  150.7442  133.9818  159.3587 H   0  0  0  0  0  0  0  0  0  0  0  0  # atno 6908 bound_to 6896
  151.7690  135.0792  160.0408 H   0  0  0  0  0  0  0  0  0  0  0  0  # atno 6909 bound_to 6896
  146.2396  140.1661  142.8332 H   0  0  0  0  0  0  0  0  0  0  0  0  # atno 7974 bound_to 7965
  155.5029  140.0577  157.2936 H   0  0  0  0  0  0  0  0  0  0  0  0  # atno 8008 bound_to 7997
  154.4580  140.1982  156.0273 H   0  0  0  0  0  0  0  0  0  0  0  0  # atno 8009 bound_to 7997
  156.0836  140.3243  155.7730 H   0  0  0  0  0  0  0  0  0  0  0  0  # atno 8010 bound_to 7997
  140.4351  144.1268  150.6165 H   0  0  0  0  0  0  0  0  0  0  0  0  # atno 10167 bound_to 10162
  156.8062  130.5409  149.5715 H   0  0  0  0  0  0  0  0  0  0  0  0  # atno 10718 bound_to 10713
  153.5125  135.7016  153.5773 H   0  0  0  0  0  0  0  0  0  0  0  0  # atno 10763 bound_to 10752
  153.3857  135.3909  155.1888 H   0  0  0  0  0  0  0  0  0  0  0  0  # atno 10764 bound_to 10752
  154.8702  135.3846  154.4607 H   0  0  0  0  0  0  0  0  0  0  0  0  # atno 10765 bound_to 10752
  140.7958  133.8252  155.9422 H   0  0  0  0  0  0  0  0  0  0  0  0  # atno 11005 bound_to 11000
  145.0050  140.8665  143.5259 LP  0  0  0  0  0  0  0  0  0  0  0  0  # atno 17320 bound_to 7965
  145.1686  139.2417  143.5354 LP  0  0  0  0  0  0  0  0  0  0  0  0  # atno 17321 bound_to 7965
  140.4382  143.2538  151.9507 LP  0  0  0  0  0  0  0  0  0  0  0  0  # atno 17342 bound_to 10162
  139.4786  144.5679  151.8135 LP  0  0  0  0  0  0  0  0  0  0  0  0  # atno 17343 bound_to 10162
  156.1072  130.6013  150.9989 LP  0  0  0  0  0  0  0  0  0  0  0  0  # atno 17370 bound_to 10713
  157.6529  131.0894  150.8011 LP  0  0  0  0  0  0  0  0  0  0  0  0  # atno 17371 bound_to 10713
  140.9344  134.1980  157.4841 LP  0  0  0  0  0  0  0  0  0  0  0  0  # atno 17394 bound_to 11000
  139.8726  134.9846  156.5247 LP  0  0  0  0  0  0  0  0  0  0  0  0  # atno 17395 bound_to 11000

$$$$
