AV-unprocessed.smi:47|AV-procd|sdf|427|dock1
  -GOLD-   2262016303D 1   1.00000     0.00000
 Structure written by MMmdl.
 31 33  0  0  0  0  0  0  0  0  3 V2000
  144.9961  140.6352  154.6333 O   0  0  0  0  0  0  0  0  0  0  0  0
  146.4006  140.4901  154.6314 C   0  0  1  0  0  0  0  0  0  0  0  0
  146.8963  139.6653  153.4453 C   0  0  0  0  0  0  0  0  0  0  0  0
  148.2919  140.0902  153.2342 N   0  3  0  0  0  0  0  0  0  0  0  0
  148.4807  141.4211  153.8504 C   0  0  2  0  0  0  0  0  0  0  0  0
  149.5602  141.3550  154.9126 C   0  0  0  0  0  0  0  0  0  0  0  0
  150.4574  140.3564  155.0179 N   0  0  0  0  0  0  0  0  0  0  0  0
  151.2408  140.6745  156.0306 N   0  5  0  0  0  0  0  0  0  0  0  0
  150.8243  141.8532  156.5177 C   0  0  0  0  0  0  0  0  0  0  0  0
  151.4856  142.5142  157.6615 C   0  0  0  0  0  0  0  0  0  0  0  0
  151.9723  141.7489  158.7470 C   0  0  0  0  0  0  0  0  0  0  0  0
  152.6038  142.3646  159.8450 C   0  0  0  0  0  0  0  0  0  0  0  0
  152.7600  143.7622  159.8743 C   0  0  0  0  0  0  0  0  0  0  0  0
  152.2829  144.5394  158.8034 C   0  0  0  0  0  0  0  0  0  0  0  0
  151.6514  143.9190  157.7078 C   0  0  0  0  0  0  0  0  0  0  0  0
  149.7800  142.3045  155.8373 N   0  0  0  0  0  0  0  0  0  0  0  0
  147.1173  141.8226  154.4327 C   0  0  0  0  0  0  0  0  0  0  0  0
  146.7240  140.0302  155.5665 H   0  0  0  0  0  0  0  0  0  0  0  0
  148.7913  142.1337  153.0853 H   0  0  0  0  0  0  0  0  0  0  0  0
  144.6689  140.4129  153.7745 H   0  0  0  0  0  0  0  0  0  0  0  0
  146.8216  138.5908  153.6147 H   0  0  0  0  0  0  0  0  0  0  0  0
  146.3285  139.9086  152.5459 H   0  0  0  0  0  0  0  0  0  0  0  0
  148.9053  139.4495  153.7191 H   0  0  0  0  0  0  0  0  0  0  0  0
  151.8626  140.6744  158.7435 H   0  0  0  0  0  0  0  0  0  0  0  0
  152.9681  141.7633  160.6650 H   0  0  0  0  0  0  0  0  0  0  0  0
  153.2440  144.2367  160.7152 H   0  0  0  0  0  0  0  0  0  0  0  0
  152.4005  145.6129  158.8210 H   0  0  0  0  0  0  0  0  0  0  0  0
  151.2922  144.5368  156.8979 H   0  0  0  0  0  0  0  0  0  0  0  0
  146.5779  142.4153  153.6918 H   0  0  0  0  0  0  0  0  0  0  0  0
  147.1881  142.4208  155.3423 H   0  0  0  0  0  0  0  0  0  0  0  0
  148.5220  140.1062  152.2515 H   0  0  0  0  0  0  0  0  0  0  0  0
  1  2  1  0  0  0  0
  1 20  1  0  0  0  0
  2 18  1  0  0  0  0
  2 17  1  0  0  0  0
  2  3  1  0  0  0  0
  3  4  1  0  0  0  0
  3 21  1  0  0  0  0
  3 22  1  0  0  0  0
  4  5  1  0  0  0  0
  4 23  1  0  0  0  0
  4 31  1  0  0  0  0
  5 19  1  0  0  0  0
  5  6  1  0  0  0  0
  5 17  1  0  0  0  0
  6 16  1  0  0  0  0
  6  7  2  0  0  0  0
  7  8  1  0  0  0  0
  8  9  1  0  0  0  0
  9 10  1  0  0  0  0
  9 16  2  0  0  0  0
 10 15  1  0  0  0  0
 10 11  2  0  0  0  0
 11 12  1  0  0  0  0
 11 24  1  0  0  0  0
 12 13  2  0  0  0  0
 12 25  1  0  0  0  0
 13 14  1  0  0  0  0
 13 26  1  0  0  0  0
 14 15  2  0  0  0  0
 14 27  1  0  0  0  0
 15 28  1  0  0  0  0
 17 29  1  0  0  0  0
 17 30  1  0  0  0  0
M  CHG  1   4   1
M  CHG  1   8  -1
M  END
> <s_m_source_file>
AV-unprocessed.smi

> <i_m_source_file_index>
47

> <i_lp_mmshare_version>
43012

> <i_f3d_flags>
0

> <s_epik_input>
W09IXVtDQEhdMVtDSDJdW05IXVtDQEBIXShbQ0gyXTEpYzJuW25IXWMobjIpLWMzW2NIXVtjSF1bY0hdW2NIXVtjSF0z

> <s_epik_cmdline>
J2VwaWtfcHl0aG9uJywgJy1waCcsICc3LjAnLCAnLXRuJywgJzgnLCAnLW1hJywgJzIwMCcsICctbWV0YWxfYmluZGluZycsICctaW1hZScsICc8aW5maWxlLm1hZT4nLCAnLW9tYWUnLCAnPG91dGZpbGUubWFlPic=

> <r_lp_tautomer_probability>
1

> <r_epik_Ionization_Penalty>
1.09593

> <r_epik_Ionization_Penalty_Charging>
1.09593

> <r_epik_Ionization_Penalty_Neutral>
3.91329e-08

> <r_epik_State_Penalty>
0.690005

> <r_epik_Charging_Adjusted_Penalty>
1.78594

> <i_epik_Tot_Q>
0

> <i_epik_Tot_abs_Q>
2

> <r_epik_Metal_State_Penalty>
0.213596

> <b_epik_Metal_Only>
0

> <s_lp_Force_Field>
OPLS_2005

> <r_lp_Energy>
20.8089

> <b_lp_Chiralities_Consistent>
1

> <s_lp_Variant>
AV-unprocessed.smi:47-5

> <Gold.Version>
5.8.1

> <Gold.Id.Protein>
6NUR|6NUR_protein|mol2

> <Gold.PLP.Fitness>
43.9848

> <Gold.PLP.PLP>
-36.9121

> <Gold.PLP.part.hbond>
-2.7314

> <Gold.PLP.part.metal>
0.0000

> <Gold.PLP.part.buried>
-5.0078

> <Gold.PLP.part.nonpolar>
-32.8449

> <Gold.PLP.part.repulsive>
3.6778

> <Gold.PLP.ligand.clash>
0.0000

> <Gold.PLP.ligand.torsion>
0.9331

> <Gold.PLP.Chemscore.Hbond>
2.9760

> <Gold.PLP.Chemscore.CHOScore>
0.0000

> <Gold.PLP.Chemscore.Metal>
0.0000

> <Gold.Chemscore.Hbonds>
donor molecule, donor type, donor heavy atom, donor atom, acceptor molecule, acceptor atom, score
      L1  H     1    20       P1 10175  1.00
      L1  H     4    31       P1  7957  0.99
      P1  H  7989  7998       L1     7  0.90

> <Gold.PLP.Chemscore.Internal.Correction>
0.0109

> <Gold.Rescore>
     Score         DG    S(hbond)    S(metal)    S(lipo)     H(rot)  DE(clash)    DE(int)     intcor
     17.04     -19.30       2.01        0.00      93.19       1.48       1.68       0.59       ----

> <Gold.Chemscore.Fitness>
17.0365

> <Gold.Chemscore.DG>
-19.3013

> <Gold.Chemscore.ZeroCoef>
-5.4800

> <Gold.Chemscore.Hbond>
2.0085

> <Gold.Chemscore.Metal>
0.0000

> <Gold.Chemscore.Lipo>
93.1876

> <Gold.Chemscore.Internal_Hbond>
0.0000

> <Gold.Chemscore.DEClash>
1.6781

> <Gold.Chemscore.DEInternal>
0.5867

> <Gold.Chemscore.Rot>
1.4804

> <Gold.Chemscore.Internal.Correction>
   9.000000E+99

> <Gold.Chemscore.Hbonds>
donor molecule, donor type, donor heavy atom, donor atom, acceptor molecule, acceptor atom, score
      L1  H     1    20       P1 10175  0.98
      L1  H     4    31       P1  7957  0.87
      P1  H  7989  7998       L1     7  0.04

> <Gold.Chemscore.Hbond.Weighted>
-6.7083

> <Gold.Chemscore.Metal.Weighted>
-0.0000

> <Gold.Chemscore.Lipo.Weighted>
-10.9030

> <Gold.Chemscore.Internal_Hbond.Weighted>
0.0000

> <Gold.Chemscore.DEClash.Weighted>
1.6781

> <Gold.Chemscore.DEInternal.Weighted>
0.5867

> <Gold.Chemscore.Rot.Weighted>
3.7899

> <Gold.Chemscore.Internal.Correction.Weighted>
   9.000000E+99

> <Gold.Protein.RotatedTorsions>
[ 6907 6896 6895 6894 ] final  141.32 input  -60.11 | X-H torsion
[ 7974 7965 7964 7962 ] final  155.13 input  175.53 | X-H torsion
[ 8008 7997 7996 7995 ] final   22.07 input   59.86 | X-H torsion
[ 10167 10162 10161 10158 ] final    1.40 input  -65.29 | X-H torsion
[ 10718 10713 10712 10709 ] final -168.68 input   66.30 | X-H torsion
[ 10763 10752 10751 10750 ] final   32.71 input  -60.55 | X-H torsion
[ 11005 11000 10999 10996 ] final   16.81 input  -57.11 | X-H torsion

> <Gold.Protein.ActiveResidues>
 VAL166  LYS551  ARG553  GLY616  TRP617  ASP618  TYR619  PRO620  LYS621  CYS622 
 ASP623  PHE694  ASN695  SER759  ASP760  ASP761  ALA762  ILE779  LEU786  VAL792 
 PHE793  MET794  SER795  GLU796  ALA797  LYS798  CYS799  TRP800  GLU811  SER814 

> <Gold.Protein.RotatedAtoms>
  152.2324  133.5069  159.5222 H   0  0  0  0  0  0  0  0  0  0  0  0  # atno 6907 bound_to 6896
  150.7041  134.1199  159.4040 H   0  0  0  0  0  0  0  0  0  0  0  0  # atno 6908 bound_to 6896
  151.9120  135.0335  160.0566 H   0  0  0  0  0  0  0  0  0  0  0  0  # atno 6909 bound_to 6896
  144.8044  139.7027  143.6168 H   0  0  0  0  0  0  0  0  0  0  0  0  # atno 7974 bound_to 7965
  154.9602  140.3077  155.5034 H   0  0  0  0  0  0  0  0  0  0  0  0  # atno 8008 bound_to 7997
  156.2978  140.2303  156.4625 H   0  0  0  0  0  0  0  0  0  0  0  0  # atno 8009 bound_to 7997
  154.7972  140.0436  157.1234 H   0  0  0  0  0  0  0  0  0  0  0  0  # atno 8010 bound_to 7997
  140.6684  143.7115  150.7873 H   0  0  0  0  0  0  0  0  0  0  0  0  # atno 10167 bound_to 10162
  156.7005  130.9195  151.3079 H   0  0  0  0  0  0  0  0  0  0  0  0  # atno 10718 bound_to 10713
  153.0248  135.6406  154.1398 H   0  0  0  0  0  0  0  0  0  0  0  0  # atno 10763 bound_to 10752
  154.1128  135.2852  155.3228 H   0  0  0  0  0  0  0  0  0  0  0  0  # atno 10764 bound_to 10752
  154.6319  135.5489  153.7753 H   0  0  0  0  0  0  0  0  0  0  0  0  # atno 10765 bound_to 10752
  140.4429  134.1303  155.7692 H   0  0  0  0  0  0  0  0  0  0  0  0  # atno 11005 bound_to 11000
  146.2333  139.5855  142.9541 LP  0  0  0  0  0  0  0  0  0  0  0  0  # atno 17320 bound_to 7965
  145.5474  141.0416  143.2297 LP  0  0  0  0  0  0  0  0  0  0  0  0  # atno 17321 bound_to 7965
  140.0797  143.4981  152.2537 LP  0  0  0  0  0  0  0  0  0  0  0  0  # atno 17342 bound_to 10162
  139.5942  144.7561  151.3326 LP  0  0  0  0  0  0  0  0  0  0  0  0  # atno 17343 bound_to 10162
  157.6975  130.9297  150.0686 LP  0  0  0  0  0  0  0  0  0  0  0  0  # atno 17370 bound_to 10713
  156.1732  130.3647  149.9136 LP  0  0  0  0  0  0  0  0  0  0  0  0  # atno 17371 bound_to 10713
  141.1698  133.8632  157.1606 LP  0  0  0  0  0  0  0  0  0  0  0  0  # atno 17394 bound_to 11000
  140.0058  135.0009  157.0288 LP  0  0  0  0  0  0  0  0  0  0  0  0  # atno 17395 bound_to 11000

$$$$
