AV-unprocessed.smi:718|AV-procd|sdf|3492|dock1
  -GOLD-   22720 0483D 1   1.00000     0.00000
 Structure written by MMmdl.
 27 28  0  0  0  0  0  0  0  0  1 V2000
  151.9872  139.9771  158.0993 O   0  0  0  0  0  0  0  0  0  0  0  0
  151.5921  141.0392  157.6166 C   0  0  0  0  0  0  0  0  0  0  0  0
  151.6336  142.2246  158.2546 N   0  0  0  0  0  0  0  0  0  0  0  0
  152.0874  142.5032  159.5710 C   0  0  0  0  0  0  0  0  0  0  0  0
  153.0162  141.5747  160.0919 C   0  0  0  0  0  0  0  0  0  0  0  0
  153.5311  141.7607  161.3899 C   0  0  0  0  0  0  0  0  0  0  0  0
  154.6675  140.6312  162.0352 Cl  0  0  0  0  0  0  0  0  0  0  0  0
  153.1011  142.8766  162.1357 C   0  0  0  0  0  0  0  0  0  0  0  0
  153.6840  143.1789  163.7336 Cl  0  0  0  0  0  0  0  0  0  0  0  0
  152.1736  143.7521  161.5410 C   0  0  0  0  0  0  0  0  0  0  0  0
  151.6802  143.5737  160.2976 N   0  0  0  0  0  0  0  0  0  0  0  0
  151.0319  141.0769  156.1872 C   0  0  1  0  0  0  0  0  0  0  0  0
  151.0931  139.7061  155.4736 C   0  0  0  0  0  0  0  0  0  0  0  0
  150.5199  139.8249  154.1779 O   0  0  0  0  0  0  0  0  0  0  0  0
  149.1639  140.2429  154.2477 C   0  0  0  0  0  0  0  0  0  0  0  0
  149.1002  141.6112  154.9454 C   0  0  0  0  0  0  0  0  0  0  0  0
  149.6706  141.4973  156.2422 O   0  0  0  0  0  0  0  0  0  0  0  0
  151.2886  143.0184  157.7350 H   0  0  0  0  0  0  0  0  0  0  0  0
  153.3335  140.7253  159.5042 H   0  0  0  0  0  0  0  0  0  0  0  0
  151.8168  144.6200  162.0759 H   0  0  0  0  0  0  0  0  0  0  0  0
  151.6129  141.8096  155.6244 H   0  0  0  0  0  0  0  0  0  0  0  0
  152.1263  139.3754  155.3623 H   0  0  0  0  0  0  0  0  0  0  0  0
  150.5682  138.9374  156.0438 H   0  0  0  0  0  0  0  0  0  0  0  0
  148.7597  140.3129  153.2377 H   0  0  0  0  0  0  0  0  0  0  0  0
  148.5668  139.5032  154.7834 H   0  0  0  0  0  0  0  0  0  0  0  0
  149.6290  142.3693  154.3657 H   0  0  0  0  0  0  0  0  0  0  0  0
  148.0654  141.9412  155.0393 H   0  0  0  0  0  0  0  0  0  0  0  0
  1  2  2  0  0  0  0
  2  3  1  0  0  0  0
  2 12  1  0  0  0  0
  3  4  1  0  0  0  0
  3 18  1  0  0  0  0
  4 11  1  0  0  0  0
  4  5  2  0  0  0  0
  5  6  1  0  0  0  0
  5 19  1  0  0  0  0
  6  7  1  0  0  0  0
  6  8  2  0  0  0  0
  8  9  1  0  0  0  0
  8 10  1  0  0  0  0
 10 11  2  0  0  0  0
 10 20  1  0  0  0  0
 12 17  1  0  0  0  0
 12 13  1  0  0  0  0
 12 21  1  0  0  0  0
 13 14  1  0  0  0  0
 13 22  1  0  0  0  0
 13 23  1  0  0  0  0
 14 15  1  0  0  0  0
 15 16  1  0  0  0  0
 15 24  1  0  0  0  0
 15 25  1  0  0  0  0
 16 17  1  0  0  0  0
 16 26  1  0  0  0  0
 16 27  1  0  0  0  0
M  END
> <s_m_source_file>
AV-unprocessed.smi

> <i_m_source_file_index>
718

> <i_lp_mmshare_version>
43012

> <i_f3d_flags>
0

> <s_epik_input>
TzFbQ0gyXVtDSDJdT1tDSDJdW0NASF0xQyg9TylbTkhdYzJbY0hdYyhDbCljKENsKVtjSF1uMg==

> <s_epik_cmdline>
J2VwaWtfcHl0aG9uJywgJy1waCcsICc3LjAnLCAnLXRuJywgJzgnLCAnLW1hJywgJzIwMCcsICctbWV0YWxfYmluZGluZycsICctaW1hZScsICc8aW5maWxlLm1hZT4nLCAnLW9tYWUnLCAnPG91dGZpbGUubWFlPic=

> <r_lp_tautomer_probability>
1

> <r_epik_Ionization_Penalty>
4.81693e-06

> <r_epik_Ionization_Penalty_Charging>
0

> <r_epik_Ionization_Penalty_Neutral>
4.81693e-06

> <r_epik_State_Penalty>
-0

> <r_epik_Charging_Adjusted_Penalty>
0

> <i_epik_Tot_Q>
0

> <i_epik_Tot_abs_Q>
0

> <r_epik_Metal_State_Penalty>
-0

> <b_epik_Metal_Only>
0

> <s_lp_Force_Field>
OPLS_2005

> <r_lp_Energy>
11.7042

> <b_lp_Chiralities_Consistent>
1

> <s_lp_Variant>
AV-unprocessed.smi:718-2

> <Gold.Version>
5.8.1

> <Gold.Id.Protein>
6NUR|6NUR_protein|mol2

> <Gold.PLP.Fitness>
43.4074

> <Gold.PLP.PLP>
-40.6961

> <Gold.PLP.part.hbond>
-1.0000

> <Gold.PLP.part.metal>
0.0000

> <Gold.PLP.part.buried>
-4.1083

> <Gold.PLP.part.nonpolar>
-35.4375

> <Gold.PLP.part.repulsive>
0.3704

> <Gold.PLP.ligand.clash>
0.0000

> <Gold.PLP.ligand.torsion>
0.1452

> <Gold.PLP.Chemscore.Hbond>
1.0000

> <Gold.PLP.Chemscore.CHOScore>
0.0000

> <Gold.PLP.Chemscore.Metal>
0.0000

> <Gold.Chemscore.Hbonds>
donor molecule, donor type, donor heavy atom, donor atom, acceptor molecule, acceptor atom, score
      P1  H  7989  7998       L1    14  1.00

> <Gold.PLP.Chemscore.Internal.Correction>
0.0017

> <Gold.Rescore>
     Score         DG    S(hbond)    S(metal)    S(lipo)     H(rot)  DE(clash)    DE(int)     intcor
     14.89     -16.59       0.77        0.00      95.00       1.00       0.07       1.64       ----

> <Gold.Chemscore.Fitness>
14.8894

> <Gold.Chemscore.DG>
-16.5903

> <Gold.Chemscore.ZeroCoef>
-5.4800

> <Gold.Chemscore.Hbond>
0.7652

> <Gold.Chemscore.Metal>
0.0000

> <Gold.Chemscore.Lipo>
94.9962

> <Gold.Chemscore.Internal_Hbond>
0.0000

> <Gold.Chemscore.DEClash>
0.0653

> <Gold.Chemscore.DEInternal>
1.6357

> <Gold.Chemscore.Rot>
1.0000

> <Gold.Chemscore.Internal.Correction>
   9.000000E+99

> <Gold.Chemscore.Hbonds>
donor molecule, donor type, donor heavy atom, donor atom, acceptor molecule, acceptor atom, score
      P1  H  7989  7998       L1    14  0.24

> <Gold.Chemscore.Hbond.Weighted>
-2.5558

> <Gold.Chemscore.Metal.Weighted>
-0.0000

> <Gold.Chemscore.Lipo.Weighted>
-11.1146

> <Gold.Chemscore.Internal_Hbond.Weighted>
0.0000

> <Gold.Chemscore.DEClash.Weighted>
0.0653

> <Gold.Chemscore.DEInternal.Weighted>
1.6357

> <Gold.Chemscore.Rot.Weighted>
2.5600

> <Gold.Chemscore.Internal.Correction.Weighted>
   9.000000E+99

> <Gold.Protein.RotatedTorsions>
[ 6907 6896 6895 6894 ] final -172.24 input  -60.11 | X-H torsion
[ 7974 7965 7964 7962 ] final  177.49 input  175.53 | X-H torsion
[ 8008 7997 7996 7995 ] final  -90.68 input   59.86 | X-H torsion
[ 10167 10162 10161 10158 ] final   28.44 input  -65.29 | X-H torsion
[ 10718 10713 10712 10709 ] final   35.56 input   66.30 | X-H torsion
[ 10763 10752 10751 10750 ] final -104.58 input  -60.55 | X-H torsion
[ 11005 11000 10999 10996 ] final    1.76 input  -57.11 | X-H torsion

> <Gold.Protein.ActiveResidues>
 VAL166  LYS551  ARG553  GLY616  TRP617  ASP618  TYR619  PRO620  LYS621  CYS622 
 ASP623  PHE694  ASN695  SER759  ASP760  ASP761  ALA762  ILE779  LEU786  VAL792 
 PHE793  MET794  SER795  GLU796  ALA797  LYS798  CYS799  TRP800  GLU811  SER814 

> <Gold.Protein.RotatedAtoms>
  151.5367  133.3439  159.2927 H   0  0  0  0  0  0  0  0  0  0  0  0  # atno 6907 bound_to 6896
  150.8560  134.7902  159.7057 H   0  0  0  0  0  0  0  0  0  0  0  0  # atno 6908 bound_to 6896
  152.4593  134.5228  159.9839 H   0  0  0  0  0  0  0  0  0  0  0  0  # atno 6909 bound_to 6896
  144.7168  140.0254  143.6439 H   0  0  0  0  0  0  0  0  0  0  0  0  # atno 7974 bound_to 7965
  154.7014  140.0528  157.0462 H   0  0  0  0  0  0  0  0  0  0  0  0  # atno 8008 bound_to 7997
  155.0679  140.3196  155.4621 H   0  0  0  0  0  0  0  0  0  0  0  0  # atno 8009 bound_to 7997
  156.2761  140.2087  156.5806 H   0  0  0  0  0  0  0  0  0  0  0  0  # atno 8010 bound_to 7997
  140.4852  144.0553  150.6278 H   0  0  0  0  0  0  0  0  0  0  0  0  # atno 10167 bound_to 10162
  157.3241  130.7464  149.6804 H   0  0  0  0  0  0  0  0  0  0  0  0  # atno 10718 bound_to 10713
  154.7888  135.4781  154.0006 H   0  0  0  0  0  0  0  0  0  0  0  0  # atno 10763 bound_to 10752
  153.1600  135.6807  153.8764 H   0  0  0  0  0  0  0  0  0  0  0  0  # atno 10764 bound_to 10752
  153.8380  135.3183  155.3402 H   0  0  0  0  0  0  0  0  0  0  0  0  # atno 10765 bound_to 10752
  140.6118  133.9741  155.8181 H   0  0  0  0  0  0  0  0  0  0  0  0  # atno 11005 bound_to 11000
  146.0146  139.3199  143.0849 LP  0  0  0  0  0  0  0  0  0  0  0  0  # atno 17320 bound_to 7965
  145.8641  140.9458  143.0685 LP  0  0  0  0  0  0  0  0  0  0  0  0  # atno 17321 bound_to 7965
  140.3807  143.2804  152.0174 LP  0  0  0  0  0  0  0  0  0  0  0  0  # atno 17342 bound_to 10162
  139.4840  144.6157  151.7350 LP  0  0  0  0  0  0  0  0  0  0  0  0  # atno 17343 bound_to 10162
  155.9689  130.4214  150.4469 LP  0  0  0  0  0  0  0  0  0  0  0  0  # atno 17370 bound_to 10713
  157.2490  131.0542  151.2391 LP  0  0  0  0  0  0  0  0  0  0  0  0  # atno 17371 bound_to 10713
  141.0802  134.0073  157.3397 LP  0  0  0  0  0  0  0  0  0  0  0  0  # atno 17394 bound_to 11000
  139.9189  135.0199  156.7988 LP  0  0  0  0  0  0  0  0  0  0  0  0  # atno 17395 bound_to 11000

$$$$
