AV-unprocessed.smi:1154|AV-procd|sdf|4901|dock2
  -GOLD-   22720 3473D 1   1.00000     0.00000
 Structure written by MMmdl.
 42 43  0  0  0  0  0  0  0  0  2 V2000
  151.9294  145.5835  159.4807 C   0  0  0  0  0  0  0  0  0  0  0  0
  152.1245  144.1774  158.8956 C   0  0  1  0  0  0  0  0  0  0  0  0
  152.7866  143.2325  159.9123 C   0  0  0  0  0  0  0  0  0  0  0  0
  152.9568  141.8263  159.3140 C   0  0  1  0  0  0  0  0  0  0  0  0
  153.5967  140.8619  160.3227 C   0  0  0  0  0  0  0  0  0  0  0  0
  151.6020  141.2955  158.8071 C   0  0  0  0  0  0  0  0  0  0  0  0
  150.9876  142.2249  157.8237 N   0  3  1  0  0  0  0  0  0  0  0  0
  149.7536  141.6631  157.2176 C   0  0  0  0  0  0  0  0  0  0  0  0
  149.9091  141.3947  155.7117 C   0  0  0  0  0  0  0  0  0  0  0  0
  149.9664  139.9630  155.4521 N   0  0  0  0  0  0  0  0  0  0  0  0
  151.0639  139.3131  155.0349 C   0  0  0  0  0  0  0  0  0  0  0  0
  152.1321  139.8779  154.8033 O   0  0  0  0  0  0  0  0  0  0  0  0
  150.9419  137.7995  154.8387 C   0  0  0  0  0  0  0  0  0  0  0  0
  151.1666  137.0755  156.0772 N   0  0  0  0  0  0  0  0  0  0  0  0
  150.4264  136.9813  157.1835 C   0  0  0  0  0  0  0  0  0  0  0  0
  151.0082  136.2212  158.0983 N   0  0  0  0  0  0  0  0  0  0  0  0
  152.1839  135.8294  157.4802 N   0  0  0  0  0  0  0  0  0  0  0  0
  152.2826  136.3315  156.2800 N   0  0  0  0  0  0  0  0  0  0  0  0
  150.7920  143.5806  158.4032 C   0  0  0  0  0  0  0  0  0  0  0  0
  151.2718  145.5650  160.3504 H   0  0  0  0  0  0  0  0  0  0  0  0
  151.4892  146.2577  158.7453 H   0  0  0  0  0  0  0  0  0  0  0  0
  152.8814  146.0143  159.7926 H   0  0  0  0  0  0  0  0  0  0  0  0
  152.7905  144.2704  158.0362 H   0  0  0  0  0  0  0  0  0  0  0  0
  153.7576  143.6297  160.2114 H   0  0  0  0  0  0  0  0  0  0  0  0
  152.1803  143.1786  160.8180 H   0  0  0  0  0  0  0  0  0  0  0  0
  153.6312  141.9020  158.4595 H   0  0  0  0  0  0  0  0  0  0  0  0
  152.9685  140.7362  161.2050 H   0  0  0  0  0  0  0  0  0  0  0  0
  154.5678  141.2295  160.6557 H   0  0  0  0  0  0  0  0  0  0  0  0
  153.7521  139.8769  159.8815 H   0  0  0  0  0  0  0  0  0  0  0  0
  151.7530  140.3211  158.3403 H   0  0  0  0  0  0  0  0  0  0  0  0
  150.9153  141.1439  159.6418 H   0  0  0  0  0  0  0  0  0  0  0  0
  149.5148  140.7154  157.7030 H   0  0  0  0  0  0  0  0  0  0  0  0
  148.9106  142.3286  157.4101 H   0  0  0  0  0  0  0  0  0  0  0  0
  149.0751  141.8111  155.1467 H   0  0  0  0  0  0  0  0  0  0  0  0
  150.8198  141.8707  155.3435 H   0  0  0  0  0  0  0  0  0  0  0  0
  149.1249  139.4284  155.6130 H   0  0  0  0  0  0  0  0  0  0  0  0
  149.9470  137.5589  154.4621 H   0  0  0  0  0  0  0  0  0  0  0  0
  151.6613  137.4559  154.0938 H   0  0  0  0  0  0  0  0  0  0  0  0
  149.4734  137.4705  157.3203 H   0  0  0  0  0  0  0  0  0  0  0  0
  150.0763  143.5243  159.2252 H   0  0  0  0  0  0  0  0  0  0  0  0
  150.3618  144.2487  157.6580 H   0  0  0  0  0  0  0  0  0  0  0  0
  151.6565  142.3190  157.0727 H   0  0  0  0  0  0  0  0  0  0  0  0
  1  2  1  0  0  0  0
  1 20  1  0  0  0  0
  1 21  1  0  0  0  0
  1 22  1  0  0  0  0
  2 19  1  0  0  0  0
  2  3  1  0  0  0  0
  2 23  1  0  0  0  0
  3  4  1  0  0  0  0
  3 24  1  0  0  0  0
  3 25  1  0  0  0  0
  4  5  1  0  0  0  0
  4  6  1  0  0  0  0
  4 26  1  0  0  0  0
  5 27  1  0  0  0  0
  5 28  1  0  0  0  0
  5 29  1  0  0  0  0
  6  7  1  0  0  0  0
  6 30  1  0  0  0  0
  6 31  1  0  0  0  0
  7  8  1  0  0  0  0
  7 19  1  0  0  0  0
  7 42  1  0  0  0  0
  8  9  1  0  0  0  0
  8 32  1  0  0  0  0
  8 33  1  0  0  0  0
  9 10  1  0  0  0  0
  9 34  1  0  0  0  0
  9 35  1  0  0  0  0
 10 11  1  0  0  0  0
 10 36  1  0  0  0  0
 11 12  2  0  0  0  0
 11 13  1  0  0  0  0
 13 14  1  0  0  0  0
 13 37  1  0  0  0  0
 13 38  1  0  0  0  0
 14 18  1  0  0  0  0
 14 15  1  0  0  0  0
 15 16  2  0  0  0  0
 15 39  1  0  0  0  0
 16 17  1  0  0  0  0
 17 18  2  0  0  0  0
 19 40  1  0  0  0  0
 19 41  1  0  0  0  0
M  CHG  1   7   1
M  END
> <s_m_source_file>
AV-unprocessed.smi

> <i_m_source_file_index>
1154

> <i_lp_mmshare_version>
43012

> <i_f3d_flags>
0

> <s_epik_input>
W0NIM11bQ0BASF0xW0NIMl1bQ0BASF0oW0NIM10pW0NIMl1OKFtDSDJdMSlbQ0gyXVtDSDJdW05IXUMoPU8pW0NIMl1uMltjSF1ubm4y

> <s_epik_cmdline>
J2VwaWtfcHl0aG9uJywgJy1waCcsICc3LjAnLCAnLXRuJywgJzgnLCAnLW1hJywgJzIwMCcsICctbWV0YWxfYmluZGluZycsICctaW1hZScsICc8aW5maWxlLm1hZT4nLCAnLW9tYWUnLCAnPG91dGZpbGUubWFlPic=

> <r_lp_tautomer_probability>
1

> <r_epik_Ionization_Penalty>
0.00217773

> <r_epik_Ionization_Penalty_Charging>
0.00217329

> <r_epik_Ionization_Penalty_Neutral>
4.43997e-06

> <r_epik_State_Penalty>
0.00149294

> <r_epik_Charging_Adjusted_Penalty>
0.00366623

> <i_epik_Tot_Q>
1

> <i_epik_Tot_abs_Q>
1

> <r_epik_Metal_State_Penalty>
-0

> <b_epik_Metal_Only>
0

> <s_lp_Force_Field>
OPLS_2005

> <r_lp_Energy>
19.913

> <b_lp_Chiralities_Consistent>
1

> <s_lp_Variant>
AV-unprocessed.smi:1154-2

> <Gold.Version>
5.8.1

> <Gold.Id.Protein>
6NUR|6NUR_protein|mol2

> <Gold.PLP.Fitness>
43.9147

> <Gold.PLP.PLP>
-39.9233

> <Gold.PLP.part.hbond>
-4.0000

> <Gold.PLP.part.metal>
0.0000

> <Gold.PLP.part.buried>
-5.8828

> <Gold.PLP.part.nonpolar>
-30.9717

> <Gold.PLP.part.repulsive>
0.1684

> <Gold.PLP.ligand.clash>
0.0000

> <Gold.PLP.ligand.torsion>
1.5766

> <Gold.PLP.Chemscore.Hbond>
2.3580

> <Gold.PLP.Chemscore.CHOScore>
0.0000

> <Gold.PLP.Chemscore.Metal>
0.0000

> <Gold.Chemscore.Hbonds>
donor molecule, donor type, donor heavy atom, donor atom, acceptor molecule, acceptor atom, score
      P1  H  6896  6907       L1    16  0.55
      P1  H  7989  7998       L1    12  0.78
      P1  H 10752 10764       L1    18  1.00

> <Gold.PLP.Chemscore.Internal.Correction>
0.0707

> <Gold.Rescore>
     Score         DG    S(hbond)    S(metal)    S(lipo)     H(rot)  DE(clash)    DE(int)     intcor
     15.48     -17.07       2.29        0.00      92.04       2.67       0.05       1.53       ----

> <Gold.Chemscore.Fitness>
15.4850

> <Gold.Chemscore.DG>
-17.0674

> <Gold.Chemscore.ZeroCoef>
-5.4800

> <Gold.Chemscore.Hbond>
2.2896

> <Gold.Chemscore.Metal>
0.0000

> <Gold.Chemscore.Lipo>
92.0407

> <Gold.Chemscore.Internal_Hbond>
0.0000

> <Gold.Chemscore.DEClash>
0.0536

> <Gold.Chemscore.DEInternal>
1.5288

> <Gold.Chemscore.Rot>
2.6674

> <Gold.Chemscore.Internal.Correction>
   9.000000E+99

> <Gold.Chemscore.Hbonds>
donor molecule, donor type, donor heavy atom, donor atom, acceptor molecule, acceptor atom, score
      P1  H  6896  6907       L1    16  0.13
      P1  H  7989  7998       L1    12  0.20
      P1  H 10752 10764       L1    18  0.88

> <Gold.Chemscore.Hbond.Weighted>
-7.6472

> <Gold.Chemscore.Metal.Weighted>
-0.0000

> <Gold.Chemscore.Lipo.Weighted>
-10.7688

> <Gold.Chemscore.Internal_Hbond.Weighted>
0.0000

> <Gold.Chemscore.DEClash.Weighted>
0.0536

> <Gold.Chemscore.DEInternal.Weighted>
1.5288

> <Gold.Chemscore.Rot.Weighted>
6.8286

> <Gold.Chemscore.Internal.Correction.Weighted>
   9.000000E+99

> <Gold.Protein.RotatedTorsions>
[ 6907 6896 6895 6894 ] final  -35.60 input  -60.11 | X-H torsion
[ 7974 7965 7964 7962 ] final  155.15 input  175.53 | X-H torsion
[ 8008 7997 7996 7995 ] final   82.27 input   59.86 | X-H torsion
[ 10167 10162 10161 10158 ] final -109.79 input  -65.29 | X-H torsion
[ 10718 10713 10712 10709 ] final -164.76 input   66.30 | X-H torsion
[ 10763 10752 10751 10750 ] final  -15.74 input  -60.55 | X-H torsion
[ 11005 11000 10999 10996 ] final   11.18 input  -57.11 | X-H torsion

> <Gold.Protein.ActiveResidues>
 VAL166  LYS551  ARG553  GLY616  TRP617  ASP618  TYR619  PRO620  LYS621  CYS622 
 ASP623  PHE694  ASN695  SER759  ASP760  ASP761  ALA762  ILE779  LEU786  VAL792 
 PHE793  MET794  SER795  GLU796  ALA797  LYS798  CYS799  TRP800  GLU811  SER814 

> <Gold.Protein.RotatedAtoms>
  151.0377  134.9585  159.8144 H   0  0  0  0  0  0  0  0  0  0  0  0  # atno 6907 bound_to 6896
  152.5358  134.2698  159.8977 H   0  0  0  0  0  0  0  0  0  0  0  0  # atno 6908 bound_to 6896
  151.2709  133.4213  159.2655 H   0  0  0  0  0  0  0  0  0  0  0  0  # atno 6909 bound_to 6896
  144.8043  139.7029  143.6168 H   0  0  0  0  0  0  0  0  0  0  0  0  # atno 7974 bound_to 7965
  155.9083  140.3429  155.6079 H   0  0  0  0  0  0  0  0  0  0  0  0  # atno 8008 bound_to 7997
  155.7418  140.0808  157.2261 H   0  0  0  0  0  0  0  0  0  0  0  0  # atno 8009 bound_to 7997
  154.4052  140.1569  156.2612 H   0  0  0  0  0  0  0  0  0  0  0  0  # atno 8010 bound_to 7997
  140.1514  143.4195  152.1492 H   0  0  0  0  0  0  0  0  0  0  0  0  # atno 10167 bound_to 10162
  156.6436  130.8979  151.3000 H   0  0  0  0  0  0  0  0  0  0  0  0  # atno 10718 bound_to 10713
  153.5479  135.7012  153.5605 H   0  0  0  0  0  0  0  0  0  0  0  0  # atno 10763 bound_to 10752
  153.3542  135.3987  155.1669 H   0  0  0  0  0  0  0  0  0  0  0  0  # atno 10764 bound_to 10752
  154.8665  135.3773  154.4988 H   0  0  0  0  0  0  0  0  0  0  0  0  # atno 10765 bound_to 10752
  140.5061  134.0698  155.7806 H   0  0  0  0  0  0  0  0  0  0  0  0  # atno 11005 bound_to 11000
  146.2331  139.5852  142.9542 LP  0  0  0  0  0  0  0  0  0  0  0  0  # atno 17320 bound_to 7965
  145.5476  141.0416  143.2296 LP  0  0  0  0  0  0  0  0  0  0  0  0  # atno 17321 bound_to 7965
  139.5424  144.7268  151.4692 LP  0  0  0  0  0  0  0  0  0  0  0  0  # atno 17342 bound_to 10162
  140.6700  143.8315  150.6987 LP  0  0  0  0  0  0  0  0  0  0  0  0  # atno 17343 bound_to 10162
  157.7163  130.9501  150.1268 LP  0  0  0  0  0  0  0  0  0  0  0  0  # atno 17370 bound_to 10713
  156.2139  130.3669  149.8636 LP  0  0  0  0  0  0  0  0  0  0  0  0  # atno 17371 bound_to 10713
  141.1410  133.9138  157.2325 LP  0  0  0  0  0  0  0  0  0  0  0  0  # atno 17394 bound_to 11000
  139.9685  135.0135  156.9451 LP  0  0  0  0  0  0  0  0  0  0  0  0  # atno 17395 bound_to 11000

$$$$
