AV-unprocessed.smi:106|AV-procd|sdf|1012|dock2
  -GOLD-   2262018 13D 1   1.00000     0.00000
 Structure written by MMmdl.
 51 54  0  0  0  0  0  0  0  0  1 V2000
  152.2680  135.6132  156.7928 O   0  0  0  0  0  0  0  0  0  0  0  0
  151.5173  136.5204  157.1581 C   0  0  0  0  0  0  0  0  0  0  0  0
  149.9894  136.3041  157.0855 C   0  0  0  0  0  0  0  0  0  0  0  0
  149.6022  134.9957  156.5118 N   0  0  0  0  0  0  0  0  0  0  0  0
  149.7233  134.8053  155.1129 C   0  0  0  0  0  0  0  0  0  0  0  0
  150.1439  135.7020  154.3804 O   0  0  0  0  0  0  0  0  0  0  0  0
  149.3137  133.4961  154.6174 C   0  0  0  0  0  0  0  0  0  0  0  0
  149.4087  133.2221  153.3052 F   0  0  0  0  0  0  0  0  0  0  0  0
  148.8412  132.5517  155.4565 C   0  0  0  0  0  0  0  0  0  0  0  0
  148.7106  132.7574  156.8183 N   0  0  0  0  0  0  0  0  0  0  0  0
  148.1667  131.6908  157.7451 C   0  0  1  0  0  0  0  0  0  0  0  0
  149.1149  131.4764  158.9399 C   0  0  0  0  0  0  0  0  0  0  0  0
  148.1834  131.5857  160.1305 C   0  0  0  0  0  0  0  0  0  0  0  0
  147.1150  132.5345  159.6083 C   0  0  0  0  0  0  0  0  0  0  0  0
  146.9338  132.0976  158.2676 O   0  0  0  0  0  0  0  0  0  0  0  0
  149.0958  133.9957  157.3763 C   0  0  0  0  0  0  0  0  0  0  0  0
  148.9837  134.2002  158.5872 O   0  0  0  0  0  0  0  0  0  0  0  0
  151.9854  137.7062  157.6184 N   0  0  0  0  0  0  0  0  0  0  0  0
  151.1021  138.8082  158.0324 C   0  0  0  0  0  0  0  0  0  0  0  0
  151.8466  140.1257  158.3410 C   0  0  0  0  0  0  0  0  0  0  0  0
  153.0040  139.9404  159.2329 N   0  0  0  0  0  0  0  0  0  0  0  0
  153.4297  140.9589  160.0231 C   0  0  0  0  0  0  0  0  0  0  0  0
  154.3267  140.8108  160.8554 O   0  0  0  0  0  0  0  0  0  0  0  0
  152.8052  142.2981  159.8810 C   0  0  0  0  0  0  0  0  0  0  0  0
  152.4724  143.0614  158.7877 C   0  0  0  0  0  0  0  0  0  0  0  0
  151.9227  144.3308  159.1337 C   0  0  0  0  0  0  0  0  0  0  0  0
  151.8666  144.5354  160.4864 C   0  0  0  0  0  0  0  0  0  0  0  0
  152.5030  143.1728  161.3655 S   0  0  0  0  0  0  0  0  0  0  0  0
  153.7325  138.6714  159.0744 C   0  0  0  0  0  0  0  0  0  0  0  0
  153.4229  137.9797  157.7366 C   0  0  0  0  0  0  0  0  0  0  0  0
  149.5625  136.4187  158.0829 H   0  0  0  0  0  0  0  0  0  0  0  0
  149.5465  137.1167  156.5086 H   0  0  0  0  0  0  0  0  0  0  0  0
  148.5589  131.6036  155.0255 H   0  0  0  0  0  0  0  0  0  0  0  0
  148.0210  130.8047  157.1248 H   0  0  0  0  0  0  0  0  0  0  0  0
  149.6166  130.5108  158.8730 H   0  0  0  0  0  0  0  0  0  0  0  0
  149.8676  132.2659  158.9721 H   0  0  0  0  0  0  0  0  0  0  0  0
  147.7427  130.6131  160.3539 H   0  0  0  0  0  0  0  0  0  0  0  0
  148.6792  131.9535  161.0291 H   0  0  0  0  0  0  0  0  0  0  0  0
  146.1865  132.4805  160.1769 H   0  0  0  0  0  0  0  0  0  0  0  0
  147.4709  133.5655  159.6250 H   0  0  0  0  0  0  0  0  0  0  0  0
  150.3578  139.0089  157.2611 H   0  0  0  0  0  0  0  0  0  0  0  0
  150.5591  138.4966  158.9260 H   0  0  0  0  0  0  0  0  0  0  0  0
  152.2000  140.5764  157.4123 H   0  0  0  0  0  0  0  0  0  0  0  0
  151.1255  140.8259  158.7662 H   0  0  0  0  0  0  0  0  0  0  0  0
  152.6041  142.7630  157.7587 H   0  0  0  0  0  0  0  0  0  0  0  0
  151.6003  145.0427  158.3882 H   0  0  0  0  0  0  0  0  0  0  0  0
  151.5037  145.4029  161.0177 H   0  0  0  0  0  0  0  0  0  0  0  0
  154.8097  138.8362  159.1282 H   0  0  0  0  0  0  0  0  0  0  0  0
  153.4649  138.0022  159.8925 H   0  0  0  0  0  0  0  0  0  0  0  0
  154.0253  137.0722  157.6777 H   0  0  0  0  0  0  0  0  0  0  0  0
  153.7365  138.6062  156.9002 H   0  0  0  0  0  0  0  0  0  0  0  0
  1  2  2  0  0  0  0
  2  3  1  0  0  0  0
  2 18  1  0  0  0  0
  3  4  1  0  0  0  0
  3 31  1  0  0  0  0
  3 32  1  0  0  0  0
  4 16  1  0  0  0  0
  4  5  1  0  0  0  0
  5  6  2  0  0  0  0
  5  7  1  0  0  0  0
  7  8  1  0  0  0  0
  7  9  2  0  0  0  0
  9 10  1  0  0  0  0
  9 33  1  0  0  0  0
 10 11  1  0  0  0  0
 10 16  1  0  0  0  0
 11 15  1  0  0  0  0
 11 12  1  0  0  0  0
 11 34  1  0  0  0  0
 12 13  1  0  0  0  0
 12 35  1  0  0  0  0
 12 36  1  0  0  0  0
 13 14  1  0  0  0  0
 13 37  1  0  0  0  0
 13 38  1  0  0  0  0
 14 15  1  0  0  0  0
 14 39  1  0  0  0  0
 14 40  1  0  0  0  0
 16 17  2  0  0  0  0
 18 30  1  0  0  0  0
 18 19  1  0  0  0  0
 19 20  1  0  0  0  0
 19 41  1  0  0  0  0
 19 42  1  0  0  0  0
 20 21  1  0  0  0  0
 20 43  1  0  0  0  0
 20 44  1  0  0  0  0
 21 22  1  0  0  0  0
 21 29  1  0  0  0  0
 22 23  2  0  0  0  0
 22 24  1  0  0  0  0
 24 28  1  0  0  0  0
 24 25  2  0  0  0  0
 25 26  1  0  0  0  0
 25 45  1  0  0  0  0
 26 27  2  0  0  0  0
 26 46  1  0  0  0  0
 27 28  1  0  0  0  0
 27 47  1  0  0  0  0
 29 30  1  0  0  0  0
 29 48  1  0  0  0  0
 29 49  1  0  0  0  0
 30 50  1  0  0  0  0
 30 51  1  0  0  0  0
M  END
> <s_m_source_file>
AV-unprocessed.smi

> <i_m_source_file_index>
106

> <i_lp_mmshare_version>
43012

> <i_f3d_flags>
0

> <s_epik_input>
czFbY0hdW2NIXVtjSF1jMUMoPU8pTihbQ0gyXVtDSDJdMilbQ0gyXVtDSDJdTjJDKD1PKVtDSDJdbjNjKD1PKWMoRilbY0hdbihjMz1PKVtDQEBIXTRbQ0gyXVtDSDJdW0NIMl1PNA==

> <s_epik_cmdline>
J2VwaWtfcHl0aG9uJywgJy1waCcsICc3LjAnLCAnLXRuJywgJzgnLCAnLW1hJywgJzIwMCcsICctbWV0YWxfYmluZGluZycsICctaW1hZScsICc8aW5maWxlLm1hZT4nLCAnLW9tYWUnLCAnPG91dGZpbGUubWFlPic=

> <r_lp_tautomer_probability>
1

> <r_epik_Ionization_Penalty>
4.82844e-09

> <r_epik_Ionization_Penalty_Charging>
4.20153e-09

> <r_epik_Ionization_Penalty_Neutral>
6.26919e-10

> <r_epik_State_Penalty>
-0

> <r_epik_Charging_Adjusted_Penalty>
4.20153e-09

> <i_epik_Tot_Q>
0

> <i_epik_Tot_abs_Q>
0

> <r_epik_Metal_State_Penalty>
-0

> <b_epik_Metal_Only>
0

> <s_epik_Chemistry_Notes>
This compound contains an acetal/aminal-like group ( X-CH(R)-Y where X, Y are N, S, or O) that may be acid/base labile, releasing an aldehyde.

> <s_lp_Force_Field>
OPLS_2005

> <r_lp_Energy>
72.1787

> <b_lp_Chiralities_Consistent>
1

> <s_lp_Variant>
AV-unprocessed.smi:106-2

> <Gold.Version>
5.8.1

> <Gold.Id.Protein>
6NUR|6NUR_protein|mol2

> <Gold.PLP.Fitness>
49.3166

> <Gold.PLP.PLP>
-46.9391

> <Gold.PLP.part.hbond>
-1.7304

> <Gold.PLP.part.metal>
0.0000

> <Gold.PLP.part.buried>
-7.2573

> <Gold.PLP.part.nonpolar>
-38.5580

> <Gold.PLP.part.repulsive>
0.8299

> <Gold.PLP.ligand.clash>
1.6889

> <Gold.PLP.ligand.torsion>
1.0367

> <Gold.PLP.Chemscore.Hbond>
1.8288

> <Gold.PLP.Chemscore.CHOScore>
0.0000

> <Gold.PLP.Chemscore.Metal>
0.0000

> <Gold.Chemscore.Hbonds>
donor molecule, donor type, donor heavy atom, donor atom, acceptor molecule, acceptor atom, score
      P1  H  6896  6909       L1    17  1.00
      P1  H 10752 10764       L1     1  1.00

> <Gold.PLP.Chemscore.Internal.Correction>
0.6535

> <Gold.Rescore>
     Score         DG    S(hbond)    S(metal)    S(lipo)     H(rot)  DE(clash)    DE(int)     intcor
     13.38     -19.37       1.80        0.00     102.84       1.63       0.12       5.87       ----

> <Gold.Chemscore.Fitness>
13.3849

> <Gold.Chemscore.DG>
-19.3703

> <Gold.Chemscore.ZeroCoef>
-5.4800

> <Gold.Chemscore.Hbond>
1.8020

> <Gold.Chemscore.Metal>
0.0000

> <Gold.Chemscore.Lipo>
102.8400

> <Gold.Chemscore.Internal_Hbond>
0.0000

> <Gold.Chemscore.DEClash>
0.1170

> <Gold.Chemscore.DEInternal>
5.8684

> <Gold.Chemscore.Rot>
1.6252

> <Gold.Chemscore.Internal.Correction>
   9.000000E+99

> <Gold.Chemscore.Hbonds>
donor molecule, donor type, donor heavy atom, donor atom, acceptor molecule, acceptor atom, score
      P1  H  6896  6909       L1    17  0.85
      P1  H 10752 10764       L1     1  1.00

> <Gold.Chemscore.Hbond.Weighted>
-6.0185

> <Gold.Chemscore.Metal.Weighted>
-0.0000

> <Gold.Chemscore.Lipo.Weighted>
-12.0323

> <Gold.Chemscore.Internal_Hbond.Weighted>
0.0000

> <Gold.Chemscore.DEClash.Weighted>
0.1170

> <Gold.Chemscore.DEInternal.Weighted>
5.8684

> <Gold.Chemscore.Rot.Weighted>
4.1605

> <Gold.Chemscore.Internal.Correction.Weighted>
   9.000000E+99

> <Gold.Protein.RotatedTorsions>
[ 6907 6896 6895 6894 ] final   44.47 input  -60.11 | X-H torsion
[ 7974 7965 7964 7962 ] final  -74.21 input  175.53 | X-H torsion
[ 8008 7997 7996 7995 ] final -131.56 input   59.86 | X-H torsion
[ 10167 10162 10161 10158 ] final   99.51 input  -65.29 | X-H torsion
[ 10718 10713 10712 10709 ] final  -57.42 input   66.30 | X-H torsion
[ 10763 10752 10751 10750 ] final  -11.02 input  -60.55 | X-H torsion
[ 11005 11000 10999 10996 ] final -135.08 input  -57.11 | X-H torsion

> <Gold.Protein.ActiveResidues>
 VAL166  LYS551  ARG553  GLY616  TRP617  ASP618  TYR619  PRO620  LYS621  CYS622 
 ASP623  PHE694  ASN695  SER759  ASP760  ASP761  ALA762  ILE779  LEU786  VAL792 
 PHE793  MET794  SER795  GLU796  ALA797  LYS798  CYS799  TRP800  GLU811  SER814 

> <Gold.Protein.RotatedAtoms>
  152.2329  134.8305  160.0470 H   0  0  0  0  0  0  0  0  0  0  0  0  # atno 6907 bound_to 6896
  151.9047  133.3541  159.3851 H   0  0  0  0  0  0  0  0  0  0  0  0  # atno 6908 bound_to 6896
  150.7031  134.4718  159.5473 H   0  0  0  0  0  0  0  0  0  0  0  0  # atno 6909 bound_to 6896
  145.6420  140.9308  143.1030 H   0  0  0  0  0  0  0  0  0  0  0  0  # atno 7974 bound_to 7965
  155.3143  140.0459  157.3036 H   0  0  0  0  0  0  0  0  0  0  0  0  # atno 8008 bound_to 7997
  154.5415  140.2289  155.8599 H   0  0  0  0  0  0  0  0  0  0  0  0  # atno 8009 bound_to 7997
  156.1885  140.3056  155.9292 H   0  0  0  0  0  0  0  0  0  0  0  0  # atno 8010 bound_to 7997
  139.7610  144.6954  151.0292 H   0  0  0  0  0  0  0  0  0  0  0  0  # atno 10167 bound_to 10162
  156.1212  130.4166  150.0439 H   0  0  0  0  0  0  0  0  0  0  0  0  # atno 10718 bound_to 10713
  153.4776  135.7017  153.5957 H   0  0  0  0  0  0  0  0  0  0  0  0  # atno 10763 bound_to 10752
  153.4184  135.3831  155.2095 H   0  0  0  0  0  0  0  0  0  0  0  0  # atno 10764 bound_to 10752
  154.8723  135.3921  154.4222 H   0  0  0  0  0  0  0  0  0  0  0  0  # atno 10765 bound_to 10752
  140.8931  134.1786  157.4514 H   0  0  0  0  0  0  0  0  0  0  0  0  # atno 11005 bound_to 11000
  144.7154  139.8217  143.7400 LP  0  0  0  0  0  0  0  0  0  0  0  0  # atno 17320 bound_to 7965
  146.1273  139.4301  143.0191 LP  0  0  0  0  0  0  0  0  0  0  0  0  # atno 17321 bound_to 7965
  140.7807  143.4697  151.0164 LP  0  0  0  0  0  0  0  0  0  0  0  0  # atno 17342 bound_to 10162
  139.8383  143.7598  152.3180 LP  0  0  0  0  0  0  0  0  0  0  0  0  # atno 17343 bound_to 10162
  156.8376  130.9414  151.3634 LP  0  0  0  0  0  0  0  0  0  0  0  0  # atno 17370 bound_to 10713
  157.6395  130.8794  149.9422 LP  0  0  0  0  0  0  0  0  0  0  0  0  # atno 17371 bound_to 10713
  139.8732  134.9867  156.5335 LP  0  0  0  0  0  0  0  0  0  0  0  0  # atno 17394 bound_to 11000
  140.8322  133.8270  155.8995 LP  0  0  0  0  0  0  0  0  0  0  0  0  # atno 17395 bound_to 11000

$$$$
