AV-unprocessed.smi:3160|AV-procd|sdf|12051|dock8
  -GOLD-   2272017483D 1   1.00000     0.00000
 Structure written by MMmdl.
 40 41  0  0  0  0  0  0  0  0  2 V2000
  153.8484  137.9046  154.2234 C   0  0  0  0  0  0  0  0  0  0  0  0
  152.5217  138.5330  154.5387 C   0  0  0  0  0  0  0  0  0  0  0  0
  151.2370  138.1513  154.0590 C   0  0  0  0  0  0  0  0  0  0  0  0
  150.2645  138.9140  154.5312 N   0  0  0  0  0  0  0  0  0  0  0  0
  150.8894  139.8090  155.3259 N   0  0  0  0  0  0  0  0  0  0  0  0
  150.1099  140.8198  156.0292 C   0  0  2  0  0  0  0  0  0  0  0  0
  149.2733  141.6254  155.0184 C   0  0  0  0  0  0  0  0  0  0  0  0
  151.0037  141.7156  156.9269 C   0  0  2  0  0  0  0  0  0  0  0  0
  151.7556  140.9275  158.0151 C   0  0  0  0  0  0  0  0  0  0  0  0
  150.1884  142.7660  157.5791 N   0  3  0  0  0  0  0  0  0  0  0  0
  150.8452  143.4782  158.6968 C   0  0  0  0  0  0  0  0  0  0  0  0
  149.8881  144.3750  159.4864 C   0  0  0  0  0  0  0  0  0  0  0  0
  150.7965  145.3946  160.1835 C   0  0  0  0  0  0  0  0  0  0  0  0
  152.1012  145.4367  159.3709 C   0  0  0  0  0  0  0  0  0  0  0  0
  151.9140  144.4555  158.2085 C   0  0  0  0  0  0  0  0  0  0  0  0
  152.2538  139.5990  155.3493 C   0  0  0  0  0  0  0  0  0  0  0  0
  153.8107  137.3193  153.3043 H   0  0  0  0  0  0  0  0  0  0  0  0
  154.1746  137.2343  155.0187 H   0  0  0  0  0  0  0  0  0  0  0  0
  154.6289  138.6545  154.0933 H   0  0  0  0  0  0  0  0  0  0  0  0
  150.9843  137.3458  153.3853 H   0  0  0  0  0  0  0  0  0  0  0  0
  149.4097  140.2921  156.6802 H   0  0  0  0  0  0  0  0  0  0  0  0
  148.5817  142.3025  155.5194 H   0  0  0  0  0  0  0  0  0  0  0  0
  148.6753  140.9629  154.3914 H   0  0  0  0  0  0  0  0  0  0  0  0
  149.9056  142.2222  154.3606 H   0  0  0  0  0  0  0  0  0  0  0  0
  151.7604  142.1848  156.2963 H   0  0  0  0  0  0  0  0  0  0  0  0
  152.4560  140.2101  157.5871 H   0  0  0  0  0  0  0  0  0  0  0  0
  151.0648  140.3774  158.6549 H   0  0  0  0  0  0  0  0  0  0  0  0
  152.3360  141.5966  158.6514 H   0  0  0  0  0  0  0  0  0  0  0  0
  149.9383  143.4430  156.8724 H   0  0  0  0  0  0  0  0  0  0  0  0
  151.3132  142.7586  159.3708 H   0  0  0  0  0  0  0  0  0  0  0  0
  149.2160  144.8966  158.8031 H   0  0  0  0  0  0  0  0  0  0  0  0
  149.2718  143.8183  160.1927 H   0  0  0  0  0  0  0  0  0  0  0  0
  150.3211  146.3745  160.2423 H   0  0  0  0  0  0  0  0  0  0  0  0
  151.0089  145.0747  161.2042 H   0  0  0  0  0  0  0  0  0  0  0  0
  152.3273  146.4411  159.0114 H   0  0  0  0  0  0  0  0  0  0  0  0
  152.9356  145.1204  159.9984 H   0  0  0  0  0  0  0  0  0  0  0  0
  152.8427  143.9567  157.9292 H   0  0  0  0  0  0  0  0  0  0  0  0
  151.5534  144.9988  157.3334 H   0  0  0  0  0  0  0  0  0  0  0  0
  152.9159  140.2186  155.9360 H   0  0  0  0  0  0  0  0  0  0  0  0
  149.3400  142.3452  157.9297 H   0  0  0  0  0  0  0  0  0  0  0  0
  1  2  1  0  0  0  0
  1 17  1  0  0  0  0
  1 18  1  0  0  0  0
  1 19  1  0  0  0  0
  2 16  2  0  0  0  0
  2  3  1  0  0  0  0
  3  4  2  0  0  0  0
  3 20  1  0  0  0  0
  4  5  1  0  0  0  0
  5  6  1  0  0  0  0
  5 16  1  0  0  0  0
  6  7  1  0  0  0  0
  6  8  1  0  0  0  0
  6 21  1  0  0  0  0
  7 22  1  0  0  0  0
  7 23  1  0  0  0  0
  7 24  1  0  0  0  0
  8  9  1  0  0  0  0
  8 10  1  0  0  0  0
  8 25  1  0  0  0  0
  9 26  1  0  0  0  0
  9 27  1  0  0  0  0
  9 28  1  0  0  0  0
 10 11  1  0  0  0  0
 10 29  1  0  0  0  0
 10 40  1  0  0  0  0
 11 15  1  0  0  0  0
 11 12  1  0  0  0  0
 11 30  1  0  0  0  0
 12 13  1  0  0  0  0
 12 31  1  0  0  0  0
 12 32  1  0  0  0  0
 13 14  1  0  0  0  0
 13 33  1  0  0  0  0
 13 34  1  0  0  0  0
 14 15  1  0  0  0  0
 14 35  1  0  0  0  0
 14 36  1  0  0  0  0
 15 37  1  0  0  0  0
 15 38  1  0  0  0  0
 16 39  1  0  0  0  0
M  CHG  1  10   1
M  END
> <s_m_source_file>
AV-unprocessed.smi

> <i_m_source_file_index>
3160

> <i_lp_mmshare_version>
43012

> <i_f3d_flags>
0

> <s_epik_input>
W0NIM11jMVtjSF1ubihbY0hdMSlbQ0BIXShbQ0gzXSlbQ0BIXShbQ0gzXSlbTkhdW0NIXTJbQ0gyXVtDSDJdW0NIMl1bQ0gyXTI=

> <s_epik_cmdline>
J2VwaWtfcHl0aG9uJywgJy1waCcsICc3LjAnLCAnLXRuJywgJzgnLCAnLW1hJywgJzIwMCcsICctbWV0YWxfYmluZGluZycsICctaW1hZScsICc8aW5maWxlLm1hZT4nLCAnLW9tYWUnLCAnPG91dGZpbGUubWFlPic=

> <r_lp_tautomer_probability>
1

> <r_epik_Ionization_Penalty>
0.00117636

> <r_epik_Ionization_Penalty_Charging>
0.00115264

> <r_epik_Ionization_Penalty_Neutral>
2.37123e-05

> <r_epik_State_Penalty>
-0

> <r_epik_Charging_Adjusted_Penalty>
0.00115264

> <i_epik_Tot_Q>
1

> <i_epik_Tot_abs_Q>
1

> <r_epik_Metal_State_Penalty>
-0

> <b_epik_Metal_Only>
0

> <s_lp_Force_Field>
OPLS_2005

> <r_lp_Energy>
32.1139

> <b_lp_Chiralities_Consistent>
1

> <s_lp_Variant>
AV-unprocessed.smi:3160-1

> <Gold.Version>
5.8.1

> <Gold.Id.Protein>
6NUR|6NUR_protein|mol2

> <Gold.PLP.Fitness>
45.7783

> <Gold.PLP.PLP>
-36.7802

> <Gold.PLP.part.hbond>
-1.0000

> <Gold.PLP.part.metal>
0.0000

> <Gold.PLP.part.buried>
0.4325

> <Gold.PLP.part.nonpolar>
-37.0540

> <Gold.PLP.part.repulsive>
0.1826

> <Gold.PLP.ligand.clash>
0.0000

> <Gold.PLP.ligand.torsion>
0.2436

> <Gold.PLP.Chemscore.Hbond>
2.0000

> <Gold.PLP.Chemscore.CHOScore>
1.1331

> <Gold.PLP.Chemscore.Metal>
0.0000

> <Gold.Chemscore.Hbonds>
donor molecule, donor type, donor heavy atom, donor atom, acceptor molecule, acceptor atom, score
      L1  H    10    29       P1  8028  1.92
      L1  C     3    20       P1  7948  0.10
      L1  C     3    20       P1  7949  1.00

> <Gold.PLP.Chemscore.Internal.Correction>
0.0861

> <Gold.Rescore>
     Score         DG    S(hbond)    S(metal)    S(lipo)     H(rot)  DE(clash)    DE(int)     intcor
     16.39     -18.96       0.99        0.00     117.01       1.37       1.67       0.89       ----

> <Gold.Chemscore.Fitness>
16.3884

> <Gold.Chemscore.DG>
-18.9576

> <Gold.Chemscore.ZeroCoef>
-5.4800

> <Gold.Chemscore.Hbond>
0.9871

> <Gold.Chemscore.Metal>
0.0000

> <Gold.Chemscore.Lipo>
117.0095

> <Gold.Chemscore.Internal_Hbond>
0.0000

> <Gold.Chemscore.DEClash>
1.6750

> <Gold.Chemscore.DEInternal>
0.8943

> <Gold.Chemscore.Rot>
1.3709

> <Gold.Chemscore.Internal.Correction>
   9.000000E+99

> <Gold.Chemscore.Hbonds>
donor molecule, donor type, donor heavy atom, donor atom, acceptor molecule, acceptor atom, score
      L1  H    10    29       P1  8028  0.91

> <Gold.Chemscore.Hbond.Weighted>
-3.2970

> <Gold.Chemscore.Metal.Weighted>
-0.0000

> <Gold.Chemscore.Lipo.Weighted>
-13.6901

> <Gold.Chemscore.Internal_Hbond.Weighted>
0.0000

> <Gold.Chemscore.DEClash.Weighted>
1.6750

> <Gold.Chemscore.DEInternal.Weighted>
0.8943

> <Gold.Chemscore.Rot.Weighted>
3.5095

> <Gold.Chemscore.Internal.Correction.Weighted>
   9.000000E+99

> <Gold.Protein.RotatedTorsions>
[ 6907 6896 6895 6894 ] final   24.96 input  -60.11 | X-H torsion
[ 7974 7965 7964 7962 ] final  -48.76 input  175.53 | X-H torsion
[ 8008 7997 7996 7995 ] final  179.29 input   59.86 | X-H torsion
[ 10167 10162 10161 10158 ] final  -79.92 input  -65.29 | X-H torsion
[ 10718 10713 10712 10709 ] final -117.32 input   66.30 | X-H torsion
[ 10763 10752 10751 10750 ] final -133.18 input  -60.55 | X-H torsion
[ 11005 11000 10999 10996 ] final  -44.31 input  -57.11 | X-H torsion

> <Gold.Protein.ActiveResidues>
 VAL166  LYS551  ARG553  GLY616  TRP617  ASP618  TYR619  PRO620  LYS621  CYS622 
 ASP623  PHE694  ASN695  SER759  ASP760  ASP761  ALA762  ILE779  LEU786  VAL792 
 PHE793  MET794  SER795  GLU796  ALA797  LYS798  CYS799  TRP800  GLU811  SER814 

> <Gold.Protein.RotatedAtoms>
  151.9653  135.0103  160.0549 H   0  0  0  0  0  0  0  0  0  0  0  0  # atno 6907 bound_to 6896
  152.1832  133.4717  159.4977 H   0  0  0  0  0  0  0  0  0  0  0  0  # atno 6908 bound_to 6896
  150.6921  134.1724  159.4260 H   0  0  0  0  0  0  0  0  0  0  0  0  # atno 6909 bound_to 6896
  145.9478  140.7601  142.9520 H   0  0  0  0  0  0  0  0  0  0  0  0  # atno 7974 bound_to 7965
  156.0451  140.1312  157.0113 H   0  0  0  0  0  0  0  0  0  0  0  0  # atno 8008 bound_to 7997
  154.4408  140.1022  156.6364 H   0  0  0  0  0  0  0  0  0  0  0  0  # atno 8009 bound_to 7997
  155.5608  140.3465  155.4493 H   0  0  0  0  0  0  0  0  0  0  0  0  # atno 8010 bound_to 7997
  140.4550  143.2471  151.8433 H   0  0  0  0  0  0  0  0  0  0  0  0  # atno 10167 bound_to 10162
  156.1025  130.6184  150.9149 H   0  0  0  0  0  0  0  0  0  0  0  0  # atno 10718 bound_to 10713
  154.8735  135.3774  154.4530 H   0  0  0  0  0  0  0  0  0  0  0  0  # atno 10763 bound_to 10752
  153.5205  135.7029  153.5739 H   0  0  0  0  0  0  0  0  0  0  0  0  # atno 10764 bound_to 10752
  153.3988  135.3953  155.1939 H   0  0  0  0  0  0  0  0  0  0  0  0  # atno 10765 bound_to 10752
  141.0442  133.6768  156.2854 H   0  0  0  0  0  0  0  0  0  0  0  0  # atno 11005 bound_to 11000
  144.6790  140.2385  143.7346 LP  0  0  0  0  0  0  0  0  0  0  0  0  # atno 17320 bound_to 7965
  145.8213  139.2045  143.1936 LP  0  0  0  0  0  0  0  0  0  0  0  0  # atno 17321 bound_to 7965
  139.4800  144.5075  151.8977 LP  0  0  0  0  0  0  0  0  0  0  0  0  # atno 17342 bound_to 10162
  140.4162  144.2304  150.5887 LP  0  0  0  0  0  0  0  0  0  0  0  0  # atno 17343 bound_to 10162
  157.6197  131.0930  150.8644 LP  0  0  0  0  0  0  0  0  0  0  0  0  # atno 17370 bound_to 10713
  156.8769  130.5166  149.5293 LP  0  0  0  0  0  0  0  0  0  0  0  0  # atno 17371 bound_to 10713
  140.6178  134.5392  157.5543 LP  0  0  0  0  0  0  0  0  0  0  0  0  # atno 17394 bound_to 11000
  139.9298  134.7985  156.0962 LP  0  0  0  0  0  0  0  0  0  0  0  0  # atno 17395 bound_to 11000

$$$$
