AV-unprocessed.smi:1945|AV-procd|sdf|7857|dock9
  -GOLD-   2272010 03D 1   1.00000     0.00000
 Structure written by MMmdl.
 47 48  0  0  0  0  0  0  0  0  1 V2000
  146.5598  134.1689  162.7090 C   0  0  0  0  0  0  0  0  0  0  0  0
  147.1458  134.9495  161.5699 C   0  0  0  0  0  0  0  0  0  0  0  0
  147.5946  136.3021  161.5727 C   0  0  0  0  0  0  0  0  0  0  0  0
  148.0254  136.4790  160.2862 C   0  0  0  0  0  0  0  0  0  0  0  0
  148.5741  137.5836  159.7141 N   0  0  0  0  0  0  0  0  0  0  0  0
  149.6929  137.6760  158.9750 C   0  0  0  0  0  0  0  0  0  0  0  0
  150.4848  136.7573  158.7636 O   0  0  0  0  0  0  0  0  0  0  0  0
  149.8488  138.9154  158.4872 N   0  0  0  0  0  0  0  0  0  0  0  0
  150.9225  139.3386  157.5940 C   0  0  0  0  0  0  0  0  0  0  0  0
  152.3034  139.0876  158.2181 C   0  0  0  0  0  0  0  0  0  0  0  0
  152.9871  140.3254  158.3403 O   0  0  0  0  0  0  0  0  0  0  0  0
  152.2882  141.3265  159.0659 C   0  0  2  0  0  0  0  0  0  0  0  0
  151.5378  142.2389  158.0722 C   0  0  0  0  0  0  0  0  0  0  0  0
  150.8868  143.4349  158.7821 C   0  0  0  0  0  0  0  0  0  0  0  0
  151.9269  144.2351  159.5781 C   0  0  0  0  0  0  0  0  0  0  0  0
  152.6679  143.3339  160.5770 C   0  0  0  0  0  0  0  0  0  0  0  0
  153.3298  142.1294  159.8779 C   0  0  1  0  0  0  0  0  0  0  0  0
  154.0603  141.2432  160.8995 C   0  0  0  0  0  0  0  0  0  0  0  0
  147.8438  135.3045  159.5905 N   0  0  0  0  0  0  0  0  0  0  0  0
  148.1473  134.9947  158.2070 C   0  0  0  0  0  0  0  0  0  0  0  0
  147.2933  134.3630  160.3871 N   0  0  0  0  0  0  0  0  0  0  0  0
  146.5906  134.7417  163.6361 H   0  0  0  0  0  0  0  0  0  0  0  0
  147.1097  133.2421  162.8747 H   0  0  0  0  0  0  0  0  0  0  0  0
  145.5191  133.9105  162.5128 H   0  0  0  0  0  0  0  0  0  0  0  0
  147.5958  137.0046  162.3925 H   0  0  0  0  0  0  0  0  0  0  0  0
  148.0525  138.4382  159.8413 H   0  0  0  0  0  0  0  0  0  0  0  0
  149.1545  139.6094  158.7218 H   0  0  0  0  0  0  0  0  0  0  0  0
  150.8307  138.7593  156.6751 H   0  0  0  0  0  0  0  0  0  0  0  0
  150.8085  140.3867  157.3119 H   0  0  0  0  0  0  0  0  0  0  0  0
  152.1920  138.5911  159.1824 H   0  0  0  0  0  0  0  0  0  0  0  0
  152.8851  138.4235  157.5776 H   0  0  0  0  0  0  0  0  0  0  0  0
  151.5799  140.8682  159.7593 H   0  0  0  0  0  0  0  0  0  0  0  0
  152.2346  142.6030  157.3157 H   0  0  0  0  0  0  0  0  0  0  0  0
  150.7713  141.6786  157.5375 H   0  0  0  0  0  0  0  0  0  0  0  0
  150.4002  144.0809  158.0508 H   0  0  0  0  0  0  0  0  0  0  0  0
  150.1035  143.0806  159.4535 H   0  0  0  0  0  0  0  0  0  0  0  0
  152.6437  144.6889  158.8923 H   0  0  0  0  0  0  0  0  0  0  0  0
  151.4412  145.0560  160.1065 H   0  0  0  0  0  0  0  0  0  0  0  0
  153.4223  143.9196  161.1035 H   0  0  0  0  0  0  0  0  0  0  0  0
  151.9677  142.9810  161.3353 H   0  0  0  0  0  0  0  0  0  0  0  0
  154.0759  142.5164  159.1820 H   0  0  0  0  0  0  0  0  0  0  0  0
  153.3641  140.8123  161.6198 H   0  0  0  0  0  0  0  0  0  0  0  0
  154.8029  141.8162  161.4554 H   0  0  0  0  0  0  0  0  0  0  0  0
  154.5833  140.4211  160.4100 H   0  0  0  0  0  0  0  0  0  0  0  0
  149.1259  135.3968  157.9434 H   0  0  0  0  0  0  0  0  0  0  0  0
  147.3916  135.4405  157.5602 H   0  0  0  0  0  0  0  0  0  0  0  0
  148.1591  133.9151  158.0507 H   0  0  0  0  0  0  0  0  0  0  0  0
  1  2  1  0  0  0  0
  1 22  1  0  0  0  0
  1 23  1  0  0  0  0
  1 24  1  0  0  0  0
  2 21  2  0  0  0  0
  2  3  1  0  0  0  0
  3  4  2  0  0  0  0
  3 25  1  0  0  0  0
  4  5  1  0  0  0  0
  4 19  1  0  0  0  0
  5  6  1  0  0  0  0
  5 26  1  0  0  0  0
  6  7  2  0  0  0  0
  6  8  1  0  0  0  0
  8  9  1  0  0  0  0
  8 27  1  0  0  0  0
  9 10  1  0  0  0  0
  9 28  1  0  0  0  0
  9 29  1  0  0  0  0
 10 11  1  0  0  0  0
 10 30  1  0  0  0  0
 10 31  1  0  0  0  0
 11 12  1  0  0  0  0
 12 17  1  0  0  0  0
 12 13  1  0  0  0  0
 12 32  1  0  0  0  0
 13 14  1  0  0  0  0
 13 33  1  0  0  0  0
 13 34  1  0  0  0  0
 14 15  1  0  0  0  0
 14 35  1  0  0  0  0
 14 36  1  0  0  0  0
 15 16  1  0  0  0  0
 15 37  1  0  0  0  0
 15 38  1  0  0  0  0
 16 17  1  0  0  0  0
 16 39  1  0  0  0  0
 16 40  1  0  0  0  0
 17 18  1  0  0  0  0
 17 41  1  0  0  0  0
 18 42  1  0  0  0  0
 18 43  1  0  0  0  0
 18 44  1  0  0  0  0
 19 20  1  0  0  0  0
 19 21  1  0  0  0  0
 20 45  1  0  0  0  0
 20 46  1  0  0  0  0
 20 47  1  0  0  0  0
M  END
> <s_m_source_file>
AV-unprocessed.smi

> <i_m_source_file_index>
1945

> <i_lp_mmshare_version>
43012

> <i_f3d_flags>
0

> <s_epik_input>
W0NIM11jMVtjSF1jKG4objEpW0NIM10pW05IXUMoPU8pW05IXVtDSDJdW0NIMl1PW0NAQEhdMltDSDJdW0NIMl1bQ0gyXVtDSDJdW0NASF0yW0NIM10=

> <s_epik_cmdline>
J2VwaWtfcHl0aG9uJywgJy1waCcsICc3LjAnLCAnLXRuJywgJzgnLCAnLW1hJywgJzIwMCcsICctbWV0YWxfYmluZGluZycsICctaW1hZScsICc8aW5maWxlLm1hZT4nLCAnLW9tYWUnLCAnPG91dGZpbGUubWFlPic=

> <r_lp_tautomer_probability>
1

> <r_epik_Ionization_Penalty>
9.47735e-05

> <r_epik_Ionization_Penalty_Charging>
0

> <r_epik_Ionization_Penalty_Neutral>
9.47735e-05

> <r_epik_State_Penalty>
-0

> <r_epik_Charging_Adjusted_Penalty>
0

> <i_epik_Tot_Q>
0

> <i_epik_Tot_abs_Q>
0

> <r_epik_Metal_State_Penalty>
-0

> <b_epik_Metal_Only>
0

> <s_lp_Force_Field>
OPLS_2005

> <r_lp_Energy>
11.707

> <b_lp_Chiralities_Consistent>
1

> <s_lp_Variant>
AV-unprocessed.smi:1945-1

> <Gold.Version>
5.8.1

> <Gold.Id.Protein>
6NUR|6NUR_protein|mol2

> <Gold.PLP.Fitness>
44.0852

> <Gold.PLP.PLP>
-40.7690

> <Gold.PLP.part.hbond>
-2.0000

> <Gold.PLP.part.metal>
0.0000

> <Gold.PLP.part.buried>
-4.8060

> <Gold.PLP.part.nonpolar>
-33.8945

> <Gold.PLP.part.repulsive>
0.3850

> <Gold.PLP.ligand.clash>
0.0000

> <Gold.PLP.ligand.torsion>
1.3005

> <Gold.PLP.Chemscore.Hbond>
1.9600

> <Gold.PLP.Chemscore.CHOScore>
0.0000

> <Gold.PLP.Chemscore.Metal>
0.0000

> <Gold.Chemscore.Hbonds>
donor molecule, donor type, donor heavy atom, donor atom, acceptor molecule, acceptor atom, score
      P1  H  6896  6908       L1     7  0.86
      P1  H  7997  8009       L1    11  0.79

> <Gold.PLP.Chemscore.Internal.Correction>
0.0372

> <Gold.Rescore>
     Score         DG    S(hbond)    S(metal)    S(lipo)     H(rot)  DE(clash)    DE(int)     intcor
     18.36     -19.81       1.93        0.00     103.04       1.63       0.01       1.44       ----

> <Gold.Chemscore.Fitness>
18.3564

> <Gold.Chemscore.DG>
-19.8075

> <Gold.Chemscore.ZeroCoef>
-5.4800

> <Gold.Chemscore.Hbond>
1.9306

> <Gold.Chemscore.Metal>
0.0000

> <Gold.Chemscore.Lipo>
103.0430

> <Gold.Chemscore.Internal_Hbond>
0.0000

> <Gold.Chemscore.DEClash>
0.0073

> <Gold.Chemscore.DEInternal>
1.4438

> <Gold.Chemscore.Rot>
1.6316

> <Gold.Chemscore.Internal.Correction>
   9.000000E+99

> <Gold.Chemscore.Hbonds>
donor molecule, donor type, donor heavy atom, donor atom, acceptor molecule, acceptor atom, score
      P1  H  6896  6908       L1     7  0.83
      P1  H  7997  8009       L1    11  0.26

> <Gold.Chemscore.Hbond.Weighted>
-6.4483

> <Gold.Chemscore.Metal.Weighted>
-0.0000

> <Gold.Chemscore.Lipo.Weighted>
-12.0560

> <Gold.Chemscore.Internal_Hbond.Weighted>
0.0000

> <Gold.Chemscore.DEClash.Weighted>
0.0073

> <Gold.Chemscore.DEInternal.Weighted>
1.4438

> <Gold.Chemscore.Rot.Weighted>
4.1768

> <Gold.Chemscore.Internal.Correction.Weighted>
   9.000000E+99

> <Gold.Protein.RotatedTorsions>
[ 6907 6896 6895 6894 ] final -156.32 input  -60.11 | X-H torsion
[ 7974 7965 7964 7962 ] final   63.11 input  175.53 | X-H torsion
[ 8008 7997 7996 7995 ] final  157.11 input   59.86 | X-H torsion
[ 10167 10162 10161 10158 ] final  175.44 input  -65.29 | X-H torsion
[ 10718 10713 10712 10709 ] final   48.65 input   66.30 | X-H torsion
[ 10763 10752 10751 10750 ] final -177.59 input  -60.55 | X-H torsion
[ 11005 11000 10999 10996 ] final   21.48 input  -57.11 | X-H torsion

> <Gold.Protein.ActiveResidues>
 VAL166  LYS551  ARG553  GLY616  TRP617  ASP618  TYR619  PRO620  LYS621  CYS622 
 ASP623  PHE694  ASN695  SER759  ASP760  ASP761  ALA762  ILE779  LEU786  VAL792 
 PHE793  MET794  SER795  GLU796  ALA797  LYS798  CYS799  TRP800  GLU811  SER814 

> <Gold.Protein.RotatedAtoms>
  151.2858  133.4188  159.2629 H   0  0  0  0  0  0  0  0  0  0  0  0  # atno 6907 bound_to 6896
  151.0321  134.9547  159.8127 H   0  0  0  0  0  0  0  0  0  0  0  0  # atno 6908 bound_to 6896
  152.5348  134.2819  159.9063 H   0  0  0  0  0  0  0  0  0  0  0  0  # atno 6909 bound_to 6896
  145.8656  139.3343  143.0793 H   0  0  0  0  0  0  0  0  0  0  0  0  # atno 7974 bound_to 7965
  156.2383  140.1894  156.7058 H   0  0  0  0  0  0  0  0  0  0  0  0  # atno 8008 bound_to 7997
  154.6148  140.0617  156.9568 H   0  0  0  0  0  0  0  0  0  0  0  0  # atno 8009 bound_to 7997
  155.1956  140.3288  155.4354 H   0  0  0  0  0  0  0  0  0  0  0  0  # atno 8010 bound_to 7997
  139.5177  144.3031  152.0360 H   0  0  0  0  0  0  0  0  0  0  0  0  # atno 10167 bound_to 10162
  157.4708  130.8254  149.7986 H   0  0  0  0  0  0  0  0  0  0  0  0  # atno 10718 bound_to 10713
  154.5582  135.2818  155.0944 H   0  0  0  0  0  0  0  0  0  0  0  0  # atno 10763 bound_to 10752
  154.2363  135.6365  153.5196 H   0  0  0  0  0  0  0  0  0  0  0  0  # atno 10764 bound_to 10752
  153.0022  135.5549  154.6169 H   0  0  0  0  0  0  0  0  0  0  0  0  # atno 10765 bound_to 10752
  140.3911  134.1818  155.7662 H   0  0  0  0  0  0  0  0  0  0  0  0  # atno 11005 bound_to 11000
  145.9197  140.9124  143.0411 LP  0  0  0  0  0  0  0  0  0  0  0  0  # atno 17320 bound_to 7965
  144.6726  140.1272  143.7446 LP  0  0  0  0  0  0  0  0  0  0  0  0  # atno 17321 bound_to 7965
  140.2478  144.4201  150.6234 LP  0  0  0  0  0  0  0  0  0  0  0  0  # atno 17342 bound_to 10162
  140.6246  143.2180  151.6624 LP  0  0  0  0  0  0  0  0  0  0  0  0  # atno 17343 bound_to 10162
  156.0072  130.3850  150.2388 LP  0  0  0  0  0  0  0  0  0  0  0  0  # atno 17370 bound_to 10713
  157.0571  131.0079  151.3235 LP  0  0  0  0  0  0  0  0  0  0  0  0  # atno 17371 bound_to 10713
  141.1890  133.8247  157.0972 LP  0  0  0  0  0  0  0  0  0  0  0  0  # atno 17394 bound_to 11000
  140.0406  134.9856  157.0954 LP  0  0  0  0  0  0  0  0  0  0  0  0  # atno 17395 bound_to 11000

$$$$
