AV-unprocessed.smi:2152|AV-procd|sdf|8763|dock3
  -GOLD-   2272011543D 1   1.00000     0.00000
 Structure written by MMmdl.
 41 42  0  0  0  0  0  0  0  0  1 V2000
  151.5096  144.8444  158.5969 C   0  0  0  0  0  0  0  0  0  0  0  0
  152.4326  144.1045  159.5808 C   0  0  1  0  0  0  0  0  0  0  0  0
  151.8285  144.0585  161.0000 C   0  0  0  0  0  0  0  0  0  0  0  0
  152.7720  143.3642  161.9952 C   0  0  0  0  0  0  0  0  0  0  0  0
  153.1504  141.9544  161.5175 C   0  0  0  0  0  0  0  0  0  0  0  0
  153.7563  141.9906  160.1040 C   0  0  0  0  0  0  0  0  0  0  0  0
  152.8251  142.6890  159.0885 C   0  0  1  0  0  0  0  0  0  0  0  0
  151.6382  141.8759  158.8221 N   0  0  0  0  0  0  0  0  0  0  0  0
  151.6225  140.7048  158.1684 C   0  0  0  0  0  0  0  0  0  0  0  0
  152.6286  140.1854  157.6839 O   0  0  0  0  0  0  0  0  0  0  0  0
  150.2519  140.0294  158.0317 C   0  0  0  0  0  0  0  0  0  0  0  0
  149.4431  140.5965  156.9451 N   0  0  0  0  0  0  0  0  0  0  0  0
  149.9275  140.5800  155.6495 C   0  0  0  0  0  0  0  0  0  0  0  0
  149.2437  141.0691  154.5924 C   0  0  0  0  0  0  0  0  0  0  0  0
  147.9217  141.6574  154.7659 C   0  0  0  0  0  0  0  0  0  0  0  0
  147.2521  142.1063  153.8343 O   0  0  0  0  0  0  0  0  0  0  0  0
  147.4527  141.6701  156.0993 N   0  0  0  0  0  0  0  0  0  0  0  0
  146.1357  142.2322  156.3143 C   0  0  0  0  0  0  0  0  0  0  0  0
  148.1694  141.1505  157.2027 C   0  0  0  0  0  0  0  0  0  0  0  0
  147.7188  141.1656  158.3508 O   0  0  0  0  0  0  0  0  0  0  0  0
  150.5393  144.3559  158.5059 H   0  0  0  0  0  0  0  0  0  0  0  0
  151.9547  144.8916  157.6026 H   0  0  0  0  0  0  0  0  0  0  0  0
  151.3312  145.8687  158.9252 H   0  0  0  0  0  0  0  0  0  0  0  0
  153.3531  144.6872  159.6429 H   0  0  0  0  0  0  0  0  0  0  0  0
  151.6173  145.0706  161.3471 H   0  0  0  0  0  0  0  0  0  0  0  0
  150.8712  143.5365  160.9813 H   0  0  0  0  0  0  0  0  0  0  0  0
  153.6756  143.9624  162.1190 H   0  0  0  0  0  0  0  0  0  0  0  0
  152.3008  143.3098  162.9770 H   0  0  0  0  0  0  0  0  0  0  0  0
  153.8602  141.5061  162.2129 H   0  0  0  0  0  0  0  0  0  0  0  0
  152.2673  141.3140  161.5249 H   0  0  0  0  0  0  0  0  0  0  0  0
  154.7075  142.5231  160.1396 H   0  0  0  0  0  0  0  0  0  0  0  0
  153.9925  140.9780  159.7748 H   0  0  0  0  0  0  0  0  0  0  0  0
  153.3712  142.8038  158.1502 H   0  0  0  0  0  0  0  0  0  0  0  0
  150.7616  142.2285  159.1782 H   0  0  0  0  0  0  0  0  0  0  0  0
  150.3768  138.9558  157.8785 H   0  0  0  0  0  0  0  0  0  0  0  0
  149.7282  140.1318  158.9832 H   0  0  0  0  0  0  0  0  0  0  0  0
  150.9018  140.1494  155.4689 H   0  0  0  0  0  0  0  0  0  0  0  0
  149.6789  141.0217  153.6049 H   0  0  0  0  0  0  0  0  0  0  0  0
  145.9197  142.3395  157.3768 H   0  0  0  0  0  0  0  0  0  0  0  0
  145.4207  141.5544  155.8452 H   0  0  0  0  0  0  0  0  0  0  0  0
  146.1158  143.2186  155.8470 H   0  0  0  0  0  0  0  0  0  0  0  0
  1  2  1  0  0  0  0
  1 21  1  0  0  0  0
  1 22  1  0  0  0  0
  1 23  1  0  0  0  0
  2  7  1  0  0  0  0
  2  3  1  0  0  0  0
  2 24  1  0  0  0  0
  3  4  1  0  0  0  0
  3 25  1  0  0  0  0
  3 26  1  0  0  0  0
  4  5  1  0  0  0  0
  4 27  1  0  0  0  0
  4 28  1  0  0  0  0
  5  6  1  0  0  0  0
  5 29  1  0  0  0  0
  5 30  1  0  0  0  0
  6  7  1  0  0  0  0
  6 31  1  0  0  0  0
  6 32  1  0  0  0  0
  7  8  1  0  0  0  0
  7 33  1  0  0  0  0
  8  9  1  0  0  0  0
  8 34  1  0  0  0  0
  9 10  2  0  0  0  0
  9 11  1  0  0  0  0
 11 12  1  0  0  0  0
 11 35  1  0  0  0  0
 11 36  1  0  0  0  0
 12 19  1  0  0  0  0
 12 13  1  0  0  0  0
 13 14  2  0  0  0  0
 13 37  1  0  0  0  0
 14 15  1  0  0  0  0
 14 38  1  0  0  0  0
 15 16  2  0  0  0  0
 15 17  1  0  0  0  0
 17 18  1  0  0  0  0
 17 19  1  0  0  0  0
 18 39  1  0  0  0  0
 18 40  1  0  0  0  0
 18 41  1  0  0  0  0
 19 20  2  0  0  0  0
M  END
> <s_m_source_file>
AV-unprocessed.smi

> <i_m_source_file_index>
2152

> <i_lp_mmshare_version>
43012

> <i_f3d_flags>
0

> <s_epik_input>
W0NIM11bQ0BASF0xW0NIMl1bQ0gyXVtDSDJdW0NIMl1bQ0BIXTFbTkhdQyg9TylbQ0gyXW4yW2NIXVtjSF1jKD1PKW4oW0NIM10pYzI9Tw==

> <s_epik_cmdline>
J2VwaWtfcHl0aG9uJywgJy1waCcsICc3LjAnLCAnLXRuJywgJzgnLCAnLW1hJywgJzIwMCcsICctbWV0YWxfYmluZGluZycsICctaW1hZScsICc8aW5maWxlLm1hZT4nLCAnLW9tYWUnLCAnPG91dGZpbGUubWFlPic=

> <r_lp_tautomer_probability>
1

> <r_epik_Ionization_Penalty>
3.20555e-08

> <r_epik_Ionization_Penalty_Charging>
1.30086e-08

> <r_epik_Ionization_Penalty_Neutral>
1.90469e-08

> <r_epik_State_Penalty>
-0

> <r_epik_Charging_Adjusted_Penalty>
1.30086e-08

> <i_epik_Tot_Q>
0

> <i_epik_Tot_abs_Q>
0

> <r_epik_Metal_State_Penalty>
-0

> <b_epik_Metal_Only>
0

> <s_lp_Force_Field>
OPLS_2005

> <r_lp_Energy>
17.5723

> <b_lp_Chiralities_Consistent>
1

> <s_lp_Variant>
AV-unprocessed.smi:2152-2

> <Gold.Version>
5.8.1

> <Gold.Id.Protein>
6NUR|6NUR_protein|mol2

> <Gold.PLP.Fitness>
46.4227

> <Gold.PLP.PLP>
-44.2092

> <Gold.PLP.part.hbond>
-2.0000

> <Gold.PLP.part.metal>
0.0000

> <Gold.PLP.part.buried>
-4.5991

> <Gold.PLP.part.nonpolar>
-37.5619

> <Gold.PLP.part.repulsive>
0.2933

> <Gold.PLP.ligand.clash>
0.0000

> <Gold.PLP.ligand.torsion>
0.3982

> <Gold.PLP.Chemscore.Hbond>
1.0000

> <Gold.PLP.Chemscore.CHOScore>
0.0000

> <Gold.PLP.Chemscore.Metal>
0.0000

> <Gold.Chemscore.Hbonds>
donor molecule, donor type, donor heavy atom, donor atom, acceptor molecule, acceptor atom, score
      P1  H  7997  8008       L1    10  1.00

> <Gold.PLP.Chemscore.Internal.Correction>
0.0100

> <Gold.Rescore>
     Score         DG    S(hbond)    S(metal)    S(lipo)     H(rot)  DE(clash)    DE(int)     intcor
     16.44     -16.82       0.94        0.00     103.57       1.52       0.02       0.36       ----

> <Gold.Chemscore.Fitness>
16.4391

> <Gold.Chemscore.DG>
-16.8224

> <Gold.Chemscore.ZeroCoef>
-5.4800

> <Gold.Chemscore.Hbond>
0.9363

> <Gold.Chemscore.Metal>
0.0000

> <Gold.Chemscore.Lipo>
103.5654

> <Gold.Chemscore.Internal_Hbond>
0.0000

> <Gold.Chemscore.DEClash>
0.0186

> <Gold.Chemscore.DEInternal>
0.3646

> <Gold.Chemscore.Rot>
1.5242

> <Gold.Chemscore.Internal.Correction>
   9.000000E+99

> <Gold.Chemscore.Hbonds>
donor molecule, donor type, donor heavy atom, donor atom, acceptor molecule, acceptor atom, score
      P1  H  7997  8008       L1    10  0.91

> <Gold.Chemscore.Hbond.Weighted>
-3.1271

> <Gold.Chemscore.Metal.Weighted>
-0.0000

> <Gold.Chemscore.Lipo.Weighted>
-12.1171

> <Gold.Chemscore.Internal_Hbond.Weighted>
0.0000

> <Gold.Chemscore.DEClash.Weighted>
0.0186

> <Gold.Chemscore.DEInternal.Weighted>
0.3646

> <Gold.Chemscore.Rot.Weighted>
3.9019

> <Gold.Chemscore.Internal.Correction.Weighted>
   9.000000E+99

> <Gold.Protein.RotatedTorsions>
[ 6907 6896 6895 6894 ] final   88.65 input  -60.11 | X-H torsion
[ 7974 7965 7964 7962 ] final  110.66 input  175.53 | X-H torsion
[ 8008 7997 7996 7995 ] final  -68.00 input   59.86 | X-H torsion
[ 10167 10162 10161 10158 ] final   90.27 input  -65.29 | X-H torsion
[ 10718 10713 10712 10709 ] final  -88.16 input   66.30 | X-H torsion
[ 10763 10752 10751 10750 ] final -158.41 input  -60.55 | X-H torsion
[ 11005 11000 10999 10996 ] final  177.60 input  -57.11 | X-H torsion

> <Gold.Protein.ActiveResidues>
 VAL166  LYS551  ARG553  GLY616  TRP617  ASP618  TYR619  PRO620  LYS621  CYS622 
 ASP623  PHE694  ASN695  SER759  ASP760  ASP761  ALA762  ILE779  LEU786  VAL792 
 PHE793  MET794  SER795  GLU796  ALA797  LYS798  CYS799  TRP800  GLU811  SER814 

> <Gold.Protein.RotatedAtoms>
  152.5427  134.2088  159.8741 H   0  0  0  0  0  0  0  0  0  0  0  0  # atno 6907 bound_to 6896
  151.2072  133.4570  159.2605 H   0  0  0  0  0  0  0  0  0  0  0  0  # atno 6908 bound_to 6896
  151.0932  134.9941  159.8468 H   0  0  0  0  0  0  0  0  0  0  0  0  # atno 6909 bound_to 6896
  145.2521  139.2735  143.4062 H   0  0  0  0  0  0  0  0  0  0  0  0  # atno 7974 bound_to 7965
  154.4838  140.0881  156.7439 H   0  0  0  0  0  0  0  0  0  0  0  0  # atno 8008 bound_to 7997
  155.4403  140.3453  155.4271 H   0  0  0  0  0  0  0  0  0  0  0  0  # atno 8009 bound_to 7997
  156.1231  140.1479  156.9164 H   0  0  0  0  0  0  0  0  0  0  0  0  # atno 8010 bound_to 7997
  139.8490  144.6603  150.9192 H   0  0  0  0  0  0  0  0  0  0  0  0  # atno 10167 bound_to 10162
  155.9984  130.4826  150.4977 H   0  0  0  0  0  0  0  0  0  0  0  0  # atno 10718 bound_to 10713
  154.7558  135.3104  154.8472 H   0  0  0  0  0  0  0  0  0  0  0  0  # atno 10763 bound_to 10752
  153.9246  135.6792  153.4751 H   0  0  0  0  0  0  0  0  0  0  0  0  # atno 10764 bound_to 10752
  153.1156  135.4846  154.9039 H   0  0  0  0  0  0  0  0  0  0  0  0  # atno 10765 bound_to 10752
  140.3859  134.6905  157.4479 H   0  0  0  0  0  0  0  0  0  0  0  0  # atno 11005 bound_to 11000
  146.3299  140.2914  142.8615 LP  0  0  0  0  0  0  0  0  0  0  0  0  # atno 17320 bound_to 7965
  144.9494  140.8162  143.5581 LP  0  0  0  0  0  0  0  0  0  0  0  0  # atno 17321 bound_to 7965
  140.7790  143.3844  151.1419 LP  0  0  0  0  0  0  0  0  0  0  0  0  # atno 17342 bound_to 10162
  139.7484  143.8816  152.3070 LP  0  0  0  0  0  0  0  0  0  0  0  0  # atno 17343 bound_to 10162
  157.2965  131.0637  151.2098 LP  0  0  0  0  0  0  0  0  0  0  0  0  # atno 17370 bound_to 10713
  157.3092  130.6881  149.6206 LP  0  0  0  0  0  0  0  0  0  0  0  0  # atno 17371 bound_to 10713
  140.0443  134.6222  155.8941 LP  0  0  0  0  0  0  0  0  0  0  0  0  # atno 17394 bound_to 11000
  141.1907  133.6569  156.5426 LP  0  0  0  0  0  0  0  0  0  0  0  0  # atno 17395 bound_to 11000

$$$$
