AV-unprocessed.smi:671|AV-procd|sdf|3275|dock4
  -GOLD-   22720 0233D 1   1.00000     0.00000
 Structure written by MMmdl.
 49 50  0  0  0  0  0  0  0  0  1 V2000
  143.6789  144.4004  157.0309 C   0  0  0  0  0  0  0  0  0  0  0  0
  144.1647  145.7319  157.5287 C   0  0  0  0  0  0  0  0  0  0  0  0
  144.0948  146.7789  156.7242 N   0  0  0  0  0  0  0  0  0  0  0  0
  144.5967  147.8013  157.4449 N   0  0  0  0  0  0  0  0  0  0  0  0
  144.6665  149.1227  156.8519 C   0  0  0  0  0  0  0  0  0  0  0  0
  144.9869  147.3994  158.7073 C   0  0  0  0  0  0  0  0  0  0  0  0
  145.5718  148.3552  159.6968 C   0  0  0  0  0  0  0  0  0  0  0  0
  144.7208  146.0588  158.8011 C   0  0  0  0  0  0  0  0  0  0  0  0
  144.9511  145.1268  159.9645 C   0  0  0  0  0  0  0  0  0  0  0  0
  146.4406  144.7847  160.1619 C   0  0  2  0  0  0  0  0  0  0  0  0
  147.2820  146.0017  160.5883 C   0  0  0  0  0  0  0  0  0  0  0  0
  146.9686  144.2235  158.9156 N   0  0  0  0  0  0  0  0  0  0  0  0
  146.9958  142.9364  158.5245 C   0  0  0  0  0  0  0  0  0  0  0  0
  146.5430  142.0365  159.2293 O   0  0  0  0  0  0  0  0  0  0  0  0
  147.5493  142.7316  157.3176 N   0  0  0  0  0  0  0  0  0  0  0  0
  147.7656  141.4374  156.6718 C   0  0  1  0  0  0  0  0  0  0  0  0
  147.2300  141.4681  155.2252 C   0  0  0  0  0  0  0  0  0  0  0  0
  148.4183  141.1499  154.3111 C   0  0  0  0  0  0  0  0  0  0  0  0
  149.6541  141.4980  155.1355 C   0  0  0  0  0  0  0  0  0  0  0  0
  149.2690  141.0918  156.5586 C   0  0  1  0  0  0  0  0  0  0  0  0
  150.1963  141.6722  157.6418 C   0  0  0  0  0  0  0  0  0  0  0  0
  143.6108  143.6701  157.8368 H   0  0  0  0  0  0  0  0  0  0  0  0
  144.3538  143.9965  156.2762 H   0  0  0  0  0  0  0  0  0  0  0  0
  142.6890  144.4857  156.5819 H   0  0  0  0  0  0  0  0  0  0  0  0
  144.1266  149.8345  157.4765 H   0  0  0  0  0  0  0  0  0  0  0  0
  144.2235  149.1231  155.8551 H   0  0  0  0  0  0  0  0  0  0  0  0
  145.7084  149.4342  156.7744 H   0  0  0  0  0  0  0  0  0  0  0  0
  145.8375  147.8541  160.6269 H   0  0  0  0  0  0  0  0  0  0  0  0
  144.8603  149.1451  159.9373 H   0  0  0  0  0  0  0  0  0  0  0  0
  146.4736  148.8208  159.2987 H   0  0  0  0  0  0  0  0  0  0  0  0
  144.5688  145.5811  160.8795 H   0  0  0  0  0  0  0  0  0  0  0  0
  144.3793  144.2059  159.8469 H   0  0  0  0  0  0  0  0  0  0  0  0
  146.4966  144.0307  160.9488 H   0  0  0  0  0  0  0  0  0  0  0  0
  146.9472  146.4025  161.5450 H   0  0  0  0  0  0  0  0  0  0  0  0
  147.2194  146.8032  159.8515 H   0  0  0  0  0  0  0  0  0  0  0  0
  148.3336  145.7375  160.7024 H   0  0  0  0  0  0  0  0  0  0  0  0
  147.3229  144.8970  158.2516 H   0  0  0  0  0  0  0  0  0  0  0  0
  147.8803  143.5420  156.8149 H   0  0  0  0  0  0  0  0  0  0  0  0
  147.2629  140.6458  157.2301 H   0  0  0  0  0  0  0  0  0  0  0  0
  146.4202  140.7524  155.0800 H   0  0  0  0  0  0  0  0  0  0  0  0
  146.8305  142.4528  154.9757 H   0  0  0  0  0  0  0  0  0  0  0  0
  148.4253  140.0842  154.0785 H   0  0  0  0  0  0  0  0  0  0  0  0
  148.3782  141.6937  153.3670 H   0  0  0  0  0  0  0  0  0  0  0  0
  150.5503  140.9876  154.7813 H   0  0  0  0  0  0  0  0  0  0  0  0
  149.8385  142.5722  155.0870 H   0  0  0  0  0  0  0  0  0  0  0  0
  149.3489  140.0047  156.6117 H   0  0  0  0  0  0  0  0  0  0  0  0
  150.2298  142.7615  157.6088 H   0  0  0  0  0  0  0  0  0  0  0  0
  151.2165  141.3109  157.5108 H   0  0  0  0  0  0  0  0  0  0  0  0
  149.8664  141.3756  158.6378 H   0  0  0  0  0  0  0  0  0  0  0  0
  1  2  1  0  0  0  0
  1 22  1  0  0  0  0
  1 23  1  0  0  0  0
  1 24  1  0  0  0  0
  2  8  1  0  0  0  0
  2  3  2  0  0  0  0
  3  4  1  0  0  0  0
  4  5  1  0  0  0  0
  4  6  1  0  0  0  0
  5 25  1  0  0  0  0
  5 26  1  0  0  0  0
  5 27  1  0  0  0  0
  6  7  1  0  0  0  0
  6  8  2  0  0  0  0
  7 28  1  0  0  0  0
  7 29  1  0  0  0  0
  7 30  1  0  0  0  0
  8  9  1  0  0  0  0
  9 10  1  0  0  0  0
  9 31  1  0  0  0  0
  9 32  1  0  0  0  0
 10 11  1  0  0  0  0
 10 12  1  0  0  0  0
 10 33  1  0  0  0  0
 11 34  1  0  0  0  0
 11 35  1  0  0  0  0
 11 36  1  0  0  0  0
 12 13  1  0  0  0  0
 12 37  1  0  0  0  0
 13 14  2  0  0  0  0
 13 15  1  0  0  0  0
 15 16  1  0  0  0  0
 15 38  1  0  0  0  0
 16 20  1  0  0  0  0
 16 17  1  0  0  0  0
 16 39  1  0  0  0  0
 17 18  1  0  0  0  0
 17 40  1  0  0  0  0
 17 41  1  0  0  0  0
 18 19  1  0  0  0  0
 18 42  1  0  0  0  0
 18 43  1  0  0  0  0
 19 20  1  0  0  0  0
 19 44  1  0  0  0  0
 19 45  1  0  0  0  0
 20 21  1  0  0  0  0
 20 46  1  0  0  0  0
 21 47  1  0  0  0  0
 21 48  1  0  0  0  0
 21 49  1  0  0  0  0
M  END
> <s_m_source_file>
AV-unprocessed.smi

> <i_m_source_file_index>
671

> <i_lp_mmshare_version>
43012

> <i_f3d_flags>
0

> <s_epik_input>
W0NIM11jMW5uKFtDSDNdKWMoW0NIM10pYzFbQ0gyXVtDQEhdKFtDSDNdKVtOSF1DKD1PKVtOSF1bQ0BASF0yW0NIMl1bQ0gyXVtDSDJdW0NASF0yW0NIM10=

> <s_epik_cmdline>
J2VwaWtfcHl0aG9uJywgJy1waCcsICc3LjAnLCAnLXRuJywgJzgnLCAnLW1hJywgJzIwMCcsICctbWV0YWxfYmluZGluZycsICctaW1hZScsICc8aW5maWxlLm1hZT4nLCAnLW9tYWUnLCAnPG91dGZpbGUubWFlPic=

> <r_lp_tautomer_probability>
1

> <r_epik_Ionization_Penalty>
0.0126855

> <r_epik_Ionization_Penalty_Charging>
0

> <r_epik_Ionization_Penalty_Neutral>
0.0126855

> <r_epik_State_Penalty>
0.00977547

> <r_epik_Charging_Adjusted_Penalty>
0.00977547

> <i_epik_Tot_Q>
0

> <i_epik_Tot_abs_Q>
0

> <r_epik_Metal_State_Penalty>
0.00957132

> <b_epik_Metal_Only>
0

> <s_lp_Force_Field>
OPLS_2005

> <r_lp_Energy>
23.5654

> <b_lp_Chiralities_Consistent>
1

> <s_lp_Variant>
AV-unprocessed.smi:671-3

> <Gold.Version>
5.8.1

> <Gold.Id.Protein>
6NUR|6NUR_protein|mol2

> <Gold.PLP.Fitness>
44.2496

> <Gold.PLP.PLP>
-38.2454

> <Gold.PLP.part.hbond>
-3.4155

> <Gold.PLP.part.metal>
0.0000

> <Gold.PLP.part.buried>
-6.3741

> <Gold.PLP.part.nonpolar>
-29.9552

> <Gold.PLP.part.repulsive>
0.1800

> <Gold.PLP.ligand.clash>
0.0000

> <Gold.PLP.ligand.torsion>
0.6242

> <Gold.PLP.Chemscore.Hbond>
2.4100

> <Gold.PLP.Chemscore.CHOScore>
0.0000

> <Gold.PLP.Chemscore.Metal>
0.0000

> <Gold.Chemscore.Hbonds>
donor molecule, donor type, donor heavy atom, donor atom, acceptor molecule, acceptor atom, score
      L1  H    12    37       P1  8029  0.99
      L1  H    15    38       P1  8028  0.30
      P1  H  6934  6946       L1    14  0.91

> <Gold.PLP.Chemscore.Internal.Correction>
0.0227

> <Gold.Rescore>
     Score         DG    S(hbond)    S(metal)    S(lipo)     H(rot)  DE(clash)    DE(int)     intcor
     16.85     -17.43       1.97        0.00      77.68       1.45       0.00       0.59       ----

> <Gold.Chemscore.Fitness>
16.8452

> <Gold.Chemscore.DG>
-17.4329

> <Gold.Chemscore.ZeroCoef>
-5.4800

> <Gold.Chemscore.Hbond>
1.9688

> <Gold.Chemscore.Metal>
0.0000

> <Gold.Chemscore.Lipo>
77.6846

> <Gold.Chemscore.Internal_Hbond>
0.0000

> <Gold.Chemscore.DEClash>
0.0000

> <Gold.Chemscore.DEInternal>
0.5877

> <Gold.Chemscore.Rot>
1.4499

> <Gold.Chemscore.Internal.Correction>
   9.000000E+99

> <Gold.Chemscore.Hbonds>
donor molecule, donor type, donor heavy atom, donor atom, acceptor molecule, acceptor atom, score
      L1  H    12    37       P1  8029  0.89
      P1  H  6934  6946       L1    14  0.89

> <Gold.Chemscore.Hbond.Weighted>
-6.5756

> <Gold.Chemscore.Metal.Weighted>
-0.0000

> <Gold.Chemscore.Lipo.Weighted>
-9.0891

> <Gold.Chemscore.Internal_Hbond.Weighted>
0.0000

> <Gold.Chemscore.DEClash.Weighted>
0.0000

> <Gold.Chemscore.DEInternal.Weighted>
0.5877

> <Gold.Chemscore.Rot.Weighted>
3.7118

> <Gold.Chemscore.Internal.Correction.Weighted>
   9.000000E+99

> <Gold.Protein.RotatedTorsions>
[ 6907 6896 6895 6894 ] final   38.21 input  -60.11 | X-H torsion
[ 7974 7965 7964 7962 ] final  -33.55 input  175.53 | X-H torsion
[ 8008 7997 7996 7995 ] final   35.64 input   59.86 | X-H torsion
[ 10167 10162 10161 10158 ] final   59.39 input  -65.29 | X-H torsion
[ 10718 10713 10712 10709 ] final   19.83 input   66.30 | X-H torsion
[ 10763 10752 10751 10750 ] final -159.45 input  -60.55 | X-H torsion
[ 11005 11000 10999 10996 ] final  -53.62 input  -57.11 | X-H torsion

> <Gold.Protein.ActiveResidues>
 VAL166  LYS551  ARG553  GLY616  TRP617  ASP618  TYR619  PRO620  LYS621  CYS622 
 ASP623  PHE694  ASN695  SER759  ASP760  ASP761  ALA762  ILE779  LEU786  VAL792 
 PHE793  MET794  SER795  GLU796  ALA797  LYS798  CYS799  TRP800  GLU811  SER814 

> <Gold.Protein.RotatedAtoms>
  152.1534  134.8970  160.0546 H   0  0  0  0  0  0  0  0  0  0  0  0  # atno 6907 bound_to 6896
  151.9993  133.3815  159.4184 H   0  0  0  0  0  0  0  0  0  0  0  0  # atno 6908 bound_to 6896
  150.6878  134.3773  159.5062 H   0  0  0  0  0  0  0  0  0  0  0  0  # atno 6909 bound_to 6896
  146.0902  140.5929  142.8868 H   0  0  0  0  0  0  0  0  0  0  0  0  # atno 7974 bound_to 7965
  155.1745  140.3294  155.4386 H   0  0  0  0  0  0  0  0  0  0  0  0  # atno 8008 bound_to 7997
  156.2498  140.1938  156.6796 H   0  0  0  0  0  0  0  0  0  0  0  0  # atno 8009 bound_to 7997
  154.6314  140.0582  156.9723 H   0  0  0  0  0  0  0  0  0  0  0  0  # atno 8010 bound_to 7997
  140.1769  144.4221  150.6634 H   0  0  0  0  0  0  0  0  0  0  0  0  # atno 10167 bound_to 10162
  157.1160  130.6529  149.5910 H   0  0  0  0  0  0  0  0  0  0  0  0  # atno 10718 bound_to 10713
  154.7474  135.3083  154.8620 H   0  0  0  0  0  0  0  0  0  0  0  0  # atno 10763 bound_to 10752
  153.9417  135.6774  153.4748 H   0  0  0  0  0  0  0  0  0  0  0  0  # atno 10764 bound_to 10752
  153.1070  135.4884  154.8895 H   0  0  0  0  0  0  0  0  0  0  0  0  # atno 10765 bound_to 10752
  141.0985  133.6621  156.4199 H   0  0  0  0  0  0  0  0  0  0  0  0  # atno 11005 bound_to 11000
  144.7354  140.4794  143.6907 LP  0  0  0  0  0  0  0  0  0  0  0  0  # atno 17320 bound_to 7965
  145.6054  139.1508  143.3106 LP  0  0  0  0  0  0  0  0  0  0  0  0  # atno 17321 bound_to 7965
  140.6545  143.2234  151.6000 LP  0  0  0  0  0  0  0  0  0  0  0  0  # atno 17342 bound_to 10162
  139.5313  144.2908  152.1154 LP  0  0  0  0  0  0  0  0  0  0  0  0  # atno 17343 bound_to 10162
  155.9839  130.4861  150.6958 LP  0  0  0  0  0  0  0  0  0  0  0  0  # atno 17370 bound_to 10713
  157.4518  131.0873  151.0838 LP  0  0  0  0  0  0  0  0  0  0  0  0  # atno 17371 bound_to 10713
  140.5081  134.6422  157.5274 LP  0  0  0  0  0  0  0  0  0  0  0  0  # atno 17394 bound_to 11000
  139.9829  134.7108  155.9827 LP  0  0  0  0  0  0  0  0  0  0  0  0  # atno 17395 bound_to 11000

$$$$
