AV-unprocessed.smi:1824|AV-procd|sdf|7411|dock2
  -GOLD-   22720 9 83D 1   1.00000     0.00000
 Structure written by MMmdl.
 45 47  0  0  0  0  0  0  0  0  2 V2000
  150.0767  132.6168  155.2487 C   0  0  0  0  0  0  0  0  0  0  0  0
  149.7867  134.0293  155.7673 C   0  0  1  0  0  0  0  0  0  0  0  0
  150.5256  135.1072  154.9528 C   0  0  0  0  0  0  0  0  0  0  0  0
  150.1757  136.4576  155.3860 N   0  0  0  0  0  0  0  0  0  0  0  0
  150.8752  137.4953  154.6262 C   0  0  0  0  0  0  0  0  0  0  0  0
  150.5455  138.9466  155.0283 C   0  0  2  0  0  0  0  0  0  0  0  0
  150.3124  139.6905  153.8485 O   0  0  0  0  0  0  0  0  0  0  0  0
  151.6995  139.5871  155.8241 C   0  0  0  0  0  0  0  0  0  0  0  0
  151.3381  140.8861  156.4105 N   0  0  0  0  0  0  0  0  0  0  0  0
  150.5508  141.8761  155.9087 C   0  0  0  0  0  0  0  0  0  0  0  0
  150.5223  142.8833  156.8250 N   0  3  0  0  0  0  0  0  0  0  0  0
  151.3046  142.5333  157.9280 C   0  0  0  0  0  0  0  0  0  0  0  0
  151.5850  143.2240  159.1026 C   0  0  0  0  0  0  0  0  0  0  0  0
  152.4307  142.5818  160.0310 C   0  0  0  0  0  0  0  0  0  0  0  0
  152.7377  143.2104  161.1904 F   0  0  0  0  0  0  0  0  0  0  0  0
  152.9627  141.3003  159.7749 C   0  0  0  0  0  0  0  0  0  0  0  0
  153.7722  140.7200  160.6923 F   0  0  0  0  0  0  0  0  0  0  0  0
  152.6696  140.6094  158.5808 C   0  0  0  0  0  0  0  0  0  0  0  0
  151.8325  141.2511  157.6686 C   0  0  0  0  0  0  0  0  0  0  0  0
  148.7300  136.6253  155.2818 C   0  0  0  0  0  0  0  0  0  0  0  0
  147.9455  135.5560  156.0676 C   0  0  2  0  0  0  0  0  0  0  0  0
  148.0014  135.7555  157.5921 C   0  0  0  0  0  0  0  0  0  0  0  0
  148.3799  134.2498  155.6864 O   0  0  0  0  0  0  0  0  0  0  0  0
  151.1415  132.3894  155.3043 H   0  0  0  0  0  0  0  0  0  0  0  0
  149.7639  132.5059  154.2101 H   0  0  0  0  0  0  0  0  0  0  0  0
  149.5460  131.8687  155.8382 H   0  0  0  0  0  0  0  0  0  0  0  0
  150.1012  134.0823  156.8100 H   0  0  0  0  0  0  0  0  0  0  0  0
  151.5964  134.9392  155.0567 H   0  0  0  0  0  0  0  0  0  0  0  0
  150.2920  134.9880  153.8935 H   0  0  0  0  0  0  0  0  0  0  0  0
  151.9510  137.3335  154.7124 H   0  0  0  0  0  0  0  0  0  0  0  0
  150.6459  137.3816  153.5654 H   0  0  0  0  0  0  0  0  0  0  0  0
  149.6463  138.9869  155.6415 H   0  0  0  0  0  0  0  0  0  0  0  0
  149.4830  139.4173  153.4859 H   0  0  0  0  0  0  0  0  0  0  0  0
  151.9860  138.9337  156.6492 H   0  0  0  0  0  0  0  0  0  0  0  0
  152.5905  139.7053  155.2073 H   0  0  0  0  0  0  0  0  0  0  0  0
  150.0415  141.8648  154.9556 H   0  0  0  0  0  0  0  0  0  0  0  0
  151.1811  144.2054  159.3027 H   0  0  0  0  0  0  0  0  0  0  0  0
  153.0890  139.6322  158.3933 H   0  0  0  0  0  0  0  0  0  0  0  0
  148.4421  137.6171  155.6331 H   0  0  0  0  0  0  0  0  0  0  0  0
  148.4354  136.5754  154.2322 H   0  0  0  0  0  0  0  0  0  0  0  0
  146.8973  135.6272  155.7759 H   0  0  0  0  0  0  0  0  0  0  0  0
  147.5575  136.7104  157.8743 H   0  0  0  0  0  0  0  0  0  0  0  0
  149.0236  135.7481  157.9700 H   0  0  0  0  0  0  0  0  0  0  0  0
  147.4489  134.9695  158.1073 H   0  0  0  0  0  0  0  0  0  0  0  0
  150.0071  143.7459  156.7024 H   0  0  0  0  0  0  0  0  0  0  0  0
  1  2  1  0  0  0  0
  1 24  1  0  0  0  0
  1 25  1  0  0  0  0
  1 26  1  0  0  0  0
  2 23  1  0  0  0  0
  2  3  1  0  0  0  0
  2 27  1  0  0  0  0
  3  4  1  0  0  0  0
  3 28  1  0  0  0  0
  3 29  1  0  0  0  0
  4  5  1  0  0  0  0
  4 20  1  0  0  0  0
  5  6  1  0  0  0  0
  5 30  1  0  0  0  0
  5 31  1  0  0  0  0
  6  7  1  0  0  0  0
  6  8  1  0  0  0  0
  6 32  1  0  0  0  0
  7 33  1  0  0  0  0
  8  9  1  0  0  0  0
  8 34  1  0  0  0  0
  8 35  1  0  0  0  0
  9 19  1  0  0  0  0
  9 10  1  0  0  0  0
 10 11  2  0  0  0  0
 10 36  1  0  0  0  0
 11 12  1  0  0  0  0
 11 45  1  0  0  0  0
 12 19  2  0  0  0  0
 12 13  1  0  0  0  0
 13 14  2  0  0  0  0
 13 37  1  0  0  0  0
 14 15  1  0  0  0  0
 14 16  1  0  0  0  0
 16 17  1  0  0  0  0
 16 18  2  0  0  0  0
 18 19  1  0  0  0  0
 18 38  1  0  0  0  0
 20 21  1  0  0  0  0
 20 39  1  0  0  0  0
 20 40  1  0  0  0  0
 21 22  1  0  0  0  0
 21 23  1  0  0  0  0
 21 41  1  0  0  0  0
 22 42  1  0  0  0  0
 22 43  1  0  0  0  0
 22 44  1  0  0  0  0
M  CHG  1  11   1
M  END
> <s_m_source_file>
AV-unprocessed.smi

> <i_m_source_file_index>
1824

> <i_lp_mmshare_version>
43012

> <i_f3d_flags>
0

> <s_epik_input>
W0NIM11bQ0BASF0xW0NIMl1OKFtDSDJdW0NASF0oTzEpW0NIM10pW0NIMl1bQ0BIXShbT0hdKVtDSDJdbihbY0hdbjIpYyhjMjMpW2NIXWMoRiljKEYpW2NIXTM=

> <s_epik_cmdline>
J2VwaWtfcHl0aG9uJywgJy1waCcsICc3LjAnLCAnLXRuJywgJzgnLCAnLW1hJywgJzIwMCcsICctbWV0YWxfYmluZGluZycsICctaW1hZScsICc8aW5maWxlLm1hZT4nLCAnLW9tYWUnLCAnPG91dGZpbGUubWFlPic=

> <r_epik_Ionization_Penalty>
2.58709

> <r_epik_Ionization_Penalty_Charging>
2.37273

> <r_epik_Ionization_Penalty_Neutral>
0.214359

> <r_epik_State_Penalty>
2.71799

> <r_epik_Charging_Adjusted_Penalty>
5.09071

> <i_epik_Tot_Q>
1

> <i_epik_Tot_abs_Q>
1

> <r_epik_Metal_State_Penalty>
6.80217

> <b_epik_Metal_Only>
0

> <s_lp_Force_Field>
OPLS_2005

> <r_lp_Energy>
35.2196

> <b_lp_Chiralities_Consistent>
1

> <s_lp_Variant>
AV-unprocessed.smi:1824-19

> <Gold.Version>
5.8.1

> <Gold.Id.Protein>
6NUR|6NUR_protein|mol2

> <Gold.PLP.Fitness>
51.1722

> <Gold.PLP.PLP>
-44.2879

> <Gold.PLP.part.hbond>
-3.0000

> <Gold.PLP.part.metal>
0.0000

> <Gold.PLP.part.buried>
-5.8369

> <Gold.PLP.part.nonpolar>
-36.0135

> <Gold.PLP.part.repulsive>
0.1886

> <Gold.PLP.ligand.clash>
0.0000

> <Gold.PLP.ligand.torsion>
1.0311

> <Gold.PLP.Chemscore.Hbond>
2.9502

> <Gold.PLP.Chemscore.CHOScore>
0.0000

> <Gold.PLP.Chemscore.Metal>
0.0000

> <Gold.Chemscore.Hbonds>
donor molecule, donor type, donor heavy atom, donor atom, acceptor molecule, acceptor atom, score
      L1  H    11    45       P1  8028  1.92
      P1  H  7989  7998       L1     7  0.99

> <Gold.PLP.Chemscore.Internal.Correction>
0.0957

> <Gold.Rescore>
     Score         DG    S(hbond)    S(metal)    S(lipo)     H(rot)  DE(clash)    DE(int)     intcor
     14.74     -16.59       1.89        0.00      91.77       2.32       0.02       1.84       ----

> <Gold.Chemscore.Fitness>
14.7396

> <Gold.Chemscore.DG>
-16.5929

> <Gold.Chemscore.ZeroCoef>
-5.4800

> <Gold.Chemscore.Hbond>
1.8915

> <Gold.Chemscore.Metal>
0.0000

> <Gold.Chemscore.Lipo>
91.7690

> <Gold.Chemscore.Internal_Hbond>
0.0000

> <Gold.Chemscore.DEClash>
0.0174

> <Gold.Chemscore.DEInternal>
1.8359

> <Gold.Chemscore.Rot>
2.3210

> <Gold.Chemscore.Internal.Correction>
   9.000000E+99

> <Gold.Chemscore.Hbonds>
donor molecule, donor type, donor heavy atom, donor atom, acceptor molecule, acceptor atom, score
      L1  H     7    33       P1  7957  0.01
      L1  H    11    45       P1  8028  0.92
      P1  H  7989  7998       L1     7  0.83

> <Gold.Chemscore.Hbond.Weighted>
-6.3176

> <Gold.Chemscore.Metal.Weighted>
-0.0000

> <Gold.Chemscore.Lipo.Weighted>
-10.7370

> <Gold.Chemscore.Internal_Hbond.Weighted>
0.0000

> <Gold.Chemscore.DEClash.Weighted>
0.0174

> <Gold.Chemscore.DEInternal.Weighted>
1.8359

> <Gold.Chemscore.Rot.Weighted>
5.9416

> <Gold.Chemscore.Internal.Correction.Weighted>
   9.000000E+99

> <Gold.Protein.RotatedTorsions>
[ 6907 6896 6895 6894 ] final  -93.67 input  -60.11 | X-H torsion
[ 7974 7965 7964 7962 ] final  -18.54 input  175.53 | X-H torsion
[ 8008 7997 7996 7995 ] final   19.42 input   59.86 | X-H torsion
[ 10167 10162 10161 10158 ] final -131.03 input  -65.29 | X-H torsion
[ 10718 10713 10712 10709 ] final -109.27 input   66.30 | X-H torsion
[ 10763 10752 10751 10750 ] final -129.17 input  -60.55 | X-H torsion
[ 11005 11000 10999 10996 ] final   51.47 input  -57.11 | X-H torsion

> <Gold.Protein.ActiveResidues>
 VAL166  LYS551  ARG553  GLY616  TRP617  ASP618  TYR619  PRO620  LYS621  CYS622 
 ASP623  PHE694  ASN695  SER759  ASP760  ASP761  ALA762  ILE779  LEU786  VAL792 
 PHE793  MET794  SER795  GLU796  ALA797  LYS798  CYS799  TRP800  GLU811  SER814 

> <Gold.Protein.RotatedAtoms>
  150.6927  134.1931  159.4292 H   0  0  0  0  0  0  0  0  0  0  0  0  # atno 6907 bound_to 6896
  151.9900  134.9981  160.0570 H   0  0  0  0  0  0  0  0  0  0  0  0  # atno 6908 bound_to 6896
  152.1676  133.4587  159.4929 H   0  0  0  0  0  0  0  0  0  0  0  0  # atno 6909 bound_to 6896
  146.1887  140.3935  142.8466 H   0  0  0  0  0  0  0  0  0  0  0  0  # atno 7974 bound_to 7965
  154.9205  140.3026  155.5218 H   0  0  0  0  0  0  0  0  0  0  0  0  # atno 8008 bound_to 7997
  156.3010  140.2372  156.4191 H   0  0  0  0  0  0  0  0  0  0  0  0  # atno 8009 bound_to 7997
  154.8335  140.0417  157.1482 H   0  0  0  0  0  0  0  0  0  0  0  0  # atno 8010 bound_to 7997
  139.9232  143.6358  152.2548 H   0  0  0  0  0  0  0  0  0  0  0  0  # atno 10167 bound_to 10162
  156.0528  130.5755  150.8076 H   0  0  0  0  0  0  0  0  0  0  0  0  # atno 10718 bound_to 10713
  154.8757  135.3904  154.3876 H   0  0  0  0  0  0  0  0  0  0  0  0  # atno 10763 bound_to 10752
  153.4616  135.7029  153.6052 H   0  0  0  0  0  0  0  0  0  0  0  0  # atno 10764 bound_to 10752
  153.4548  135.3825  155.2273 H   0  0  0  0  0  0  0  0  0  0  0  0  # atno 10765 bound_to 10752
  140.0930  134.5183  155.8834 H   0  0  0  0  0  0  0  0  0  0  0  0  # atno 11005 bound_to 11000
  144.8445  140.6908  143.6208 LP  0  0  0  0  0  0  0  0  0  0  0  0  # atno 17320 bound_to 7965
  145.3860  139.1626  143.4255 LP  0  0  0  0  0  0  0  0  0  0  0  0  # atno 17321 bound_to 7965
  139.6844  144.7653  151.1550 LP  0  0  0  0  0  0  0  0  0  0  0  0  # atno 17342 bound_to 10162
  140.7657  143.5678  150.9028 LP  0  0  0  0  0  0  0  0  0  0  0  0  # atno 17343 bound_to 10162
  157.5470  131.0942  150.9748 LP  0  0  0  0  0  0  0  0  0  0  0  0  # atno 17370 bound_to 10713
  157.0017  130.5602  149.5312 LP  0  0  0  0  0  0  0  0  0  0  0  0  # atno 17371 bound_to 10713
  141.2084  133.6673  156.6366 LP  0  0  0  0  0  0  0  0  0  0  0  0  # atno 17394 bound_to 11000
  140.3325  134.7917  157.4337 LP  0  0  0  0  0  0  0  0  0  0  0  0  # atno 17395 bound_to 11000

$$$$
