AV-unprocessed.smi:1465|AV-procd|sdf|5952|dock9
  -GOLD-   22720 6 33D 1   1.00000     0.00000
 Structure written by MMmdl.
 54 55  0  0  0  0  0  0  0  0  2 V2000
  152.5775  142.3588  159.3173 C   0  0  0  0  0  0  0  0  0  0  0  0
  151.7594  142.4554  158.1642 O   0  0  0  0  0  0  0  0  0  0  0  0
  151.6443  141.2208  157.4774 C   0  0  0  0  0  0  0  0  0  0  0  0
  151.0087  141.4723  156.1021 C   0  0  0  0  0  0  0  0  0  0  0  0
  150.6179  140.2121  155.4569 N   0  0  0  0  0  0  0  0  0  0  0  0
  149.2395  139.9320  155.3906 C   0  0  0  0  0  0  0  0  0  0  0  0
  148.7581  138.8022  154.8364 C   0  0  0  0  0  0  0  0  0  0  0  0
  147.3127  138.5667  154.8135 C   0  0  0  0  0  0  0  0  0  0  0  0
  146.4943  139.1788  155.5011 O   0  0  0  0  0  0  0  0  0  0  0  0
  146.9367  137.5995  153.9591 N   0  0  0  0  0  0  0  0  0  0  0  0
  145.5666  137.1368  153.7419 C   0  0  2  0  0  0  0  0  0  0  0  0
  145.4433  135.6450  154.0949 C   0  0  0  0  0  0  0  0  0  0  0  0
  146.1534  134.7460  153.0661 C   0  0  0  0  0  0  0  0  0  0  0  0
  145.6524  135.0021  151.6892 N   0  3  2  0  0  0  0  0  0  0  0  0
  146.2145  134.0731  150.6743 C   0  0  0  0  0  0  0  0  0  0  0  0
  145.4415  132.7397  150.5735 C   0  0  0  0  0  0  0  0  0  0  0  0
  145.9665  131.9005  149.3991 C   0  0  0  0  0  0  0  0  0  0  0  0
  143.9257  132.9629  150.4378 C   0  0  0  0  0  0  0  0  0  0  0  0
  145.8271  136.4260  151.3028 C   0  0  0  0  0  0  0  0  0  0  0  0
  145.1074  137.3636  152.2884 C   0  0  0  0  0  0  0  0  0  0  0  0
  149.7268  137.8624  154.2909 C   0  0  0  0  0  0  0  0  0  0  0  0
  151.0473  138.1222  154.3602 C   0  0  0  0  0  0  0  0  0  0  0  0
  151.5621  139.3479  154.9783 C   0  0  0  0  0  0  0  0  0  0  0  0
  152.7683  139.5798  155.0619 O   0  0  0  0  0  0  0  0  0  0  0  0
  152.6353  143.3303  159.8082 H   0  0  0  0  0  0  0  0  0  0  0  0
  153.5915  142.0517  159.0569 H   0  0  0  0  0  0  0  0  0  0  0  0
  152.1681  141.6441  160.0330 H   0  0  0  0  0  0  0  0  0  0  0  0
  152.6295  140.7658  157.3625 H   0  0  0  0  0  0  0  0  0  0  0  0
  151.0272  140.5305  158.0550 H   0  0  0  0  0  0  0  0  0  0  0  0
  150.1376  142.1196  156.2155 H   0  0  0  0  0  0  0  0  0  0  0  0
  151.6980  142.0353  155.4702 H   0  0  0  0  0  0  0  0  0  0  0  0
  148.6109  140.6934  155.8314 H   0  0  0  0  0  0  0  0  0  0  0  0
  147.6630  137.1353  153.4336 H   0  0  0  0  0  0  0  0  0  0  0  0
  144.9114  137.6977  154.4111 H   0  0  0  0  0  0  0  0  0  0  0  0
  145.8405  135.4585  155.0936 H   0  0  0  0  0  0  0  0  0  0  0  0
  144.3875  135.3731  154.1343 H   0  0  0  0  0  0  0  0  0  0  0  0
  147.2313  134.9120  153.0991 H   0  0  0  0  0  0  0  0  0  0  0  0
  145.9897  133.7058  153.3435 H   0  0  0  0  0  0  0  0  0  0  0  0
  146.1935  134.5501  149.6931 H   0  0  0  0  0  0  0  0  0  0  0  0
  147.2669  133.8925  150.8989 H   0  0  0  0  0  0  0  0  0  0  0  0
  145.6143  132.1541  151.4756 H   0  0  0  0  0  0  0  0  0  0  0  0
  145.8192  132.4119  148.4472 H   0  0  0  0  0  0  0  0  0  0  0  0
  145.4540  130.9395  149.3423 H   0  0  0  0  0  0  0  0  0  0  0  0
  147.0323  131.6963  149.5059 H   0  0  0  0  0  0  0  0  0  0  0  0
  143.6885  133.5480  149.5485 H   0  0  0  0  0  0  0  0  0  0  0  0
  143.5192  133.4892  151.3017 H   0  0  0  0  0  0  0  0  0  0  0  0
  143.3955  132.0132  150.3600 H   0  0  0  0  0  0  0  0  0  0  0  0
  146.8905  136.6659  151.2559 H   0  0  0  0  0  0  0  0  0  0  0  0
  145.4225  136.5882  150.3031 H   0  0  0  0  0  0  0  0  0  0  0  0
  144.0328  137.1877  152.2235 H   0  0  0  0  0  0  0  0  0  0  0  0
  145.2584  138.4027  151.9936 H   0  0  0  0  0  0  0  0  0  0  0  0
  149.4147  136.9421  153.8199 H   0  0  0  0  0  0  0  0  0  0  0  0
  151.7477  137.4102  153.9492 H   0  0  0  0  0  0  0  0  0  0  0  0
  144.6560  134.8364  151.7020 H   0  0  0  0  0  0  0  0  0  0  0  0
  1  2  1  0  0  0  0
  1 25  1  0  0  0  0
  1 26  1  0  0  0  0
  1 27  1  0  0  0  0
  2  3  1  0  0  0  0
  3  4  1  0  0  0  0
  3 28  1  0  0  0  0
  3 29  1  0  0  0  0
  4  5  1  0  0  0  0
  4 30  1  0  0  0  0
  4 31  1  0  0  0  0
  5 23  1  0  0  0  0
  5  6  1  0  0  0  0
  6  7  2  0  0  0  0
  6 32  1  0  0  0  0
  7  8  1  0  0  0  0
  7 21  1  0  0  0  0
  8  9  2  0  0  0  0
  8 10  1  0  0  0  0
 10 11  1  0  0  0  0
 10 33  1  0  0  0  0
 11 20  1  0  0  0  0
 11 12  1  0  0  0  0
 11 34  1  0  0  0  0
 12 13  1  0  0  0  0
 12 35  1  0  0  0  0
 12 36  1  0  0  0  0
 13 14  1  0  0  0  0
 13 37  1  0  0  0  0
 13 38  1  0  0  0  0
 14 15  1  0  0  0  0
 14 19  1  0  0  0  0
 14 54  1  0  0  0  0
 15 16  1  0  0  0  0
 15 39  1  0  0  0  0
 15 40  1  0  0  0  0
 16 17  1  0  0  0  0
 16 18  1  0  0  0  0
 16 41  1  0  0  0  0
 17 42  1  0  0  0  0
 17 43  1  0  0  0  0
 17 44  1  0  0  0  0
 18 45  1  0  0  0  0
 18 46  1  0  0  0  0
 18 47  1  0  0  0  0
 19 20  1  0  0  0  0
 19 48  1  0  0  0  0
 19 49  1  0  0  0  0
 20 50  1  0  0  0  0
 20 51  1  0  0  0  0
 21 22  2  0  0  0  0
 21 52  1  0  0  0  0
 22 23  1  0  0  0  0
 22 53  1  0  0  0  0
 23 24  2  0  0  0  0
M  CHG  1  14   1
M  END
> <s_m_source_file>
AV-unprocessed.smi

> <i_m_source_file_index>
1465

> <i_lp_mmshare_version>
43012

> <i_f3d_flags>
0

> <s_epik_input>
W0NIM11PW0NIMl1bQ0gyXW4xW2NIXWMoW2NIXVtjSF1jMT1PKUMoPU8pW05IXVtDSF0yW0NIMl1bQ0gyXU4oW0NIMl1bQ0gyXTIpW0NIMl1bQ0hdKFtDSDNdKVtDSDNd

> <s_epik_cmdline>
J2VwaWtfcHl0aG9uJywgJy1waCcsICc3LjAnLCAnLXRuJywgJzgnLCAnLW1hJywgJzIwMCcsICctbWV0YWxfYmluZGluZycsICctaW1hZScsICc8aW5maWxlLm1hZT4nLCAnLW9tYWUnLCAnPG91dGZpbGUubWFlPic=

> <r_lp_tautomer_probability>
1

> <r_epik_Ionization_Penalty>
0.00386091

> <r_epik_Ionization_Penalty_Charging>
0.0038603

> <r_epik_Ionization_Penalty_Neutral>
6.13806e-07

> <r_epik_State_Penalty>
0.00275716

> <r_epik_Charging_Adjusted_Penalty>
0.00661746

> <i_epik_Tot_Q>
1

> <i_epik_Tot_abs_Q>
1

> <r_epik_Metal_State_Penalty>
-0

> <b_epik_Metal_Only>
0

> <s_lp_Force_Field>
OPLS_2005

> <r_lp_Energy>
34.4783

> <b_lp_Chiralities_Consistent>
1

> <s_lp_Variant>
AV-unprocessed.smi:1465-2

> <Gold.Version>
5.8.1

> <Gold.Id.Protein>
6NUR|6NUR_protein|mol2

> <Gold.PLP.Fitness>
42.1770

> <Gold.PLP.PLP>
-39.2521

> <Gold.PLP.part.hbond>
-2.2108

> <Gold.PLP.part.metal>
0.0000

> <Gold.PLP.part.buried>
-3.5588

> <Gold.PLP.part.nonpolar>
-33.9613

> <Gold.PLP.part.repulsive>
0.0539

> <Gold.PLP.ligand.clash>
0.0000

> <Gold.PLP.ligand.torsion>
0.6916

> <Gold.PLP.Chemscore.Hbond>
1.3900

> <Gold.PLP.Chemscore.CHOScore>
0.0000

> <Gold.PLP.Chemscore.Metal>
0.0000

> <Gold.Chemscore.Hbonds>
donor molecule, donor type, donor heavy atom, donor atom, acceptor molecule, acceptor atom, score
      L1  H    10    33       P1  7948  0.52
      P1  H  7997  8010       L1    24  1.00

> <Gold.PLP.Chemscore.Internal.Correction>
0.1382

> <Gold.Rescore>
     Score         DG    S(hbond)    S(metal)    S(lipo)     H(rot)  DE(clash)    DE(int)     intcor
     17.36     -18.20       1.66        0.00     100.17       1.78       0.12       0.72       ----

> <Gold.Chemscore.Fitness>
17.3620

> <Gold.Chemscore.DG>
-18.1979

> <Gold.Chemscore.ZeroCoef>
-5.4800

> <Gold.Chemscore.Hbond>
1.6607

> <Gold.Chemscore.Metal>
0.0000

> <Gold.Chemscore.Lipo>
100.1726

> <Gold.Chemscore.Internal_Hbond>
0.0000

> <Gold.Chemscore.DEClash>
0.1185

> <Gold.Chemscore.DEInternal>
0.7175

> <Gold.Chemscore.Rot>
1.7769

> <Gold.Chemscore.Internal.Correction>
   9.000000E+99

> <Gold.Chemscore.Hbonds>
donor molecule, donor type, donor heavy atom, donor atom, acceptor molecule, acceptor atom, score
      L1  H    10    33       P1  7948  0.52
      P1  H  7997  8010       L1    24  0.98

> <Gold.Chemscore.Hbond.Weighted>
-5.5467

> <Gold.Chemscore.Metal.Weighted>
-0.0000

> <Gold.Chemscore.Lipo.Weighted>
-11.7202

> <Gold.Chemscore.Internal_Hbond.Weighted>
0.0000

> <Gold.Chemscore.DEClash.Weighted>
0.1185

> <Gold.Chemscore.DEInternal.Weighted>
0.7175

> <Gold.Chemscore.Rot.Weighted>
4.5490

> <Gold.Chemscore.Internal.Correction.Weighted>
   9.000000E+99

> <Gold.Protein.RotatedTorsions>
[ 6907 6896 6895 6894 ] final  -58.86 input  -60.11 | X-H torsion
[ 7974 7965 7964 7962 ] final   91.49 input  175.53 | X-H torsion
[ 8008 7997 7996 7995 ] final  106.66 input   59.86 | X-H torsion
[ 10167 10162 10161 10158 ] final  -94.63 input  -65.29 | X-H torsion
[ 10718 10713 10712 10709 ] final  -76.59 input   66.30 | X-H torsion
[ 10763 10752 10751 10750 ] final  169.29 input  -60.55 | X-H torsion
[ 11005 11000 10999 10996 ] final  -60.76 input  -57.11 | X-H torsion

> <Gold.Protein.ActiveResidues>
 VAL166  LYS551  ARG553  GLY616  TRP617  ASP618  TYR619  PRO620  LYS621  CYS622 
 ASP623  PHE694  ASN695  SER759  ASP760  ASP761  ALA762  ILE779  LEU786  VAL792 
 PHE793  MET794  SER795  GLU796  ALA797  LYS798  CYS799  TRP800  GLU811  SER814 

> <Gold.Protein.RotatedAtoms>
  150.7974  134.7044  159.6567 H   0  0  0  0  0  0  0  0  0  0  0  0  # atno 6907 bound_to 6896
  152.4088  134.6157  160.0047 H   0  0  0  0  0  0  0  0  0  0  0  0  # atno 6908 bound_to 6896
  151.6406  133.3289  159.3165 H   0  0  0  0  0  0  0  0  0  0  0  0  # atno 6909 bound_to 6896
  145.5050  139.2276  143.2756 H   0  0  0  0  0  0  0  0  0  0  0  0  # atno 7974 bound_to 7965
  156.1761  140.3109  155.9062 H   0  0  0  0  0  0  0  0  0  0  0  0  # atno 8008 bound_to 7997
  155.3484  140.0469  157.3063 H   0  0  0  0  0  0  0  0  0  0  0  0  # atno 8009 bound_to 7997
  154.5292  140.2224  155.8845 H   0  0  0  0  0  0  0  0  0  0  0  0  # atno 8010 bound_to 7997
  140.3125  143.3096  152.0133 H   0  0  0  0  0  0  0  0  0  0  0  0  # atno 10167 bound_to 10162
  156.0170  130.4469  150.3217 H   0  0  0  0  0  0  0  0  0  0  0  0  # atno 10718 bound_to 10713
  154.3809  135.2753  155.2211 H   0  0  0  0  0  0  0  0  0  0  0  0  # atno 10763 bound_to 10752
  154.4318  135.5975  153.6077 H   0  0  0  0  0  0  0  0  0  0  0  0  # atno 10764 bound_to 10752
  152.9834  135.5997  154.4052 H   0  0  0  0  0  0  0  0  0  0  0  0  # atno 10765 bound_to 10752
  141.1299  133.6624  156.5272 H   0  0  0  0  0  0  0  0  0  0  0  0  # atno 11005 bound_to 11000
  146.2202  140.5853  142.9020 LP  0  0  0  0  0  0  0  0  0  0  0  0  # atno 17320 bound_to 7965
  144.7759  140.5738  143.6638 LP  0  0  0  0  0  0  0  0  0  0  0  0  # atno 17321 bound_to 7965
  139.4891  144.6374  151.6948 LP  0  0  0  0  0  0  0  0  0  0  0  0  # atno 17342 bound_to 10162
  140.5556  144.0354  150.6146 LP  0  0  0  0  0  0  0  0  0  0  0  0  # atno 17343 bound_to 10162
  157.1317  131.0273  151.2966 LP  0  0  0  0  0  0  0  0  0  0  0  0  # atno 17370 bound_to 10713
  157.4545  130.7617  149.7181 LP  0  0  0  0  0  0  0  0  0  0  0  0  # atno 17371 bound_to 10713
  140.4245  134.7158  157.4908 LP  0  0  0  0  0  0  0  0  0  0  0  0  # atno 17394 bound_to 11000
  140.0337  134.6369  155.9072 LP  0  0  0  0  0  0  0  0  0  0  0  0  # atno 17395 bound_to 11000

$$$$
