AV-unprocessed.smi:3228|AV-procd|sdf|12321|dock8
  -GOLD-   2272018173D 1   1.00000     0.00000
 Structure written by MMmdl.
 31 32  0  0  0  0  0  0  0  0  1 V2000
  144.4504  136.2830  151.7039 O   0  0  0  0  0  0  0  0  0  0  0  0
  145.6663  136.1257  151.8179 C   0  0  0  0  0  0  0  0  0  0  0  0
  146.5047  137.1019  152.1947 N   0  0  0  0  0  0  0  0  0  0  0  0
  146.1059  138.4694  152.5129 C   0  0  0  0  0  0  0  0  0  0  0  0
  147.3163  139.3698  152.8405 C   0  0  2  0  0  0  0  0  0  0  0  0
  148.1754  138.8693  154.0073 C   0  0  0  0  0  0  0  0  0  0  0  0
  148.9359  140.1005  154.5239 C   0  0  0  0  0  0  0  0  0  0  0  0
  148.3041  141.3249  153.8426 C   0  0  0  0  0  0  0  0  0  0  0  0
  147.0014  140.8293  153.2061 C   0  0  2  0  0  0  0  0  0  0  0  0
  145.9617  140.9112  154.1638 O   0  0  0  0  0  0  0  0  0  0  0  0
  146.3263  134.9765  151.5901 N   0  0  0  0  0  0  0  0  0  0  0  0
  145.7962  133.7309  151.1620 C   0  0  0  0  0  0  0  0  0  0  0  0
  146.5383  132.6632  150.8452 N   0  0  0  0  0  0  0  0  0  0  0  0
  145.7529  131.5732  150.4621 C   0  0  0  0  0  0  0  0  0  0  0  0
  144.4049  131.8304  150.4927 C   0  0  0  0  0  0  0  0  0  0  0  0
  144.0662  133.4615  151.0070 S   0  0  0  0  0  0  0  0  0  0  0  0
  147.4888  136.8869  152.2602 H   0  0  0  0  0  0  0  0  0  0  0  0
  145.5519  138.8682  151.6627 H   0  0  0  0  0  0  0  0  0  0  0  0
  145.4071  138.4634  153.3511 H   0  0  0  0  0  0  0  0  0  0  0  0
  147.9643  139.3945  151.9624 H   0  0  0  0  0  0  0  0  0  0  0  0
  147.5370  138.4790  154.8011 H   0  0  0  0  0  0  0  0  0  0  0  0
  148.8473  138.0655  153.7047 H   0  0  0  0  0  0  0  0  0  0  0  0
  148.8488  140.1699  155.6085 H   0  0  0  0  0  0  0  0  0  0  0  0
  149.9982  140.0375  154.2865 H   0  0  0  0  0  0  0  0  0  0  0  0
  148.1536  142.1586  154.5299 H   0  0  0  0  0  0  0  0  0  0  0  0
  148.9730  141.6753  153.0556 H   0  0  0  0  0  0  0  0  0  0  0  0
  146.7254  141.4215  152.3332 H   0  0  0  0  0  0  0  0  0  0  0  0
  145.1787  140.5383  153.7893 H   0  0  0  0  0  0  0  0  0  0  0  0
  147.3253  134.9957  151.7325 H   0  0  0  0  0  0  0  0  0  0  0  0
  146.2377  130.6496  150.1819 H   0  0  0  0  0  0  0  0  0  0  0  0
  143.5940  131.1618  150.2452 H   0  0  0  0  0  0  0  0  0  0  0  0
  1  2  2  0  0  0  0
  2  3  1  0  0  0  0
  2 11  1  0  0  0  0
  3  4  1  0  0  0  0
  3 17  1  0  0  0  0
  4  5  1  0  0  0  0
  4 18  1  0  0  0  0
  4 19  1  0  0  0  0
  5  9  1  0  0  0  0
  5  6  1  0  0  0  0
  5 20  1  0  0  0  0
  6  7  1  0  0  0  0
  6 21  1  0  0  0  0
  6 22  1  0  0  0  0
  7  8  1  0  0  0  0
  7 23  1  0  0  0  0
  7 24  1  0  0  0  0
  8  9  1  0  0  0  0
  8 25  1  0  0  0  0
  8 26  1  0  0  0  0
  9 10  1  0  0  0  0
  9 27  1  0  0  0  0
 10 28  1  0  0  0  0
 11 12  1  0  0  0  0
 11 29  1  0  0  0  0
 12 16  1  0  0  0  0
 12 13  2  0  0  0  0
 13 14  1  0  0  0  0
 14 15  2  0  0  0  0
 14 30  1  0  0  0  0
 15 16  1  0  0  0  0
 15 31  1  0  0  0  0
M  END
> <s_m_source_file>
AV-unprocessed.smi

> <i_m_source_file_index>
3228

> <i_lp_mmshare_version>
43012

> <i_f3d_flags>
0

> <s_epik_input>
czFbY0hdW2NIXW5jMVtOSF1DKD1PKVtOSF1bQ0gyXVtDQEBIXTJbQ0gyXVtDSDJdW0NIMl1bQ0BIXTJbT0hd

> <s_epik_cmdline>
J2VwaWtfcHl0aG9uJywgJy1waCcsICc3LjAnLCAnLXRuJywgJzgnLCAnLW1hJywgJzIwMCcsICctbWV0YWxfYmluZGluZycsICctaW1hZScsICc8aW5maWxlLm1hZT4nLCAnLW9tYWUnLCAnPG91dGZpbGUubWFlPic=

> <r_lp_tautomer_probability>
0.999

> <r_epik_Ionization_Penalty>
0.000399498

> <r_epik_Ionization_Penalty_Charging>
0

> <r_epik_Ionization_Penalty_Neutral>
0.000399498

> <r_epik_State_Penalty>
0.000177984

> <r_epik_Charging_Adjusted_Penalty>
0.000177984

> <i_epik_Tot_Q>
0

> <i_epik_Tot_abs_Q>
0

> <r_epik_Metal_State_Penalty>
0.0060793

> <b_epik_Metal_Only>
0

> <s_lp_Force_Field>
OPLS_2005

> <r_lp_Energy>
23.3722

> <b_lp_Chiralities_Consistent>
1

> <s_lp_Variant>
AV-unprocessed.smi:3228-3

> <Gold.Version>
5.8.1

> <Gold.Id.Protein>
6NUR|6NUR_protein|mol2

> <Gold.PLP.Fitness>
38.6027

> <Gold.PLP.PLP>
-28.9752

> <Gold.PLP.part.hbond>
-3.0000

> <Gold.PLP.part.metal>
0.0000

> <Gold.PLP.part.buried>
-1.5773

> <Gold.PLP.part.nonpolar>
-25.8304

> <Gold.PLP.part.repulsive>
1.3855

> <Gold.PLP.ligand.clash>
0.0000

> <Gold.PLP.ligand.torsion>
0.0148

> <Gold.PLP.Chemscore.Hbond>
2.8960

> <Gold.PLP.Chemscore.CHOScore>
0.3226

> <Gold.PLP.Chemscore.Metal>
0.0000

> <Gold.Chemscore.Hbonds>
donor molecule, donor type, donor heavy atom, donor atom, acceptor molecule, acceptor atom, score
      L1  H     3    17       P1  7948  1.00
      L1  H    10    28       P1 10175  1.00
      L1  H    11    29       P1  7948  0.90
      L1  C    14    30       P1 10747  0.33

> <Gold.PLP.Chemscore.Internal.Correction>
0.0011

> <Gold.Rescore>
     Score         DG    S(hbond)    S(metal)    S(lipo)     H(rot)  DE(clash)    DE(int)     intcor
     15.59     -17.52       2.70        0.00      66.85       1.88       0.70       1.23       ----

> <Gold.Chemscore.Fitness>
15.5913

> <Gold.Chemscore.DG>
-17.5178

> <Gold.Chemscore.ZeroCoef>
-5.4800

> <Gold.Chemscore.Hbond>
2.7023

> <Gold.Chemscore.Metal>
0.0000

> <Gold.Chemscore.Lipo>
66.8490

> <Gold.Chemscore.Internal_Hbond>
0.0000

> <Gold.Chemscore.DEClash>
0.7001

> <Gold.Chemscore.DEInternal>
1.2264

> <Gold.Chemscore.Rot>
1.8786

> <Gold.Chemscore.Internal.Correction>
   9.000000E+99

> <Gold.Chemscore.Hbonds>
donor molecule, donor type, donor heavy atom, donor atom, acceptor molecule, acceptor atom, score
      L1  H     3    17       P1  7948  0.99
      L1  H    10    28       P1 10175  0.94
      L1  H    11    29       P1  7948  0.72

> <Gold.Chemscore.Hbond.Weighted>
-9.0256

> <Gold.Chemscore.Metal.Weighted>
-0.0000

> <Gold.Chemscore.Lipo.Weighted>
-7.8213

> <Gold.Chemscore.Internal_Hbond.Weighted>
0.0000

> <Gold.Chemscore.DEClash.Weighted>
0.7001

> <Gold.Chemscore.DEInternal.Weighted>
1.2264

> <Gold.Chemscore.Rot.Weighted>
4.8091

> <Gold.Chemscore.Internal.Correction.Weighted>
   9.000000E+99

> <Gold.Protein.RotatedTorsions>
[ 6907 6896 6895 6894 ] final   95.15 input  -60.11 | X-H torsion
[ 7974 7965 7964 7962 ] final   31.17 input  175.53 | X-H torsion
[ 8008 7997 7996 7995 ] final -158.91 input   59.86 | X-H torsion
[ 10167 10162 10161 10158 ] final   46.53 input  -65.29 | X-H torsion
[ 10718 10713 10712 10709 ] final -144.23 input   66.30 | X-H torsion
[ 10763 10752 10751 10750 ] final   39.70 input  -60.55 | X-H torsion
[ 11005 11000 10999 10996 ] final  -39.71 input  -57.11 | X-H torsion

> <Gold.Protein.ActiveResidues>
 VAL166  LYS551  ARG553  GLY616  TRP617  ASP618  TYR619  PRO620  LYS621  CYS622 
 ASP623  PHE694  ASN695  SER759  ASP760  ASP761  ALA762  ILE779  LEU786  VAL792 
 PHE793  MET794  SER795  GLU796  ALA797  LYS798  CYS799  TRP800  GLU811  SER814 

> <Gold.Protein.RotatedAtoms>
  152.5445  134.1085  159.8347 H   0  0  0  0  0  0  0  0  0  0  0  0  # atno 6907 bound_to 6896
  151.1154  133.5135  159.2611 H   0  0  0  0  0  0  0  0  0  0  0  0  # atno 6908 bound_to 6896
  151.1838  135.0382  159.8858 H   0  0  0  0  0  0  0  0  0  0  0  0  # atno 6909 bound_to 6896
  146.1567  139.6692  142.9062 H   0  0  0  0  0  0  0  0  0  0  0  0  # atno 7974 bound_to 7965
  155.7546  140.0831  157.2184 H   0  0  0  0  0  0  0  0  0  0  0  0  # atno 8008 bound_to 7997
  154.4009  140.1554  156.2819 H   0  0  0  0  0  0  0  0  0  0  0  0  # atno 8009 bound_to 7997
  155.8897  140.3416  155.5950 H   0  0  0  0  0  0  0  0  0  0  0  0  # atno 8010 bound_to 7997
  140.3130  144.2797  150.6196 H   0  0  0  0  0  0  0  0  0  0  0  0  # atno 10167 bound_to 10162
  156.3676  130.7771  151.1947 H   0  0  0  0  0  0  0  0  0  0  0  0  # atno 10718 bound_to 10713
  152.9959  135.6213  154.2508 H   0  0  0  0  0  0  0  0  0  0  0  0  # atno 10763 bound_to 10752
  154.2246  135.2794  155.2914 H   0  0  0  0  0  0  0  0  0  0  0  0  # atno 10764 bound_to 10752
  154.5500  135.5736  153.6972 H   0  0  0  0  0  0  0  0  0  0  0  0  # atno 10765 bound_to 10752
  141.0122  133.6902  156.2223 H   0  0  0  0  0  0  0  0  0  0  0  0  # atno 11005 bound_to 11000
  145.4691  141.0435  143.2709 LP  0  0  0  0  0  0  0  0  0  0  0  0  # atno 17320 bound_to 7965
  144.7972  139.6210  143.7087 LP  0  0  0  0  0  0  0  0  0  0  0  0  # atno 17321 bound_to 7965
  140.5551  143.2200  151.7861 LP  0  0  0  0  0  0  0  0  0  0  0  0  # atno 17342 bound_to 10162
  139.4890  144.4424  151.9749 LP  0  0  0  0  0  0  0  0  0  0  0  0  # atno 17343 bound_to 10162
  157.7480  131.0382  150.4490 LP  0  0  0  0  0  0  0  0  0  0  0  0  # atno 17370 bound_to 10713
  156.4712  130.4053  149.6517 LP  0  0  0  0  0  0  0  0  0  0  0  0  # atno 17371 bound_to 10713
  140.6715  134.4863  157.5587 LP  0  0  0  0  0  0  0  0  0  0  0  0  # atno 17394 bound_to 11000
  139.9096  134.8373  156.1577 LP  0  0  0  0  0  0  0  0  0  0  0  0  # atno 17395 bound_to 11000

$$$$
