AV-unprocessed.smi:2241|AV-procd|sdf|9058|dock5
  -GOLD-   2272012263D 1   1.00000     0.00000
 Structure written by MMmdl.
 45 47  0  0  0  0  0  0  0  0  1 V2000
  151.8522  144.9112  158.9372 C   0  0  0  0  0  0  0  0  0  0  0  0
  152.3636  143.4995  159.1398 C   0  0  0  0  0  0  0  0  0  0  0  0
  153.0900  143.1680  160.3002 C   0  0  0  0  0  0  0  0  0  0  0  0
  153.5611  141.8552  160.4822 C   0  0  0  0  0  0  0  0  0  0  0  0
  153.3079  140.8703  159.5078 C   0  0  0  0  0  0  0  0  0  0  0  0
  153.8983  139.2662  159.7577 Cl  0  0  0  0  0  0  0  0  0  0  0  0
  152.5789  141.1855  158.3396 C   0  0  0  0  0  0  0  0  0  0  0  0
  152.3685  140.1694  157.4302 O   0  0  0  0  0  0  0  0  0  0  0  0
  151.6838  140.4721  156.2226 C   0  0  0  0  0  0  0  0  0  0  0  0
  151.2874  139.1522  155.5370 C   0  0  2  0  0  0  0  0  0  0  0  0
  150.6692  139.4626  154.3054 O   0  0  0  0  0  0  0  0  0  0  0  0
  150.2824  138.3026  156.3498 C   0  0  0  0  0  0  0  0  0  0  0  0
  150.1178  136.9370  155.8202 N   0  0  0  0  0  0  0  0  0  0  0  0
  148.8434  136.5975  155.3244 C   0  0  0  0  0  0  0  0  0  0  0  0
  148.5881  135.4216  154.8463 N   0  0  0  0  0  0  0  0  0  0  0  0
  149.5960  134.4512  154.8096 C   0  0  0  0  0  0  0  0  0  0  0  0
  149.2294  133.0738  154.2746 C   0  0  0  0  0  0  0  0  0  0  0  0
  148.5969  133.0351  152.8728 C   0  0  0  0  0  0  0  0  0  0  0  0
  147.6739  131.9264  153.3910 C   0  0  0  0  0  0  0  0  0  0  0  0
  147.9137  132.4775  154.8010 C   0  0  0  0  0  0  0  0  0  0  0  0
  150.8397  134.7329  155.2657 C   0  0  0  0  0  0  0  0  0  0  0  0
  151.1605  136.0560  155.8005 C   0  0  0  0  0  0  0  0  0  0  0  0
  152.2848  136.3513  156.2063 O   0  0  0  0  0  0  0  0  0  0  0  0
  152.1079  142.5125  158.1659 C   0  0  0  0  0  0  0  0  0  0  0  0
  152.3835  145.6188  159.5747 H   0  0  0  0  0  0  0  0  0  0  0  0
  150.7899  144.9643  159.1763 H   0  0  0  0  0  0  0  0  0  0  0  0
  151.9876  145.2236  157.9014 H   0  0  0  0  0  0  0  0  0  0  0  0
  153.2882  143.9170  161.0530 H   0  0  0  0  0  0  0  0  0  0  0  0
  154.1181  141.6035  161.3726 H   0  0  0  0  0  0  0  0  0  0  0  0
  150.7896  141.0386  156.4818 H   0  0  0  0  0  0  0  0  0  0  0  0
  152.2895  141.0890  155.5564 H   0  0  0  0  0  0  0  0  0  0  0  0
  152.1814  138.5637  155.3287 H   0  0  0  0  0  0  0  0  0  0  0  0
  149.9204  138.8961  154.1968 H   0  0  0  0  0  0  0  0  0  0  0  0
  150.5791  138.2943  157.4007 H   0  0  0  0  0  0  0  0  0  0  0  0
  149.3062  138.7921  156.3449 H   0  0  0  0  0  0  0  0  0  0  0  0
  148.0916  137.3868  155.3778 H   0  0  0  0  0  0  0  0  0  0  0  0
  150.0593  132.3706  154.3655 H   0  0  0  0  0  0  0  0  0  0  0  0
  148.0482  133.9427  152.6138 H   0  0  0  0  0  0  0  0  0  0  0  0
  149.2742  132.7311  152.0743 H   0  0  0  0  0  0  0  0  0  0  0  0
  146.6419  131.9900  153.0441 H   0  0  0  0  0  0  0  0  0  0  0  0
  148.0896  130.9273  153.2497 H   0  0  0  0  0  0  0  0  0  0  0  0
  148.0329  131.7184  155.5747 H   0  0  0  0  0  0  0  0  0  0  0  0
  147.1759  133.2311  155.0840 H   0  0  0  0  0  0  0  0  0  0  0  0
  151.6107  133.9765  155.2405 H   0  0  0  0  0  0  0  0  0  0  0  0
  151.5462  142.7985  157.2897 H   0  0  0  0  0  0  0  0  0  0  0  0
  1  2  1  0  0  0  0
  1 25  1  0  0  0  0
  1 26  1  0  0  0  0
  1 27  1  0  0  0  0
  2 24  1  0  0  0  0
  2  3  2  0  0  0  0
  3  4  1  0  0  0  0
  3 28  1  0  0  0  0
  4  5  2  0  0  0  0
  4 29  1  0  0  0  0
  5  6  1  0  0  0  0
  5  7  1  0  0  0  0
  7  8  1  0  0  0  0
  7 24  2  0  0  0  0
  8  9  1  0  0  0  0
  9 10  1  0  0  0  0
  9 30  1  0  0  0  0
  9 31  1  0  0  0  0
 10 11  1  0  0  0  0
 10 12  1  0  0  0  0
 10 32  1  0  0  0  0
 11 33  1  0  0  0  0
 12 13  1  0  0  0  0
 12 34  1  0  0  0  0
 12 35  1  0  0  0  0
 13 22  1  0  0  0  0
 13 14  1  0  0  0  0
 14 15  2  0  0  0  0
 14 36  1  0  0  0  0
 15 16  1  0  0  0  0
 16 17  1  0  0  0  0
 16 21  2  0  0  0  0
 17 20  1  0  0  0  0
 17 18  1  0  0  0  0
 17 37  1  0  0  0  0
 18 19  1  0  0  0  0
 18 38  1  0  0  0  0
 18 39  1  0  0  0  0
 19 20  1  0  0  0  0
 19 40  1  0  0  0  0
 19 41  1  0  0  0  0
 20 42  1  0  0  0  0
 20 43  1  0  0  0  0
 21 22  1  0  0  0  0
 21 44  1  0  0  0  0
 22 23  2  0  0  0  0
 24 45  1  0  0  0  0
M  END
> <s_m_source_file>
AV-unprocessed.smi

> <i_m_source_file_index>
2241

> <i_lp_mmshare_version>
43012

> <i_f3d_flags>
0

> <s_epik_input>
W0NIM11jMVtjSF1bY0hdYyhDbCljKFtjSF0xKU9bQ0gyXVtDQEhdKFtPSF0pW0NIMl1uMltjSF1uYyhbY0hdYzI9TylbQ0hdM1tDSDJdW0NIMl1bQ0gyXTM=

> <s_epik_cmdline>
J2VwaWtfcHl0aG9uJywgJy1waCcsICc3LjAnLCAnLXRuJywgJzgnLCAnLW1hJywgJzIwMCcsICctbWV0YWxfYmluZGluZycsICctaW1hZScsICc8aW5maWxlLm1hZT4nLCAnLW9tYWUnLCAnPG91dGZpbGUubWFlPic=

> <r_lp_tautomer_probability>
1

> <r_epik_Ionization_Penalty>
1.78212e-05

> <r_epik_Ionization_Penalty_Charging>
5.61663e-08

> <r_epik_Ionization_Penalty_Neutral>
1.7765e-05

> <r_epik_State_Penalty>
-0

> <r_epik_Charging_Adjusted_Penalty>
5.61663e-08

> <i_epik_Tot_Q>
0

> <i_epik_Tot_abs_Q>
0

> <r_epik_Metal_State_Penalty>
-0

> <b_epik_Metal_Only>
0

> <s_lp_Force_Field>
OPLS_2005

> <r_lp_Energy>
31.1581

> <b_lp_Chiralities_Consistent>
1

> <s_lp_Variant>
AV-unprocessed.smi:2241-1

> <Gold.Version>
5.8.1

> <Gold.Id.Protein>
6NUR|6NUR_protein|mol2

> <Gold.PLP.Fitness>
52.3616

> <Gold.PLP.PLP>
-45.5632

> <Gold.PLP.part.hbond>
-2.5148

> <Gold.PLP.part.metal>
0.0000

> <Gold.PLP.part.buried>
-5.7944

> <Gold.PLP.part.nonpolar>
-37.1709

> <Gold.PLP.part.repulsive>
0.4424

> <Gold.PLP.ligand.clash>
0.0000

> <Gold.PLP.ligand.torsion>
0.3347

> <Gold.PLP.Chemscore.Hbond>
2.3582

> <Gold.PLP.Chemscore.CHOScore>
0.0000

> <Gold.PLP.Chemscore.Metal>
0.0000

> <Gold.Chemscore.Hbonds>
donor molecule, donor type, donor heavy atom, donor atom, acceptor molecule, acceptor atom, score
      P1  H  7989  7998       L1    11  1.00
      P1  H  7997  8009       L1     8  0.52
      P1  H 10752 10763       L1    23  1.00

> <Gold.PLP.Chemscore.Internal.Correction>
0.3934

> <Gold.Rescore>
     Score         DG    S(hbond)    S(metal)    S(lipo)     H(rot)  DE(clash)    DE(int)     intcor
     18.82     -20.14       1.88        0.00     123.83       2.38       0.10       1.22       ----

> <Gold.Chemscore.Fitness>
18.8211

> <Gold.Chemscore.DG>
-20.1434

> <Gold.Chemscore.ZeroCoef>
-5.4800

> <Gold.Chemscore.Hbond>
1.8768

> <Gold.Chemscore.Metal>
0.0000

> <Gold.Chemscore.Lipo>
123.8289

> <Gold.Chemscore.Internal_Hbond>
0.0000

> <Gold.Chemscore.DEClash>
0.1036

> <Gold.Chemscore.DEInternal>
1.2187

> <Gold.Chemscore.Rot>
2.3801

> <Gold.Chemscore.Internal.Correction>
   9.000000E+99

> <Gold.Chemscore.Hbonds>
donor molecule, donor type, donor heavy atom, donor atom, acceptor molecule, acceptor atom, score
      P1  H  7989  7998       L1    11  0.70
      P1  H  7997  8009       L1     8  0.02
      P1  H 10752 10763       L1    23  0.35

> <Gold.Chemscore.Hbond.Weighted>
-6.2685

> <Gold.Chemscore.Metal.Weighted>
-0.0000

> <Gold.Chemscore.Lipo.Weighted>
-14.4880

> <Gold.Chemscore.Internal_Hbond.Weighted>
0.0000

> <Gold.Chemscore.DEClash.Weighted>
0.1036

> <Gold.Chemscore.DEInternal.Weighted>
1.2187

> <Gold.Chemscore.Rot.Weighted>
6.0931

> <Gold.Chemscore.Internal.Correction.Weighted>
   9.000000E+99

> <Gold.Protein.RotatedTorsions>
[ 6907 6896 6895 6894 ] final  -54.03 input  -60.11 | X-H torsion
[ 7974 7965 7964 7962 ] final   80.15 input  175.53 | X-H torsion
[ 8008 7997 7996 7995 ] final  174.28 input   59.86 | X-H torsion
[ 10167 10162 10161 10158 ] final -100.68 input  -65.29 | X-H torsion
[ 10718 10713 10712 10709 ] final   32.32 input   66.30 | X-H torsion
[ 10763 10752 10751 10750 ] final   99.75 input  -60.55 | X-H torsion
[ 11005 11000 10999 10996 ] final -117.92 input  -57.11 | X-H torsion

> <Gold.Protein.ActiveResidues>
 VAL166  LYS551  ARG553  GLY616  TRP617  ASP618  TYR619  PRO620  LYS621  CYS622 
 ASP623  PHE694  ASN695  SER759  ASP760  ASP761  ALA762  ILE779  LEU786  VAL792 
 PHE793  MET794  SER795  GLU796  ALA797  LYS798  CYS799  TRP800  GLU811  SER814 

> <Gold.Protein.RotatedAtoms>
  150.8373  134.7652  159.6903 H   0  0  0  0  0  0  0  0  0  0  0  0  # atno 6907 bound_to 6896
  152.4468  134.5475  159.9867 H   0  0  0  0  0  0  0  0  0  0  0  0  # atno 6908 bound_to 6896
  151.5622  133.3364  159.3009 H   0  0  0  0  0  0  0  0  0  0  0  0  # atno 6909 bound_to 6896
  145.6549  139.2457  143.1955 H   0  0  0  0  0  0  0  0  0  0  0  0  # atno 7974 bound_to 7965
  156.0990  140.1438  156.9492 H   0  0  0  0  0  0  0  0  0  0  0  0  # atno 8008 bound_to 7997
  154.4690  140.0916  156.7141 H   0  0  0  0  0  0  0  0  0  0  0  0  # atno 8009 bound_to 7997
  155.4792  140.3444  155.4339 H   0  0  0  0  0  0  0  0  0  0  0  0  # atno 8010 bound_to 7997
  140.2493  143.3483  152.0729 H   0  0  0  0  0  0  0  0  0  0  0  0  # atno 10167 bound_to 10162
  157.2837  130.7267  149.6571 H   0  0  0  0  0  0  0  0  0  0  0  0  # atno 10718 bound_to 10713
  153.3053  135.4103  155.1288 H   0  0  0  0  0  0  0  0  0  0  0  0  # atno 10763 bound_to 10752
  154.8561  135.3551  154.5797 H   0  0  0  0  0  0  0  0  0  0  0  0  # atno 10764 bound_to 10752
  153.6224  135.7064  153.5364 H   0  0  0  0  0  0  0  0  0  0  0  0  # atno 10765 bound_to 10752
  141.0321  133.9965  157.3126 H   0  0  0  0  0  0  0  0  0  0  0  0  # atno 11005 bound_to 11000
  146.1173  140.7354  142.9474 LP  0  0  0  0  0  0  0  0  0  0  0  0  # atno 17320 bound_to 7965
  144.7109  140.4035  143.7081 LP  0  0  0  0  0  0  0  0  0  0  0  0  # atno 17321 bound_to 7965
  139.5051  144.6789  151.6059 LP  0  0  0  0  0  0  0  0  0  0  0  0  # atno 17342 bound_to 10162
  140.6053  143.9536  150.6414 LP  0  0  0  0  0  0  0  0  0  0  0  0  # atno 17343 bound_to 10162
  155.9665  130.4330  150.4988 LP  0  0  0  0  0  0  0  0  0  0  0  0  # atno 17370 bound_to 10713
  157.2937  131.0631  151.2116 LP  0  0  0  0  0  0  0  0  0  0  0  0  # atno 17371 bound_to 10713
  139.9215  135.0200  156.8082 LP  0  0  0  0  0  0  0  0  0  0  0  0  # atno 17394 bound_to 11000
  140.6387  133.9838  155.7697 LP  0  0  0  0  0  0  0  0  0  0  0  0  # atno 17395 bound_to 11000

$$$$
