AV-unprocessed.smi:3303|AV-procd|sdf|12670|dock2
  -GOLD-   2272019 03D 1   1.00000     0.00000
 Structure written by MMmdl.
 45 46  0  0  0  0  0  0  0  0  3 V2000
  147.3280  141.6804  154.6952 C   0  0  0  0  0  0  0  0  0  0  0  0
  148.2722  140.5144  155.0377 C   0  0  1  0  0  0  0  0  0  0  0  0
  148.1451  139.4036  153.9683 C   0  0  0  0  0  0  0  0  0  0  0  0
  149.0502  138.2542  154.2270 N   0  3  2  0  0  0  0  0  0  0  0  0
  148.5795  137.3854  155.3359 C   0  0  0  0  0  0  0  0  0  0  0  0
  150.4742  138.6889  154.3105 C   0  0  2  0  0  0  0  0  0  0  0  0
  151.4529  137.5123  154.4671 C   0  0  0  0  0  0  0  0  0  0  0  0
  150.6669  139.7647  155.3988 C   0  0  0  0  0  0  0  0  0  0  0  0
  149.7432  140.9757  155.1707 C   0  0  2  0  0  0  0  0  0  0  0  0
  149.8996  141.9339  156.2893 N   0  3  0  0  0  0  0  0  0  0  0  0
  151.2834  142.0947  156.7793 C   0  0  0  0  0  0  0  0  0  0  0  0
  151.3709  141.8065  158.2840 C   0  0  0  0  0  0  0  0  0  0  0  0
  151.5587  143.0706  159.1003 C   0  0  0  0  0  0  0  0  0  0  0  0
  152.5785  143.1575  160.0718 C   0  0  0  0  0  0  0  0  0  0  0  0
  152.7051  144.3530  160.8056 C   0  0  0  0  0  0  0  0  0  0  0  0
  151.8111  145.4084  160.5415 C   0  0  0  0  0  0  0  0  0  0  0  0
  150.8256  145.2210  159.5518 C   0  0  0  0  0  0  0  0  0  0  0  0
  150.6946  144.0780  158.8435 N   0  0  0  0  0  0  0  0  0  0  0  0
  147.6092  142.1562  153.7550 H   0  0  0  0  0  0  0  0  0  0  0  0
  147.3353  142.4464  155.4708 H   0  0  0  0  0  0  0  0  0  0  0  0
  146.2989  141.3340  154.5954 H   0  0  0  0  0  0  0  0  0  0  0  0
  147.9503  140.1053  155.9965 H   0  0  0  0  0  0  0  0  0  0  0  0
  147.1149  139.0506  153.9031 H   0  0  0  0  0  0  0  0  0  0  0  0
  148.3852  139.8118  152.9852 H   0  0  0  0  0  0  0  0  0  0  0  0
  148.6757  137.8699  156.3071 H   0  0  0  0  0  0  0  0  0  0  0  0
  149.1339  136.4478  155.3671 H   0  0  0  0  0  0  0  0  0  0  0  0
  147.5302  137.1238  155.1953 H   0  0  0  0  0  0  0  0  0  0  0  0
  150.7052  139.1516  153.3493 H   0  0  0  0  0  0  0  0  0  0  0  0
  152.4838  137.8521  154.3638 H   0  0  0  0  0  0  0  0  0  0  0  0
  151.2826  136.7523  153.7037 H   0  0  0  0  0  0  0  0  0  0  0  0
  151.3688  137.0362  155.4445 H   0  0  0  0  0  0  0  0  0  0  0  0
  150.4867  139.3358  156.3855 H   0  0  0  0  0  0  0  0  0  0  0  0
  151.7056  140.0979  155.4012 H   0  0  0  0  0  0  0  0  0  0  0  0
  150.0410  141.4542  154.2354 H   0  0  0  0  0  0  0  0  0  0  0  0
  149.5641  142.8366  155.9842 H   0  0  0  0  0  0  0  0  0  0  0  0
  151.9378  141.4190  156.2267 H   0  0  0  0  0  0  0  0  0  0  0  0
  151.6219  143.1119  156.5775 H   0  0  0  0  0  0  0  0  0  0  0  0
  150.4673  141.2955  158.6195 H   0  0  0  0  0  0  0  0  0  0  0  0
  152.2010  141.1285  158.4887 H   0  0  0  0  0  0  0  0  0  0  0  0
  153.2495  142.3306  160.2532 H   0  0  0  0  0  0  0  0  0  0  0  0
  153.4728  144.4583  161.5579 H   0  0  0  0  0  0  0  0  0  0  0  0
  151.8788  146.3397  161.0843 H   0  0  0  0  0  0  0  0  0  0  0  0
  150.1233  146.0091  159.3240 H   0  0  0  0  0  0  0  0  0  0  0  0
  149.3255  141.6244  157.0609 H   0  0  0  0  0  0  0  0  0  0  0  0
  148.9894  137.6731  153.4024 H   0  0  0  0  0  0  0  0  0  0  0  0
  1  2  1  0  0  0  0
  1 19  1  0  0  0  0
  1 20  1  0  0  0  0
  1 21  1  0  0  0  0
  2  9  1  0  0  0  0
  2  3  1  0  0  0  0
  2 22  1  0  0  0  0
  3  4  1  0  0  0  0
  3 23  1  0  0  0  0
  3 24  1  0  0  0  0
  4  5  1  0  0  0  0
  4  6  1  0  0  0  0
  4 45  1  0  0  0  0
  5 25  1  0  0  0  0
  5 26  1  0  0  0  0
  5 27  1  0  0  0  0
  6  7  1  0  0  0  0
  6  8  1  0  0  0  0
  6 28  1  0  0  0  0
  7 29  1  0  0  0  0
  7 30  1  0  0  0  0
  7 31  1  0  0  0  0
  8  9  1  0  0  0  0
  8 32  1  0  0  0  0
  8 33  1  0  0  0  0
  9 10  1  0  0  0  0
  9 34  1  0  0  0  0
 10 11  1  0  0  0  0
 10 35  1  0  0  0  0
 10 44  1  0  0  0  0
 11 12  1  0  0  0  0
 11 36  1  0  0  0  0
 11 37  1  0  0  0  0
 12 13  1  0  0  0  0
 12 38  1  0  0  0  0
 12 39  1  0  0  0  0
 13 18  1  0  0  0  0
 13 14  2  0  0  0  0
 14 15  1  0  0  0  0
 14 40  1  0  0  0  0
 15 16  2  0  0  0  0
 15 41  1  0  0  0  0
 16 17  1  0  0  0  0
 16 42  1  0  0  0  0
 17 18  2  0  0  0  0
 17 43  1  0  0  0  0
M  CHG  1   4   1
M  CHG  1  10   1
M  END
> <s_m_source_file>
AV-unprocessed.smi

> <i_m_source_file_index>
3303

> <i_lp_mmshare_version>
43012

> <i_f3d_flags>
0

> <s_epik_input>
W0NIM11bQ0BASF0xW0NIMl1OKFtDSDNdKVtDQEBIXShbQ0gzXSlbQ0gyXVtDQEhdMVtOSF1bQ0gyXVtDSDJdYzJbY0hdW2NIXVtjSF1bY0hdbjI=

> <s_epik_cmdline>
J2VwaWtfcHl0aG9uJywgJy1waCcsICc3LjAnLCAnLXRuJywgJzgnLCAnLW1hJywgJzIwMCcsICctbWV0YWxfYmluZGluZycsICctaW1hZScsICc8aW5maWxlLm1hZT4nLCAnLW9tYWUnLCAnPG91dGZpbGUubWFlPic=

> <r_epik_Ionization_Penalty>
0.0769462

> <r_epik_Ionization_Penalty_Charging>
0.0759813

> <r_epik_Ionization_Penalty_Neutral>
0.000964829

> <r_epik_State_Penalty>
0.0654373

> <r_epik_Charging_Adjusted_Penalty>
0.141419

> <i_epik_Tot_Q>
2

> <i_epik_Tot_abs_Q>
2

> <r_epik_Metal_State_Penalty>
0.0656439

> <b_epik_Metal_Only>
0

> <s_lp_Force_Field>
OPLS_2005

> <r_lp_Energy>
31.8581

> <b_lp_Chiralities_Consistent>
1

> <s_lp_Variant>
AV-unprocessed.smi:3303-14

> <Gold.Version>
5.8.1

> <Gold.Id.Protein>
6NUR|6NUR_protein|mol2

> <Gold.PLP.Fitness>
51.8940

> <Gold.PLP.PLP>
-39.0353

> <Gold.PLP.part.hbond>
-2.0225

> <Gold.PLP.part.metal>
0.0000

> <Gold.PLP.part.buried>
-2.6362

> <Gold.PLP.part.nonpolar>
-35.2623

> <Gold.PLP.part.repulsive>
0.3099

> <Gold.PLP.ligand.clash>
0.0000

> <Gold.PLP.ligand.torsion>
0.9816

> <Gold.PLP.Chemscore.Hbond>
4.0000

> <Gold.PLP.Chemscore.CHOScore>
0.9356

> <Gold.PLP.Chemscore.Metal>
0.0000

> <Gold.Chemscore.Hbonds>
donor molecule, donor type, donor heavy atom, donor atom, acceptor molecule, acceptor atom, score
      L1  H     4    45       P1  7948  1.69
      L1  H    10    35       P1  8028  2.00

> <Gold.PLP.Chemscore.Internal.Correction>
0.0149

> <Gold.Rescore>
     Score         DG    S(hbond)    S(metal)    S(lipo)     H(rot)  DE(clash)    DE(int)     intcor
     21.16     -22.35       1.98        0.00     117.82       1.37       0.05       1.14       ----

> <Gold.Chemscore.Fitness>
21.1603

> <Gold.Chemscore.DG>
-22.3469

> <Gold.Chemscore.ZeroCoef>
-5.4800

> <Gold.Chemscore.Hbond>
1.9762

> <Gold.Chemscore.Metal>
0.0000

> <Gold.Chemscore.Lipo>
117.8200

> <Gold.Chemscore.Internal_Hbond>
0.0000

> <Gold.Chemscore.DEClash>
0.0478

> <Gold.Chemscore.DEInternal>
1.1388

> <Gold.Chemscore.Rot>
1.3744

> <Gold.Chemscore.Internal.Correction>
   9.000000E+99

> <Gold.Chemscore.Hbonds>
donor molecule, donor type, donor heavy atom, donor atom, acceptor molecule, acceptor atom, score
      L1  H     4    45       P1  7948  0.84
      L1  H    10    35       P1  8028  0.93

> <Gold.Chemscore.Hbond.Weighted>
-6.6004

> <Gold.Chemscore.Metal.Weighted>
-0.0000

> <Gold.Chemscore.Lipo.Weighted>
-13.7849

> <Gold.Chemscore.Internal_Hbond.Weighted>
0.0000

> <Gold.Chemscore.DEClash.Weighted>
0.0478

> <Gold.Chemscore.DEInternal.Weighted>
1.1388

> <Gold.Chemscore.Rot.Weighted>
3.5185

> <Gold.Chemscore.Internal.Correction.Weighted>
   9.000000E+99

> <Gold.Protein.RotatedTorsions>
[ 6907 6896 6895 6894 ] final   68.63 input  -60.11 | X-H torsion
[ 7974 7965 7964 7962 ] final  -68.60 input  175.53 | X-H torsion
[ 8008 7997 7996 7995 ] final  -30.66 input   59.86 | X-H torsion
[ 10167 10162 10161 10158 ] final -146.83 input  -65.29 | X-H torsion
[ 10718 10713 10712 10709 ] final   -3.11 input   66.30 | X-H torsion
[ 10763 10752 10751 10750 ] final  106.18 input  -60.55 | X-H torsion
[ 11005 11000 10999 10996 ] final  -88.06 input  -57.11 | X-H torsion

> <Gold.Protein.ActiveResidues>
 VAL166  LYS551  ARG553  GLY616  TRP617  ASP618  TYR619  PRO620  LYS621  CYS622 
 ASP623  PHE694  ASN695  SER759  ASP760  ASP761  ALA762  ILE779  LEU786  VAL792 
 PHE793  MET794  SER795  GLU796  ALA797  LYS798  CYS799  TRP800  GLU811  SER814 

> <Gold.Protein.RotatedAtoms>
  152.4633  134.5134  159.9760 H   0  0  0  0  0  0  0  0  0  0  0  0  # atno 6907 bound_to 6896
  151.5177  133.3466  159.2904 H   0  0  0  0  0  0  0  0  0  0  0  0  # atno 6908 bound_to 6896
  150.8606  134.7986  159.7142 H   0  0  0  0  0  0  0  0  0  0  0  0  # atno 6909 bound_to 6896
  145.7144  140.9065  143.0663 H   0  0  0  0  0  0  0  0  0  0  0  0  # atno 7974 bound_to 7965
  154.4242  140.1785  156.1443 H   0  0  0  0  0  0  0  0  0  0  0  0  # atno 8008 bound_to 7997
  155.9966  140.3364  155.6780 H   0  0  0  0  0  0  0  0  0  0  0  0  # atno 8009 bound_to 7997
  155.6300  140.0669  157.2642 H   0  0  0  0  0  0  0  0  0  0  0  0  # atno 8010 bound_to 7997
  139.7677  143.8283  152.2619 H   0  0  0  0  0  0  0  0  0  0  0  0  # atno 10167 bound_to 10162
  156.7808  130.5330  149.5751 H   0  0  0  0  0  0  0  0  0  0  0  0  # atno 10718 bound_to 10713
  153.3895  135.3885  155.1913 H   0  0  0  0  0  0  0  0  0  0  0  0  # atno 10763 bound_to 10752
  154.8717  135.3745  154.4755 H   0  0  0  0  0  0  0  0  0  0  0  0  # atno 10764 bound_to 10752
  153.5240  135.7086  153.5778 H   0  0  0  0  0  0  0  0  0  0  0  0  # atno 10765 bound_to 10752
  141.1607  133.7548  156.9397 H   0  0  0  0  0  0  0  0  0  0  0  0  # atno 11005 bound_to 11000
  144.6933  139.9117  143.7464 LP  0  0  0  0  0  0  0  0  0  0  0  0  # atno 17320 bound_to 7965
  146.0683  139.3673  143.0538 LP  0  0  0  0  0  0  0  0  0  0  0  0  # atno 17321 bound_to 7965
  139.8308  144.7254  150.9453 LP  0  0  0  0  0  0  0  0  0  0  0  0  # atno 17342 bound_to 10162
  140.7812  143.4072  151.1052 LP  0  0  0  0  0  0  0  0  0  0  0  0  # atno 17343 bound_to 10162
  156.1219  130.6116  151.0206 LP  0  0  0  0  0  0  0  0  0  0  0  0  # atno 17370 bound_to 10713
  157.6647  131.0874  150.7756 LP  0  0  0  0  0  0  0  0  0  0  0  0  # atno 17371 bound_to 10713
  140.1330  134.9343  157.2363 LP  0  0  0  0  0  0  0  0  0  0  0  0  # atno 17394 bound_to 11000
  140.2930  134.3219  155.7310 LP  0  0  0  0  0  0  0  0  0  0  0  0  # atno 17395 bound_to 11000

$$$$
