AV-unprocessed.smi:2521|AV-procd|sdf|9918|dock3
  -GOLD-   2272013553D 1   1.00000     0.00000
 Structure written by MMmdl.
 35 36  0  0  0  0  0  0  0  0  2 V2000
  152.3732  140.4006  158.6211 C   0  0  0  0  0  0  0  0  0  0  0  0
  151.9882  140.8518  157.2047 C   0  0  0  0  0  0  0  0  0  0  0  0
  150.6151  141.5364  157.1421 C   0  0  0  0  0  0  0  0  0  0  0  0
  152.1116  139.7433  156.2065 C   0  0  0  0  0  0  0  0  0  0  0  0
  152.9728  139.7722  155.1848 N   0  0  0  0  0  0  0  0  0  0  0  0
  152.8977  138.6296  154.4023 N   0  0  0  0  0  0  0  0  0  0  0  0
  151.9770  137.7566  154.8340 C   0  0  0  0  0  0  0  0  0  0  0  0
  151.7493  136.5852  154.2175 N   0  5  0  0  0  0  0  0  0  0  0  0
  151.1619  135.5698  154.8908 C   0  0  0  0  0  0  0  0  0  0  0  0
  151.5818  135.0345  155.9192 O   0  0  0  0  0  0  0  0  0  0  0  0
  150.0184  135.1451  154.3374 N   0  0  0  0  0  0  0  0  0  0  0  0
  149.1859  134.0656  154.8528 C   0  0  0  0  0  0  0  0  0  0  0  0
  149.4515  132.7552  154.0944 C   0  0  1  0  0  0  0  0  0  0  0  0
  150.7079  132.0328  154.5337 C   0  0  0  0  0  0  0  0  0  0  0  0
  150.4662  130.6286  153.9896 C   0  0  0  0  0  0  0  0  0  0  0  0
  149.0569  130.4290  154.0471 O   0  0  0  0  0  0  0  0  0  0  0  0
  148.3970  131.6662  154.3034 C   0  0  0  0  0  0  0  0  0  0  0  0
  151.1311  138.2882  156.2867 S   0  0  0  0  0  0  0  0  0  0  0  0
  153.3868  139.9989  158.6421 H   0  0  0  0  0  0  0  0  0  0  0  0
  151.7000  139.6248  158.9872 H   0  0  0  0  0  0  0  0  0  0  0  0
  152.3335  141.2335  159.3233 H   0  0  0  0  0  0  0  0  0  0  0  0
  152.7197  141.6074  156.9155 H   0  0  0  0  0  0  0  0  0  0  0  0
  150.4130  141.9183  156.1409 H   0  0  0  0  0  0  0  0  0  0  0  0
  150.5637  142.3780  157.8332 H   0  0  0  0  0  0  0  0  0  0  0  0
  149.8141  140.8436  157.4019 H   0  0  0  0  0  0  0  0  0  0  0  0
  149.7054  135.6085  153.4972 H   0  0  0  0  0  0  0  0  0  0  0  0
  149.3944  133.9241  155.9144 H   0  0  0  0  0  0  0  0  0  0  0  0
  148.1360  134.3498  154.7670 H   0  0  0  0  0  0  0  0  0  0  0  0
  149.5311  132.9650  153.0262 H   0  0  0  0  0  0  0  0  0  0  0  0
  151.6210  132.4866  154.1474 H   0  0  0  0  0  0  0  0  0  0  0  0
  150.7724  132.0058  155.6226 H   0  0  0  0  0  0  0  0  0  0  0  0
  150.7833  130.5650  152.9478 H   0  0  0  0  0  0  0  0  0  0  0  0
  151.0014  129.8646  154.5537 H   0  0  0  0  0  0  0  0  0  0  0  0
  148.0473  131.6604  155.3366 H   0  0  0  0  0  0  0  0  0  0  0  0
  147.5298  131.7951  153.6554 H   0  0  0  0  0  0  0  0  0  0  0  0
  1  2  1  0  0  0  0
  1 19  1  0  0  0  0
  1 20  1  0  0  0  0
  1 21  1  0  0  0  0
  2  3  1  0  0  0  0
  2  4  1  0  0  0  0
  2 22  1  0  0  0  0
  3 23  1  0  0  0  0
  3 24  1  0  0  0  0
  3 25  1  0  0  0  0
  4 18  1  0  0  0  0
  4  5  2  0  0  0  0
  5  6  1  0  0  0  0
  6  7  2  0  0  0  0
  7  8  1  0  0  0  0
  7 18  1  0  0  0  0
  8  9  1  0  0  0  0
  9 10  2  0  0  0  0
  9 11  1  0  0  0  0
 11 12  1  0  0  0  0
 11 26  1  0  0  0  0
 12 13  1  0  0  0  0
 12 27  1  0  0  0  0
 12 28  1  0  0  0  0
 13 17  1  0  0  0  0
 13 14  1  0  0  0  0
 13 29  1  0  0  0  0
 14 15  1  0  0  0  0
 14 30  1  0  0  0  0
 14 31  1  0  0  0  0
 15 16  1  0  0  0  0
 15 32  1  0  0  0  0
 15 33  1  0  0  0  0
 16 17  1  0  0  0  0
 17 34  1  0  0  0  0
 17 35  1  0  0  0  0
M  CHG  1   8  -1
M  END
> <s_m_source_file>
AV-unprocessed.smi

> <i_m_source_file_index>
2521

> <i_lp_mmshare_version>
43012

> <i_f3d_flags>
0

> <s_epik_input>
W0NIM11bQ0hdKFtDSDNdKWMxbm5jKHMxKVtOSF1DKD1PKVtOSF1bQ0gyXVtDQEBIXTJbQ0gyXVtDSDJdT1tDSDJdMg==

> <s_epik_cmdline>
J2VwaWtfcHl0aG9uJywgJy1waCcsICc3LjAnLCAnLXRuJywgJzgnLCAnLW1hJywgJzIwMCcsICctbWV0YWxfYmluZGluZycsICctaW1hZScsICc8aW5maWxlLm1hZT4nLCAnLW9tYWUnLCAnPG91dGZpbGUubWFlPic=

> <r_lp_tautomer_probability>
1

> <r_epik_Ionization_Penalty>
4.4451

> <r_epik_Ionization_Penalty_Charging>
4.28522

> <r_epik_Ionization_Penalty_Neutral>
0.159875

> <r_epik_State_Penalty>
4.28479

> <r_epik_Charging_Adjusted_Penalty>
8.57002

> <i_epik_Tot_Q>
-1

> <i_epik_Tot_abs_Q>
1

> <r_epik_Metal_State_Penalty>
0.721771

> <b_epik_Metal_Only>
1

> <s_lp_Force_Field>
OPLS_2005

> <r_lp_Energy>
10.1938

> <b_lp_Chiralities_Consistent>
1

> <s_lp_Variant>
AV-unprocessed.smi:2521-4

> <Gold.Version>
5.8.1

> <Gold.Id.Protein>
6NUR|6NUR_protein|mol2

> <Gold.PLP.Fitness>
38.1717

> <Gold.PLP.PLP>
-27.4379

> <Gold.PLP.part.hbond>
-4.0000

> <Gold.PLP.part.metal>
0.0000

> <Gold.PLP.part.buried>
-3.4673

> <Gold.PLP.part.nonpolar>
-20.8115

> <Gold.PLP.part.repulsive>
1.3037

> <Gold.PLP.ligand.clash>
0.0000

> <Gold.PLP.ligand.torsion>
0.9710

> <Gold.PLP.Chemscore.Hbond>
4.1871

> <Gold.PLP.Chemscore.CHOScore>
0.0000

> <Gold.PLP.Chemscore.Metal>
0.0000

> <Gold.Chemscore.Hbonds>
donor molecule, donor type, donor heavy atom, donor atom, acceptor molecule, acceptor atom, score
      L1  H    11    26       P1  7948  0.65
      P1  H  7989  7998       L1     5  0.02
      P1  H  7997  8008       L1     5  1.00
      P1  H 10752 10763       L1     8  0.80

> <Gold.PLP.Chemscore.Internal.Correction>
0.1145

> <Gold.Rescore>
     Score         DG    S(hbond)    S(metal)    S(lipo)     H(rot)  DE(clash)    DE(int)     intcor
     13.86     -14.68       2.13        0.00      48.96       1.42       0.00       0.82       ----

> <Gold.Chemscore.Fitness>
13.8602

> <Gold.Chemscore.DG>
-14.6830

> <Gold.Chemscore.ZeroCoef>
-5.4800

> <Gold.Chemscore.Hbond>
2.1280

> <Gold.Chemscore.Metal>
0.0000

> <Gold.Chemscore.Lipo>
48.9646

> <Gold.Chemscore.Internal_Hbond>
0.0000

> <Gold.Chemscore.DEClash>
0.0038

> <Gold.Chemscore.DEInternal>
0.8191

> <Gold.Chemscore.Rot>
1.4193

> <Gold.Chemscore.Internal.Correction>
   9.000000E+99

> <Gold.Chemscore.Hbonds>
donor molecule, donor type, donor heavy atom, donor atom, acceptor molecule, acceptor atom, score
      L1  H    11    26       P1  7948  0.06
      P1  H  7997  8008       L1     5  0.34
      P1  H 10752 10763       L1     8  0.01

> <Gold.Chemscore.Hbond.Weighted>
-7.1075

> <Gold.Chemscore.Metal.Weighted>
-0.0000

> <Gold.Chemscore.Lipo.Weighted>
-5.7289

> <Gold.Chemscore.Internal_Hbond.Weighted>
0.0000

> <Gold.Chemscore.DEClash.Weighted>
0.0038

> <Gold.Chemscore.DEInternal.Weighted>
0.8191

> <Gold.Chemscore.Rot.Weighted>
3.6333

> <Gold.Chemscore.Internal.Correction.Weighted>
   9.000000E+99

> <Gold.Protein.RotatedTorsions>
[ 6907 6896 6895 6894 ] final   28.86 input  -60.11 | X-H torsion
[ 7974 7965 7964 7962 ] final -129.51 input  175.53 | X-H torsion
[ 8008 7997 7996 7995 ] final  -20.67 input   59.86 | X-H torsion
[ 10167 10162 10161 10158 ] final  -23.98 input  -65.29 | X-H torsion
[ 10718 10713 10712 10709 ] final  131.74 input   66.30 | X-H torsion
[ 10763 10752 10751 10750 ] final   27.23 input  -60.55 | X-H torsion
[ 11005 11000 10999 10996 ] final   33.60 input  -57.11 | X-H torsion

> <Gold.Protein.ActiveResidues>
 VAL166  LYS551  ARG553  GLY616  TRP617  ASP618  TYR619  PRO620  LYS621  CYS622 
 ASP623  PHE694  ASN695  SER759  ASP760  ASP761  ALA762  ILE779  LEU786  VAL792 
 PHE793  MET794  SER795  GLU796  ALA797  LYS798  CYS799  TRP800  GLU811  SER814 

> <Gold.Protein.RotatedAtoms>
  152.0231  134.9811  160.0570 H   0  0  0  0  0  0  0  0  0  0  0  0  # atno 6907 bound_to 6896
  152.1317  133.4407  159.4732 H   0  0  0  0  0  0  0  0  0  0  0  0  # atno 6908 bound_to 6896
  150.6857  134.2330  159.4485 H   0  0  0  0  0  0  0  0  0  0  0  0  # atno 6909 bound_to 6896
  144.9565  140.7401  143.4755 H   0  0  0  0  0  0  0  0  0  0  0  0  # atno 7974 bound_to 7965
  154.4754  140.2055  155.9890 H   0  0  0  0  0  0  0  0  0  0  0  0  # atno 8008 bound_to 7997
  156.1081  140.3233  155.8004 H   0  0  0  0  0  0  0  0  0  0  0  0  # atno 8009 bound_to 7997
  155.4682  140.0529  157.2973 H   0  0  0  0  0  0  0  0  0  0  0  0  # atno 8010 bound_to 7997
  140.7288  143.4394  151.0679 H   0  0  0  0  0  0  0  0  0  0  0  0  # atno 10167 bound_to 10162
  157.4938  131.1091  150.9520 H   0  0  0  0  0  0  0  0  0  0  0  0  # atno 10718 bound_to 10713
  153.0569  135.6542  154.0555 H   0  0  0  0  0  0  0  0  0  0  0  0  # atno 10763 bound_to 10752
  154.0231  135.2918  155.3380 H   0  0  0  0  0  0  0  0  0  0  0  0  # atno 10764 bound_to 10752
  154.6889  135.5290  153.8432 H   0  0  0  0  0  0  0  0  0  0  0  0  # atno 10765 bound_to 10752
  140.2615  134.3187  155.7856 H   0  0  0  0  0  0  0  0  0  0  0  0  # atno 11005 bound_to 11000
  145.2764  139.1935  143.4814 LP  0  0  0  0  0  0  0  0  0  0  0  0  # atno 17320 bound_to 7965
  146.3339  140.2719  142.8606 LP  0  0  0  0  0  0  0  0  0  0  0  0  # atno 17321 bound_to 7965
  139.8060  143.8017  152.3167 LP  0  0  0  0  0  0  0  0  0  0  0  0  # atno 17342 bound_to 10162
  139.8050  144.7359  150.9773 LP  0  0  0  0  0  0  0  0  0  0  0  0  # atno 17343 bound_to 10162
  157.0213  130.5675  149.5332 LP  0  0  0  0  0  0  0  0  0  0  0  0  # atno 17370 bound_to 10713
  156.0189  130.5283  150.8216 LP  0  0  0  0  0  0  0  0  0  0  0  0  # atno 17371 bound_to 10713
  141.2190  133.7412  156.9193 LP  0  0  0  0  0  0  0  0  0  0  0  0  # atno 17394 bound_to 11000
  140.1460  134.9262  157.2530 LP  0  0  0  0  0  0  0  0  0  0  0  0  # atno 17395 bound_to 11000

$$$$
