AV-unprocessed.smi:2032|AV-procd|sdf|8253|dock3
  -GOLD-   2272010523D 1   1.00000     0.00000
 Structure written by MMmdl.
 42 43  0  0  0  0  0  0  0  0  3 V2000
  144.0503  135.5277  151.4040 C   0  0  0  0  0  0  0  0  0  0  0  0
  145.2564  136.1775  152.0914 C   0  0  2  0  0  0  0  0  0  0  0  0
  145.7868  135.3191  153.2549 C   0  0  0  0  0  0  0  0  0  0  0  0
  146.8922  136.0144  153.9669 N   0  3  2  0  0  0  0  0  0  0  0  0
  147.5596  135.2431  155.0646 C   0  0  1  0  0  0  0  0  0  0  0  0
  148.3264  133.9911  154.5743 C   0  0  0  0  0  0  0  0  0  0  0  0
  148.5081  136.1783  155.8596 C   0  0  0  0  0  0  0  0  0  0  0  0
  148.8044  135.6833  157.2001 N   0  0  0  0  0  0  0  0  0  0  0  0
  148.5322  136.3240  158.3455 C   0  0  0  0  0  0  0  0  0  0  0  0
  148.0049  137.4386  158.3153 O   0  0  0  0  0  0  0  0  0  0  0  0
  148.8799  135.6295  159.4516 N   0  5  0  0  0  0  0  0  0  0  0  0
  148.1483  135.7417  160.5721 C   0  0  0  0  0  0  0  0  0  0  0  0
  147.8617  136.9174  161.1426 N   0  0  0  0  0  0  0  0  0  0  0  0
  147.0936  136.7987  162.3024 C   0  0  0  0  0  0  0  0  0  0  0  0
  146.7959  135.5018  162.6272 C   0  0  0  0  0  0  0  0  0  0  0  0
  147.4761  134.3840  161.4794 S   0  0  0  0  0  0  0  0  0  0  0  0
  146.4211  137.3500  154.4221 C   0  0  0  0  0  0  0  0  0  0  0  0
  145.8656  138.1841  153.2531 C   0  0  1  0  0  0  0  0  0  0  0  0
  146.9539  138.7056  152.2974 C   0  0  0  0  0  0  0  0  0  0  0  0
  144.8471  137.4523  152.5749 O   0  0  0  0  0  0  0  0  0  0  0  0
  144.3091  134.5495  150.9982 H   0  0  0  0  0  0  0  0  0  0  0  0
  143.6926  136.1445  150.5790 H   0  0  0  0  0  0  0  0  0  0  0  0
  143.2229  135.3926  152.1013 H   0  0  0  0  0  0  0  0  0  0  0  0
  146.0406  136.3032  151.3445 H   0  0  0  0  0  0  0  0  0  0  0  0
  144.9853  135.0902  153.9596 H   0  0  0  0  0  0  0  0  0  0  0  0
  146.1308  134.3762  152.8308 H   0  0  0  0  0  0  0  0  0  0  0  0
  146.7755  134.8817  155.7319 H   0  0  0  0  0  0  0  0  0  0  0  0
  148.8092  133.4675  155.3995 H   0  0  0  0  0  0  0  0  0  0  0  0
  149.1040  134.2537  153.8564 H   0  0  0  0  0  0  0  0  0  0  0  0
  147.6623  133.2607  154.1119 H   0  0  0  0  0  0  0  0  0  0  0  0
  149.4542  136.2796  155.3268 H   0  0  0  0  0  0  0  0  0  0  0  0
  148.1072  137.1871  155.9509 H   0  0  0  0  0  0  0  0  0  0  0  0
  149.2415  134.7757  157.2693 H   0  0  0  0  0  0  0  0  0  0  0  0
  146.8046  137.6919  162.8359 H   0  0  0  0  0  0  0  0  0  0  0  0
  146.2234  135.1370  163.4666 H   0  0  0  0  0  0  0  0  0  0  0  0
  145.6384  137.2116  155.1701 H   0  0  0  0  0  0  0  0  0  0  0  0
  147.2165  137.9088  154.9128 H   0  0  0  0  0  0  0  0  0  0  0  0
  145.3731  139.0601  153.6764 H   0  0  0  0  0  0  0  0  0  0  0  0
  147.6377  139.3743  152.8208 H   0  0  0  0  0  0  0  0  0  0  0  0
  146.5119  139.2667  151.4738 H   0  0  0  0  0  0  0  0  0  0  0  0
  147.5534  137.9012  151.8716 H   0  0  0  0  0  0  0  0  0  0  0  0
  147.6062  136.1757  153.2710 H   0  0  0  0  0  0  0  0  0  0  0  0
  1  2  1  0  0  0  0
  1 21  1  0  0  0  0
  1 22  1  0  0  0  0
  1 23  1  0  0  0  0
  2 20  1  0  0  0  0
  2  3  1  0  0  0  0
  2 24  1  0  0  0  0
  3  4  1  0  0  0  0
  3 25  1  0  0  0  0
  3 26  1  0  0  0  0
  4  5  1  0  0  0  0
  4 17  1  0  0  0  0
  4 42  1  0  0  0  0
  5  6  1  0  0  0  0
  5  7  1  0  0  0  0
  5 27  1  0  0  0  0
  6 28  1  0  0  0  0
  6 29  1  0  0  0  0
  6 30  1  0  0  0  0
  7  8  1  0  0  0  0
  7 31  1  0  0  0  0
  7 32  1  0  0  0  0
  8  9  1  0  0  0  0
  8 33  1  0  0  0  0
  9 10  2  0  0  0  0
  9 11  1  0  0  0  0
 11 12  1  0  0  0  0
 12 16  1  0  0  0  0
 12 13  2  0  0  0  0
 13 14  1  0  0  0  0
 14 15  2  0  0  0  0
 14 34  1  0  0  0  0
 15 16  1  0  0  0  0
 15 35  1  0  0  0  0
 17 18  1  0  0  0  0
 17 36  1  0  0  0  0
 17 37  1  0  0  0  0
 18 19  1  0  0  0  0
 18 20  1  0  0  0  0
 18 38  1  0  0  0  0
 19 39  1  0  0  0  0
 19 40  1  0  0  0  0
 19 41  1  0  0  0  0
M  CHG  1   4   1
M  CHG  1  11  -1
M  END
> <s_m_source_file>
AV-unprocessed.smi

> <i_m_source_file_index>
2032

> <i_lp_mmshare_version>
43012

> <i_f3d_flags>
0

> <s_epik_input>
W0NIM11bQ0BASF0xW0NIMl1OKFtDSDJdW0NASF0oTzEpW0NIM10pW0NASF0oW0NIM10pW0NIMl1bTkhdQyg9TylbTkhdYzJuW2NIXVtjSF1zMg==

> <s_epik_cmdline>
J2VwaWtfcHl0aG9uJywgJy1waCcsICc3LjAnLCAnLXRuJywgJzgnLCAnLW1hJywgJzIwMCcsICctbWV0YWxfYmluZGluZycsICctaW1hZScsICc8aW5maWxlLm1hZT4nLCAnLW9tYWUnLCAnPG91dGZpbGUubWFlPic=

> <r_lp_tautomer_probability>
0.999

> <r_epik_Ionization_Penalty>
6.71699

> <r_epik_Ionization_Penalty_Charging>
5.88592

> <r_epik_Ionization_Penalty_Neutral>
0.831074

> <r_epik_State_Penalty>
6.08365

> <r_epik_Charging_Adjusted_Penalty>
11.9696

> <i_epik_Tot_Q>
0

> <i_epik_Tot_abs_Q>
2

> <r_epik_Metal_State_Penalty>
2.0947

> <b_epik_Metal_Only>
1

> <s_lp_Force_Field>
OPLS_2005

> <r_lp_Energy>
13.0518

> <b_lp_Chiralities_Consistent>
1

> <s_lp_Variant>
AV-unprocessed.smi:2032-23

> <Gold.Version>
5.8.1

> <Gold.Id.Protein>
6NUR|6NUR_protein|mol2

> <Gold.PLP.Fitness>
43.7095

> <Gold.PLP.PLP>
-29.1063

> <Gold.PLP.part.hbond>
-4.0000

> <Gold.PLP.part.metal>
0.0000

> <Gold.PLP.part.buried>
-3.5756

> <Gold.PLP.part.nonpolar>
-22.6773

> <Gold.PLP.part.repulsive>
0.2660

> <Gold.PLP.ligand.clash>
0.0000

> <Gold.PLP.ligand.torsion>
1.0052

> <Gold.PLP.Chemscore.Hbond>
5.5122

> <Gold.PLP.Chemscore.CHOScore>
0.0000

> <Gold.PLP.Chemscore.Metal>
0.0000

> <Gold.Chemscore.Hbonds>
donor molecule, donor type, donor heavy atom, donor atom, acceptor molecule, acceptor atom, score
      L1  H     4    42       P1  7948  2.00
      P1  H  6896  6909       L1    11  1.79
      P1  H  6931  6943       L1    13  0.70
      P1  H  6934  6947       L1    13  0.22

> <Gold.PLP.Chemscore.Internal.Correction>
0.0770

> <Gold.Rescore>
     Score         DG    S(hbond)    S(metal)    S(lipo)     H(rot)  DE(clash)    DE(int)     intcor
     15.13     -17.62       2.72        0.00      60.69       1.58       0.07       2.42       ----

> <Gold.Chemscore.Fitness>
15.1304

> <Gold.Chemscore.DG>
-17.6203

> <Gold.Chemscore.ZeroCoef>
-5.4800

> <Gold.Chemscore.Hbond>
2.7193

> <Gold.Chemscore.Metal>
0.0000

> <Gold.Chemscore.Lipo>
60.6860

> <Gold.Chemscore.Internal_Hbond>
0.0000

> <Gold.Chemscore.DEClash>
0.0727

> <Gold.Chemscore.DEInternal>
2.4172

> <Gold.Chemscore.Rot>
1.5791

> <Gold.Chemscore.Internal.Correction>
   9.000000E+99

> <Gold.Chemscore.Hbonds>
donor molecule, donor type, donor heavy atom, donor atom, acceptor molecule, acceptor atom, score
      L1  H     4    42       P1  7948  0.99
      P1  H  6896  6909       L1    11  0.78
      P1  H  6931  6943       L1    13  0.07
      P1  H  6934  6947       L1    13  0.01

> <Gold.Chemscore.Hbond.Weighted>
-9.0825

> <Gold.Chemscore.Metal.Weighted>
-0.0000

> <Gold.Chemscore.Lipo.Weighted>
-7.1003

> <Gold.Chemscore.Internal_Hbond.Weighted>
0.0000

> <Gold.Chemscore.DEClash.Weighted>
0.0727

> <Gold.Chemscore.DEInternal.Weighted>
2.4172

> <Gold.Chemscore.Rot.Weighted>
4.0425

> <Gold.Chemscore.Internal.Correction.Weighted>
   9.000000E+99

> <Gold.Protein.RotatedTorsions>
[ 6907 6896 6895 6894 ] final   63.96 input  -60.11 | X-H torsion
[ 7974 7965 7964 7962 ] final  -21.73 input  175.53 | X-H torsion
[ 8008 7997 7996 7995 ] final  -32.92 input   59.86 | X-H torsion
[ 10167 10162 10161 10158 ] final  -69.51 input  -65.29 | X-H torsion
[ 10718 10713 10712 10709 ] final  119.58 input   66.30 | X-H torsion
[ 10763 10752 10751 10750 ] final -178.38 input  -60.55 | X-H torsion
[ 11005 11000 10999 10996 ] final  114.56 input  -57.11 | X-H torsion

> <Gold.Protein.ActiveResidues>
 VAL166  LYS551  ARG553  GLY616  TRP617  ASP618  TYR619  PRO620  LYS621  CYS622 
 ASP623  PHE694  ASN695  SER759  ASP760  ASP761  ALA762  ILE779  LEU786  VAL792 
 PHE793  MET794  SER795  GLU796  ALA797  LYS798  CYS799  TRP800  GLU811  SER814 

> <Gold.Protein.RotatedAtoms>
  152.4294  134.5806  159.9946 H   0  0  0  0  0  0  0  0  0  0  0  0  # atno 6907 bound_to 6896
  151.5933  133.3358  159.3040 H   0  0  0  0  0  0  0  0  0  0  0  0  # atno 6908 bound_to 6896
  150.8186  134.7418  159.6817 H   0  0  0  0  0  0  0  0  0  0  0  0  # atno 6909 bound_to 6896
  146.1716  140.4382  142.8530 H   0  0  0  0  0  0  0  0  0  0  0  0  # atno 7974 bound_to 7965
  154.4164  140.1724  156.1805 H   0  0  0  0  0  0  0  0  0  0  0  0  # atno 8008 bound_to 7997
  155.9686  140.3387  155.6531 H   0  0  0  0  0  0  0  0  0  0  0  0  # atno 8009 bound_to 7997
  155.6655  140.0706  157.2529 H   0  0  0  0  0  0  0  0  0  0  0  0  # atno 8010 bound_to 7997
  140.5425  143.2314  151.7063 H   0  0  0  0  0  0  0  0  0  0  0  0  # atno 10167 bound_to 10162
  157.5952  131.1059  150.7915 H   0  0  0  0  0  0  0  0  0  0  0  0  # atno 10718 bound_to 10713
  154.5484  135.2811  155.1031 H   0  0  0  0  0  0  0  0  0  0  0  0  # atno 10763 bound_to 10752
  154.2486  135.6343  153.5236 H   0  0  0  0  0  0  0  0  0  0  0  0  # atno 10764 bound_to 10752
  152.9996  135.5577  154.6043 H   0  0  0  0  0  0  0  0  0  0  0  0  # atno 10765 bound_to 10752
  139.8984  134.9570  156.6911 H   0  0  0  0  0  0  0  0  0  0  0  0  # atno 11005 bound_to 11000
  144.8172  140.6488  143.6376 LP  0  0  0  0  0  0  0  0  0  0  0  0  # atno 17320 bound_to 7965
  145.4324  139.1547  143.4015 LP  0  0  0  0  0  0  0  0  0  0  0  0  # atno 17321 bound_to 7965
  139.4994  144.3946  152.0244 LP  0  0  0  0  0  0  0  0  0  0  0  0  # atno 17342 bound_to 10162
  140.3056  144.3596  150.6048 LP  0  0  0  0  0  0  0  0  0  0  0  0  # atno 17343 bound_to 10162
  156.8328  130.5021  149.5329 LP  0  0  0  0  0  0  0  0  0  0  0  0  # atno 17370 bound_to 10713
  156.1013  130.5971  150.9899 LP  0  0  0  0  0  0  0  0  0  0  0  0  # atno 17371 bound_to 10713
  140.7224  133.9129  155.8156 LP  0  0  0  0  0  0  0  0  0  0  0  0  # atno 17394 bound_to 11000
  141.0217  134.0880  157.4113 LP  0  0  0  0  0  0  0  0  0  0  0  0  # atno 17395 bound_to 11000

$$$$
