AV-unprocessed.smi:1978|AV-procd|sdf|8000|dock1
  -GOLD-   2272010183D 1   1.00000     0.00000
 Structure written by MMmdl.
 44 45  0  0  0  0  0  0  0  0  3 V2000
  148.7917  134.7693  154.6521 C   0  0  0  0  0  0  0  0  0  0  0  0
  149.8863  135.6338  155.1778 C   0  0  0  0  0  0  0  0  0  0  0  0
  150.0640  136.9878  155.2115 C   0  0  0  0  0  0  0  0  0  0  0  0
  151.3210  137.1343  155.8598 C   0  0  0  0  0  0  0  0  0  0  0  0
  151.9444  138.2933  156.1225 N   0  5  0  0  0  0  0  0  0  0  0  0
  151.3976  139.4648  155.7266 C   0  0  0  0  0  0  0  0  0  0  0  0
  151.8296  140.2154  154.8485 O   0  0  0  0  0  0  0  0  0  0  0  0
  150.2809  139.7909  156.3934 N   0  0  0  0  0  0  0  0  0  0  0  0
  149.4901  141.0007  156.1871 C   0  0  0  0  0  0  0  0  0  0  0  0
  149.1281  141.7275  157.5156 C   0  0  2  0  0  0  0  0  0  0  0  0
  147.6224  142.0925  157.5101 C   0  0  0  0  0  0  0  0  0  0  0  0
  149.9830  142.9381  157.7745 N   0  3  1  0  0  0  0  0  0  0  0  0
  149.6914  143.6093  159.0786 C   0  0  0  0  0  0  0  0  0  0  0  0
  150.4226  144.9551  159.2114 C   0  0  0  0  0  0  0  0  0  0  0  0
  151.9323  144.7890  159.0345 C   0  0  0  0  0  0  0  0  0  0  0  0
  152.2132  144.0925  157.6996 C   0  0  0  0  0  0  0  0  0  0  0  0
  151.4593  142.7521  157.5685 C   0  0  1  0  0  0  0  0  0  0  0  0
  152.0718  141.6531  158.4662 C   0  0  0  0  0  0  0  0  0  0  0  0
  151.8662  135.9713  156.1744 N   0  0  0  0  0  0  0  0  0  0  0  0
  150.9497  135.0038  155.7458 O   0  0  0  0  0  0  0  0  0  0  0  0
  148.6643  134.9192  153.5800 H   0  0  0  0  0  0  0  0  0  0  0  0
  147.8467  135.0035  155.1420 H   0  0  0  0  0  0  0  0  0  0  0  0
  149.0076  133.7141  154.8216 H   0  0  0  0  0  0  0  0  0  0  0  0
  149.4000  137.7522  154.8369 H   0  0  0  0  0  0  0  0  0  0  0  0
  149.9577  139.1456  157.0996 H   0  0  0  0  0  0  0  0  0  0  0  0
  150.0658  141.6309  155.5107 H   0  0  0  0  0  0  0  0  0  0  0  0
  148.5808  140.7232  155.6534 H   0  0  0  0  0  0  0  0  0  0  0  0
  149.2934  141.0310  158.3385 H   0  0  0  0  0  0  0  0  0  0  0  0
  146.9952  141.2482  157.2262 H   0  0  0  0  0  0  0  0  0  0  0  0
  147.4145  142.9005  156.8083 H   0  0  0  0  0  0  0  0  0  0  0  0
  147.2587  142.3911  158.4915 H   0  0  0  0  0  0  0  0  0  0  0  0
  148.6315  143.8260  159.1843 H   0  0  0  0  0  0  0  0  0  0  0  0
  149.9540  142.9493  159.9059 H   0  0  0  0  0  0  0  0  0  0  0  0
  150.0408  145.6527  158.4643 H   0  0  0  0  0  0  0  0  0  0  0  0
  150.2102  145.3992  160.1845 H   0  0  0  0  0  0  0  0  0  0  0  0
  152.4236  145.7622  159.0618 H   0  0  0  0  0  0  0  0  0  0  0  0
  152.3455  144.2096  159.8606 H   0  0  0  0  0  0  0  0  0  0  0  0
  151.9130  144.7529  156.8845 H   0  0  0  0  0  0  0  0  0  0  0  0
  153.2859  143.9365  157.5797 H   0  0  0  0  0  0  0  0  0  0  0  0
  151.6263  142.4595  156.5334 H   0  0  0  0  0  0  0  0  0  0  0  0
  153.1359  141.5379  158.2591 H   0  0  0  0  0  0  0  0  0  0  0  0
  151.6125  140.6800  158.2961 H   0  0  0  0  0  0  0  0  0  0  0  0
  151.9724  141.8801  159.5268 H   0  0  0  0  0  0  0  0  0  0  0  0
  149.7080  143.6030  157.0659 H   0  0  0  0  0  0  0  0  0  0  0  0
  1  2  1  0  0  0  0
  1 21  1  0  0  0  0
  1 22  1  0  0  0  0
  1 23  1  0  0  0  0
  2 20  1  0  0  0  0
  2  3  2  0  0  0  0
  3  4  1  0  0  0  0
  3 24  1  0  0  0  0
  4  5  1  0  0  0  0
  4 19  2  0  0  0  0
  5  6  1  0  0  0  0
  6  7  2  0  0  0  0
  6  8  1  0  0  0  0
  8  9  1  0  0  0  0
  8 25  1  0  0  0  0
  9 10  1  0  0  0  0
  9 26  1  0  0  0  0
  9 27  1  0  0  0  0
 10 11  1  0  0  0  0
 10 12  1  0  0  0  0
 10 28  1  0  0  0  0
 11 29  1  0  0  0  0
 11 30  1  0  0  0  0
 11 31  1  0  0  0  0
 12 17  1  0  0  0  0
 12 13  1  0  0  0  0
 12 44  1  0  0  0  0
 13 14  1  0  0  0  0
 13 32  1  0  0  0  0
 13 33  1  0  0  0  0
 14 15  1  0  0  0  0
 14 34  1  0  0  0  0
 14 35  1  0  0  0  0
 15 16  1  0  0  0  0
 15 36  1  0  0  0  0
 15 37  1  0  0  0  0
 16 17  1  0  0  0  0
 16 38  1  0  0  0  0
 16 39  1  0  0  0  0
 17 18  1  0  0  0  0
 17 40  1  0  0  0  0
 18 41  1  0  0  0  0
 18 42  1  0  0  0  0
 18 43  1  0  0  0  0
 19 20  1  0  0  0  0
M  CHG  1   5  -1
M  CHG  1  12   1
M  END
> <s_m_source_file>
AV-unprocessed.smi

> <i_m_source_file_index>
1978

> <i_lp_mmshare_version>
43012

> <i_f3d_flags>
0

> <s_epik_input>
W0NIM11jMVtjSF1jKG5vMSlbTkhdQyg9TylbTkhdW0NIMl1bQ0BIXShbQ0gzXSlOMltDSDJdW0NIMl1bQ0gyXVtDSDJdW0NASF0yW0NIM10=

> <s_epik_cmdline>
J2VwaWtfcHl0aG9uJywgJy1waCcsICc3LjAnLCAnLXRuJywgJzgnLCAnLW1hJywgJzIwMCcsICctbWV0YWxfYmluZGluZycsICctaW1hZScsICc8aW5maWxlLm1hZT4nLCAnLW9tYWUnLCAnPG91dGZpbGUubWFlPic=

> <r_epik_Ionization_Penalty>
6.22372

> <r_epik_Ionization_Penalty_Charging>
6.22362

> <r_epik_Ionization_Penalty_Neutral>
9.65074e-05

> <r_epik_State_Penalty>
6.22363

> <r_epik_Charging_Adjusted_Penalty>
12.4472

> <i_epik_Tot_Q>
0

> <i_epik_Tot_abs_Q>
2

> <r_epik_Metal_State_Penalty>
2.16675

> <b_epik_Metal_Only>
1

> <s_lp_Force_Field>
OPLS_2005

> <r_lp_Energy>
12.8084

> <b_lp_Chiralities_Consistent>
1

> <s_lp_Variant>
AV-unprocessed.smi:1978-9

> <Gold.Version>
5.8.1

> <Gold.Id.Protein>
6NUR|6NUR_protein|mol2

> <Gold.PLP.Fitness>
40.1905

> <Gold.PLP.PLP>
-31.3421

> <Gold.PLP.part.hbond>
-3.0195

> <Gold.PLP.part.metal>
0.0000

> <Gold.PLP.part.buried>
-5.0664

> <Gold.PLP.part.nonpolar>
-24.0989

> <Gold.PLP.part.repulsive>
0.1764

> <Gold.PLP.ligand.clash>
0.0000

> <Gold.PLP.ligand.torsion>
1.4313

> <Gold.PLP.Chemscore.Hbond>
3.8560

> <Gold.PLP.Chemscore.CHOScore>
0.0000

> <Gold.PLP.Chemscore.Metal>
0.0000

> <Gold.Chemscore.Hbonds>
donor molecule, donor type, donor heavy atom, donor atom, acceptor molecule, acceptor atom, score
      L1  H    12    44       P1  8028  2.00
      P1  H  7989  7998       L1     7  0.82
      P1  H 10752 10764       L1    19  0.93

> <Gold.PLP.Chemscore.Internal.Correction>
0.1429

> <Gold.Rescore>
     Score         DG    S(hbond)    S(metal)    S(lipo)     H(rot)  DE(clash)    DE(int)     intcor
     16.63     -19.67       2.60        0.00      80.37       1.52       0.31       2.72       ----

> <Gold.Chemscore.Fitness>
16.6340

> <Gold.Chemscore.DG>
-19.6652

> <Gold.Chemscore.ZeroCoef>
-5.4800

> <Gold.Chemscore.Hbond>
2.5961

> <Gold.Chemscore.Metal>
0.0000

> <Gold.Chemscore.Lipo>
80.3675

> <Gold.Chemscore.Internal_Hbond>
0.0000

> <Gold.Chemscore.DEClash>
0.3095

> <Gold.Chemscore.DEInternal>
2.7217

> <Gold.Chemscore.Rot>
1.5190

> <Gold.Chemscore.Internal.Correction>
   9.000000E+99

> <Gold.Chemscore.Hbonds>
donor molecule, donor type, donor heavy atom, donor atom, acceptor molecule, acceptor atom, score
      L1  H    12    44       P1  8028  0.93
      P1  H  7989  7998       L1     7  0.77
      P1  H 10752 10764       L1    19  0.22

> <Gold.Chemscore.Hbond.Weighted>
-8.6708

> <Gold.Chemscore.Metal.Weighted>
-0.0000

> <Gold.Chemscore.Lipo.Weighted>
-9.4030

> <Gold.Chemscore.Internal_Hbond.Weighted>
0.0000

> <Gold.Chemscore.DEClash.Weighted>
0.3095

> <Gold.Chemscore.DEInternal.Weighted>
2.7217

> <Gold.Chemscore.Rot.Weighted>
3.8886

> <Gold.Chemscore.Internal.Correction.Weighted>
   9.000000E+99

> <Gold.Protein.RotatedTorsions>
[ 6907 6896 6895 6894 ] final  -62.37 input  -60.11 | X-H torsion
[ 7974 7965 7964 7962 ] final  -71.78 input  175.53 | X-H torsion
[ 8008 7997 7996 7995 ] final -166.15 input   59.86 | X-H torsion
[ 10167 10162 10161 10158 ] final -152.07 input  -65.29 | X-H torsion
[ 10718 10713 10712 10709 ] final -171.81 input   66.30 | X-H torsion
[ 10763 10752 10751 10750 ] final   -7.41 input  -60.55 | X-H torsion
[ 11005 11000 10999 10996 ] final  168.30 input  -57.11 | X-H torsion

> <Gold.Protein.ActiveResidues>
 VAL166  LYS551  ARG553  GLY616  TRP617  ASP618  TYR619  PRO620  LYS621  CYS622 
 ASP623  PHE694  ASN695  SER759  ASP760  ASP761  ALA762  ILE779  LEU786  VAL792 
 PHE793  MET794  SER795  GLU796  ALA797  LYS798  CYS799  TRP800  GLU811  SER814 

> <Gold.Protein.RotatedAtoms>
  150.7720  134.6579  159.6323 H   0  0  0  0  0  0  0  0  0  0  0  0  # atno 6907 bound_to 6896
  152.3776  134.6637  160.0163 H   0  0  0  0  0  0  0  0  0  0  0  0  # atno 6908 bound_to 6896
  151.6977  133.3274  159.3295 H   0  0  0  0  0  0  0  0  0  0  0  0  # atno 6909 bound_to 6896
  145.6737  140.9212  143.0869 H   0  0  0  0  0  0  0  0  0  0  0  0  # atno 7974 bound_to 7965
  155.8597  140.0976  157.1621 H   0  0  0  0  0  0  0  0  0  0  0  0  # atno 8008 bound_to 7997
  154.3990  140.1367  156.4008 H   0  0  0  0  0  0  0  0  0  0  0  0  # atno 8009 bound_to 7997
  155.7870  140.3457  155.5330 H   0  0  0  0  0  0  0  0  0  0  0  0  # atno 8010 bound_to 7997
  139.7213  143.8952  152.2504 H   0  0  0  0  0  0  0  0  0  0  0  0  # atno 10167 bound_to 10162
  156.7464  130.9361  151.3112 H   0  0  0  0  0  0  0  0  0  0  0  0  # atno 10718 bound_to 10713
  153.4259  135.7011  153.6262 H   0  0  0  0  0  0  0  0  0  0  0  0  # atno 10763 bound_to 10752
  153.4697  135.3717  155.2384 H   0  0  0  0  0  0  0  0  0  0  0  0  # atno 10764 bound_to 10752
  154.8724  135.4040  154.3635 H   0  0  0  0  0  0  0  0  0  0  0  0  # atno 10765 bound_to 10752
  140.2858  134.7713  157.3797 H   0  0  0  0  0  0  0  0  0  0  0  0  # atno 11005 bound_to 11000
  144.7048  139.8605  143.7433 LP  0  0  0  0  0  0  0  0  0  0  0  0  # atno 17320 bound_to 7965
  146.1024  139.4020  143.0339 LP  0  0  0  0  0  0  0  0  0  0  0  0  # atno 17321 bound_to 7965
  139.8849  144.6997  150.8835 LP  0  0  0  0  0  0  0  0  0  0  0  0  # atno 17342 bound_to 10162
  140.7754  143.3632  151.1789 LP  0  0  0  0  0  0  0  0  0  0  0  0  # atno 17343 bound_to 10162
  157.6796  130.9127  150.0235 LP  0  0  0  0  0  0  0  0  0  0  0  0  # atno 17370 bound_to 10713
  156.1430  130.3642  149.9553 LP  0  0  0  0  0  0  0  0  0  0  0  0  # atno 17371 bound_to 10713
  140.1241  134.5181  155.8159 LP  0  0  0  0  0  0  0  0  0  0  0  0  # atno 17394 bound_to 11000
  141.2155  133.6766  156.6919 LP  0  0  0  0  0  0  0  0  0  0  0  0  # atno 17395 bound_to 11000

$$$$
