AV-unprocessed.smi:1220|AV-procd|sdf|5116|dock8
  -GOLD-   22720 4173D 1   1.00000     0.00000
 Structure written by MMmdl.
 35 36  0  0  0  0  0  0  0  0  1 V2000
  149.2427  141.5775  157.2858 C   0  0  0  0  0  0  0  0  0  0  0  0
  150.7083  141.3050  157.6497 C   0  0  2  0  0  0  0  0  0  0  0  0
  151.5916  142.5459  157.3950 C   0  0  0  0  0  0  0  0  0  0  0  0
  151.4874  143.5352  158.4542 N   0  0  0  0  0  0  0  0  0  0  0  0
  150.4468  144.4003  158.7195 C   0  0  0  0  0  0  0  0  0  0  0  0
  150.7881  145.1180  159.8299 C   0  0  0  0  0  0  0  0  0  0  0  0
  152.0758  144.6190  160.1725 C   0  0  0  0  0  0  0  0  0  0  0  0
  152.4939  143.6754  159.3447 N   0  0  0  0  0  0  0  0  0  0  0  0
  151.1861  140.1583  156.8775 N   0  0  0  0  0  0  0  0  0  0  0  0
  151.1583  140.0512  155.5391 C   0  0  0  0  0  0  0  0  0  0  0  0
  150.7709  140.9551  154.7977 O   0  0  0  0  0  0  0  0  0  0  0  0
  151.6219  138.7093  154.9514 C   0  0  1  0  0  0  0  0  0  0  0  0
  153.0584  138.3652  155.4086 C   0  0  0  0  0  0  0  0  0  0  0  0
  153.0145  137.7045  156.7900 C   0  0  0  0  0  0  0  0  0  0  0  0
  151.4762  136.7146  156.8009 S   0  0  0  0  0  0  0  0  0  0  0  0
  151.7902  135.3293  156.4192 O   0  0  0  0  0  0  0  0  0  0  0  0
  150.7201  137.0076  158.0278 O   0  0  0  0  0  0  0  0  0  0  0  0
  150.6879  137.5539  155.3698 C   0  0  0  0  0  0  0  0  0  0  0  0
  148.8431  142.4091  157.8668 H   0  0  0  0  0  0  0  0  0  0  0  0
  148.6189  140.7062  157.4881 H   0  0  0  0  0  0  0  0  0  0  0  0
  149.1342  141.8273  156.2297 H   0  0  0  0  0  0  0  0  0  0  0  0
  150.7360  141.0712  158.7155 H   0  0  0  0  0  0  0  0  0  0  0  0
  152.6368  142.2545  157.2773 H   0  0  0  0  0  0  0  0  0  0  0  0
  151.2972  143.0271  156.4614 H   0  0  0  0  0  0  0  0  0  0  0  0
  149.5564  144.4247  158.1087 H   0  0  0  0  0  0  0  0  0  0  0  0
  150.2055  145.8812  160.3240 H   0  0  0  0  0  0  0  0  0  0  0  0
  152.7147  144.9119  160.9925 H   0  0  0  0  0  0  0  0  0  0  0  0
  151.5220  139.3661  157.4058 H   0  0  0  0  0  0  0  0  0  0  0  0
  151.6051  138.8005  153.8641 H   0  0  0  0  0  0  0  0  0  0  0  0
  153.4899  137.6610  154.6962 H   0  0  0  0  0  0  0  0  0  0  0  0
  153.7127  139.2380  155.4118 H   0  0  0  0  0  0  0  0  0  0  0  0
  153.8767  137.0689  156.9916 H   0  0  0  0  0  0  0  0  0  0  0  0
  152.9421  138.4550  157.5778 H   0  0  0  0  0  0  0  0  0  0  0  0
  149.6839  137.8786  155.6469 H   0  0  0  0  0  0  0  0  0  0  0  0
  150.5917  136.8259  154.5645 H   0  0  0  0  0  0  0  0  0  0  0  0
  1  2  1  0  0  0  0
  1 19  1  0  0  0  0
  1 20  1  0  0  0  0
  1 21  1  0  0  0  0
  2  3  1  0  0  0  0
  2  9  1  0  0  0  0
  2 22  1  0  0  0  0
  3  4  1  0  0  0  0
  3 23  1  0  0  0  0
  3 24  1  0  0  0  0
  4  8  1  0  0  0  0
  4  5  1  0  0  0  0
  5  6  2  0  0  0  0
  5 25  1  0  0  0  0
  6  7  1  0  0  0  0
  6 26  1  0  0  0  0
  7  8  2  0  0  0  0
  7 27  1  0  0  0  0
  9 10  1  0  0  0  0
  9 28  1  0  0  0  0
 10 11  2  0  0  0  0
 10 12  1  0  0  0  0
 12 18  1  0  0  0  0
 12 13  1  0  0  0  0
 12 29  1  0  0  0  0
 13 14  1  0  0  0  0
 13 30  1  0  0  0  0
 13 31  1  0  0  0  0
 14 15  1  0  0  0  0
 14 32  1  0  0  0  0
 14 33  1  0  0  0  0
 15 16  2  0  0  0  0
 15 17  2  0  0  0  0
 15 18  1  0  0  0  0
 18 34  1  0  0  0  0
 18 35  1  0  0  0  0
M  END
> <s_m_source_file>
AV-unprocessed.smi

> <i_m_source_file_index>
1220

> <i_lp_mmshare_version>
43012

> <i_f3d_flags>
0

> <s_epik_input>
bjFbY0hdW2NIXVtjSF1uMVtDSDJdW0NAQEhdKFtDSDNdKVtOSF1DKD1PKVtDQEBIXShbQ0gyXTIpW0NIMl1bQ0gyXVMyKD1PKT1P

> <s_epik_cmdline>
J2VwaWtfcHl0aG9uJywgJy1waCcsICc3LjAnLCAnLXRuJywgJzgnLCAnLW1hJywgJzIwMCcsICctbWV0YWxfYmluZGluZycsICctaW1hZScsICc8aW5maWxlLm1hZT4nLCAnLW9tYWUnLCAnPG91dGZpbGUubWFlPic=

> <r_lp_tautomer_probability>
1

> <r_epik_Ionization_Penalty>
0.000293905

> <r_epik_Ionization_Penalty_Charging>
0

> <r_epik_Ionization_Penalty_Neutral>
0.000293905

> <r_epik_State_Penalty>
-0

> <r_epik_Charging_Adjusted_Penalty>
0

> <i_epik_Tot_Q>
0

> <i_epik_Tot_abs_Q>
0

> <r_epik_Metal_State_Penalty>
-0

> <b_epik_Metal_Only>
0

> <s_lp_Force_Field>
OPLS_2005

> <r_lp_Energy>
1.9569

> <b_lp_Chiralities_Consistent>
1

> <s_lp_Variant>
AV-unprocessed.smi:1220-3

> <Gold.Version>
5.8.1

> <Gold.Id.Protein>
6NUR|6NUR_protein|mol2

> <Gold.PLP.Fitness>
40.3658

> <Gold.PLP.PLP>
-32.3053

> <Gold.PLP.part.hbond>
-2.0425

> <Gold.PLP.part.metal>
0.0000

> <Gold.PLP.part.buried>
-5.8275

> <Gold.PLP.part.nonpolar>
-24.3866

> <Gold.PLP.part.repulsive>
0.1711

> <Gold.PLP.ligand.clash>
0.0000

> <Gold.PLP.ligand.torsion>
0.4366

> <Gold.PLP.Chemscore.Hbond>
1.8640

> <Gold.PLP.Chemscore.CHOScore>
1.1084

> <Gold.PLP.Chemscore.Metal>
0.0000

> <Gold.Chemscore.Hbonds>
donor molecule, donor type, donor heavy atom, donor atom, acceptor molecule, acceptor atom, score
      P1  H  7989  7998       L1    11  0.74
      P1  H 10752 10764       L1    16  0.99
      L1  C     5    25       P1  8028  0.43
      L1  C     5    25       P1  8029  0.72

> <Gold.PLP.Chemscore.Internal.Correction>
0.0166

> <Gold.Rescore>
     Score         DG    S(hbond)    S(metal)    S(lipo)     H(rot)  DE(clash)    DE(int)     intcor
     12.21     -14.94       1.56        0.00      74.48       1.75       0.39       2.34       ----

> <Gold.Chemscore.Fitness>
12.2103

> <Gold.Chemscore.DG>
-14.9415

> <Gold.Chemscore.ZeroCoef>
-5.4800

> <Gold.Chemscore.Hbond>
1.5619

> <Gold.Chemscore.Metal>
0.0000

> <Gold.Chemscore.Lipo>
74.4840

> <Gold.Chemscore.Internal_Hbond>
0.0000

> <Gold.Chemscore.DEClash>
0.3894

> <Gold.Chemscore.DEInternal>
2.3418

> <Gold.Chemscore.Rot>
1.7460

> <Gold.Chemscore.Internal.Correction>
   9.000000E+99

> <Gold.Chemscore.Hbonds>
donor molecule, donor type, donor heavy atom, donor atom, acceptor molecule, acceptor atom, score
      P1  H  7989  7998       L1    11  0.46
      P1  H 10752 10764       L1    16  0.60

> <Gold.Chemscore.Hbond.Weighted>
-5.2166

> <Gold.Chemscore.Metal.Weighted>
-0.0000

> <Gold.Chemscore.Lipo.Weighted>
-8.7146

> <Gold.Chemscore.Internal_Hbond.Weighted>
0.0000

> <Gold.Chemscore.DEClash.Weighted>
0.3894

> <Gold.Chemscore.DEInternal.Weighted>
2.3418

> <Gold.Chemscore.Rot.Weighted>
4.4697

> <Gold.Chemscore.Internal.Correction.Weighted>
   9.000000E+99

> <Gold.Protein.RotatedTorsions>
[ 6907 6896 6895 6894 ] final  128.88 input  -60.11 | X-H torsion
[ 7974 7965 7964 7962 ] final   88.44 input  175.53 | X-H torsion
[ 8008 7997 7996 7995 ] final  -91.41 input   59.86 | X-H torsion
[ 10167 10162 10161 10158 ] final  -72.70 input  -65.29 | X-H torsion
[ 10718 10713 10712 10709 ] final   46.71 input   66.30 | X-H torsion
[ 10763 10752 10751 10750 ] final   -9.05 input  -60.55 | X-H torsion
[ 11005 11000 10999 10996 ] final  -49.26 input  -57.11 | X-H torsion

> <Gold.Protein.ActiveResidues>
 VAL166  LYS551  ARG553  GLY616  TRP617  ASP618  TYR619  PRO620  LYS621  CYS622 
 ASP623  PHE694  ASN695  SER759  ASP760  ASP761  ALA762  ILE779  LEU786  VAL792 
 PHE793  MET794  SER795  GLU796  ALA797  LYS798  CYS799  TRP800  GLU811  SER814 

> <Gold.Protein.RotatedAtoms>
  152.3677  133.6378  159.6062 H   0  0  0  0  0  0  0  0  0  0  0  0  # atno 6907 bound_to 6896
  150.7646  133.9321  159.3439 H   0  0  0  0  0  0  0  0  0  0  0  0  # atno 6908 bound_to 6896
  151.7149  135.0906  160.0325 H   0  0  0  0  0  0  0  0  0  0  0  0  # atno 6909 bound_to 6896
  145.5457  139.2291  143.2541 H   0  0  0  0  0  0  0  0  0  0  0  0  # atno 7974 bound_to 7965
  154.7104  140.0520  157.0545 H   0  0  0  0  0  0  0  0  0  0  0  0  # atno 8008 bound_to 7997
  155.0562  140.3184  155.4656 H   0  0  0  0  0  0  0  0  0  0  0  0  # atno 8009 bound_to 7997
  156.2787  140.2107  156.5689 H   0  0  0  0  0  0  0  0  0  0  0  0  # atno 8010 bound_to 7997
  140.5170  143.2336  151.7495 H   0  0  0  0  0  0  0  0  0  0  0  0  # atno 10167 bound_to 10162
  157.4509  130.8138  149.7788 H   0  0  0  0  0  0  0  0  0  0  0  0  # atno 10718 bound_to 10713
  153.4492  135.7015  153.6120 H   0  0  0  0  0  0  0  0  0  0  0  0  # atno 10763 bound_to 10752
  153.4461  135.3769  155.2257 H   0  0  0  0  0  0  0  0  0  0  0  0  # atno 10764 bound_to 10752
  154.8728  135.3986  154.3902 H   0  0  0  0  0  0  0  0  0  0  0  0  # atno 10765 bound_to 10752
  141.0749  133.6669  156.3559 H   0  0  0  0  0  0  0  0  0  0  0  0  # atno 11005 bound_to 11000
  146.1951  140.6278  142.9128 LP  0  0  0  0  0  0  0  0  0  0  0  0  # atno 17320 bound_to 7965
  144.7555  140.5295  143.6772 LP  0  0  0  0  0  0  0  0  0  0  0  0  # atno 17321 bound_to 7965
  139.4912  144.4309  151.9873 LP  0  0  0  0  0  0  0  0  0  0  0  0  # atno 17342 bound_to 10162
  140.3404  144.3210  150.5968 LP  0  0  0  0  0  0  0  0  0  0  0  0  # atno 17343 bound_to 10162
  155.9987  130.3893  150.2692 LP  0  0  0  0  0  0  0  0  0  0  0  0  # atno 17370 bound_to 10713
  157.0864  131.0157  151.3138 LP  0  0  0  0  0  0  0  0  0  0  0  0  # atno 17371 bound_to 10713
  140.5595  134.5948  157.5430 LP  0  0  0  0  0  0  0  0  0  0  0  0  # atno 17394 bound_to 11000
  139.9561  134.7533  156.0339 LP  0  0  0  0  0  0  0  0  0  0  0  0  # atno 17395 bound_to 11000

$$$$
