AV-unprocessed.smi:1365|AV-procd|sdf|5568|dock8
  -GOLD-   22720 5163D 1   1.00000     0.00000
 Structure written by MMmdl.
 42 43  0  0  0  0  0  0  0  0  2 V2000
  150.6846  141.7105  155.9686 C   0  0  0  0  0  0  0  0  0  0  0  0
  150.8455  140.3063  155.4951 C   0  0  0  0  0  0  0  0  0  0  0  0
  149.9519  139.3095  155.2196 C   0  0  0  0  0  0  0  0  0  0  0  0
  150.7874  138.2308  154.8252 C   0  0  0  0  0  0  0  0  0  0  0  0
  150.2342  136.9777  154.4565 N   0  0  0  0  0  0  0  0  0  0  0  0
  150.2286  135.8425  155.1760 C   0  0  0  0  0  0  0  0  0  0  0  0
  150.7337  135.7056  156.2908 O   0  0  0  0  0  0  0  0  0  0  0  0
  149.5904  134.8561  154.5291 N   0  0  0  0  0  0  0  0  0  0  0  0
  149.3636  133.5187  155.0652 C   0  0  0  0  0  0  0  0  0  0  0  0
  149.1093  132.4885  153.9522 C   0  0  0  0  0  0  0  0  0  0  0  0
  147.8042  131.7058  154.1752 C   0  0  0  0  0  0  0  0  0  0  0  0
  147.1100  131.3890  152.9016 N   0  3  0  0  0  0  0  0  0  0  0  0
  145.8891  130.5674  153.1144 C   0  0  0  0  0  0  0  0  0  0  0  0
  145.2637  130.1397  151.7755 C   0  0  0  0  0  0  0  0  0  0  0  0
  144.9509  131.3602  150.9007 C   0  0  0  0  0  0  0  0  0  0  0  0
  146.2153  132.2095  150.7192 C   0  0  0  0  0  0  0  0  0  0  0  0
  146.8207  132.5949  152.0794 C   0  0  0  0  0  0  0  0  0  0  0  0
  152.0742  138.5423  154.8515 N   0  0  0  0  0  0  0  0  0  0  0  0
  152.1181  139.8738  155.2818 O   0  0  0  0  0  0  0  0  0  0  0  0
  149.6745  142.0724  155.7765 H   0  0  0  0  0  0  0  0  0  0  0  0
  151.3830  142.3750  155.4594 H   0  0  0  0  0  0  0  0  0  0  0  0
  150.8712  141.7793  157.0405 H   0  0  0  0  0  0  0  0  0  0  0  0
  148.8752  139.3481  155.2952 H   0  0  0  0  0  0  0  0  0  0  0  0
  149.7747  136.9496  153.5583 H   0  0  0  0  0  0  0  0  0  0  0  0
  149.2094  135.0530  153.6150 H   0  0  0  0  0  0  0  0  0  0  0  0
  150.2149  133.2185  155.6788 H   0  0  0  0  0  0  0  0  0  0  0  0
  148.5025  133.5639  155.7324 H   0  0  0  0  0  0  0  0  0  0  0  0
  149.0877  133.0045  152.9925 H   0  0  0  0  0  0  0  0  0  0  0  0
  149.9414  131.7845  153.9060 H   0  0  0  0  0  0  0  0  0  0  0  0
  148.0576  130.7754  154.6856 H   0  0  0  0  0  0  0  0  0  0  0  0
  147.1322  132.2477  154.8424 H   0  0  0  0  0  0  0  0  0  0  0  0
  146.1401  129.6753  153.6897 H   0  0  0  0  0  0  0  0  0  0  0  0
  145.1660  131.1331  153.7044 H   0  0  0  0  0  0  0  0  0  0  0  0
  145.9481  129.4747  151.2469 H   0  0  0  0  0  0  0  0  0  0  0  0
  144.3532  129.5668  151.9545 H   0  0  0  0  0  0  0  0  0  0  0  0
  144.5665  131.0420  149.9311 H   0  0  0  0  0  0  0  0  0  0  0  0
  144.1672  131.9584  151.3675 H   0  0  0  0  0  0  0  0  0  0  0  0
  146.9503  131.6539  150.1354 H   0  0  0  0  0  0  0  0  0  0  0  0
  145.9811  133.1082  150.1475 H   0  0  0  0  0  0  0  0  0  0  0  0
  146.1351  133.2493  152.6206 H   0  0  0  0  0  0  0  0  0  0  0  0
  147.7326  133.1664  151.9101 H   0  0  0  0  0  0  0  0  0  0  0  0
  147.7444  130.8119  152.3676 H   0  0  0  0  0  0  0  0  0  0  0  0
  1  2  1  0  0  0  0
  1 20  1  0  0  0  0
  1 21  1  0  0  0  0
  1 22  1  0  0  0  0
  2 19  1  0  0  0  0
  2  3  2  0  0  0  0
  3  4  1  0  0  0  0
  3 23  1  0  0  0  0
  4  5  1  0  0  0  0
  4 18  2  0  0  0  0
  5  6  1  0  0  0  0
  5 24  1  0  0  0  0
  6  7  2  0  0  0  0
  6  8  1  0  0  0  0
  8  9  1  0  0  0  0
  8 25  1  0  0  0  0
  9 10  1  0  0  0  0
  9 26  1  0  0  0  0
  9 27  1  0  0  0  0
 10 11  1  0  0  0  0
 10 28  1  0  0  0  0
 10 29  1  0  0  0  0
 11 12  1  0  0  0  0
 11 30  1  0  0  0  0
 11 31  1  0  0  0  0
 12 17  1  0  0  0  0
 12 13  1  0  0  0  0
 12 42  1  0  0  0  0
 13 14  1  0  0  0  0
 13 32  1  0  0  0  0
 13 33  1  0  0  0  0
 14 15  1  0  0  0  0
 14 34  1  0  0  0  0
 14 35  1  0  0  0  0
 15 16  1  0  0  0  0
 15 36  1  0  0  0  0
 15 37  1  0  0  0  0
 16 17  1  0  0  0  0
 16 38  1  0  0  0  0
 16 39  1  0  0  0  0
 17 40  1  0  0  0  0
 17 41  1  0  0  0  0
 18 19  1  0  0  0  0
M  CHG  1  12   1
M  END
> <s_m_source_file>
AV-unprocessed.smi

> <i_m_source_file_index>
1365

> <i_lp_mmshare_version>
43012

> <i_f3d_flags>
0

> <s_epik_input>
W0NIM11jMVtjSF1jKG5vMSlbTkhdQyg9TylbTkhdW0NIMl1bQ0gyXVtDSDJdTjJbQ0gyXVtDSDJdW0NIMl1bQ0gyXVtDSDJdMg==

> <s_epik_cmdline>
J2VwaWtfcHl0aG9uJywgJy1waCcsICc3LjAnLCAnLXRuJywgJzgnLCAnLW1hJywgJzIwMCcsICctbWV0YWxfYmluZGluZycsICctaW1hZScsICc8aW5maWxlLm1hZT4nLCAnLW9tYWUnLCAnPG91dGZpbGUubWFlPic=

> <r_epik_Ionization_Penalty>
0.000389345

> <r_epik_Ionization_Penalty_Charging>
0.000358942

> <r_epik_Ionization_Penalty_Neutral>
3.04028e-05

> <r_epik_State_Penalty>
0.000218395

> <r_epik_Charging_Adjusted_Penalty>
0.000577337

> <i_epik_Tot_Q>
1

> <i_epik_Tot_abs_Q>
1

> <r_epik_Metal_State_Penalty>
0.0112716

> <b_epik_Metal_Only>
0

> <s_lp_Force_Field>
OPLS_2005

> <r_lp_Energy>
13.5089

> <b_lp_Chiralities_Consistent>
1

> <s_lp_Variant>
AV-unprocessed.smi:1365-1

> <Gold.Version>
5.8.1

> <Gold.Id.Protein>
6NUR|6NUR_protein|mol2

> <Gold.PLP.Fitness>
48.0538

> <Gold.PLP.PLP>
-37.2057

> <Gold.PLP.part.hbond>
-7.9412

> <Gold.PLP.part.metal>
0.0000

> <Gold.PLP.part.buried>
-3.2719

> <Gold.PLP.part.nonpolar>
-25.6995

> <Gold.PLP.part.repulsive>
0.2362

> <Gold.PLP.ligand.clash>
0.0000

> <Gold.PLP.ligand.torsion>
1.4653

> <Gold.PLP.Chemscore.Hbond>
4.5833

> <Gold.PLP.Chemscore.CHOScore>
0.0000

> <Gold.PLP.Chemscore.Metal>
0.0000

> <Gold.Chemscore.Hbonds>
donor molecule, donor type, donor heavy atom, donor atom, acceptor molecule, acceptor atom, score
      L1  H     5    24       P1  7948  1.00
      L1  H     8    25       P1  7948  0.82
      L1  H    12    42       P1 10747  0.03
      P1  H  7997  8008       L1    19  0.05

> <Gold.PLP.Chemscore.Internal.Correction>
0.0288

> <Gold.Rescore>
     Score         DG    S(hbond)    S(metal)    S(lipo)     H(rot)  DE(clash)    DE(int)     intcor
     15.38     -17.06       2.08        0.00      79.29       1.82       0.36       1.31       ----

> <Gold.Chemscore.Fitness>
15.3814

> <Gold.Chemscore.DG>
-17.0568

> <Gold.Chemscore.ZeroCoef>
-5.4800

> <Gold.Chemscore.Hbond>
2.0835

> <Gold.Chemscore.Metal>
0.0000

> <Gold.Chemscore.Lipo>
79.2942

> <Gold.Chemscore.Internal_Hbond>
0.0000

> <Gold.Chemscore.DEClash>
0.3641

> <Gold.Chemscore.DEInternal>
1.3113

> <Gold.Chemscore.Rot>
1.8201

> <Gold.Chemscore.Internal.Correction>
   9.000000E+99

> <Gold.Chemscore.Hbonds>
donor molecule, donor type, donor heavy atom, donor atom, acceptor molecule, acceptor atom, score
      L1  H     5    24       P1  7948  0.54
      L1  H     8    25       P1  7948  0.18
      L1  H    12    42       P1 10747  0.07
      P1  H  7997  8008       L1    19  0.04

> <Gold.Chemscore.Hbond.Weighted>
-6.9587

> <Gold.Chemscore.Metal.Weighted>
-0.0000

> <Gold.Chemscore.Lipo.Weighted>
-9.2774

> <Gold.Chemscore.Internal_Hbond.Weighted>
0.0000

> <Gold.Chemscore.DEClash.Weighted>
0.3641

> <Gold.Chemscore.DEInternal.Weighted>
1.3113

> <Gold.Chemscore.Rot.Weighted>
4.6593

> <Gold.Chemscore.Internal.Correction.Weighted>
   9.000000E+99

> <Gold.Protein.RotatedTorsions>
[ 6907 6896 6895 6894 ] final  -73.12 input  -60.11 | X-H torsion
[ 7974 7965 7964 7962 ] final    0.85 input  175.53 | X-H torsion
[ 8008 7997 7996 7995 ] final  -25.08 input   59.86 | X-H torsion
[ 10167 10162 10161 10158 ] final  147.11 input  -65.29 | X-H torsion
[ 10718 10713 10712 10709 ] final  161.48 input   66.30 | X-H torsion
[ 10763 10752 10751 10750 ] final  -26.06 input  -60.55 | X-H torsion
[ 11005 11000 10999 10996 ] final -101.53 input  -57.11 | X-H torsion

> <Gold.Protein.ActiveResidues>
 VAL166  LYS551  ARG553  GLY616  TRP617  ASP618  TYR619  PRO620  LYS621  CYS622 
 ASP623  PHE694  ASN695  SER759  ASP760  ASP761  ALA762  ILE779  LEU786  VAL792 
 PHE793  MET794  SER795  GLU796  ALA797  LYS798  CYS799  TRP800  GLU811  SER814 

> <Gold.Protein.RotatedAtoms>
  150.7142  134.5063  159.5585 H   0  0  0  0  0  0  0  0  0  0  0  0  # atno 6907 bound_to 6896
  152.2649  134.7992  160.0433 H   0  0  0  0  0  0  0  0  0  0  0  0  # atno 6908 bound_to 6896
  151.8692  133.3437  159.3766 H   0  0  0  0  0  0  0  0  0  0  0  0  # atno 6909 bound_to 6896
  146.2437  140.1075  142.8345 H   0  0  0  0  0  0  0  0  0  0  0  0  # atno 7974 bound_to 7965
  154.4495  140.1936  156.0563 H   0  0  0  0  0  0  0  0  0  0  0  0  # atno 8008 bound_to 7997
  156.0616  140.3296  155.7441 H   0  0  0  0  0  0  0  0  0  0  0  0  # atno 8009 bound_to 7997
  155.5403  140.0586  157.2862 H   0  0  0  0  0  0  0  0  0  0  0  0  # atno 8010 bound_to 7997
  139.4895  144.5779  151.6929 H   0  0  0  0  0  0  0  0  0  0  0  0  # atno 10167 bound_to 10162
  157.1360  131.0528  151.2349 H   0  0  0  0  0  0  0  0  0  0  0  0  # atno 10718 bound_to 10713
  153.7098  135.6951  153.5040 H   0  0  0  0  0  0  0  0  0  0  0  0  # atno 10763 bound_to 10752
  153.2280  135.4347  155.0563 H   0  0  0  0  0  0  0  0  0  0  0  0  # atno 10764 bound_to 10752
  154.8318  135.3477  154.6636 H   0  0  0  0  0  0  0  0  0  0  0  0  # atno 10765 bound_to 10752
  141.1227  133.8485  157.1244 H   0  0  0  0  0  0  0  0  0  0  0  0  # atno 11005 bound_to 11000
  145.0516  140.9021  143.4992 LP  0  0  0  0  0  0  0  0  0  0  0  0  # atno 17320 bound_to 7965
  145.1174  139.2716  143.5606 LP  0  0  0  0  0  0  0  0  0  0  0  0  # atno 17321 bound_to 7965
  140.5379  144.0626  150.6077 LP  0  0  0  0  0  0  0  0  0  0  0  0  # atno 17342 bound_to 10162
  140.3638  143.2893  152.0354 LP  0  0  0  0  0  0  0  0  0  0  0  0  # atno 17343 bound_to 10162
  157.4350  130.7512  149.7021 LP  0  0  0  0  0  0  0  0  0  0  0  0  # atno 17370 bound_to 10713
  155.9798  130.4036  150.3565 LP  0  0  0  0  0  0  0  0  0  0  0  0  # atno 17371 bound_to 10713
  140.0198  134.9951  157.0567 LP  0  0  0  0  0  0  0  0  0  0  0  0  # atno 17394 bound_to 11000
  140.4459  134.1632  155.7177 LP  0  0  0  0  0  0  0  0  0  0  0  0  # atno 17395 bound_to 11000

$$$$
