AV-unprocessed.smi:2156|AV-procd|sdf|8781|dock8
  -GOLD-   2272011563D 1   1.00000     0.00000
 Structure written by MMmdl.
 33 33  0  0  0  0  0  0  0  0  2 V2000
  152.5596  143.4168  161.4281 C   0  0  0  0  0  0  0  0  0  0  0  0
  152.5647  142.6828  160.0825 C   0  0  0  0  0  0  0  0  0  0  0  0
  152.7137  143.6437  158.8902 C   0  0  0  0  0  0  0  0  0  0  0  0
  151.3918  144.2996  158.4470 C   0  0  2  0  0  0  0  0  0  0  0  0
  150.3646  144.3158  159.5912 C   0  0  0  0  0  0  0  0  0  0  0  0
  150.8451  143.6009  157.2860 N   0  0  0  0  0  0  0  0  0  0  0  0
  150.8279  142.2703  157.1145 C   0  0  0  0  0  0  0  0  0  0  0  0
  151.3066  141.4796  157.9289 O   0  0  0  0  0  0  0  0  0  0  0  0
  150.1943  141.7720  155.8077 C   0  0  0  0  0  0  0  0  0  0  0  0
  150.5150  140.3680  155.5029 N   0  0  0  0  0  0  0  0  0  0  0  0
  151.8580  139.9666  155.6128 C   0  0  0  0  0  0  0  0  0  0  0  0
  152.2448  138.7020  155.3589 C   0  0  0  0  0  0  0  0  0  0  0  0
  151.2283  137.7363  154.9605 C   0  0  0  0  0  0  0  0  0  0  0  0
  151.5641  136.5781  154.7199 O   0  0  0  0  0  0  0  0  0  0  0  0
  149.9378  138.1730  154.8725 N   0  5  0  0  0  0  0  0  0  0  0  0
  149.5589  139.4624  155.1355 C   0  0  0  0  0  0  0  0  0  0  0  0
  148.3883  139.8356  155.0517 O   0  0  0  0  0  0  0  0  0  0  0  0
  152.4549  142.7131  162.2541 H   0  0  0  0  0  0  0  0  0  0  0  0
  151.7321  144.1242  161.4870 H   0  0  0  0  0  0  0  0  0  0  0  0
  153.4864  143.9709  161.5789 H   0  0  0  0  0  0  0  0  0  0  0  0
  153.3799  141.9584  160.0722 H   0  0  0  0  0  0  0  0  0  0  0  0
  151.6422  142.1087  159.9896 H   0  0  0  0  0  0  0  0  0  0  0  0
  153.4413  144.4185  159.1360 H   0  0  0  0  0  0  0  0  0  0  0  0
  153.1333  143.0918  158.0480 H   0  0  0  0  0  0  0  0  0  0  0  0
  151.6076  145.3325  158.1665 H   0  0  0  0  0  0  0  0  0  0  0  0
  150.7575  144.8408  160.4621 H   0  0  0  0  0  0  0  0  0  0  0  0
  150.1016  143.3043  159.9026 H   0  0  0  0  0  0  0  0  0  0  0  0
  149.4460  144.8222  159.2936 H   0  0  0  0  0  0  0  0  0  0  0  0
  150.4324  144.1733  156.5639 H   0  0  0  0  0  0  0  0  0  0  0  0
  149.1119  141.9069  155.8527 H   0  0  0  0  0  0  0  0  0  0  0  0
  150.5297  142.4225  154.9989 H   0  0  0  0  0  0  0  0  0  0  0  0
  152.5459  140.7411  155.9192 H   0  0  0  0  0  0  0  0  0  0  0  0
  153.2804  138.4091  155.4504 H   0  0  0  0  0  0  0  0  0  0  0  0
  1  2  1  0  0  0  0
  1 18  1  0  0  0  0
  1 19  1  0  0  0  0
  1 20  1  0  0  0  0
  2  3  1  0  0  0  0
  2 21  1  0  0  0  0
  2 22  1  0  0  0  0
  3  4  1  0  0  0  0
  3 23  1  0  0  0  0
  3 24  1  0  0  0  0
  4  5  1  0  0  0  0
  4  6  1  0  0  0  0
  4 25  1  0  0  0  0
  5 26  1  0  0  0  0
  5 27  1  0  0  0  0
  5 28  1  0  0  0  0
  6  7  1  0  0  0  0
  6 29  1  0  0  0  0
  7  8  2  0  0  0  0
  7  9  1  0  0  0  0
  9 10  1  0  0  0  0
  9 30  1  0  0  0  0
  9 31  1  0  0  0  0
 10 16  1  0  0  0  0
 10 11  1  0  0  0  0
 11 12  2  0  0  0  0
 11 32  1  0  0  0  0
 12 13  1  0  0  0  0
 12 33  1  0  0  0  0
 13 14  2  0  0  0  0
 13 15  1  0  0  0  0
 15 16  1  0  0  0  0
 16 17  2  0  0  0  0
M  CHG  1  15  -1
M  END
> <s_m_source_file>
AV-unprocessed.smi

> <i_m_source_file_index>
2156

> <i_lp_mmshare_version>
43012

> <i_f3d_flags>
0

> <s_epik_input>
W0NIM11bQ0gyXVtDSDJdW0NASF0oW0NIM10pW05IXUMoPU8pW0NIMl1uMVtjSF1bY0hdYyg9TylbbkhdYzE9Tw==

> <s_epik_cmdline>
J2VwaWtfcHl0aG9uJywgJy1waCcsICc3LjAnLCAnLXRuJywgJzgnLCAnLW1hJywgJzIwMCcsICctbWV0YWxfYmluZGluZycsICctaW1hZScsICc8aW5maWxlLm1hZT4nLCAnLW9tYWUnLCAnPG91dGZpbGUubWFlPic=

> <r_lp_tautomer_probability>
0.999537

> <r_epik_Ionization_Penalty>
3.08607

> <r_epik_Ionization_Penalty_Charging>
2.78879e-08

> <r_epik_Ionization_Penalty_Neutral>
3.08607

> <r_epik_State_Penalty>
3.08511

> <r_epik_Charging_Adjusted_Penalty>
3.08511

> <i_epik_Tot_Q>
-1

> <i_epik_Tot_abs_Q>
1

> <r_epik_Metal_State_Penalty>
0.460479

> <b_epik_Metal_Only>
1

> <s_lp_Force_Field>
OPLS_2005

> <r_lp_Energy>
12.6721

> <b_lp_Chiralities_Consistent>
1

> <s_lp_Variant>
AV-unprocessed.smi:2156-3

> <Gold.Version>
5.8.1

> <Gold.Id.Protein>
6NUR|6NUR_protein|mol2

> <Gold.PLP.Fitness>
42.4793

> <Gold.PLP.PLP>
-39.0794

> <Gold.PLP.part.hbond>
-2.0000

> <Gold.PLP.part.metal>
0.0000

> <Gold.PLP.part.buried>
-4.7329

> <Gold.PLP.part.nonpolar>
-33.6082

> <Gold.PLP.part.repulsive>
0.3828

> <Gold.PLP.ligand.clash>
0.0000

> <Gold.PLP.ligand.torsion>
1.2493

> <Gold.PLP.Chemscore.Hbond>
1.9600

> <Gold.PLP.Chemscore.CHOScore>
0.0000

> <Gold.PLP.Chemscore.Metal>
0.0000

> <Gold.Chemscore.Hbonds>
donor molecule, donor type, donor heavy atom, donor atom, acceptor molecule, acceptor atom, score
      L1  H     6    29       P1  8028  0.98
      P1  H 10752 10763       L1    14  1.00

> <Gold.PLP.Chemscore.Internal.Correction>
0.0186

> <Gold.Rescore>
     Score         DG    S(hbond)    S(metal)    S(lipo)     H(rot)  DE(clash)    DE(int)     intcor
     10.77     -15.83       1.95        0.00      79.49       2.14       0.05       5.01       ----

> <Gold.Chemscore.Fitness>
10.7661

> <Gold.Chemscore.DG>
-15.8317

> <Gold.Chemscore.ZeroCoef>
-5.4800

> <Gold.Chemscore.Hbond>
1.9530

> <Gold.Chemscore.Metal>
0.0000

> <Gold.Chemscore.Lipo>
79.4875

> <Gold.Chemscore.Internal_Hbond>
0.0000

> <Gold.Chemscore.DEClash>
0.0542

> <Gold.Chemscore.DEInternal>
5.0113

> <Gold.Chemscore.Rot>
2.1372

> <Gold.Chemscore.Internal.Correction>
   9.000000E+99

> <Gold.Chemscore.Hbonds>
donor molecule, donor type, donor heavy atom, donor atom, acceptor molecule, acceptor atom, score
      L1  H     6    29       P1  8028  0.93
      P1  H 10752 10763       L1    14  1.00

> <Gold.Chemscore.Hbond.Weighted>
-6.5230

> <Gold.Chemscore.Metal.Weighted>
-0.0000

> <Gold.Chemscore.Lipo.Weighted>
-9.3000

> <Gold.Chemscore.Internal_Hbond.Weighted>
0.0000

> <Gold.Chemscore.DEClash.Weighted>
0.0542

> <Gold.Chemscore.DEInternal.Weighted>
5.0113

> <Gold.Chemscore.Rot.Weighted>
5.4713

> <Gold.Chemscore.Internal.Correction.Weighted>
   9.000000E+99

> <Gold.Protein.RotatedTorsions>
[ 6907 6896 6895 6894 ] final   91.99 input  -60.11 | X-H torsion
[ 7974 7965 7964 7962 ] final   31.22 input  175.53 | X-H torsion
[ 8008 7997 7996 7995 ] final   22.89 input   59.86 | X-H torsion
[ 10167 10162 10161 10158 ] final  -95.48 input  -65.29 | X-H torsion
[ 10718 10713 10712 10709 ] final  109.91 input   66.30 | X-H torsion
[ 10763 10752 10751 10750 ] final   55.81 input  -60.55 | X-H torsion
[ 11005 11000 10999 10996 ] final -114.98 input  -57.11 | X-H torsion

> <Gold.Protein.ActiveResidues>
 VAL166  LYS551  ARG553  GLY616  TRP617  ASP618  TYR619  PRO620  LYS621  CYS622 
 ASP623  PHE694  ASN695  SER759  ASP760  ASP761  ALA762  ILE779  LEU786  VAL792 
 PHE793  MET794  SER795  GLU796  ALA797  LYS798  CYS799  TRP800  GLU811  SER814 

> <Gold.Protein.RotatedAtoms>
  152.5452  134.1571  159.8542 H   0  0  0  0  0  0  0  0  0  0  0  0  # atno 6907 bound_to 6896
  151.1593  133.4848  159.2602 H   0  0  0  0  0  0  0  0  0  0  0  0  # atno 6908 bound_to 6896
  151.1390  135.0180  159.8672 H   0  0  0  0  0  0  0  0  0  0  0  0  # atno 6909 bound_to 6896
  146.1564  139.6686  142.9064 H   0  0  0  0  0  0  0  0  0  0  0  0  # atno 7974 bound_to 7965
  154.9726  140.3092  155.4981 H   0  0  0  0  0  0  0  0  0  0  0  0  # atno 8008 bound_to 7997
  156.2964  140.2281  156.4759 H   0  0  0  0  0  0  0  0  0  0  0  0  # atno 8009 bound_to 7997
  154.7863  140.0442  157.1154 H   0  0  0  0  0  0  0  0  0  0  0  0  # atno 8010 bound_to 7997
  140.3037  143.3146  152.0221 H   0  0  0  0  0  0  0  0  0  0  0  0  # atno 10167 bound_to 10162
  157.6519  131.0922  150.6523 H   0  0  0  0  0  0  0  0  0  0  0  0  # atno 10718 bound_to 10713
  152.9822  135.5698  154.5127 H   0  0  0  0  0  0  0  0  0  0  0  0  # atno 10763 bound_to 10752
  154.4629  135.2782  155.1702 H   0  0  0  0  0  0  0  0  0  0  0  0  # atno 10764 bound_to 10752
  154.3282  135.6255  153.5592 H   0  0  0  0  0  0  0  0  0  0  0  0  # atno 10765 bound_to 10752
  141.0517  133.9677  157.2825 H   0  0  0  0  0  0  0  0  0  0  0  0  # atno 11005 bound_to 11000
  145.4698  141.0435  143.2705 LP  0  0  0  0  0  0  0  0  0  0  0  0  # atno 17320 bound_to 7965
  144.7969  139.6217  143.7089 LP  0  0  0  0  0  0  0  0  0  0  0  0  # atno 17321 bound_to 7965
  139.4909  144.6436  151.6825 LP  0  0  0  0  0  0  0  0  0  0  0  0  # atno 17342 bound_to 10162
  140.5628  144.0239  150.6178 LP  0  0  0  0  0  0  0  0  0  0  0  0  # atno 17343 bound_to 10162
  156.6833  130.4573  149.5621 LP  0  0  0  0  0  0  0  0  0  0  0  0  # atno 17370 bound_to 10713
  156.1913  130.6562  151.1065 LP  0  0  0  0  0  0  0  0  0  0  0  0  # atno 17371 bound_to 10713
  139.9356  135.0196  156.8544 LP  0  0  0  0  0  0  0  0  0  0  0  0  # atno 17394 bound_to 11000
  140.6042  134.0143  155.7550 LP  0  0  0  0  0  0  0  0  0  0  0  0  # atno 17395 bound_to 11000

$$$$
