AV-unprocessed.smi:2993|AV-procd|sdf|11402|dock1
  -GOLD-   2272016323D 1   1.00000     0.00000
 Structure written by MMmdl.
 34 35  0  0  0  0  0  0  0  0  1 V2000
  149.7657  142.0793  157.7233 C   0  0  0  0  0  0  0  0  0  0  0  0
  150.3818  141.1635  156.7046 C   0  0  0  0  0  0  0  0  0  0  0  0
  150.1647  141.3861  155.4193 N   0  0  0  0  0  0  0  0  0  0  0  0
  150.8585  140.3842  154.7340 O   0  0  0  0  0  0  0  0  0  0  0  0
  151.4723  139.5867  155.6446 C   0  0  0  0  0  0  0  0  0  0  0  0
  152.2717  138.4511  155.1007 C   0  0  0  0  0  0  0  0  0  0  0  0
  151.2096  140.0227  156.9149 C   0  0  0  0  0  0  0  0  0  0  0  0
  151.6795  139.4457  158.2255 C   0  0  0  0  0  0  0  0  0  0  0  0
  152.6984  140.3886  158.8650 C   0  0  0  0  0  0  0  0  0  0  0  0
  153.8911  140.0855  158.8825 O   0  0  0  0  0  0  0  0  0  0  0  0
  152.2114  141.5230  159.3914 N   0  0  0  0  0  0  0  0  0  0  0  0
  152.9942  142.5507  160.0684 C   0  0  2  0  0  0  0  0  0  0  0  0
  152.6329  142.5350  161.5602 C   0  0  0  0  0  0  0  0  0  0  0  0
  152.8072  143.9394  159.4806 C   0  0  0  0  0  0  0  0  0  0  0  0
  151.4410  144.5778  159.3864 C   0  0  0  0  0  0  0  0  0  0  0  0
  152.1549  144.1307  158.1318 C   0  0  0  0  0  0  0  0  0  0  0  0
  150.2981  142.0328  158.6731 H   0  0  0  0  0  0  0  0  0  0  0  0
  148.7266  141.8098  157.9121 H   0  0  0  0  0  0  0  0  0  0  0  0
  149.7856  143.1169  157.3882 H   0  0  0  0  0  0  0  0  0  0  0  0
  152.9418  138.0436  155.8575 H   0  0  0  0  0  0  0  0  0  0  0  0
  152.8786  138.7747  154.2550 H   0  0  0  0  0  0  0  0  0  0  0  0
  151.6177  137.6480  154.7617 H   0  0  0  0  0  0  0  0  0  0  0  0
  150.8485  139.3003  158.9166 H   0  0  0  0  0  0  0  0  0  0  0  0
  152.1316  138.4623  158.0900 H   0  0  0  0  0  0  0  0  0  0  0  0
  151.2165  141.6820  159.3263 H   0  0  0  0  0  0  0  0  0  0  0  0
  154.0511  142.2885  159.9878 H   0  0  0  0  0  0  0  0  0  0  0  0
  153.2387  143.2489  162.1191 H   0  0  0  0  0  0  0  0  0  0  0  0
  152.8026  141.5501  161.9969 H   0  0  0  0  0  0  0  0  0  0  0  0
  151.5853  142.7935  161.7178 H   0  0  0  0  0  0  0  0  0  0  0  0
  153.6328  144.6153  159.6970 H   0  0  0  0  0  0  0  0  0  0  0  0
  150.5815  143.9926  159.7073 H   0  0  0  0  0  0  0  0  0  0  0  0
  151.3727  145.6472  159.5743 H   0  0  0  0  0  0  0  0  0  0  0  0
  152.5631  144.9022  157.4824 H   0  0  0  0  0  0  0  0  0  0  0  0
  151.7699  143.2487  157.6237 H   0  0  0  0  0  0  0  0  0  0  0  0
  1  2  1  0  0  0  0
  1 17  1  0  0  0  0
  1 18  1  0  0  0  0
  1 19  1  0  0  0  0
  2  7  1  0  0  0  0
  2  3  2  0  0  0  0
  3  4  1  0  0  0  0
  4  5  1  0  0  0  0
  5  6  1  0  0  0  0
  5  7  2  0  0  0  0
  6 20  1  0  0  0  0
  6 21  1  0  0  0  0
  6 22  1  0  0  0  0
  7  8  1  0  0  0  0
  8  9  1  0  0  0  0
  8 23  1  0  0  0  0
  8 24  1  0  0  0  0
  9 10  2  0  0  0  0
  9 11  1  0  0  0  0
 11 12  1  0  0  0  0
 11 25  1  0  0  0  0
 12 13  1  0  0  0  0
 12 14  1  0  0  0  0
 12 26  1  0  0  0  0
 13 27  1  0  0  0  0
 13 28  1  0  0  0  0
 13 29  1  0  0  0  0
 14 16  1  0  0  0  0
 14 15  1  0  0  0  0
 14 30  1  0  0  0  0
 15 16  1  0  0  0  0
 15 31  1  0  0  0  0
 15 32  1  0  0  0  0
 16 33  1  0  0  0  0
 16 34  1  0  0  0  0
M  END
> <s_m_source_file>
AV-unprocessed.smi

> <i_m_source_file_index>
2993

> <i_lp_mmshare_version>
43012

> <i_f3d_flags>
0

> <s_epik_input>
W0NIM11jMW5vYyhbQ0gzXSljMVtDSDJdQyg9TylbTkhdW0NASF0oW0NIM10pW0NIXTJbQ0gyXVtDSDJdMg==

> <s_epik_cmdline>
J2VwaWtfcHl0aG9uJywgJy1waCcsICc3LjAnLCAnLXRuJywgJzgnLCAnLW1hJywgJzIwMCcsICctbWV0YWxfYmluZGluZycsICctaW1hZScsICc8aW5maWxlLm1hZT4nLCAnLW9tYWUnLCAnPG91dGZpbGUubWFlPic=

> <r_lp_tautomer_probability>
1

> <r_epik_Ionization_Penalty>
1.92533e-08

> <r_epik_Ionization_Penalty_Charging>
0

> <r_epik_Ionization_Penalty_Neutral>
1.92533e-08

> <r_epik_State_Penalty>
-0

> <r_epik_Charging_Adjusted_Penalty>
0

> <i_epik_Tot_Q>
0

> <i_epik_Tot_abs_Q>
0

> <r_epik_Metal_State_Penalty>
-0

> <b_epik_Metal_Only>
0

> <s_lp_Force_Field>
OPLS_2005

> <r_lp_Energy>
6.61094

> <b_lp_Chiralities_Consistent>
1

> <s_lp_Variant>
AV-unprocessed.smi:2993-1

> <Gold.Version>
5.8.1

> <Gold.Id.Protein>
6NUR|6NUR_protein|mol2

> <Gold.PLP.Fitness>
43.1167

> <Gold.PLP.PLP>
-37.9298

> <Gold.PLP.part.hbond>
-2.4571

> <Gold.PLP.part.metal>
0.0000

> <Gold.PLP.part.buried>
-3.9906

> <Gold.PLP.part.nonpolar>
-31.7126

> <Gold.PLP.part.repulsive>
0.3089

> <Gold.PLP.ligand.clash>
0.0000

> <Gold.PLP.ligand.torsion>
0.9417

> <Gold.PLP.Chemscore.Hbond>
2.0000

> <Gold.PLP.Chemscore.CHOScore>
0.0000

> <Gold.PLP.Chemscore.Metal>
0.0000

> <Gold.Chemscore.Hbonds>
donor molecule, donor type, donor heavy atom, donor atom, acceptor molecule, acceptor atom, score
      P1  H  7989  7998       L1     4  1.00
      P1  H  7997  8008       L1    10  0.99

> <Gold.PLP.Chemscore.Internal.Correction>
1.0704

> <Gold.Rescore>
     Score         DG    S(hbond)    S(metal)    S(lipo)     H(rot)  DE(clash)    DE(int)     intcor
     18.02     -19.06       1.80        0.00      96.60       1.46       0.01       1.03       ----

> <Gold.Chemscore.Fitness>
18.0199

> <Gold.Chemscore.DG>
-19.0629

> <Gold.Chemscore.ZeroCoef>
-5.4800

> <Gold.Chemscore.Hbond>
1.8007

> <Gold.Chemscore.Metal>
0.0000

> <Gold.Chemscore.Lipo>
96.5976

> <Gold.Chemscore.Internal_Hbond>
0.0000

> <Gold.Chemscore.DEClash>
0.0149

> <Gold.Chemscore.DEInternal>
1.0281

> <Gold.Chemscore.Rot>
1.4584

> <Gold.Chemscore.Internal.Correction>
   9.000000E+99

> <Gold.Chemscore.Hbonds>
donor molecule, donor type, donor heavy atom, donor atom, acceptor molecule, acceptor atom, score
      P1  H  7989  7998       L1     4  0.80
      P1  H  7997  8008       L1    10  0.86

> <Gold.Chemscore.Hbond.Weighted>
-6.0144

> <Gold.Chemscore.Metal.Weighted>
-0.0000

> <Gold.Chemscore.Lipo.Weighted>
-11.3019

> <Gold.Chemscore.Internal_Hbond.Weighted>
0.0000

> <Gold.Chemscore.DEClash.Weighted>
0.0149

> <Gold.Chemscore.DEInternal.Weighted>
1.0281

> <Gold.Chemscore.Rot.Weighted>
3.7334

> <Gold.Chemscore.Internal.Correction.Weighted>
   9.000000E+99

> <Gold.Protein.RotatedTorsions>
[ 6907 6896 6895 6894 ] final   21.22 input  -60.11 | X-H torsion
[ 7974 7965 7964 7962 ] final -134.75 input  175.53 | X-H torsion
[ 8008 7997 7996 7995 ] final  -99.44 input   59.86 | X-H torsion
[ 10167 10162 10161 10158 ] final   16.24 input  -65.29 | X-H torsion
[ 10718 10713 10712 10709 ] final  146.51 input   66.30 | X-H torsion
[ 10763 10752 10751 10750 ] final  -79.72 input  -60.55 | X-H torsion
[ 11005 11000 10999 10996 ] final   20.93 input  -57.11 | X-H torsion

> <Gold.Protein.ActiveResidues>
 VAL166  LYS551  ARG553  GLY616  TRP617  ASP618  TYR619  PRO620  LYS621  CYS622 
 ASP623  PHE694  ASN695  SER759  ASP760  ASP761  ALA762  ILE779  LEU786  VAL792 
 PHE793  MET794  SER795  GLU796  ALA797  LYS798  CYS799  TRP800  GLU811  SER814 

> <Gold.Protein.RotatedAtoms>
  151.9084  135.0349  160.0512 H   0  0  0  0  0  0  0  0  0  0  0  0  # atno 6907 bound_to 6896
  152.2300  133.5046  159.5218 H   0  0  0  0  0  0  0  0  0  0  0  0  # atno 6908 bound_to 6896
  150.7023  134.1146  159.4055 H   0  0  0  0  0  0  0  0  0  0  0  0  # atno 6909 bound_to 6896
  144.9075  140.6852  143.5046 H   0  0  0  0  0  0  0  0  0  0  0  0  # atno 7974 bound_to 7965
  154.8149  140.0448  157.1369 H   0  0  0  0  0  0  0  0  0  0  0  0  # atno 8008 bound_to 7997
  154.9326  140.3042  155.5140 H   0  0  0  0  0  0  0  0  0  0  0  0  # atno 8009 bound_to 7997
  156.2975  140.2320  156.4388 H   0  0  0  0  0  0  0  0  0  0  0  0  # atno 8010 bound_to 7997
  140.5811  143.8979  150.6790 H   0  0  0  0  0  0  0  0  0  0  0  0  # atno 10167 bound_to 10162
  157.3323  131.0922  151.1152 H   0  0  0  0  0  0  0  0  0  0  0  0  # atno 10718 bound_to 10713
  154.5422  135.5686  153.6849 H   0  0  0  0  0  0  0  0  0  0  0  0  # atno 10763 bound_to 10752
  152.9966  135.6230  154.2486 H   0  0  0  0  0  0  0  0  0  0  0  0  # atno 10764 bound_to 10752
  154.2418  135.2862  155.2830 H   0  0  0  0  0  0  0  0  0  0  0  0  # atno 10765 bound_to 10752
  140.3972  134.1757  155.7663 H   0  0  0  0  0  0  0  0  0  0  0  0  # atno 11005 bound_to 11000
  145.3511  139.1706  143.4434 LP  0  0  0  0  0  0  0  0  0  0  0  0  # atno 17320 bound_to 7965
  146.3141  140.3563  142.8661 LP  0  0  0  0  0  0  0  0  0  0  0  0  # atno 17321 bound_to 7965
  140.2478  143.3615  152.1431 LP  0  0  0  0  0  0  0  0  0  0  0  0  # atno 17342 bound_to 10162
  139.5170  144.6986  151.5559 LP  0  0  0  0  0  0  0  0  0  0  0  0  # atno 17343 bound_to 10162
  157.2396  130.6563  149.5884 LP  0  0  0  0  0  0  0  0  0  0  0  0  # atno 17370 bound_to 10713
  155.9697  130.4573  150.5956 LP  0  0  0  0  0  0  0  0  0  0  0  0  # atno 17371 bound_to 10713
  141.1870  133.8291  157.1049 LP  0  0  0  0  0  0  0  0  0  0  0  0  # atno 17394 bound_to 11000
  140.0363  134.9876  157.0877 LP  0  0  0  0  0  0  0  0  0  0  0  0  # atno 17395 bound_to 11000

$$$$
