AV-unprocessed.smi:798|AV-procd|sdf|3779|dock9
  -GOLD-   22720 1213D 1   1.00000     0.00000
 Structure written by MMmdl.
 33 35  0  0  0  0  0  0  0  0  2 V2000
  149.4207  136.2972  158.8579 O   0  0  0  0  0  0  0  0  0  0  0  0
  148.5971  137.2117  158.9359 C   0  0  0  0  0  0  0  0  0  0  0  0
  147.5721  137.2950  159.8144 N   0  5  0  0  0  0  0  0  0  0  0  0
  147.3912  136.3308  160.7319 C   0  0  0  0  0  0  0  0  0  0  0  0
  147.7033  136.5041  162.0261 N   0  0  0  0  0  0  0  0  0  0  0  0
  147.4280  135.3906  162.8084 N   0  0  0  0  0  0  0  0  0  0  0  0
  146.9056  134.4034  162.0811 C   0  0  0  0  0  0  0  0  0  0  0  0
  146.7012  134.7446  160.3760 S   0  0  0  0  0  0  0  0  0  0  0  0
  148.6688  138.2512  158.0931 N   0  0  0  0  0  0  0  0  0  0  0  0
  149.6550  138.4283  157.0292 C   0  0  2  0  0  0  0  0  0  0  0  0
  151.0768  138.5272  157.6245 C   0  0  1  0  0  0  0  0  0  0  0  0
  152.1035  138.3154  156.4972 C   0  0  0  0  0  0  0  0  0  0  0  0
  151.9991  139.6295  155.7010 C   0  0  0  0  0  0  0  0  0  0  0  0
  150.9100  140.4124  156.4655 C   0  0  2  0  0  0  0  0  0  0  0  0
  151.2270  140.0201  157.9030 C   0  0  0  0  0  0  0  0  0  0  0  0
  149.5051  139.7829  156.2888 C   0  0  1  0  0  0  0  0  0  0  0  0
  148.9956  139.6546  154.8399 C   0  0  0  0  0  0  0  0  0  0  0  0
  149.6992  140.5333  153.9872 O   0  0  0  0  0  0  0  0  0  0  0  0
  146.6360  133.4697  162.5521 H   0  0  0  0  0  0  0  0  0  0  0  0
  147.9750  138.9771  158.1953 H   0  0  0  0  0  0  0  0  0  0  0  0
  149.5954  137.5805  156.3437 H   0  0  0  0  0  0  0  0  0  0  0  0
  151.2443  137.8772  158.4843 H   0  0  0  0  0  0  0  0  0  0  0  0
  153.1080  138.1926  156.9039 H   0  0  0  0  0  0  0  0  0  0  0  0
  151.8805  137.4385  155.8882 H   0  0  0  0  0  0  0  0  0  0  0  0
  152.9473  140.1671  155.7387 H   0  0  0  0  0  0  0  0  0  0  0  0
  151.7634  139.4709  154.6497 H   0  0  0  0  0  0  0  0  0  0  0  0
  150.9314  141.4860  156.2756 H   0  0  0  0  0  0  0  0  0  0  0  0
  150.5055  140.4019  158.6277 H   0  0  0  0  0  0  0  0  0  0  0  0
  152.2327  140.3029  158.2194 H   0  0  0  0  0  0  0  0  0  0  0  0
  148.7949  140.4112  156.8309 H   0  0  0  0  0  0  0  0  0  0  0  0
  149.0819  138.6352  154.4656 H   0  0  0  0  0  0  0  0  0  0  0  0
  147.9373  139.9118  154.7955 H   0  0  0  0  0  0  0  0  0  0  0  0
  149.3524  140.4431  153.1127 H   0  0  0  0  0  0  0  0  0  0  0  0
  1  2  2  0  0  0  0
  2  3  1  0  0  0  0
  2  9  1  0  0  0  0
  3  4  1  0  0  0  0
  4  8  1  0  0  0  0
  4  5  2  0  0  0  0
  5  6  1  0  0  0  0
  6  7  2  0  0  0  0
  7  8  1  0  0  0  0
  7 19  1  0  0  0  0
  9 10  1  0  0  0  0
  9 20  1  0  0  0  0
 10 16  1  0  0  0  0
 10 11  1  0  0  0  0
 10 21  1  0  0  0  0
 11 15  1  0  0  0  0
 11 12  1  0  0  0  0
 11 22  1  0  0  0  0
 12 13  1  0  0  0  0
 12 23  1  0  0  0  0
 12 24  1  0  0  0  0
 13 14  1  0  0  0  0
 13 25  1  0  0  0  0
 13 26  1  0  0  0  0
 14 15  1  0  0  0  0
 14 16  1  0  0  0  0
 14 27  1  0  0  0  0
 15 28  1  0  0  0  0
 15 29  1  0  0  0  0
 16 17  1  0  0  0  0
 16 30  1  0  0  0  0
 17 18  1  0  0  0  0
 17 31  1  0  0  0  0
 17 32  1  0  0  0  0
 18 33  1  0  0  0  0
M  CHG  1   3  -1
M  END
> <s_m_source_file>
AV-unprocessed.smi

> <i_m_source_file_index>
798

> <i_lp_mmshare_version>
43012

> <i_f3d_flags>
0

> <s_epik_input>
W0NIMl0xW0NIMl1bQ0BASF0oW0NIMl0yKVtDQEBIXShbQ0gyXVtPSF0pW0NAQEhdKFtDQEhdMTIpW05IXUMoPU8pW05IXWMzbm5bY0hdczM=

> <s_epik_cmdline>
J2VwaWtfcHl0aG9uJywgJy1waCcsICc3LjAnLCAnLXRuJywgJzgnLCAnLW1hJywgJzIwMCcsICctbWV0YWxfYmluZGluZycsICctaW1hZScsICc8aW5maWxlLm1hZT4nLCAnLW9tYWUnLCAnPG91dGZpbGUubWFlPic=

> <r_lp_tautomer_probability>
1

> <r_epik_Ionization_Penalty>
4.53732

> <r_epik_Ionization_Penalty_Charging>
4.48632

> <r_epik_Ionization_Penalty_Neutral>
0.0510007

> <r_epik_State_Penalty>
4.48602

> <r_epik_Charging_Adjusted_Penalty>
8.97234

> <i_epik_Tot_Q>
-1

> <i_epik_Tot_abs_Q>
1

> <r_epik_Metal_State_Penalty>
0.812492

> <b_epik_Metal_Only>
1

> <s_lp_Force_Field>
OPLS_2005

> <r_lp_Energy>
47.3134

> <b_lp_Chiralities_Consistent>
1

> <s_lp_Variant>
AV-unprocessed.smi:798-11

> <Gold.Version>
5.8.1

> <Gold.Id.Protein>
6NUR|6NUR_protein|mol2

> <Gold.PLP.Fitness>
41.4243

> <Gold.PLP.PLP>
-28.4934

> <Gold.PLP.part.hbond>
-5.5257

> <Gold.PLP.part.metal>
0.0000

> <Gold.PLP.part.buried>
-5.6127

> <Gold.PLP.part.nonpolar>
-18.7434

> <Gold.PLP.part.repulsive>
0.1512

> <Gold.PLP.ligand.clash>
0.0000

> <Gold.PLP.ligand.torsion>
1.2884

> <Gold.PLP.Chemscore.Hbond>
5.1612

> <Gold.PLP.Chemscore.CHOScore>
0.0000

> <Gold.PLP.Chemscore.Metal>
0.0000

> <Gold.Chemscore.Hbonds>
donor molecule, donor type, donor heavy atom, donor atom, acceptor molecule, acceptor atom, score
      L1  H    18    33       P1  7957  1.00
      P1  H  6896  6908       L1     1  0.60
      P1  H  6931  6943       L1     5  0.60
      P1  H  6934  6947       L1     3  1.49
      P1  H  7989  7998       L1    18  0.54

> <Gold.PLP.Chemscore.Internal.Correction>
0.0241

> <Gold.Rescore>
     Score         DG    S(hbond)    S(metal)    S(lipo)     H(rot)  DE(clash)    DE(int)     intcor
     16.24     -17.44       3.09        0.00      56.02       1.92       0.02       1.18       ----

> <Gold.Chemscore.Fitness>
16.2394

> <Gold.Chemscore.DG>
-17.4366

> <Gold.Chemscore.ZeroCoef>
-5.4800

> <Gold.Chemscore.Hbond>
3.0896

> <Gold.Chemscore.Metal>
0.0000

> <Gold.Chemscore.Lipo>
56.0185

> <Gold.Chemscore.Internal_Hbond>
0.0000

> <Gold.Chemscore.DEClash>
0.0174

> <Gold.Chemscore.DEInternal>
1.1798

> <Gold.Chemscore.Rot>
1.9207

> <Gold.Chemscore.Internal.Correction>
   9.000000E+99

> <Gold.Chemscore.Hbonds>
donor molecule, donor type, donor heavy atom, donor atom, acceptor molecule, acceptor atom, score
      L1  H    18    33       P1  7957  0.91
      P1  H  6896  6908       L1     1  0.60
      P1  H  6931  6943       L1     5  0.21
      P1  H  6934  6947       L1     3  0.28
      P1  H  7989  7998       L1    18  0.09

> <Gold.Chemscore.Hbond.Weighted>
-10.3193

> <Gold.Chemscore.Metal.Weighted>
-0.0000

> <Gold.Chemscore.Lipo.Weighted>
-6.5542

> <Gold.Chemscore.Internal_Hbond.Weighted>
0.0000

> <Gold.Chemscore.DEClash.Weighted>
0.0174

> <Gold.Chemscore.DEInternal.Weighted>
1.1798

> <Gold.Chemscore.Rot.Weighted>
4.9169

> <Gold.Chemscore.Internal.Correction.Weighted>
   9.000000E+99

> <Gold.Protein.RotatedTorsions>
[ 6907 6896 6895 6894 ] final -165.30 input  -60.11 | X-H torsion
[ 7974 7965 7964 7962 ] final  -33.70 input  175.53 | X-H torsion
[ 8008 7997 7996 7995 ] final    1.27 input   59.86 | X-H torsion
[ 10167 10162 10161 10158 ] final -128.80 input  -65.29 | X-H torsion
[ 10718 10713 10712 10709 ] final   63.84 input   66.30 | X-H torsion
[ 10763 10752 10751 10750 ] final   19.99 input  -60.55 | X-H torsion
[ 11005 11000 10999 10996 ] final -112.91 input  -57.11 | X-H torsion

> <Gold.Protein.ActiveResidues>
 VAL166  LYS551  ARG553  GLY616  TRP617  ASP618  TYR619  PRO620  LYS621  CYS622 
 ASP623  PHE694  ASN695  SER759  ASP760  ASP761  ALA762  ILE779  LEU786  VAL792 
 PHE793  MET794  SER795  GLU796  ALA797  LYS798  CYS799  TRP800  GLU811  SER814 

> <Gold.Protein.RotatedAtoms>
  151.4256  133.3685  159.2761 H   0  0  0  0  0  0  0  0  0  0  0  0  # atno 6907 bound_to 6896
  150.9262  134.8680  159.7532 H   0  0  0  0  0  0  0  0  0  0  0  0  # atno 6908 bound_to 6896
  152.5006  134.4197  159.9528 H   0  0  0  0  0  0  0  0  0  0  0  0  # atno 6909 bound_to 6896
  146.0889  140.5949  142.8873 H   0  0  0  0  0  0  0  0  0  0  0  0  # atno 7974 bound_to 7965
  154.6778  140.2626  155.6940 H   0  0  0  0  0  0  0  0  0  0  0  0  # atno 8008 bound_to 7997
  156.2685  140.2816  156.1234 H   0  0  0  0  0  0  0  0  0  0  0  0  # atno 8009 bound_to 7997
  155.1075  140.0375  157.2704 H   0  0  0  0  0  0  0  0  0  0  0  0  # atno 8010 bound_to 7997
  139.9465  143.6104  152.2488 H   0  0  0  0  0  0  0  0  0  0  0  0  # atno 10167 bound_to 10162
  157.5999  130.9127  149.9768 H   0  0  0  0  0  0  0  0  0  0  0  0  # atno 10718 bound_to 10713
  153.1115  135.6698  153.9492 H   0  0  0  0  0  0  0  0  0  0  0  0  # atno 10763 bound_to 10752
  153.9034  135.3033  155.3450 H   0  0  0  0  0  0  0  0  0  0  0  0  # atno 10764 bound_to 10752
  154.7534  135.5023  153.9408 H   0  0  0  0  0  0  0  0  0  0  0  0  # atno 10765 bound_to 10752
  141.0646  133.9479  157.2602 H   0  0  0  0  0  0  0  0  0  0  0  0  # atno 11005 bound_to 11000
  144.7346  140.4770  143.6913 LP  0  0  0  0  0  0  0  0  0  0  0  0  # atno 17320 bound_to 7965
  145.6077  139.1510  143.3093 LP  0  0  0  0  0  0  0  0  0  0  0  0  # atno 17321 bound_to 7965
  139.6663  144.7662  151.1867 LP  0  0  0  0  0  0  0  0  0  0  0  0  # atno 17342 bound_to 10162
  140.7596  143.5933  150.8774 LP  0  0  0  0  0  0  0  0  0  0  0  0  # atno 17343 bound_to 10162
  156.1069  130.3652  150.0117 LP  0  0  0  0  0  0  0  0  0  0  0  0  # atno 17370 bound_to 10713
  156.8222  130.9363  151.3641 LP  0  0  0  0  0  0  0  0  0  0  0  0  # atno 17371 bound_to 10713
  139.9464  135.0183  156.8866 LP  0  0  0  0  0  0  0  0  0  0  0  0  # atno 17394 bound_to 11000
  140.5799  134.0362  155.7460 LP  0  0  0  0  0  0  0  0  0  0  0  0  # atno 17395 bound_to 11000

$$$$
