AV-unprocessed.smi:547|AV-procd|sdf|2889|dock5
  -GOLD-   2262023383D 1   1.00000     0.00000
 Structure written by MMmdl.
 37 38  0  0  0  0  0  0  0  0  1 V2000
  155.9511  139.7124  160.9218 O   0  0  0  0  0  0  0  0  0  0  0  0
  154.7788  139.3849  160.7364 C   0  0  0  0  0  0  0  0  0  0  0  0
  154.4239  137.9162  160.4562 C   0  0  0  0  0  0  0  0  0  0  0  0
  154.7358  136.9441  161.5296 N   0  0  0  0  0  0  0  0  0  0  0  0
  154.9746  137.4572  162.8000 N   0  0  0  0  0  0  0  0  0  0  0  0
  155.2368  136.6585  163.7756 C   0  0  0  0  0  0  0  0  0  0  0  0
  155.2997  135.2259  163.5997 C   0  0  0  0  0  0  0  0  0  0  0  0
  155.6554  134.2021  164.9463 Cl  0  0  0  0  0  0  0  0  0  0  0  0
  155.0750  134.7303  162.3574 C   0  0  0  0  0  0  0  0  0  0  0  0
  155.1381  133.0253  162.0684 Cl  0  0  0  0  0  0  0  0  0  0  0  0
  154.7732  135.6118  161.2203 C   0  0  0  0  0  0  0  0  0  0  0  0
  154.5700  135.1942  160.0793 O   0  0  0  0  0  0  0  0  0  0  0  0
  153.7542  140.2502  160.7670 N   0  0  0  0  0  0  0  0  0  0  0  0
  153.8589  141.6630  161.1154 C   0  0  0  0  0  0  0  0  0  0  0  0
  152.7361  142.5135  160.4797 C   0  0  0  0  0  0  0  0  0  0  0  0
  153.1139  143.0552  159.0821 C   0  0  0  0  0  0  0  0  0  0  0  0
  151.9805  143.8986  158.4769 C   0  0  0  0  0  0  0  0  0  0  0  0
  151.5825  145.0497  159.4127 C   0  0  0  0  0  0  0  0  0  0  0  0
  151.2001  144.5223  160.8039 C   0  0  0  0  0  0  0  0  0  0  0  0
  152.3315  143.6752  161.4096 C   0  0  0  0  0  0  0  0  0  0  0  0
  153.3598  137.8676  160.2155 H   0  0  0  0  0  0  0  0  0  0  0  0
  154.9523  137.6115  159.5514 H   0  0  0  0  0  0  0  0  0  0  0  0
  155.4254  137.0212  164.7861 H   0  0  0  0  0  0  0  0  0  0  0  0
  152.8273  139.8926  160.5874 H   0  0  0  0  0  0  0  0  0  0  0  0
  153.8506  141.7723  162.2013 H   0  0  0  0  0  0  0  0  0  0  0  0
  154.8323  142.0202  160.7779 H   0  0  0  0  0  0  0  0  0  0  0  0
  151.8597  141.8747  160.3597 H   0  0  0  0  0  0  0  0  0  0  0  0
  154.0200  143.6585  159.1532 H   0  0  0  0  0  0  0  0  0  0  0  0
  153.3425  142.2347  158.4014 H   0  0  0  0  0  0  0  0  0  0  0  0
  152.2879  144.2952  157.5090 H   0  0  0  0  0  0  0  0  0  0  0  0
  151.1138  143.2632  158.2890 H   0  0  0  0  0  0  0  0  0  0  0  0
  152.4123  145.7517  159.5026 H   0  0  0  0  0  0  0  0  0  0  0  0
  150.7499  145.6079  158.9836 H   0  0  0  0  0  0  0  0  0  0  0  0
  150.9654  145.3563  161.4658 H   0  0  0  0  0  0  0  0  0  0  0  0
  150.2927  143.9215  160.7306 H   0  0  0  0  0  0  0  0  0  0  0  0
  152.0144  143.2848  162.3774 H   0  0  0  0  0  0  0  0  0  0  0  0
  153.1966  144.3112  161.6028 H   0  0  0  0  0  0  0  0  0  0  0  0
  1  2  2  0  0  0  0
  2  3  1  0  0  0  0
  2 13  1  0  0  0  0
  3  4  1  0  0  0  0
  3 21  1  0  0  0  0
  3 22  1  0  0  0  0
  4 11  1  0  0  0  0
  4  5  1  0  0  0  0
  5  6  2  0  0  0  0
  6  7  1  0  0  0  0
  6 23  1  0  0  0  0
  7  8  1  0  0  0  0
  7  9  2  0  0  0  0
  9 10  1  0  0  0  0
  9 11  1  0  0  0  0
 11 12  2  0  0  0  0
 13 14  1  0  0  0  0
 13 24  1  0  0  0  0
 14 15  1  0  0  0  0
 14 25  1  0  0  0  0
 14 26  1  0  0  0  0
 15 20  1  0  0  0  0
 15 16  1  0  0  0  0
 15 27  1  0  0  0  0
 16 17  1  0  0  0  0
 16 28  1  0  0  0  0
 16 29  1  0  0  0  0
 17 18  1  0  0  0  0
 17 30  1  0  0  0  0
 17 31  1  0  0  0  0
 18 19  1  0  0  0  0
 18 32  1  0  0  0  0
 18 33  1  0  0  0  0
 19 20  1  0  0  0  0
 19 34  1  0  0  0  0
 19 35  1  0  0  0  0
 20 36  1  0  0  0  0
 20 37  1  0  0  0  0
M  END
> <s_m_source_file>
AV-unprocessed.smi

> <i_m_source_file_index>
547

> <i_lp_mmshare_version>
43012

> <i_f3d_flags>
0

> <s_epik_input>
W0NIMl0xW0NIMl1bQ0gyXVtDSDJdW0NIMl1bQ0hdMVtDSDJdW05IXUMoPU8pW0NIMl1uMm5bY0hdYyhDbCljKENsKWMyPU8=

> <s_epik_cmdline>
J2VwaWtfcHl0aG9uJywgJy1waCcsICc3LjAnLCAnLXRuJywgJzgnLCAnLW1hJywgJzIwMCcsICctbWV0YWxfYmluZGluZycsICctaW1hZScsICc8aW5maWxlLm1hZT4nLCAnLW9tYWUnLCAnPG91dGZpbGUubWFlPic=

> <r_lp_tautomer_probability>
1

> <r_epik_Ionization_Penalty>
1.98263e-08

> <r_epik_Ionization_Penalty_Charging>
2.84997e-11

> <r_epik_Ionization_Penalty_Neutral>
1.97978e-08

> <r_epik_State_Penalty>
-0

> <r_epik_Charging_Adjusted_Penalty>
2.84997e-11

> <i_epik_Tot_Q>
0

> <i_epik_Tot_abs_Q>
0

> <r_epik_Metal_State_Penalty>
-0

> <b_epik_Metal_Only>
0

> <s_lp_Force_Field>
OPLS_2005

> <r_lp_Energy>
30.5704

> <b_lp_Chiralities_Consistent>
1

> <s_lp_Variant>
AV-unprocessed.smi:547-1

> <Gold.Version>
5.8.1

> <Gold.Id.Protein>
6NUR|6NUR_protein|mol2

> <Gold.PLP.Fitness>
47.0137

> <Gold.PLP.PLP>
-45.6565

> <Gold.PLP.part.hbond>
-0.9612

> <Gold.PLP.part.metal>
0.0000

> <Gold.PLP.part.buried>
-4.4793

> <Gold.PLP.part.nonpolar>
-41.0081

> <Gold.PLP.part.repulsive>
0.0509

> <Gold.PLP.ligand.clash>
0.0000

> <Gold.PLP.ligand.torsion>
0.8142

> <Gold.PLP.Chemscore.Hbond>
0.9913

> <Gold.PLP.Chemscore.CHOScore>
0.0000

> <Gold.PLP.Chemscore.Metal>
0.0000

> <Gold.Chemscore.Hbonds>
donor molecule, donor type, donor heavy atom, donor atom, acceptor molecule, acceptor atom, score
      P1  H  6896  6909       L1    12  0.70

> <Gold.PLP.Chemscore.Internal.Correction>
0.0118

> <Gold.Rescore>
     Score         DG    S(hbond)    S(metal)    S(lipo)     H(rot)  DE(clash)    DE(int)     intcor
     17.19     -17.81       0.98        0.00     114.78       1.71       0.16       0.46       ----

> <Gold.Chemscore.Fitness>
17.1910

> <Gold.Chemscore.DG>
-17.8145

> <Gold.Chemscore.ZeroCoef>
-5.4800

> <Gold.Chemscore.Hbond>
0.9830

> <Gold.Chemscore.Metal>
0.0000

> <Gold.Chemscore.Lipo>
114.7761

> <Gold.Chemscore.Internal_Hbond>
0.0000

> <Gold.Chemscore.DEClash>
0.1611

> <Gold.Chemscore.DEInternal>
0.4625

> <Gold.Chemscore.Rot>
1.7099

> <Gold.Chemscore.Internal.Correction>
   9.000000E+99

> <Gold.Chemscore.Hbonds>
donor molecule, donor type, donor heavy atom, donor atom, acceptor molecule, acceptor atom, score
      P1  H  6896  6909       L1    12  0.43

> <Gold.Chemscore.Hbond.Weighted>
-3.2831

> <Gold.Chemscore.Metal.Weighted>
-0.0000

> <Gold.Chemscore.Lipo.Weighted>
-13.4288

> <Gold.Chemscore.Internal_Hbond.Weighted>
0.0000

> <Gold.Chemscore.DEClash.Weighted>
0.1611

> <Gold.Chemscore.DEInternal.Weighted>
0.4625

> <Gold.Chemscore.Rot.Weighted>
4.3774

> <Gold.Chemscore.Internal.Correction.Weighted>
   9.000000E+99

> <Gold.Protein.RotatedTorsions>
[ 6907 6896 6895 6894 ] final -172.98 input  -60.11 | X-H torsion
[ 7974 7965 7964 7962 ] final   77.86 input  175.53 | X-H torsion
[ 8008 7997 7996 7995 ] final   -9.41 input   59.86 | X-H torsion
[ 10167 10162 10161 10158 ] final    9.66 input  -65.29 | X-H torsion
[ 10718 10713 10712 10709 ] final -138.94 input   66.30 | X-H torsion
[ 10763 10752 10751 10750 ] final -169.51 input  -60.55 | X-H torsion
[ 11005 11000 10999 10996 ] final -114.81 input  -57.11 | X-H torsion

> <Gold.Protein.ActiveResidues>
 VAL166  LYS551  ARG553  GLY616  TRP617  ASP618  TYR619  PRO620  LYS621  CYS622 
 ASP623  PHE694  ASN695  SER759  ASP760  ASP761  ALA762  ILE779  LEU786  VAL792 
 PHE793  MET794  SER795  GLU796  ALA797  LYS798  CYS799  TRP800  GLU811  SER814 

> <Gold.Protein.RotatedAtoms>
  151.5487  133.3421  159.2948 H   0  0  0  0  0  0  0  0  0  0  0  0  # atno 6907 bound_to 6896
  150.8491  134.7813  159.7006 H   0  0  0  0  0  0  0  0  0  0  0  0  # atno 6908 bound_to 6896
  152.4542  134.5336  159.9870 H   0  0  0  0  0  0  0  0  0  0  0  0  # atno 6909 bound_to 6896
  145.6845  139.2534  143.1795 H   0  0  0  0  0  0  0  0  0  0  0  0  # atno 7974 bound_to 7965
  154.5650  140.2356  155.8278 H   0  0  0  0  0  0  0  0  0  0  0  0  # atno 8008 bound_to 7997
  156.2060  140.3039  155.9587 H   0  0  0  0  0  0  0  0  0  0  0  0  # atno 8009 bound_to 7997
  155.2819  140.0423  157.3006 H   0  0  0  0  0  0  0  0  0  0  0  0  # atno 8010 bound_to 7997
  140.6241  143.8139  150.7211 H   0  0  0  0  0  0  0  0  0  0  0  0  # atno 10167 bound_to 10162
  156.3050  130.7450  151.1512 H   0  0  0  0  0  0  0  0  0  0  0  0  # atno 10718 bound_to 10713
  154.6515  135.2912  154.9981 H   0  0  0  0  0  0  0  0  0  0  0  0  # atno 10763 bound_to 10752
  154.1072  135.6568  153.4882 H   0  0  0  0  0  0  0  0  0  0  0  0  # atno 10764 bound_to 10752
  153.0379  135.5256  154.7425 H   0  0  0  0  0  0  0  0  0  0  0  0  # atno 10765 bound_to 10752
  141.0528  133.9660  157.2807 H   0  0  0  0  0  0  0  0  0  0  0  0  # atno 11005 bound_to 11000
  146.0935  140.7628  142.9584 LP  0  0  0  0  0  0  0  0  0  0  0  0  # atno 17320 bound_to 7965
  144.7015  140.3675  143.7152 LP  0  0  0  0  0  0  0  0  0  0  0  0  # atno 17321 bound_to 7965
  140.1736  143.4174  152.1983 LP  0  0  0  0  0  0  0  0  0  0  0  0  # atno 17342 bound_to 10162
  139.5464  144.7302  151.4569 LP  0  0  0  0  0  0  0  0  0  0  0  0  # atno 17343 bound_to 10162
  157.7377  131.0548  150.5337 LP  0  0  0  0  0  0  0  0  0  0  0  0  # atno 17370 bound_to 10713
  156.5469  130.4222  149.6126 LP  0  0  0  0  0  0  0  0  0  0  0  0  # atno 17371 bound_to 10713
  139.9364  135.0196  156.8571 LP  0  0  0  0  0  0  0  0  0  0  0  0  # atno 17394 bound_to 11000
  140.6022  134.0161  155.7542 LP  0  0  0  0  0  0  0  0  0  0  0  0  # atno 17395 bound_to 11000

$$$$
