AV-unprocessed.smi:1965|AV-procd|sdf|7936|dock5
  -GOLD-   2272010103D 1   1.00000     0.00000
 Structure written by MMmdl.
 37 39  0  0  0  0  0  0  0  0  2 V2000
  150.1607  134.4123  155.8539 O   0  0  0  0  0  0  0  0  0  0  0  0
  149.6995  134.9208  154.8339 C   0  0  0  0  0  0  0  0  0  0  0  0
  150.0926  136.1453  154.4246 N   0  0  0  0  0  0  0  0  0  0  0  0
  151.0262  137.0660  154.9826 C   0  0  0  0  0  0  0  0  0  0  0  0
  151.9245  136.7714  155.9317 N   0  0  0  0  0  0  0  0  0  0  0  0
  152.7222  137.8700  156.2622 C   0  0  0  0  0  0  0  0  0  0  0  0
  152.4232  139.0005  155.5440 C   0  0  0  0  0  0  0  0  0  0  0  0
  151.1218  138.7277  154.4167 S   0  0  0  0  0  0  0  0  0  0  0  0
  148.7846  134.3068  154.0651 N   0  0  0  0  0  0  0  0  0  0  0  0
  148.1741  133.0072  154.3350 C   0  0  2  0  0  0  0  0  0  0  0  0
  149.1835  131.8449  154.2610 C   0  0  0  0  0  0  0  0  0  0  0  0
  148.4398  130.7300  153.5185 C   0  0  0  0  0  0  0  0  0  0  0  0
  147.5751  131.4716  152.5938 N   0  3  1  0  0  0  0  0  0  0  0  0
  146.5185  130.7355  151.8708 C   0  0  0  0  0  0  0  0  0  0  0  0
  145.8783  131.6886  150.8385 C   0  0  0  0  0  0  0  0  0  0  0  0
  145.4092  133.0152  151.4780 C   0  0  0  0  0  0  0  0  0  0  0  0
  146.5221  133.6682  152.3257 C   0  0  0  0  0  0  0  0  0  0  0  0
  147.0557  132.6343  153.3339 C   0  0  2  0  0  0  0  0  0  0  0  0
  149.7135  136.4298  153.5328 H   0  0  0  0  0  0  0  0  0  0  0  0
  153.4826  137.7581  157.0211 H   0  0  0  0  0  0  0  0  0  0  0  0
  152.8899  139.9725  155.6075 H   0  0  0  0  0  0  0  0  0  0  0  0
  148.4659  134.7980  153.2418 H   0  0  0  0  0  0  0  0  0  0  0  0
  147.7461  133.0141  155.3394 H   0  0  0  0  0  0  0  0  0  0  0  0
  150.0598  132.1394  153.6812 H   0  0  0  0  0  0  0  0  0  0  0  0
  149.5326  131.5283  155.2442 H   0  0  0  0  0  0  0  0  0  0  0  0
  149.1120  130.0505  152.9937 H   0  0  0  0  0  0  0  0  0  0  0  0
  147.8281  130.1492  154.2104 H   0  0  0  0  0  0  0  0  0  0  0  0
  146.9509  129.8707  151.3666 H   0  0  0  0  0  0  0  0  0  0  0  0
  145.7715  130.3626  152.5731 H   0  0  0  0  0  0  0  0  0  0  0  0
  146.6081  131.9107  150.0586 H   0  0  0  0  0  0  0  0  0  0  0  0
  145.0416  131.1956  150.3423 H   0  0  0  0  0  0  0  0  0  0  0  0
  145.0739  133.7059  150.7038 H   0  0  0  0  0  0  0  0  0  0  0  0
  144.5429  132.8206  152.1114 H   0  0  0  0  0  0  0  0  0  0  0  0
  147.3270  134.0200  151.6787 H   0  0  0  0  0  0  0  0  0  0  0  0
  146.1264  134.5414  152.8452 H   0  0  0  0  0  0  0  0  0  0  0  0
  146.2118  132.2884  153.9351 H   0  0  0  0  0  0  0  0  0  0  0  0
  148.1957  131.8453  151.8899 H   0  0  0  0  0  0  0  0  0  0  0  0
  1  2  2  0  0  0  0
  2  3  1  0  0  0  0
  2  9  1  0  0  0  0
  3  4  1  0  0  0  0
  3 19  1  0  0  0  0
  4  8  1  0  0  0  0
  4  5  2  0  0  0  0
  5  6  1  0  0  0  0
  6  7  2  0  0  0  0
  6 20  1  0  0  0  0
  7  8  1  0  0  0  0
  7 21  1  0  0  0  0
  9 10  1  0  0  0  0
  9 22  1  0  0  0  0
 10 18  1  0  0  0  0
 10 11  1  0  0  0  0
 10 23  1  0  0  0  0
 11 12  1  0  0  0  0
 11 24  1  0  0  0  0
 11 25  1  0  0  0  0
 12 13  1  0  0  0  0
 12 26  1  0  0  0  0
 12 27  1  0  0  0  0
 13 18  1  0  0  0  0
 13 14  1  0  0  0  0
 13 37  1  0  0  0  0
 14 15  1  0  0  0  0
 14 28  1  0  0  0  0
 14 29  1  0  0  0  0
 15 16  1  0  0  0  0
 15 30  1  0  0  0  0
 15 31  1  0  0  0  0
 16 17  1  0  0  0  0
 16 32  1  0  0  0  0
 16 33  1  0  0  0  0
 17 18  1  0  0  0  0
 17 34  1  0  0  0  0
 17 35  1  0  0  0  0
 18 36  1  0  0  0  0
M  CHG  1  13   1
M  END
> <s_m_source_file>
AV-unprocessed.smi

> <i_m_source_file_index>
1965

> <i_lp_mmshare_version>
43012

> <i_f3d_flags>
0

> <s_epik_input>
czFbY0hdW2NIXW5jMVtOSF1DKD1PKVtOSF1bQ0BIXShbQ0gyXVtDSDJdMilbQ0BASF0oTjIzKVtDSDJdW0NIMl1bQ0gyXVtDSDJdMw==

> <s_epik_cmdline>
J2VwaWtfcHl0aG9uJywgJy1waCcsICc3LjAnLCAnLXRuJywgJzgnLCAnLW1hJywgJzIwMCcsICctbWV0YWxfYmluZGluZycsICctaW1hZScsICc8aW5maWxlLm1hZT4nLCAnLW9tYWUnLCAnPG91dGZpbGUubWFlPic=

> <r_lp_tautomer_probability>
1

> <r_epik_Ionization_Penalty>
0.00125962

> <r_epik_Ionization_Penalty_Charging>
0.00107044

> <r_epik_Ionization_Penalty_Neutral>
0.000189176

> <r_epik_State_Penalty>
-0

> <r_epik_Charging_Adjusted_Penalty>
0.00107044

> <i_epik_Tot_Q>
1

> <i_epik_Tot_abs_Q>
1

> <r_epik_Metal_State_Penalty>
0.0179285

> <b_epik_Metal_Only>
0

> <s_lp_Force_Field>
OPLS_2005

> <r_lp_Energy>
42.3256

> <b_lp_Chiralities_Consistent>
1

> <s_lp_Variant>
AV-unprocessed.smi:1965-5

> <Gold.Version>
5.8.1

> <Gold.Id.Protein>
6NUR|6NUR_protein|mol2

> <Gold.PLP.Fitness>
40.9659

> <Gold.PLP.PLP>
-30.7431

> <Gold.PLP.part.hbond>
-4.8335

> <Gold.PLP.part.metal>
0.0000

> <Gold.PLP.part.buried>
-1.3144

> <Gold.PLP.part.nonpolar>
-24.5313

> <Gold.PLP.part.repulsive>
0.1202

> <Gold.PLP.ligand.clash>
0.0000

> <Gold.PLP.ligand.torsion>
0.0732

> <Gold.PLP.Chemscore.Hbond>
3.4560

> <Gold.PLP.Chemscore.CHOScore>
0.0000

> <Gold.PLP.Chemscore.Metal>
0.0000

> <Gold.Chemscore.Hbonds>
donor molecule, donor type, donor heavy atom, donor atom, acceptor molecule, acceptor atom, score
      L1  H     3    19       P1  7948  1.00
      L1  H     9    22       P1  7948  0.88
      L1  H    13    37       P1 10747  0.55
      P1  H 10752 10764       L1     5  1.00

> <Gold.PLP.Chemscore.Internal.Correction>
0.0013

> <Gold.Rescore>
     Score         DG    S(hbond)    S(metal)    S(lipo)     H(rot)  DE(clash)    DE(int)     intcor
     16.60     -18.09       2.04        0.00      71.42       1.00       0.25       1.25       ----

> <Gold.Chemscore.Fitness>
16.5980

> <Gold.Chemscore.DG>
-18.0920

> <Gold.Chemscore.ZeroCoef>
-5.4800

> <Gold.Chemscore.Hbond>
2.0405

> <Gold.Chemscore.Metal>
0.0000

> <Gold.Chemscore.Lipo>
71.4238

> <Gold.Chemscore.Internal_Hbond>
0.0000

> <Gold.Chemscore.DEClash>
0.2462

> <Gold.Chemscore.DEInternal>
1.2478

> <Gold.Chemscore.Rot>
1.0000

> <Gold.Chemscore.Internal.Correction>
   9.000000E+99

> <Gold.Chemscore.Hbonds>
donor molecule, donor type, donor heavy atom, donor atom, acceptor molecule, acceptor atom, score
      L1  H     3    19       P1  7948  0.39
      L1  H     9    22       P1  7948  0.53
      L1  H    13    37       P1 10747  0.51
      P1  H 10752 10764       L1     5  0.21

> <Gold.Chemscore.Hbond.Weighted>
-6.8154

> <Gold.Chemscore.Metal.Weighted>
-0.0000

> <Gold.Chemscore.Lipo.Weighted>
-8.3566

> <Gold.Chemscore.Internal_Hbond.Weighted>
0.0000

> <Gold.Chemscore.DEClash.Weighted>
0.2462

> <Gold.Chemscore.DEInternal.Weighted>
1.2478

> <Gold.Chemscore.Rot.Weighted>
2.5600

> <Gold.Chemscore.Internal.Correction.Weighted>
   9.000000E+99

> <Gold.Protein.RotatedTorsions>
[ 6907 6896 6895 6894 ] final    4.79 input  -60.11 | X-H torsion
[ 7974 7965 7964 7962 ] final  -69.77 input  175.53 | X-H torsion
[ 8008 7997 7996 7995 ] final -116.05 input   59.86 | X-H torsion
[ 10167 10162 10161 10158 ] final -154.29 input  -65.29 | X-H torsion
[ 10718 10713 10712 10709 ] final   56.40 input   66.30 | X-H torsion
[ 10763 10752 10751 10750 ] final  -29.22 input  -60.55 | X-H torsion
[ 11005 11000 10999 10996 ] final  -51.22 input  -57.11 | X-H torsion

> <Gold.Protein.ActiveResidues>
 VAL166  LYS551  ARG553  GLY616  TRP617  ASP618  TYR619  PRO620  LYS621  CYS622 
 ASP623  PHE694  ASN695  SER759  ASP760  ASP761  ALA762  ILE779  LEU786  VAL792 
 PHE793  MET794  SER795  GLU796  ALA797  LYS798  CYS799  TRP800  GLU811  SER814 

> <Gold.Protein.RotatedAtoms>
  151.6470  135.1006  160.0152 H   0  0  0  0  0  0  0  0  0  0  0  0  # atno 6907 bound_to 6896
  152.4022  133.6831  159.6334 H   0  0  0  0  0  0  0  0  0  0  0  0  # atno 6908 bound_to 6896
  150.7921  133.8688  159.3294 H   0  0  0  0  0  0  0  0  0  0  0  0  # atno 6909 bound_to 6896
  145.6995  140.9122  143.0738 H   0  0  0  0  0  0  0  0  0  0  0  0  # atno 7974 bound_to 7965
  155.0617  140.0393  157.2579 H   0  0  0  0  0  0  0  0  0  0  0  0  # atno 8008 bound_to 7997
  154.7054  140.2682  155.6655 H   0  0  0  0  0  0  0  0  0  0  0  0  # atno 8009 bound_to 7997
  156.2773  140.2732  156.1678 H   0  0  0  0  0  0  0  0  0  0  0  0  # atno 8010 bound_to 7997
  139.7026  143.9239  152.2435 H   0  0  0  0  0  0  0  0  0  0  0  0  # atno 10167 bound_to 10162
  157.5427  130.8709  149.8846 H   0  0  0  0  0  0  0  0  0  0  0  0  # atno 10718 bound_to 10713
  153.7611  135.6919  153.4925 H   0  0  0  0  0  0  0  0  0  0  0  0  # atno 10763 bound_to 10752
  153.1938  135.4461  155.0181 H   0  0  0  0  0  0  0  0  0  0  0  0  # atno 10764 bound_to 10752
  154.8152  135.3396  154.7126 H   0  0  0  0  0  0  0  0  0  0  0  0  # atno 10765 bound_to 10752
  141.0859  133.6642  156.3845 H   0  0  0  0  0  0  0  0  0  0  0  0  # atno 11005 bound_to 11000
  144.6972  139.8929  143.7454 LP  0  0  0  0  0  0  0  0  0  0  0  0  # atno 17320 bound_to 7965
  146.0810  139.3798  143.0464 LP  0  0  0  0  0  0  0  0  0  0  0  0  # atno 17321 bound_to 7965
  139.9085  144.6870  150.8587 LP  0  0  0  0  0  0  0  0  0  0  0  0  # atno 17342 bound_to 10162
  140.7713  143.3460  151.2109 LP  0  0  0  0  0  0  0  0  0  0  0  0  # atno 17343 bound_to 10162
  156.0510  130.3717  150.1202 LP  0  0  0  0  0  0  0  0  0  0  0  0  # atno 17370 bound_to 10713
  156.9380  130.9735  151.3521 LP  0  0  0  0  0  0  0  0  0  0  0  0  # atno 17371 bound_to 10713
  140.5364  134.6163  157.5366 LP  0  0  0  0  0  0  0  0  0  0  0  0  # atno 17394 bound_to 11000
  139.9677  134.7345  156.0104 LP  0  0  0  0  0  0  0  0  0  0  0  0  # atno 17395 bound_to 11000

$$$$
