AV-unprocessed.smi:171|AV-procd|sdf|1417|dock6
  -GOLD-   2262019183D 1   1.00000     0.00000
 Structure written by MMmdl.
 56 59  0  0  0  0  0  0  0  0  1 V2000
  152.6550  145.3841  158.8292 C   0  0  0  0  0  0  0  0  0  0  0  0
  152.1415  143.9740  159.1661 C   0  0  0  0  0  0  0  0  0  0  0  0
  153.1404  143.2417  160.0748 C   0  0  0  0  0  0  0  0  0  0  0  0
  151.8383  143.1325  157.9039 C   0  0  0  0  0  0  0  0  0  0  0  0
  151.1275  141.7809  158.1601 C   0  0  1  0  0  0  0  0  0  0  0  0
  149.6389  141.8735  157.7546 C   0  0  0  0  0  0  0  0  0  0  0  0
  148.8729  142.5705  158.4169 O   0  0  0  0  0  0  0  0  0  0  0  0
  149.2060  141.1850  156.6828 N   0  0  0  0  0  0  0  0  0  0  0  0
  150.0218  140.3125  155.8382 C   0  0  0  0  0  0  0  0  0  0  0  0
  151.5310  140.5369  156.0329 C   0  0  0  0  0  0  0  0  0  0  0  0
  151.8334  140.7031  157.4509 N   0  0  0  0  0  0  0  0  0  0  0  0
  152.1045  139.5515  158.1141 C   0  0  0  0  0  0  0  0  0  0  0  0
  151.1403  138.6055  158.2667 N   0  0  0  0  0  0  0  0  0  0  0  0
  151.4113  137.4682  158.9136 C   0  0  0  0  0  0  0  0  0  0  0  0
  152.5586  137.0797  159.4740 N   0  0  0  0  0  0  0  0  0  0  0  0
  153.5301  138.0248  159.3201 C   0  0  0  0  0  0  0  0  0  0  0  0
  153.3883  139.2766  158.6588 C   0  0  0  0  0  0  0  0  0  0  0  0
  154.5847  139.9801  158.7097 N   0  0  0  0  0  0  0  0  0  0  0  0
  155.3898  139.1877  159.3634 C   0  0  0  0  0  0  0  0  0  0  0  0
  154.8422  137.9876  159.7598 N   0  0  0  0  0  0  0  0  0  0  0  0
  155.5063  136.9285  160.5058 C   0  0  0  0  0  0  0  0  0  0  0  0
  155.5709  137.1753  162.0336 C   0  0  2  0  0  0  0  0  0  0  0  0
  154.2505  137.1499  162.5505 O   0  0  0  0  0  0  0  0  0  0  0  0
  156.2185  138.5096  162.4321 C   0  0  0  0  0  0  0  0  0  0  0  0
  157.4487  138.1089  163.2422 C   0  0  0  0  0  0  0  0  0  0  0  0
  157.1004  136.8465  163.7823 O   0  0  0  0  0  0  0  0  0  0  0  0
  156.4507  136.1230  162.7490 C   0  0  1  0  0  0  0  0  0  0  0  0
  155.7400  134.8791  163.3067 C   0  0  0  0  0  0  0  0  0  0  0  0
  153.5503  145.3428  158.2083 H   0  0  0  0  0  0  0  0  0  0  0  0
  152.9044  145.9366  159.7355 H   0  0  0  0  0  0  0  0  0  0  0  0
  151.9041  145.9686  158.2977 H   0  0  0  0  0  0  0  0  0  0  0  0
  151.2205  144.0856  159.7396 H   0  0  0  0  0  0  0  0  0  0  0  0
  154.0985  143.0967  159.5746 H   0  0  0  0  0  0  0  0  0  0  0  0
  152.7639  142.2603  160.3643 H   0  0  0  0  0  0  0  0  0  0  0  0
  153.3247  143.8039  160.9908 H   0  0  0  0  0  0  0  0  0  0  0  0
  151.2314  143.7323  157.2237 H   0  0  0  0  0  0  0  0  0  0  0  0
  152.7746  142.9501  157.3739 H   0  0  0  0  0  0  0  0  0  0  0  0
  151.1435  141.6041  159.2361 H   0  0  0  0  0  0  0  0  0  0  0  0
  148.2287  141.2638  156.4418 H   0  0  0  0  0  0  0  0  0  0  0  0
  149.7705  139.2823  156.0932 H   0  0  0  0  0  0  0  0  0  0  0  0
  149.7475  140.4535  154.7926 H   0  0  0  0  0  0  0  0  0  0  0  0
  152.0946  139.7191  155.5821 H   0  0  0  0  0  0  0  0  0  0  0  0
  151.8412  141.4402  155.5071 H   0  0  0  0  0  0  0  0  0  0  0  0
  150.5915  136.7697  158.9933 H   0  0  0  0  0  0  0  0  0  0  0  0
  156.4142  139.4579  159.5744 H   0  0  0  0  0  0  0  0  0  0  0  0
  154.9869  135.9920  160.2989 H   0  0  0  0  0  0  0  0  0  0  0  0
  156.5135  136.8108  160.1045 H   0  0  0  0  0  0  0  0  0  0  0  0
  153.8246  136.3659  162.2380 H   0  0  0  0  0  0  0  0  0  0  0  0
  156.5011  139.1315  161.5838 H   0  0  0  0  0  0  0  0  0  0  0  0
  155.5488  139.1048  163.0549 H   0  0  0  0  0  0  0  0  0  0  0  0
  158.3204  137.9996  162.5949 H   0  0  0  0  0  0  0  0  0  0  0  0
  157.6912  138.8287  164.0244 H   0  0  0  0  0  0  0  0  0  0  0  0
  157.2347  135.7895  162.0664 H   0  0  0  0  0  0  0  0  0  0  0  0
  155.2089  134.3457  162.5180 H   0  0  0  0  0  0  0  0  0  0  0  0
  155.0210  135.1376  164.0844 H   0  0  0  0  0  0  0  0  0  0  0  0
  156.4600  134.1886  163.7461 H   0  0  0  0  0  0  0  0  0  0  0  0
  1  2  1  0  0  0  0
  1 29  1  0  0  0  0
  1 30  1  0  0  0  0
  1 31  1  0  0  0  0
  2  3  1  0  0  0  0
  2  4  1  0  0  0  0
  2 32  1  0  0  0  0
  3 33  1  0  0  0  0
  3 34  1  0  0  0  0
  3 35  1  0  0  0  0
  4  5  1  0  0  0  0
  4 36  1  0  0  0  0
  4 37  1  0  0  0  0
  5 11  1  0  0  0  0
  5  6  1  0  0  0  0
  5 38  1  0  0  0  0
  6  7  2  0  0  0  0
  6  8  1  0  0  0  0
  8  9  1  0  0  0  0
  8 39  1  0  0  0  0
  9 10  1  0  0  0  0
  9 40  1  0  0  0  0
  9 41  1  0  0  0  0
 10 11  1  0  0  0  0
 10 42  1  0  0  0  0
 10 43  1  0  0  0  0
 11 12  1  0  0  0  0
 12 17  1  0  0  0  0
 12 13  2  0  0  0  0
 13 14  1  0  0  0  0
 14 15  2  0  0  0  0
 14 44  1  0  0  0  0
 15 16  1  0  0  0  0
 16 20  1  0  0  0  0
 16 17  2  0  0  0  0
 17 18  1  0  0  0  0
 18 19  2  0  0  0  0
 19 20  1  0  0  0  0
 19 45  1  0  0  0  0
 20 21  1  0  0  0  0
 21 22  1  0  0  0  0
 21 46  1  0  0  0  0
 21 47  1  0  0  0  0
 22 27  1  0  0  0  0
 22 23  1  0  0  0  0
 22 24  1  0  0  0  0
 23 48  1  0  0  0  0
 24 25  1  0  0  0  0
 24 49  1  0  0  0  0
 24 50  1  0  0  0  0
 25 26  1  0  0  0  0
 25 51  1  0  0  0  0
 25 52  1  0  0  0  0
 26 27  1  0  0  0  0
 27 28  1  0  0  0  0
 27 53  1  0  0  0  0
 28 54  1  0  0  0  0
 28 55  1  0  0  0  0
 28 56  1  0  0  0  0
M  END
> <s_m_source_file>
AV-unprocessed.smi

> <i_m_source_file_index>
171

> <i_lp_mmshare_version>
43012

> <i_f3d_flags>
0

> <s_epik_input>
W0NIM11bQ0hdKFtDSDNdKVtDSDJdW0NAQEhdMUMoPU8pW05IXVtDSDJdW0NIMl1OMWMobltjSF1uMiljKGMyMyluW2NIXW4zW0NIMl1bQ0BAXTQoW09IXSlbQ0gyXVtDSDJdT1tDQEhdNFtDSDNd

> <s_epik_cmdline>
J2VwaWtfcHl0aG9uJywgJy1waCcsICc3LjAnLCAnLXRuJywgJzgnLCAnLW1hJywgJzIwMCcsICctbWV0YWxfYmluZGluZycsICctaW1hZScsICc8aW5maWxlLm1hZT4nLCAnLW9tYWUnLCAnPG91dGZpbGUubWFlPic=

> <r_lp_tautomer_probability>
1

> <r_epik_Ionization_Penalty>
0.000670584

> <r_epik_Ionization_Penalty_Charging>
0

> <r_epik_Ionization_Penalty_Neutral>
0.000670584

> <r_epik_State_Penalty>
0.000304767

> <r_epik_Charging_Adjusted_Penalty>
0.000304767

> <i_epik_Tot_Q>
0

> <i_epik_Tot_abs_Q>
0

> <r_epik_Metal_State_Penalty>
-0

> <b_epik_Metal_Only>
0

> <s_lp_Force_Field>
OPLS_2005

> <r_lp_Energy>
42.7698

> <b_lp_Chiralities_Consistent>
1

> <s_lp_Variant>
AV-unprocessed.smi:171-4

> <Gold.Version>
5.8.1

> <Gold.Id.Protein>
6NUR|6NUR_protein|mol2

> <Gold.PLP.Fitness>
44.6279

> <Gold.PLP.PLP>
-43.0671

> <Gold.PLP.part.hbond>
-2.0000

> <Gold.PLP.part.metal>
0.0000

> <Gold.PLP.part.buried>
-5.6844

> <Gold.PLP.part.nonpolar>
-35.8710

> <Gold.PLP.part.repulsive>
0.2581

> <Gold.PLP.ligand.clash>
0.0000

> <Gold.PLP.ligand.torsion>
2.3738

> <Gold.PLP.Chemscore.Hbond>
2.0000

> <Gold.PLP.Chemscore.CHOScore>
0.0000

> <Gold.PLP.Chemscore.Metal>
0.0000

> <Gold.Chemscore.Hbonds>
donor molecule, donor type, donor heavy atom, donor atom, acceptor molecule, acceptor atom, score
      P1  H  6896  6909       L1    15  0.36
      P1  H  7997  8008       L1    18  0.84

> <Gold.PLP.Chemscore.Internal.Correction>
0.3085

> <Gold.Rescore>
     Score         DG    S(hbond)    S(metal)    S(lipo)     H(rot)  DE(clash)    DE(int)     intcor
     13.52     -17.10       1.44        0.00     108.49       2.29       1.12       2.46       ----

> <Gold.Chemscore.Fitness>
13.5200

> <Gold.Chemscore.DG>
-17.1018

> <Gold.Chemscore.ZeroCoef>
-5.4800

> <Gold.Chemscore.Hbond>
1.4367

> <Gold.Chemscore.Metal>
0.0000

> <Gold.Chemscore.Lipo>
108.4857

> <Gold.Chemscore.Internal_Hbond>
0.0000

> <Gold.Chemscore.DEClash>
1.1180

> <Gold.Chemscore.DEInternal>
2.4638

> <Gold.Chemscore.Rot>
2.2928

> <Gold.Chemscore.Internal.Correction>
   9.000000E+99

> <Gold.Chemscore.Hbonds>
donor molecule, donor type, donor heavy atom, donor atom, acceptor molecule, acceptor atom, score
      P1  H  6896  6909       L1    15  0.02
      P1  H  7997  8008       L1    18  0.22

> <Gold.Chemscore.Hbond.Weighted>
-4.7985

> <Gold.Chemscore.Metal.Weighted>
-0.0000

> <Gold.Chemscore.Lipo.Weighted>
-12.6928

> <Gold.Chemscore.Internal_Hbond.Weighted>
0.0000

> <Gold.Chemscore.DEClash.Weighted>
1.1180

> <Gold.Chemscore.DEInternal.Weighted>
2.4638

> <Gold.Chemscore.Rot.Weighted>
5.8696

> <Gold.Chemscore.Internal.Correction.Weighted>
   9.000000E+99

> <Gold.Protein.RotatedTorsions>
[ 6907 6896 6895 6894 ] final  126.92 input  -60.11 | X-H torsion
[ 7974 7965 7964 7962 ] final   12.15 input  175.53 | X-H torsion
[ 8008 7997 7996 7995 ] final -110.40 input   59.86 | X-H torsion
[ 10167 10162 10161 10158 ] final -113.88 input  -65.29 | X-H torsion
[ 10718 10713 10712 10709 ] final   75.85 input   66.30 | X-H torsion
[ 10763 10752 10751 10750 ] final  -59.70 input  -60.55 | X-H torsion
[ 11005 11000 10999 10996 ] final  153.87 input  -57.11 | X-H torsion

> <Gold.Protein.ActiveResidues>
 VAL166  LYS551  ARG553  GLY616  TRP617  ASP618  TYR619  PRO620  LYS621  CYS622 
 ASP623  PHE694  ASN695  SER759  ASP760  ASP761  ALA762  ILE779  LEU786  VAL792 
 PHE793  MET794  SER795  GLU796  ALA797  LYS798  CYS799  TRP800  GLU811  SER814 

> <Gold.Protein.RotatedAtoms>
  152.3859  133.6611  159.6198 H   0  0  0  0  0  0  0  0  0  0  0  0  # atno 6907 bound_to 6896
  150.7778  133.9035  159.3357 H   0  0  0  0  0  0  0  0  0  0  0  0  # atno 6908 bound_to 6896
  151.6832  135.0960  160.0271 H   0  0  0  0  0  0  0  0  0  0  0  0  # atno 6909 bound_to 6896
  146.2357  139.9380  142.8487 H   0  0  0  0  0  0  0  0  0  0  0  0  # atno 7974 bound_to 7965
  154.9739  140.0397  157.2247 H   0  0  0  0  0  0  0  0  0  0  0  0  # atno 8008 bound_to 7997
  154.7776  140.2813  155.6066 H   0  0  0  0  0  0  0  0  0  0  0  0  # atno 8009 bound_to 7997
  156.2931  140.2598  156.2593 H   0  0  0  0  0  0  0  0  0  0  0  0  # atno 8010 bound_to 7997
  140.1071  143.4561  152.1776 H   0  0  0  0  0  0  0  0  0  0  0  0  # atno 10167 bound_to 10162
  157.6651  130.9746  150.1413 H   0  0  0  0  0  0  0  0  0  0  0  0  # atno 10718 bound_to 10713
  154.2578  135.6314  153.5263 H   0  0  0  0  0  0  0  0  0  0  0  0  # atno 10763 bound_to 10752
  152.9901  135.5580  154.5737 H   0  0  0  0  0  0  0  0  0  0  0  0  # atno 10764 bound_to 10752
  154.5279  135.2886  155.1181 H   0  0  0  0  0  0  0  0  0  0  0  0  # atno 10765 bound_to 10752
  140.1437  134.8722  157.2364 H   0  0  0  0  0  0  0  0  0  0  0  0  # atno 11005 bound_to 11000
  145.1980  140.9842  143.4172 LP  0  0  0  0  0  0  0  0  0  0  0  0  # atno 17320 bound_to 7965
  144.9798  139.3794  143.6267 LP  0  0  0  0  0  0  0  0  0  0  0  0  # atno 17321 bound_to 7965
  139.5639  144.7423  151.4076 LP  0  0  0  0  0  0  0  0  0  0  0  0  # atno 17342 bound_to 10162
  140.6946  143.7779  150.7307 LP  0  0  0  0  0  0  0  0  0  0  0  0  # atno 17343 bound_to 10162
  156.2235  130.3676  149.8528 LP  0  0  0  0  0  0  0  0  0  0  0  0  # atno 17370 bound_to 10713
  156.6374  130.8691  151.3507 LP  0  0  0  0  0  0  0  0  0  0  0  0  # atno 17371 bound_to 10713
  140.2690  134.3482  155.7380 LP  0  0  0  0  0  0  0  0  0  0  0  0  # atno 17394 bound_to 11000
  141.2189  133.7412  156.9195 LP  0  0  0  0  0  0  0  0  0  0  0  0  # atno 17395 bound_to 11000

$$$$
