AV-unprocessed.smi:1563|AV-procd|sdf|6291|dock2
  -GOLD-   22720 6493D 1   1.00000     0.00000
 Structure written by MMmdl.
 44 45  0  0  0  0  0  0  0  0  2 V2000
  147.6912  128.1594  151.7825 C   0  0  0  0  0  0  0  0  0  0  0  0
  146.5223  129.1327  151.8875 C   0  0  0  0  0  0  0  0  0  0  0  0
  145.4068  128.7264  152.2137 O   0  0  0  0  0  0  0  0  0  0  0  0
  146.7937  130.4165  151.6069 N   0  0  0  0  0  0  0  0  0  0  0  0
  145.8248  131.5059  151.6542 C   0  0  2  0  0  0  0  0  0  0  0  0
  144.6439  131.2187  150.7029 C   0  0  0  0  0  0  0  0  0  0  0  0
  143.6774  132.4173  150.6152 C   0  0  0  0  0  0  0  0  0  0  0  0
  144.4416  133.7255  150.3382 C   0  0  0  0  0  0  0  0  0  0  0  0
  145.4693  133.8972  151.3778 N   0  0  0  0  0  0  0  0  0  0  0  0
  145.4127  134.7470  152.4324 C   0  0  0  0  0  0  0  0  0  0  0  0
  146.3463  134.9060  153.2202 O   0  0  0  0  0  0  0  0  0  0  0  0
  144.2171  135.3362  152.6141 N   0  0  0  0  0  0  0  0  0  0  0  0
  143.8285  136.1204  153.7848 C   0  0  0  0  0  0  0  0  0  0  0  0
  143.2842  137.5137  153.4031 C   0  0  0  0  0  0  0  0  0  0  0  0
  141.7694  137.6253  153.4718 C   0  0  0  0  0  0  0  0  0  0  0  0
  140.9470  136.5168  153.7725 C   0  0  0  0  0  0  0  0  0  0  0  0
  139.5516  136.6991  153.8666 C   0  0  0  0  0  0  0  0  0  0  0  0
  139.0078  137.9834  153.6593 C   0  0  0  0  0  0  0  0  0  0  0  0
  139.8737  139.0531  153.3549 C   0  0  0  0  0  0  0  0  0  0  0  0
  141.2051  138.8381  153.2694 N   0  3  0  0  0  0  0  0  0  0  0  0
  146.4924  132.8495  151.2910 C   0  0  0  0  0  0  0  0  0  0  0  0
  148.5046  128.4685  152.4396 H   0  0  0  0  0  0  0  0  0  0  0  0
  148.0665  128.1246  150.7595 H   0  0  0  0  0  0  0  0  0  0  0  0
  147.3854  127.1526  152.0690 H   0  0  0  0  0  0  0  0  0  0  0  0
  147.7398  130.6566  151.3480 H   0  0  0  0  0  0  0  0  0  0  0  0
  145.4227  131.5804  152.6659 H   0  0  0  0  0  0  0  0  0  0  0  0
  145.0278  131.0031  149.7047 H   0  0  0  0  0  0  0  0  0  0  0  0
  144.1049  130.3271  151.0253 H   0  0  0  0  0  0  0  0  0  0  0  0
  142.9351  132.2422  149.8360 H   0  0  0  0  0  0  0  0  0  0  0  0
  143.1264  132.5106  151.5519 H   0  0  0  0  0  0  0  0  0  0  0  0
  144.9257  133.6720  149.3619 H   0  0  0  0  0  0  0  0  0  0  0  0
  143.7492  134.5648  150.2683 H   0  0  0  0  0  0  0  0  0  0  0  0
  143.4980  135.1581  151.9278 H   0  0  0  0  0  0  0  0  0  0  0  0
  143.0866  135.5794  154.3745 H   0  0  0  0  0  0  0  0  0  0  0  0
  144.7004  136.2320  154.4293 H   0  0  0  0  0  0  0  0  0  0  0  0
  143.7247  138.2711  154.0525 H   0  0  0  0  0  0  0  0  0  0  0  0
  143.6062  137.7613  152.3908 H   0  0  0  0  0  0  0  0  0  0  0  0
  141.3791  135.5418  153.9446 H   0  0  0  0  0  0  0  0  0  0  0  0
  138.9070  135.8659  154.1057 H   0  0  0  0  0  0  0  0  0  0  0  0
  137.9427  138.1465  153.7381 H   0  0  0  0  0  0  0  0  0  0  0  0
  139.5452  140.0683  153.1862 H   0  0  0  0  0  0  0  0  0  0  0  0
  147.3444  133.0397  151.9457 H   0  0  0  0  0  0  0  0  0  0  0  0
  146.8993  132.8149  150.2791 H   0  0  0  0  0  0  0  0  0  0  0  0
  141.8134  139.6305  153.0620 H   0  0  0  0  0  0  0  0  0  0  0  0
  1  2  1  0  0  0  0
  1 22  1  0  0  0  0
  1 23  1  0  0  0  0
  1 24  1  0  0  0  0
  2  3  2  0  0  0  0
  2  4  1  0  0  0  0
  4  5  1  0  0  0  0
  4 25  1  0  0  0  0
  5 21  1  0  0  0  0
  5  6  1  0  0  0  0
  5 26  1  0  0  0  0
  6  7  1  0  0  0  0
  6 27  1  0  0  0  0
  6 28  1  0  0  0  0
  7  8  1  0  0  0  0
  7 29  1  0  0  0  0
  7 30  1  0  0  0  0
  8  9  1  0  0  0  0
  8 31  1  0  0  0  0
  8 32  1  0  0  0  0
  9 10  1  0  0  0  0
  9 21  1  0  0  0  0
 10 11  2  0  0  0  0
 10 12  1  0  0  0  0
 12 13  1  0  0  0  0
 12 33  1  0  0  0  0
 13 14  1  0  0  0  0
 13 34  1  0  0  0  0
 13 35  1  0  0  0  0
 14 15  1  0  0  0  0
 14 36  1  0  0  0  0
 14 37  1  0  0  0  0
 15 20  1  0  0  0  0
 15 16  2  0  0  0  0
 16 17  1  0  0  0  0
 16 38  1  0  0  0  0
 17 18  2  0  0  0  0
 17 39  1  0  0  0  0
 18 19  1  0  0  0  0
 18 40  1  0  0  0  0
 19 20  2  0  0  0  0
 19 41  1  0  0  0  0
 20 44  1  0  0  0  0
 21 42  1  0  0  0  0
 21 43  1  0  0  0  0
M  CHG  1  20   1
M  END
> <s_m_source_file>
AV-unprocessed.smi

> <i_m_source_file_index>
1563

> <i_lp_mmshare_version>
43012

> <i_f3d_flags>
0

> <s_epik_input>
W0NIM11DKD1PKVtOSF1bQ0BASF0xW0NIMl1bQ0gyXVtDSDJdTihbQ0gyXTEpQyg9TylbTkhdW0NIMl1bQ0gyXWMyW2NIXVtjSF1bY0hdW2NIXW4y

> <s_epik_cmdline>
J2VwaWtfcHl0aG9uJywgJy1waCcsICc3LjAnLCAnLXRuJywgJzgnLCAnLW1hJywgJzIwMCcsICctbWV0YWxfYmluZGluZycsICctaW1hZScsICc8aW5maWxlLm1hZT4nLCAnLW9tYWUnLCAnPG91dGZpbGUubWFlPic=

> <r_epik_Ionization_Penalty>
1.56048

> <r_epik_Ionization_Penalty_Charging>
1.56043

> <r_epik_Ionization_Penalty_Neutral>
4.90601e-05

> <r_epik_State_Penalty>
1.65539

> <r_epik_Charging_Adjusted_Penalty>
3.21583

> <i_epik_Tot_Q>
1

> <i_epik_Tot_abs_Q>
1

> <r_epik_Metal_State_Penalty>
1.6969

> <b_epik_Metal_Only>
0

> <s_lp_Force_Field>
OPLS_2005

> <r_lp_Energy>
29.9669

> <b_lp_Chiralities_Consistent>
1

> <s_lp_Variant>
AV-unprocessed.smi:1563-3

> <Gold.Version>
5.8.1

> <Gold.Id.Protein>
6NUR|6NUR_protein|mol2

> <Gold.PLP.Fitness>
49.1459

> <Gold.PLP.PLP>
-40.9313

> <Gold.PLP.part.hbond>
-3.0000

> <Gold.PLP.part.metal>
0.0000

> <Gold.PLP.part.buried>
-4.7503

> <Gold.PLP.part.nonpolar>
-33.9203

> <Gold.PLP.part.repulsive>
0.2732

> <Gold.PLP.ligand.clash>
0.0000

> <Gold.PLP.ligand.torsion>
0.4460

> <Gold.PLP.Chemscore.Hbond>
3.0000

> <Gold.PLP.Chemscore.CHOScore>
0.0000

> <Gold.PLP.Chemscore.Metal>
0.0000

> <Gold.Chemscore.Hbonds>
donor molecule, donor type, donor heavy atom, donor atom, acceptor molecule, acceptor atom, score
      L1  H     4    25       P1 10747  1.00
      L1  H    20    44       P1 10175  1.98

> <Gold.PLP.Chemscore.Internal.Correction>
0.1066

> <Gold.Rescore>
     Score         DG    S(hbond)    S(metal)    S(lipo)     H(rot)  DE(clash)    DE(int)     intcor
     17.29     -17.84       1.94        0.00      88.94       1.77       0.06       0.49       ----

> <Gold.Chemscore.Fitness>
17.2880

> <Gold.Chemscore.DG>
-17.8437

> <Gold.Chemscore.ZeroCoef>
-5.4800

> <Gold.Chemscore.Hbond>
1.9397

> <Gold.Chemscore.Metal>
0.0000

> <Gold.Chemscore.Lipo>
88.9405

> <Gold.Chemscore.Internal_Hbond>
0.0000

> <Gold.Chemscore.DEClash>
0.0628

> <Gold.Chemscore.DEInternal>
0.4929

> <Gold.Chemscore.Rot>
1.7661

> <Gold.Chemscore.Internal.Correction>
   9.000000E+99

> <Gold.Chemscore.Hbonds>
donor molecule, donor type, donor heavy atom, donor atom, acceptor molecule, acceptor atom, score
      L1  H     4    25       P1 10747  0.97
      L1  H    20    44       P1 10175  0.54

> <Gold.Chemscore.Hbond.Weighted>
-6.4788

> <Gold.Chemscore.Metal.Weighted>
-0.0000

> <Gold.Chemscore.Lipo.Weighted>
-10.4060

> <Gold.Chemscore.Internal_Hbond.Weighted>
0.0000

> <Gold.Chemscore.DEClash.Weighted>
0.0628

> <Gold.Chemscore.DEInternal.Weighted>
0.4929

> <Gold.Chemscore.Rot.Weighted>
4.5211

> <Gold.Chemscore.Internal.Correction.Weighted>
   9.000000E+99

> <Gold.Protein.RotatedTorsions>
[ 6907 6896 6895 6894 ] final  157.03 input  -60.11 | X-H torsion
[ 7974 7965 7964 7962 ] final   16.72 input  175.53 | X-H torsion
[ 8008 7997 7996 7995 ] final   92.76 input   59.86 | X-H torsion
[ 10167 10162 10161 10158 ] final   22.39 input  -65.29 | X-H torsion
[ 10718 10713 10712 10709 ] final  -91.67 input   66.30 | X-H torsion
[ 10763 10752 10751 10750 ] final  128.30 input  -60.55 | X-H torsion
[ 11005 11000 10999 10996 ] final -153.89 input  -57.11 | X-H torsion

> <Gold.Protein.ActiveResidues>
 VAL166  LYS551  ARG553  GLY616  TRP617  ASP618  TYR619  PRO620  LYS621  CYS622 
 ASP623  PHE694  ASN695  SER759  ASP760  ASP761  ALA762  ILE779  LEU786  VAL792 
 PHE793  MET794  SER795  GLU796  ALA797  LYS798  CYS799  TRP800  GLU811  SER814 

> <Gold.Protein.RotatedAtoms>
  152.0211  133.3899  159.4258 H   0  0  0  0  0  0  0  0  0  0  0  0  # atno 6907 bound_to 6896
  150.6890  134.3625  159.4966 H   0  0  0  0  0  0  0  0  0  0  0  0  # atno 6908 bound_to 6896
  152.1399  134.9070  160.0605 H   0  0  0  0  0  0  0  0  0  0  0  0  # atno 6909 bound_to 6896
  146.2241  139.8707  142.8588 H   0  0  0  0  0  0  0  0  0  0  0  0  # atno 7974 bound_to 7965
  156.0390  140.3321  155.7223 H   0  0  0  0  0  0  0  0  0  0  0  0  # atno 8008 bound_to 7997
  155.5772  140.0633  157.2809 H   0  0  0  0  0  0  0  0  0  0  0  0  # atno 8009 bound_to 7997
  154.4385  140.1850  156.0928 H   0  0  0  0  0  0  0  0  0  0  0  0  # atno 8010 bound_to 7997
  140.5352  143.9772  150.6488 H   0  0  0  0  0  0  0  0  0  0  0  0  # atno 10167 bound_to 10162
  155.9995  130.4957  150.5509 H   0  0  0  0  0  0  0  0  0  0  0  0  # atno 10718 bound_to 10713
  153.7233  135.3250  155.3271 H   0  0  0  0  0  0  0  0  0  0  0  0  # atno 10763 bound_to 10752
  154.8349  135.4504  154.1196 H   0  0  0  0  0  0  0  0  0  0  0  0  # atno 10764 bound_to 10752
  153.2322  135.6961  153.7957 H   0  0  0  0  0  0  0  0  0  0  0  0  # atno 10765 bound_to 10752
  140.7032  134.3914  157.5207 H   0  0  0  0  0  0  0  0  0  0  0  0  # atno 11005 bound_to 11000
  145.2611  141.0077  143.3826 LP  0  0  0  0  0  0  0  0  0  0  0  0  # atno 17320 bound_to 7965
  144.9297  139.4313  143.6501 LP  0  0  0  0  0  0  0  0  0  0  0  0  # atno 17321 bound_to 7965
  140.3158  143.3169  152.0834 LP  0  0  0  0  0  0  0  0  0  0  0  0  # atno 17342 bound_to 10162
  139.4968  144.6606  151.6472 LP  0  0  0  0  0  0  0  0  0  0  0  0  # atno 17343 bound_to 10162
  157.3432  131.0720  151.1771 LP  0  0  0  0  0  0  0  0  0  0  0  0  # atno 17370 bound_to 10713
  157.2613  130.6660  149.5976 LP  0  0  0  0  0  0  0  0  0  0  0  0  # atno 17371 bound_to 10713
  139.8891  134.8839  156.2438 LP  0  0  0  0  0  0  0  0  0  0  0  0  # atno 17394 bound_to 11000
  141.0146  133.7076  156.1168 LP  0  0  0  0  0  0  0  0  0  0  0  0  # atno 17395 bound_to 11000

$$$$
