AV-unprocessed.smi:356|AV-procd|sdf|2408|dock2
  -GOLD-   2262022343D 1   1.00000     0.00000
 Structure written by MMmdl.
 41 43  0  0  0  0  0  0  0  0  1 V2000
  153.4089  138.7369  160.4188 C   0  0  0  0  0  0  0  0  0  0  0  0
  152.9982  140.1063  159.9780 C   0  0  0  0  0  0  0  0  0  0  0  0
  153.4731  141.2111  160.5534 N   0  0  0  0  0  0  0  0  0  0  0  0
  152.8370  142.2157  159.8496 C   0  0  0  0  0  0  0  0  0  0  0  0
  152.9179  143.6207  159.9802 C   0  0  0  0  0  0  0  0  0  0  0  0
  152.1635  144.4606  159.1352 C   0  0  0  0  0  0  0  0  0  0  0  0
  151.3188  143.9095  158.1499 C   0  0  0  0  0  0  0  0  0  0  0  0
  151.2223  142.5123  158.0035 C   0  0  0  0  0  0  0  0  0  0  0  0
  151.9778  141.6777  158.8492 C   0  0  0  0  0  0  0  0  0  0  0  0
  152.1151  140.2977  158.9674 N   0  0  0  0  0  0  0  0  0  0  0  0
  151.4429  139.2841  158.1665 C   0  0  0  0  0  0  0  0  0  0  0  0
  152.2432  138.8971  156.9055 C   0  0  2  0  0  0  0  0  0  0  0  0
  153.5792  138.6116  157.2668 O   0  0  0  0  0  0  0  0  0  0  0  0
  152.2692  140.0199  155.8491 C   0  0  0  0  0  0  0  0  0  0  0  0
  151.0565  140.1517  155.0400 N   0  0  0  0  0  0  0  0  0  0  0  0
  150.0940  141.0909  155.6128 C   0  0  0  0  0  0  0  0  0  0  0  0
  148.8152  141.1925  154.7630 C   0  0  0  0  0  0  0  0  0  0  0  0
  148.2364  139.9010  154.6095 O   0  0  0  0  0  0  0  0  0  0  0  0
  149.1288  138.9683  154.0092 C   0  0  0  0  0  0  0  0  0  0  0  0
  150.4059  138.8581  154.8599 C   0  0  0  0  0  0  0  0  0  0  0  0
  154.1452  138.7983  161.2206 H   0  0  0  0  0  0  0  0  0  0  0  0
  153.8522  138.1869  159.5892 H   0  0  0  0  0  0  0  0  0  0  0  0
  152.5455  138.1839  160.7887 H   0  0  0  0  0  0  0  0  0  0  0  0
  153.5624  144.0523  160.7316 H   0  0  0  0  0  0  0  0  0  0  0  0
  152.2344  145.5332  159.2435 H   0  0  0  0  0  0  0  0  0  0  0  0
  150.7453  144.5601  157.5060 H   0  0  0  0  0  0  0  0  0  0  0  0
  150.5777  142.0877  157.2487 H   0  0  0  0  0  0  0  0  0  0  0  0
  151.2705  138.4084  158.7924 H   0  0  0  0  0  0  0  0  0  0  0  0
  150.4540  139.6533  157.8919 H   0  0  0  0  0  0  0  0  0  0  0  0
  151.8381  137.9834  156.4729 H   0  0  0  0  0  0  0  0  0  0  0  0
  153.8685  137.8573  156.7767 H   0  0  0  0  0  0  0  0  0  0  0  0
  152.4528  140.9624  156.3669 H   0  0  0  0  0  0  0  0  0  0  0  0
  153.1253  139.8731  155.1884 H   0  0  0  0  0  0  0  0  0  0  0  0
  149.8315  140.7807  156.6254 H   0  0  0  0  0  0  0  0  0  0  0  0
  150.5328  142.0841  155.6930 H   0  0  0  0  0  0  0  0  0  0  0  0
  148.0922  141.8524  155.2425 H   0  0  0  0  0  0  0  0  0  0  0  0
  149.0365  141.6184  153.7832 H   0  0  0  0  0  0  0  0  0  0  0  0
  148.6357  137.9990  153.9371 H   0  0  0  0  0  0  0  0  0  0  0  0
  149.3672  139.2840  152.9925 H   0  0  0  0  0  0  0  0  0  0  0  0
  151.0951  138.1604  154.3833 H   0  0  0  0  0  0  0  0  0  0  0  0
  150.1539  138.4320  155.8326 H   0  0  0  0  0  0  0  0  0  0  0  0
  1  2  1  0  0  0  0
  1 21  1  0  0  0  0
  1 22  1  0  0  0  0
  1 23  1  0  0  0  0
  2 10  1  0  0  0  0
  2  3  2  0  0  0  0
  3  4  1  0  0  0  0
  4  9  2  0  0  0  0
  4  5  1  0  0  0  0
  5  6  2  0  0  0  0
  5 24  1  0  0  0  0
  6  7  1  0  0  0  0
  6 25  1  0  0  0  0
  7  8  2  0  0  0  0
  7 26  1  0  0  0  0
  8  9  1  0  0  0  0
  8 27  1  0  0  0  0
  9 10  1  0  0  0  0
 10 11  1  0  0  0  0
 11 12  1  0  0  0  0
 11 28  1  0  0  0  0
 11 29  1  0  0  0  0
 12 13  1  0  0  0  0
 12 14  1  0  0  0  0
 12 30  1  0  0  0  0
 13 31  1  0  0  0  0
 14 15  1  0  0  0  0
 14 32  1  0  0  0  0
 14 33  1  0  0  0  0
 15 20  1  0  0  0  0
 15 16  1  0  0  0  0
 16 17  1  0  0  0  0
 16 34  1  0  0  0  0
 16 35  1  0  0  0  0
 17 18  1  0  0  0  0
 17 36  1  0  0  0  0
 17 37  1  0  0  0  0
 18 19  1  0  0  0  0
 19 20  1  0  0  0  0
 19 38  1  0  0  0  0
 19 39  1  0  0  0  0
 20 40  1  0  0  0  0
 20 41  1  0  0  0  0
M  END
> <s_m_source_file>
AV-unprocessed.smi

> <i_m_source_file_index>
356

> <i_lp_mmshare_version>
43012

> <i_f3d_flags>
0

> <s_epik_input>
W2NIXTFbY0hdW2NIXVtjSF1jKGMxMiluKGMobjIpW0NIM10pW0NIMl1bQ0BIXShbT0hdKVtDSDJdTjNbQ0gyXVtDSDJdT1tDSDJdW0NIMl0z

> <s_epik_cmdline>
J2VwaWtfcHl0aG9uJywgJy1waCcsICc3LjAnLCAnLXRuJywgJzgnLCAnLW1hJywgJzIwMCcsICctbWV0YWxfYmluZGluZycsICctaW1hZScsICc8aW5maWxlLm1hZT4nLCAnLW9tYWUnLCAnPG91dGZpbGUubWFlPic=

> <r_epik_Ionization_Penalty>
0.355661

> <r_epik_Ionization_Penalty_Charging>
0

> <r_epik_Ionization_Penalty_Neutral>
0.355661

> <r_epik_State_Penalty>
0.325123

> <r_epik_Charging_Adjusted_Penalty>
0.325123

> <i_epik_Tot_Q>
0

> <i_epik_Tot_abs_Q>
0

> <r_epik_Metal_State_Penalty>
0.239925

> <b_epik_Metal_Only>
0

> <s_lp_Force_Field>
OPLS_2005

> <r_lp_Energy>
27.9323

> <b_lp_Chiralities_Consistent>
1

> <s_lp_Variant>
AV-unprocessed.smi:356-1

> <Gold.Version>
5.8.1

> <Gold.Id.Protein>
6NUR|6NUR_protein|mol2

> <Gold.PLP.Fitness>
46.9407

> <Gold.PLP.PLP>
-43.1510

> <Gold.PLP.part.hbond>
-2.0000

> <Gold.PLP.part.metal>
0.0000

> <Gold.PLP.part.buried>
-4.5088

> <Gold.PLP.part.nonpolar>
-36.7202

> <Gold.PLP.part.repulsive>
0.1312

> <Gold.PLP.ligand.clash>
0.0095

> <Gold.PLP.ligand.torsion>
0.9773

> <Gold.PLP.Chemscore.Hbond>
1.9000

> <Gold.PLP.Chemscore.CHOScore>
0.0000

> <Gold.PLP.Chemscore.Metal>
0.0000

> <Gold.Chemscore.Hbonds>
donor molecule, donor type, donor heavy atom, donor atom, acceptor molecule, acceptor atom, score
      P1  H  7989  7998       L1    15  1.00
      P1  H  7997  8010       L1    13  1.00

> <Gold.PLP.Chemscore.Internal.Correction>
0.0538

> <Gold.Rescore>
     Score         DG    S(hbond)    S(metal)    S(lipo)     H(rot)  DE(clash)    DE(int)     intcor
     15.99     -17.04       0.86        0.00     117.78       1.99       0.02       1.04       ----

> <Gold.Chemscore.Fitness>
15.9899

> <Gold.Chemscore.DG>
-17.0450

> <Gold.Chemscore.ZeroCoef>
-5.4800

> <Gold.Chemscore.Hbond>
0.8591

> <Gold.Chemscore.Metal>
0.0000

> <Gold.Chemscore.Lipo>
117.7826

> <Gold.Chemscore.Internal_Hbond>
0.0000

> <Gold.Chemscore.DEClash>
0.0185

> <Gold.Chemscore.DEInternal>
1.0366

> <Gold.Chemscore.Rot>
1.9863

> <Gold.Chemscore.Internal.Correction>
   9.000000E+99

> <Gold.Chemscore.Hbonds>
donor molecule, donor type, donor heavy atom, donor atom, acceptor molecule, acceptor atom, score
      P1  H  7989  7998       L1    15  0.23
      P1  H  7997  8010       L1    13  0.42

> <Gold.Chemscore.Hbond.Weighted>
-2.8694

> <Gold.Chemscore.Metal.Weighted>
-0.0000

> <Gold.Chemscore.Lipo.Weighted>
-13.7806

> <Gold.Chemscore.Internal_Hbond.Weighted>
0.0000

> <Gold.Chemscore.DEClash.Weighted>
0.0185

> <Gold.Chemscore.DEInternal.Weighted>
1.0366

> <Gold.Chemscore.Rot.Weighted>
5.0850

> <Gold.Chemscore.Internal.Correction.Weighted>
   9.000000E+99

> <Gold.Protein.RotatedTorsions>
[ 6907 6896 6895 6894 ] final   52.01 input  -60.11 | X-H torsion
[ 7974 7965 7964 7962 ] final  -45.78 input  175.53 | X-H torsion
[ 8008 7997 7996 7995 ] final   44.72 input   59.86 | X-H torsion
[ 10167 10162 10161 10158 ] final  -14.78 input  -65.29 | X-H torsion
[ 10718 10713 10712 10709 ] final -101.96 input   66.30 | X-H torsion
[ 10763 10752 10751 10750 ] final  101.48 input  -60.55 | X-H torsion
[ 11005 11000 10999 10996 ] final -123.03 input  -57.11 | X-H torsion

> <Gold.Protein.ActiveResidues>
 VAL166  LYS551  ARG553  GLY616  TRP617  ASP618  TYR619  PRO620  LYS621  CYS622 
 ASP623  PHE694  ASN695  SER759  ASP760  ASP761  ALA762  ILE779  LEU786  VAL792 
 PHE793  MET794  SER795  GLU796  ALA797  LYS798  CYS799  TRP800  GLU811  SER814 

> <Gold.Protein.RotatedAtoms>
  152.3187  134.7407  160.0318 H   0  0  0  0  0  0  0  0  0  0  0  0  # atno 6907 bound_to 6896
  151.7863  133.3349  159.3494 H   0  0  0  0  0  0  0  0  0  0  0  0  # atno 6908 bound_to 6896
  150.7358  134.5815  159.5985 H   0  0  0  0  0  0  0  0  0  0  0  0  # atno 6909 bound_to 6896
  145.9786  140.7308  142.9375 H   0  0  0  0  0  0  0  0  0  0  0  0  # atno 7974 bound_to 7965
  155.3240  140.3398  155.4240 H   0  0  0  0  0  0  0  0  0  0  0  0  # atno 8008 bound_to 7997
  156.1895  140.1692  156.8157 H   0  0  0  0  0  0  0  0  0  0  0  0  # atno 8009 bound_to 7997
  154.5425  140.0722  156.8517 H   0  0  0  0  0  0  0  0  0  0  0  0  # atno 8010 bound_to 7997
  140.7207  143.5286  150.9547 H   0  0  0  0  0  0  0  0  0  0  0  0  # atno 10167 bound_to 10162
  156.0212  130.5398  150.7040 H   0  0  0  0  0  0  0  0  0  0  0  0  # atno 10718 bound_to 10713
  153.3273  135.4043  155.1466 H   0  0  0  0  0  0  0  0  0  0  0  0  # atno 10763 bound_to 10752
  154.8615  135.3602  154.5517 H   0  0  0  0  0  0  0  0  0  0  0  0  # atno 10764 bound_to 10752
  153.5954  135.7072  153.5465 H   0  0  0  0  0  0  0  0  0  0  0  0  # atno 10765 bound_to 10752
  140.9950  134.0485  157.3609 H   0  0  0  0  0  0  0  0  0  0  0  0  # atno 11005 bound_to 11000
  144.6855  140.2870  143.7284 LP  0  0  0  0  0  0  0  0  0  0  0  0  # atno 17320 bound_to 7965
  145.7802  139.1889  143.2162 LP  0  0  0  0  0  0  0  0  0  0  0  0  # atno 17321 bound_to 7965
  139.9006  143.6841  152.3132 LP  0  0  0  0  0  0  0  0  0  0  0  0  # atno 17342 bound_to 10162
  139.7189  144.7606  151.0988 LP  0  0  0  0  0  0  0  0  0  0  0  0  # atno 17343 bound_to 10162
  157.4693  131.0891  151.0660 LP  0  0  0  0  0  0  0  0  0  0  0  0  # atno 17370 bound_to 10713
  157.1125  130.6027  149.5485 LP  0  0  0  0  0  0  0  0  0  0  0  0  # atno 17371 bound_to 10713
  139.9010  135.0164  156.7268 LP  0  0  0  0  0  0  0  0  0  0  0  0  # atno 17394 bound_to 11000
  140.6980  133.9331  155.8007 LP  0  0  0  0  0  0  0  0  0  0  0  0  # atno 17395 bound_to 11000

$$$$
