AV-unprocessed.smi:2063|AV-procd|sdf|8410|dock9
  -GOLD-   2272011103D 1   1.00000     0.00000
 Structure written by MMmdl.
 39 40  0  0  0  0  0  0  0  0  1 V2000
  151.9731  140.3797  156.7879 C   0  0  0  0  0  0  0  0  0  0  0  0
  151.0059  141.2896  156.0163 C   0  0  0  0  0  0  0  0  0  0  0  0
  150.4653  142.4508  156.8634 C   0  0  0  0  0  0  0  0  0  0  0  0
  149.9086  140.5149  155.3552 C   0  0  0  0  0  0  0  0  0  0  0  0
  148.6096  140.7454  155.5896 N   0  0  0  0  0  0  0  0  0  0  0  0
  147.7833  139.9010  154.8621 N   0  0  0  0  0  0  0  0  0  0  0  0
  148.4840  139.0541  154.0961 C   0  0  0  0  0  0  0  0  0  0  0  0
  147.8910  138.0811  153.2487 N   0  0  0  0  0  0  0  0  0  0  0  0
  146.5844  137.8570  153.0234 C   0  0  0  0  0  0  0  0  0  0  0  0
  145.6564  138.4798  153.5403 O   0  0  0  0  0  0  0  0  0  0  0  0
  146.4100  136.8531  152.1509 N   0  0  0  0  0  0  0  0  0  0  0  0
  145.1218  136.3533  151.6754 C   0  0  2  0  0  0  0  0  0  0  0  0
  144.2186  136.0988  152.8921 C   0  0  0  0  0  0  0  0  0  0  0  0
  145.3311  135.0810  150.8278 C   0  0  1  0  0  0  0  0  0  0  0  0
  146.0788  133.9527  151.5398 C   0  0  0  0  0  0  0  0  0  0  0  0
  145.6245  132.7020  150.8042 C   0  0  0  0  0  0  0  0  0  0  0  0
  144.3700  133.1490  150.0494 C   0  0  0  0  0  0  0  0  0  0  0  0
  144.0918  134.4565  150.5295 O   0  0  0  0  0  0  0  0  0  0  0  0
  150.2278  139.2231  154.2022 S   0  0  0  0  0  0  0  0  0  0  0  0
  152.4001  139.6180  156.1346 H   0  0  0  0  0  0  0  0  0  0  0  0
  151.4693  139.8696  157.6095 H   0  0  0  0  0  0  0  0  0  0  0  0
  152.7986  140.9530  157.2101 H   0  0  0  0  0  0  0  0  0  0  0  0
  151.5884  141.7430  155.2132 H   0  0  0  0  0  0  0  0  0  0  0  0
  149.8549  143.1242  156.2608 H   0  0  0  0  0  0  0  0  0  0  0  0
  151.2790  143.0368  157.2911 H   0  0  0  0  0  0  0  0  0  0  0  0
  149.8490  142.0882  157.6870 H   0  0  0  0  0  0  0  0  0  0  0  0
  148.5386  137.4847  152.7555 H   0  0  0  0  0  0  0  0  0  0  0  0
  147.2327  136.4029  151.7778 H   0  0  0  0  0  0  0  0  0  0  0  0
  144.6388  137.1137  151.0589 H   0  0  0  0  0  0  0  0  0  0  0  0
  143.2208  135.7823  152.5878 H   0  0  0  0  0  0  0  0  0  0  0  0
  144.1024  137.0032  153.4902 H   0  0  0  0  0  0  0  0  0  0  0  0
  144.6313  135.3232  153.5382 H   0  0  0  0  0  0  0  0  0  0  0  0
  145.8358  135.3261  149.8908 H   0  0  0  0  0  0  0  0  0  0  0  0
  147.1610  134.0839  151.5200 H   0  0  0  0  0  0  0  0  0  0  0  0
  145.7657  133.8946  152.5834 H   0  0  0  0  0  0  0  0  0  0  0  0
  146.3863  132.3527  150.1062 H   0  0  0  0  0  0  0  0  0  0  0  0
  145.4117  131.8920  151.5028 H   0  0  0  0  0  0  0  0  0  0  0  0
  144.5631  133.1940  148.9767 H   0  0  0  0  0  0  0  0  0  0  0  0
  143.5219  132.4842  150.2151 H   0  0  0  0  0  0  0  0  0  0  0  0
  1  2  1  0  0  0  0
  1 20  1  0  0  0  0
  1 21  1  0  0  0  0
  1 22  1  0  0  0  0
  2  3  1  0  0  0  0
  2  4  1  0  0  0  0
  2 23  1  0  0  0  0
  3 24  1  0  0  0  0
  3 25  1  0  0  0  0
  3 26  1  0  0  0  0
  4 19  1  0  0  0  0
  4  5  2  0  0  0  0
  5  6  1  0  0  0  0
  6  7  2  0  0  0  0
  7  8  1  0  0  0  0
  7 19  1  0  0  0  0
  8  9  1  0  0  0  0
  8 27  1  0  0  0  0
  9 10  2  0  0  0  0
  9 11  1  0  0  0  0
 11 12  1  0  0  0  0
 11 28  1  0  0  0  0
 12 13  1  0  0  0  0
 12 14  1  0  0  0  0
 12 29  1  0  0  0  0
 13 30  1  0  0  0  0
 13 31  1  0  0  0  0
 13 32  1  0  0  0  0
 14 18  1  0  0  0  0
 14 15  1  0  0  0  0
 14 33  1  0  0  0  0
 15 16  1  0  0  0  0
 15 34  1  0  0  0  0
 15 35  1  0  0  0  0
 16 17  1  0  0  0  0
 16 36  1  0  0  0  0
 16 37  1  0  0  0  0
 17 18  1  0  0  0  0
 17 38  1  0  0  0  0
 17 39  1  0  0  0  0
M  END
> <s_m_source_file>
AV-unprocessed.smi

> <i_m_source_file_index>
2063

> <i_lp_mmshare_version>
43012

> <i_f3d_flags>
0

> <s_epik_input>
W0NIM11bQ0hdKFtDSDNdKWMxbm5jKHMxKVtOSF1DKD1PKVtOSF1bQ0BIXShbQ0gzXSlbQ0BASF0yW0NIMl1bQ0gyXVtDSDJdTzI=

> <s_epik_cmdline>
J2VwaWtfcHl0aG9uJywgJy1waCcsICc3LjAnLCAnLXRuJywgJzgnLCAnLW1hJywgJzIwMCcsICctbWV0YWxfYmluZGluZycsICctaW1hZScsICc8aW5maWxlLm1hZT4nLCAnLW9tYWUnLCAnPG91dGZpbGUubWFlPic=

> <r_lp_tautomer_probability>
1

> <r_epik_Ionization_Penalty>
0.00050567

> <r_epik_Ionization_Penalty_Charging>
0

> <r_epik_Ionization_Penalty_Neutral>
0.00050567

> <r_epik_State_Penalty>
-0

> <r_epik_Charging_Adjusted_Penalty>
0

> <i_epik_Tot_Q>
0

> <i_epik_Tot_abs_Q>
0

> <r_epik_Metal_State_Penalty>
0.219912

> <b_epik_Metal_Only>
0

> <s_lp_Force_Field>
OPLS_2005

> <r_lp_Energy>
10.8912

> <b_lp_Chiralities_Consistent>
1

> <s_lp_Variant>
AV-unprocessed.smi:2063-3

> <Gold.Version>
5.8.1

> <Gold.Id.Protein>
6NUR|6NUR_protein|mol2

> <Gold.PLP.Fitness>
35.1611

> <Gold.PLP.PLP>
-29.4813

> <Gold.PLP.part.hbond>
-2.0000

> <Gold.PLP.part.metal>
0.0000

> <Gold.PLP.part.buried>
-3.7787

> <Gold.PLP.part.nonpolar>
-25.3615

> <Gold.PLP.part.repulsive>
0.7885

> <Gold.PLP.ligand.clash>
0.0000

> <Gold.PLP.ligand.torsion>
0.1728

> <Gold.PLP.Chemscore.Hbond>
1.9760

> <Gold.PLP.Chemscore.CHOScore>
0.0000

> <Gold.PLP.Chemscore.Metal>
0.0000

> <Gold.Chemscore.Hbonds>
donor molecule, donor type, donor heavy atom, donor atom, acceptor molecule, acceptor atom, score
      L1  H     8    27       P1  7948  1.00
      L1  H    11    28       P1  7948  0.96

> <Gold.PLP.Chemscore.Internal.Correction>
0.0973

> <Gold.Rescore>
     Score         DG    S(hbond)    S(metal)    S(lipo)     H(rot)  DE(clash)    DE(int)     intcor
     15.23     -16.77       1.96        0.00      71.59       1.42       0.10       1.44       ----

> <Gold.Chemscore.Fitness>
15.2273

> <Gold.Chemscore.DG>
-16.7651

> <Gold.Chemscore.ZeroCoef>
-5.4800

> <Gold.Chemscore.Hbond>
1.9558

> <Gold.Chemscore.Metal>
0.0000

> <Gold.Chemscore.Lipo>
71.5876

> <Gold.Chemscore.Internal_Hbond>
0.0000

> <Gold.Chemscore.DEClash>
0.0957

> <Gold.Chemscore.DEInternal>
1.4421

> <Gold.Chemscore.Rot>
1.4152

> <Gold.Chemscore.Internal.Correction>
   9.000000E+99

> <Gold.Chemscore.Hbonds>
donor molecule, donor type, donor heavy atom, donor atom, acceptor molecule, acceptor atom, score
      L1  H     8    27       P1  7948  0.96
      L1  H    11    28       P1  7948  0.92

> <Gold.Chemscore.Hbond.Weighted>
-6.5323

> <Gold.Chemscore.Metal.Weighted>
-0.0000

> <Gold.Chemscore.Lipo.Weighted>
-8.3757

> <Gold.Chemscore.Internal_Hbond.Weighted>
0.0000

> <Gold.Chemscore.DEClash.Weighted>
0.0957

> <Gold.Chemscore.DEInternal.Weighted>
1.4421

> <Gold.Chemscore.Rot.Weighted>
3.6229

> <Gold.Chemscore.Internal.Correction.Weighted>
   9.000000E+99

> <Gold.Protein.RotatedTorsions>
[ 6907 6896 6895 6894 ] final  160.24 input  -60.11 | X-H torsion
[ 7974 7965 7964 7962 ] final -164.87 input  175.53 | X-H torsion
[ 8008 7997 7996 7995 ] final  175.51 input   59.86 | X-H torsion
[ 10167 10162 10161 10158 ] final   -3.14 input  -65.29 | X-H torsion
[ 10718 10713 10712 10709 ] final -165.26 input   66.30 | X-H torsion
[ 10763 10752 10751 10750 ] final -160.99 input  -60.55 | X-H torsion
[ 11005 11000 10999 10996 ] final   74.10 input  -57.11 | X-H torsion

> <Gold.Protein.ActiveResidues>
 VAL166  LYS551  ARG553  GLY616  TRP617  ASP618  TYR619  PRO620  LYS621  CYS622 
 ASP623  PHE694  ASN695  SER759  ASP760  ASP761  ALA762  ILE779  LEU786  VAL792 
 PHE793  MET794  SER795  GLU796  ALA797  LYS798  CYS799  TRP800  GLU811  SER814 

> <Gold.Protein.RotatedAtoms>
  151.9736  133.3734  159.4080 H   0  0  0  0  0  0  0  0  0  0  0  0  # atno 6907 bound_to 6896
  150.6945  134.4114  159.5173 H   0  0  0  0  0  0  0  0  0  0  0  0  # atno 6908 bound_to 6896
  152.1822  134.8744  160.0576 H   0  0  0  0  0  0  0  0  0  0  0  0  # atno 6909 bound_to 6896
  144.7285  140.2897  143.6222 H   0  0  0  0  0  0  0  0  0  0  0  0  # atno 7974 bound_to 7965
  156.0863  140.1407  156.9649 H   0  0  0  0  0  0  0  0  0  0  0  0  # atno 8008 bound_to 7997
  154.4615  140.0941  156.6953 H   0  0  0  0  0  0  0  0  0  0  0  0  # atno 8009 bound_to 7997
  155.4993  140.3450  155.4370 H   0  0  0  0  0  0  0  0  0  0  0  0  # atno 8010 bound_to 7997
  140.6879  143.6574  150.8296 H   0  0  0  0  0  0  0  0  0  0  0  0  # atno 10167 bound_to 10162
  156.6508  130.9007  151.3013 H   0  0  0  0  0  0  0  0  0  0  0  0  # atno 10718 bound_to 10713
  154.7342  135.3053  154.8840 H   0  0  0  0  0  0  0  0  0  0  0  0  # atno 10763 bound_to 10752
  153.9673  135.6746  153.4750 H   0  0  0  0  0  0  0  0  0  0  0  0  # atno 10764 bound_to 10752
  153.0947  135.4942  154.8678 H   0  0  0  0  0  0  0  0  0  0  0  0  # atno 10765 bound_to 10752
  139.9407  134.7404  156.1107 H   0  0  0  0  0  0  0  0  0  0  0  0  # atno 11005 bound_to 11000
  145.7867  139.1911  143.2126 LP  0  0  0  0  0  0  0  0  0  0  0  0  # atno 17320 bound_to 7965
  146.0790  140.7786  142.9651 LP  0  0  0  0  0  0  0  0  0  0  0  0  # atno 17321 bound_to 7965
  140.0283  143.5470  152.2771 LP  0  0  0  0  0  0  0  0  0  0  0  0  # atno 17342 bound_to 10162
  139.6253  144.7636  151.2651 LP  0  0  0  0  0  0  0  0  0  0  0  0  # atno 17343 bound_to 10162
  157.7141  130.9476  150.1193 LP  0  0  0  0  0  0  0  0  0  0  0  0  # atno 17370 bound_to 10713
  156.2085  130.3665  149.8699 LP  0  0  0  0  0  0  0  0  0  0  0  0  # atno 17371 bound_to 10713
  141.1040  133.6666  156.2821 LP  0  0  0  0  0  0  0  0  0  0  0  0  # atno 17394 bound_to 11000
  140.5959  134.5604  157.5508 LP  0  0  0  0  0  0  0  0  0  0  0  0  # atno 17395 bound_to 11000

$$$$
