AV-unprocessed.smi:2824|AV-procd|sdf|10886|dock4
  -GOLD-   2272015323D 1   1.00000     0.00000
 Structure written by MMmdl.
 38 39  0  0  0  0  0  0  0  0  1 V2000
  153.7141  141.2627  160.4175 C   0  0  0  0  0  0  0  0  0  0  0  0
  152.7592  141.9854  159.4858 C   0  0  0  0  0  0  0  0  0  0  0  0
  152.7880  143.3942  159.4147 C   0  0  0  0  0  0  0  0  0  0  0  0
  151.9102  144.0789  158.5551 C   0  0  0  0  0  0  0  0  0  0  0  0
  150.9996  143.3558  157.7645 C   0  0  0  0  0  0  0  0  0  0  0  0
  150.9670  141.9499  157.8314 C   0  0  0  0  0  0  0  0  0  0  0  0
  151.8485  141.2479  158.6932 C   0  0  0  0  0  0  0  0  0  0  0  0
  151.8729  139.8730  158.8095 O   0  0  0  0  0  0  0  0  0  0  0  0
  150.9307  139.1119  158.0656 C   0  0  0  0  0  0  0  0  0  0  0  0
  150.4421  137.9396  158.9328 C   0  0  2  0  0  0  0  0  0  0  0  0
  151.4136  136.9154  158.8414 O   0  0  0  0  0  0  0  0  0  0  0  0
  149.1014  137.3692  158.4182 C   0  0  0  0  0  0  0  0  0  0  0  0
  148.7599  136.0917  159.0555 N   0  0  0  0  0  0  0  0  0  0  0  0
  148.3159  136.2156  160.3604 N   0  0  0  0  0  0  0  0  0  0  0  0
  147.9705  135.1798  161.0550 C   0  0  0  0  0  0  0  0  0  0  0  0
  147.4966  135.4168  162.4678 C   0  0  0  0  0  0  0  0  0  0  0  0
  148.4625  135.9521  163.2151 F   0  0  0  0  0  0  0  0  0  0  0  0
  146.4528  136.2466  162.4678 F   0  0  0  0  0  0  0  0  0  0  0  0
  147.1201  134.2650  163.0240 F   0  0  0  0  0  0  0  0  0  0  0  0
  148.0571  133.8620  160.4476 C   0  0  0  0  0  0  0  0  0  0  0  0
  148.4928  133.7436  159.1750 C   0  0  0  0  0  0  0  0  0  0  0  0
  148.8818  134.9090  158.3848 C   0  0  0  0  0  0  0  0  0  0  0  0
  149.2800  134.8345  157.2226 O   0  0  0  0  0  0  0  0  0  0  0  0
  154.3585  141.9617  160.9515 H   0  0  0  0  0  0  0  0  0  0  0  0
  154.3497  140.5804  159.8526 H   0  0  0  0  0  0  0  0  0  0  0  0
  153.1575  140.6835  161.1549 H   0  0  0  0  0  0  0  0  0  0  0  0
  153.4849  143.9559  160.0194 H   0  0  0  0  0  0  0  0  0  0  0  0
  151.9349  145.1573  158.5027 H   0  0  0  0  0  0  0  0  0  0  0  0
  150.3238  143.8801  157.1051 H   0  0  0  0  0  0  0  0  0  0  0  0
  150.2525  141.4328  157.2096 H   0  0  0  0  0  0  0  0  0  0  0  0
  150.0863  139.7597  157.8246 H   0  0  0  0  0  0  0  0  0  0  0  0
  151.3543  138.7506  157.1267 H   0  0  0  0  0  0  0  0  0  0  0  0
  150.3456  138.2698  159.9679 H   0  0  0  0  0  0  0  0  0  0  0  0
  152.2168  137.2904  158.5145 H   0  0  0  0  0  0  0  0  0  0  0  0
  148.2952  138.0778  158.6176 H   0  0  0  0  0  0  0  0  0  0  0  0
  149.1213  137.2699  157.3309 H   0  0  0  0  0  0  0  0  0  0  0  0
  147.7740  132.9862  161.0123 H   0  0  0  0  0  0  0  0  0  0  0  0
  148.5551  132.7625  158.7275 H   0  0  0  0  0  0  0  0  0  0  0  0
  1  2  1  0  0  0  0
  1 24  1  0  0  0  0
  1 25  1  0  0  0  0
  1 26  1  0  0  0  0
  2  7  1  0  0  0  0
  2  3  2  0  0  0  0
  3  4  1  0  0  0  0
  3 27  1  0  0  0  0
  4  5  2  0  0  0  0
  4 28  1  0  0  0  0
  5  6  1  0  0  0  0
  5 29  1  0  0  0  0
  6  7  2  0  0  0  0
  6 30  1  0  0  0  0
  7  8  1  0  0  0  0
  8  9  1  0  0  0  0
  9 10  1  0  0  0  0
  9 31  1  0  0  0  0
  9 32  1  0  0  0  0
 10 11  1  0  0  0  0
 10 12  1  0  0  0  0
 10 33  1  0  0  0  0
 11 34  1  0  0  0  0
 12 13  1  0  0  0  0
 12 35  1  0  0  0  0
 12 36  1  0  0  0  0
 13 22  1  0  0  0  0
 13 14  1  0  0  0  0
 14 15  2  0  0  0  0
 15 16  1  0  0  0  0
 15 20  1  0  0  0  0
 16 17  1  0  0  0  0
 16 18  1  0  0  0  0
 16 19  1  0  0  0  0
 20 21  2  0  0  0  0
 20 37  1  0  0  0  0
 21 22  1  0  0  0  0
 21 38  1  0  0  0  0
 22 23  2  0  0  0  0
M  END
> <s_m_source_file>
AV-unprocessed.smi

> <i_m_source_file_index>
2824

> <i_lp_mmshare_version>
43012

> <i_f3d_flags>
0

> <s_epik_input>
W0NIM11jMVtjSF1bY0hdW2NIXVtjSF1jMU9bQ0gyXVtDQEhdKFtPSF0pW0NIMl1uMm5jKEMoRikoRilGKVtjSF1bY0hdYzI9Tw==

> <s_epik_cmdline>
J2VwaWtfcHl0aG9uJywgJy1waCcsICc3LjAnLCAnLXRuJywgJzgnLCAnLW1hJywgJzIwMCcsICctbWV0YWxfYmluZGluZycsICctaW1hZScsICc8aW5maWxlLm1hZT4nLCAnLW9tYWUnLCAnPG91dGZpbGUubWFlPic=

> <r_lp_tautomer_probability>
1

> <r_epik_Ionization_Penalty>
1.2156e-07

> <r_epik_Ionization_Penalty_Charging>
4.38548e-09

> <r_epik_Ionization_Penalty_Neutral>
1.17174e-07

> <r_epik_State_Penalty>
-0

> <r_epik_Charging_Adjusted_Penalty>
4.38548e-09

> <i_epik_Tot_Q>
0

> <i_epik_Tot_abs_Q>
0

> <r_epik_Metal_State_Penalty>
-0

> <b_epik_Metal_Only>
0

> <s_lp_Force_Field>
OPLS_2005

> <r_lp_Energy>
34.0835

> <b_lp_Chiralities_Consistent>
1

> <s_lp_Variant>
AV-unprocessed.smi:2824-1

> <Gold.Version>
5.8.1

> <Gold.Id.Protein>
6NUR|6NUR_protein|mol2

> <Gold.PLP.Fitness>
49.7451

> <Gold.PLP.PLP>
-48.1116

> <Gold.PLP.part.hbond>
-1.0000

> <Gold.PLP.part.metal>
0.0000

> <Gold.PLP.part.buried>
-6.7598

> <Gold.PLP.part.nonpolar>
-42.0223

> <Gold.PLP.part.repulsive>
0.0000

> <Gold.PLP.ligand.clash>
0.0000

> <Gold.PLP.ligand.torsion>
0.7397

> <Gold.PLP.Chemscore.Hbond>
0.9913

> <Gold.PLP.Chemscore.CHOScore>
0.0000

> <Gold.PLP.Chemscore.Metal>
0.0000

> <Gold.Chemscore.Hbonds>
donor molecule, donor type, donor heavy atom, donor atom, acceptor molecule, acceptor atom, score
      P1  H  6896  6908       L1    11  0.80

> <Gold.PLP.Chemscore.Internal.Correction>
0.1392

> <Gold.Rescore>
     Score         DG    S(hbond)    S(metal)    S(lipo)     H(rot)  DE(clash)    DE(int)     intcor
     14.06     -14.84       0.92        0.00     110.58       2.60       0.08       0.69       ----

> <Gold.Chemscore.Fitness>
14.0632

> <Gold.Chemscore.DG>
-14.8412

> <Gold.Chemscore.ZeroCoef>
-5.4800

> <Gold.Chemscore.Hbond>
0.9204

> <Gold.Chemscore.Metal>
0.0000

> <Gold.Chemscore.Lipo>
110.5758

> <Gold.Chemscore.Internal_Hbond>
0.0000

> <Gold.Chemscore.DEClash>
0.0847

> <Gold.Chemscore.DEInternal>
0.6933

> <Gold.Chemscore.Rot>
2.5978

> <Gold.Chemscore.Internal.Correction>
   9.000000E+99

> <Gold.Chemscore.Hbonds>
donor molecule, donor type, donor heavy atom, donor atom, acceptor molecule, acceptor atom, score
      P1  H  6896  6908       L1    11  0.76

> <Gold.Chemscore.Hbond.Weighted>
-3.0743

> <Gold.Chemscore.Metal.Weighted>
-0.0000

> <Gold.Chemscore.Lipo.Weighted>
-12.9374

> <Gold.Chemscore.Internal_Hbond.Weighted>
0.0000

> <Gold.Chemscore.DEClash.Weighted>
0.0847

> <Gold.Chemscore.DEInternal.Weighted>
0.6933

> <Gold.Chemscore.Rot.Weighted>
6.6504

> <Gold.Chemscore.Internal.Correction.Weighted>
   9.000000E+99

> <Gold.Protein.RotatedTorsions>
[ 6907 6896 6895 6894 ] final -142.62 input  -60.11 | X-H torsion
[ 7974 7965 7964 7962 ] final  -83.36 input  175.53 | X-H torsion
[ 8008 7997 7996 7995 ] final -162.03 input   59.86 | X-H torsion
[ 10167 10162 10161 10158 ] final  -60.58 input  -65.29 | X-H torsion
[ 10718 10713 10712 10709 ] final -171.93 input   66.30 | X-H torsion
[ 10763 10752 10751 10750 ] final  162.99 input  -60.55 | X-H torsion
[ 11005 11000 10999 10996 ] final  -76.94 input  -57.11 | X-H torsion

> <Gold.Protein.ActiveResidues>
 VAL166  LYS551  ARG553  GLY616  TRP617  ASP618  TYR619  PRO620  LYS621  CYS622 
 ASP623  PHE694  ASN695  SER759  ASP760  ASP761  ALA762  ILE779  LEU786  VAL792 
 PHE793  MET794  SER795  GLU796  ALA797  LYS798  CYS799  TRP800  GLU811  SER814 

> <Gold.Protein.RotatedAtoms>
  151.0895  133.5327  159.2615 H   0  0  0  0  0  0  0  0  0  0  0  0  # atno 6907 bound_to 6896
  151.2199  135.0514  159.8955 H   0  0  0  0  0  0  0  0  0  0  0  0  # atno 6908 bound_to 6896
  152.5432  134.0699  159.8243 H   0  0  0  0  0  0  0  0  0  0  0  0  # atno 6909 bound_to 6896
  145.5210  140.9531  143.1655 H   0  0  0  0  0  0  0  0  0  0  0  0  # atno 7974 bound_to 7965
  155.8008  140.0891  157.1958 H   0  0  0  0  0  0  0  0  0  0  0  0  # atno 8008 bound_to 7997
  154.3982  140.1472  156.3331 H   0  0  0  0  0  0  0  0  0  0  0  0  # atno 8009 bound_to 7997
  155.8464  140.3436  155.5668 H   0  0  0  0  0  0  0  0  0  0  0  0  # atno 8010 bound_to 7997
  140.6062  143.2374  151.5816 H   0  0  0  0  0  0  0  0  0  0  0  0  # atno 10167 bound_to 10162
  156.7480  130.9367  151.3113 H   0  0  0  0  0  0  0  0  0  0  0  0  # atno 10718 bound_to 10713
  154.2868  135.2762  155.2672 H   0  0  0  0  0  0  0  0  0  0  0  0  # atno 10763 bound_to 10752
  154.5169  135.5767  153.6653 H   0  0  0  0  0  0  0  0  0  0  0  0  # atno 10764 bound_to 10752
  152.9920  135.6195  154.3031 H   0  0  0  0  0  0  0  0  0  0  0  0  # atno 10765 bound_to 10752
  141.1657  133.7003  156.7744 H   0  0  0  0  0  0  0  0  0  0  0  0  # atno 11005 bound_to 11000
  144.7676  139.6809  143.7208 LP  0  0  0  0  0  0  0  0  0  0  0  0  # atno 17320 bound_to 7965
  146.2106  139.5459  142.9684 LP  0  0  0  0  0  0  0  0  0  0  0  0  # atno 17321 bound_to 7965
  139.5326  144.2871  152.1182 LP  0  0  0  0  0  0  0  0  0  0  0  0  # atno 17342 bound_to 10162
  140.2061  144.4609  150.6408 LP  0  0  0  0  0  0  0  0  0  0  0  0  # atno 17343 bound_to 10162
  157.6789  130.9121  150.0219 LP  0  0  0  0  0  0  0  0  0  0  0  0  # atno 17370 bound_to 10713
  156.1420  130.3642  149.9568 LP  0  0  0  0  0  0  0  0  0  0  0  0  # atno 17371 bound_to 10713
  140.2440  134.8592  157.3602 LP  0  0  0  0  0  0  0  0  0  0  0  0  # atno 17394 bound_to 11000
  140.1768  134.4540  155.7797 LP  0  0  0  0  0  0  0  0  0  0  0  0  # atno 17395 bound_to 11000

$$$$
