AV-unprocessed.smi:2503|AV-procd|sdf|9847|dock2
  -GOLD-   2272013473D 1   1.00000     0.00000
 Structure written by MMmdl.
 37 38  0  0  0  0  0  0  0  0  2 V2000
  146.5455  140.2776  154.6357 C   0  0  0  0  0  0  0  0  0  0  0  0
  147.4923  140.0577  153.4480 C   0  0  0  0  0  0  0  0  0  0  0  0
  146.8981  139.0752  152.4265 C   0  0  0  0  0  0  0  0  0  0  0  0
  148.8583  139.6330  153.9134 C   0  0  0  0  0  0  0  0  0  0  0  0
  149.4748  138.4955  153.5674 N   0  3  0  0  0  0  0  0  0  0  0  0
  150.6891  138.3973  154.1888 C   0  0  0  0  0  0  0  0  0  0  0  0
  150.8161  139.5174  154.9661 C   0  0  0  0  0  0  0  0  0  0  0  0
  149.6730  140.2554  154.7868 N   0  0  0  0  0  0  0  0  0  0  0  0
  149.3669  141.5397  155.4362 C   0  0  0  0  0  0  0  0  0  0  0  0
  150.3583  141.8828  156.5547 C   0  0  0  0  0  0  0  0  0  0  0  0
  150.7723  140.9872  157.2948 O   0  0  0  0  0  0  0  0  0  0  0  0
  150.7039  143.1889  156.6261 N   0  0  0  0  0  0  0  0  0  0  0  0
  151.5647  143.8394  157.4447 C   0  0  0  0  0  0  0  0  0  0  0  0
  151.8397  145.0212  157.2449 O   0  0  0  0  0  0  0  0  0  0  0  0
  152.0972  143.1347  158.4604 N   0  0  0  0  0  0  0  0  0  0  0  0
  152.8180  143.6784  159.5654 C   0  0  0  0  0  0  0  0  0  0  0  0
  152.2920  143.3911  160.9549 C   0  0  0  0  0  0  0  0  0  0  0  0
  152.1464  144.7692  160.3711 C   0  0  0  0  0  0  0  0  0  0  0  0
  146.9414  141.0270  155.3215 H   0  0  0  0  0  0  0  0  0  0  0  0
  146.3948  139.3564  155.1995 H   0  0  0  0  0  0  0  0  0  0  0  0
  145.5683  140.6242  154.2985 H   0  0  0  0  0  0  0  0  0  0  0  0
  147.6219  141.0104  152.9365 H   0  0  0  0  0  0  0  0  0  0  0  0
  147.5574  138.9588  151.5659 H   0  0  0  0  0  0  0  0  0  0  0  0
  145.9366  139.4317  152.0559 H   0  0  0  0  0  0  0  0  0  0  0  0
  146.7377  138.0887  152.8621 H   0  0  0  0  0  0  0  0  0  0  0  0
  151.3524  137.5578  154.0386 H   0  0  0  0  0  0  0  0  0  0  0  0
  151.6154  139.8355  155.6198 H   0  0  0  0  0  0  0  0  0  0  0  0
  149.3480  142.3177  154.6717 H   0  0  0  0  0  0  0  0  0  0  0  0
  148.3621  141.4777  155.8557 H   0  0  0  0  0  0  0  0  0  0  0  0
  150.2461  143.7846  155.9517 H   0  0  0  0  0  0  0  0  0  0  0  0
  151.9821  142.1311  158.4461 H   0  0  0  0  0  0  0  0  0  0  0  0
  153.9002  143.7555  159.4689 H   0  0  0  0  0  0  0  0  0  0  0  0
  151.3914  142.7864  161.0444 H   0  0  0  0  0  0  0  0  0  0  0  0
  153.0232  143.2562  161.7496 H   0  0  0  0  0  0  0  0  0  0  0  0
  152.7800  145.5555  160.7763 H   0  0  0  0  0  0  0  0  0  0  0  0
  151.1483  145.0839  160.0716 H   0  0  0  0  0  0  0  0  0  0  0  0
  149.0931  137.8075  152.9304 H   0  0  0  0  0  0  0  0  0  0  0  0
  1  2  1  0  0  0  0
  1 19  1  0  0  0  0
  1 20  1  0  0  0  0
  1 21  1  0  0  0  0
  2  3  1  0  0  0  0
  2  4  1  0  0  0  0
  2 22  1  0  0  0  0
  3 23  1  0  0  0  0
  3 24  1  0  0  0  0
  3 25  1  0  0  0  0
  4  8  1  0  0  0  0
  4  5  2  0  0  0  0
  5  6  1  0  0  0  0
  5 37  1  0  0  0  0
  6  7  2  0  0  0  0
  6 26  1  0  0  0  0
  7  8  1  0  0  0  0
  7 27  1  0  0  0  0
  8  9  1  0  0  0  0
  9 10  1  0  0  0  0
  9 28  1  0  0  0  0
  9 29  1  0  0  0  0
 10 11  2  0  0  0  0
 10 12  1  0  0  0  0
 12 13  1  0  0  0  0
 12 30  1  0  0  0  0
 13 14  2  0  0  0  0
 13 15  1  0  0  0  0
 15 16  1  0  0  0  0
 15 31  1  0  0  0  0
 16 18  1  0  0  0  0
 16 17  1  0  0  0  0
 16 32  1  0  0  0  0
 17 18  1  0  0  0  0
 17 33  1  0  0  0  0
 17 34  1  0  0  0  0
 18 35  1  0  0  0  0
 18 36  1  0  0  0  0
M  CHG  1   5   1
M  END
> <s_m_source_file>
AV-unprocessed.smi

> <i_m_source_file_index>
2503

> <i_lp_mmshare_version>
43012

> <i_f3d_flags>
0

> <s_epik_input>
W0NIM11bQ0hdKFtDSDNdKWMxbltjSF1bY0hdbjFbQ0gyXUMoPU8pW05IXUMoPU8pW05IXVtDSF0yW0NIMl1bQ0gyXTI=

> <s_epik_cmdline>
J2VwaWtfcHl0aG9uJywgJy1waCcsICc3LjAnLCAnLXRuJywgJzgnLCAnLW1hJywgJzIwMCcsICctbWV0YWxfYmluZGluZycsICctaW1hZScsICc8aW5maWxlLm1hZT4nLCAnLW9tYWUnLCAnPG91dGZpbGUubWFlPic=

> <r_lp_tautomer_probability>
1

> <r_epik_Ionization_Penalty>
0.381304

> <r_epik_Ionization_Penalty_Charging>
0

> <r_epik_Ionization_Penalty_Neutral>
0.381304

> <r_epik_State_Penalty>
0.37936

> <r_epik_Charging_Adjusted_Penalty>
0.37936

> <i_epik_Tot_Q>
1

> <i_epik_Tot_abs_Q>
1

> <r_epik_Metal_State_Penalty>
0.628559

> <b_epik_Metal_Only>
0

> <s_lp_Force_Field>
OPLS_2005

> <r_lp_Energy>
25.6891

> <b_lp_Chiralities_Consistent>
1

> <s_lp_Variant>
AV-unprocessed.smi:2503-1

> <Gold.Version>
5.8.1

> <Gold.Id.Protein>
6NUR|6NUR_protein|mol2

> <Gold.PLP.Fitness>
46.0186

> <Gold.PLP.PLP>
-37.8346

> <Gold.PLP.part.hbond>
-3.0000

> <Gold.PLP.part.metal>
0.0000

> <Gold.PLP.part.buried>
-1.4342

> <Gold.PLP.part.nonpolar>
-32.9653

> <Gold.PLP.part.repulsive>
0.2944

> <Gold.PLP.ligand.clash>
0.0000

> <Gold.PLP.ligand.torsion>
0.4865

> <Gold.PLP.Chemscore.Hbond>
3.0000

> <Gold.PLP.Chemscore.CHOScore>
0.0000

> <Gold.PLP.Chemscore.Metal>
0.0000

> <Gold.Chemscore.Hbonds>
donor molecule, donor type, donor heavy atom, donor atom, acceptor molecule, acceptor atom, score
      L1  H     5    37       P1  7948  2.00
      L1  H    12    30       P1  8028  0.90

> <Gold.PLP.Chemscore.Internal.Correction>
0.1571

> <Gold.Rescore>
     Score         DG    S(hbond)    S(metal)    S(lipo)     H(rot)  DE(clash)    DE(int)     intcor
     14.02     -15.69       1.93        0.00      71.98       1.82       0.33       1.35       ----

> <Gold.Chemscore.Fitness>
14.0154

> <Gold.Chemscore.DG>
-15.6900

> <Gold.Chemscore.ZeroCoef>
-5.4800

> <Gold.Chemscore.Hbond>
1.9318

> <Gold.Chemscore.Metal>
0.0000

> <Gold.Chemscore.Lipo>
71.9842

> <Gold.Chemscore.Internal_Hbond>
0.0000

> <Gold.Chemscore.DEClash>
0.3255

> <Gold.Chemscore.DEInternal>
1.3491

> <Gold.Chemscore.Rot>
1.8220

> <Gold.Chemscore.Internal.Correction>
   9.000000E+99

> <Gold.Chemscore.Hbonds>
donor molecule, donor type, donor heavy atom, donor atom, acceptor molecule, acceptor atom, score
      L1  H     5    37       P1  7948  0.99
      L1  H    12    30       P1  8028  0.88

> <Gold.Chemscore.Hbond.Weighted>
-6.4522

> <Gold.Chemscore.Metal.Weighted>
-0.0000

> <Gold.Chemscore.Lipo.Weighted>
-8.4222

> <Gold.Chemscore.Internal_Hbond.Weighted>
0.0000

> <Gold.Chemscore.DEClash.Weighted>
0.3255

> <Gold.Chemscore.DEInternal.Weighted>
1.3491

> <Gold.Chemscore.Rot.Weighted>
4.6643

> <Gold.Chemscore.Internal.Correction.Weighted>
   9.000000E+99

> <Gold.Protein.RotatedTorsions>
[ 6907 6896 6895 6894 ] final  127.15 input  -60.11 | X-H torsion
[ 7974 7965 7964 7962 ] final -154.16 input  175.53 | X-H torsion
[ 8008 7997 7996 7995 ] final   45.65 input   59.86 | X-H torsion
[ 10167 10162 10161 10158 ] final   54.80 input  -65.29 | X-H torsion
[ 10718 10713 10712 10709 ] final -151.52 input   66.30 | X-H torsion
[ 10763 10752 10751 10750 ] final -173.20 input  -60.55 | X-H torsion
[ 11005 11000 10999 10996 ] final   45.63 input  -57.11 | X-H torsion

> <Gold.Protein.ActiveResidues>
 VAL166  LYS551  ARG553  GLY616  TRP617  ASP618  TYR619  PRO620  LYS621  CYS622 
 ASP623  PHE694  ASN695  SER759  ASP760  ASP761  ALA762  ILE779  LEU786  VAL792 
 PHE793  MET794  SER795  GLU796  ALA797  LYS798  CYS799  TRP800  GLU811  SER814 

> <Gold.Protein.RotatedAtoms>
  152.3839  133.6584  159.6182 H   0  0  0  0  0  0  0  0  0  0  0  0  # atno 6907 bound_to 6896
  150.7763  133.9068  159.3366 H   0  0  0  0  0  0  0  0  0  0  0  0  # atno 6908 bound_to 6896
  151.6868  135.0954  160.0277 H   0  0  0  0  0  0  0  0  0  0  0  0  # atno 6909 bound_to 6896
  144.7703  140.4426  143.5912 H   0  0  0  0  0  0  0  0  0  0  0  0  # atno 7974 bound_to 7965
  155.3394  140.3407  155.4239 H   0  0  0  0  0  0  0  0  0  0  0  0  # atno 8008 bound_to 7997
  156.1821  140.1667  156.8291 H   0  0  0  0  0  0  0  0  0  0  0  0  # atno 8009 bound_to 7997
  154.5345  140.0738  156.8386 H   0  0  0  0  0  0  0  0  0  0  0  0  # atno 8010 bound_to 7997
  140.2262  144.3736  150.6431 H   0  0  0  0  0  0  0  0  0  0  0  0  # atno 10167 bound_to 10162
  156.4604  130.8210  151.2441 H   0  0  0  0  0  0  0  0  0  0  0  0  # atno 10718 bound_to 10713
  154.6106  135.2864  155.0436 H   0  0  0  0  0  0  0  0  0  0  0  0  # atno 10763 bound_to 10752
  154.1668  135.6479  153.5003 H   0  0  0  0  0  0  0  0  0  0  0  0  # atno 10764 bound_to 10752
  153.0193  135.5391  154.6858 H   0  0  0  0  0  0  0  0  0  0  0  0  # atno 10765 bound_to 10752
  140.1442  134.4544  155.8428 H   0  0  0  0  0  0  0  0  0  0  0  0  # atno 11005 bound_to 11000
  145.6344  139.1541  143.2951 LP  0  0  0  0  0  0  0  0  0  0  0  0  # atno 17320 bound_to 7965
  146.1844  140.6445  142.9174 LP  0  0  0  0  0  0  0  0  0  0  0  0  # atno 17321 bound_to 7965
  140.6219  143.2177  151.6677 LP  0  0  0  0  0  0  0  0  0  0  0  0  # atno 17342 bound_to 10162
  139.5126  144.3470  152.0688 LP  0  0  0  0  0  0  0  0  0  0  0  0  # atno 17343 bound_to 10162
  157.7498  131.0109  150.3324 LP  0  0  0  0  0  0  0  0  0  0  0  0  # atno 17370 bound_to 10713
  156.3723  130.3865  149.7166 LP  0  0  0  0  0  0  0  0  0  0  0  0  # atno 17371 bound_to 10713
  141.2190  133.6845  156.7302 LP  0  0  0  0  0  0  0  0  0  0  0  0  # atno 17394 bound_to 11000
  140.2684  134.8411  157.3825 LP  0  0  0  0  0  0  0  0  0  0  0  0  # atno 17395 bound_to 11000

$$$$
