AV-unprocessed.smi:1920|AV-procd|sdf|7784|dock8
  -GOLD-   22720 9533D 1   1.00000     0.00000
 Structure written by MMmdl.
 36 37  0  0  0  0  0  0  0  0  1 V2000
  146.8037  142.2490  154.6291 C   0  0  0  0  0  0  0  0  0  0  0  0
  147.9287  141.3638  155.1819 C   0  0  1  0  0  0  0  0  0  0  0  0
  148.8908  140.9117  154.0644 C   0  0  0  0  0  0  0  0  0  0  0  0
  149.8206  139.8871  154.5049 N   0  0  0  0  0  0  0  0  0  0  0  0
  150.0727  138.6645  153.8964 C   0  0  0  0  0  0  0  0  0  0  0  0
  151.0248  138.0325  154.6638 C   0  0  0  0  0  0  0  0  0  0  0  0
  151.3775  138.8460  155.7381 N   0  0  0  0  0  0  0  0  0  0  0  0
  150.6247  139.9265  155.5764 C   0  0  0  0  0  0  0  0  0  0  0  0
  148.6543  142.1025  156.2146 N   0  0  0  0  0  0  0  0  0  0  0  0
  148.8899  141.6780  157.4663 C   0  0  0  0  0  0  0  0  0  0  0  0
  148.4805  140.6041  157.9080 O   0  0  0  0  0  0  0  0  0  0  0  0
  149.7251  142.6117  158.3503 C   0  0  0  0  0  0  0  0  0  0  0  0
  151.1928  142.7687  157.8923 C   0  0  1  0  0  0  0  0  0  0  0  0
  151.6596  144.2035  157.8363 C   0  0  0  0  0  0  0  0  0  0  0  0
  152.7491  144.4213  158.5684 C   0  0  0  0  0  0  0  0  0  0  0  0
  153.2338  143.1793  159.2627 C   0  0  0  0  0  0  0  0  0  0  0  0
  152.2042  142.0998  158.8589 C   0  0  0  0  0  0  0  0  0  0  0  0
  146.2255  141.7195  153.8713 H   0  0  0  0  0  0  0  0  0  0  0  0
  147.1988  143.1568  154.1716 H   0  0  0  0  0  0  0  0  0  0  0  0
  146.1136  142.5466  155.4196 H   0  0  0  0  0  0  0  0  0  0  0  0
  147.4578  140.4780  155.6118 H   0  0  0  0  0  0  0  0  0  0  0  0
  148.3256  140.5084  153.2233 H   0  0  0  0  0  0  0  0  0  0  0  0
  149.4578  141.7614  153.6806 H   0  0  0  0  0  0  0  0  0  0  0  0
  149.5641  138.3518  152.9963 H   0  0  0  0  0  0  0  0  0  0  0  0
  151.4807  137.0632  154.5256 H   0  0  0  0  0  0  0  0  0  0  0  0
  150.6565  140.7649  156.2570 H   0  0  0  0  0  0  0  0  0  0  0  0
  149.0296  143.0009  155.9472 H   0  0  0  0  0  0  0  0  0  0  0  0
  149.2491  143.5932  158.3835 H   0  0  0  0  0  0  0  0  0  0  0  0
  149.6996  142.2228  159.3687 H   0  0  0  0  0  0  0  0  0  0  0  0
  151.3142  142.3437  156.8947 H   0  0  0  0  0  0  0  0  0  0  0  0
  151.1552  144.9509  157.2424 H   0  0  0  0  0  0  0  0  0  0  0  0
  153.2559  145.3704  158.6630 H   0  0  0  0  0  0  0  0  0  0  0  0
  154.2387  142.9274  158.9221 H   0  0  0  0  0  0  0  0  0  0  0  0
  153.2586  143.3322  160.3419 H   0  0  0  0  0  0  0  0  0  0  0  0
  151.7058  141.7099  159.7474 H   0  0  0  0  0  0  0  0  0  0  0  0
  152.6975  141.2545  158.3777 H   0  0  0  0  0  0  0  0  0  0  0  0
  1  2  1  0  0  0  0
  1 18  1  0  0  0  0
  1 19  1  0  0  0  0
  1 20  1  0  0  0  0
  2  3  1  0  0  0  0
  2  9  1  0  0  0  0
  2 21  1  0  0  0  0
  3  4  1  0  0  0  0
  3 22  1  0  0  0  0
  3 23  1  0  0  0  0
  4  8  1  0  0  0  0
  4  5  1  0  0  0  0
  5  6  2  0  0  0  0
  5 24  1  0  0  0  0
  6  7  1  0  0  0  0
  6 25  1  0  0  0  0
  7  8  2  0  0  0  0
  8 26  1  0  0  0  0
  9 10  1  0  0  0  0
  9 27  1  0  0  0  0
 10 11  2  0  0  0  0
 10 12  1  0  0  0  0
 12 13  1  0  0  0  0
 12 28  1  0  0  0  0
 12 29  1  0  0  0  0
 13 17  1  0  0  0  0
 13 14  1  0  0  0  0
 13 30  1  0  0  0  0
 14 15  2  0  0  0  0
 14 31  1  0  0  0  0
 15 16  1  0  0  0  0
 15 32  1  0  0  0  0
 16 17  1  0  0  0  0
 16 33  1  0  0  0  0
 16 34  1  0  0  0  0
 17 35  1  0  0  0  0
 17 36  1  0  0  0  0
M  END
> <s_m_source_file>
AV-unprocessed.smi

> <i_m_source_file_index>
1920

> <i_lp_mmshare_version>
43012

> <i_f3d_flags>
0

> <s_epik_input>
W2NIXTFuW2NIXVtjSF1uMVtDSDJdW0NAQEhdKFtDSDNdKVtOSF1DKD1PKVtDSDJdW0NAQEhdMltDSF09W0NIXVtDSDJdW0NIMl0y

> <s_epik_cmdline>
J2VwaWtfcHl0aG9uJywgJy1waCcsICc3LjAnLCAnLXRuJywgJzgnLCAnLW1hJywgJzIwMCcsICctbWV0YWxfYmluZGluZycsICctaW1hZScsICc8aW5maWxlLm1hZT4nLCAnLW9tYWUnLCAnPG91dGZpbGUubWFlPic=

> <r_lp_tautomer_probability>
1

> <r_epik_Ionization_Penalty>
0.635367

> <r_epik_Ionization_Penalty_Charging>
0.635367

> <r_epik_Ionization_Penalty_Neutral>
2.1249e-08

> <r_epik_State_Penalty>
0.65258

> <r_epik_Charging_Adjusted_Penalty>
1.28795

> <i_epik_Tot_Q>
0

> <i_epik_Tot_abs_Q>
0

> <r_epik_Metal_State_Penalty>
0.310403

> <b_epik_Metal_Only>
0

> <s_lp_Force_Field>
OPLS_2005

> <r_lp_Energy>
18.2419

> <b_lp_Chiralities_Consistent>
1

> <s_lp_Variant>
AV-unprocessed.smi:1920-8

> <Gold.Version>
5.8.1

> <Gold.Id.Protein>
6NUR|6NUR_protein|mol2

> <Gold.PLP.Fitness>
46.8308

> <Gold.PLP.PLP>
-40.4942

> <Gold.PLP.part.hbond>
-1.1530

> <Gold.PLP.part.metal>
0.0000

> <Gold.PLP.part.buried>
-2.8137

> <Gold.PLP.part.nonpolar>
-36.5797

> <Gold.PLP.part.repulsive>
0.0639

> <Gold.PLP.ligand.clash>
0.0000

> <Gold.PLP.ligand.torsion>
0.9075

> <Gold.PLP.Chemscore.Hbond>
1.0000

> <Gold.PLP.Chemscore.CHOScore>
1.7078

> <Gold.PLP.Chemscore.Metal>
0.0000

> <Gold.Chemscore.Hbonds>
donor molecule, donor type, donor heavy atom, donor atom, acceptor molecule, acceptor atom, score
      L1  H     9    27       P1  8028  1.00
      L1  C     5    24       P1  7948  1.00
      L1  C     5    24       P1  7957  0.70

> <Gold.PLP.Chemscore.Internal.Correction>
0.0283

> <Gold.Rescore>
     Score         DG    S(hbond)    S(metal)    S(lipo)     H(rot)  DE(clash)    DE(int)     intcor
     14.93     -15.57       0.99        0.00     100.17       1.93       0.04       0.60       ----

> <Gold.Chemscore.Fitness>
14.9270

> <Gold.Chemscore.DG>
-15.5673

> <Gold.Chemscore.ZeroCoef>
-5.4800

> <Gold.Chemscore.Hbond>
0.9910

> <Gold.Chemscore.Metal>
0.0000

> <Gold.Chemscore.Lipo>
100.1698

> <Gold.Chemscore.Internal_Hbond>
0.0000

> <Gold.Chemscore.DEClash>
0.0444

> <Gold.Chemscore.DEInternal>
0.5959

> <Gold.Chemscore.Rot>
1.9306

> <Gold.Chemscore.Internal.Correction>
   9.000000E+99

> <Gold.Chemscore.Hbonds>
donor molecule, donor type, donor heavy atom, donor atom, acceptor molecule, acceptor atom, score
      L1  H     9    27       P1  8028  0.96

> <Gold.Chemscore.Hbond.Weighted>
-3.3099

> <Gold.Chemscore.Metal.Weighted>
-0.0000

> <Gold.Chemscore.Lipo.Weighted>
-11.7199

> <Gold.Chemscore.Internal_Hbond.Weighted>
0.0000

> <Gold.Chemscore.DEClash.Weighted>
0.0444

> <Gold.Chemscore.DEInternal.Weighted>
0.5959

> <Gold.Chemscore.Rot.Weighted>
4.9424

> <Gold.Chemscore.Internal.Correction.Weighted>
   9.000000E+99

> <Gold.Protein.RotatedTorsions>
[ 6907 6896 6895 6894 ] final -131.47 input  -60.11 | X-H torsion
[ 7974 7965 7964 7962 ] final  -98.06 input  175.53 | X-H torsion
[ 8008 7997 7996 7995 ] final -174.18 input   59.86 | X-H torsion
[ 10167 10162 10161 10158 ] final  159.21 input  -65.29 | X-H torsion
[ 10718 10713 10712 10709 ] final  -17.68 input   66.30 | X-H torsion
[ 10763 10752 10751 10750 ] final  -57.80 input  -60.55 | X-H torsion
[ 11005 11000 10999 10996 ] final -154.69 input  -57.11 | X-H torsion

> <Gold.Protein.ActiveResidues>
 VAL166  LYS551  ARG553  GLY616  TRP617  ASP618  TYR619  PRO620  LYS621  CYS622 
 ASP623  PHE694  ASN695  SER759  ASP760  ASP761  ALA762  ILE779  LEU786  VAL792 
 PHE793  MET794  SER795  GLU796  ALA797  LYS798  CYS799  TRP800  GLU811  SER814 

> <Gold.Protein.RotatedAtoms>
  150.9514  133.6545  159.2771 H   0  0  0  0  0  0  0  0  0  0  0  0  # atno 6907 bound_to 6896
  151.3900  135.0953  159.9533 H   0  0  0  0  0  0  0  0  0  0  0  0  # atno 6908 bound_to 6896
  152.5111  133.9030  159.7505 H   0  0  0  0  0  0  0  0  0  0  0  0  # atno 6909 bound_to 6896
  145.3255  140.9431  143.2691 H   0  0  0  0  0  0  0  0  0  0  0  0  # atno 7974 bound_to 7965
  155.9669  140.1155  157.0847 H   0  0  0  0  0  0  0  0  0  0  0  0  # atno 8008 bound_to 7997
  154.4146  140.1171  156.5321 H   0  0  0  0  0  0  0  0  0  0  0  0  # atno 8009 bound_to 7997
  155.6647  140.3473  155.4798 H   0  0  0  0  0  0  0  0  0  0  0  0  # atno 8010 bound_to 7997
  139.4831  144.4752  151.8521 H   0  0  0  0  0  0  0  0  0  0  0  0  # atno 10167 bound_to 10162
  156.5702  130.4747  149.6366 H   0  0  0  0  0  0  0  0  0  0  0  0  # atno 10718 bound_to 10713
  154.2281  135.6365  153.5166 H   0  0  0  0  0  0  0  0  0  0  0  0  # atno 10763 bound_to 10752
  152.9954  135.5513  154.6042 H   0  0  0  0  0  0  0  0  0  0  0  0  # atno 10764 bound_to 10752
  154.5518  135.2902  155.0975 H   0  0  0  0  0  0  0  0  0  0  0  0  # atno 10765 bound_to 10752
  140.6945  134.4004  157.5216 H   0  0  0  0  0  0  0  0  0  0  0  0  # atno 11005 bound_to 11000
  144.8905  139.4781  143.6680 LP  0  0  0  0  0  0  0  0  0  0  0  0  # atno 17320 bound_to 7965
  146.3066  139.7600  142.9052 LP  0  0  0  0  0  0  0  0  0  0  0  0  # atno 17321 bound_to 7965
  140.4223  144.2226  150.5887 LP  0  0  0  0  0  0  0  0  0  0  0  0  # atno 17342 bound_to 10162
  140.4861  143.2363  151.8886 LP  0  0  0  0  0  0  0  0  0  0  0  0  # atno 17343 bound_to 10162
  156.2721  130.7023  151.1823 LP  0  0  0  0  0  0  0  0  0  0  0  0  # atno 17370 bound_to 10713
  157.7350  131.0577  150.5495 LP  0  0  0  0  0  0  0  0  0  0  0  0  # atno 17371 bound_to 10713
  139.8914  134.8781  156.2322 LP  0  0  0  0  0  0  0  0  0  0  0  0  # atno 17394 bound_to 11000
  141.0214  133.7039  156.1274 LP  0  0  0  0  0  0  0  0  0  0  0  0  # atno 17395 bound_to 11000

$$$$
