AV-unprocessed.smi:193|AV-procd|sdf|1513|dock8
  -GOLD-   2262019343D 1   1.00000     0.00000
 Structure written by MMmdl.
 61 65  0  0  0  0  0  0  0  0  1 V2000
  148.7270  140.1785  155.6126 C   0  0  0  0  0  0  0  0  0  0  0  0
  149.2202  140.4478  157.0416 C   0  0  1  0  0  0  0  0  0  0  0  0
  148.9383  139.2492  157.9739 C   0  0  0  0  0  0  0  0  0  0  0  0
  150.0128  138.2596  158.0411 N   0  0  0  0  0  0  0  0  0  0  0  0
  149.5391  136.9879  158.0782 C   0  0  0  0  0  0  0  0  0  0  0  0
  149.6499  136.1829  156.9868 N   0  0  0  0  0  0  0  0  0  0  0  0
  149.2146  134.9204  157.0329 C   0  0  0  0  0  0  0  0  0  0  0  0
  148.6498  134.2693  158.0512 N   0  0  0  0  0  0  0  0  0  0  0  0
  148.5332  135.0716  159.1478 C   0  0  0  0  0  0  0  0  0  0  0  0
  148.9517  136.4287  159.2469 C   0  0  0  0  0  0  0  0  0  0  0  0
  148.6768  136.9171  160.5177 N   0  0  0  0  0  0  0  0  0  0  0  0
  148.1296  135.9068  161.1360 C   0  0  0  0  0  0  0  0  0  0  0  0
  147.9964  134.7604  160.3852 N   0  0  0  0  0  0  0  0  0  0  0  0
  147.4227  133.4968  160.8227 C   0  0  0  0  0  0  0  0  0  0  0  0
  145.9288  133.5852  161.2241 C   0  0  0  0  0  0  0  0  0  0  0  0
  145.5229  132.3018  161.6662 O   0  0  0  0  0  0  0  0  0  0  0  0
  145.7443  134.5799  162.3881 C   0  0  0  0  0  0  0  0  0  0  0  0
  144.2602  134.8274  162.7114 C   0  0  0  0  0  0  0  0  0  0  0  0
  143.5736  135.2625  161.5441 O   0  0  0  0  0  0  0  0  0  0  0  0
  143.5756  134.2867  160.5093 C   0  0  0  0  0  0  0  0  0  0  0  0
  145.0172  134.0046  160.0499 C   0  0  0  0  0  0  0  0  0  0  0  0
  151.0825  138.5827  158.9872 C   0  0  0  0  0  0  0  0  0  0  0  0
  152.0211  139.6948  158.4979 C   0  0  0  0  0  0  0  0  0  0  0  0
  151.3385  140.9761  158.3106 N   0  0  0  0  0  0  0  0  0  0  0  0
  152.3534  142.0189  158.2934 C   0  0  2  0  0  0  0  0  0  0  0  0
  153.0773  142.3094  159.5888 C   0  0  0  0  0  0  0  0  0  0  0  0
  152.0570  143.2900  159.0602 C   0  0  1  0  0  0  0  0  0  0  0  0
  152.4881  144.6351  158.5181 C   0  0  0  0  0  0  0  0  0  0  0  0
  150.6701  140.9780  157.0082 C   0  0  0  0  0  0  0  0  0  0  0  0
  149.3173  139.3988  155.1318 H   0  0  0  0  0  0  0  0  0  0  0  0
  148.8032  141.0755  154.9973 H   0  0  0  0  0  0  0  0  0  0  0  0
  147.6832  139.8627  155.6042 H   0  0  0  0  0  0  0  0  0  0  0  0
  148.6007  141.2601  157.4240 H   0  0  0  0  0  0  0  0  0  0  0  0
  148.7810  139.6305  158.9838 H   0  0  0  0  0  0  0  0  0  0  0  0
  147.9871  138.7898  157.6998 H   0  0  0  0  0  0  0  0  0  0  0  0
  149.3401  134.3492  156.1250 H   0  0  0  0  0  0  0  0  0  0  0  0
  147.7991  135.9724  162.1624 H   0  0  0  0  0  0  0  0  0  0  0  0
  147.5613  132.7623  160.0277 H   0  0  0  0  0  0  0  0  0  0  0  0
  148.0127  133.1406  161.6680 H   0  0  0  0  0  0  0  0  0  0  0  0
  145.8285  131.6588  161.0450 H   0  0  0  0  0  0  0  0  0  0  0  0
  146.2686  134.2293  163.2780 H   0  0  0  0  0  0  0  0  0  0  0  0
  146.2003  135.5345  162.1223 H   0  0  0  0  0  0  0  0  0  0  0  0
  143.7884  133.9288  163.1119 H   0  0  0  0  0  0  0  0  0  0  0  0
  144.1702  135.5978  163.4773 H   0  0  0  0  0  0  0  0  0  0  0  0
  143.0861  133.3741  160.8530 H   0  0  0  0  0  0  0  0  0  0  0  0
  142.9862  134.6625  159.6728 H   0  0  0  0  0  0  0  0  0  0  0  0
  145.4183  134.9082  159.5891 H   0  0  0  0  0  0  0  0  0  0  0  0
  145.0075  133.2407  159.2715 H   0  0  0  0  0  0  0  0  0  0  0  0
  150.6503  138.8577  159.9504 H   0  0  0  0  0  0  0  0  0  0  0  0
  151.6942  137.6972  159.1664 H   0  0  0  0  0  0  0  0  0  0  0  0
  152.7849  139.8183  159.2670 H   0  0  0  0  0  0  0  0  0  0  0  0
  152.5556  139.3893  157.5971 H   0  0  0  0  0  0  0  0  0  0  0  0
  152.9506  142.1459  157.3917 H   0  0  0  0  0  0  0  0  0  0  0  0
  152.8043  141.7270  160.4669 H   0  0  0  0  0  0  0  0  0  0  0  0
  154.1283  142.5829  159.5220 H   0  0  0  0  0  0  0  0  0  0  0  0
  151.1084  143.3212  159.5936 H   0  0  0  0  0  0  0  0  0  0  0  0
  153.4462  144.5576  158.0035 H   0  0  0  0  0  0  0  0  0  0  0  0
  152.5873  145.3519  159.3332 H   0  0  0  0  0  0  0  0  0  0  0  0
  151.7446  145.0089  157.8141 H   0  0  0  0  0  0  0  0  0  0  0  0
  151.2640  140.4306  156.2744 H   0  0  0  0  0  0  0  0  0  0  0  0
  150.6198  142.0000  156.6283 H   0  0  0  0  0  0  0  0  0  0  0  0
  1  2  1  0  0  0  0
  1 30  1  0  0  0  0
  1 31  1  0  0  0  0
  1 32  1  0  0  0  0
  2 29  1  0  0  0  0
  2  3  1  0  0  0  0
  2 33  1  0  0  0  0
  3  4  1  0  0  0  0
  3 34  1  0  0  0  0
  3 35  1  0  0  0  0
  4  5  1  0  0  0  0
  4 22  1  0  0  0  0
  5 10  1  0  0  0  0
  5  6  2  0  0  0  0
  6  7  1  0  0  0  0
  7  8  2  0  0  0  0
  7 36  1  0  0  0  0
  8  9  1  0  0  0  0
  9 13  1  0  0  0  0
  9 10  2  0  0  0  0
 10 11  1  0  0  0  0
 11 12  2  0  0  0  0
 12 13  1  0  0  0  0
 12 37  1  0  0  0  0
 13 14  1  0  0  0  0
 14 15  1  0  0  0  0
 14 38  1  0  0  0  0
 14 39  1  0  0  0  0
 15 21  1  0  0  0  0
 15 16  1  0  0  0  0
 15 17  1  0  0  0  0
 16 40  1  0  0  0  0
 17 18  1  0  0  0  0
 17 41  1  0  0  0  0
 17 42  1  0  0  0  0
 18 19  1  0  0  0  0
 18 43  1  0  0  0  0
 18 44  1  0  0  0  0
 19 20  1  0  0  0  0
 20 21  1  0  0  0  0
 20 45  1  0  0  0  0
 20 46  1  0  0  0  0
 21 47  1  0  0  0  0
 21 48  1  0  0  0  0
 22 23  1  0  0  0  0
 22 49  1  0  0  0  0
 22 50  1  0  0  0  0
 23 24  1  0  0  0  0
 23 51  1  0  0  0  0
 23 52  1  0  0  0  0
 24 25  1  0  0  0  0
 24 29  1  0  0  0  0
 25 27  1  0  0  0  0
 25 26  1  0  0  0  0
 25 53  1  0  0  0  0
 26 27  1  0  0  0  0
 26 54  1  0  0  0  0
 26 55  1  0  0  0  0
 27 28  1  0  0  0  0
 27 56  1  0  0  0  0
 28 57  1  0  0  0  0
 28 58  1  0  0  0  0
 28 59  1  0  0  0  0
 29 60  1  0  0  0  0
 29 61  1  0  0  0  0
M  END
> <s_m_source_file>
AV-unprocessed.smi

> <i_m_source_file_index>
193

> <i_lp_mmshare_version>
43012

> <i_f3d_flags>
0

> <s_epik_input>
W0NIM11bQ0BASF0xW0NIMl1bQ0BIXTFOKFtDSDJdMilbQ0gyXVtDSDJdTihbQ0gyXVtDQEhdMltDSDNdKWMobltjSF1uMyljKGMzNCluW2NIXW40W0NIMl1DNShbT0hdKVtDSDJdW0NIMl1PW0NIMl1bQ0gyXTU=

> <s_epik_cmdline>
J2VwaWtfcHl0aG9uJywgJy1waCcsICc3LjAnLCAnLXRuJywgJzgnLCAnLW1hJywgJzIwMCcsICctbWV0YWxfYmluZGluZycsICctaW1hZScsICc8aW5maWxlLm1hZT4nLCAnLW9tYWUnLCAnPG91dGZpbGUubWFlPic=

> <r_lp_tautomer_probability>
1

> <r_epik_Ionization_Penalty>
1.45227

> <r_epik_Ionization_Penalty_Charging>
0

> <r_epik_Ionization_Penalty_Neutral>
1.45227

> <r_epik_State_Penalty>
2.02377

> <r_epik_Charging_Adjusted_Penalty>
2.02377

> <i_epik_Tot_Q>
0

> <i_epik_Tot_abs_Q>
0

> <r_epik_Metal_State_Penalty>
2.01937

> <b_epik_Metal_Only>
0

> <s_lp_Force_Field>
OPLS_2005

> <r_lp_Energy>
55.7491

> <b_lp_Chiralities_Consistent>
1

> <s_lp_Variant>
AV-unprocessed.smi:193-18

> <Gold.Version>
5.8.1

> <Gold.Id.Protein>
6NUR|6NUR_protein|mol2

> <Gold.PLP.Fitness>
43.2601

> <Gold.PLP.PLP>
-40.0915

> <Gold.PLP.part.hbond>
-2.0681

> <Gold.PLP.part.metal>
0.0000

> <Gold.PLP.part.buried>
-5.3876

> <Gold.PLP.part.nonpolar>
-32.2907

> <Gold.PLP.part.repulsive>
0.0049

> <Gold.PLP.ligand.clash>
0.0000

> <Gold.PLP.ligand.torsion>
0.8310

> <Gold.PLP.Chemscore.Hbond>
1.1407

> <Gold.PLP.Chemscore.CHOScore>
0.0000

> <Gold.PLP.Chemscore.Metal>
0.0000

> <Gold.Chemscore.Hbonds>
donor molecule, donor type, donor heavy atom, donor atom, acceptor molecule, acceptor atom, score
      P1  H  6931  6943       L1    11  0.82

> <Gold.PLP.Chemscore.Internal.Correction>
1.4085

> <Gold.Rescore>
     Score         DG    S(hbond)    S(metal)    S(lipo)     H(rot)  DE(clash)    DE(int)     intcor
     13.04     -14.95       0.84        0.00     104.22       2.17       0.18       1.73       ----

> <Gold.Chemscore.Fitness>
13.0369

> <Gold.Chemscore.DG>
-14.9463

> <Gold.Chemscore.ZeroCoef>
-5.4800

> <Gold.Chemscore.Hbond>
0.8440

> <Gold.Chemscore.Metal>
0.0000

> <Gold.Chemscore.Lipo>
104.2175

> <Gold.Chemscore.Internal_Hbond>
0.0000

> <Gold.Chemscore.DEClash>
0.1828

> <Gold.Chemscore.DEInternal>
1.7266

> <Gold.Chemscore.Rot>
2.1664

> <Gold.Chemscore.Internal.Correction>
   9.000000E+99

> <Gold.Chemscore.Hbonds>
donor molecule, donor type, donor heavy atom, donor atom, acceptor molecule, acceptor atom, score
      P1  H  6931  6943       L1    11  0.45

> <Gold.Chemscore.Hbond.Weighted>
-2.8188

> <Gold.Chemscore.Metal.Weighted>
-0.0000

> <Gold.Chemscore.Lipo.Weighted>
-12.1934

> <Gold.Chemscore.Internal_Hbond.Weighted>
0.0000

> <Gold.Chemscore.DEClash.Weighted>
0.1828

> <Gold.Chemscore.DEInternal.Weighted>
1.7266

> <Gold.Chemscore.Rot.Weighted>
5.5459

> <Gold.Chemscore.Internal.Correction.Weighted>
   9.000000E+99

> <Gold.Protein.RotatedTorsions>
[ 6907 6896 6895 6894 ] final  146.40 input  -60.11 | X-H torsion
[ 7974 7965 7964 7962 ] final  -83.93 input  175.53 | X-H torsion
[ 8008 7997 7996 7995 ] final   44.73 input   59.86 | X-H torsion
[ 10167 10162 10161 10158 ] final  -35.96 input  -65.29 | X-H torsion
[ 10718 10713 10712 10709 ] final   28.23 input   66.30 | X-H torsion
[ 10763 10752 10751 10750 ] final   73.70 input  -60.55 | X-H torsion
[ 11005 11000 10999 10996 ] final -142.49 input  -57.11 | X-H torsion

> <Gold.Protein.ActiveResidues>
 VAL166  LYS551  ARG553  GLY616  TRP617  ASP618  TYR619  PRO620  LYS621  CYS622 
 ASP623  PHE694  ASN695  SER759  ASP760  ASP761  ALA762  ILE779  LEU786  VAL792 
 PHE793  MET794  SER795  GLU796  ALA797  LYS798  CYS799  TRP800  GLU811  SER814 

> <Gold.Protein.RotatedAtoms>
  152.1684  133.4627  159.4896 H   0  0  0  0  0  0  0  0  0  0  0  0  # atno 6907 bound_to 6896
  150.6916  134.1984  159.4321 H   0  0  0  0  0  0  0  0  0  0  0  0  # atno 6908 bound_to 6896
  151.9889  134.9989  160.0611 H   0  0  0  0  0  0  0  0  0  0  0  0  # atno 6909 bound_to 6896
  145.5134  140.9538  143.1694 H   0  0  0  0  0  0  0  0  0  0  0  0  # atno 7974 bound_to 7965
  155.3241  140.3398  155.4240 H   0  0  0  0  0  0  0  0  0  0  0  0  # atno 8008 bound_to 7997
  156.1894  140.1692  156.8158 H   0  0  0  0  0  0  0  0  0  0  0  0  # atno 8009 bound_to 7997
  154.5424  140.0722  156.8516 H   0  0  0  0  0  0  0  0  0  0  0  0  # atno 8010 bound_to 7997
  140.7153  143.3441  151.2294 H   0  0  0  0  0  0  0  0  0  0  0  0  # atno 10167 bound_to 10162
  157.2307  130.7022  149.6312 H   0  0  0  0  0  0  0  0  0  0  0  0  # atno 10718 bound_to 10713
  153.0538  135.5053  154.7932 H   0  0  0  0  0  0  0  0  0  0  0  0  # atno 10763 bound_to 10752
  154.6774  135.2962  154.9663 H   0  0  0  0  0  0  0  0  0  0  0  0  # atno 10764 bound_to 10752
  154.0460  135.6710  153.4848 H   0  0  0  0  0  0  0  0  0  0  0  0  # atno 10765 bound_to 10752
  140.8220  134.2620  157.4896 H   0  0  0  0  0  0  0  0  0  0  0  0  # atno 11005 bound_to 11000
  144.7715  139.6725  143.7193 LP  0  0  0  0  0  0  0  0  0  0  0  0  # atno 17320 bound_to 7965
  146.2152  139.5536  142.9655 LP  0  0  0  0  0  0  0  0  0  0  0  0  # atno 17321 bound_to 7965
  139.6956  143.9619  152.2881 LP  0  0  0  0  0  0  0  0  0  0  0  0  # atno 17342 bound_to 10162
  139.9295  144.6750  150.8378 LP  0  0  0  0  0  0  0  0  0  0  0  0  # atno 17343 bound_to 10162
  155.9675  130.4490  150.5640 LP  0  0  0  0  0  0  0  0  0  0  0  0  # atno 17370 bound_to 10713
  157.3481  131.0728  151.1735 LP  0  0  0  0  0  0  0  0  0  0  0  0  # atno 17371 bound_to 10713
  139.8708  134.9540  156.4163 LP  0  0  0  0  0  0  0  0  0  0  0  0  # atno 17394 bound_to 11000
  140.9089  133.7726  155.9768 LP  0  0  0  0  0  0  0  0  0  0  0  0  # atno 17395 bound_to 11000

$$$$
