AV-unprocessed.smi:3028|AV-procd|sdf|11522|dock9
  -GOLD-   2272016463D 1   1.00000     0.00000
 Structure written by MMmdl.
 47 48  0  0  0  0  0  0  0  0  1 V2000
  142.9792  145.9455  154.7545 C   0  0  0  0  0  0  0  0  0  0  0  0
  143.9308  144.9322  155.3211 C   0  0  0  0  0  0  0  0  0  0  0  0
  144.4718  144.8801  156.6368 C   0  0  0  0  0  0  0  0  0  0  0  0
  145.2891  143.8560  156.8168 N   0  0  0  0  0  0  0  0  0  0  0  0
  145.2978  143.2136  155.6288 N   0  0  0  0  0  0  0  0  0  0  0  0
  146.1098  142.0142  155.4574 C   0  0  1  0  0  0  0  0  0  0  0  0
  145.1807  140.7999  155.2693 C   0  0  0  0  0  0  0  0  0  0  0  0
  147.1482  142.1795  154.3107 C   0  0  2  0  0  0  0  0  0  0  0  0
  147.2648  140.9307  153.4194 C   0  0  0  0  0  0  0  0  0  0  0  0
  148.4833  142.3981  154.8637 N   0  0  0  0  0  0  0  0  0  0  0  0
  149.0388  141.1994  155.5068 C   0  0  0  0  0  0  0  0  0  0  0  0
  150.2199  141.5181  156.4366 C   0  0  0  0  0  0  0  0  0  0  0  0
  150.9759  140.6201  156.8051 O   0  0  0  0  0  0  0  0  0  0  0  0
  150.4245  142.7873  156.8290 N   0  0  0  0  0  0  0  0  0  0  0  0
  151.4809  143.2930  157.7027 C   0  0  0  0  0  0  0  0  0  0  0  0
  151.6882  142.3301  158.8812 C   0  0  0  0  0  0  0  0  0  0  0  0
  152.6864  142.9179  159.8921 C   0  0  0  0  0  0  0  0  0  0  0  0
  152.2359  144.1923  160.3393 O   0  0  0  0  0  0  0  0  0  0  0  0
  152.1421  145.1479  159.2886 C   0  0  0  0  0  0  0  0  0  0  0  0
  151.1125  144.6834  158.2468 C   0  0  0  0  0  0  0  0  0  0  0  0
  144.4852  143.8449  154.7080 C   0  0  0  0  0  0  0  0  0  0  0  0
  142.9940  146.8757  155.3223 H   0  0  0  0  0  0  0  0  0  0  0  0
  141.9525  145.5800  154.7621 H   0  0  0  0  0  0  0  0  0  0  0  0
  143.2251  146.1974  153.7227 H   0  0  0  0  0  0  0  0  0  0  0  0
  144.2984  145.5559  157.4612 H   0  0  0  0  0  0  0  0  0  0  0  0
  146.6572  141.8502  156.3879 H   0  0  0  0  0  0  0  0  0  0  0  0
  145.7300  139.8603  155.3244 H   0  0  0  0  0  0  0  0  0  0  0  0
  144.6686  140.8331  154.3072 H   0  0  0  0  0  0  0  0  0  0  0  0
  144.4199  140.7666  156.0499 H   0  0  0  0  0  0  0  0  0  0  0  0
  146.8576  143.0121  153.6675 H   0  0  0  0  0  0  0  0  0  0  0  0
  146.3454  140.7475  152.8635 H   0  0  0  0  0  0  0  0  0  0  0  0
  147.4842  140.0385  154.0073 H   0  0  0  0  0  0  0  0  0  0  0  0
  148.0592  141.0458  152.6807 H   0  0  0  0  0  0  0  0  0  0  0  0
  148.4450  143.1674  155.5172 H   0  0  0  0  0  0  0  0  0  0  0  0
  148.2629  140.7090  156.0958 H   0  0  0  0  0  0  0  0  0  0  0  0
  149.3600  140.4981  154.7400 H   0  0  0  0  0  0  0  0  0  0  0  0
  149.7773  143.4779  156.4769 H   0  0  0  0  0  0  0  0  0  0  0  0
  152.4246  143.3570  157.1592 H   0  0  0  0  0  0  0  0  0  0  0  0
  150.7377  142.1456  159.3841 H   0  0  0  0  0  0  0  0  0  0  0  0
  152.0454  141.3642  158.5229 H   0  0  0  0  0  0  0  0  0  0  0  0
  152.7803  142.2561  160.7532 H   0  0  0  0  0  0  0  0  0  0  0  0
  153.6799  143.0070  159.4498 H   0  0  0  0  0  0  0  0  0  0  0  0
  151.8413  146.1072  159.7099 H   0  0  0  0  0  0  0  0  0  0  0  0
  153.1203  145.2949  158.8287 H   0  0  0  0  0  0  0  0  0  0  0  0
  151.0495  145.4089  157.4368 H   0  0  0  0  0  0  0  0  0  0  0  0
  150.1252  144.6512  158.7101 H   0  0  0  0  0  0  0  0  0  0  0  0
  144.3725  143.4726  153.7005 H   0  0  0  0  0  0  0  0  0  0  0  0
  1  2  1  0  0  0  0
  1 22  1  0  0  0  0
  1 23  1  0  0  0  0
  1 24  1  0  0  0  0
  2 21  2  0  0  0  0
  2  3  1  0  0  0  0
  3  4  2  0  0  0  0
  3 25  1  0  0  0  0
  4  5  1  0  0  0  0
  5  6  1  0  0  0  0
  5 21  1  0  0  0  0
  6  7  1  0  0  0  0
  6  8  1  0  0  0  0
  6 26  1  0  0  0  0
  7 27  1  0  0  0  0
  7 28  1  0  0  0  0
  7 29  1  0  0  0  0
  8  9  1  0  0  0  0
  8 10  1  0  0  0  0
  8 30  1  0  0  0  0
  9 31  1  0  0  0  0
  9 32  1  0  0  0  0
  9 33  1  0  0  0  0
 10 11  1  0  0  0  0
 10 34  1  0  0  0  0
 11 12  1  0  0  0  0
 11 35  1  0  0  0  0
 11 36  1  0  0  0  0
 12 13  2  0  0  0  0
 12 14  1  0  0  0  0
 14 15  1  0  0  0  0
 14 37  1  0  0  0  0
 15 20  1  0  0  0  0
 15 16  1  0  0  0  0
 15 38  1  0  0  0  0
 16 17  1  0  0  0  0
 16 39  1  0  0  0  0
 16 40  1  0  0  0  0
 17 18  1  0  0  0  0
 17 41  1  0  0  0  0
 17 42  1  0  0  0  0
 18 19  1  0  0  0  0
 19 20  1  0  0  0  0
 19 43  1  0  0  0  0
 19 44  1  0  0  0  0
 20 45  1  0  0  0  0
 20 46  1  0  0  0  0
 21 47  1  0  0  0  0
M  END
> <s_m_source_file>
AV-unprocessed.smi

> <i_m_source_file_index>
3028

> <i_lp_mmshare_version>
43012

> <i_f3d_flags>
0

> <s_epik_input>
W0NIM11jMVtjSF1ubihbY0hdMSlbQ0BIXShbQ0gzXSlbQ0BIXShbQ0gzXSlbTkhdW0NIMl1DKD1PKVtOSF1bQ0hdMltDSDJdW0NIMl1PW0NIMl1bQ0gyXTI=

> <s_epik_cmdline>
J2VwaWtfcHl0aG9uJywgJy1waCcsICc3LjAnLCAnLXRuJywgJzgnLCAnLW1hJywgJzIwMCcsICctbWV0YWxfYmluZGluZycsICctaW1hZScsICc8aW5maWxlLm1hZT4nLCAnLW9tYWUnLCAnPG91dGZpbGUubWFlPic=

> <r_lp_tautomer_probability>
1

> <r_epik_Ionization_Penalty>
0.88617

> <r_epik_Ionization_Penalty_Charging>
0

> <r_epik_Ionization_Penalty_Neutral>
0.88617

> <r_epik_State_Penalty>
0.921066

> <r_epik_Charging_Adjusted_Penalty>
0.921066

> <i_epik_Tot_Q>
0

> <i_epik_Tot_abs_Q>
0

> <r_epik_Metal_State_Penalty>
0.917309

> <b_epik_Metal_Only>
0

> <s_lp_Force_Field>
OPLS_2005

> <r_lp_Energy>
17.6671

> <b_lp_Chiralities_Consistent>
1

> <s_lp_Variant>
AV-unprocessed.smi:3028-6

> <Gold.Version>
5.8.1

> <Gold.Id.Protein>
6NUR|6NUR_protein|mol2

> <Gold.PLP.Fitness>
46.3151

> <Gold.PLP.PLP>
-41.8305

> <Gold.PLP.part.hbond>
-1.9529

> <Gold.PLP.part.metal>
0.0000

> <Gold.PLP.part.buried>
-7.7530

> <Gold.PLP.part.nonpolar>
-33.9481

> <Gold.PLP.part.repulsive>
0.2670

> <Gold.PLP.ligand.clash>
0.0000

> <Gold.PLP.ligand.torsion>
1.9016

> <Gold.PLP.Chemscore.Hbond>
1.8640

> <Gold.PLP.Chemscore.CHOScore>
0.8712

> <Gold.PLP.Chemscore.Metal>
0.0000

> <Gold.Chemscore.Hbonds>
donor molecule, donor type, donor heavy atom, donor atom, acceptor molecule, acceptor atom, score
      L1  H    10    34       P1  8028  0.82
      L1  H    14    37       P1  8028  1.00
      L1  C    21    47       P1 10174  0.86

> <Gold.PLP.Chemscore.Internal.Correction>
0.0823

> <Gold.Rescore>
     Score         DG    S(hbond)    S(metal)    S(lipo)     H(rot)  DE(clash)    DE(int)     intcor
     16.14     -19.31       1.89        0.00     106.30       1.92       0.00       3.17       ----

> <Gold.Chemscore.Fitness>
16.1354

> <Gold.Chemscore.DG>
-19.3091

> <Gold.Chemscore.ZeroCoef>
-5.4800

> <Gold.Chemscore.Hbond>
1.8910

> <Gold.Chemscore.Metal>
0.0000

> <Gold.Chemscore.Lipo>
106.2957

> <Gold.Chemscore.Internal_Hbond>
0.0000

> <Gold.Chemscore.DEClash>
0.0029

> <Gold.Chemscore.DEInternal>
3.1708

> <Gold.Chemscore.Rot>
1.9233

> <Gold.Chemscore.Internal.Correction>
   9.000000E+99

> <Gold.Chemscore.Hbonds>
donor molecule, donor type, donor heavy atom, donor atom, acceptor molecule, acceptor atom, score
      L1  H    10    34       P1  8028  0.80
      L1  H    14    37       P1  8028  1.00

> <Gold.Chemscore.Hbond.Weighted>
-6.3160

> <Gold.Chemscore.Metal.Weighted>
-0.0000

> <Gold.Chemscore.Lipo.Weighted>
-12.4366

> <Gold.Chemscore.Internal_Hbond.Weighted>
0.0000

> <Gold.Chemscore.DEClash.Weighted>
0.0029

> <Gold.Chemscore.DEInternal.Weighted>
3.1708

> <Gold.Chemscore.Rot.Weighted>
4.9235

> <Gold.Chemscore.Internal.Correction.Weighted>
   9.000000E+99

> <Gold.Protein.RotatedTorsions>
[ 6907 6896 6895 6894 ] final  -27.65 input  -60.11 | X-H torsion
[ 7974 7965 7964 7962 ] final   17.98 input  175.53 | X-H torsion
[ 8008 7997 7996 7995 ] final  -53.37 input   59.86 | X-H torsion
[ 10167 10162 10161 10158 ] final  128.74 input  -65.29 | X-H torsion
[ 10718 10713 10712 10709 ] final   69.29 input   66.30 | X-H torsion
[ 10763 10752 10751 10750 ] final -156.87 input  -60.55 | X-H torsion
[ 11005 11000 10999 10996 ] final -109.91 input  -57.11 | X-H torsion

> <Gold.Protein.ActiveResidues>
 VAL166  LYS551  ARG553  GLY616  TRP617  ASP618  TYR619  PRO620  LYS621  CYS622 
 ASP623  PHE694  ASN695  SER759  ASP760  ASP761  ALA762  ILE779  LEU786  VAL792 
 PHE793  MET794  SER795  GLU796  ALA797  LYS798  CYS799  TRP800  GLU811  SER814 

> <Gold.Protein.RotatedAtoms>
  151.1439  135.0193  159.8637 H   0  0  0  0  0  0  0  0  0  0  0  0  # atno 6907 bound_to 6896
  152.5453  134.1467  159.8511 H   0  0  0  0  0  0  0  0  0  0  0  0  # atno 6908 bound_to 6896
  151.1545  133.4840  159.2627 H   0  0  0  0  0  0  0  0  0  0  0  0  # atno 6909 bound_to 6896
  146.2200  139.8523  142.8620 H   0  0  0  0  0  0  0  0  0  0  0  0  # atno 7974 bound_to 7965
  154.4131  140.1201  156.5143 H   0  0  0  0  0  0  0  0  0  0  0  0  # atno 8008 bound_to 7997
  155.6767  140.3496  155.4820 H   0  0  0  0  0  0  0  0  0  0  0  0  # atno 8009 bound_to 7997
  155.9586  140.1118  157.0905 H   0  0  0  0  0  0  0  0  0  0  0  0  # atno 8010 bound_to 7997
  139.5512  144.6814  151.4319 H   0  0  0  0  0  0  0  0  0  0  0  0  # atno 10167 bound_to 10162
  157.6338  130.9418  150.0494 H   0  0  0  0  0  0  0  0  0  0  0  0  # atno 10718 bound_to 10713
  154.7680  135.3137  154.8247 H   0  0  0  0  0  0  0  0  0  0  0  0  # atno 10763 bound_to 10752
  153.8990  135.6817  153.4760 H   0  0  0  0  0  0  0  0  0  0  0  0  # atno 10764 bound_to 10752
  153.1289  135.4789  154.9251 H   0  0  0  0  0  0  0  0  0  0  0  0  # atno 10765 bound_to 10752
  141.0821  133.9202  157.2266 H   0  0  0  0  0  0  0  0  0  0  0  0  # atno 11005 bound_to 11000
  145.2789  141.0132  143.3729 LP  0  0  0  0  0  0  0  0  0  0  0  0  # atno 17320 bound_to 7965
  144.9165  139.4464  143.6561 LP  0  0  0  0  0  0  0  0  0  0  0  0  # atno 17321 bound_to 7965
  140.6775  143.8158  150.7077 LP  0  0  0  0  0  0  0  0  0  0  0  0  # atno 17342 bound_to 10162
  140.1601  143.4283  152.2073 LP  0  0  0  0  0  0  0  0  0  0  0  0  # atno 17343 bound_to 10162
  156.1560  130.3643  149.9368 LP  0  0  0  0  0  0  0  0  0  0  0  0  # atno 17370 bound_to 10713
  156.7376  130.9067  151.3630 LP  0  0  0  0  0  0  0  0  0  0  0  0  # atno 17371 bound_to 10713
  139.9636  135.0148  156.9327 LP  0  0  0  0  0  0  0  0  0  0  0  0  # atno 17394 bound_to 11000
  140.5445  134.0687  155.7351 LP  0  0  0  0  0  0  0  0  0  0  0  0  # atno 17395 bound_to 11000

$$$$
