AV-unprocessed.smi:2216|AV-procd|sdf|8966|dock6
  -GOLD-   2272012183D 1   1.00000     0.00000
 Structure written by MMmdl.
 40 41  0  0  0  0  0  0  0  0  2 V2000
  152.7413  138.3304  158.0023 C   0  0  0  0  0  0  0  0  0  0  0  0
  151.9788  138.3411  156.6882 C   0  0  0  0  0  0  0  0  0  0  0  0
  151.3645  137.2292  156.2117 C   0  0  0  0  0  0  0  0  0  0  0  0
  150.6295  137.2313  154.9468 C   0  0  0  0  0  0  0  0  0  0  0  0
  149.9602  136.1524  154.3543 N   0  0  0  0  0  0  0  0  0  0  0  0
  149.8166  134.8964  154.8132 C   0  0  0  0  0  0  0  0  0  0  0  0
  150.2600  134.4592  155.8747 O   0  0  0  0  0  0  0  0  0  0  0  0
  149.1120  134.1510  153.9500 N   0  0  0  0  0  0  0  0  0  0  0  0
  148.7753  132.7442  154.1355 C   0  0  0  0  0  0  0  0  0  0  0  0
  147.2551  132.5133  154.0810 C   0  0  0  0  0  0  0  0  0  0  0  0
  146.7494  132.1976  152.6645 C   0  0  2  0  0  0  0  0  0  0  0  0
  146.7988  133.4348  151.7464 C   0  0  0  0  0  0  0  0  0  0  0  0
  146.2161  133.1073  150.3669 C   0  0  0  0  0  0  0  0  0  0  0  0
  144.8188  132.4990  150.5276 C   0  0  0  0  0  0  0  0  0  0  0  0
  144.8607  131.3160  151.5078 C   0  0  0  0  0  0  0  0  0  0  0  0
  145.4015  131.7390  152.7557 O   0  0  0  0  0  0  0  0  0  0  0  0
  150.6437  138.4650  154.3282 C   0  0  0  0  0  0  0  0  0  0  0  0
  151.2282  139.6117  154.7373 N   0  5  0  0  0  0  0  0  0  0  0  0
  151.9120  139.5993  155.9174 C   0  0  0  0  0  0  0  0  0  0  0  0
  152.4717  140.6051  156.3521 O   0  0  0  0  0  0  0  0  0  0  0  0
  152.7181  137.3449  158.4682 H   0  0  0  0  0  0  0  0  0  0  0  0
  152.3050  139.0440  158.7019 H   0  0  0  0  0  0  0  0  0  0  0  0
  153.7849  138.6012  157.8395 H   0  0  0  0  0  0  0  0  0  0  0  0
  151.4368  136.3297  156.8004 H   0  0  0  0  0  0  0  0  0  0  0  0
  149.5337  136.3579  153.4627 H   0  0  0  0  0  0  0  0  0  0  0  0
  148.7861  134.5893  153.1012 H   0  0  0  0  0  0  0  0  0  0  0  0
  149.2830  132.1352  153.3856 H   0  0  0  0  0  0  0  0  0  0  0  0
  149.1666  132.4317  155.1039 H   0  0  0  0  0  0  0  0  0  0  0  0
  146.9796  131.7033  154.7578 H   0  0  0  0  0  0  0  0  0  0  0  0
  146.7455  133.4056  154.4475 H   0  0  0  0  0  0  0  0  0  0  0  0
  147.3701  131.4072  152.2382 H   0  0  0  0  0  0  0  0  0  0  0  0
  146.2316  134.2506  152.1968 H   0  0  0  0  0  0  0  0  0  0  0  0
  147.8250  133.7885  151.6411 H   0  0  0  0  0  0  0  0  0  0  0  0
  146.1727  134.0044  149.7489 H   0  0  0  0  0  0  0  0  0  0  0  0
  146.8679  132.4014  149.8507 H   0  0  0  0  0  0  0  0  0  0  0  0
  144.1300  133.2573  150.9020 H   0  0  0  0  0  0  0  0  0  0  0  0
  144.4338  132.1758  149.5601 H   0  0  0  0  0  0  0  0  0  0  0  0
  143.8545  130.9303  151.6730 H   0  0  0  0  0  0  0  0  0  0  0  0
  145.4533  130.4944  151.1026 H   0  0  0  0  0  0  0  0  0  0  0  0
  150.1055  138.5419  153.3587 H   0  0  0  0  0  0  0  0  0  0  0  0
  1  2  1  0  0  0  0
  1 21  1  0  0  0  0
  1 22  1  0  0  0  0
  1 23  1  0  0  0  0
  2 19  1  0  0  0  0
  2  3  2  0  0  0  0
  3  4  1  0  0  0  0
  3 24  1  0  0  0  0
  4  5  1  0  0  0  0
  4 17  2  0  0  0  0
  5  6  1  0  0  0  0
  5 25  1  0  0  0  0
  6  7  2  0  0  0  0
  6  8  1  0  0  0  0
  8  9  1  0  0  0  0
  8 26  1  0  0  0  0
  9 10  1  0  0  0  0
  9 27  1  0  0  0  0
  9 28  1  0  0  0  0
 10 11  1  0  0  0  0
 10 29  1  0  0  0  0
 10 30  1  0  0  0  0
 11 16  1  0  0  0  0
 11 12  1  0  0  0  0
 11 31  1  0  0  0  0
 12 13  1  0  0  0  0
 12 32  1  0  0  0  0
 12 33  1  0  0  0  0
 13 14  1  0  0  0  0
 13 34  1  0  0  0  0
 13 35  1  0  0  0  0
 14 15  1  0  0  0  0
 14 36  1  0  0  0  0
 14 37  1  0  0  0  0
 15 16  1  0  0  0  0
 15 38  1  0  0  0  0
 15 39  1  0  0  0  0
 17 18  1  0  0  0  0
 17 40  1  0  0  0  0
 18 19  1  0  0  0  0
 19 20  2  0  0  0  0
M  CHG  1  18  -1
M  END
> <s_m_source_file>
AV-unprocessed.smi

> <i_m_source_file_index>
2216

> <i_lp_mmshare_version>
43012

> <i_f3d_flags>
0

> <s_epik_input>
Tz1jMVtuSF1bY0hdYyhbY0hdYzFbQ0gzXSlbTkhdQyg9TylbTkhdW0NIMl1bQ0gyXVtDQEBIXTJbQ0gyXVtDSDJdW0NIMl1bQ0gyXU8y

> <s_epik_cmdline>
J2VwaWtfcHl0aG9uJywgJy1waCcsICc3LjAnLCAnLXRuJywgJzgnLCAnLW1hJywgJzIwMCcsICctbWV0YWxfYmluZGluZycsICctaW1hZScsICc8aW5maWxlLm1hZT4nLCAnLW9tYWUnLCAnPG91dGZpbGUubWFlPic=

> <r_lp_tautomer_probability>
1

> <r_epik_Ionization_Penalty>
7.55627

> <r_epik_Ionization_Penalty_Charging>
1.50531

> <r_epik_Ionization_Penalty_Neutral>
6.05097

> <r_epik_State_Penalty>
6.05091

> <r_epik_Charging_Adjusted_Penalty>
7.55622

> <i_epik_Tot_Q>
-1

> <i_epik_Tot_abs_Q>
1

> <r_epik_Metal_State_Penalty>
2.00009

> <b_epik_Metal_Only>
1

> <s_lp_Force_Field>
OPLS_2005

> <r_lp_Energy>
21.198

> <b_lp_Chiralities_Consistent>
1

> <s_lp_Variant>
AV-unprocessed.smi:2216-3

> <Gold.Version>
5.8.1

> <Gold.Id.Protein>
6NUR|6NUR_protein|mol2

> <Gold.PLP.Fitness>
40.6999

> <Gold.PLP.PLP>
-30.7926

> <Gold.PLP.part.hbond>
-5.0000

> <Gold.PLP.part.metal>
0.0000

> <Gold.PLP.part.buried>
0.2878

> <Gold.PLP.part.nonpolar>
-25.9574

> <Gold.PLP.part.repulsive>
0.3601

> <Gold.PLP.ligand.clash>
0.0000

> <Gold.PLP.ligand.torsion>
0.2658

> <Gold.PLP.Chemscore.Hbond>
3.4784

> <Gold.PLP.Chemscore.CHOScore>
0.0000

> <Gold.PLP.Chemscore.Metal>
0.0000

> <Gold.Chemscore.Hbonds>
donor molecule, donor type, donor heavy atom, donor atom, acceptor molecule, acceptor atom, score
      L1  H     5    25       P1  7948  1.00
      L1  H     8    26       P1  7948  0.78
      P1  H  7989  7998       L1    18  1.00
      P1  H  7997  8009       L1    20  0.88

> <Gold.PLP.Chemscore.Internal.Correction>
0.0038

> <Gold.Rescore>
     Score         DG    S(hbond)    S(metal)    S(lipo)     H(rot)  DE(clash)    DE(int)     intcor
     17.46     -19.04       2.54        0.00      75.69       1.47       0.28       1.31       ----

> <Gold.Chemscore.Fitness>
17.4553

> <Gold.Chemscore.DG>
-19.0438

> <Gold.Chemscore.ZeroCoef>
-5.4800

> <Gold.Chemscore.Hbond>
2.5371

> <Gold.Chemscore.Metal>
0.0000

> <Gold.Chemscore.Lipo>
75.6851

> <Gold.Chemscore.Internal_Hbond>
0.0000

> <Gold.Chemscore.DEClash>
0.2782

> <Gold.Chemscore.DEInternal>
1.3102

> <Gold.Chemscore.Rot>
1.4709

> <Gold.Chemscore.Internal.Correction>
   9.000000E+99

> <Gold.Chemscore.Hbonds>
donor molecule, donor type, donor heavy atom, donor atom, acceptor molecule, acceptor atom, score
      L1  H     5    25       P1  7948  0.55
      L1  H     8    26       P1  7948  0.12
      P1  H  7989  7998       L1    18  0.93
      P1  H  7997  8009       L1    20  0.43

> <Gold.Chemscore.Hbond.Weighted>
-8.4740

> <Gold.Chemscore.Metal.Weighted>
-0.0000

> <Gold.Chemscore.Lipo.Weighted>
-8.8552

> <Gold.Chemscore.Internal_Hbond.Weighted>
0.0000

> <Gold.Chemscore.DEClash.Weighted>
0.2782

> <Gold.Chemscore.DEInternal.Weighted>
1.3102

> <Gold.Chemscore.Rot.Weighted>
3.7654

> <Gold.Chemscore.Internal.Correction.Weighted>
   9.000000E+99

> <Gold.Protein.RotatedTorsions>
[ 6907 6896 6895 6894 ] final -141.72 input  -60.11 | X-H torsion
[ 7974 7965 7964 7962 ] final  124.11 input  175.53 | X-H torsion
[ 8008 7997 7996 7995 ] final -166.13 input   59.86 | X-H torsion
[ 10167 10162 10161 10158 ] final   46.69 input  -65.29 | X-H torsion
[ 10718 10713 10712 10709 ] final   20.30 input   66.30 | X-H torsion
[ 10763 10752 10751 10750 ] final  169.38 input  -60.55 | X-H torsion
[ 11005 11000 10999 10996 ] final  167.08 input  -57.11 | X-H torsion

> <Gold.Protein.ActiveResidues>
 VAL166  LYS551  ARG553  GLY616  TRP617  ASP618  TYR619  PRO620  LYS621  CYS622 
 ASP623  PHE694  ASN695  SER759  ASP760  ASP761  ALA762  ILE779  LEU786  VAL792 
 PHE793  MET794  SER795  GLU796  ALA797  LYS798  CYS799  TRP800  GLU811  SER814 

> <Gold.Protein.RotatedAtoms>
  151.0775  133.5416  159.2622 H   0  0  0  0  0  0  0  0  0  0  0  0  # atno 6907 bound_to 6896
  151.2332  135.0561  159.9006 H   0  0  0  0  0  0  0  0  0  0  0  0  # atno 6908 bound_to 6896
  152.5419  134.0561  159.8185 H   0  0  0  0  0  0  0  0  0  0  0  0  # atno 6909 bound_to 6896
  145.0882  139.3606  143.4874 H   0  0  0  0  0  0  0  0  0  0  0  0  # atno 7974 bound_to 7965
  155.8595  140.0976  157.1622 H   0  0  0  0  0  0  0  0  0  0  0  0  # atno 8008 bound_to 7997
  154.3989  140.1368  156.4006 H   0  0  0  0  0  0  0  0  0  0  0  0  # atno 8009 bound_to 7997
  155.7872  140.3457  155.5332 H   0  0  0  0  0  0  0  0  0  0  0  0  # atno 8010 bound_to 7997
  140.3114  144.2816  150.6199 H   0  0  0  0  0  0  0  0  0  0  0  0  # atno 10167 bound_to 10162
  157.1225  130.6556  149.5928 H   0  0  0  0  0  0  0  0  0  0  0  0  # atno 10718 bound_to 10713
  154.3823  135.2753  155.2204 H   0  0  0  0  0  0  0  0  0  0  0  0  # atno 10763 bound_to 10752
  154.4305  135.5978  153.6069 H   0  0  0  0  0  0  0  0  0  0  0  0  # atno 10764 bound_to 10752
  152.9834  135.5994  154.4068 H   0  0  0  0  0  0  0  0  0  0  0  0  # atno 10765 bound_to 10752
  140.2730  134.7811  157.3692 H   0  0  0  0  0  0  0  0  0  0  0  0  # atno 11005 bound_to 11000
  146.3531  140.0704  142.8623 LP  0  0  0  0  0  0  0  0  0  0  0  0  # atno 17320 bound_to 7965
  145.1097  140.9397  143.4663 LP  0  0  0  0  0  0  0  0  0  0  0  0  # atno 17321 bound_to 7965
  140.5565  143.2198  151.7838 LP  0  0  0  0  0  0  0  0  0  0  0  0  # atno 17342 bound_to 10162
  139.4893  144.4406  151.9768 LP  0  0  0  0  0  0  0  0  0  0  0  0  # atno 17343 bound_to 10162
  155.9825  130.4839  150.6886 LP  0  0  0  0  0  0  0  0  0  0  0  0  # atno 17370 bound_to 10713
  157.4464  131.0867  151.0892 LP  0  0  0  0  0  0  0  0  0  0  0  0  # atno 17371 bound_to 10713
  140.1355  134.5040  155.8072 LP  0  0  0  0  0  0  0  0  0  0  0  0  # atno 17394 bound_to 11000
  141.2174  133.6805  156.7116 LP  0  0  0  0  0  0  0  0  0  0  0  0  # atno 17395 bound_to 11000

$$$$
