AV-unprocessed.smi:199|AV-procd|sdf|1562|dock1
  -GOLD-   2262019433D 1   1.00000     0.00000
 Structure written by MMmdl.
 51 55  0  0  0  0  0  0  0  0  1 V2000
  148.9189  141.3463  154.4492 C   0  0  0  0  0  0  0  0  0  0  0  0
  149.6603  140.1198  155.0058 C   0  0  2  0  0  0  0  0  0  0  0  0
  151.0537  140.2162  154.7497 O   0  0  0  0  0  0  0  0  0  0  0  0
  151.5976  138.9229  154.9405 C   0  0  0  0  0  0  0  0  0  0  0  0
  150.5886  138.0246  154.2349 C   0  0  0  0  0  0  0  0  0  0  0  0
  149.2461  138.7297  154.4537 C   0  0  2  0  0  0  0  0  0  0  0  0
  148.5950  138.8377  153.1982 O   0  0  0  0  0  0  0  0  0  0  0  0
  148.3207  137.9395  155.4119 C   0  0  0  0  0  0  0  0  0  0  0  0
  147.7408  136.7498  154.8065 N   0  0  0  0  0  0  0  0  0  0  0  0
  148.1633  135.4510  154.9723 C   0  0  0  0  0  0  0  0  0  0  0  0
  147.4833  134.5574  154.3089 N   0  0  0  0  0  0  0  0  0  0  0  0
  146.5153  135.2903  153.6314 C   0  0  0  0  0  0  0  0  0  0  0  0
  145.4605  134.9624  152.7292 C   0  0  0  0  0  0  0  0  0  0  0  0
  145.1825  133.6990  152.3028 N   0  0  0  0  0  0  0  0  0  0  0  0
  144.0260  133.4452  151.4552 C   0  0  1  0  0  0  0  0  0  0  0  0
  144.4464  133.9848  150.0714 C   0  0  0  0  0  0  0  0  0  0  0  0
  145.9522  133.6772  150.0743 C   0  0  0  0  0  0  0  0  0  0  0  0
  146.1149  132.9844  151.4423 C   0  0  2  0  0  0  0  0  0  0  0  0
  145.4973  131.5695  151.3632 C   0  0  1  0  0  0  0  0  0  0  0  0
  145.9320  130.6439  152.5138 C   0  0  0  0  0  0  0  0  0  0  0  0
  147.3225  130.4064  152.4557 O   0  0  0  0  0  0  0  0  0  0  0  0
  143.9941  131.9099  151.4067 C   0  0  0  0  0  0  0  0  0  0  0  0
  144.6765  135.9851  152.2945 N   0  0  0  0  0  0  0  0  0  0  0  0
  144.9159  137.2394  152.6846 C   0  0  0  0  0  0  0  0  0  0  0  0
  145.8702  137.6905  153.4987 N   0  0  0  0  0  0  0  0  0  0  0  0
  146.6531  136.6717  153.9540 C   0  0  0  0  0  0  0  0  0  0  0  0
  147.8464  141.2752  154.6313 H   0  0  0  0  0  0  0  0  0  0  0  0
  149.0732  141.4562  153.3758 H   0  0  0  0  0  0  0  0  0  0  0  0
  149.2739  142.2597  154.9265 H   0  0  0  0  0  0  0  0  0  0  0  0
  149.5594  140.1207  156.0914 H   0  0  0  0  0  0  0  0  0  0  0  0
  152.6010  138.8402  154.5226 H   0  0  0  0  0  0  0  0  0  0  0  0
  151.6466  138.6967  156.0069 H   0  0  0  0  0  0  0  0  0  0  0  0
  150.8415  137.9808  153.1739 H   0  0  0  0  0  0  0  0  0  0  0  0
  150.6111  137.0029  154.6160 H   0  0  0  0  0  0  0  0  0  0  0  0
  148.4943  137.9705  152.8370 H   0  0  0  0  0  0  0  0  0  0  0  0
  148.8671  137.6366  156.3062 H   0  0  0  0  0  0  0  0  0  0  0  0
  147.5071  138.5791  155.7568 H   0  0  0  0  0  0  0  0  0  0  0  0
  149.0030  135.1856  155.5978 H   0  0  0  0  0  0  0  0  0  0  0  0
  143.0876  133.8661  151.8180 H   0  0  0  0  0  0  0  0  0  0  0  0
  143.9158  133.4970  149.2529 H   0  0  0  0  0  0  0  0  0  0  0  0
  144.2733  135.0587  149.9936 H   0  0  0  0  0  0  0  0  0  0  0  0
  146.2601  133.0469  149.2396 H   0  0  0  0  0  0  0  0  0  0  0  0
  146.5334  134.5996  150.0332 H   0  0  0  0  0  0  0  0  0  0  0  0
  147.1488  132.9596  151.7807 H   0  0  0  0  0  0  0  0  0  0  0  0
  145.7482  131.0910  150.4150 H   0  0  0  0  0  0  0  0  0  0  0  0
  145.6793  131.0756  153.4829 H   0  0  0  0  0  0  0  0  0  0  0  0
  145.4177  129.6851  152.4418 H   0  0  0  0  0  0  0  0  0  0  0  0
  147.6330  130.6488  151.5966 H   0  0  0  0  0  0  0  0  0  0  0  0
  143.5214  131.5121  152.3059 H   0  0  0  0  0  0  0  0  0  0  0  0
  143.4477  131.5267  150.5442 H   0  0  0  0  0  0  0  0  0  0  0  0
  144.2481  137.9887  152.2857 H   0  0  0  0  0  0  0  0  0  0  0  0
  1  2  1  0  0  0  0
  1 27  1  0  0  0  0
  1 28  1  0  0  0  0
  1 29  1  0  0  0  0
  2  6  1  0  0  0  0
  2  3  1  0  0  0  0
  2 30  1  0  0  0  0
  3  4  1  0  0  0  0
  4  5  1  0  0  0  0
  4 31  1  0  0  0  0
  4 32  1  0  0  0  0
  5  6  1  0  0  0  0
  5 33  1  0  0  0  0
  5 34  1  0  0  0  0
  6  7  1  0  0  0  0
  6  8  1  0  0  0  0
  7 35  1  0  0  0  0
  8  9  1  0  0  0  0
  8 36  1  0  0  0  0
  8 37  1  0  0  0  0
  9 26  1  0  0  0  0
  9 10  1  0  0  0  0
 10 11  2  0  0  0  0
 10 38  1  0  0  0  0
 11 12  1  0  0  0  0
 12 26  2  0  0  0  0
 12 13  1  0  0  0  0
 13 14  1  0  0  0  0
 13 23  2  0  0  0  0
 14 18  1  0  0  0  0
 14 15  1  0  0  0  0
 15 22  1  0  0  0  0
 15 16  1  0  0  0  0
 15 39  1  0  0  0  0
 16 17  1  0  0  0  0
 16 40  1  0  0  0  0
 16 41  1  0  0  0  0
 17 18  1  0  0  0  0
 17 42  1  0  0  0  0
 17 43  1  0  0  0  0
 18 19  1  0  0  0  0
 18 44  1  0  0  0  0
 19 20  1  0  0  0  0
 19 22  1  0  0  0  0
 19 45  1  0  0  0  0
 20 21  1  0  0  0  0
 20 46  1  0  0  0  0
 20 47  1  0  0  0  0
 21 48  1  0  0  0  0
 22 49  1  0  0  0  0
 22 50  1  0  0  0  0
 23 24  1  0  0  0  0
 24 25  2  0  0  0  0
 24 51  1  0  0  0  0
 25 26  1  0  0  0  0
M  END
> <s_m_source_file>
AV-unprocessed.smi

> <i_m_source_file_index>
199

> <i_lp_mmshare_version>
43012

> <i_f3d_flags>
0

> <s_epik_input>
W0NIMl0xW0NIMl1PW0NAQEhdKFtDSDNdKVtDQEBdMShbT0hdKVtDSDJdbihbY0hdbjIpYyhjMjMpbltjSF1uYzNOKFtDQEBIXTQ1KVtDQEhdKFtDSDJdW0NIMl00KVtDQEhdKFtDSDJdNSlbQ0gyXVtPSF0=

> <s_epik_cmdline>
J2VwaWtfcHl0aG9uJywgJy1waCcsICc3LjAnLCAnLXRuJywgJzgnLCAnLW1hJywgJzIwMCcsICctbWV0YWxfYmluZGluZycsICctaW1hZScsICc8aW5maWxlLm1hZT4nLCAnLW9tYWUnLCAnPG91dGZpbGUubWFlPic=

> <r_lp_tautomer_probability>
1

> <r_epik_Ionization_Penalty>
0.00583903

> <r_epik_Ionization_Penalty_Charging>
0

> <r_epik_Ionization_Penalty_Neutral>
0.00583903

> <r_epik_State_Penalty>
-0

> <r_epik_Charging_Adjusted_Penalty>
0

> <i_epik_Tot_Q>
0

> <i_epik_Tot_abs_Q>
0

> <r_epik_Metal_State_Penalty>
-0

> <b_epik_Metal_Only>
0

> <s_lp_Force_Field>
OPLS_2005

> <r_lp_Energy>
83.6045

> <b_lp_Chiralities_Consistent>
1

> <s_lp_Variant>
AV-unprocessed.smi:199-3

> <Gold.Version>
5.8.1

> <Gold.Id.Protein>
6NUR|6NUR_protein|mol2

> <Gold.PLP.Fitness>
47.7283

> <Gold.PLP.PLP>
-33.5195

> <Gold.PLP.part.hbond>
-4.0000

> <Gold.PLP.part.metal>
0.0000

> <Gold.PLP.part.buried>
0.5311

> <Gold.PLP.part.nonpolar>
-29.3641

> <Gold.PLP.part.repulsive>
0.5525

> <Gold.PLP.ligand.clash>
0.0000

> <Gold.PLP.ligand.torsion>
0.4674

> <Gold.PLP.Chemscore.Hbond>
3.0000

> <Gold.PLP.Chemscore.CHOScore>
1.9986

> <Gold.PLP.Chemscore.Metal>
0.0000

> <Gold.Chemscore.Hbonds>
donor molecule, donor type, donor heavy atom, donor atom, acceptor molecule, acceptor atom, score
      L1  H     7    35       P1  7948  1.00
      L1  H    21    48       P1 10747  1.00
      P1  H  7989  7998       L1     3  0.99
      L1  C    24    51       P1 10171  0.88
      L1  C    24    51       P1 10175  1.00

> <Gold.PLP.Chemscore.Internal.Correction>
0.1478

> <Gold.Rescore>
     Score         DG    S(hbond)    S(metal)    S(lipo)     H(rot)  DE(clash)    DE(int)     intcor
     15.40     -18.30       2.92        0.00      93.34       3.07       0.69       2.22       ----

> <Gold.Chemscore.Fitness>
15.3985

> <Gold.Chemscore.DG>
-18.2994

> <Gold.Chemscore.ZeroCoef>
-5.4800

> <Gold.Chemscore.Hbond>
2.9237

> <Gold.Chemscore.Metal>
0.0000

> <Gold.Chemscore.Lipo>
93.3403

> <Gold.Chemscore.Internal_Hbond>
0.0000

> <Gold.Chemscore.DEClash>
0.6852

> <Gold.Chemscore.DEInternal>
2.2157

> <Gold.Chemscore.Rot>
3.0729

> <Gold.Chemscore.Internal.Correction>
   9.000000E+99

> <Gold.Chemscore.Hbonds>
donor molecule, donor type, donor heavy atom, donor atom, acceptor molecule, acceptor atom, score
      L1  H     7    35       P1  7948  0.93
      L1  H    21    48       P1 10747  0.97
      P1  H  7989  7998       L1     3  0.72

> <Gold.Chemscore.Hbond.Weighted>
-9.7653

> <Gold.Chemscore.Metal.Weighted>
-0.0000

> <Gold.Chemscore.Lipo.Weighted>
-10.9208

> <Gold.Chemscore.Internal_Hbond.Weighted>
0.0000

> <Gold.Chemscore.DEClash.Weighted>
0.6852

> <Gold.Chemscore.DEInternal.Weighted>
2.2157

> <Gold.Chemscore.Rot.Weighted>
7.8667

> <Gold.Chemscore.Internal.Correction.Weighted>
   9.000000E+99

> <Gold.Protein.RotatedTorsions>
[ 6907 6896 6895 6894 ] final   48.98 input  -60.11 | X-H torsion
[ 7974 7965 7964 7962 ] final -117.20 input  175.53 | X-H torsion
[ 8008 7997 7996 7995 ] final   48.86 input   59.86 | X-H torsion
[ 10167 10162 10161 10158 ] final   16.98 input  -65.29 | X-H torsion
[ 10718 10713 10712 10709 ] final   88.50 input   66.30 | X-H torsion
[ 10763 10752 10751 10750 ] final   98.65 input  -60.55 | X-H torsion
[ 11005 11000 10999 10996 ] final  -58.14 input  -57.11 | X-H torsion

> <Gold.Protein.ActiveResidues>
 VAL166  LYS551  ARG553  GLY616  TRP617  ASP618  TYR619  PRO620  LYS621  CYS622 
 ASP623  PHE694  ASN695  SER759  ASP760  ASP761  ALA762  ILE779  LEU786  VAL792 
 PHE793  MET794  SER795  GLU796  ALA797  LYS798  CYS799  TRP800  GLU811  SER814 

> <Gold.Protein.RotatedAtoms>
  152.2856  134.7779  160.0387 H   0  0  0  0  0  0  0  0  0  0  0  0  # atno 6907 bound_to 6896
  151.8343  133.3408  159.3631 H   0  0  0  0  0  0  0  0  0  0  0  0  # atno 6908 bound_to 6896
  150.7208  134.5381  159.5778 H   0  0  0  0  0  0  0  0  0  0  0  0  # atno 6909 bound_to 6896
  145.0880  140.8470  143.3999 H   0  0  0  0  0  0  0  0  0  0  0  0  # atno 7974 bound_to 7965
  155.3926  140.3434  155.4252 H   0  0  0  0  0  0  0  0  0  0  0  0  # atno 8008 bound_to 7997
  156.1549  140.1582  156.8742 H   0  0  0  0  0  0  0  0  0  0  0  0  # atno 8009 bound_to 7997
  154.5085  140.0796  156.7925 H   0  0  0  0  0  0  0  0  0  0  0  0  # atno 8010 bound_to 7997
  140.5758  143.9074  150.6749 H   0  0  0  0  0  0  0  0  0  0  0  0  # atno 10167 bound_to 10162
  157.6949  131.0297  150.3284 H   0  0  0  0  0  0  0  0  0  0  0  0  # atno 10718 bound_to 10713
  153.2917  135.4141  155.1173 H   0  0  0  0  0  0  0  0  0  0  0  0  # atno 10763 bound_to 10752
  154.8522  135.3520  154.5972 H   0  0  0  0  0  0  0  0  0  0  0  0  # atno 10764 bound_to 10752
  153.6395  135.7057  153.5305 H   0  0  0  0  0  0  0  0  0  0  0  0  # atno 10765 bound_to 10752
  141.1195  133.6611  156.4875 H   0  0  0  0  0  0  0  0  0  0  0  0  # atno 11005 bound_to 11000
  145.1100  139.2764  143.5642 LP  0  0  0  0  0  0  0  0  0  0  0  0  # atno 17320 bound_to 7965
  146.3531  140.0692  142.8624 LP  0  0  0  0  0  0  0  0  0  0  0  0  # atno 17321 bound_to 7965
  140.2561  143.3557  152.1363 LP  0  0  0  0  0  0  0  0  0  0  0  0  # atno 17342 bound_to 10162
  139.5142  144.6944  151.5670 LP  0  0  0  0  0  0  0  0  0  0  0  0  # atno 17343 bound_to 10162
  156.3761  130.3872  149.7138 LP  0  0  0  0  0  0  0  0  0  0  0  0  # atno 17370 bound_to 10713
  156.4536  130.7918  151.2939 LP  0  0  0  0  0  0  0  0  0  0  0  0  # atno 17371 bound_to 10713
  140.4550  134.6894  157.5058 LP  0  0  0  0  0  0  0  0  0  0  0  0  # atno 17394 bound_to 11000
  140.0141  134.6646  155.9337 LP  0  0  0  0  0  0  0  0  0  0  0  0  # atno 17395 bound_to 11000

$$$$
