AV-unprocessed.smi:1417|AV-procd|sdf|5771|dock2
  -GOLD-   22720 5413D 1   1.00000     0.00000
 Structure written by MMmdl.
 39 40  0  0  0  0  0  0  0  0  3 V2000
  152.2988  139.2491  157.0971 C   0  0  0  0  0  0  0  0  0  0  0  0
  151.7546  138.0626  156.3782 C   0  0  0  0  0  0  0  0  0  0  0  0
  150.6753  137.8870  155.5589 C   0  0  0  0  0  0  0  0  0  0  0  0
  150.7494  136.5031  155.2255 C   0  0  0  0  0  0  0  0  0  0  0  0
  149.8518  135.7897  154.3896 N   0  0  0  0  0  0  0  0  0  0  0  0
  149.1895  134.6514  154.6559 C   0  0  0  0  0  0  0  0  0  0  0  0
  149.2369  134.0299  155.7173 O   0  0  0  0  0  0  0  0  0  0  0  0
  148.4558  134.2584  153.6042 N   0  0  0  0  0  0  0  0  0  0  0  0
  147.6378  133.0496  153.5567 C   0  0  2  0  0  0  0  0  0  0  0  0
  148.5092  131.7918  153.7280 C   0  0  0  0  0  0  0  0  0  0  0  0
  147.6748  130.5100  153.5737 C   0  0  0  0  0  0  0  0  0  0  0  0
  146.9669  130.4839  152.2655 N   0  3  1  0  0  0  0  0  0  0  0  0
  146.2502  129.2088  152.0152 C   0  0  0  0  0  0  0  0  0  0  0  0
  147.2541  128.0820  151.7489 C   0  0  0  0  0  0  0  0  0  0  0  0
  147.9082  128.2404  150.5827 N   0  5  0  0  0  0  0  0  0  0  0  0
  147.3691  127.1665  152.5614 O   0  0  0  0  0  0  0  0  0  0  0  0
  146.0880  131.6686  152.0970 C   0  0  0  0  0  0  0  0  0  0  0  0
  146.8893  132.9763  152.2163 C   0  0  0  0  0  0  0  0  0  0  0  0
  151.7783  135.8984  155.7901 N   0  0  0  0  0  0  0  0  0  0  0  0
  152.4295  136.8916  156.5308 O   0  0  0  0  0  0  0  0  0  0  0  0
  151.5578  140.0473  157.1466 H   0  0  0  0  0  0  0  0  0  0  0  0
  153.1808  139.6374  156.5880 H   0  0  0  0  0  0  0  0  0  0  0  0
  152.5829  138.9892  158.1169 H   0  0  0  0  0  0  0  0  0  0  0  0
  149.9605  138.6382  155.2593 H   0  0  0  0  0  0  0  0  0  0  0  0
  149.7090  136.1893  153.4738 H   0  0  0  0  0  0  0  0  0  0  0  0
  148.4717  134.8309  152.7728 H   0  0  0  0  0  0  0  0  0  0  0  0
  146.8996  133.0858  154.3604 H   0  0  0  0  0  0  0  0  0  0  0  0
  149.3113  131.7922  152.9883 H   0  0  0  0  0  0  0  0  0  0  0  0
  148.9915  131.7957  154.7060 H   0  0  0  0  0  0  0  0  0  0  0  0
  148.3339  129.6461  153.6643 H   0  0  0  0  0  0  0  0  0  0  0  0
  146.9477  130.4363  154.3839 H   0  0  0  0  0  0  0  0  0  0  0  0
  145.5695  128.9851  152.8398 H   0  0  0  0  0  0  0  0  0  0  0  0
  145.6325  129.2970  151.1204 H   0  0  0  0  0  0  0  0  0  0  0  0
  148.0388  129.1910  150.2159 H   0  0  0  0  0  0  0  0  0  0  0  0
  145.6064  131.6338  151.1189 H   0  0  0  0  0  0  0  0  0  0  0  0
  145.2932  131.6422  152.8441 H   0  0  0  0  0  0  0  0  0  0  0  0
  146.2174  133.8296  152.1151 H   0  0  0  0  0  0  0  0  0  0  0  0
  147.5988  133.0410  151.3898 H   0  0  0  0  0  0  0  0  0  0  0  0
  147.6733  130.5467  151.5461 H   0  0  0  0  0  0  0  0  0  0  0  0
  1  2  1  0  0  0  0
  1 21  1  0  0  0  0
  1 22  1  0  0  0  0
  1 23  1  0  0  0  0
  2 20  1  0  0  0  0
  2  3  2  0  0  0  0
  3  4  1  0  0  0  0
  3 24  1  0  0  0  0
  4  5  1  0  0  0  0
  4 19  2  0  0  0  0
  5  6  1  0  0  0  0
  5 25  1  0  0  0  0
  6  7  2  0  0  0  0
  6  8  1  0  0  0  0
  8  9  1  0  0  0  0
  8 26  1  0  0  0  0
  9 18  1  0  0  0  0
  9 10  1  0  0  0  0
  9 27  1  0  0  0  0
 10 11  1  0  0  0  0
 10 28  1  0  0  0  0
 10 29  1  0  0  0  0
 11 12  1  0  0  0  0
 11 30  1  0  0  0  0
 11 31  1  0  0  0  0
 12 13  1  0  0  0  0
 12 17  1  0  0  0  0
 12 39  1  0  0  0  0
 13 14  1  0  0  0  0
 13 32  1  0  0  0  0
 13 33  1  0  0  0  0
 14 15  1  0  0  0  0
 14 16  2  0  0  0  0
 15 34  1  0  0  0  0
 17 18  1  0  0  0  0
 17 35  1  0  0  0  0
 17 36  1  0  0  0  0
 18 37  1  0  0  0  0
 18 38  1  0  0  0  0
 19 20  1  0  0  0  0
M  CHG  1  12   1
M  CHG  1  15  -1
M  END
> <s_m_source_file>
AV-unprocessed.smi

> <i_m_source_file_index>
1417

> <i_lp_mmshare_version>
43012

> <i_f3d_flags>
0

> <s_epik_input>
W0NIM11jMVtjSF1jKG5vMSlbTkhdQyg9TylbTkhdW0NIXTJbQ0gyXVtDSDJdTihbQ0gyXVtDSDJdMilbQ0gyXUMoPU8pW05IMl0=

> <s_epik_cmdline>
J2VwaWtfcHl0aG9uJywgJy1waCcsICc3LjAnLCAnLXRuJywgJzgnLCAnLW1hJywgJzIwMCcsICctbWV0YWxfYmluZGluZycsICctaW1hZScsICc8aW5maWxlLm1hZT4nLCAnLW9tYWUnLCAnPG91dGZpbGUubWFlPic=

> <r_epik_Ionization_Penalty>
5.73218

> <r_epik_Ionization_Penalty_Charging>
5.73215

> <r_epik_Ionization_Penalty_Neutral>
3.37968e-05

> <r_epik_State_Penalty>
6.58009

> <r_epik_Charging_Adjusted_Penalty>
12.3122

> <i_epik_Tot_Q>
0

> <i_epik_Tot_abs_Q>
2

> <r_epik_Metal_State_Penalty>
2.55295

> <b_epik_Metal_Only>
1

> <s_lp_Force_Field>
OPLS_2005

> <r_lp_Energy>
6.84109

> <b_lp_Chiralities_Consistent>
1

> <s_lp_Variant>
AV-unprocessed.smi:1417-7

> <Gold.Version>
5.8.1

> <Gold.Id.Protein>
6NUR|6NUR_protein|mol2

> <Gold.PLP.Fitness>
42.6244

> <Gold.PLP.PLP>
-29.1234

> <Gold.PLP.part.hbond>
-6.6010

> <Gold.PLP.part.metal>
0.0000

> <Gold.PLP.part.buried>
-2.1837

> <Gold.PLP.part.nonpolar>
-20.6073

> <Gold.PLP.part.repulsive>
0.1498

> <Gold.PLP.ligand.clash>
0.0000

> <Gold.PLP.ligand.torsion>
0.6529

> <Gold.PLP.Chemscore.Hbond>
4.9272

> <Gold.PLP.Chemscore.CHOScore>
0.0000

> <Gold.PLP.Chemscore.Metal>
0.0000

> <Gold.Chemscore.Hbonds>
donor molecule, donor type, donor heavy atom, donor atom, acceptor molecule, acceptor atom, score
      L1  H     5    25       P1  7948  1.00
      L1  H     8    26       P1  7948  1.00
      L1  H    12    39       P1 10747  1.00
      L1  H    15    34       P1 10747  0.93
      P1  H 10752 10765       L1    19  1.00

> <Gold.PLP.Chemscore.Internal.Correction>
0.0252

> <Gold.Rescore>
     Score         DG    S(hbond)    S(metal)    S(lipo)     H(rot)  DE(clash)    DE(int)     intcor
     16.95     -17.95       3.56        0.00      49.18       2.02       0.34       0.66       ----

> <Gold.Chemscore.Fitness>
16.9542

> <Gold.Chemscore.DG>
-17.9473

> <Gold.Chemscore.ZeroCoef>
-5.4800

> <Gold.Chemscore.Hbond>
3.5563

> <Gold.Chemscore.Metal>
0.0000

> <Gold.Chemscore.Lipo>
49.1822

> <Gold.Chemscore.Internal_Hbond>
0.0000

> <Gold.Chemscore.DEClash>
0.3354

> <Gold.Chemscore.DEInternal>
0.6578

> <Gold.Chemscore.Rot>
2.0176

> <Gold.Chemscore.Internal.Correction>
   9.000000E+99

> <Gold.Chemscore.Hbonds>
donor molecule, donor type, donor heavy atom, donor atom, acceptor molecule, acceptor atom, score
      L1  H     5    25       P1  7948  0.25
      L1  H     8    26       P1  7948  0.39
      L1  H    12    39       P1 10747  1.00
      L1  H    15    34       P1 10747  0.20
      P1  H 10752 10765       L1    19  0.20

> <Gold.Chemscore.Hbond.Weighted>
-11.8781

> <Gold.Chemscore.Metal.Weighted>
-0.0000

> <Gold.Chemscore.Lipo.Weighted>
-5.7543

> <Gold.Chemscore.Internal_Hbond.Weighted>
0.0000

> <Gold.Chemscore.DEClash.Weighted>
0.3354

> <Gold.Chemscore.DEInternal.Weighted>
0.6578

> <Gold.Chemscore.Rot.Weighted>
5.1651

> <Gold.Chemscore.Internal.Correction.Weighted>
   9.000000E+99

> <Gold.Protein.RotatedTorsions>
[ 6907 6896 6895 6894 ] final   52.69 input  -60.11 | X-H torsion
[ 7974 7965 7964 7962 ] final  132.51 input  175.53 | X-H torsion
[ 8008 7997 7996 7995 ] final   74.57 input   59.86 | X-H torsion
[ 10167 10162 10161 10158 ] final  166.61 input  -65.29 | X-H torsion
[ 10718 10713 10712 10709 ] final   -5.08 input   66.30 | X-H torsion
[ 10763 10752 10751 10750 ] final -176.37 input  -60.55 | X-H torsion
[ 11005 11000 10999 10996 ] final  -69.50 input  -57.11 | X-H torsion

> <Gold.Protein.ActiveResidues>
 VAL166  LYS551  ARG553  GLY616  TRP617  ASP618  TYR619  PRO620  LYS621  CYS622 
 ASP623  PHE694  ASN695  SER759  ASP760  ASP761  ALA762  ILE779  LEU786  VAL792 
 PHE793  MET794  SER795  GLU796  ALA797  LYS798  CYS799  TRP800  GLU811  SER814 

> <Gold.Protein.RotatedAtoms>
  152.3259  134.7321  160.0301 H   0  0  0  0  0  0  0  0  0  0  0  0  # atno 6907 bound_to 6896
  151.7754  133.3339  159.3464 H   0  0  0  0  0  0  0  0  0  0  0  0  # atno 6908 bound_to 6896
  150.7395  134.5911  159.6032 H   0  0  0  0  0  0  0  0  0  0  0  0  # atno 6909 bound_to 6896
  144.9961  139.4358  143.5315 H   0  0  0  0  0  0  0  0  0  0  0  0  # atno 7974 bound_to 7965
  155.8002  140.3476  155.5398 H   0  0  0  0  0  0  0  0  0  0  0  0  # atno 8008 bound_to 7997
  155.8545  140.0961  157.1673 H   0  0  0  0  0  0  0  0  0  0  0  0  # atno 8009 bound_to 7997
  154.4009  140.1370  156.3872 H   0  0  0  0  0  0  0  0  0  0  0  0  # atno 8010 bound_to 7997
  139.4928  144.4009  151.9411 H   0  0  0  0  0  0  0  0  0  0  0  0  # atno 10167 bound_to 10162
  156.7518  130.5242  149.5802 H   0  0  0  0  0  0  0  0  0  0  0  0  # atno 10718 bound_to 10713
  154.5732  135.2829  155.0807 H   0  0  0  0  0  0  0  0  0  0  0  0  # atno 10763 bound_to 10752
  154.2172  135.6397  153.5137 H   0  0  0  0  0  0  0  0  0  0  0  0  # atno 10764 bound_to 10752
  153.0064  135.5505  154.6361 H   0  0  0  0  0  0  0  0  0  0  0  0  # atno 10765 bound_to 10752
  141.1555  133.6766  156.6609 H   0  0  0  0  0  0  0  0  0  0  0  0  # atno 11005 bound_to 11000
  146.3442  139.9322  142.8752 LP  0  0  0  0  0  0  0  0  0  0  0  0  # atno 17320 bound_to 7965
  145.2217  140.9938  143.4041 LP  0  0  0  0  0  0  0  0  0  0  0  0  # atno 17321 bound_to 7965
  140.3448  144.3160  150.5960 LP  0  0  0  0  0  0  0  0  0  0  0  0  # atno 17342 bound_to 10162
  140.5535  143.2202  151.7886 LP  0  0  0  0  0  0  0  0  0  0  0  0  # atno 17343 bound_to 10162
  156.1396  130.6235  151.0449 LP  0  0  0  0  0  0  0  0  0  0  0  0  # atno 17370 bound_to 10713
  157.6773  131.0847  150.7460 LP  0  0  0  0  0  0  0  0  0  0  0  0  # atno 17371 bound_to 10713
  140.3248  134.7978  157.4280 LP  0  0  0  0  0  0  0  0  0  0  0  0  # atno 17394 bound_to 11000
  140.1066  134.5401  155.8303 LP  0  0  0  0  0  0  0  0  0  0  0  0  # atno 17395 bound_to 11000

$$$$
