AV-unprocessed.smi:3090|AV-procd|sdf|11774|dock7
  -GOLD-   2272017153D 1   1.00000     0.00000
 Structure written by MMmdl.
 22 22  0  0  0  0  0  0  0  0  2 V2000
  145.0032  144.0377  153.5417 C   0  0  0  0  0  0  0  0  0  0  0  0
  145.8043  142.9557  154.0724 N   0  0  0  0  0  0  0  0  0  0  0  0
  147.0441  142.5197  153.6583 C   0  0  0  0  0  0  0  0  0  0  0  0
  147.4017  141.4713  154.4611 C   0  0  0  0  0  0  0  0  0  0  0  0
  148.6506  140.6302  154.4339 C   0  0  2  0  0  0  0  0  0  0  0  0
  149.5169  141.0265  153.3889 O   0  0  0  0  0  0  0  0  0  0  0  0
  148.3000  139.1447  154.2389 C   0  0  0  0  0  0  0  0  0  0  0  0
  148.1858  138.7912  152.8132 N   0  3  0  0  0  0  0  0  0  0  0  0
  146.2923  141.3444  155.3458 C   0  0  0  0  0  0  0  0  0  0  0  0
  145.3402  142.2320  155.1110 N   0  0  0  0  0  0  0  0  0  0  0  0
  145.5213  144.5137  152.7086 H   0  0  0  0  0  0  0  0  0  0  0  0
  144.8252  144.7812  154.3191 H   0  0  0  0  0  0  0  0  0  0  0  0
  144.0466  143.6509  153.1890 H   0  0  0  0  0  0  0  0  0  0  0  0
  147.5648  142.9855  152.8344 H   0  0  0  0  0  0  0  0  0  0  0  0
  149.1980  140.7471  155.3702 H   0  0  0  0  0  0  0  0  0  0  0  0
  149.5187  140.3507  152.7275 H   0  0  0  0  0  0  0  0  0  0  0  0
  149.0765  138.5168  154.6776 H   0  0  0  0  0  0  0  0  0  0  0  0
  147.3661  138.8965  154.7453 H   0  0  0  0  0  0  0  0  0  0  0  0
  148.7659  139.4088  152.2634 H   0  0  0  0  0  0  0  0  0  0  0  0
  147.2236  138.8796  152.5195 H   0  0  0  0  0  0  0  0  0  0  0  0
  146.1519  140.6344  156.1477 H   0  0  0  0  0  0  0  0  0  0  0  0
  148.4903  137.8367  152.6833 H   0  0  0  0  0  0  0  0  0  0  0  0
  1  2  1  0  0  0  0
  1 11  1  0  0  0  0
  1 12  1  0  0  0  0
  1 13  1  0  0  0  0
  2 10  1  0  0  0  0
  2  3  1  0  0  0  0
  3  4  2  0  0  0  0
  3 14  1  0  0  0  0
  4  5  1  0  0  0  0
  4  9  1  0  0  0  0
  5  6  1  0  0  0  0
  5  7  1  0  0  0  0
  5 15  1  0  0  0  0
  6 16  1  0  0  0  0
  7  8  1  0  0  0  0
  7 17  1  0  0  0  0
  7 18  1  0  0  0  0
  8 19  1  0  0  0  0
  8 20  1  0  0  0  0
  8 22  1  0  0  0  0
  9 10  2  0  0  0  0
  9 21  1  0  0  0  0
M  CHG  1   8   1
M  END
> <s_m_source_file>
AV-unprocessed.smi

> <i_m_source_file_index>
3090

> <i_lp_mmshare_version>
43012

> <i_f3d_flags>
0

> <s_epik_input>
W0NIM11uMVtjSF1jKFtjSF1uMSlbQ0BIXShbT0hdKVtDSDJdW05IMl0=

> <s_epik_cmdline>
J2VwaWtfcHl0aG9uJywgJy1waCcsICc3LjAnLCAnLXRuJywgJzgnLCAnLW1hJywgJzIwMCcsICctbWV0YWxfYmluZGluZycsICctaW1hZScsICc8aW5maWxlLm1hZT4nLCAnLW9tYWUnLCAnPG91dGZpbGUubWFlPic=

> <r_lp_tautomer_probability>
1

> <r_epik_Ionization_Penalty>
0.014056

> <r_epik_Ionization_Penalty_Charging>
0.0140431

> <r_epik_Ionization_Penalty_Neutral>
1.29738e-05

> <r_epik_State_Penalty>
0.0109628

> <r_epik_Charging_Adjusted_Penalty>
0.0250059

> <i_epik_Tot_Q>
1

> <i_epik_Tot_abs_Q>
1

> <r_epik_Metal_State_Penalty>
0.0109636

> <b_epik_Metal_Only>
0

> <s_lp_Force_Field>
OPLS_2005

> <r_lp_Energy>
1.35566

> <b_lp_Chiralities_Consistent>
1

> <s_lp_Variant>
AV-unprocessed.smi:3090-1

> <Gold.Version>
5.8.1

> <Gold.Id.Protein>
6NUR|6NUR_protein|mol2

> <Gold.PLP.Fitness>
36.8073

> <Gold.PLP.PLP>
-22.4640

> <Gold.PLP.part.hbond>
-4.4280

> <Gold.PLP.part.metal>
0.0000

> <Gold.PLP.part.buried>
-5.0100

> <Gold.PLP.part.nonpolar>
-13.7153

> <Gold.PLP.part.repulsive>
0.2040

> <Gold.PLP.ligand.clash>
0.0000

> <Gold.PLP.ligand.torsion>
0.3003

> <Gold.PLP.Chemscore.Hbond>
4.9805

> <Gold.PLP.Chemscore.CHOScore>
0.0000

> <Gold.PLP.Chemscore.Metal>
0.0000

> <Gold.Chemscore.Hbonds>
donor molecule, donor type, donor heavy atom, donor atom, acceptor molecule, acceptor atom, score
      L1  H     6    16       P1  7957  0.90
      L1  H     8    19       P1  7957  0.96
      L1  H     8    22       P1  7948  2.00
      P1  H  7989  7998       L1     6  0.08
      P1  H  8011  8017       L1     6  0.90

> <Gold.PLP.Chemscore.Internal.Correction>
0.0024

> <Gold.Rescore>
     Score         DG    S(hbond)    S(metal)    S(lipo)     H(rot)  DE(clash)    DE(int)     intcor
     15.15     -15.63       3.34        0.00      34.06       1.96       0.16       0.31       ----

> <Gold.Chemscore.Fitness>
15.1519

> <Gold.Chemscore.DG>
-15.6288

> <Gold.Chemscore.ZeroCoef>
-5.4800

> <Gold.Chemscore.Hbond>
3.3439

> <Gold.Chemscore.Metal>
0.0000

> <Gold.Chemscore.Lipo>
34.0633

> <Gold.Chemscore.Internal_Hbond>
0.0000

> <Gold.Chemscore.DEClash>
0.1644

> <Gold.Chemscore.DEInternal>
0.3125

> <Gold.Chemscore.Rot>
1.9551

> <Gold.Chemscore.Internal.Correction>
   9.000000E+99

> <Gold.Chemscore.Hbonds>
donor molecule, donor type, donor heavy atom, donor atom, acceptor molecule, acceptor atom, score
      L1  H     6    16       P1  7957  0.87
      L1  H     8    19       P1  7957  0.91
      L1  H     8    22       P1  7948  1.00
      P1  H  8011  8017       L1     6  0.18

> <Gold.Chemscore.Hbond.Weighted>
-11.1685

> <Gold.Chemscore.Metal.Weighted>
-0.0000

> <Gold.Chemscore.Lipo.Weighted>
-3.9854

> <Gold.Chemscore.Internal_Hbond.Weighted>
0.0000

> <Gold.Chemscore.DEClash.Weighted>
0.1644

> <Gold.Chemscore.DEInternal.Weighted>
0.3125

> <Gold.Chemscore.Rot.Weighted>
5.0051

> <Gold.Chemscore.Internal.Correction.Weighted>
   9.000000E+99

> <Gold.Protein.RotatedTorsions>
[ 6907 6896 6895 6894 ] final  -26.84 input  -60.11 | X-H torsion
[ 7974 7965 7964 7962 ] final  161.82 input  175.53 | X-H torsion
[ 8008 7997 7996 7995 ] final  -96.49 input   59.86 | X-H torsion
[ 10167 10162 10161 10158 ] final   39.84 input  -65.29 | X-H torsion
[ 10718 10713 10712 10709 ] final   57.08 input   66.30 | X-H torsion
[ 10763 10752 10751 10750 ] final   28.36 input  -60.55 | X-H torsion
[ 11005 11000 10999 10996 ] final  -59.08 input  -57.11 | X-H torsion

> <Gold.Protein.ActiveResidues>
 VAL166  LYS551  ARG553  GLY616  TRP617  ASP618  TYR619  PRO620  LYS621  CYS622 
 ASP623  PHE694  ASN695  SER759  ASP760  ASP761  ALA762  ILE779  LEU786  VAL792 
 PHE793  MET794  SER795  GLU796  ALA797  LYS798  CYS799  TRP800  GLU811  SER814 

> <Gold.Protein.RotatedAtoms>
  151.1553  135.0247  159.8685 H   0  0  0  0  0  0  0  0  0  0  0  0  # atno 6907 bound_to 6896
  152.5452  134.1342  159.8462 H   0  0  0  0  0  0  0  0  0  0  0  0  # atno 6908 bound_to 6896
  151.1431  133.4912  159.2629 H   0  0  0  0  0  0  0  0  0  0  0  0  # atno 6909 bound_to 6896
  144.7667  139.7951  143.6312 H   0  0  0  0  0  0  0  0  0  0  0  0  # atno 7974 bound_to 7965
  154.7752  140.0471  157.1083 H   0  0  0  0  0  0  0  0  0  0  0  0  # atno 8008 bound_to 7997
  154.9771  140.3097  155.4943 H   0  0  0  0  0  0  0  0  0  0  0  0  # atno 8009 bound_to 7997
  156.2928  140.2242  156.4868 H   0  0  0  0  0  0  0  0  0  0  0  0  # atno 8010 bound_to 7997
  140.3800  144.1992  150.6131 H   0  0  0  0  0  0  0  0  0  0  0  0  # atno 10167 bound_to 10162
  157.5485  130.8748  149.8927 H   0  0  0  0  0  0  0  0  0  0  0  0  # atno 10718 bound_to 10713
  153.0497  135.6515  154.0726 H   0  0  0  0  0  0  0  0  0  0  0  0  # atno 10763 bound_to 10752
  154.0417  135.2903  155.3355 H   0  0  0  0  0  0  0  0  0  0  0  0  # atno 10764 bound_to 10752
  154.6777  135.5332  153.8288 H   0  0  0  0  0  0  0  0  0  0  0  0  # atno 10765 bound_to 10752
  141.1233  133.6614  156.5017 H   0  0  0  0  0  0  0  0  0  0  0  0  # atno 11005 bound_to 11000
  146.1780  139.4959  142.9885 LP  0  0  0  0  0  0  0  0  0  0  0  0  # atno 17320 bound_to 7965
  145.6449  141.0276  143.1792 LP  0  0  0  0  0  0  0  0  0  0  0  0  # atno 17321 bound_to 7965
  140.4947  143.2336  151.8768 LP  0  0  0  0  0  0  0  0  0  0  0  0  # atno 17342 bound_to 10162
  139.4796  144.5127  151.8910 LP  0  0  0  0  0  0  0  0  0  0  0  0  # atno 17343 bound_to 10162
  156.0556  130.3709  150.1099 LP  0  0  0  0  0  0  0  0  0  0  0  0  # atno 17370 bound_to 10713
  156.9274  130.9702  151.3539 LP  0  0  0  0  0  0  0  0  0  0  0  0  # atno 17371 bound_to 10713
  140.4440  134.6989  157.5006 LP  0  0  0  0  0  0  0  0  0  0  0  0  # atno 17394 bound_to 11000
  140.0210  134.6548  155.9240 LP  0  0  0  0  0  0  0  0  0  0  0  0  # atno 17395 bound_to 11000

$$$$
