AV-unprocessed.smi:667|AV-procd|sdf|3256|dock5
  -GOLD-   22720 0203D 1   1.00000     0.00000
 Structure written by MMmdl.
 48 49  0  0  0  0  0  0  0  0  1 V2000
  151.8597  144.2159  157.5867 C   0  0  0  0  0  0  0  0  0  0  0  0
  152.2284  142.9581  158.3200 C   0  0  0  0  0  0  0  0  0  0  0  0
  153.2053  142.9928  159.2109 N   0  0  0  0  0  0  0  0  0  0  0  0
  153.2879  141.7322  159.6814 N   0  0  0  0  0  0  0  0  0  0  0  0
  154.2807  141.4135  160.6890 C   0  0  0  0  0  0  0  0  0  0  0  0
  152.3577  140.9000  159.0890 C   0  0  0  0  0  0  0  0  0  0  0  0
  152.2380  139.4524  159.4431 C   0  0  0  0  0  0  0  0  0  0  0  0
  151.6567  141.6580  158.1892 C   0  0  0  0  0  0  0  0  0  0  0  0
  150.5407  141.2321  157.2680 C   0  0  0  0  0  0  0  0  0  0  0  0
  150.9804  140.0338  156.4237 C   0  0  0  0  0  0  0  0  0  0  0  0
  151.5427  140.2103  155.3424 O   0  0  0  0  0  0  0  0  0  0  0  0
  150.7237  138.8187  156.9323 N   0  0  0  0  0  0  0  0  0  0  0  0
  151.0934  137.5541  156.3060 C   0  0  0  0  0  0  0  0  0  0  0  0
  149.8613  136.6486  156.0605 C   0  0  1  0  0  0  0  0  0  0  0  0
  150.2115  135.3989  155.2618 C   0  0  0  0  0  0  0  0  0  0  0  0
  150.5958  134.3758  156.3348 C   0  0  0  0  0  0  0  0  0  0  0  0
  150.1820  134.9338  157.5783 O   0  0  0  0  0  0  0  0  0  0  0  0
  149.2781  136.0012  157.3281 C   0  0  1  0  0  0  0  0  0  0  0  0
  149.1005  136.8998  158.5729 C   0  0  0  0  0  0  0  0  0  0  0  0
  148.5843  136.0850  159.7698 C   0  0  0  0  0  0  0  0  0  0  0  0
  148.1541  138.0805  158.2938 C   0  0  0  0  0  0  0  0  0  0  0  0
  150.7832  144.2774  157.4305 H   0  0  0  0  0  0  0  0  0  0  0  0
  152.3401  144.2515  156.6090 H   0  0  0  0  0  0  0  0  0  0  0  0
  152.1608  145.1063  158.1397 H   0  0  0  0  0  0  0  0  0  0  0  0
  154.9100  140.5956  160.3371 H   0  0  0  0  0  0  0  0  0  0  0  0
  153.7835  141.1101  161.6106 H   0  0  0  0  0  0  0  0  0  0  0  0
  154.9119  142.2787  160.8963 H   0  0  0  0  0  0  0  0  0  0  0  0
  151.2664  139.0558  159.1491 H   0  0  0  0  0  0  0  0  0  0  0  0
  152.3426  139.2990  160.5171 H   0  0  0  0  0  0  0  0  0  0  0  0
  153.0080  138.8676  158.9401 H   0  0  0  0  0  0  0  0  0  0  0  0
  149.6441  140.9781  157.8350 H   0  0  0  0  0  0  0  0  0  0  0  0
  150.2491  142.0377  156.5939 H   0  0  0  0  0  0  0  0  0  0  0  0
  150.2548  138.7663  157.8250 H   0  0  0  0  0  0  0  0  0  0  0  0
  151.5979  137.7737  155.3647 H   0  0  0  0  0  0  0  0  0  0  0  0
  151.8300  137.0547  156.9356 H   0  0  0  0  0  0  0  0  0  0  0  0
  149.0918  137.2263  155.5464 H   0  0  0  0  0  0  0  0  0  0  0  0
  149.3283  135.0501  154.7249 H   0  0  0  0  0  0  0  0  0  0  0  0
  151.0014  135.5482  154.5259 H   0  0  0  0  0  0  0  0  0  0  0  0
  150.1028  133.4185  156.1622 H   0  0  0  0  0  0  0  0  0  0  0  0
  151.6722  134.2043  156.3597 H   0  0  0  0  0  0  0  0  0  0  0  0
  148.3117  135.5580  157.0774 H   0  0  0  0  0  0  0  0  0  0  0  0
  150.0723  137.3027  158.8585 H   0  0  0  0  0  0  0  0  0  0  0  0
  147.6129  135.6375  159.5559 H   0  0  0  0  0  0  0  0  0  0  0  0
  148.4741  136.7128  160.6543 H   0  0  0  0  0  0  0  0  0  0  0  0
  149.2720  135.2791  160.0279 H   0  0  0  0  0  0  0  0  0  0  0  0
  147.1620  137.7315  158.0063 H   0  0  0  0  0  0  0  0  0  0  0  0
  148.5257  138.7169  157.4909 H   0  0  0  0  0  0  0  0  0  0  0  0
  148.0409  138.7096  159.1769 H   0  0  0  0  0  0  0  0  0  0  0  0
  1  2  1  0  0  0  0
  1 22  1  0  0  0  0
  1 23  1  0  0  0  0
  1 24  1  0  0  0  0
  2  8  1  0  0  0  0
  2  3  2  0  0  0  0
  3  4  1  0  0  0  0
  4  5  1  0  0  0  0
  4  6  1  0  0  0  0
  5 25  1  0  0  0  0
  5 26  1  0  0  0  0
  5 27  1  0  0  0  0
  6  7  1  0  0  0  0
  6  8  2  0  0  0  0
  7 28  1  0  0  0  0
  7 29  1  0  0  0  0
  7 30  1  0  0  0  0
  8  9  1  0  0  0  0
  9 10  1  0  0  0  0
  9 31  1  0  0  0  0
  9 32  1  0  0  0  0
 10 11  2  0  0  0  0
 10 12  1  0  0  0  0
 12 13  1  0  0  0  0
 12 33  1  0  0  0  0
 13 14  1  0  0  0  0
 13 34  1  0  0  0  0
 13 35  1  0  0  0  0
 14 18  1  0  0  0  0
 14 15  1  0  0  0  0
 14 36  1  0  0  0  0
 15 16  1  0  0  0  0
 15 37  1  0  0  0  0
 15 38  1  0  0  0  0
 16 17  1  0  0  0  0
 16 39  1  0  0  0  0
 16 40  1  0  0  0  0
 17 18  1  0  0  0  0
 18 19  1  0  0  0  0
 18 41  1  0  0  0  0
 19 20  1  0  0  0  0
 19 21  1  0  0  0  0
 19 42  1  0  0  0  0
 20 43  1  0  0  0  0
 20 44  1  0  0  0  0
 20 45  1  0  0  0  0
 21 46  1  0  0  0  0
 21 47  1  0  0  0  0
 21 48  1  0  0  0  0
M  END
> <s_m_source_file>
AV-unprocessed.smi

> <i_m_source_file_index>
667

> <i_lp_mmshare_version>
43012

> <i_f3d_flags>
0

> <s_epik_input>
W0NIM11jMW5uKFtDSDNdKWMoW0NIM10pYzFbQ0gyXUMoPU8pW05IXVtDSDJdW0NAQEhdMltDSDJdW0NIMl1PW0NASF0yW0NIXShbQ0gzXSlbQ0gzXQ==

> <s_epik_cmdline>
J2VwaWtfcHl0aG9uJywgJy1waCcsICc3LjAnLCAnLXRuJywgJzgnLCAnLW1hJywgJzIwMCcsICctbWV0YWxfYmluZGluZycsICctaW1hZScsICc8aW5maWxlLm1hZT4nLCAnLW9tYWUnLCAnPG91dGZpbGUubWFlPic=

> <r_lp_tautomer_probability>
1

> <r_epik_Ionization_Penalty>
0.00315488

> <r_epik_Ionization_Penalty_Charging>
0

> <r_epik_Ionization_Penalty_Neutral>
0.00315488

> <r_epik_State_Penalty>
0.00222269

> <r_epik_Charging_Adjusted_Penalty>
0.00222269

> <i_epik_Tot_Q>
0

> <i_epik_Tot_abs_Q>
0

> <r_epik_Metal_State_Penalty>
-0

> <b_epik_Metal_Only>
0

> <s_lp_Force_Field>
OPLS_2005

> <r_lp_Energy>
16.6838

> <b_lp_Chiralities_Consistent>
1

> <s_lp_Variant>
AV-unprocessed.smi:667-2

> <Gold.Version>
5.8.1

> <Gold.Id.Protein>
6NUR|6NUR_protein|mol2

> <Gold.PLP.Fitness>
38.5381

> <Gold.PLP.PLP>
-34.7143

> <Gold.PLP.part.hbond>
-2.0000

> <Gold.PLP.part.metal>
0.0000

> <Gold.PLP.part.buried>
-6.6084

> <Gold.PLP.part.nonpolar>
-27.2417

> <Gold.PLP.part.repulsive>
0.0220

> <Gold.PLP.ligand.clash>
0.0078

> <Gold.PLP.ligand.torsion>
0.4751

> <Gold.PLP.Chemscore.Hbond>
1.5784

> <Gold.PLP.Chemscore.CHOScore>
0.0000

> <Gold.PLP.Chemscore.Metal>
0.0000

> <Gold.Chemscore.Hbonds>
donor molecule, donor type, donor heavy atom, donor atom, acceptor molecule, acceptor atom, score
      P1  H  6896  6907       L1    17  0.64
      P1  H  7989  7998       L1    11  0.94

> <Gold.PLP.Chemscore.Internal.Correction>
0.0466

> <Gold.Rescore>
     Score         DG    S(hbond)    S(metal)    S(lipo)     H(rot)  DE(clash)    DE(int)     intcor
     15.46     -17.23       1.57        0.00      88.80       1.52       0.03       1.74       ----

> <Gold.Chemscore.Fitness>
15.4592

> <Gold.Chemscore.DG>
-17.2273

> <Gold.Chemscore.ZeroCoef>
-5.4800

> <Gold.Chemscore.Hbond>
1.5725

> <Gold.Chemscore.Metal>
0.0000

> <Gold.Chemscore.Lipo>
88.7992

> <Gold.Chemscore.Internal_Hbond>
0.0000

> <Gold.Chemscore.DEClash>
0.0310

> <Gold.Chemscore.DEInternal>
1.7371

> <Gold.Chemscore.Rot>
1.5213

> <Gold.Chemscore.Internal.Correction>
   9.000000E+99

> <Gold.Chemscore.Hbonds>
donor molecule, donor type, donor heavy atom, donor atom, acceptor molecule, acceptor atom, score
      P1  H  6896  6907       L1    17  0.58
      P1  H  7989  7998       L1    11  0.90

> <Gold.Chemscore.Hbond.Weighted>
-5.2522

> <Gold.Chemscore.Metal.Weighted>
-0.0000

> <Gold.Chemscore.Lipo.Weighted>
-10.3895

> <Gold.Chemscore.Internal_Hbond.Weighted>
0.0000

> <Gold.Chemscore.DEClash.Weighted>
0.0310

> <Gold.Chemscore.DEInternal.Weighted>
1.7371

> <Gold.Chemscore.Rot.Weighted>
3.8945

> <Gold.Chemscore.Internal.Correction.Weighted>
   9.000000E+99

> <Gold.Protein.RotatedTorsions>
[ 6907 6896 6895 6894 ] final -107.53 input  -60.11 | X-H torsion
[ 7974 7965 7964 7962 ] final -176.23 input  175.53 | X-H torsion
[ 8008 7997 7996 7995 ] final   62.34 input   59.86 | X-H torsion
[ 10167 10162 10161 10158 ] final  174.14 input  -65.29 | X-H torsion
[ 10718 10713 10712 10709 ] final  -51.36 input   66.30 | X-H torsion
[ 10763 10752 10751 10750 ] final  170.89 input  -60.55 | X-H torsion
[ 11005 11000 10999 10996 ] final  -74.95 input  -57.11 | X-H torsion

> <Gold.Protein.ActiveResidues>
 VAL166  LYS551  ARG553  GLY616  TRP617  ASP618  TYR619  PRO620  LYS621  CYS622 
 ASP623  PHE694  ASN695  SER759  ASP760  ASP761  ALA762  ILE779  LEU786  VAL792 
 PHE793  MET794  SER795  GLU796  ALA797  LYS798  CYS799  TRP800  GLU811  SER814 

> <Gold.Protein.RotatedAtoms>
  150.7449  133.9813  159.3576 H   0  0  0  0  0  0  0  0  0  0  0  0  # atno 6907 bound_to 6896
  151.7754  135.0773  160.0375 H   0  0  0  0  0  0  0  0  0  0  0  0  # atno 6908 bound_to 6896
  152.3311  133.5922  159.5846 H   0  0  0  0  0  0  0  0  0  0  0  0  # atno 6909 bound_to 6896
  144.7127  140.1201  143.6405 H   0  0  0  0  0  0  0  0  0  0  0  0  # atno 7974 bound_to 7965
  155.6128  140.3495  155.4627 H   0  0  0  0  0  0  0  0  0  0  0  0  # atno 8008 bound_to 7997
  156.0141  140.1239  157.0448 H   0  0  0  0  0  0  0  0  0  0  0  0  # atno 8009 bound_to 7997
  154.4291  140.1075  156.5857 H   0  0  0  0  0  0  0  0  0  0  0  0  # atno 8010 bound_to 7997
  139.5132  144.3181  152.0229 H   0  0  0  0  0  0  0  0  0  0  0  0  # atno 10167 bound_to 10162
  156.1717  130.4149  149.9638 H   0  0  0  0  0  0  0  0  0  0  0  0  # atno 10718 bound_to 10713
  154.4041  135.2755  155.2078 H   0  0  0  0  0  0  0  0  0  0  0  0  # atno 10763 bound_to 10752
  154.4092  135.6026  153.5946 H   0  0  0  0  0  0  0  0  0  0  0  0  # atno 10764 bound_to 10752
  152.9831  135.5945  154.4313 H   0  0  0  0  0  0  0  0  0  0  0  0  # atno 10765 bound_to 10752
  141.1640  133.6929  156.7442 H   0  0  0  0  0  0  0  0  0  0  0  0  # atno 11005 bound_to 11000
  145.9378  139.2649  143.1286 LP  0  0  0  0  0  0  0  0  0  0  0  0  # atno 17320 bound_to 7965
  145.9455  140.8948  143.0286 LP  0  0  0  0  0  0  0  0  0  0  0  0  # atno 17321 bound_to 7965
  140.2623  144.4053  150.6181 LP  0  0  0  0  0  0  0  0  0  0  0  0  # atno 17342 bound_to 10162
  140.6148  143.2171  151.6814 LP  0  0  0  0  0  0  0  0  0  0  0  0  # atno 17343 bound_to 10162
  156.7436  130.9088  151.3633 LP  0  0  0  0  0  0  0  0  0  0  0  0  # atno 17370 bound_to 10713
  157.6807  130.9137  150.0260 LP  0  0  0  0  0  0  0  0  0  0  0  0  # atno 17371 bound_to 10713
  140.2652  134.8436  157.3796 LP  0  0  0  0  0  0  0  0  0  0  0  0  # atno 17394 bound_to 11000
  140.1574  134.4773  155.7918 LP  0  0  0  0  0  0  0  0  0  0  0  0  # atno 17395 bound_to 11000

$$$$
