AV-unprocessed.smi:910|AV-procd|sdf|4126|dock10
  -GOLD-   22720 2 33D 1   1.00000     0.00000
 Structure written by MMmdl.
 46 47  0  0  0  0  0  0  0  0  1 V2000
  152.4925  144.9116  158.5765 C   0  0  0  0  0  0  0  0  0  0  0  0
  152.3492  143.4248  158.8156 C   0  0  0  0  0  0  0  0  0  0  0  0
  152.1409  142.5433  157.7920 N   0  0  0  0  0  0  0  0  0  0  0  0
  152.0450  141.2631  158.3329 C   0  0  0  0  0  0  0  0  0  0  0  0
  151.8376  140.1002  157.7962 N   0  0  0  0  0  0  0  0  0  0  0  0
  151.6790  140.0629  156.4233 C   0  0  0  0  0  0  0  0  0  0  0  0
  152.5833  140.0793  155.5831 O   0  0  0  0  0  0  0  0  0  0  0  0
  150.3803  140.0896  156.0839 N   0  0  0  0  0  0  0  0  0  0  0  0
  149.8679  140.1570  154.7188 C   0  0  0  0  0  0  0  0  0  0  0  0
  148.8578  139.0345  154.4430 C   0  0  0  0  0  0  0  0  0  0  0  0
  147.6282  139.3433  155.0796 O   0  0  0  0  0  0  0  0  0  0  0  0
  146.6086  139.8081  154.2048 C   0  0  2  0  0  0  0  0  0  0  0  0
  147.1974  140.8957  153.2847 C   0  0  0  0  0  0  0  0  0  0  0  0
  147.6383  142.1352  154.0828 C   0  0  0  0  0  0  0  0  0  0  0  0
  146.4891  142.6880  154.9403 C   0  0  0  0  0  0  0  0  0  0  0  0
  145.9038  141.6045  155.8602 C   0  0  0  0  0  0  0  0  0  0  0  0
  145.4491  140.3710  155.0551 C   0  0  2  0  0  0  0  0  0  0  0  0
  144.8177  139.2928  155.9492 C   0  0  0  0  0  0  0  0  0  0  0  0
  152.2099  141.4049  159.6874 O   0  0  0  0  0  0  0  0  0  0  0  0
  152.3904  142.7299  159.9496 C   0  0  0  0  0  0  0  0  0  0  0  0
  152.5954  143.1667  161.3825 C   0  0  0  0  0  0  0  0  0  0  0  0
  153.4575  145.2605  158.9445 H   0  0  0  0  0  0  0  0  0  0  0  0
  151.7055  145.4554  159.0992 H   0  0  0  0  0  0  0  0  0  0  0  0
  152.4246  145.1453  157.5140 H   0  0  0  0  0  0  0  0  0  0  0  0
  152.0629  142.8188  156.8235 H   0  0  0  0  0  0  0  0  0  0  0  0
  149.6979  140.0942  156.8282 H   0  0  0  0  0  0  0  0  0  0  0  0
  149.4185  141.1305  154.5157 H   0  0  0  0  0  0  0  0  0  0  0  0
  150.7126  140.0623  154.0363 H   0  0  0  0  0  0  0  0  0  0  0  0
  148.7131  138.9322  153.3669 H   0  0  0  0  0  0  0  0  0  0  0  0
  149.2370  138.0813  154.8146 H   0  0  0  0  0  0  0  0  0  0  0  0
  146.2232  138.9860  153.5984 H   0  0  0  0  0  0  0  0  0  0  0  0
  148.0408  140.5003  152.7182 H   0  0  0  0  0  0  0  0  0  0  0  0
  146.4481  141.1893  152.5486 H   0  0  0  0  0  0  0  0  0  0  0  0
  148.4805  141.8763  154.7259 H   0  0  0  0  0  0  0  0  0  0  0  0
  147.9976  142.9068  153.4017 H   0  0  0  0  0  0  0  0  0  0  0  0
  146.8422  143.5301  155.5363 H   0  0  0  0  0  0  0  0  0  0  0  0
  145.7042  143.0770  154.2906 H   0  0  0  0  0  0  0  0  0  0  0  0
  146.6491  141.3129  156.6014 H   0  0  0  0  0  0  0  0  0  0  0  0
  145.0617  142.0174  156.4160 H   0  0  0  0  0  0  0  0  0  0  0  0
  144.6702  140.7032  154.3669 H   0  0  0  0  0  0  0  0  0  0  0  0
  145.5455  138.8683  156.6397 H   0  0  0  0  0  0  0  0  0  0  0  0
  144.4183  138.4742  155.3503 H   0  0  0  0  0  0  0  0  0  0  0  0
  143.9967  139.7009  156.5392 H   0  0  0  0  0  0  0  0  0  0  0  0
  153.6518  143.3594  161.5698 H   0  0  0  0  0  0  0  0  0  0  0  0
  152.2574  142.3915  162.0703 H   0  0  0  0  0  0  0  0  0  0  0  0
  152.0345  144.0786  161.5872 H   0  0  0  0  0  0  0  0  0  0  0  0
  1 22  1  0  0  0  0
  1 23  1  0  0  0  0
  1 24  1  0  0  0  0
  1  2  1  0  0  0  0
  2  3  1  0  0  0  0
  2 20  2  0  0  0  0
  3 25  1  0  0  0  0
  3  4  1  0  0  0  0
  4 19  1  0  0  0  0
  4  5  2  0  0  0  0
  5  6  1  0  0  0  0
  6  8  1  0  0  0  0
  6  7  2  0  0  0  0
  8  9  1  0  0  0  0
  8 26  1  0  0  0  0
  9 10  1  0  0  0  0
  9 27  1  0  0  0  0
  9 28  1  0  0  0  0
 10 11  1  0  0  0  0
 10 29  1  0  0  0  0
 10 30  1  0  0  0  0
 11 12  1  0  0  0  0
 12 17  1  0  0  0  0
 12 13  1  0  0  0  0
 12 31  1  0  0  0  0
 13 14  1  0  0  0  0
 13 32  1  0  0  0  0
 13 33  1  0  0  0  0
 14 15  1  0  0  0  0
 14 34  1  0  0  0  0
 14 35  1  0  0  0  0
 15 16  1  0  0  0  0
 15 36  1  0  0  0  0
 15 37  1  0  0  0  0
 16 17  1  0  0  0  0
 16 38  1  0  0  0  0
 16 39  1  0  0  0  0
 17 18  1  0  0  0  0
 17 40  1  0  0  0  0
 18 41  1  0  0  0  0
 18 42  1  0  0  0  0
 18 43  1  0  0  0  0
 19 20  1  0  0  0  0
 20 21  1  0  0  0  0
 21 44  1  0  0  0  0
 21 45  1  0  0  0  0
 21 46  1  0  0  0  0
M  END
> <s_m_source_file>
AV-unprocessed.smi

> <i_m_source_file_index>
910

> <i_lp_mmshare_version>
43012

> <i_f3d_flags>
0

> <s_epik_input>
W0NIM11jMW5jKG9jMVtDSDNdKVtOSF1DKD1PKVtOSF1bQ0gyXVtDSDJdT1tDQEBIXTJbQ0gyXVtDSDJdW0NIMl1bQ0gyXVtDQEhdMltDSDNd

> <s_epik_cmdline>
J2VwaWtfcHl0aG9uJywgJy1waCcsICc3LjAnLCAnLXRuJywgJzgnLCAnLW1hJywgJzIwMCcsICctbWV0YWxfYmluZGluZycsICctaW1hZScsICc8aW5maWxlLm1hZT4nLCAnLW9tYWUnLCAnPG91dGZpbGUubWFlPic=

> <r_lp_tautomer_probability>
0.107061

> <r_epik_Ionization_Penalty>
0.727192

> <r_epik_Ionization_Penalty_Charging>
0.726719

> <r_epik_Ionization_Penalty_Neutral>
0.000473387

> <r_epik_State_Penalty>
2.53712

> <r_epik_Charging_Adjusted_Penalty>
3.26383

> <i_epik_Tot_Q>
0

> <i_epik_Tot_abs_Q>
0

> <r_epik_Metal_State_Penalty>
3.71015

> <b_epik_Metal_Only>
0

> <s_lp_Force_Field>
OPLS_2005

> <r_lp_Energy>
29.7751

> <b_lp_Chiralities_Consistent>
1

> <s_lp_Variant>
AV-unprocessed.smi:910-11

> <Gold.Version>
5.8.1

> <Gold.Id.Protein>
6NUR|6NUR_protein|mol2

> <Gold.PLP.Fitness>
36.7656

> <Gold.PLP.PLP>
-35.5558

> <Gold.PLP.part.hbond>
-2.0000

> <Gold.PLP.part.metal>
0.0000

> <Gold.PLP.part.buried>
-0.3012

> <Gold.PLP.part.nonpolar>
-33.5086

> <Gold.PLP.part.repulsive>
0.1527

> <Gold.PLP.ligand.clash>
0.0000

> <Gold.PLP.ligand.torsion>
1.1991

> <Gold.PLP.Chemscore.Hbond>
1.1911

> <Gold.PLP.Chemscore.CHOScore>
0.0000

> <Gold.PLP.Chemscore.Metal>
0.0000

> <Gold.Chemscore.Hbonds>
donor molecule, donor type, donor heavy atom, donor atom, acceptor molecule, acceptor atom, score
      P1  H  7989  7998       L1     7  0.05
      P1  H  7997  8010       L1     7  1.00

> <Gold.PLP.Chemscore.Internal.Correction>
0.0348

> <Gold.Rescore>
     Score         DG    S(hbond)    S(metal)    S(lipo)     H(rot)  DE(clash)    DE(int)     intcor
     13.43     -14.83       0.99        0.00      87.95       1.66       0.19       1.20       ----

> <Gold.Chemscore.Fitness>
13.4327

> <Gold.Chemscore.DG>
-14.8251

> <Gold.Chemscore.ZeroCoef>
-5.4800

> <Gold.Chemscore.Hbond>
0.9875

> <Gold.Chemscore.Metal>
0.0000

> <Gold.Chemscore.Lipo>
87.9513

> <Gold.Chemscore.Internal_Hbond>
0.0000

> <Gold.Chemscore.DEClash>
0.1926

> <Gold.Chemscore.DEInternal>
1.1998

> <Gold.Chemscore.Rot>
1.6576

> <Gold.Chemscore.Internal.Correction>
   9.000000E+99

> <Gold.Chemscore.Hbonds>
donor molecule, donor type, donor heavy atom, donor atom, acceptor molecule, acceptor atom, score
      P1  H  7989  7998       L1     7  0.04
      P1  H  7997  8010       L1     7  0.88

> <Gold.Chemscore.Hbond.Weighted>
-3.2983

> <Gold.Chemscore.Metal.Weighted>
-0.0000

> <Gold.Chemscore.Lipo.Weighted>
-10.2903

> <Gold.Chemscore.Internal_Hbond.Weighted>
0.0000

> <Gold.Chemscore.DEClash.Weighted>
0.1926

> <Gold.Chemscore.DEInternal.Weighted>
1.1998

> <Gold.Chemscore.Rot.Weighted>
4.2436

> <Gold.Chemscore.Internal.Correction.Weighted>
   9.000000E+99

> <Gold.Protein.RotatedTorsions>
[ 6907 6896 6895 6894 ] final  -84.38 input  -60.11 | X-H torsion
[ 7974 7965 7964 7962 ] final  -30.42 input  175.53 | X-H torsion
[ 8008 7997 7996 7995 ] final   77.52 input   59.86 | X-H torsion
[ 10167 10162 10161 10158 ] final  113.78 input  -65.29 | X-H torsion
[ 10718 10713 10712 10709 ] final  -56.88 input   66.30 | X-H torsion
[ 10763 10752 10751 10750 ] final  -39.55 input  -60.55 | X-H torsion
[ 11005 11000 10999 10996 ] final -135.84 input  -57.11 | X-H torsion

> <Gold.Protein.ActiveResidues>
 VAL166  LYS551  ARG553  GLY616  TRP617  ASP618  TYR619  PRO620  LYS621  CYS622 
 ASP623  PHE694  ASN695  SER759  ASP760  ASP761  ALA762  ILE779  LEU786  VAL792 
 PHE793  MET794  SER795  GLU796  ALA797  LYS798  CYS799  TRP800  GLU811  SER814 

> <Gold.Protein.RotatedAtoms>
  150.6877  134.3368  159.4850 H   0  0  0  0  0  0  0  0  0  0  0  0  # atno 6907 bound_to 6896
  152.1226  134.9192  160.0571 H   0  0  0  0  0  0  0  0  0  0  0  0  # atno 6908 bound_to 6896
  152.0392  133.3935  159.4367 H   0  0  0  0  0  0  0  0  0  0  0  0  # atno 6909 bound_to 6896
  146.1144  140.5539  142.8763 H   0  0  0  0  0  0  0  0  0  0  0  0  # atno 7974 bound_to 7965
  155.8428  140.3461  155.5643 H   0  0  0  0  0  0  0  0  0  0  0  0  # atno 8008 bound_to 7997
  155.8122  140.0900  157.1917 H   0  0  0  0  0  0  0  0  0  0  0  0  # atno 8009 bound_to 7997
  154.4005  140.1445  156.3388 H   0  0  0  0  0  0  0  0  0  0  0  0  # atno 8010 bound_to 7997
  139.6436  144.7125  151.2187 H   0  0  0  0  0  0  0  0  0  0  0  0  # atno 10167 bound_to 10162
  156.1254  130.4163  150.0365 H   0  0  0  0  0  0  0  0  0  0  0  0  # atno 10718 bound_to 10713
  153.9312  135.6771  153.4745 H   0  0  0  0  0  0  0  0  0  0  0  0  # atno 10763 bound_to 10752
  153.0978  135.4842  154.8809 H   0  0  0  0  0  0  0  0  0  0  0  0  # atno 10764 bound_to 10752
  154.7427  135.3164  154.8657 H   0  0  0  0  0  0  0  0  0  0  0  0  # atno 10765 bound_to 10752
  140.8860  134.1871  157.4559 H   0  0  0  0  0  0  0  0  0  0  0  0  # atno 11005 bound_to 11000
  144.7539  140.5260  143.6782 LP  0  0  0  0  0  0  0  0  0  0  0  0  # atno 17320 bound_to 7965
  145.5598  139.1479  143.3348 LP  0  0  0  0  0  0  0  0  0  0  0  0  # atno 17321 bound_to 7965
  140.7503  143.6269  150.8459 LP  0  0  0  0  0  0  0  0  0  0  0  0  # atno 17342 bound_to 10162
  139.9910  143.5847  152.2910 LP  0  0  0  0  0  0  0  0  0  0  0  0  # atno 17343 bound_to 10162
  156.8292  130.9386  151.3638 LP  0  0  0  0  0  0  0  0  0  0  0  0  # atno 17370 bound_to 10713
  157.6435  130.8825  149.9494 LP  0  0  0  0  0  0  0  0  0  0  0  0  # atno 17371 bound_to 10713
  139.8724  134.9838  156.5213 LP  0  0  0  0  0  0  0  0  0  0  0  0  # atno 17394 bound_to 11000
  140.8404  133.8210  155.9069 LP  0  0  0  0  0  0  0  0  0  0  0  0  # atno 17395 bound_to 11000

$$$$
