AV-unprocessed.smi:2900|AV-procd|sdf|11147|dock7
  -GOLD-   2272016 23D 1   1.00000     0.00000
 Structure written by MMmdl.
 35 36  0  0  0  0  0  0  0  0  1 V2000
  147.4052  137.2409  161.4815 O   0  0  0  0  0  0  0  0  0  0  0  0
  147.4981  136.0152  161.4197 C   0  0  0  0  0  0  0  0  0  0  0  0
  147.0534  135.1227  162.4873 C   0  0  0  0  0  0  0  0  0  0  0  0
  147.1650  133.7812  162.3837 C   0  0  0  0  0  0  0  0  0  0  0  0
  147.7441  133.2017  161.1833 C   0  0  0  0  0  0  0  0  0  0  0  0
  147.9104  131.7171  160.9707 C   0  0  0  0  0  0  0  0  0  0  0  0
  148.4102  131.4582  159.7622 F   0  0  0  0  0  0  0  0  0  0  0  0
  148.7367  131.2126  161.8874 F   0  0  0  0  0  0  0  0  0  0  0  0
  146.7315  131.1041  161.0814 F   0  0  0  0  0  0  0  0  0  0  0  0
  148.1435  133.9874  160.2357 N   0  0  0  0  0  0  0  0  0  0  0  0
  148.0233  135.3620  160.3422 N   0  0  0  0  0  0  0  0  0  0  0  0
  148.5077  136.0952  159.1663 C   0  0  0  0  0  0  0  0  0  0  0  0
  147.4760  137.1269  158.6579 C   0  0  2  0  0  0  0  0  0  0  0  0
  146.4185  136.4183  158.0409 O   0  0  0  0  0  0  0  0  0  0  0  0
  148.0798  138.0631  157.5974 C   0  0  0  0  0  0  0  0  0  0  0  0
  147.0267  138.7634  156.9482 O   0  0  0  0  0  0  0  0  0  0  0  0
  147.3572  139.7415  156.0348 C   0  0  0  0  0  0  0  0  0  0  0  0
  148.5942  139.6047  155.3711 C   0  0  0  0  0  0  0  0  0  0  0  0
  149.0122  140.5564  154.4209 C   0  0  0  0  0  0  0  0  0  0  0  0
  148.1920  141.6602  154.1233 C   0  0  0  0  0  0  0  0  0  0  0  0
  146.9552  141.8096  154.7776 C   0  0  0  0  0  0  0  0  0  0  0  0
  146.5375  140.8579  155.7285 C   0  0  0  0  0  0  0  0  0  0  0  0
  146.6228  135.5490  163.3815 H   0  0  0  0  0  0  0  0  0  0  0  0
  146.8282  133.1411  163.1855 H   0  0  0  0  0  0  0  0  0  0  0  0
  149.4373  136.6005  159.4346 H   0  0  0  0  0  0  0  0  0  0  0  0
  148.7865  135.4071  158.3656 H   0  0  0  0  0  0  0  0  0  0  0  0
  147.0905  137.7204  159.4880 H   0  0  0  0  0  0  0  0  0  0  0  0
  146.3988  136.6452  157.1239 H   0  0  0  0  0  0  0  0  0  0  0  0
  148.7236  138.7959  158.0864 H   0  0  0  0  0  0  0  0  0  0  0  0
  148.6911  137.5036  156.8866 H   0  0  0  0  0  0  0  0  0  0  0  0
  149.2295  138.7599  155.5928 H   0  0  0  0  0  0  0  0  0  0  0  0
  149.9620  140.4383  153.9208 H   0  0  0  0  0  0  0  0  0  0  0  0
  148.5105  142.3909  153.3945 H   0  0  0  0  0  0  0  0  0  0  0  0
  146.3243  142.6559  154.5498 H   0  0  0  0  0  0  0  0  0  0  0  0
  145.5824  141.0070  156.2082 H   0  0  0  0  0  0  0  0  0  0  0  0
  1  2  2  0  0  0  0
  2 11  1  0  0  0  0
  2  3  1  0  0  0  0
  3  4  2  0  0  0  0
  3 23  1  0  0  0  0
  4  5  1  0  0  0  0
  4 24  1  0  0  0  0
  5  6  1  0  0  0  0
  5 10  2  0  0  0  0
  6  7  1  0  0  0  0
  6  8  1  0  0  0  0
  6  9  1  0  0  0  0
 10 11  1  0  0  0  0
 11 12  1  0  0  0  0
 12 13  1  0  0  0  0
 12 25  1  0  0  0  0
 12 26  1  0  0  0  0
 13 14  1  0  0  0  0
 13 15  1  0  0  0  0
 13 27  1  0  0  0  0
 14 28  1  0  0  0  0
 15 16  1  0  0  0  0
 15 29  1  0  0  0  0
 15 30  1  0  0  0  0
 16 17  1  0  0  0  0
 17 22  1  0  0  0  0
 17 18  2  0  0  0  0
 18 19  1  0  0  0  0
 18 31  1  0  0  0  0
 19 20  2  0  0  0  0
 19 32  1  0  0  0  0
 20 21  1  0  0  0  0
 20 33  1  0  0  0  0
 21 22  2  0  0  0  0
 21 34  1  0  0  0  0
 22 35  1  0  0  0  0
M  END
> <s_m_source_file>
AV-unprocessed.smi

> <i_m_source_file_index>
2900

> <i_lp_mmshare_version>
43012

> <i_f3d_flags>
0

> <s_epik_input>
Tz1jMVtjSF1bY0hdYyhDKEYpKEYpRilubjFbQ0gyXVtDQEhdKFtPSF0pW0NIMl1PYzJbY0hdW2NIXVtjSF1bY0hdW2NIXTI=

> <s_epik_cmdline>
J2VwaWtfcHl0aG9uJywgJy1waCcsICc3LjAnLCAnLXRuJywgJzgnLCAnLW1hJywgJzIwMCcsICctbWV0YWxfYmluZGluZycsICctaW1hZScsICc8aW5maWxlLm1hZT4nLCAnLW9tYWUnLCAnPG91dGZpbGUubWFlPic=

> <r_lp_tautomer_probability>
1

> <r_epik_Ionization_Penalty>
1.22578e-07

> <r_epik_Ionization_Penalty_Charging>
5.40425e-09

> <r_epik_Ionization_Penalty_Neutral>
1.17174e-07

> <r_epik_State_Penalty>
-0

> <r_epik_Charging_Adjusted_Penalty>
5.40425e-09

> <i_epik_Tot_Q>
0

> <i_epik_Tot_abs_Q>
0

> <r_epik_Metal_State_Penalty>
-0

> <b_epik_Metal_Only>
0

> <s_lp_Force_Field>
OPLS_2005

> <r_lp_Energy>
34.5506

> <b_lp_Chiralities_Consistent>
1

> <s_lp_Variant>
AV-unprocessed.smi:2900-1

> <Gold.Version>
5.8.1

> <Gold.Id.Protein>
6NUR|6NUR_protein|mol2

> <Gold.PLP.Fitness>
39.1954

> <Gold.PLP.PLP>
-35.3764

> <Gold.PLP.part.hbond>
-2.0000

> <Gold.PLP.part.metal>
0.0000

> <Gold.PLP.part.buried>
-2.9182

> <Gold.PLP.part.nonpolar>
-30.2393

> <Gold.PLP.part.repulsive>
0.0000

> <Gold.PLP.ligand.clash>
0.0000

> <Gold.PLP.ligand.torsion>
0.6440

> <Gold.PLP.Chemscore.Hbond>
1.6960

> <Gold.PLP.Chemscore.CHOScore>
0.0000

> <Gold.PLP.Chemscore.Metal>
0.0000

> <Gold.Chemscore.Hbonds>
donor molecule, donor type, donor heavy atom, donor atom, acceptor molecule, acceptor atom, score
      P1  H  6931  6943       L1     1  0.88
      P1  H  6934  6947       L1     1  0.90

> <Gold.PLP.Chemscore.Internal.Correction>
0.0189

> <Gold.Rescore>
     Score         DG    S(hbond)    S(metal)    S(lipo)     H(rot)  DE(clash)    DE(int)     intcor
     10.05     -12.09       1.75        0.00      64.25       2.63       0.03       2.01       ----

> <Gold.Chemscore.Fitness>
10.0481

> <Gold.Chemscore.DG>
-12.0877

> <Gold.Chemscore.ZeroCoef>
-5.4800

> <Gold.Chemscore.Hbond>
1.7463

> <Gold.Chemscore.Metal>
0.0000

> <Gold.Chemscore.Lipo>
64.2493

> <Gold.Chemscore.Internal_Hbond>
0.0000

> <Gold.Chemscore.DEClash>
0.0255

> <Gold.Chemscore.DEInternal>
2.0141

> <Gold.Chemscore.Rot>
2.6336

> <Gold.Chemscore.Internal.Correction>
   9.000000E+99

> <Gold.Chemscore.Hbonds>
donor molecule, donor type, donor heavy atom, donor atom, acceptor molecule, acceptor atom, score
      P1  H  6931  6943       L1     1  0.82
      P1  H  6934  6947       L1     1  0.88

> <Gold.Chemscore.Hbond.Weighted>
-5.8326

> <Gold.Chemscore.Metal.Weighted>
-0.0000

> <Gold.Chemscore.Lipo.Weighted>
-7.5172

> <Gold.Chemscore.Internal_Hbond.Weighted>
0.0000

> <Gold.Chemscore.DEClash.Weighted>
0.0255

> <Gold.Chemscore.DEInternal.Weighted>
2.0141

> <Gold.Chemscore.Rot.Weighted>
6.7420

> <Gold.Chemscore.Internal.Correction.Weighted>
   9.000000E+99

> <Gold.Protein.RotatedTorsions>
[ 6907 6896 6895 6894 ] final  -41.77 input  -60.11 | X-H torsion
[ 7974 7965 7964 7962 ] final  -79.85 input  175.53 | X-H torsion
[ 8008 7997 7996 7995 ] final  -35.82 input   59.86 | X-H torsion
[ 10167 10162 10161 10158 ] final  -68.34 input  -65.29 | X-H torsion
[ 10718 10713 10712 10709 ] final  -88.10 input   66.30 | X-H torsion
[ 10763 10752 10751 10750 ] final  -24.69 input  -60.55 | X-H torsion
[ 11005 11000 10999 10996 ] final  -27.59 input  -57.11 | X-H torsion

> <Gold.Protein.ActiveResidues>
 VAL166  LYS551  ARG553  GLY616  TRP617  ASP618  TYR619  PRO620  LYS621  CYS622 
 ASP623  PHE694  ASN695  SER759  ASP760  ASP761  ALA762  ILE779  LEU786  VAL792 
 PHE793  MET794  SER795  GLU796  ALA797  LYS798  CYS799  TRP800  GLU811  SER814 

> <Gold.Protein.RotatedAtoms>
  150.9629  134.9014  159.7740 H   0  0  0  0  0  0  0  0  0  0  0  0  # atno 6907 bound_to 6896
  152.5162  134.3648  159.9307 H   0  0  0  0  0  0  0  0  0  0  0  0  # atno 6908 bound_to 6896
  151.3660  133.3831  159.2729 H   0  0  0  0  0  0  0  0  0  0  0  0  # atno 6909 bound_to 6896
  145.5678  140.9471  143.1412 H   0  0  0  0  0  0  0  0  0  0  0  0  # atno 7974 bound_to 7965
  154.4086  140.1647  156.2274 H   0  0  0  0  0  0  0  0  0  0  0  0  # atno 8008 bound_to 7997
  155.9312  140.3414  155.6227 H   0  0  0  0  0  0  0  0  0  0  0  0  # atno 8009 bound_to 7997
  155.7104  140.0756  157.2364 H   0  0  0  0  0  0  0  0  0  0  0  0  # atno 8010 bound_to 7997
  140.5515  143.2312  151.6903 H   0  0  0  0  0  0  0  0  0  0  0  0  # atno 10167 bound_to 10162
  155.9984  130.4823  150.4967 H   0  0  0  0  0  0  0  0  0  0  0  0  # atno 10718 bound_to 10713
  153.6878  135.6963  153.5099 H   0  0  0  0  0  0  0  0  0  0  0  0  # atno 10763 bound_to 10752
  153.2436  135.4298  155.0723 H   0  0  0  0  0  0  0  0  0  0  0  0  # atno 10764 bound_to 10752
  154.8381  135.3514  154.6420 H   0  0  0  0  0  0  0  0  0  0  0  0  # atno 10765 bound_to 10752
  140.9133  133.7446  156.0700 H   0  0  0  0  0  0  0  0  0  0  0  0  # atno 11005 bound_to 11000
  144.7452  139.7339  143.7295 LP  0  0  0  0  0  0  0  0  0  0  0  0  # atno 17320 bound_to 7965
  146.1806  139.4997  142.9869 LP  0  0  0  0  0  0  0  0  0  0  0  0  # atno 17321 bound_to 7965
  139.5029  144.3811  152.0375 LP  0  0  0  0  0  0  0  0  0  0  0  0  # atno 17342 bound_to 10162
  140.2928  144.3734  150.6083 LP  0  0  0  0  0  0  0  0  0  0  0  0  # atno 17343 bound_to 10162
  157.2956  131.0635  151.2104 LP  0  0  0  0  0  0  0  0  0  0  0  0  # atno 17370 bound_to 10713
  157.3101  130.6885  149.6211 LP  0  0  0  0  0  0  0  0  0  0  0  0  # atno 17371 bound_to 10713
  140.8082  134.3430  157.5419 LP  0  0  0  0  0  0  0  0  0  0  0  0  # atno 17394 bound_to 11000
  139.8761  134.9238  156.3335 LP  0  0  0  0  0  0  0  0  0  0  0  0  # atno 17395 bound_to 11000

$$$$
