AV-unprocessed.smi:365|AV-procd|sdf|2428|dock8
  -GOLD-   2262022373D 1   1.00000     0.00000
 Structure written by MMmdl.
 53 54  0  0  0  0  0  0  0  0  1 V2000
  147.4611  135.7673  156.7782 C   0  0  0  0  0  0  0  0  0  0  0  0
  148.3186  135.5795  155.5106 C   0  0  1  0  0  0  0  0  0  0  0  0
  147.5691  135.7338  154.2590 N   0  0  0  0  0  0  0  0  0  0  0  0
  146.2427  135.6306  154.0484 C   0  0  0  0  0  0  0  0  0  0  0  0
  145.4348  135.4127  154.9520 O   0  0  0  0  0  0  0  0  0  0  0  0
  145.7613  135.8250  152.5907 C   0  0  0  0  0  0  0  0  0  0  0  0
  146.2817  137.1767  152.0591 C   0  0  0  0  0  0  0  0  0  0  0  0
  144.2171  135.8299  152.5236 C   0  0  0  0  0  0  0  0  0  0  0  0
  146.2838  134.6713  151.7073 C   0  0  0  0  0  0  0  0  0  0  0  0
  149.6305  136.3768  155.5267 C   0  0  0  0  0  0  0  0  0  0  0  0
  150.3978  136.3069  156.4873 O   0  0  0  0  0  0  0  0  0  0  0  0
  149.8873  137.1158  154.4365 N   0  0  0  0  0  0  0  0  0  0  0  0
  151.0945  137.9082  154.2262 C   0  0  0  0  0  0  0  0  0  0  0  0
  151.3167  138.9889  155.2744 C   0  0  0  0  0  0  0  0  0  0  0  0
  150.4220  140.0709  155.3796 C   0  0  0  0  0  0  0  0  0  0  0  0
  150.6583  141.0671  156.3464 C   0  0  0  0  0  0  0  0  0  0  0  0
  151.7951  140.9614  157.1888 C   0  0  0  0  0  0  0  0  0  0  0  0
  152.0897  141.9241  158.1832 N   0  0  0  0  0  0  0  0  0  0  0  0
  151.3501  143.1854  158.1181 C   0  0  0  0  0  0  0  0  0  0  0  0
  152.0017  144.2466  159.0208 C   0  0  0  0  0  0  0  0  0  0  0  0
  152.1324  143.7413  160.3443 O   0  0  0  0  0  0  0  0  0  0  0  0
  152.9774  142.5976  160.3858 C   0  0  0  0  0  0  0  0  0  0  0  0
  152.3646  141.4660  159.5432 C   0  0  0  0  0  0  0  0  0  0  0  0
  152.6527  139.9174  157.0789 N   0  0  0  0  0  0  0  0  0  0  0  0
  152.4213  138.9655  156.1515 C   0  0  0  0  0  0  0  0  0  0  0  0
  148.0085  135.4487  157.6659 H   0  0  0  0  0  0  0  0  0  0  0  0
  146.5477  135.1738  156.7286 H   0  0  0  0  0  0  0  0  0  0  0  0
  147.1795  136.8084  156.9355 H   0  0  0  0  0  0  0  0  0  0  0  0
  148.6084  134.5276  155.5013 H   0  0  0  0  0  0  0  0  0  0  0  0
  148.1314  135.9356  153.4452 H   0  0  0  0  0  0  0  0  0  0  0  0
  145.9252  137.3647  151.0458 H   0  0  0  0  0  0  0  0  0  0  0  0
  147.3715  137.2100  152.0274 H   0  0  0  0  0  0  0  0  0  0  0  0
  145.9454  138.0072  152.6818 H   0  0  0  0  0  0  0  0  0  0  0  0
  143.7897  136.6479  153.1056 H   0  0  0  0  0  0  0  0  0  0  0  0
  143.7939  134.8976  152.9008 H   0  0  0  0  0  0  0  0  0  0  0  0
  143.8677  135.9501  151.4977 H   0  0  0  0  0  0  0  0  0  0  0  0
  145.9081  134.7568  150.6872 H   0  0  0  0  0  0  0  0  0  0  0  0
  145.9665  133.7003  152.0900 H   0  0  0  0  0  0  0  0  0  0  0  0
  147.3728  134.6627  151.6458 H   0  0  0  0  0  0  0  0  0  0  0  0
  149.2059  137.1151  153.6914 H   0  0  0  0  0  0  0  0  0  0  0  0
  151.9496  137.2324  154.2491 H   0  0  0  0  0  0  0  0  0  0  0  0
  151.0822  138.3534  153.2296 H   0  0  0  0  0  0  0  0  0  0  0  0
  149.5639  140.1417  154.7274 H   0  0  0  0  0  0  0  0  0  0  0  0
  149.9670  141.8931  156.4102 H   0  0  0  0  0  0  0  0  0  0  0  0
  151.3073  143.5774  157.1020 H   0  0  0  0  0  0  0  0  0  0  0  0
  150.3220  143.0054  158.4346 H   0  0  0  0  0  0  0  0  0  0  0  0
  152.9785  144.5397  158.6327 H   0  0  0  0  0  0  0  0  0  0  0  0
  151.3868  145.1463  159.0448 H   0  0  0  0  0  0  0  0  0  0  0  0
  153.9747  142.8550  160.0252 H   0  0  0  0  0  0  0  0  0  0  0  0
  153.0881  142.2760  161.4212 H   0  0  0  0  0  0  0  0  0  0  0  0
  151.4374  141.1173  159.9997 H   0  0  0  0  0  0  0  0  0  0  0  0
  153.0631  140.6292  159.5296 H   0  0  0  0  0  0  0  0  0  0  0  0
  153.1485  138.1677  156.1099 H   0  0  0  0  0  0  0  0  0  0  0  0
  1  2  1  0  0  0  0
  1 26  1  0  0  0  0
  1 27  1  0  0  0  0
  1 28  1  0  0  0  0
  2  3  1  0  0  0  0
  2 10  1  0  0  0  0
  2 29  1  0  0  0  0
  3  4  1  0  0  0  0
  3 30  1  0  0  0  0
  4  5  2  0  0  0  0
  4  6  1  0  0  0  0
  6  7  1  0  0  0  0
  6  8  1  0  0  0  0
  6  9  1  0  0  0  0
  7 31  1  0  0  0  0
  7 32  1  0  0  0  0
  7 33  1  0  0  0  0
  8 34  1  0  0  0  0
  8 35  1  0  0  0  0
  8 36  1  0  0  0  0
  9 37  1  0  0  0  0
  9 38  1  0  0  0  0
  9 39  1  0  0  0  0
 10 11  2  0  0  0  0
 10 12  1  0  0  0  0
 12 13  1  0  0  0  0
 12 40  1  0  0  0  0
 13 14  1  0  0  0  0
 13 41  1  0  0  0  0
 13 42  1  0  0  0  0
 14 25  1  0  0  0  0
 14 15  2  0  0  0  0
 15 16  1  0  0  0  0
 15 43  1  0  0  0  0
 16 17  2  0  0  0  0
 16 44  1  0  0  0  0
 17 18  1  0  0  0  0
 17 24  1  0  0  0  0
 18 23  1  0  0  0  0
 18 19  1  0  0  0  0
 19 20  1  0  0  0  0
 19 45  1  0  0  0  0
 19 46  1  0  0  0  0
 20 21  1  0  0  0  0
 20 47  1  0  0  0  0
 20 48  1  0  0  0  0
 21 22  1  0  0  0  0
 22 23  1  0  0  0  0
 22 49  1  0  0  0  0
 22 50  1  0  0  0  0
 23 51  1  0  0  0  0
 23 52  1  0  0  0  0
 24 25  2  0  0  0  0
 25 53  1  0  0  0  0
M  END
> <s_m_source_file>
AV-unprocessed.smi

> <i_m_source_file_index>
365

> <i_lp_mmshare_version>
43012

> <i_f3d_flags>
0

> <s_epik_input>
W0NIM11DKFtDSDNdKShbQ0gzXSlDKD1PKVtOSF1bQ0BASF0oW0NIM10pQyg9TylbTkhdW0NIMl1jMVtjSF1bY0hdYyhuW2NIXTEpTjJbQ0gyXVtDSDJdT1tDSDJdW0NIMl0y

> <s_epik_cmdline>
J2VwaWtfcHl0aG9uJywgJy1waCcsICc3LjAnLCAnLXRuJywgJzgnLCAnLW1hJywgJzIwMCcsICctbWV0YWxfYmluZGluZycsICctaW1hZScsICc8aW5maWxlLm1hZT4nLCAnLW9tYWUnLCAnPG91dGZpbGUubWFlPic=

> <r_lp_tautomer_probability>
1

> <r_epik_Ionization_Penalty>
0.00484327

> <r_epik_Ionization_Penalty_Charging>
0

> <r_epik_Ionization_Penalty_Neutral>
0.00484327

> <r_epik_State_Penalty>
0.0035131

> <r_epik_Charging_Adjusted_Penalty>
0.0035131

> <i_epik_Tot_Q>
0

> <i_epik_Tot_abs_Q>
0

> <r_epik_Metal_State_Penalty>
-0

> <b_epik_Metal_Only>
0

> <s_lp_Force_Field>
OPLS_2005

> <r_lp_Energy>
26.0036

> <b_lp_Chiralities_Consistent>
1

> <s_lp_Variant>
AV-unprocessed.smi:365-2

> <Gold.Version>
5.8.1

> <Gold.Id.Protein>
6NUR|6NUR_protein|mol2

> <Gold.PLP.Fitness>
47.9091

> <Gold.PLP.PLP>
-41.3063

> <Gold.PLP.part.hbond>
-3.0000

> <Gold.PLP.part.metal>
0.0000

> <Gold.PLP.part.buried>
-2.8381

> <Gold.PLP.part.nonpolar>
-35.3439

> <Gold.PLP.part.repulsive>
0.0986

> <Gold.PLP.ligand.clash>
0.0000

> <Gold.PLP.ligand.torsion>
0.7788

> <Gold.PLP.Chemscore.Hbond>
2.4640

> <Gold.PLP.Chemscore.CHOScore>
0.0000

> <Gold.PLP.Chemscore.Metal>
0.0000

> <Gold.Chemscore.Hbonds>
donor molecule, donor type, donor heavy atom, donor atom, acceptor molecule, acceptor atom, score
      L1  H     3    30       P1  7948  1.00
      L1  H    12    40       P1  7948  0.74
      P1  H  7997  8010       L1    24  0.80

> <Gold.PLP.Chemscore.Internal.Correction>
0.7684

> <Gold.Rescore>
     Score         DG    S(hbond)    S(metal)    S(lipo)     H(rot)  DE(clash)    DE(int)     intcor
     15.89     -18.23       1.82        0.00     101.59       2.04       0.15       2.19       ----

> <Gold.Chemscore.Fitness>
15.8863

> <Gold.Chemscore.DG>
-18.2309

> <Gold.Chemscore.ZeroCoef>
-5.4800

> <Gold.Chemscore.Hbond>
1.8201

> <Gold.Chemscore.Metal>
0.0000

> <Gold.Chemscore.Lipo>
101.5860

> <Gold.Chemscore.Internal_Hbond>
0.0000

> <Gold.Chemscore.DEClash>
0.1497

> <Gold.Chemscore.DEInternal>
2.1948

> <Gold.Chemscore.Rot>
2.0367

> <Gold.Chemscore.Internal.Correction>
   9.000000E+99

> <Gold.Chemscore.Hbonds>
donor molecule, donor type, donor heavy atom, donor atom, acceptor molecule, acceptor atom, score
      L1  H     3    30       P1  7948  1.00
      L1  H    12    40       P1  7948  0.69
      P1  H  7997  8010       L1    24  0.12

> <Gold.Chemscore.Hbond.Weighted>
-6.0793

> <Gold.Chemscore.Metal.Weighted>
-0.0000

> <Gold.Chemscore.Lipo.Weighted>
-11.8856

> <Gold.Chemscore.Internal_Hbond.Weighted>
0.0000

> <Gold.Chemscore.DEClash.Weighted>
0.1497

> <Gold.Chemscore.DEInternal.Weighted>
2.1948

> <Gold.Chemscore.Rot.Weighted>
5.2140

> <Gold.Chemscore.Internal.Correction.Weighted>
   9.000000E+99

> <Gold.Protein.RotatedTorsions>
[ 6907 6896 6895 6894 ] final   -9.44 input  -60.11 | X-H torsion
[ 7974 7965 7964 7962 ] final   95.77 input  175.53 | X-H torsion
[ 8008 7997 7996 7995 ] final   53.69 input   59.86 | X-H torsion
[ 10167 10162 10161 10158 ] final -152.18 input  -65.29 | X-H torsion
[ 10718 10713 10712 10709 ] final  176.07 input   66.30 | X-H torsion
[ 10763 10752 10751 10750 ] final   99.24 input  -60.55 | X-H torsion
[ 11005 11000 10999 10996 ] final  -77.61 input  -57.11 | X-H torsion

> <Gold.Protein.ActiveResidues>
 VAL166  LYS551  ARG553  GLY616  TRP617  ASP618  TYR619  PRO620  LYS621  CYS622 
 ASP623  PHE694  ASN695  SER759  ASP760  ASP761  ALA762  ILE779  LEU786  VAL792 
 PHE793  MET794  SER795  GLU796  ALA797  LYS798  CYS799  TRP800  GLU811  SER814 

> <Gold.Protein.RotatedAtoms>
  151.4178  135.0994  159.9604 H   0  0  0  0  0  0  0  0  0  0  0  0  # atno 6907 bound_to 6896
  152.4998  133.8736  159.7321 H   0  0  0  0  0  0  0  0  0  0  0  0  # atno 6908 bound_to 6896
  150.9245  133.6783  159.2852 H   0  0  0  0  0  0  0  0  0  0  0  0  # atno 6909 bound_to 6896
  145.4477  139.2296  143.3057 H   0  0  0  0  0  0  0  0  0  0  0  0  # atno 7974 bound_to 7965
  155.4724  140.3465  155.4327 H   0  0  0  0  0  0  0  0  0  0  0  0  # atno 8008 bound_to 7997
  156.1092  140.1456  156.9391 H   0  0  0  0  0  0  0  0  0  0  0  0  # atno 8009 bound_to 7997
  154.4745  140.0890  156.7206 H   0  0  0  0  0  0  0  0  0  0  0  0  # atno 8010 bound_to 7997
  139.7203  143.8967  152.2501 H   0  0  0  0  0  0  0  0  0  0  0  0  # atno 10167 bound_to 10162
  156.9255  130.9954  151.2997 H   0  0  0  0  0  0  0  0  0  0  0  0  # atno 10718 bound_to 10713
  153.2990  135.4120  155.1235 H   0  0  0  0  0  0  0  0  0  0  0  0  # atno 10763 bound_to 10752
  154.8543  135.3537  154.5878 H   0  0  0  0  0  0  0  0  0  0  0  0  # atno 10764 bound_to 10752
  153.6302  135.7061  153.5336 H   0  0  0  0  0  0  0  0  0  0  0  0  # atno 10765 bound_to 10752
  141.1661  133.7029  156.7847 H   0  0  0  0  0  0  0  0  0  0  0  0  # atno 11005 bound_to 11000
  146.2522  140.5232  142.8889 LP  0  0  0  0  0  0  0  0  0  0  0  0  # atno 17320 bound_to 7965
  144.8081  140.6337  143.6433 LP  0  0  0  0  0  0  0  0  0  0  0  0  # atno 17321 bound_to 7965
  139.8861  144.6991  150.8822 LP  0  0  0  0  0  0  0  0  0  0  0  0  # atno 17342 bound_to 10162
  140.7752  143.3622  151.1806 LP  0  0  0  0  0  0  0  0  0  0  0  0  # atno 17343 bound_to 10162
  157.5880  130.8423  149.8618 LP  0  0  0  0  0  0  0  0  0  0  0  0  # atno 17370 bound_to 10713
  156.0471  130.3725  150.1291 LP  0  0  0  0  0  0  0  0  0  0  0  0  # atno 17371 bound_to 10713
  140.2369  134.8643  157.3533 LP  0  0  0  0  0  0  0  0  0  0  0  0  # atno 17394 bound_to 11000
  140.1835  134.4460  155.7758 LP  0  0  0  0  0  0  0  0  0  0  0  0  # atno 17395 bound_to 11000

$$$$
