AV-unprocessed.smi:1826|AV-procd|sdf|7415|dock9
  -GOLD-   22720 9 93D 1   1.00000     0.00000
 Structure written by MMmdl.
 39 41  0  0  0  0  0  0  0  0  1 V2000
  151.1258  139.9287  154.6638 O   0  0  0  0  0  0  0  0  0  0  0  0
  150.2737  140.0723  155.7798 C   0  0  0  0  0  0  0  0  0  0  0  0
  150.8145  141.0293  156.7985 C   0  0  0  0  0  0  0  0  0  0  0  0
  150.9752  142.3238  156.5212 N   0  0  0  0  0  0  0  0  0  0  0  0
  151.5365  142.8171  157.6817 C   0  0  0  0  0  0  0  0  0  0  0  0
  151.9479  144.1271  158.0166 C   0  0  0  0  0  0  0  0  0  0  0  0
  152.5149  144.3969  159.2793 C   0  0  0  0  0  0  0  0  0  0  0  0
  152.6830  143.3618  160.2211 C   0  0  0  0  0  0  0  0  0  0  0  0
  152.2810  142.0499  159.9064 C   0  0  0  0  0  0  0  0  0  0  0  0
  151.7041  141.7865  158.6490 C   0  0  0  0  0  0  0  0  0  0  0  0
  151.1944  140.6397  158.0433 N   0  0  0  0  0  0  0  0  0  0  0  0
  151.1258  139.3080  158.6394 C   0  0  0  0  0  0  0  0  0  0  0  0
  152.4323  138.4868  158.5131 C   0  0  2  0  0  0  0  0  0  0  0  0
  152.1442  137.1317  158.2298 O   0  0  0  0  0  0  0  0  0  0  0  0
  153.3583  138.6560  159.7117 C   0  0  0  0  0  0  0  0  0  0  0  0
  153.3537  137.7287  160.7780 C   0  0  0  0  0  0  0  0  0  0  0  0
  154.1957  137.9183  161.8904 C   0  0  0  0  0  0  0  0  0  0  0  0
  155.0531  139.0378  161.9537 C   0  0  0  0  0  0  0  0  0  0  0  0
  155.9666  139.2518  163.1515 C   0  0  0  0  0  0  0  0  0  0  0  0
  157.2362  139.2015  162.7503 F   0  0  0  0  0  0  0  0  0  0  0  0
  155.7374  140.4435  163.7041 F   0  0  0  0  0  0  0  0  0  0  0  0
  155.7740  138.3168  164.0827 F   0  0  0  0  0  0  0  0  0  0  0  0
  155.0666  139.9567  160.8828 C   0  0  0  0  0  0  0  0  0  0  0  0
  154.2245  139.7679  159.7703 C   0  0  0  0  0  0  0  0  0  0  0  0
  151.3253  139.0116  154.5552 H   0  0  0  0  0  0  0  0  0  0  0  0
  149.3035  140.4288  155.4318 H   0  0  0  0  0  0  0  0  0  0  0  0
  150.1017  139.0960  156.2283 H   0  0  0  0  0  0  0  0  0  0  0  0
  151.8285  144.9256  157.2996 H   0  0  0  0  0  0  0  0  0  0  0  0
  152.8248  145.4022  159.5251 H   0  0  0  0  0  0  0  0  0  0  0  0
  153.1199  143.5750  161.1859 H   0  0  0  0  0  0  0  0  0  0  0  0
  152.4086  141.2570  160.6277 H   0  0  0  0  0  0  0  0  0  0  0  0
  150.8514  139.4063  159.6896 H   0  0  0  0  0  0  0  0  0  0  0  0
  150.3021  138.7668  158.1725 H   0  0  0  0  0  0  0  0  0  0  0  0
  152.9711  138.8602  157.6414 H   0  0  0  0  0  0  0  0  0  0  0  0
  151.7648  137.0816  157.3657 H   0  0  0  0  0  0  0  0  0  0  0  0
  152.6923  136.8749  160.7584 H   0  0  0  0  0  0  0  0  0  0  0  0
  154.1743  137.1999  162.6965 H   0  0  0  0  0  0  0  0  0  0  0  0
  155.7231  140.8140  160.9130 H   0  0  0  0  0  0  0  0  0  0  0  0
  154.2389  140.4867  158.9641 H   0  0  0  0  0  0  0  0  0  0  0  0
  1  2  1  0  0  0  0
  1 25  1  0  0  0  0
  2  3  1  0  0  0  0
  2 26  1  0  0  0  0
  2 27  1  0  0  0  0
  3 11  1  0  0  0  0
  3  4  2  0  0  0  0
  4  5  1  0  0  0  0
  5 10  2  0  0  0  0
  5  6  1  0  0  0  0
  6  7  2  0  0  0  0
  6 28  1  0  0  0  0
  7  8  1  0  0  0  0
  7 29  1  0  0  0  0
  8  9  2  0  0  0  0
  8 30  1  0  0  0  0
  9 10  1  0  0  0  0
  9 31  1  0  0  0  0
 10 11  1  0  0  0  0
 11 12  1  0  0  0  0
 12 13  1  0  0  0  0
 12 32  1  0  0  0  0
 12 33  1  0  0  0  0
 13 14  1  0  0  0  0
 13 15  1  0  0  0  0
 13 34  1  0  0  0  0
 14 35  1  0  0  0  0
 15 24  1  0  0  0  0
 15 16  2  0  0  0  0
 16 17  1  0  0  0  0
 16 36  1  0  0  0  0
 17 18  2  0  0  0  0
 17 37  1  0  0  0  0
 18 19  1  0  0  0  0
 18 23  1  0  0  0  0
 19 20  1  0  0  0  0
 19 21  1  0  0  0  0
 19 22  1  0  0  0  0
 23 24  2  0  0  0  0
 23 38  1  0  0  0  0
 24 39  1  0  0  0  0
M  END
> <s_m_source_file>
AV-unprocessed.smi

> <i_m_source_file_index>
1826

> <i_lp_mmshare_version>
43012

> <i_f3d_flags>
0

> <s_epik_input>
W2NIXTFbY0hdW2NIXVtjSF1jKGMxMiluKGMobjIpW0NIMl1bT0hdKVtDSDJdW0NASF0oW09IXSljM1tjSF1bY0hdYyhDKEYpKEYpRilbY0hdW2NIXTM=

> <s_epik_cmdline>
J2VwaWtfcHl0aG9uJywgJy1waCcsICc3LjAnLCAnLXRuJywgJzgnLCAnLW1hJywgJzIwMCcsICctbWV0YWxfYmluZGluZycsICctaW1hZScsICc8aW5maWxlLm1hZT4nLCAnLW9tYWUnLCAnPG91dGZpbGUubWFlPic=

> <r_epik_Ionization_Penalty>
0.0634718

> <r_epik_Ionization_Penalty_Charging>
0

> <r_epik_Ionization_Penalty_Neutral>
0.0634718

> <r_epik_State_Penalty>
0.0551572

> <r_epik_Charging_Adjusted_Penalty>
0.0551572

> <i_epik_Tot_Q>
0

> <i_epik_Tot_abs_Q>
0

> <r_epik_Metal_State_Penalty>
5.78034e-05

> <b_epik_Metal_Only>
0

> <s_lp_Force_Field>
OPLS_2005

> <r_lp_Energy>
13.2523

> <b_lp_Chiralities_Consistent>
1

> <s_lp_Variant>
AV-unprocessed.smi:1826-1

> <Gold.Version>
5.8.1

> <Gold.Id.Protein>
6NUR|6NUR_protein|mol2

> <Gold.PLP.Fitness>
46.3081

> <Gold.PLP.PLP>
-46.3562

> <Gold.PLP.part.hbond>
-1.0000

> <Gold.PLP.part.metal>
0.0000

> <Gold.PLP.part.buried>
-6.2267

> <Gold.PLP.part.nonpolar>
-39.8243

> <Gold.PLP.part.repulsive>
0.0980

> <Gold.PLP.ligand.clash>
0.7059

> <Gold.PLP.ligand.torsion>
1.5964

> <Gold.PLP.Chemscore.Hbond>
1.0000

> <Gold.PLP.Chemscore.CHOScore>
0.0000

> <Gold.PLP.Chemscore.Metal>
0.0000

> <Gold.Chemscore.Hbonds>
donor molecule, donor type, donor heavy atom, donor atom, acceptor molecule, acceptor atom, score
      P1  H  7989  7998       L1     1  1.00

> <Gold.PLP.Chemscore.Internal.Correction>
0.8506

> <Gold.Rescore>
     Score         DG    S(hbond)    S(metal)    S(lipo)     H(rot)  DE(clash)    DE(int)     intcor
     15.85     -17.35       1.58        0.00     120.09       2.91       0.07       1.43       ----

> <Gold.Chemscore.Fitness>
15.8492

> <Gold.Chemscore.DG>
-17.3458

> <Gold.Chemscore.ZeroCoef>
-5.4800

> <Gold.Chemscore.Hbond>
1.5793

> <Gold.Chemscore.Metal>
0.0000

> <Gold.Chemscore.Lipo>
120.0926

> <Gold.Chemscore.Internal_Hbond>
0.0000

> <Gold.Chemscore.DEClash>
0.0663

> <Gold.Chemscore.DEInternal>
1.4302

> <Gold.Chemscore.Rot>
2.9141

> <Gold.Chemscore.Internal.Correction>
   9.000000E+99

> <Gold.Chemscore.Hbonds>
donor molecule, donor type, donor heavy atom, donor atom, acceptor molecule, acceptor atom, score
      P1  H  7989  7998       L1     1  0.88

> <Gold.Chemscore.Hbond.Weighted>
-5.2750

> <Gold.Chemscore.Metal.Weighted>
-0.0000

> <Gold.Chemscore.Lipo.Weighted>
-14.0508

> <Gold.Chemscore.Internal_Hbond.Weighted>
0.0000

> <Gold.Chemscore.DEClash.Weighted>
0.0663

> <Gold.Chemscore.DEInternal.Weighted>
1.4302

> <Gold.Chemscore.Rot.Weighted>
7.4600

> <Gold.Chemscore.Internal.Correction.Weighted>
   9.000000E+99

> <Gold.Protein.RotatedTorsions>
[ 6907 6896 6895 6894 ] final  126.95 input  -60.11 | X-H torsion
[ 7974 7965 7964 7962 ] final -110.00 input  175.53 | X-H torsion
[ 8008 7997 7996 7995 ] final  145.94 input   59.86 | X-H torsion
[ 10167 10162 10161 10158 ] final -142.00 input  -65.29 | X-H torsion
[ 10718 10713 10712 10709 ] final  159.44 input   66.30 | X-H torsion
[ 10763 10752 10751 10750 ] final   62.24 input  -60.55 | X-H torsion
[ 11005 11000 10999 10996 ] final  106.97 input  -57.11 | X-H torsion

> <Gold.Protein.ActiveResidues>
 VAL166  LYS551  ARG553  GLY616  TRP617  ASP618  TYR619  PRO620  LYS621  CYS622 
 ASP623  PHE694  ASN695  SER759  ASP760  ASP761  ALA762  ILE779  LEU786  VAL792 
 PHE793  MET794  SER795  GLU796  ALA797  LYS798  CYS799  TRP800  GLU811  SER814 

> <Gold.Protein.RotatedAtoms>
  152.3857  133.6607  159.6196 H   0  0  0  0  0  0  0  0  0  0  0  0  # atno 6907 bound_to 6896
  150.7776  133.9040  159.3358 H   0  0  0  0  0  0  0  0  0  0  0  0  # atno 6908 bound_to 6896
  151.6837  135.0959  160.0272 H   0  0  0  0  0  0  0  0  0  0  0  0  # atno 6909 bound_to 6896
  145.1736  140.8938  143.3521 H   0  0  0  0  0  0  0  0  0  0  0  0  # atno 7974 bound_to 7965
  156.2869  140.2195  156.5297 H   0  0  0  0  0  0  0  0  0  0  0  0  # atno 8008 bound_to 7997
  154.7459  140.0484  157.0874 H   0  0  0  0  0  0  0  0  0  0  0  0  # atno 8009 bound_to 7997
  155.0171  140.3119  155.4811 H   0  0  0  0  0  0  0  0  0  0  0  0  # atno 8010 bound_to 7997
  139.8130  143.7677  152.2664 H   0  0  0  0  0  0  0  0  0  0  0  0  # atno 10167 bound_to 10162
  157.1642  131.0594  151.2216 H   0  0  0  0  0  0  0  0  0  0  0  0  # atno 10718 bound_to 10713
  152.9976  135.5472  154.6161 H   0  0  0  0  0  0  0  0  0  0  0  0  # atno 10763 bound_to 10752
  154.5471  135.2824  155.1045 H   0  0  0  0  0  0  0  0  0  0  0  0  # atno 10764 bound_to 10752
  154.2299  135.6435  153.5224 H   0  0  0  0  0  0  0  0  0  0  0  0  # atno 10765 bound_to 10752
  139.8821  134.9386  156.5748 H   0  0  0  0  0  0  0  0  0  0  0  0  # atno 11005 bound_to 11000
  145.0207  139.3426  143.6073 LP  0  0  0  0  0  0  0  0  0  0  0  0  # atno 17320 bound_to 7965
  146.3464  139.9507  142.8729 LP  0  0  0  0  0  0  0  0  0  0  0  0  # atno 17321 bound_to 7965
  139.7831  144.7437  151.0059 LP  0  0  0  0  0  0  0  0  0  0  0  0  # atno 17342 bound_to 10162
  140.7817  143.4520  151.0399 LP  0  0  0  0  0  0  0  0  0  0  0  0  # atno 17343 bound_to 10162
  157.4104  130.7382  149.6835 LP  0  0  0  0  0  0  0  0  0  0  0  0  # atno 17370 bound_to 10713
  155.9749  130.4097  150.3891 LP  0  0  0  0  0  0  0  0  0  0  0  0  # atno 17371 bound_to 10713
  140.8071  133.8459  155.8777 LP  0  0  0  0  0  0  0  0  0  0  0  0  # atno 17394 bound_to 11000
  140.9540  134.1742  157.4706 LP  0  0  0  0  0  0  0  0  0  0  0  0  # atno 17395 bound_to 11000

$$$$
