AV-unprocessed.smi:2277|AV-procd|sdf|9178|dock2
  -GOLD-   2272012393D 1   1.00000     0.00000
 Structure written by MMmdl.
 37 38  0  0  0  0  0  0  0  0  1 V2000
  143.4568  133.5248  151.6350 C   0  0  0  0  0  0  0  0  0  0  0  0
  144.3451  134.7440  151.7674 C   0  0  0  0  0  0  0  0  0  0  0  0
  144.5966  135.3324  153.0215 C   0  0  0  0  0  0  0  0  0  0  0  0
  145.4311  136.4652  153.0842 C   0  0  0  0  0  0  0  0  0  0  0  0
  145.9932  136.9823  151.8953 C   0  0  0  0  0  0  0  0  0  0  0  0
  146.8204  138.1239  152.0682 N   0  0  0  0  0  0  0  0  0  0  0  0
  146.8308  138.9946  153.0928 C   0  0  0  0  0  0  0  0  0  0  0  0
  146.1125  138.9310  154.0908 O   0  0  0  0  0  0  0  0  0  0  0  0
  147.7313  139.9693  152.8934 N   0  0  0  0  0  0  0  0  0  0  0  0
  147.9933  141.0784  153.8121 C   0  0  0  0  0  0  0  0  0  0  0  0
  149.3012  140.9655  154.6128 C   0  0  0  0  0  0  0  0  0  0  0  0
  150.0220  139.9830  154.4432 O   0  0  0  0  0  0  0  0  0  0  0  0
  149.6102  141.9503  155.4718 N   0  0  0  0  0  0  0  0  0  0  0  0
  150.7976  141.9779  156.3114 C   0  0  0  0  0  0  0  0  0  0  0  0
  150.5018  141.8697  157.7922 C   0  0  0  0  0  0  0  0  0  0  0  0
  151.4633  141.1625  158.7179 C   0  0  0  0  0  0  0  0  0  0  0  0
  150.1176  140.5475  158.4137 C   0  0  0  0  0  0  0  0  0  0  0  0
  145.7452  136.4076  150.6920 N   0  0  0  0  0  0  0  0  0  0  0  0
  144.9453  135.3222  150.6324 C   0  0  0  0  0  0  0  0  0  0  0  0
  143.0484  133.2244  152.6003 H   0  0  0  0  0  0  0  0  0  0  0  0
  144.0237  132.6870  151.2284 H   0  0  0  0  0  0  0  0  0  0  0  0
  142.6243  133.7350  150.9631 H   0  0  0  0  0  0  0  0  0  0  0  0
  144.1603  134.9263  153.9224 H   0  0  0  0  0  0  0  0  0  0  0  0
  145.6345  136.9293  154.0384 H   0  0  0  0  0  0  0  0  0  0  0  0
  147.4748  138.3018  151.3210 H   0  0  0  0  0  0  0  0  0  0  0  0
  148.2787  139.9458  152.0457 H   0  0  0  0  0  0  0  0  0  0  0  0
  147.9913  142.0234  153.2664 H   0  0  0  0  0  0  0  0  0  0  0  0
  147.1651  141.1311  154.5191 H   0  0  0  0  0  0  0  0  0  0  0  0
  148.9658  142.7221  155.5627 H   0  0  0  0  0  0  0  0  0  0  0  0
  151.4675  141.1677  156.0180 H   0  0  0  0  0  0  0  0  0  0  0  0
  151.3334  142.9120  156.1364 H   0  0  0  0  0  0  0  0  0  0  0  0
  150.0182  142.7525  158.2065 H   0  0  0  0  0  0  0  0  0  0  0  0
  152.3404  140.6926  158.2770 H   0  0  0  0  0  0  0  0  0  0  0  0
  151.6099  141.5859  159.7095 H   0  0  0  0  0  0  0  0  0  0  0  0
  149.3667  140.5633  159.2007 H   0  0  0  0  0  0  0  0  0  0  0  0
  150.0997  139.6704  157.7695 H   0  0  0  0  0  0  0  0  0  0  0  0
  144.7808  134.9042  149.6501 H   0  0  0  0  0  0  0  0  0  0  0  0
  1  2  1  0  0  0  0
  1 20  1  0  0  0  0
  1 21  1  0  0  0  0
  1 22  1  0  0  0  0
  2 19  1  0  0  0  0
  2  3  2  0  0  0  0
  3  4  1  0  0  0  0
  3 23  1  0  0  0  0
  4  5  2  0  0  0  0
  4 24  1  0  0  0  0
  5  6  1  0  0  0  0
  5 18  1  0  0  0  0
  6  7  1  0  0  0  0
  6 25  1  0  0  0  0
  7  8  2  0  0  0  0
  7  9  1  0  0  0  0
  9 10  1  0  0  0  0
  9 26  1  0  0  0  0
 10 11  1  0  0  0  0
 10 27  1  0  0  0  0
 10 28  1  0  0  0  0
 11 12  2  0  0  0  0
 11 13  1  0  0  0  0
 13 14  1  0  0  0  0
 13 29  1  0  0  0  0
 14 15  1  0  0  0  0
 14 30  1  0  0  0  0
 14 31  1  0  0  0  0
 15 17  1  0  0  0  0
 15 16  1  0  0  0  0
 15 32  1  0  0  0  0
 16 17  1  0  0  0  0
 16 33  1  0  0  0  0
 16 34  1  0  0  0  0
 17 35  1  0  0  0  0
 17 36  1  0  0  0  0
 18 19  2  0  0  0  0
 19 37  1  0  0  0  0
M  END
> <s_m_source_file>
AV-unprocessed.smi

> <i_m_source_file_index>
2277

> <i_lp_mmshare_version>
43012

> <i_f3d_flags>
0

> <s_epik_input>
W0NIM11jMVtjSF1bY0hdYyhuW2NIXTEpW05IXUMoPU8pW05IXVtDSDJdQyg9TylbTkhdW0NIMl1bQ0hdMltDSDJdW0NIMl0y

> <s_epik_cmdline>
J2VwaWtfcHl0aG9uJywgJy1waCcsICc3LjAnLCAnLXRuJywgJzgnLCAnLW1hJywgJzIwMCcsICctbWV0YWxfYmluZGluZycsICctaW1hZScsICc8aW5maWxlLm1hZT4nLCAnLW9tYWUnLCAnPG91dGZpbGUubWFlPic=

> <r_lp_tautomer_probability>
1

> <r_epik_Ionization_Penalty>
4.99402e-05

> <r_epik_Ionization_Penalty_Charging>
0

> <r_epik_Ionization_Penalty_Neutral>
4.99402e-05

> <r_epik_State_Penalty>
-0

> <r_epik_Charging_Adjusted_Penalty>
0

> <i_epik_Tot_Q>
0

> <i_epik_Tot_abs_Q>
0

> <r_epik_Metal_State_Penalty>
-0

> <b_epik_Metal_Only>
0

> <s_lp_Force_Field>
OPLS_2005

> <r_lp_Energy>
11.1939

> <b_lp_Chiralities_Consistent>
1

> <s_lp_Variant>
AV-unprocessed.smi:2277-1

> <Gold.Version>
5.8.1

> <Gold.Id.Protein>
6NUR|6NUR_protein|mol2

> <Gold.PLP.Fitness>
43.3425

> <Gold.PLP.PLP>
-32.0604

> <Gold.PLP.part.hbond>
-3.9750

> <Gold.PLP.part.metal>
0.0000

> <Gold.PLP.part.buried>
-6.4289

> <Gold.PLP.part.nonpolar>
-23.7076

> <Gold.PLP.part.repulsive>
2.2271

> <Gold.PLP.ligand.clash>
0.0307

> <Gold.PLP.ligand.torsion>
0.4914

> <Gold.PLP.Chemscore.Hbond>
2.9120

> <Gold.PLP.Chemscore.CHOScore>
1.0000

> <Gold.PLP.Chemscore.Metal>
0.0000

> <Gold.Chemscore.Hbonds>
donor molecule, donor type, donor heavy atom, donor atom, acceptor molecule, acceptor atom, score
      L1  H     9    26       P1  7957  1.00
      L1  H    13    29       P1  8028  0.86
      P1  H  7989  7998       L1    12  0.93
      L1  C    19    37       P1  7921  1.00

> <Gold.PLP.Chemscore.Internal.Correction>
0.5596

> <Gold.Rescore>
     Score         DG    S(hbond)    S(metal)    S(lipo)     H(rot)  DE(clash)    DE(int)     intcor
     12.84     -15.50       2.43        0.00      55.92       1.81       0.75       1.92       ----

> <Gold.Chemscore.Fitness>
12.8381

> <Gold.Chemscore.DG>
-15.5044

> <Gold.Chemscore.ZeroCoef>
-5.4800

> <Gold.Chemscore.Hbond>
2.4266

> <Gold.Chemscore.Metal>
0.0000

> <Gold.Chemscore.Lipo>
55.9184

> <Gold.Chemscore.Internal_Hbond>
0.0000

> <Gold.Chemscore.DEClash>
0.7460

> <Gold.Chemscore.DEInternal>
1.9203

> <Gold.Chemscore.Rot>
1.8058

> <Gold.Chemscore.Internal.Correction>
   9.000000E+99

> <Gold.Chemscore.Hbonds>
donor molecule, donor type, donor heavy atom, donor atom, acceptor molecule, acceptor atom, score
      L1  H     9    26       P1  7957  0.97
      L1  H    13    29       P1  8028  0.82
      P1  H  7989  7998       L1    12  0.22

> <Gold.Chemscore.Hbond.Weighted>
-8.1049

> <Gold.Chemscore.Metal.Weighted>
-0.0000

> <Gold.Chemscore.Lipo.Weighted>
-6.5425

> <Gold.Chemscore.Internal_Hbond.Weighted>
0.0000

> <Gold.Chemscore.DEClash.Weighted>
0.7460

> <Gold.Chemscore.DEInternal.Weighted>
1.9203

> <Gold.Chemscore.Rot.Weighted>
4.6230

> <Gold.Chemscore.Internal.Correction.Weighted>
   9.000000E+99

> <Gold.Protein.RotatedTorsions>
[ 6907 6896 6895 6894 ] final  -11.70 input  -60.11 | X-H torsion
[ 7974 7965 7964 7962 ] final -112.80 input  175.53 | X-H torsion
[ 8008 7997 7996 7995 ] final -109.55 input   59.86 | X-H torsion
[ 10167 10162 10161 10158 ] final  169.41 input  -65.29 | X-H torsion
[ 10718 10713 10712 10709 ] final -155.21 input   66.30 | X-H torsion
[ 10763 10752 10751 10750 ] final   91.22 input  -60.55 | X-H torsion
[ 11005 11000 10999 10996 ] final -162.96 input  -57.11 | X-H torsion

> <Gold.Protein.ActiveResidues>
 VAL166  LYS551  ARG553  GLY616  TRP617  ASP618  TYR619  PRO620  LYS621  CYS622 
 ASP623  PHE694  ASN695  SER759  ASP760  ASP761  ALA762  ILE779  LEU786  VAL792 
 PHE793  MET794  SER795  GLU796  ALA797  LYS798  CYS799  TRP800  GLU811  SER814 

> <Gold.Protein.RotatedAtoms>
  151.3822  135.0941  159.9499 H   0  0  0  0  0  0  0  0  0  0  0  0  # atno 6907 bound_to 6896
  152.5105  133.9061  159.7475 H   0  0  0  0  0  0  0  0  0  0  0  0  # atno 6908 bound_to 6896
  150.9497  133.6508  159.2803 H   0  0  0  0  0  0  0  0  0  0  0  0  # atno 6909 bound_to 6896
  145.1397  140.8771  143.3709 H   0  0  0  0  0  0  0  0  0  0  0  0  # atno 7974 bound_to 7965
  154.9610  140.0399  157.2190 H   0  0  0  0  0  0  0  0  0  0  0  0  # atno 8008 bound_to 7997
  154.7889  140.2832  155.5984 H   0  0  0  0  0  0  0  0  0  0  0  0  # atno 8009 bound_to 7997
  156.2947  140.2577  156.2732 H   0  0  0  0  0  0  0  0  0  0  0  0  # atno 8010 bound_to 7997
  139.4992  144.3709  151.9726 H   0  0  0  0  0  0  0  0  0  0  0  0  # atno 10167 bound_to 10162
  156.5098  130.8429  151.2642 H   0  0  0  0  0  0  0  0  0  0  0  0  # atno 10718 bound_to 10713
  153.2059  135.4405  155.0322 H   0  0  0  0  0  0  0  0  0  0  0  0  # atno 10763 bound_to 10752
  154.8173  135.3321  154.7141 H   0  0  0  0  0  0  0  0  0  0  0  0  # atno 10764 bound_to 10752
  153.7583  135.6993  153.4986 H   0  0  0  0  0  0  0  0  0  0  0  0  # atno 10765 bound_to 10752
  140.6034  134.4924  157.5208 H   0  0  0  0  0  0  0  0  0  0  0  0  # atno 11005 bound_to 11000
  145.0545  139.3154  143.5911 LP  0  0  0  0  0  0  0  0  0  0  0  0  # atno 17320 bound_to 7965
  146.3506  139.9966  142.8680 LP  0  0  0  0  0  0  0  0  0  0  0  0  # atno 17321 bound_to 7965
  140.3145  144.3500  150.6025 LP  0  0  0  0  0  0  0  0  0  0  0  0  # atno 17342 bound_to 10162
  140.5772  143.2175  151.7493 LP  0  0  0  0  0  0  0  0  0  0  0  0  # atno 17343 bound_to 10162
  157.7452  130.9953  150.2741 LP  0  0  0  0  0  0  0  0  0  0  0  0  # atno 17370 bound_to 10713
  156.3252  130.3792  149.7540 LP  0  0  0  0  0  0  0  0  0  0  0  0  # atno 17371 bound_to 10713
  139.9223  134.8125  156.1175 LP  0  0  0  0  0  0  0  0  0  0  0  0  # atno 17394 bound_to 11000
  141.0857  133.6735  156.2431 LP  0  0  0  0  0  0  0  0  0  0  0  0  # atno 17395 bound_to 11000

$$$$
