AV-unprocessed.smi:1047|AV-procd|sdf|4564|dock8
  -GOLD-   22720 3 13D 1   1.00000     0.00000
 Structure written by MMmdl.
 57 59  0  0  0  0  0  0  0  0  3 V2000
  141.8380  135.7539  153.5677 C   0  0  0  0  0  0  0  0  0  0  0  0
  142.0302  137.2229  153.1642 C   0  0  0  0  0  0  0  0  0  0  0  0
  143.1647  137.8695  153.8706 N   0  3  1  0  0  0  0  0  0  0  0  0
  142.8867  138.0660  155.3136 C   0  0  0  0  0  0  0  0  0  0  0  0
  144.0583  138.7896  155.9979 C   0  0  0  0  0  0  0  0  0  0  0  0
  145.2590  138.0515  155.8030 O   0  0  0  0  0  0  0  0  0  0  0  0
  145.5902  137.9169  154.4250 C   0  0  1  0  0  0  0  0  0  0  0  0
  146.9618  137.2309  154.3048 C   0  0  0  0  0  0  0  0  0  0  0  0
  147.9961  138.1405  153.7691 N   0  3  0  0  0  0  0  0  0  0  0  0
  148.7463  138.8735  154.8075 C   0  0  0  0  0  0  0  0  0  0  0  0
  149.2481  140.2333  154.2851 C   0  0  1  0  0  0  0  0  0  0  0  0
  148.2693  140.7710  153.4166 O   0  0  0  0  0  0  0  0  0  0  0  0
  149.5451  141.2522  155.4075 C   0  0  0  0  0  0  0  0  0  0  0  0
  150.6027  140.8285  156.3113 N   0  0  0  0  0  0  0  0  0  0  0  0
  151.4504  139.7949  156.1425 C   0  0  0  0  0  0  0  0  0  0  0  0
  152.3559  139.5878  157.0935 N   0  0  0  0  0  0  0  0  0  0  0  0
  152.0562  140.5991  157.9893 C   0  0  0  0  0  0  0  0  0  0  0  0
  152.6533  140.9371  159.2232 C   0  0  0  0  0  0  0  0  0  0  0  0
  152.1766  142.0278  159.9845 C   0  0  0  0  0  0  0  0  0  0  0  0
  152.8466  142.3527  161.3079 C   0  0  0  0  0  0  0  0  0  0  0  0
  151.0842  142.7996  159.5138 C   0  0  0  0  0  0  0  0  0  0  0  0
  150.5522  143.9729  160.3174 C   0  0  0  0  0  0  0  0  0  0  0  0
  150.4773  142.4769  158.2821 C   0  0  0  0  0  0  0  0  0  0  0  0
  150.9615  141.3899  157.5327 C   0  0  0  0  0  0  0  0  0  0  0  0
  144.4605  137.1691  153.6856 C   0  0  0  0  0  0  0  0  0  0  0  0
  141.0689  135.2872  152.9517 H   0  0  0  0  0  0  0  0  0  0  0  0
  141.5219  135.6517  154.6057 H   0  0  0  0  0  0  0  0  0  0  0  0
  142.7571  135.1825  153.4354 H   0  0  0  0  0  0  0  0  0  0  0  0
  142.2212  137.2517  152.0905 H   0  0  0  0  0  0  0  0  0  0  0  0
  141.1127  137.7893  153.3304 H   0  0  0  0  0  0  0  0  0  0  0  0
  141.9741  138.6501  155.4394 H   0  0  0  0  0  0  0  0  0  0  0  0
  142.7157  137.0988  155.7891 H   0  0  0  0  0  0  0  0  0  0  0  0
  144.1717  139.8031  155.6093 H   0  0  0  0  0  0  0  0  0  0  0  0
  143.8695  138.8793  157.0679 H   0  0  0  0  0  0  0  0  0  0  0  0
  145.6865  138.9160  153.9954 H   0  0  0  0  0  0  0  0  0  0  0  0
  147.2756  136.8645  155.2832 H   0  0  0  0  0  0  0  0  0  0  0  0
  146.8829  136.3615  153.6509 H   0  0  0  0  0  0  0  0  0  0  0  0
  148.6491  137.6022  153.2176 H   0  0  0  0  0  0  0  0  0  0  0  0
  148.1096  139.0070  155.6833 H   0  0  0  0  0  0  0  0  0  0  0  0
  149.5955  138.2630  155.1176 H   0  0  0  0  0  0  0  0  0  0  0  0
  150.1613  140.0851  153.7073 H   0  0  0  0  0  0  0  0  0  0  0  0
  148.6313  140.8130  152.5438 H   0  0  0  0  0  0  0  0  0  0  0  0
  149.8330  142.2089  154.9703 H   0  0  0  0  0  0  0  0  0  0  0  0
  148.6456  141.4454  155.9937 H   0  0  0  0  0  0  0  0  0  0  0  0
  151.4048  139.1629  155.2675 H   0  0  0  0  0  0  0  0  0  0  0  0
  153.4836  140.3473  159.5832 H   0  0  0  0  0  0  0  0  0  0  0  0
  152.1435  142.2240  162.1310 H   0  0  0  0  0  0  0  0  0  0  0  0
  153.2055  143.3821  161.3155 H   0  0  0  0  0  0  0  0  0  0  0  0
  153.7009  141.7006  161.4919 H   0  0  0  0  0  0  0  0  0  0  0  0
  149.6868  144.4271  159.8341 H   0  0  0  0  0  0  0  0  0  0  0  0
  151.3187  144.7408  160.4238 H   0  0  0  0  0  0  0  0  0  0  0  0
  150.2465  143.6485  161.3121 H   0  0  0  0  0  0  0  0  0  0  0  0
  149.6440  143.0568  157.9143 H   0  0  0  0  0  0  0  0  0  0  0  0
  144.3702  136.1465  154.0554 H   0  0  0  0  0  0  0  0  0  0  0  0
  144.7082  137.1057  152.6264 H   0  0  0  0  0  0  0  0  0  0  0  0
  147.5519  138.8223  153.1703 H   0  0  0  0  0  0  0  0  0  0  0  0
  143.2643  138.7926  153.4718 H   0  0  0  0  0  0  0  0  0  0  0  0
  1  2  1  0  0  0  0
  1 26  1  0  0  0  0
  1 27  1  0  0  0  0
  1 28  1  0  0  0  0
  2  3  1  0  0  0  0
  2 29  1  0  0  0  0
  2 30  1  0  0  0  0
  3 25  1  0  0  0  0
  3  4  1  0  0  0  0
  3 57  1  0  0  0  0
  4  5  1  0  0  0  0
  4 31  1  0  0  0  0
  4 32  1  0  0  0  0
  5  6  1  0  0  0  0
  5 33  1  0  0  0  0
  5 34  1  0  0  0  0
  6  7  1  0  0  0  0
  7  8  1  0  0  0  0
  7 25  1  0  0  0  0
  7 35  1  0  0  0  0
  8  9  1  0  0  0  0
  8 36  1  0  0  0  0
  8 37  1  0  0  0  0
  9 10  1  0  0  0  0
  9 38  1  0  0  0  0
  9 56  1  0  0  0  0
 10 11  1  0  0  0  0
 10 39  1  0  0  0  0
 10 40  1  0  0  0  0
 11 12  1  0  0  0  0
 11 13  1  0  0  0  0
 11 41  1  0  0  0  0
 12 42  1  0  0  0  0
 13 14  1  0  0  0  0
 13 43  1  0  0  0  0
 13 44  1  0  0  0  0
 14 24  1  0  0  0  0
 14 15  1  0  0  0  0
 15 16  2  0  0  0  0
 15 45  1  0  0  0  0
 16 17  1  0  0  0  0
 17 24  2  0  0  0  0
 17 18  1  0  0  0  0
 18 19  2  0  0  0  0
 18 46  1  0  0  0  0
 19 20  1  0  0  0  0
 19 21  1  0  0  0  0
 20 47  1  0  0  0  0
 20 48  1  0  0  0  0
 20 49  1  0  0  0  0
 21 22  1  0  0  0  0
 21 23  2  0  0  0  0
 22 50  1  0  0  0  0
 22 51  1  0  0  0  0
 22 52  1  0  0  0  0
 23 24  1  0  0  0  0
 23 53  1  0  0  0  0
 25 54  1  0  0  0  0
 25 55  1  0  0  0  0
M  CHG  1   3   1
M  CHG  1   9   1
M  END
> <s_m_source_file>
AV-unprocessed.smi

> <i_m_source_file_index>
1047

> <i_lp_mmshare_version>
43012

> <i_f3d_flags>
0

> <s_epik_input>
W0NIM11bQ0gyXU4xW0NIMl1bQ0gyXU9bQ0BIXShbQ0gyXTEpW0NIMl1bTkhdW0NIMl1bQ0BIXShbT0hdKVtDSDJdbihbY0hdbjIpYyhjMjMpW2NIXWMoW0NIM10pYyhbY0hdMylbQ0gzXQ==

> <s_epik_cmdline>
J2VwaWtfcHl0aG9uJywgJy1waCcsICc3LjAnLCAnLXRuJywgJzgnLCAnLW1hJywgJzIwMCcsICctbWV0YWxfYmluZGluZycsICctaW1hZScsICc8aW5maWxlLm1hZT4nLCAnLW9tYWUnLCAnPG91dGZpbGUubWFlPic=

> <r_epik_Ionization_Penalty>
0.528991

> <r_epik_Ionization_Penalty_Charging>
0.438567

> <r_epik_Ionization_Penalty_Neutral>
0.0904237

> <r_epik_State_Penalty>
0.533036

> <r_epik_Charging_Adjusted_Penalty>
0.971603

> <i_epik_Tot_Q>
2

> <i_epik_Tot_abs_Q>
2

> <r_epik_Metal_State_Penalty>
0.448985

> <b_epik_Metal_Only>
0

> <s_lp_Force_Field>
OPLS_2005

> <r_lp_Energy>
29.0334

> <b_lp_Chiralities_Consistent>
1

> <s_lp_Variant>
AV-unprocessed.smi:1047-5

> <Gold.Version>
5.8.1

> <Gold.Id.Protein>
6NUR|6NUR_protein|mol2

> <Gold.PLP.Fitness>
58.3640

> <Gold.PLP.PLP>
-43.2722

> <Gold.PLP.part.hbond>
-4.3036

> <Gold.PLP.part.metal>
0.0000

> <Gold.PLP.part.buried>
-3.9085

> <Gold.PLP.part.nonpolar>
-34.8448

> <Gold.PLP.part.repulsive>
0.0520

> <Gold.PLP.ligand.clash>
0.0000

> <Gold.PLP.ligand.torsion>
1.4978

> <Gold.PLP.Chemscore.Hbond>
6.0000

> <Gold.PLP.Chemscore.CHOScore>
0.0000

> <Gold.PLP.Chemscore.Metal>
0.0000

> <Gold.Chemscore.Hbonds>
donor molecule, donor type, donor heavy atom, donor atom, acceptor molecule, acceptor atom, score
      L1  H     3    57       P1 10175  2.00
      L1  H     9    38       P1  7948  1.98
      L1  H    12    42       P1  7957  1.00
      P1  H  7997  8008       L1    16  0.76

> <Gold.PLP.Chemscore.Internal.Correction>
0.0874

> <Gold.Rescore>
     Score         DG    S(hbond)    S(metal)    S(lipo)     H(rot)  DE(clash)    DE(int)     intcor
     20.35     -22.22       3.25        0.00     109.24       2.70       0.34       1.53       ----

> <Gold.Chemscore.Fitness>
20.3524

> <Gold.Chemscore.DG>
-22.2209

> <Gold.Chemscore.ZeroCoef>
-5.4800

> <Gold.Chemscore.Hbond>
3.2539

> <Gold.Chemscore.Metal>
0.0000

> <Gold.Chemscore.Lipo>
109.2404

> <Gold.Chemscore.Internal_Hbond>
0.0000

> <Gold.Chemscore.DEClash>
0.3387

> <Gold.Chemscore.DEInternal>
1.5298

> <Gold.Chemscore.Rot>
2.6985

> <Gold.Chemscore.Internal.Correction>
   9.000000E+99

> <Gold.Chemscore.Hbonds>
donor molecule, donor type, donor heavy atom, donor atom, acceptor molecule, acceptor atom, score
      L1  H     3    57       P1 10175  0.99
      L1  H     9    38       P1  7948  0.94
      L1  H    12    42       P1  7957  0.95
      P1  H  7997  8008       L1    16  0.21

> <Gold.Chemscore.Hbond.Weighted>
-10.8679

> <Gold.Chemscore.Metal.Weighted>
-0.0000

> <Gold.Chemscore.Lipo.Weighted>
-12.7811

> <Gold.Chemscore.Internal_Hbond.Weighted>
0.0000

> <Gold.Chemscore.DEClash.Weighted>
0.3387

> <Gold.Chemscore.DEInternal.Weighted>
1.5298

> <Gold.Chemscore.Rot.Weighted>
6.9081

> <Gold.Chemscore.Internal.Correction.Weighted>
   9.000000E+99

> <Gold.Protein.RotatedTorsions>
[ 6907 6896 6895 6894 ] final   17.14 input  -60.11 | X-H torsion
[ 7974 7965 7964 7962 ] final   42.87 input  175.53 | X-H torsion
[ 8008 7997 7996 7995 ] final  -57.16 input   59.86 | X-H torsion
[ 10167 10162 10161 10158 ] final  115.14 input  -65.29 | X-H torsion
[ 10718 10713 10712 10709 ] final  -79.09 input   66.30 | X-H torsion
[ 10763 10752 10751 10750 ] final  -43.89 input  -60.55 | X-H torsion
[ 11005 11000 10999 10996 ] final -134.97 input  -57.11 | X-H torsion

> <Gold.Protein.ActiveResidues>
 VAL166  LYS551  ARG553  GLY616  TRP617  ASP618  TYR619  PRO620  LYS621  CYS622 
 ASP623  PHE694  ASN695  SER759  ASP760  ASP761  ALA762  ILE779  LEU786  VAL792 
 PHE793  MET794  SER795  GLU796  ALA797  LYS798  CYS799  TRP800  GLU811  SER814 

> <Gold.Protein.RotatedAtoms>
  151.8450  135.0577  160.0452 H   0  0  0  0  0  0  0  0  0  0  0  0  # atno 6907 bound_to 6896
  152.2780  133.5439  159.5488 H   0  0  0  0  0  0  0  0  0  0  0  0  # atno 6908 bound_to 6896
  150.7178  134.0520  159.3844 H   0  0  0  0  0  0  0  0  0  0  0  0  # atno 6909 bound_to 6896
  146.0704  139.5251  142.9601 H   0  0  0  0  0  0  0  0  0  0  0  0  # atno 7974 bound_to 7965
  154.4257  140.1113  156.5753 H   0  0  0  0  0  0  0  0  0  0  0  0  # atno 8008 bound_to 7997
  155.6169  140.3495  155.4621 H   0  0  0  0  0  0  0  0  0  0  0  0  # atno 8009 bound_to 7997
  156.0055  140.1208  157.0495 H   0  0  0  0  0  0  0  0  0  0  0  0  # atno 8010 bound_to 7997
  139.6338  144.7118  151.2377 H   0  0  0  0  0  0  0  0  0  0  0  0  # atno 10167 bound_to 10162
  156.0101  130.4536  150.3595 H   0  0  0  0  0  0  0  0  0  0  0  0  # atno 10718 bound_to 10713
  154.0030  135.6691  153.4760 H   0  0  0  0  0  0  0  0  0  0  0  0  # atno 10763 bound_to 10752
  153.0654  135.5004  154.8184 H   0  0  0  0  0  0  0  0  0  0  0  0  # atno 10764 bound_to 10752
  154.7041  135.3084  154.9259 H   0  0  0  0  0  0  0  0  0  0  0  0  # atno 10765 bound_to 10752
  140.8941  134.1774  157.4507 H   0  0  0  0  0  0  0  0  0  0  0  0  # atno 11005 bound_to 11000
  145.6402  141.0286  143.1816 LP  0  0  0  0  0  0  0  0  0  0  0  0  # atno 17320 bound_to 7965
  144.7228  139.7974  143.7376 LP  0  0  0  0  0  0  0  0  0  0  0  0  # atno 17321 bound_to 7965
  140.7454  143.6432  150.8315 LP  0  0  0  0  0  0  0  0  0  0  0  0  # atno 17342 bound_to 10162
  140.0061  143.5692  152.2857 LP  0  0  0  0  0  0  0  0  0  0  0  0  # atno 17343 bound_to 10162
  157.1684  131.0362  151.2807 LP  0  0  0  0  0  0  0  0  0  0  0  0  # atno 17370 bound_to 10713
  157.4250  130.7459  149.6944 LP  0  0  0  0  0  0  0  0  0  0  0  0  # atno 17371 bound_to 10713
  139.8733  134.9871  156.5352 LP  0  0  0  0  0  0  0  0  0  0  0  0  # atno 17394 bound_to 11000
  140.8311  133.8278  155.8985 LP  0  0  0  0  0  0  0  0  0  0  0  0  # atno 17395 bound_to 11000

$$$$
