AV-unprocessed.smi:2140|AV-procd|sdf|8716|dock10
  -GOLD-   2272011483D 1   1.00000     0.00000
 Structure written by MMmdl.
 40 41  0  0  0  0  0  0  0  0  2 V2000
  149.0781  130.7282  154.3149 C   0  0  0  0  0  0  0  0  0  0  0  0
  148.8318  132.0684  153.5795 C   0  0  2  0  0  0  0  0  0  0  0  0
  148.4797  133.1803  154.6046 C   0  0  0  0  0  0  0  0  0  0  0  0
  148.9784  134.4965  154.2154 N   0  0  0  0  0  0  0  0  0  0  0  0
  149.6782  135.3152  155.0136 C   0  0  0  0  0  0  0  0  0  0  0  0
  149.9800  135.0306  156.1722 O   0  0  0  0  0  0  0  0  0  0  0  0
  149.9750  136.4670  154.3877 N   0  0  0  0  0  0  0  0  0  0  0  0
  150.6741  137.6001  154.8866 C   0  0  0  0  0  0  0  0  0  0  0  0
  151.5684  137.5745  155.9849 C   0  0  0  0  0  0  0  0  0  0  0  0
  152.2071  138.7692  156.3694 C   0  0  0  0  0  0  0  0  0  0  0  0
  151.9362  139.9429  155.6398 C   0  0  0  0  0  0  0  0  0  0  0  0
  151.0960  139.9799  154.5846 N   0  0  0  0  0  0  0  0  0  0  0  0
  150.4870  138.8309  154.2219 C   0  0  0  0  0  0  0  0  0  0  0  0
  147.7762  131.9805  152.5175 N   0  3  0  0  0  0  0  0  0  0  0  0
  146.5649  131.2465  152.9772 C   0  0  0  0  0  0  0  0  0  0  0  0
  145.5416  131.0982  151.8401 C   0  0  0  0  0  0  0  0  0  0  0  0
  145.1808  132.3844  151.3598 O   0  0  0  0  0  0  0  0  0  0  0  0
  146.3006  133.0715  150.8217 C   0  0  0  0  0  0  0  0  0  0  0  0
  147.3659  133.2782  151.9126 C   0  0  0  0  0  0  0  0  0  0  0  0
  149.8240  130.8302  155.1027 H   0  0  0  0  0  0  0  0  0  0  0  0
  149.4639  129.9590  153.6459 H   0  0  0  0  0  0  0  0  0  0  0  0
  148.1648  130.3536  154.7781 H   0  0  0  0  0  0  0  0  0  0  0  0
  149.7679  132.3287  153.0829 H   0  0  0  0  0  0  0  0  0  0  0  0
  147.4063  133.2669  154.7663 H   0  0  0  0  0  0  0  0  0  0  0  0
  148.9105  132.9340  155.5756 H   0  0  0  0  0  0  0  0  0  0  0  0
  148.7696  134.8065  153.2773 H   0  0  0  0  0  0  0  0  0  0  0  0
  149.6043  136.5704  153.4544 H   0  0  0  0  0  0  0  0  0  0  0  0
  151.7884  136.6708  156.5307 H   0  0  0  0  0  0  0  0  0  0  0  0
  152.8935  138.7843  157.2031 H   0  0  0  0  0  0  0  0  0  0  0  0
  152.4108  140.8751  155.9079 H   0  0  0  0  0  0  0  0  0  0  0  0
  149.8237  138.8985  153.3719 H   0  0  0  0  0  0  0  0  0  0  0  0
  146.8170  130.2534  153.3430 H   0  0  0  0  0  0  0  0  0  0  0  0
  146.1096  131.7818  153.8122 H   0  0  0  0  0  0  0  0  0  0  0  0
  145.9420  130.4873  151.0293 H   0  0  0  0  0  0  0  0  0  0  0  0
  144.6456  130.5953  152.2049 H   0  0  0  0  0  0  0  0  0  0  0  0
  146.7115  132.5167  149.9766 H   0  0  0  0  0  0  0  0  0  0  0  0
  145.9682  134.0352  150.4358 H   0  0  0  0  0  0  0  0  0  0  0  0
  146.9817  133.9398  152.6908 H   0  0  0  0  0  0  0  0  0  0  0  0
  148.2150  133.7772  151.4466 H   0  0  0  0  0  0  0  0  0  0  0  0
  148.1781  131.4420  151.7634 H   0  0  0  0  0  0  0  0  0  0  0  0
  1  2  1  0  0  0  0
  1 20  1  0  0  0  0
  1 21  1  0  0  0  0
  1 22  1  0  0  0  0
  2  3  1  0  0  0  0
  2 14  1  0  0  0  0
  2 23  1  0  0  0  0
  3  4  1  0  0  0  0
  3 24  1  0  0  0  0
  3 25  1  0  0  0  0
  4  5  1  0  0  0  0
  4 26  1  0  0  0  0
  5  6  2  0  0  0  0
  5  7  1  0  0  0  0
  7  8  1  0  0  0  0
  7 27  1  0  0  0  0
  8 13  1  0  0  0  0
  8  9  2  0  0  0  0
  9 10  1  0  0  0  0
  9 28  1  0  0  0  0
 10 11  2  0  0  0  0
 10 29  1  0  0  0  0
 11 12  1  0  0  0  0
 11 30  1  0  0  0  0
 12 13  2  0  0  0  0
 13 31  1  0  0  0  0
 14 19  1  0  0  0  0
 14 15  1  0  0  0  0
 14 40  1  0  0  0  0
 15 16  1  0  0  0  0
 15 32  1  0  0  0  0
 15 33  1  0  0  0  0
 16 17  1  0  0  0  0
 16 34  1  0  0  0  0
 16 35  1  0  0  0  0
 17 18  1  0  0  0  0
 18 19  1  0  0  0  0
 18 36  1  0  0  0  0
 18 37  1  0  0  0  0
 19 38  1  0  0  0  0
 19 39  1  0  0  0  0
M  CHG  1  14   1
M  END
> <s_m_source_file>
AV-unprocessed.smi

> <i_m_source_file_index>
2140

> <i_lp_mmshare_version>
43012

> <i_f3d_flags>
0

> <s_epik_input>
W0NIMl0xW0NIMl1PW0NIMl1bQ0gyXU4xW0NASF0oW0NIM10pW0NIMl1bTkhdQyg9TylbTkhdYzJbY0hdW2NIXVtjSF1uW2NIXTI=

> <s_epik_cmdline>
J2VwaWtfcHl0aG9uJywgJy1waCcsICc3LjAnLCAnLXRuJywgJzgnLCAnLW1hJywgJzIwMCcsICctbWV0YWxfYmluZGluZycsICctaW1hZScsICc8aW5maWxlLm1hZT4nLCAnLW9tYWUnLCAnPG91dGZpbGUubWFlPic=

> <r_epik_Ionization_Penalty>
0.60672

> <r_epik_Ionization_Penalty_Charging>
0.602531

> <r_epik_Ionization_Penalty_Neutral>
0.00418997

> <r_epik_State_Penalty>
0.607459

> <r_epik_Charging_Adjusted_Penalty>
1.20999

> <i_epik_Tot_Q>
1

> <i_epik_Tot_abs_Q>
1

> <r_epik_Metal_State_Penalty>
0.604586

> <b_epik_Metal_Only>
0

> <s_lp_Force_Field>
OPLS_2005

> <r_lp_Energy>
23.5262

> <b_lp_Chiralities_Consistent>
1

> <s_lp_Variant>
AV-unprocessed.smi:2140-3

> <Gold.Version>
5.8.1

> <Gold.Id.Protein>
6NUR|6NUR_protein|mol2

> <Gold.PLP.Fitness>
47.9987

> <Gold.PLP.PLP>
-34.5114

> <Gold.PLP.part.hbond>
-4.7932

> <Gold.PLP.part.metal>
0.0000

> <Gold.PLP.part.buried>
-4.7457

> <Gold.PLP.part.nonpolar>
-25.9645

> <Gold.PLP.part.repulsive>
0.2842

> <Gold.PLP.ligand.clash>
0.0000

> <Gold.PLP.ligand.torsion>
0.7285

> <Gold.PLP.Chemscore.Hbond>
3.9760

> <Gold.PLP.Chemscore.CHOScore>
0.9894

> <Gold.PLP.Chemscore.Metal>
0.0000

> <Gold.Chemscore.Hbonds>
donor molecule, donor type, donor heavy atom, donor atom, acceptor molecule, acceptor atom, score
      L1  H     4    26       P1  7948  0.98
      L1  H     7    27       P1  7948  1.00
      L1  H    14    40       P1 10747  1.00
      P1  H  7989  7998       L1    12  0.93
      L1  C    13    31       P1  7957  1.00

> <Gold.PLP.Chemscore.Internal.Correction>
0.0481

> <Gold.Rescore>
     Score         DG    S(hbond)    S(metal)    S(lipo)     H(rot)  DE(clash)    DE(int)     intcor
     19.11     -21.36       3.25        0.00      76.23       1.52       0.05       2.20       ----

> <Gold.Chemscore.Fitness>
19.1112

> <Gold.Chemscore.DG>
-21.3643

> <Gold.Chemscore.ZeroCoef>
-5.4800

> <Gold.Chemscore.Hbond>
3.2489

> <Gold.Chemscore.Metal>
0.0000

> <Gold.Chemscore.Lipo>
76.2311

> <Gold.Chemscore.Internal_Hbond>
0.0000

> <Gold.Chemscore.DEClash>
0.0500

> <Gold.Chemscore.DEInternal>
2.2032

> <Gold.Chemscore.Rot>
1.5179

> <Gold.Chemscore.Internal.Correction>
   9.000000E+99

> <Gold.Chemscore.Hbonds>
donor molecule, donor type, donor heavy atom, donor atom, acceptor molecule, acceptor atom, score
      L1  H     4    26       P1  7948  0.32
      L1  H     7    27       P1  7948  0.60
      L1  H    14    40       P1 10747  1.00
      P1  H  7989  7998       L1    12  0.67

> <Gold.Chemscore.Hbond.Weighted>
-10.8512

> <Gold.Chemscore.Metal.Weighted>
-0.0000

> <Gold.Chemscore.Lipo.Weighted>
-8.9190

> <Gold.Chemscore.Internal_Hbond.Weighted>
0.0000

> <Gold.Chemscore.DEClash.Weighted>
0.0500

> <Gold.Chemscore.DEInternal.Weighted>
2.2032

> <Gold.Chemscore.Rot.Weighted>
3.8859

> <Gold.Chemscore.Internal.Correction.Weighted>
   9.000000E+99

> <Gold.Protein.RotatedTorsions>
[ 6907 6896 6895 6894 ] final  128.43 input  -60.11 | X-H torsion
[ 7974 7965 7964 7962 ] final  117.53 input  175.53 | X-H torsion
[ 8008 7997 7996 7995 ] final  -48.78 input   59.86 | X-H torsion
[ 10167 10162 10161 10158 ] final  125.29 input  -65.29 | X-H torsion
[ 10718 10713 10712 10709 ] final  105.39 input   66.30 | X-H torsion
[ 10763 10752 10751 10750 ] final  -33.39 input  -60.55 | X-H torsion
[ 11005 11000 10999 10996 ] final   30.29 input  -57.11 | X-H torsion

> <Gold.Protein.ActiveResidues>
 VAL166  LYS551  ARG553  GLY616  TRP617  ASP618  TYR619  PRO620  LYS621  CYS622 
 ASP623  PHE694  ASN695  SER759  ASP760  ASP761  ALA762  ILE779  LEU786  VAL792 
 PHE793  MET794  SER795  GLU796  ALA797  LYS798  CYS799  TRP800  GLU811  SER814 

> <Gold.Protein.RotatedAtoms>
  152.3720  133.6431  159.6094 H   0  0  0  0  0  0  0  0  0  0  0  0  # atno 6907 bound_to 6896
  150.7676  133.9255  159.3420 H   0  0  0  0  0  0  0  0  0  0  0  0  # atno 6908 bound_to 6896
  151.7076  135.0920  160.0313 H   0  0  0  0  0  0  0  0  0  0  0  0  # atno 6909 bound_to 6896
  145.1663  139.3126  143.4491 H   0  0  0  0  0  0  0  0  0  0  0  0  # atno 7974 bound_to 7965
  154.4034  140.1313  156.4395 H   0  0  0  0  0  0  0  0  0  0  0  0  # atno 8008 bound_to 7997
  155.7472  140.3489  155.5113 H   0  0  0  0  0  0  0  0  0  0  0  0  # atno 8009 bound_to 7997
  155.8983  140.1015  157.1358 H   0  0  0  0  0  0  0  0  0  0  0  0  # atno 8010 bound_to 7997
  139.5694  144.6930  151.3821 H   0  0  0  0  0  0  0  0  0  0  0  0  # atno 10167 bound_to 10162
  157.6707  131.0826  150.5850 H   0  0  0  0  0  0  0  0  0  0  0  0  # atno 10718 bound_to 10713
  153.8295  135.6867  153.4816 H   0  0  0  0  0  0  0  0  0  0  0  0  # atno 10763 bound_to 10752
  153.1520  135.4614  154.9648 H   0  0  0  0  0  0  0  0  0  0  0  0  # atno 10764 bound_to 10752
  154.7893  135.3296  154.7759 H   0  0  0  0  0  0  0  0  0  0  0  0  # atno 10765 bound_to 10752
  140.2959  134.2811  155.7765 H   0  0  0  0  0  0  0  0  0  0  0  0  # atno 11005 bound_to 11000
  146.3475  140.1792  142.8589 LP  0  0  0  0  0  0  0  0  0  0  0  0  # atno 17320 bound_to 7965
  145.0279  140.8847  143.5127 LP  0  0  0  0  0  0  0  0  0  0  0  0  # atno 17321 bound_to 7965
  140.6978  143.7706  150.7354 LP  0  0  0  0  0  0  0  0  0  0  0  0  # atno 17342 bound_to 10162
  140.1208  143.4614  152.2314 LP  0  0  0  0  0  0  0  0  0  0  0  0  # atno 17343 bound_to 10162
  156.6150  130.4390  149.5844 LP  0  0  0  0  0  0  0  0  0  0  0  0  # atno 17370 bound_to 10713
  156.2400  130.6845  151.1546 LP  0  0  0  0  0  0  0  0  0  0  0  0  # atno 17371 bound_to 10713
  141.2137  133.7615  156.9695 LP  0  0  0  0  0  0  0  0  0  0  0  0  # atno 17394 bound_to 11000
  140.1153  134.9451  157.2125 LP  0  0  0  0  0  0  0  0  0  0  0  0  # atno 17395 bound_to 11000

$$$$
