AV-unprocessed.smi:2136|AV-procd|sdf|8704|dock7
  -GOLD-   2272011463D 1   1.00000     0.00000
 Structure written by MMmdl.
 43 44  0  0  0  0  0  0  0  0  2 V2000
  149.5669  134.1088  155.7622 C   0  0  0  0  0  0  0  0  0  0  0  0
  150.2215  135.5420  156.7162 S   0  0  0  0  0  0  0  0  0  0  0  0
  149.3835  135.7562  157.9062 O   0  0  0  0  0  0  0  0  0  0  0  0
  151.6659  135.3155  156.8811 O   0  0  0  0  0  0  0  0  0  0  0  0
  150.0078  136.9014  155.6333 N   0  0  0  0  0  0  0  0  0  0  0  0
  151.1233  137.8791  155.6080 C   0  0  0  0  0  0  0  0  0  0  0  0
  151.0472  138.8615  154.4322 C   0  0  0  0  0  0  0  0  0  0  0  0
  149.6936  139.5599  154.3936 C   0  0  0  0  0  0  0  0  0  0  0  0
  148.6163  138.4895  154.2508 C   0  0  0  0  0  0  0  0  0  0  0  0
  148.6398  137.4707  155.4169 C   0  0  1  0  0  0  0  0  0  0  0  0
  147.5207  136.4428  155.1786 C   0  0  0  0  0  0  0  0  0  0  0  0
  146.7340  136.1589  156.0829 O   0  0  0  0  0  0  0  0  0  0  0  0
  147.4580  135.8906  153.9568 N   0  0  0  0  0  0  0  0  0  0  0  0
  146.4640  134.9146  153.5290 C   0  0  0  0  0  0  0  0  0  0  0  0
  146.7704  134.3696  152.1236 C   0  0  0  0  0  0  0  0  0  0  0  0
  145.6442  133.5110  151.5817 C   0  0  0  0  0  0  0  0  0  0  0  0
  145.7860  132.1075  151.5081 C   0  0  0  0  0  0  0  0  0  0  0  0
  144.7238  131.3306  151.0009 C   0  0  0  0  0  0  0  0  0  0  0  0
  143.5439  131.9751  150.5760 C   0  0  0  0  0  0  0  0  0  0  0  0
  143.4449  133.3201  150.6602 N   0  3  0  0  0  0  0  0  0  0  0  0
  144.4385  134.0992  151.1415 C   0  0  0  0  0  0  0  0  0  0  0  0
  149.8220  133.1870  156.2844 H   0  0  0  0  0  0  0  0  0  0  0  0
  150.0165  134.0952  154.7697 H   0  0  0  0  0  0  0  0  0  0  0  0
  148.4846  134.1688  155.6739 H   0  0  0  0  0  0  0  0  0  0  0  0
  151.1281  138.4250  156.5522 H   0  0  0  0  0  0  0  0  0  0  0  0
  152.0745  137.3509  155.5432 H   0  0  0  0  0  0  0  0  0  0  0  0
  151.8443  139.6006  154.5168 H   0  0  0  0  0  0  0  0  0  0  0  0
  151.2176  138.3292  153.4953 H   0  0  0  0  0  0  0  0  0  0  0  0
  149.5371  140.1427  155.3021 H   0  0  0  0  0  0  0  0  0  0  0  0
  149.6503  140.2555  153.5550 H   0  0  0  0  0  0  0  0  0  0  0  0
  147.6394  138.9725  154.1975 H   0  0  0  0  0  0  0  0  0  0  0  0
  148.7551  137.9787  153.2962 H   0  0  0  0  0  0  0  0  0  0  0  0
  148.3888  138.0194  156.3267 H   0  0  0  0  0  0  0  0  0  0  0  0
  148.1350  136.1872  153.2682 H   0  0  0  0  0  0  0  0  0  0  0  0
  146.4087  134.1019  154.2554 H   0  0  0  0  0  0  0  0  0  0  0  0
  145.4889  135.4025  153.5342 H   0  0  0  0  0  0  0  0  0  0  0  0
  146.9569  135.1961  151.4364 H   0  0  0  0  0  0  0  0  0  0  0  0
  147.6825  133.7713  152.1376 H   0  0  0  0  0  0  0  0  0  0  0  0
  146.6978  131.6310  151.8383 H   0  0  0  0  0  0  0  0  0  0  0  0
  144.8138  130.2559  150.9381 H   0  0  0  0  0  0  0  0  0  0  0  0
  142.6832  131.4597  150.1748 H   0  0  0  0  0  0  0  0  0  0  0  0
  144.2390  135.1609  151.1588 H   0  0  0  0  0  0  0  0  0  0  0  0
  142.5827  133.7668  150.3466 H   0  0  0  0  0  0  0  0  0  0  0  0
  1  2  1  0  0  0  0
  1 22  1  0  0  0  0
  1 23  1  0  0  0  0
  1 24  1  0  0  0  0
  2  3  2  0  0  0  0
  2  4  2  0  0  0  0
  2  5  1  0  0  0  0
  5 10  1  0  0  0  0
  5  6  1  0  0  0  0
  6  7  1  0  0  0  0
  6 25  1  0  0  0  0
  6 26  1  0  0  0  0
  7  8  1  0  0  0  0
  7 27  1  0  0  0  0
  7 28  1  0  0  0  0
  8  9  1  0  0  0  0
  8 29  1  0  0  0  0
  8 30  1  0  0  0  0
  9 10  1  0  0  0  0
  9 31  1  0  0  0  0
  9 32  1  0  0  0  0
 10 11  1  0  0  0  0
 10 33  1  0  0  0  0
 11 12  2  0  0  0  0
 11 13  1  0  0  0  0
 13 14  1  0  0  0  0
 13 34  1  0  0  0  0
 14 15  1  0  0  0  0
 14 35  1  0  0  0  0
 14 36  1  0  0  0  0
 15 16  1  0  0  0  0
 15 37  1  0  0  0  0
 15 38  1  0  0  0  0
 16 21  1  0  0  0  0
 16 17  2  0  0  0  0
 17 18  1  0  0  0  0
 17 39  1  0  0  0  0
 18 19  2  0  0  0  0
 18 40  1  0  0  0  0
 19 20  1  0  0  0  0
 19 41  1  0  0  0  0
 20 21  2  0  0  0  0
 20 43  1  0  0  0  0
 21 42  1  0  0  0  0
M  CHG  1  20   1
M  END
> <s_m_source_file>
AV-unprocessed.smi

> <i_m_source_file_index>
2136

> <i_lp_mmshare_version>
43012

> <i_f3d_flags>
0

> <s_epik_input>
W0NIM11TKD1PKSg9TylOMVtDSDJdW0NIMl1bQ0gyXVtDSDJdW0NASF0xQyg9TylbTkhdW0NIMl1bQ0gyXWMyW2NIXVtjSF1bY0hdbltjSF0y

> <s_epik_cmdline>
J2VwaWtfcHl0aG9uJywgJy1waCcsICc3LjAnLCAnLXRuJywgJzgnLCAnLW1hJywgJzIwMCcsICctbWV0YWxfYmluZGluZycsICctaW1hZScsICc8aW5maWxlLm1hZT4nLCAnLW9tYWUnLCAnPG91dGZpbGUubWFlPic=

> <r_epik_Ionization_Penalty>
2.2835

> <r_epik_Ionization_Penalty_Charging>
2.2835

> <r_epik_Ionization_Penalty_Neutral>
1.35461e-07

> <r_epik_State_Penalty>
2.43297

> <r_epik_Charging_Adjusted_Penalty>
4.71647

> <i_epik_Tot_Q>
1

> <i_epik_Tot_abs_Q>
1

> <r_epik_Metal_State_Penalty>
2.44557

> <b_epik_Metal_Only>
0

> <s_lp_Force_Field>
OPLS_2005

> <r_lp_Energy>
13.1957

> <b_lp_Chiralities_Consistent>
1

> <s_lp_Variant>
AV-unprocessed.smi:2136-3

> <Gold.Version>
5.8.1

> <Gold.Id.Protein>
6NUR|6NUR_protein|mol2

> <Gold.PLP.Fitness>
44.7984

> <Gold.PLP.PLP>
-31.1897

> <Gold.PLP.part.hbond>
-4.0000

> <Gold.PLP.part.metal>
0.0000

> <Gold.PLP.part.buried>
-2.7088

> <Gold.PLP.part.nonpolar>
-25.2257

> <Gold.PLP.part.repulsive>
0.0168

> <Gold.PLP.ligand.clash>
0.0000

> <Gold.PLP.ligand.torsion>
1.6388

> <Gold.PLP.Chemscore.Hbond>
4.9204

> <Gold.PLP.Chemscore.CHOScore>
0.0000

> <Gold.PLP.Chemscore.Metal>
0.0000

> <Gold.Chemscore.Hbonds>
donor molecule, donor type, donor heavy atom, donor atom, acceptor molecule, acceptor atom, score
      L1  H    13    34       P1  7948  1.00
      L1  H    20    43       P1 10186  2.00
      P1  H  6896  6909       L1     3  0.03
      P1  H 10752 10764       L1     4  0.24

> <Gold.PLP.Chemscore.Internal.Correction>
2.1251

> <Gold.Rescore>
     Score         DG    S(hbond)    S(metal)    S(lipo)     H(rot)  DE(clash)    DE(int)     intcor
     19.64     -22.71       3.75        0.00      76.41       1.65       1.32       1.74       ----

> <Gold.Chemscore.Fitness>
19.6396

> <Gold.Chemscore.DG>
-22.7057

> <Gold.Chemscore.ZeroCoef>
-5.4800

> <Gold.Chemscore.Hbond>
3.7484

> <Gold.Chemscore.Metal>
0.0000

> <Gold.Chemscore.Lipo>
76.4080

> <Gold.Chemscore.Internal_Hbond>
0.0000

> <Gold.Chemscore.DEClash>
1.3222

> <Gold.Chemscore.DEInternal>
1.7440

> <Gold.Chemscore.Rot>
1.6538

> <Gold.Chemscore.Internal.Correction>
   9.000000E+99

> <Gold.Chemscore.Hbonds>
donor molecule, donor type, donor heavy atom, donor atom, acceptor molecule, acceptor atom, score
      L1  H    13    34       P1  7948  0.99
      L1  H    20    43       P1 10186  0.98
      P1  H  6896  6909       L1     3  0.01
      P1  H 10752 10764       L1     4  0.25

> <Gold.Chemscore.Hbond.Weighted>
-12.5197

> <Gold.Chemscore.Metal.Weighted>
-0.0000

> <Gold.Chemscore.Lipo.Weighted>
-8.9397

> <Gold.Chemscore.Internal_Hbond.Weighted>
0.0000

> <Gold.Chemscore.DEClash.Weighted>
1.3222

> <Gold.Chemscore.DEInternal.Weighted>
1.7440

> <Gold.Chemscore.Rot.Weighted>
4.2337

> <Gold.Chemscore.Internal.Correction.Weighted>
   9.000000E+99

> <Gold.Protein.RotatedTorsions>
[ 6907 6896 6895 6894 ] final   36.72 input  -60.11 | X-H torsion
[ 7974 7965 7964 7962 ] final  -50.54 input  175.53 | X-H torsion
[ 8008 7997 7996 7995 ] final  121.75 input   59.86 | X-H torsion
[ 10167 10162 10161 10158 ] final   27.92 input  -65.29 | X-H torsion
[ 10718 10713 10712 10709 ] final   91.02 input   66.30 | X-H torsion
[ 10763 10752 10751 10750 ] final  -22.50 input  -60.55 | X-H torsion
[ 11005 11000 10999 10996 ] final  134.93 input  -57.11 | X-H torsion

> <Gold.Protein.ActiveResidues>
 VAL166  LYS551  ARG553  GLY616  TRP617  ASP618  TYR619  PRO620  LYS621  CYS622 
 ASP623  PHE694  ASN695  SER759  ASP760  ASP761  ALA762  ILE779  LEU786  VAL792 
 PHE793  MET794  SER795  GLU796  ALA797  LYS798  CYS799  TRP800  GLU811  SER814 

> <Gold.Protein.RotatedAtoms>
  152.1335  134.9117  160.0557 H   0  0  0  0  0  0  0  0  0  0  0  0  # atno 6907 bound_to 6896
  152.0212  133.3894  159.4267 H   0  0  0  0  0  0  0  0  0  0  0  0  # atno 6908 bound_to 6896
  150.6858  134.3545  159.4967 H   0  0  0  0  0  0  0  0  0  0  0  0  # atno 6909 bound_to 6896
  145.9287  140.7769  142.9610 H   0  0  0  0  0  0  0  0  0  0  0  0  # atno 7974 bound_to 7965
  156.2699  140.2801  156.1358 H   0  0  0  0  0  0  0  0  0  0  0  0  # atno 8008 bound_to 7997
  155.1006  140.0389  157.2713 H   0  0  0  0  0  0  0  0  0  0  0  0  # atno 8009 bound_to 7997
  154.6818  140.2610  155.6906 H   0  0  0  0  0  0  0  0  0  0  0  0  # atno 8010 bound_to 7997
  140.4897  144.0487  150.6293 H   0  0  0  0  0  0  0  0  0  0  0  0  # atno 10167 bound_to 10162
  157.6960  131.0392  150.3666 H   0  0  0  0  0  0  0  0  0  0  0  0  # atno 10718 bound_to 10713
  153.6530  135.6980  153.5202 H   0  0  0  0  0  0  0  0  0  0  0  0  # atno 10763 bound_to 10752
  153.2692  135.4220  155.0970 H   0  0  0  0  0  0  0  0  0  0  0  0  # atno 10764 bound_to 10752
  154.8471  135.3574  154.6074 H   0  0  0  0  0  0  0  0  0  0  0  0  # atno 10765 bound_to 10752
  139.9947  134.9502  156.9936 H   0  0  0  0  0  0  0  0  0  0  0  0  # atno 11005 bound_to 11000
  144.6762  140.2092  143.7379 LP  0  0  0  0  0  0  0  0  0  0  0  0  # atno 17320 bound_to 7965
  145.8455  139.2150  143.1803 LP  0  0  0  0  0  0  0  0  0  0  0  0  # atno 17321 bound_to 7965
  140.3752  143.2832  152.0233 LP  0  0  0  0  0  0  0  0  0  0  0  0  # atno 17342 bound_to 10162
  139.4849  144.6198  151.7276 LP  0  0  0  0  0  0  0  0  0  0  0  0  # atno 17343 bound_to 10162
  156.4096  130.3931  149.6901 LP  0  0  0  0  0  0  0  0  0  0  0  0  # atno 17370 bound_to 10713
  156.4189  130.7759  151.2775 LP  0  0  0  0  0  0  0  0  0  0  0  0  # atno 17371 bound_to 10713
  140.4841  134.1259  155.7221 LP  0  0  0  0  0  0  0  0  0  0  0  0  # atno 17394 bound_to 11000
  141.1594  133.8821  157.1888 LP  0  0  0  0  0  0  0  0  0  0  0  0  # atno 17395 bound_to 11000

$$$$
