AV-unprocessed.smi:2548|AV-procd|sdf|10007|dock7
  -GOLD-   2272014 53D 1   1.00000     0.00000
 Structure written by MMmdl.
 44 45  0  0  0  0  0  0  0  0  1 V2000
  147.4989  138.4684  153.9331 C   0  0  0  0  0  0  0  0  0  0  0  0
  148.8540  138.7962  154.4606 C   0  0  0  0  0  0  0  0  0  0  0  0
  149.5007  138.4061  155.5992 C   0  0  0  0  0  0  0  0  0  0  0  0
  150.7685  139.0567  155.5266 C   0  0  0  0  0  0  0  0  0  0  0  0
  151.9023  138.9953  156.5186 C   0  0  0  0  0  0  0  0  0  0  0  0
  151.4812  139.4912  157.9077 C   0  0  0  0  0  0  0  0  0  0  0  0
  150.5632  138.9496  158.5256 O   0  0  0  0  0  0  0  0  0  0  0  0
  152.1847  140.5259  158.3947 N   0  0  0  0  0  0  0  0  0  0  0  0
  151.9824  141.1637  159.6959 C   0  0  0  0  0  0  0  0  0  0  0  0
  153.0884  142.1979  160.0691 C   0  0  0  0  0  0  0  0  0  0  0  0
  154.4172  141.4360  160.2874 C   0  0  0  0  0  0  0  0  0  0  0  0
  153.3351  143.1921  158.8971 C   0  0  0  0  0  0  0  0  0  0  0  0
  152.1296  144.0255  158.4139 C   0  0  0  0  0  0  0  0  0  0  0  0
  151.8663  145.3355  159.1759 C   0  0  0  0  0  0  0  0  0  0  0  0
  151.9677  145.2807  160.7093 C   0  0  0  0  0  0  0  0  0  0  0  0
  151.5906  143.9392  161.3565 C   0  0  0  0  0  0  0  0  0  0  0  0
  152.7669  142.9451  161.3907 C   0  0  0  0  0  0  0  0  0  0  0  0
  150.8925  139.7974  154.4338 N   0  0  0  0  0  0  0  0  0  0  0  0
  149.7224  139.6269  153.7912 N   0  0  0  0  0  0  0  0  0  0  0  0
  149.5319  140.0797  152.9086 H   0  0  0  0  0  0  0  0  0  0  0  0
  146.9271  137.8915  154.6602 H   0  0  0  0  0  0  0  0  0  0  0  0
  147.5719  137.8803  153.0181 H   0  0  0  0  0  0  0  0  0  0  0  0
  146.9389  139.3765  153.7092 H   0  0  0  0  0  0  0  0  0  0  0  0
  149.1270  137.7494  156.3709 H   0  0  0  0  0  0  0  0  0  0  0  0
  152.2780  137.9758  156.6146 H   0  0  0  0  0  0  0  0  0  0  0  0
  152.7367  139.5997  156.1606 H   0  0  0  0  0  0  0  0  0  0  0  0
  152.9256  140.9008  157.8203 H   0  0  0  0  0  0  0  0  0  0  0  0
  151.0155  141.6665  159.6563 H   0  0  0  0  0  0  0  0  0  0  0  0
  151.8759  140.3935  160.4576 H   0  0  0  0  0  0  0  0  0  0  0  0
  155.2450  142.1230  160.4672 H   0  0  0  0  0  0  0  0  0  0  0  0
  154.6798  140.8338  159.4168 H   0  0  0  0  0  0  0  0  0  0  0  0
  154.3701  140.7655  161.1460 H   0  0  0  0  0  0  0  0  0  0  0  0
  154.1578  143.8656  159.1418 H   0  0  0  0  0  0  0  0  0  0  0  0
  153.6871  142.6141  158.0412 H   0  0  0  0  0  0  0  0  0  0  0  0
  152.3029  144.2942  157.3713 H   0  0  0  0  0  0  0  0  0  0  0  0
  151.2200  143.4302  158.3888 H   0  0  0  0  0  0  0  0  0  0  0  0
  152.5520  146.1040  158.8169 H   0  0  0  0  0  0  0  0  0  0  0  0
  150.8710  145.6858  158.9011 H   0  0  0  0  0  0  0  0  0  0  0  0
  152.9777  145.5564  161.0145 H   0  0  0  0  0  0  0  0  0  0  0  0
  151.3262  146.0632  161.1164 H   0  0  0  0  0  0  0  0  0  0  0  0
  151.3101  144.1422  162.3907 H   0  0  0  0  0  0  0  0  0  0  0  0
  150.7019  143.5087  160.8950 H   0  0  0  0  0  0  0  0  0  0  0  0
  152.5750  142.2168  162.1782 H   0  0  0  0  0  0  0  0  0  0  0  0
  153.6565  143.4773  161.7303 H   0  0  0  0  0  0  0  0  0  0  0  0
  1  2  1  0  0  0  0
  1 21  1  0  0  0  0
  1 22  1  0  0  0  0
  1 23  1  0  0  0  0
  2 19  1  0  0  0  0
  2  3  2  0  0  0  0
  3  4  1  0  0  0  0
  3 24  1  0  0  0  0
  4  5  1  0  0  0  0
  4 18  2  0  0  0  0
  5  6  1  0  0  0  0
  5 25  1  0  0  0  0
  5 26  1  0  0  0  0
  6  7  2  0  0  0  0
  6  8  1  0  0  0  0
  8  9  1  0  0  0  0
  8 27  1  0  0  0  0
  9 10  1  0  0  0  0
  9 28  1  0  0  0  0
  9 29  1  0  0  0  0
 10 17  1  0  0  0  0
 10 11  1  0  0  0  0
 10 12  1  0  0  0  0
 11 30  1  0  0  0  0
 11 31  1  0  0  0  0
 11 32  1  0  0  0  0
 12 13  1  0  0  0  0
 12 33  1  0  0  0  0
 12 34  1  0  0  0  0
 13 14  1  0  0  0  0
 13 35  1  0  0  0  0
 13 36  1  0  0  0  0
 14 15  1  0  0  0  0
 14 37  1  0  0  0  0
 14 38  1  0  0  0  0
 15 16  1  0  0  0  0
 15 39  1  0  0  0  0
 15 40  1  0  0  0  0
 16 17  1  0  0  0  0
 16 41  1  0  0  0  0
 16 42  1  0  0  0  0
 17 43  1  0  0  0  0
 17 44  1  0  0  0  0
 18 19  1  0  0  0  0
 19 20  1  0  0  0  0
M  END
> <s_m_source_file>
AV-unprocessed.smi

> <i_m_source_file_index>
2548

> <i_lp_mmshare_version>
43012

> <i_f3d_flags>
0

> <s_epik_input>
W0NIM11jMVtjSF1jKG5bbkhdMSlbQ0gyXUMoPU8pW05IXVtDSDJdQzIoW0NIM10pW0NIMl1bQ0gyXVtDSDJdW0NIMl1bQ0gyXVtDSDJdMg==

> <s_epik_cmdline>
J2VwaWtfcHl0aG9uJywgJy1waCcsICc3LjAnLCAnLXRuJywgJzgnLCAnLW1hJywgJzIwMCcsICctbWV0YWxfYmluZGluZycsICctaW1hZScsICc8aW5maWxlLm1hZT4nLCAnLW9tYWUnLCAnPG91dGZpbGUubWFlPic=

> <r_lp_tautomer_probability>
0.5

> <r_epik_Ionization_Penalty>
8.42262e-05

> <r_epik_Ionization_Penalty_Charging>
0

> <r_epik_Ionization_Penalty_Neutral>
8.42262e-05

> <r_epik_State_Penalty>
0.41068

> <r_epik_Charging_Adjusted_Penalty>
0.41068

> <i_epik_Tot_Q>
0

> <i_epik_Tot_abs_Q>
0

> <r_epik_Metal_State_Penalty>
0.410698

> <b_epik_Metal_Only>
0

> <s_lp_Force_Field>
OPLS_2005

> <r_lp_Energy>
22.9227

> <b_lp_Chiralities_Consistent>
1

> <s_lp_Variant>
AV-unprocessed.smi:2548-1

> <Gold.Version>
5.8.1

> <Gold.Id.Protein>
6NUR|6NUR_protein|mol2

> <Gold.PLP.Fitness>
47.1042

> <Gold.PLP.PLP>
-41.2651

> <Gold.PLP.part.hbond>
-2.0000

> <Gold.PLP.part.metal>
0.0000

> <Gold.PLP.part.buried>
-6.0394

> <Gold.PLP.part.nonpolar>
-34.8392

> <Gold.PLP.part.repulsive>
0.8262

> <Gold.PLP.ligand.clash>
0.0000

> <Gold.PLP.ligand.torsion>
0.0865

> <Gold.PLP.Chemscore.Hbond>
2.0000

> <Gold.PLP.Chemscore.CHOScore>
0.0000

> <Gold.PLP.Chemscore.Metal>
0.0000

> <Gold.Chemscore.Hbonds>
donor molecule, donor type, donor heavy atom, donor atom, acceptor molecule, acceptor atom, score
      L1  H    19    20       P1  7957  0.98
      P1  H  7989  7998       L1    18  1.00

> <Gold.PLP.Chemscore.Internal.Correction>
0.0121

> <Gold.Rescore>
     Score         DG    S(hbond)    S(metal)    S(lipo)     H(rot)  DE(clash)    DE(int)     intcor
     22.29     -22.50       1.87        0.00     126.11       1.55       0.15       0.06       ----

> <Gold.Chemscore.Fitness>
22.2918

> <Gold.Chemscore.DG>
-22.5039

> <Gold.Chemscore.ZeroCoef>
-5.4800

> <Gold.Chemscore.Hbond>
1.8667

> <Gold.Chemscore.Metal>
0.0000

> <Gold.Chemscore.Lipo>
126.1068

> <Gold.Chemscore.Internal_Hbond>
0.0000

> <Gold.Chemscore.DEClash>
0.1489

> <Gold.Chemscore.DEInternal>
0.0632

> <Gold.Chemscore.Rot>
1.5489

> <Gold.Chemscore.Internal.Correction>
   9.000000E+99

> <Gold.Chemscore.Hbonds>
donor molecule, donor type, donor heavy atom, donor atom, acceptor molecule, acceptor atom, score
      L1  H    19    20       P1  7957  0.93
      P1  H  7989  7998       L1    18  0.34

> <Gold.Chemscore.Hbond.Weighted>
-6.2347

> <Gold.Chemscore.Metal.Weighted>
-0.0000

> <Gold.Chemscore.Lipo.Weighted>
-14.7545

> <Gold.Chemscore.Internal_Hbond.Weighted>
0.0000

> <Gold.Chemscore.DEClash.Weighted>
0.1489

> <Gold.Chemscore.DEInternal.Weighted>
0.0632

> <Gold.Chemscore.Rot.Weighted>
3.9652

> <Gold.Chemscore.Internal.Correction.Weighted>
   9.000000E+99

> <Gold.Protein.RotatedTorsions>
[ 6907 6896 6895 6894 ] final  166.53 input  -60.11 | X-H torsion
[ 7974 7965 7964 7962 ] final  164.88 input  175.53 | X-H torsion
[ 8008 7997 7996 7995 ] final   38.93 input   59.86 | X-H torsion
[ 10167 10162 10161 10158 ] final  106.97 input  -65.29 | X-H torsion
[ 10718 10713 10712 10709 ] final   71.44 input   66.30 | X-H torsion
[ 10763 10752 10751 10750 ] final   19.58 input  -60.55 | X-H torsion
[ 11005 11000 10999 10996 ] final  111.32 input  -57.11 | X-H torsion

> <Gold.Protein.ActiveResidues>
 VAL166  LYS551  ARG553  GLY616  TRP617  ASP618  TYR619  PRO620  LYS621  CYS622 
 ASP623  PHE694  ASN695  SER759  ASP760  ASP761  ALA762  ILE779  LEU786  VAL792 
 PHE793  MET794  SER795  GLU796  ALA797  LYS798  CYS799  TRP800  GLU811  SER814 

> <Gold.Protein.RotatedAtoms>
  151.8775  133.3488  159.3755 H   0  0  0  0  0  0  0  0  0  0  0  0  # atno 6907 bound_to 6896
  150.7136  134.5051  159.5590 H   0  0  0  0  0  0  0  0  0  0  0  0  # atno 6908 bound_to 6896
  152.2596  134.8048  160.0483 H   0  0  0  0  0  0  0  0  0  0  0  0  # atno 6909 bound_to 6896
  144.7526  139.8389  143.6361 H   0  0  0  0  0  0  0  0  0  0  0  0  # atno 7974 bound_to 7965
  155.2282  140.3336  155.4306 H   0  0  0  0  0  0  0  0  0  0  0  0  # atno 8008 bound_to 7997
  156.2305  140.1848  156.7300 H   0  0  0  0  0  0  0  0  0  0  0  0  # atno 8009 bound_to 7997
  154.5971  140.0629  156.9303 H   0  0  0  0  0  0  0  0  0  0  0  0  # atno 8010 bound_to 7997
  139.6966  144.7100  151.1257 H   0  0  0  0  0  0  0  0  0  0  0  0  # atno 10167 bound_to 10162
  157.6452  130.9528  150.0790 H   0  0  0  0  0  0  0  0  0  0  0  0  # atno 10718 bound_to 10713
  153.1150  135.6706  153.9434 H   0  0  0  0  0  0  0  0  0  0  0  0  # atno 10763 bound_to 10752
  153.8966  135.3041  155.3449 H   0  0  0  0  0  0  0  0  0  0  0  0  # atno 10764 bound_to 10752
  154.7567  135.5008  153.9466 H   0  0  0  0  0  0  0  0  0  0  0  0  # atno 10765 bound_to 10752
  139.8901  134.9505  156.6414 H   0  0  0  0  0  0  0  0  0  0  0  0  # atno 11005 bound_to 11000
  146.1496  139.4576  143.0057 LP  0  0  0  0  0  0  0  0  0  0  0  0  # atno 17320 bound_to 7965
  145.6890  141.0169  143.1565 LP  0  0  0  0  0  0  0  0  0  0  0  0  # atno 17321 bound_to 7965
  140.7698  143.5484  150.9233 LP  0  0  0  0  0  0  0  0  0  0  0  0  # atno 17342 bound_to 10162
  139.9163  143.6659  152.3105 LP  0  0  0  0  0  0  0  0  0  0  0  0  # atno 17343 bound_to 10162
  156.1772  130.3648  149.9085 LP  0  0  0  0  0  0  0  0  0  0  0  0  # atno 17370 bound_to 10713
  156.7046  130.8946  151.3603 LP  0  0  0  0  0  0  0  0  0  0  0  0  # atno 17371 bound_to 10713
  140.7590  133.8833  155.8404 LP  0  0  0  0  0  0  0  0  0  0  0  0  # atno 17394 bound_to 11000
  140.9937  134.1243  157.4383 LP  0  0  0  0  0  0  0  0  0  0  0  0  # atno 17395 bound_to 11000

$$$$
