AV-unprocessed.smi:287|AV-procd|sdf|2199|dock4
  -GOLD-   2262022 13D 1   1.00000     0.00000
 Structure written by MMmdl.
 55 58  0  0  0  0  0  0  0  0  1 V2000
  151.9495  141.3765  158.8818 C   0  0  0  0  0  0  0  0  0  0  0  0
  151.4520  140.8551  157.5774 C   0  0  0  0  0  0  0  0  0  0  0  0
  150.3074  141.0448  156.8598 C   0  0  0  0  0  0  0  0  0  0  0  0
  150.4094  140.2535  155.6768 C   0  0  0  0  0  0  0  0  0  0  0  0
  149.3562  140.1470  154.5817 C   0  0  1  0  0  0  0  0  0  0  0  0
  148.1126  140.9621  154.9730 C   0  0  0  0  0  0  0  0  0  0  0  0
  149.7875  140.6901  153.3487 O   0  0  0  0  0  0  0  0  0  0  0  0
  148.9621  138.6810  154.2883 C   0  0  0  0  0  0  0  0  0  0  0  0
  147.9865  138.1592  155.2394 N   0  0  0  0  0  0  0  0  0  0  0  0
  147.6462  136.8541  155.2208 C   0  0  0  0  0  0  0  0  0  0  0  0
  148.0972  135.9975  156.1740 N   0  0  0  0  0  0  0  0  0  0  0  0
  147.7481  134.7083  156.1285 C   0  0  0  0  0  0  0  0  0  0  0  0
  146.9759  134.0838  155.2367 N   0  0  0  0  0  0  0  0  0  0  0  0
  146.5175  134.9415  154.2791 C   0  0  0  0  0  0  0  0  0  0  0  0
  146.8070  136.3323  154.2036 C   0  0  0  0  0  0  0  0  0  0  0  0
  146.1749  136.8871  153.0987 N   0  0  0  0  0  0  0  0  0  0  0  0
  145.5471  135.8789  152.5560 C   0  0  0  0  0  0  0  0  0  0  0  0
  145.6980  134.6714  153.2013 N   0  0  0  0  0  0  0  0  0  0  0  0
  145.0994  133.3577  152.8186 C   0  0  1  0  0  0  0  0  0  0  0  0
  144.3421  133.5411  151.6656 O   0  0  0  0  0  0  0  0  0  0  0  0
  144.4439  132.3793  150.8555 C   0  0  1  0  0  0  0  0  0  0  0  0
  144.0336  132.6831  149.4041 C   0  0  0  0  0  0  0  0  0  0  0  0
  144.2530  134.0472  149.1152 O   0  0  0  0  0  0  0  0  0  0  0  0
  145.9001  131.9324  151.0594 C   0  0  1  0  0  0  0  0  0  0  0  0
  146.7819  132.6013  150.1772 O   0  0  0  0  0  0  0  0  0  0  0  0
  146.1934  132.3212  152.5069 C   0  0  2  0  0  0  0  0  0  0  0  0
  146.0632  131.1831  153.3362 O   0  0  0  0  0  0  0  0  0  0  0  0
  151.6390  139.6460  155.7666 C   0  0  0  0  0  0  0  0  0  0  0  0
  152.3985  138.7041  154.8913 C   0  0  0  0  0  0  0  0  0  0  0  0
  152.2756  140.0033  156.9170 O   0  0  0  0  0  0  0  0  0  0  0  0
  144.4584  133.0839  153.6582 H   0  0  0  0  0  0  0  0  0  0  0  0
  143.7935  131.6099  151.2766 H   0  0  0  0  0  0  0  0  0  0  0  0
  146.0148  130.8622  150.8812 H   0  0  0  0  0  0  0  0  0  0  0  0
  147.1916  132.7448  152.6336 H   0  0  0  0  0  0  0  0  0  0  0  0
  151.1680  141.9298  159.4028 H   0  0  0  0  0  0  0  0  0  0  0  0
  152.7959  142.0466  158.7320 H   0  0  0  0  0  0  0  0  0  0  0  0
  152.2723  140.5597  159.5276 H   0  0  0  0  0  0  0  0  0  0  0  0
  149.4816  141.6756  157.1539 H   0  0  0  0  0  0  0  0  0  0  0  0
  147.6746  140.5944  155.9016 H   0  0  0  0  0  0  0  0  0  0  0  0
  147.3404  140.9082  154.2045 H   0  0  0  0  0  0  0  0  0  0  0  0
  148.3590  142.0144  155.1212 H   0  0  0  0  0  0  0  0  0  0  0  0
  149.5628  140.0840  152.6596 H   0  0  0  0  0  0  0  0  0  0  0  0
  148.5036  138.6369  153.2991 H   0  0  0  0  0  0  0  0  0  0  0  0
  149.8423  138.0372  154.2531 H   0  0  0  0  0  0  0  0  0  0  0  0
  147.5401  138.8427  155.8347 H   0  0  0  0  0  0  0  0  0  0  0  0
  148.1438  134.0879  156.9189 H   0  0  0  0  0  0  0  0  0  0  0  0
  144.9486  135.9904  151.6637 H   0  0  0  0  0  0  0  0  0  0  0  0
  144.5771  132.0543  148.6979 H   0  0  0  0  0  0  0  0  0  0  0  0
  142.9701  132.4887  149.2644 H   0  0  0  0  0  0  0  0  0  0  0  0
  144.8272  134.1079  148.3670 H   0  0  0  0  0  0  0  0  0  0  0  0
  147.5967  132.1246  150.1448 H   0  0  0  0  0  0  0  0  0  0  0  0
  145.1761  130.8643  153.2714 H   0  0  0  0  0  0  0  0  0  0  0  0
  152.5281  139.1234  153.8936 H   0  0  0  0  0  0  0  0  0  0  0  0
  151.8705  137.7554  154.7959 H   0  0  0  0  0  0  0  0  0  0  0  0
  153.3883  138.4967  155.2985 H   0  0  0  0  0  0  0  0  0  0  0  0
  1  2  1  0  0  0  0
  1 35  1  0  0  0  0
  1 36  1  0  0  0  0
  1 37  1  0  0  0  0
  2 30  1  0  0  0  0
  2  3  2  0  0  0  0
  3  4  1  0  0  0  0
  3 38  1  0  0  0  0
  4  5  1  0  0  0  0
  4 28  2  0  0  0  0
  5  6  1  0  0  0  0
  5  7  1  0  0  0  0
  5  8  1  0  0  0  0
  6 39  1  0  0  0  0
  6 40  1  0  0  0  0
  6 41  1  0  0  0  0
  7 42  1  0  0  0  0
  8  9  1  0  0  0  0
  8 43  1  0  0  0  0
  8 44  1  0  0  0  0
  9 10  1  0  0  0  0
  9 45  1  0  0  0  0
 10 15  1  0  0  0  0
 10 11  2  0  0  0  0
 11 12  1  0  0  0  0
 12 13  2  0  0  0  0
 12 46  1  0  0  0  0
 13 14  1  0  0  0  0
 14 18  1  0  0  0  0
 14 15  2  0  0  0  0
 15 16  1  0  0  0  0
 16 17  2  0  0  0  0
 17 18  1  0  0  0  0
 17 47  1  0  0  0  0
 18 19  1  0  0  0  0
 19 31  1  0  0  0  0
 19 26  1  0  0  0  0
 19 20  1  0  0  0  0
 20 21  1  0  0  0  0
 21 32  1  0  0  0  0
 21 22  1  0  0  0  0
 21 24  1  0  0  0  0
 22 23  1  0  0  0  0
 22 48  1  0  0  0  0
 22 49  1  0  0  0  0
 23 50  1  0  0  0  0
 24 33  1  0  0  0  0
 24 25  1  0  0  0  0
 24 26  1  0  0  0  0
 25 51  1  0  0  0  0
 26 34  1  0  0  0  0
 26 27  1  0  0  0  0
 27 52  1  0  0  0  0
 28 29  1  0  0  0  0
 28 30  1  0  0  0  0
 29 53  1  0  0  0  0
 29 54  1  0  0  0  0
 29 55  1  0  0  0  0
M  END
> <s_m_source_file>
AV-unprocessed.smi

> <i_m_source_file_index>
287

> <i_lp_mmshare_version>
43012

> <i_f3d_flags>
0

> <s_epik_input>
W0NIM11jMVtjSF1jKGMobzEpW0NIM10pW0NAQF0oW0NIM10pKFtPSF0pW0NIMl1bTkhdYyhuW2NIXW4yKWMoYzIzKW5bY0hdbjNbQ0BASF00T1tDQEhdKFtDSDJdW09IXSlbQ0BASF0oW09IXSlbQ0BIXTRbT0hd

> <s_epik_cmdline>
J2VwaWtfcHl0aG9uJywgJy1waCcsICc3LjAnLCAnLXRuJywgJzgnLCAnLW1hJywgJzIwMCcsICctbWV0YWxfYmluZGluZycsICctaW1hZScsICc8aW5maWxlLm1hZT4nLCAnLW9tYWUnLCAnPG91dGZpbGUubWFlPic=

> <r_lp_tautomer_probability>
1

> <r_epik_Ionization_Penalty>
0.000992612

> <r_epik_Ionization_Penalty_Charging>
0

> <r_epik_Ionization_Penalty_Neutral>
0.000992612

> <r_epik_State_Penalty>
-0

> <r_epik_Charging_Adjusted_Penalty>
0

> <i_epik_Tot_Q>
0

> <i_epik_Tot_abs_Q>
0

> <r_epik_Metal_State_Penalty>
-0

> <b_epik_Metal_Only>
0

> <s_epik_Chemistry_Notes>
This compound contains an acetal/aminal-like group ( X-CH(R)-Y where X, Y are N, S, or O) that may be acid/base labile, releasing an aldehyde.

> <s_lp_Force_Field>
OPLS_2005

> <r_lp_Energy>
38.8116

> <b_lp_Chiralities_Consistent>
1

> <s_lp_Variant>
AV-unprocessed.smi:287-23

> <Gold.Version>
5.8.1

> <Gold.Id.Protein>
6NUR|6NUR_protein|mol2

> <Gold.PLP.Fitness>
54.7138

> <Gold.PLP.PLP>
-42.5836

> <Gold.PLP.part.hbond>
-6.1707

> <Gold.PLP.part.metal>
0.0000

> <Gold.PLP.part.buried>
-6.6431

> <Gold.PLP.part.nonpolar>
-30.8659

> <Gold.PLP.part.repulsive>
0.5038

> <Gold.PLP.ligand.clash>
0.0000

> <Gold.PLP.ligand.torsion>
1.5490

> <Gold.PLP.Chemscore.Hbond>
5.0200

> <Gold.PLP.Chemscore.CHOScore>
0.0000

> <Gold.PLP.Chemscore.Metal>
0.0000

> <Gold.Chemscore.Hbonds>
donor molecule, donor type, donor heavy atom, donor atom, acceptor molecule, acceptor atom, score
      L1  H     7    42       P1  7957  0.70
      L1  H    23    50       P1  7921  1.00
      L1  H    25    51       P1 10747  1.00
      P1  H  7989  7998       L1     7  0.34
      P1  H  7997  8009       L1    30  0.81
      P1  H  8011  8017       L1     7  1.00

> <Gold.PLP.Chemscore.Internal.Correction>
0.1682

> <Gold.Rescore>
     Score         DG    S(hbond)    S(metal)    S(lipo)     H(rot)  DE(clash)    DE(int)     intcor
     14.93     -16.38       4.01        0.00      94.01       5.27       0.02       1.42       ----

> <Gold.Chemscore.Fitness>
14.9315

> <Gold.Chemscore.DG>
-16.3788

> <Gold.Chemscore.ZeroCoef>
-5.4800

> <Gold.Chemscore.Hbond>
4.0072

> <Gold.Chemscore.Metal>
0.0000

> <Gold.Chemscore.Lipo>
94.0067

> <Gold.Chemscore.Internal_Hbond>
0.0000

> <Gold.Chemscore.DEClash>
0.0240

> <Gold.Chemscore.DEInternal>
1.4233

> <Gold.Chemscore.Rot>
5.2672

> <Gold.Chemscore.Internal.Correction>
   9.000000E+99

> <Gold.Chemscore.Hbonds>
donor molecule, donor type, donor heavy atom, donor atom, acceptor molecule, acceptor atom, score
      L1  H     7    42       P1  7957  0.65
      L1  H    23    50       P1  7921  0.94
      L1  H    25    51       P1 10747  1.00
      P1  H  7989  7998       L1     7  0.15
      P1  H  7997  8009       L1    30  0.56
      P1  H  8011  8017       L1     7  0.25

> <Gold.Chemscore.Hbond.Weighted>
-13.3840

> <Gold.Chemscore.Metal.Weighted>
-0.0000

> <Gold.Chemscore.Lipo.Weighted>
-10.9988

> <Gold.Chemscore.Internal_Hbond.Weighted>
0.0000

> <Gold.Chemscore.DEClash.Weighted>
0.0240

> <Gold.Chemscore.DEInternal.Weighted>
1.4233

> <Gold.Chemscore.Rot.Weighted>
13.4839

> <Gold.Chemscore.Internal.Correction.Weighted>
   9.000000E+99

> <Gold.Protein.RotatedTorsions>
[ 6907 6896 6895 6894 ] final -110.89 input  -60.11 | X-H torsion
[ 7974 7965 7964 7962 ] final  -73.12 input  175.53 | X-H torsion
[ 8008 7997 7996 7995 ] final -174.18 input   59.86 | X-H torsion
[ 10167 10162 10161 10158 ] final  104.41 input  -65.29 | X-H torsion
[ 10718 10713 10712 10709 ] final  -98.99 input   66.30 | X-H torsion
[ 10763 10752 10751 10750 ] final  -13.41 input  -60.55 | X-H torsion
[ 11005 11000 10999 10996 ] final   91.81 input  -57.11 | X-H torsion

> <Gold.Protein.ActiveResidues>
 VAL166  LYS551  ARG553  GLY616  TRP617  ASP618  TYR619  PRO620  LYS621  CYS622 
 ASP623  PHE694  ASN695  SER759  ASP760  ASP761  ALA762  ILE779  LEU786  VAL792 
 PHE793  MET794  SER795  GLU796  ALA797  LYS798  CYS799  TRP800  GLU811  SER814 

> <Gold.Protein.RotatedAtoms>
  150.7654  133.9315  159.3428 H   0  0  0  0  0  0  0  0  0  0  0  0  # atno 6907 bound_to 6896
  151.7214  135.0891  160.0294 H   0  0  0  0  0  0  0  0  0  0  0  0  # atno 6908 bound_to 6896
  152.3647  133.6304  159.6077 H   0  0  0  0  0  0  0  0  0  0  0  0  # atno 6909 bound_to 6896
  145.6562  140.9267  143.0958 H   0  0  0  0  0  0  0  0  0  0  0  0  # atno 7974 bound_to 7965
  155.9668  140.1155  157.0847 H   0  0  0  0  0  0  0  0  0  0  0  0  # atno 8008 bound_to 7997
  154.4146  140.1171  156.5320 H   0  0  0  0  0  0  0  0  0  0  0  0  # atno 8009 bound_to 7997
  155.6648  140.3473  155.4798 H   0  0  0  0  0  0  0  0  0  0  0  0  # atno 8010 bound_to 7997
  139.7180  144.7064  151.0919 H   0  0  0  0  0  0  0  0  0  0  0  0  # atno 10167 bound_to 10162
  156.0122  130.5262  150.6604 H   0  0  0  0  0  0  0  0  0  0  0  0  # atno 10718 bound_to 10713
  153.5129  135.7016  153.5771 H   0  0  0  0  0  0  0  0  0  0  0  0  # atno 10763 bound_to 10752
  153.3854  135.3909  155.1886 H   0  0  0  0  0  0  0  0  0  0  0  0  # atno 10764 bound_to 10752
  154.8701  135.3845  154.4611 H   0  0  0  0  0  0  0  0  0  0  0  0  # atno 10765 bound_to 10752
  139.8833  134.8696  156.3481 H   0  0  0  0  0  0  0  0  0  0  0  0  # atno 11005 bound_to 11000
  144.7105  139.8390  143.7416 LP  0  0  0  0  0  0  0  0  0  0  0  0  # atno 17320 bound_to 7965
  146.1163  139.4174  143.0256 LP  0  0  0  0  0  0  0  0  0  0  0  0  # atno 17321 bound_to 7965
  140.7748  143.5204  150.9543 LP  0  0  0  0  0  0  0  0  0  0  0  0  # atno 17342 bound_to 10162
  139.8891  143.6976  152.3147 LP  0  0  0  0  0  0  0  0  0  0  0  0  # atno 17343 bound_to 10162
  157.4347  131.0854  151.1003 LP  0  0  0  0  0  0  0  0  0  0  0  0  # atno 17370 bound_to 10713
  157.1565  130.6207  149.5598 LP  0  0  0  0  0  0  0  0  0  0  0  0  # atno 17371 bound_to 10713
  140.9613  133.7387  156.0405 LP  0  0  0  0  0  0  0  0  0  0  0  0  # atno 17394 bound_to 11000
  140.7986  134.3534  157.5445 LP  0  0  0  0  0  0  0  0  0  0  0  0  # atno 17395 bound_to 11000

$$$$
