AV-unprocessed.smi:1506|AV-procd|sdf|6079|dock6
  -GOLD-   22720 6203D 1   1.00000     0.00000
 Structure written by MMmdl.
 40 42  0  0  0  0  0  0  0  0  2 V2000
  152.1036  145.1503  160.0588 C   0  0  0  0  0  0  0  0  0  0  0  0
  151.9498  143.7857  159.4195 C   0  0  0  0  0  0  0  0  0  0  0  0
  152.6045  142.6645  159.9666 C   0  0  0  0  0  0  0  0  0  0  0  0
  152.4538  141.4013  159.3655 C   0  0  0  0  0  0  0  0  0  0  0  0
  151.6500  141.2531  158.2188 C   0  0  0  0  0  0  0  0  0  0  0  0
  150.9844  142.3735  157.6599 C   0  0  0  0  0  0  0  0  0  0  0  0
  150.1787  142.3188  156.5425 O   0  0  0  0  0  0  0  0  0  0  0  0
  149.8711  141.0427  155.9970 C   0  0  0  0  0  0  0  0  0  0  0  0
  149.0269  141.2283  154.7274 C   0  0  1  0  0  0  0  0  0  0  0  0
  149.8184  140.8755  153.6101 O   0  0  0  0  0  0  0  0  0  0  0  0
  147.7343  140.3878  154.7504 C   0  0  0  0  0  0  0  0  0  0  0  0
  146.6178  141.0808  155.4092 N   0  0  0  0  0  0  0  0  0  0  0  0
  145.9805  140.7823  156.5738 C   0  0  0  0  0  0  0  0  0  0  0  0
  145.0136  141.7216  156.7672 N   0  3  0  0  0  0  0  0  0  0  0  0
  145.0325  142.6346  155.7108 C   0  0  0  0  0  0  0  0  0  0  0  0
  144.2474  143.7566  155.4636 C   0  0  0  0  0  0  0  0  0  0  0  0
  144.5296  144.4798  154.2862 C   0  0  0  0  0  0  0  0  0  0  0  0
  145.5577  144.0806  153.4079 C   0  0  0  0  0  0  0  0  0  0  0  0
  146.3471  142.9409  153.6681 C   0  0  0  0  0  0  0  0  0  0  0  0
  146.0614  142.2298  154.8336 C   0  0  0  0  0  0  0  0  0  0  0  0
  151.1443  143.6337  158.2725 C   0  0  0  0  0  0  0  0  0  0  0  0
  152.9339  145.1655  160.7657 H   0  0  0  0  0  0  0  0  0  0  0  0
  151.1928  145.4192  160.5941 H   0  0  0  0  0  0  0  0  0  0  0  0
  152.2929  145.9085  159.2986 H   0  0  0  0  0  0  0  0  0  0  0  0
  153.2227  142.7683  160.8464 H   0  0  0  0  0  0  0  0  0  0  0  0
  152.9566  140.5423  159.7850 H   0  0  0  0  0  0  0  0  0  0  0  0
  151.5613  140.2681  157.7867 H   0  0  0  0  0  0  0  0  0  0  0  0
  150.7991  140.5250  155.7471 H   0  0  0  0  0  0  0  0  0  0  0  0
  149.3270  140.4334  156.7208 H   0  0  0  0  0  0  0  0  0  0  0  0
  148.7703  142.2834  154.6229 H   0  0  0  0  0  0  0  0  0  0  0  0
  149.3496  140.2328  153.1006 H   0  0  0  0  0  0  0  0  0  0  0  0
  147.4354  140.0900  153.7454 H   0  0  0  0  0  0  0  0  0  0  0  0
  147.9034  139.4627  155.3028 H   0  0  0  0  0  0  0  0  0  0  0  0
  146.2033  139.9513  157.2276 H   0  0  0  0  0  0  0  0  0  0  0  0
  143.4600  144.0652  156.1356 H   0  0  0  0  0  0  0  0  0  0  0  0
  143.9465  145.3590  154.0527 H   0  0  0  0  0  0  0  0  0  0  0  0
  145.7456  144.6610  152.5163 H   0  0  0  0  0  0  0  0  0  0  0  0
  147.1339  142.6484  152.9891 H   0  0  0  0  0  0  0  0  0  0  0  0
  150.6416  144.4943  157.8555 H   0  0  0  0  0  0  0  0  0  0  0  0
  144.3898  141.7370  157.5638 H   0  0  0  0  0  0  0  0  0  0  0  0
  1  2  1  0  0  0  0
  1 22  1  0  0  0  0
  1 23  1  0  0  0  0
  1 24  1  0  0  0  0
  2 21  1  0  0  0  0
  2  3  2  0  0  0  0
  3  4  1  0  0  0  0
  3 25  1  0  0  0  0
  4  5  2  0  0  0  0
  4 26  1  0  0  0  0
  5  6  1  0  0  0  0
  5 27  1  0  0  0  0
  6  7  1  0  0  0  0
  6 21  2  0  0  0  0
  7  8  1  0  0  0  0
  8  9  1  0  0  0  0
  8 28  1  0  0  0  0
  8 29  1  0  0  0  0
  9 10  1  0  0  0  0
  9 11  1  0  0  0  0
  9 30  1  0  0  0  0
 10 31  1  0  0  0  0
 11 12  1  0  0  0  0
 11 32  1  0  0  0  0
 11 33  1  0  0  0  0
 12 20  1  0  0  0  0
 12 13  1  0  0  0  0
 13 14  2  0  0  0  0
 13 34  1  0  0  0  0
 14 15  1  0  0  0  0
 14 40  1  0  0  0  0
 15 20  2  0  0  0  0
 15 16  1  0  0  0  0
 16 17  2  0  0  0  0
 16 35  1  0  0  0  0
 17 18  1  0  0  0  0
 17 36  1  0  0  0  0
 18 19  2  0  0  0  0
 18 37  1  0  0  0  0
 19 20  1  0  0  0  0
 19 38  1  0  0  0  0
 21 39  1  0  0  0  0
M  CHG  1  14   1
M  END
> <s_m_source_file>
AV-unprocessed.smi

> <i_m_source_file_index>
1506

> <i_lp_mmshare_version>
43012

> <i_f3d_flags>
0

> <s_epik_input>
W0NIM11jMVtjSF1bY0hdW2NIXWMoW2NIXTEpT1tDSDJdW0NASF0oW09IXSlbQ0gyXW4oW2NIXW4yKWMoYzIzKVtjSF1bY0hdW2NIXVtjSF0z

> <s_epik_cmdline>
J2VwaWtfcHl0aG9uJywgJy1waCcsICc3LjAnLCAnLXRuJywgJzgnLCAnLW1hJywgJzIwMCcsICctbWV0YWxfYmluZGluZycsICctaW1hZScsICc8aW5maWxlLm1hZT4nLCAnLW9tYWUnLCAnPG91dGZpbGUubWFlPic=

> <r_lp_tautomer_probability>
1

> <r_epik_Ionization_Penalty>
1.37864

> <r_epik_Ionization_Penalty_Charging>
1.37864

> <r_epik_Ionization_Penalty_Neutral>
2.3993e-06

> <r_epik_State_Penalty>
1.45896

> <r_epik_Charging_Adjusted_Penalty>
2.8376

> <i_epik_Tot_Q>
1

> <i_epik_Tot_abs_Q>
1

> <r_epik_Metal_State_Penalty>
5.49899

> <b_epik_Metal_Only>
0

> <s_lp_Force_Field>
OPLS_2005

> <r_lp_Energy>
20.0977

> <b_lp_Chiralities_Consistent>
1

> <s_lp_Variant>
AV-unprocessed.smi:1506-4

> <Gold.Version>
5.8.1

> <Gold.Id.Protein>
6NUR|6NUR_protein|mol2

> <Gold.PLP.Fitness>
46.8282

> <Gold.PLP.PLP>
-43.6402

> <Gold.PLP.part.hbond>
-2.6695

> <Gold.PLP.part.metal>
0.0000

> <Gold.PLP.part.buried>
-7.0439

> <Gold.PLP.part.nonpolar>
-35.7785

> <Gold.PLP.part.repulsive>
1.7737

> <Gold.PLP.ligand.clash>
0.0000

> <Gold.PLP.ligand.torsion>
1.1332

> <Gold.PLP.Chemscore.Hbond>
1.8000

> <Gold.PLP.Chemscore.CHOScore>
0.0000

> <Gold.PLP.Chemscore.Metal>
0.0000

> <Gold.Chemscore.Hbonds>
donor molecule, donor type, donor heavy atom, donor atom, acceptor molecule, acceptor atom, score
      L1  H    10    31       P1  7957  0.43
      P1  H  7989  7998       L1    10  0.37
      P1  H  8011  8017       L1    10  1.00

> <Gold.PLP.Chemscore.Internal.Correction>
0.0543

> <Gold.Rescore>
     Score         DG    S(hbond)    S(metal)    S(lipo)     H(rot)  DE(clash)    DE(int)     intcor
     15.65     -18.05       1.15        0.00     124.18       2.27       1.25       1.14       ----

> <Gold.Chemscore.Fitness>
15.6534

> <Gold.Chemscore.DG>
-18.0457

> <Gold.Chemscore.ZeroCoef>
-5.4800

> <Gold.Chemscore.Hbond>
1.1539

> <Gold.Chemscore.Metal>
0.0000

> <Gold.Chemscore.Lipo>
124.1760

> <Gold.Chemscore.Internal_Hbond>
0.0000

> <Gold.Chemscore.DEClash>
1.2530

> <Gold.Chemscore.DEInternal>
1.1393

> <Gold.Chemscore.Rot>
2.2723

> <Gold.Chemscore.Internal.Correction>
   9.000000E+99

> <Gold.Chemscore.Hbonds>
donor molecule, donor type, donor heavy atom, donor atom, acceptor molecule, acceptor atom, score
      L1  H    10    31       P1  7957  0.43
      P1  H  7989  7998       L1    10  0.34
      P1  H  8011  8017       L1    10  0.15

> <Gold.Chemscore.Hbond.Weighted>
-3.8542

> <Gold.Chemscore.Metal.Weighted>
-0.0000

> <Gold.Chemscore.Lipo.Weighted>
-14.5286

> <Gold.Chemscore.Internal_Hbond.Weighted>
0.0000

> <Gold.Chemscore.DEClash.Weighted>
1.2530

> <Gold.Chemscore.DEInternal.Weighted>
1.1393

> <Gold.Chemscore.Rot.Weighted>
5.8170

> <Gold.Chemscore.Internal.Correction.Weighted>
   9.000000E+99

> <Gold.Protein.RotatedTorsions>
[ 6907 6896 6895 6894 ] final  -77.27 input  -60.11 | X-H torsion
[ 7974 7965 7964 7962 ] final  -23.07 input  175.53 | X-H torsion
[ 8008 7997 7996 7995 ] final   65.32 input   59.86 | X-H torsion
[ 10167 10162 10161 10158 ] final  -30.90 input  -65.29 | X-H torsion
[ 10718 10713 10712 10709 ] final  133.07 input   66.30 | X-H torsion
[ 10763 10752 10751 10750 ] final   26.18 input  -60.55 | X-H torsion
[ 11005 11000 10999 10996 ] final -108.44 input  -57.11 | X-H torsion

> <Gold.Protein.ActiveResidues>
 VAL166  LYS551  ARG553  GLY616  TRP617  ASP618  TYR619  PRO620  LYS621  CYS622 
 ASP623  PHE694  ASN695  SER759  ASP760  ASP761  ALA762  ILE779  LEU786  VAL792 
 PHE793  MET794  SER795  GLU796  ALA797  LYS798  CYS799  TRP800  GLU811  SER814 

> <Gold.Protein.RotatedAtoms>
  150.7003  134.4447  159.5308 H   0  0  0  0  0  0  0  0  0  0  0  0  # atno 6907 bound_to 6896
  152.2150  134.8463  160.0502 H   0  0  0  0  0  0  0  0  0  0  0  0  # atno 6908 bound_to 6896
  151.9334  133.3582  159.3976 H   0  0  0  0  0  0  0  0  0  0  0  0  # atno 6909 bound_to 6896
  146.1638  140.4566  142.8560 H   0  0  0  0  0  0  0  0  0  0  0  0  # atno 7974 bound_to 7965
  155.6599  140.3497  155.4779 H   0  0  0  0  0  0  0  0  0  0  0  0  # atno 8008 bound_to 7997
  155.9777  140.1168  157.0778 H   0  0  0  0  0  0  0  0  0  0  0  0  # atno 8009 bound_to 7997
  154.4183  140.1144  156.5379 H   0  0  0  0  0  0  0  0  0  0  0  0  # atno 8010 bound_to 7997
  140.7243  143.3812  151.1597 H   0  0  0  0  0  0  0  0  0  0  0  0  # atno 10167 bound_to 10162
  157.4809  131.1086  150.9682 H   0  0  0  0  0  0  0  0  0  0  0  0  # atno 10718 bound_to 10713
  153.0640  135.6566  154.0397 H   0  0  0  0  0  0  0  0  0  0  0  0  # atno 10763 bound_to 10752
  154.0058  135.2933  155.3399 H   0  0  0  0  0  0  0  0  0  0  0  0  # atno 10764 bound_to 10752
  154.6990  135.5252  153.8568 H   0  0  0  0  0  0  0  0  0  0  0  0  # atno 10765 bound_to 10752
  141.0901  133.9069  157.2094 H   0  0  0  0  0  0  0  0  0  0  0  0  # atno 11005 bound_to 11000
  144.8064  140.6307  143.6444 LP  0  0  0  0  0  0  0  0  0  0  0  0  # atno 17320 bound_to 7965
  145.4520  139.1522  143.3913 LP  0  0  0  0  0  0  0  0  0  0  0  0  # atno 17321 bound_to 7965
  139.7401  143.8937  152.3047 LP  0  0  0  0  0  0  0  0  0  0  0  0  # atno 17342 bound_to 10162
  139.8756  144.7045  150.8937 LP  0  0  0  0  0  0  0  0  0  0  0  0  # atno 17343 bound_to 10162
  157.0415  130.5751  149.5357 LP  0  0  0  0  0  0  0  0  0  0  0  0  # atno 17370 bound_to 10713
  156.0121  130.5213  150.8022 LP  0  0  0  0  0  0  0  0  0  0  0  0  # atno 17371 bound_to 10713
  139.9726  135.0123  156.9550 LP  0  0  0  0  0  0  0  0  0  0  0  0  # atno 17394 bound_to 11000
  140.5271  134.0850  155.7306 LP  0  0  0  0  0  0  0  0  0  0  0  0  # atno 17395 bound_to 11000

$$$$
