AV-unprocessed.smi:232|AV-procd|sdf|1777|dock6
  -GOLD-   2262020323D 1   1.00000     0.00000
 Structure written by MMmdl.
 52 55  0  0  0  0  0  0  0  0  1 V2000
  147.6615  131.4411  160.2391 C   0  0  0  0  0  0  0  0  0  0  0  0
  147.0639  132.3520  161.3183 C   0  0  0  0  0  0  0  0  0  0  0  0
  147.7079  133.7536  161.3509 C   0  0  2  0  0  0  0  0  0  0  0  0
  147.3330  134.5843  162.5872 C   0  0  0  0  0  0  0  0  0  0  0  0
  147.3159  136.0369  162.0955 C   0  0  0  0  0  0  0  0  0  0  0  0
  147.6788  135.9461  160.6091 C   0  0  2  0  0  0  0  0  0  0  0  0
  147.0029  137.0231  159.7444 C   0  0  0  0  0  0  0  0  0  0  0  0
  147.3141  134.5890  160.2223 N   0  0  0  0  0  0  0  0  0  0  0  0
  147.7678  134.1907  159.0110 C   0  0  0  0  0  0  0  0  0  0  0  0
  149.1004  134.1755  158.7418 N   0  0  0  0  0  0  0  0  0  0  0  0
  149.5327  133.7850  157.5387 C   0  0  0  0  0  0  0  0  0  0  0  0
  148.8191  133.3792  156.4854 N   0  0  0  0  0  0  0  0  0  0  0  0
  147.4823  133.3930  156.7581 C   0  0  0  0  0  0  0  0  0  0  0  0
  146.8776  133.7812  157.9853 C   0  0  0  0  0  0  0  0  0  0  0  0
  145.4962  133.6665  157.8967 N   0  0  0  0  0  0  0  0  0  0  0  0
  145.2941  133.2308  156.6826 C   0  0  0  0  0  0  0  0  0  0  0  0
  146.4313  133.0391  155.9309 N   0  0  0  0  0  0  0  0  0  0  0  0
  146.4934  132.5613  154.5612 C   0  0  0  0  0  0  0  0  0  0  0  0
  145.9478  133.5912  153.5523 C   0  0  2  0  0  0  0  0  0  0  0  0
  144.5627  133.7761  153.7749 O   0  0  0  0  0  0  0  0  0  0  0  0
  146.1650  133.1483  152.0934 C   0  0  1  0  0  0  0  0  0  0  0  0
  145.6027  131.7642  151.7616 C   0  0  0  0  0  0  0  0  0  0  0  0
  145.3948  131.8663  150.2683 C   0  0  0  0  0  0  0  0  0  0  0  0
  144.9044  133.3027  150.1215 C   0  0  0  0  0  0  0  0  0  0  0  0
  145.4863  134.0298  151.2005 O   0  0  0  0  0  0  0  0  0  0  0  0
  147.1523  130.4772  160.2216 H   0  0  0  0  0  0  0  0  0  0  0  0
  148.7204  131.2519  160.4170 H   0  0  0  0  0  0  0  0  0  0  0  0
  147.5620  131.8874  159.2494 H   0  0  0  0  0  0  0  0  0  0  0  0
  145.9933  132.4426  161.1319 H   0  0  0  0  0  0  0  0  0  0  0  0
  147.1617  131.8755  162.2945 H   0  0  0  0  0  0  0  0  0  0  0  0
  148.7937  133.6423  161.3323 H   0  0  0  0  0  0  0  0  0  0  0  0
  146.3418  134.3141  162.9536 H   0  0  0  0  0  0  0  0  0  0  0  0
  148.0406  134.4315  163.4026 H   0  0  0  0  0  0  0  0  0  0  0  0
  146.3179  136.4563  162.2299 H   0  0  0  0  0  0  0  0  0  0  0  0
  148.0179  136.6685  162.6408 H   0  0  0  0  0  0  0  0  0  0  0  0
  148.7611  136.0551  160.5198 H   0  0  0  0  0  0  0  0  0  0  0  0
  147.2570  138.0218  160.0993 H   0  0  0  0  0  0  0  0  0  0  0  0
  145.9171  136.9259  159.7683 H   0  0  0  0  0  0  0  0  0  0  0  0
  147.3205  136.9551  158.7036 H   0  0  0  0  0  0  0  0  0  0  0  0
  150.6036  133.8000  157.3999 H   0  0  0  0  0  0  0  0  0  0  0  0
  144.3033  133.0339  156.2993 H   0  0  0  0  0  0  0  0  0  0  0  0
  147.5336  132.3240  154.3350 H   0  0  0  0  0  0  0  0  0  0  0  0
  145.9400  131.6240  154.4910 H   0  0  0  0  0  0  0  0  0  0  0  0
  146.4437  134.5493  153.7137 H   0  0  0  0  0  0  0  0  0  0  0  0
  144.1980  132.9625  154.0884 H   0  0  0  0  0  0  0  0  0  0  0  0
  147.2268  133.1737  151.8415 H   0  0  0  0  0  0  0  0  0  0  0  0
  146.2739  130.9526  152.0438 H   0  0  0  0  0  0  0  0  0  0  0  0
  144.6454  131.6056  152.2608 H   0  0  0  0  0  0  0  0  0  0  0  0
  146.3450  131.7374  149.7482 H   0  0  0  0  0  0  0  0  0  0  0  0
  144.6884  131.1319  149.8805 H   0  0  0  0  0  0  0  0  0  0  0  0
  145.1747  133.7364  149.1585 H   0  0  0  0  0  0  0  0  0  0  0  0
  143.8194  133.3476  150.2207 H   0  0  0  0  0  0  0  0  0  0  0  0
  1  2  1  0  0  0  0
  1 26  1  0  0  0  0
  1 27  1  0  0  0  0
  1 28  1  0  0  0  0
  2  3  1  0  0  0  0
  2 29  1  0  0  0  0
  2 30  1  0  0  0  0
  3  8  1  0  0  0  0
  3  4  1  0  0  0  0
  3 31  1  0  0  0  0
  4  5  1  0  0  0  0
  4 32  1  0  0  0  0
  4 33  1  0  0  0  0
  5  6  1  0  0  0  0
  5 34  1  0  0  0  0
  5 35  1  0  0  0  0
  6  7  1  0  0  0  0
  6  8  1  0  0  0  0
  6 36  1  0  0  0  0
  7 37  1  0  0  0  0
  7 38  1  0  0  0  0
  7 39  1  0  0  0  0
  8  9  1  0  0  0  0
  9 14  1  0  0  0  0
  9 10  2  0  0  0  0
 10 11  1  0  0  0  0
 11 12  2  0  0  0  0
 11 40  1  0  0  0  0
 12 13  1  0  0  0  0
 13 17  1  0  0  0  0
 13 14  2  0  0  0  0
 14 15  1  0  0  0  0
 15 16  2  0  0  0  0
 16 17  1  0  0  0  0
 16 41  1  0  0  0  0
 17 18  1  0  0  0  0
 18 19  1  0  0  0  0
 18 42  1  0  0  0  0
 18 43  1  0  0  0  0
 19 20  1  0  0  0  0
 19 21  1  0  0  0  0
 19 44  1  0  0  0  0
 20 45  1  0  0  0  0
 21 25  1  0  0  0  0
 21 22  1  0  0  0  0
 21 46  1  0  0  0  0
 22 23  1  0  0  0  0
 22 47  1  0  0  0  0
 22 48  1  0  0  0  0
 23 24  1  0  0  0  0
 23 49  1  0  0  0  0
 23 50  1  0  0  0  0
 24 25  1  0  0  0  0
 24 51  1  0  0  0  0
 24 52  1  0  0  0  0
M  END
> <s_m_source_file>
AV-unprocessed.smi

> <i_m_source_file_index>
232

> <i_lp_mmshare_version>
43012

> <i_f3d_flags>
0

> <s_epik_input>
W0NIM11bQ0gyXVtDQEBIXTFbQ0gyXVtDSDJdW0NAQEhdKFtDSDNdKU4xYyhuW2NIXW4yKWMoYzIzKW5bY0hdbjNbQ0gyXVtDQEhdKFtPSF0pW0NAQEhdNFtDSDJdW0NIMl1bQ0gyXU80

> <s_epik_cmdline>
J2VwaWtfcHl0aG9uJywgJy1waCcsICc3LjAnLCAnLXRuJywgJzgnLCAnLW1hJywgJzIwMCcsICctbWV0YWxfYmluZGluZycsICctaW1hZScsICc8aW5maWxlLm1hZT4nLCAnLW9tYWUnLCAnPG91dGZpbGUubWFlPic=

> <r_lp_tautomer_probability>
1

> <r_epik_Ionization_Penalty>
0.00258048

> <r_epik_Ionization_Penalty_Charging>
0

> <r_epik_Ionization_Penalty_Neutral>
0.00258048

> <r_epik_State_Penalty>
0.00168551

> <r_epik_Charging_Adjusted_Penalty>
0.00168551

> <i_epik_Tot_Q>
0

> <i_epik_Tot_abs_Q>
0

> <r_epik_Metal_State_Penalty>
-0

> <b_epik_Metal_Only>
0

> <s_lp_Force_Field>
OPLS_2005

> <r_lp_Energy>
51.1515

> <b_lp_Chiralities_Consistent>
1

> <s_lp_Variant>
AV-unprocessed.smi:232-11

> <Gold.Version>
5.8.1

> <Gold.Id.Protein>
6NUR|6NUR_protein|mol2

> <Gold.PLP.Fitness>
40.1378

> <Gold.PLP.PLP>
-31.5670

> <Gold.PLP.part.hbond>
-2.0000

> <Gold.PLP.part.metal>
0.0000

> <Gold.PLP.part.buried>
-5.7312

> <Gold.PLP.part.nonpolar>
-24.8007

> <Gold.PLP.part.repulsive>
0.1432

> <Gold.PLP.ligand.clash>
0.0000

> <Gold.PLP.ligand.torsion>
0.2554

> <Gold.PLP.Chemscore.Hbond>
2.0000

> <Gold.PLP.Chemscore.CHOScore>
1.0000

> <Gold.PLP.Chemscore.Metal>
0.0000

> <Gold.Chemscore.Hbonds>
donor molecule, donor type, donor heavy atom, donor atom, acceptor molecule, acceptor atom, score
      L1  H    20    45       P1 10957  0.93
      P1  H  6896  6907       L1    10  0.65
      L1  C    16    41       P1 10957  0.98

> <Gold.PLP.Chemscore.Internal.Correction>
0.0816

> <Gold.Rescore>
     Score         DG    S(hbond)    S(metal)    S(lipo)     H(rot)  DE(clash)    DE(int)     intcor
     14.28     -14.94       1.91        0.00      79.54       2.43       0.04       0.62       ----

> <Gold.Chemscore.Fitness>
14.2795

> <Gold.Chemscore.DG>
-14.9385

> <Gold.Chemscore.ZeroCoef>
-5.4800

> <Gold.Chemscore.Hbond>
1.9050

> <Gold.Chemscore.Metal>
0.0000

> <Gold.Chemscore.Lipo>
79.5415

> <Gold.Chemscore.Internal_Hbond>
0.0000

> <Gold.Chemscore.DEClash>
0.0424

> <Gold.Chemscore.DEInternal>
0.6165

> <Gold.Chemscore.Rot>
2.4260

> <Gold.Chemscore.Internal.Correction>
   9.000000E+99

> <Gold.Chemscore.Hbonds>
donor molecule, donor type, donor heavy atom, donor atom, acceptor molecule, acceptor atom, score
      L1  H    20    45       P1 10957  0.84
      P1  H  6896  6907       L1    10  0.06

> <Gold.Chemscore.Hbond.Weighted>
-6.3628

> <Gold.Chemscore.Metal.Weighted>
-0.0000

> <Gold.Chemscore.Lipo.Weighted>
-9.3064

> <Gold.Chemscore.Internal_Hbond.Weighted>
0.0000

> <Gold.Chemscore.DEClash.Weighted>
0.0424

> <Gold.Chemscore.DEInternal.Weighted>
0.6165

> <Gold.Chemscore.Rot.Weighted>
6.2107

> <Gold.Chemscore.Internal.Correction.Weighted>
   9.000000E+99

> <Gold.Protein.RotatedTorsions>
[ 6907 6896 6895 6894 ] final  -96.37 input  -60.11 | X-H torsion
[ 7974 7965 7964 7962 ] final  -79.05 input  175.53 | X-H torsion
[ 8008 7997 7996 7995 ] final  124.99 input   59.86 | X-H torsion
[ 10167 10162 10161 10158 ] final   76.51 input  -65.29 | X-H torsion
[ 10718 10713 10712 10709 ] final -171.26 input   66.30 | X-H torsion
[ 10763 10752 10751 10750 ] final   13.26 input  -60.55 | X-H torsion
[ 11005 11000 10999 10996 ] final  135.44 input  -57.11 | X-H torsion

> <Gold.Protein.ActiveResidues>
 VAL166  LYS551  ARG553  GLY616  TRP617  ASP618  TYR619  PRO620  LYS621  CYS622 
 ASP623  PHE694  ASN695  SER759  ASP760  ASP761  ALA762  ILE779  LEU786  VAL792 
 PHE793  MET794  SER795  GLU796  ALA797  LYS798  CYS799  TRP800  GLU811  SER814 

> <Gold.Protein.RotatedAtoms>
  150.6987  134.1513  159.4141 H   0  0  0  0  0  0  0  0  0  0  0  0  # atno 6907 bound_to 6896
  151.9495  135.0173  160.0550 H   0  0  0  0  0  0  0  0  0  0  0  0  # atno 6908 bound_to 6896
  152.2023  133.4815  159.5102 H   0  0  0  0  0  0  0  0  0  0  0  0  # atno 6909 bound_to 6896
  145.5784  140.9453  143.1357 H   0  0  0  0  0  0  0  0  0  0  0  0  # atno 7974 bound_to 7965
  156.2820  140.2726  156.1878 H   0  0  0  0  0  0  0  0  0  0  0  0  # atno 8008 bound_to 7997
  155.0490  140.0386  157.2555 H   0  0  0  0  0  0  0  0  0  0  0  0  # atno 8009 bound_to 7997
  154.7211  140.2688  155.6546 H   0  0  0  0  0  0  0  0  0  0  0  0  # atno 8010 bound_to 7997
  139.9915  144.5753  150.7814 H   0  0  0  0  0  0  0  0  0  0  0  0  # atno 10167 bound_to 10162
  156.7382  130.9332  151.3108 H   0  0  0  0  0  0  0  0  0  0  0  0  # atno 10718 bound_to 10713
  153.1739  135.6817  153.8570 H   0  0  0  0  0  0  0  0  0  0  0  0  # atno 10763 bound_to 10752
  153.7925  135.3167  155.3381 H   0  0  0  0  0  0  0  0  0  0  0  0  # atno 10764 bound_to 10752
  154.8016  135.4774  154.0383 H   0  0  0  0  0  0  0  0  0  0  0  0  # atno 10765 bound_to 10752
  139.9980  134.9490  157.0008 H   0  0  0  0  0  0  0  0  0  0  0  0  # atno 11005 bound_to 11000
  144.7405  139.7462  143.7312 LP  0  0  0  0  0  0  0  0  0  0  0  0  # atno 17320 bound_to 7965
  146.1734  139.4894  142.9913 LP  0  0  0  0  0  0  0  0  0  0  0  0  # atno 17321 bound_to 7965
  140.7453  143.2873  151.3427 LP  0  0  0  0  0  0  0  0  0  0  0  0  # atno 17342 bound_to 10162
  139.6337  144.0672  152.2497 LP  0  0  0  0  0  0  0  0  0  0  0  0  # atno 17343 bound_to 10162
  157.6830  130.9158  150.0314 LP  0  0  0  0  0  0  0  0  0  0  0  0  # atno 17370 bound_to 10713
  156.1482  130.3642  149.9477 LP  0  0  0  0  0  0  0  0  0  0  0  0  # atno 17371 bound_to 10713
  140.4781  134.1317  155.7213 LP  0  0  0  0  0  0  0  0  0  0  0  0  # atno 17394 bound_to 11000
  141.1620  133.8775  157.1822 LP  0  0  0  0  0  0  0  0  0  0  0  0  # atno 17395 bound_to 11000

$$$$
