AV-unprocessed.smi:95|AV-procd|sdf|858|dock10
  -GOLD-   2262017303D 1   1.00000     0.00000
 Structure written by MMmdl.
 42 45  0  0  0  0  0  0  0  0  2 V2000
  148.2580  141.8334  153.8402 O   0  0  0  0  0  0  0  0  0  0  0  0
  147.5652  141.7803  154.8582 C   0  0  0  0  0  0  0  0  0  0  0  0
  146.1620  142.1736  154.8994 C   0  0  0  0  0  0  0  0  0  0  0  0
  145.5591  142.6009  153.7772 F   0  0  0  0  0  0  0  0  0  0  0  0
  145.4490  142.0946  156.0437 C   0  0  0  0  0  0  0  0  0  0  0  0
  145.9867  141.6660  157.2475 N   0  0  0  0  0  0  0  0  0  0  0  0
  145.1308  141.4859  158.4854 C   0  0  1  0  0  0  0  0  0  0  0  0
  145.5975  142.3025  159.7033 C   0  0  0  0  0  0  0  0  0  0  0  0
  144.5870  143.4324  159.7415 C   0  0  0  0  0  0  0  0  0  0  0  0
  143.3428  142.7494  159.1875 C   0  0  0  0  0  0  0  0  0  0  0  0
  143.8366  141.8989  158.1605 O   0  0  0  0  0  0  0  0  0  0  0  0
  147.3201  141.1966  157.2797 C   0  0  0  0  0  0  0  0  0  0  0  0
  147.7937  140.7057  158.3071 O   0  0  0  0  0  0  0  0  0  0  0  0
  148.0768  141.3021  156.0879 N   0  0  0  0  0  0  0  0  0  0  0  0
  149.4545  140.8381  156.0937 C   0  0  0  0  0  0  0  0  0  0  0  0
  150.3290  141.4588  157.1735 C   0  0  0  0  0  0  0  0  0  0  0  0
  151.2129  140.7013  157.9740 C   0  0  0  0  0  0  0  0  0  0  0  0
  151.9975  141.3553  158.9455 C   0  0  0  0  0  0  0  0  0  0  0  0
  151.8816  142.7532  159.0988 C   0  0  0  0  0  0  0  0  0  0  0  0
  152.6482  143.4449  160.0588 C   0  0  0  0  0  0  0  0  0  0  0  0
  152.5128  144.8414  160.1928 C   0  0  0  0  0  0  0  0  0  0  0  0
  151.6136  145.5494  159.3702 C   0  0  0  0  0  0  0  0  0  0  0  0
  150.8450  144.8645  158.4082 C   0  0  0  0  0  0  0  0  0  0  0  0
  150.9788  143.4685  158.2723 C   0  0  0  0  0  0  0  0  0  0  0  0
  150.2495  142.7966  157.3543 N   0  3  0  0  0  0  0  0  0  0  0  0
  144.4092  142.3752  155.9909 H   0  0  0  0  0  0  0  0  0  0  0  0
  145.1540  140.4196  158.7160 H   0  0  0  0  0  0  0  0  0  0  0  0
  145.4846  141.6790  160.5913 H   0  0  0  0  0  0  0  0  0  0  0  0
  146.6402  142.6145  159.6464 H   0  0  0  0  0  0  0  0  0  0  0  0
  144.4391  143.8387  160.7424 H   0  0  0  0  0  0  0  0  0  0  0  0
  144.8913  144.2476  159.0848 H   0  0  0  0  0  0  0  0  0  0  0  0
  142.8650  142.1407  159.9567 H   0  0  0  0  0  0  0  0  0  0  0  0
  142.6072  143.4569  158.8042 H   0  0  0  0  0  0  0  0  0  0  0  0
  149.4169  139.7510  156.1907 H   0  0  0  0  0  0  0  0  0  0  0  0
  149.8932  141.0123  155.1109 H   0  0  0  0  0  0  0  0  0  0  0  0
  151.2932  139.6314  157.8490 H   0  0  0  0  0  0  0  0  0  0  0  0
  152.6781  140.7870  159.5628 H   0  0  0  0  0  0  0  0  0  0  0  0
  153.3402  142.9110  160.6941 H   0  0  0  0  0  0  0  0  0  0  0  0
  153.1001  145.3711  160.9288 H   0  0  0  0  0  0  0  0  0  0  0  0
  151.5138  146.6196  159.4778 H   0  0  0  0  0  0  0  0  0  0  0  0
  150.1580  145.4141  157.7808 H   0  0  0  0  0  0  0  0  0  0  0  0
  149.6078  143.3263  156.7645 H   0  0  0  0  0  0  0  0  0  0  0  0
  1  2  2  0  0  0  0
  2 14  1  0  0  0  0
  2  3  1  0  0  0  0
  3  4  1  0  0  0  0
  3  5  2  0  0  0  0
  5  6  1  0  0  0  0
  5 26  1  0  0  0  0
  6  7  1  0  0  0  0
  6 12  1  0  0  0  0
  7 11  1  0  0  0  0
  7  8  1  0  0  0  0
  7 27  1  0  0  0  0
  8  9  1  0  0  0  0
  8 28  1  0  0  0  0
  8 29  1  0  0  0  0
  9 10  1  0  0  0  0
  9 30  1  0  0  0  0
  9 31  1  0  0  0  0
 10 11  1  0  0  0  0
 10 32  1  0  0  0  0
 10 33  1  0  0  0  0
 12 13  2  0  0  0  0
 12 14  1  0  0  0  0
 14 15  1  0  0  0  0
 15 16  1  0  0  0  0
 15 34  1  0  0  0  0
 15 35  1  0  0  0  0
 16 25  1  0  0  0  0
 16 17  2  0  0  0  0
 17 18  1  0  0  0  0
 17 36  1  0  0  0  0
 18 19  2  0  0  0  0
 18 37  1  0  0  0  0
 19 24  1  0  0  0  0
 19 20  1  0  0  0  0
 20 21  2  0  0  0  0
 20 38  1  0  0  0  0
 21 22  1  0  0  0  0
 21 39  1  0  0  0  0
 22 23  2  0  0  0  0
 22 40  1  0  0  0  0
 23 24  1  0  0  0  0
 23 41  1  0  0  0  0
 24 25  2  0  0  0  0
 25 42  1  0  0  0  0
M  CHG  1  25   1
M  END
> <s_m_source_file>
AV-unprocessed.smi

> <i_m_source_file_index>
95

> <i_lp_mmshare_version>
43012

> <i_f3d_flags>
0

> <s_epik_input>
TzFbQ0gyXVtDSDJdW0NIMl1bQ0BIXTFuKFtjSF1jKEYpYzI9TyljKD1PKW4yW0NIMl1jKFtjSF1bY0hdMyluYyhjMzQpW2NIXVtjSF1bY0hdW2NIXTQ=

> <s_epik_cmdline>
J2VwaWtfcHl0aG9uJywgJy1waCcsICc3LjAnLCAnLXRuJywgJzgnLCAnLW1hJywgJzIwMCcsICctbWV0YWxfYmluZGluZycsICctaW1hZScsICc8aW5maWxlLm1hZT4nLCAnLW9tYWUnLCAnPG91dGZpbGUubWFlPic=

> <r_lp_tautomer_probability>
1

> <r_epik_Ionization_Penalty>
1.83445

> <r_epik_Ionization_Penalty_Charging>
1.83445

> <r_epik_Ionization_Penalty_Neutral>
6.33322e-12

> <r_epik_State_Penalty>
1.95069

> <r_epik_Charging_Adjusted_Penalty>
3.78513

> <i_epik_Tot_Q>
1

> <i_epik_Tot_abs_Q>
1

> <r_epik_Metal_State_Penalty>
6.02102

> <b_epik_Metal_Only>
0

> <s_epik_Chemistry_Notes>
This compound contains an acetal/aminal-like group ( X-CH(R)-Y where X, Y are N, S, or O) that may be acid/base labile, releasing an aldehyde.

> <s_lp_Force_Field>
OPLS_2005

> <r_lp_Energy>
36.6829

> <b_lp_Chiralities_Consistent>
1

> <s_lp_Variant>
AV-unprocessed.smi:95-4

> <Gold.Version>
5.8.1

> <Gold.Id.Protein>
6NUR|6NUR_protein|mol2

> <Gold.PLP.Fitness>
47.9987

> <Gold.PLP.PLP>
-41.0583

> <Gold.PLP.part.hbond>
-2.9863

> <Gold.PLP.part.metal>
0.0000

> <Gold.PLP.part.buried>
-6.6407

> <Gold.PLP.part.nonpolar>
-32.1626

> <Gold.PLP.part.repulsive>
0.2220

> <Gold.PLP.ligand.clash>
0.0000

> <Gold.PLP.ligand.torsion>
0.2723

> <Gold.PLP.Chemscore.Hbond>
2.4640

> <Gold.PLP.Chemscore.CHOScore>
0.0000

> <Gold.PLP.Chemscore.Metal>
0.0000

> <Gold.Chemscore.Hbonds>
donor molecule, donor type, donor heavy atom, donor atom, acceptor molecule, acceptor atom, score
      L1  H    25    42       P1  8028  2.00
      P1  H  8011  8017       L1     1  0.25

> <Gold.PLP.Chemscore.Internal.Correction>
0.0930

> <Gold.Rescore>
     Score         DG    S(hbond)    S(metal)    S(lipo)     H(rot)  DE(clash)    DE(int)     intcor
     16.75     -18.49       1.56        0.00     100.31       1.54       0.18       1.57       ----

> <Gold.Chemscore.Fitness>
16.7458

> <Gold.Chemscore.DG>
-18.4901

> <Gold.Chemscore.ZeroCoef>
-5.4800

> <Gold.Chemscore.Hbond>
1.5624

> <Gold.Chemscore.Metal>
0.0000

> <Gold.Chemscore.Lipo>
100.3063

> <Gold.Chemscore.Internal_Hbond>
0.0000

> <Gold.Chemscore.DEClash>
0.1770

> <Gold.Chemscore.DEInternal>
1.5673

> <Gold.Chemscore.Rot>
1.5407

> <Gold.Chemscore.Internal.Correction>
   9.000000E+99

> <Gold.Chemscore.Hbonds>
donor molecule, donor type, donor heavy atom, donor atom, acceptor molecule, acceptor atom, score
      L1  H    25    42       P1  8028  0.99
      P1  H  8011  8017       L1     1  0.25

> <Gold.Chemscore.Hbond.Weighted>
-5.2186

> <Gold.Chemscore.Metal.Weighted>
-0.0000

> <Gold.Chemscore.Lipo.Weighted>
-11.7358

> <Gold.Chemscore.Internal_Hbond.Weighted>
0.0000

> <Gold.Chemscore.DEClash.Weighted>
0.1770

> <Gold.Chemscore.DEInternal.Weighted>
1.5673

> <Gold.Chemscore.Rot.Weighted>
3.9443

> <Gold.Chemscore.Internal.Correction.Weighted>
   9.000000E+99

> <Gold.Protein.RotatedTorsions>
[ 6907 6896 6895 6894 ] final  -19.76 input  -60.11 | X-H torsion
[ 7974 7965 7964 7962 ] final   74.05 input  175.53 | X-H torsion
[ 8008 7997 7996 7995 ] final -147.39 input   59.86 | X-H torsion
[ 10167 10162 10161 10158 ] final  -93.67 input  -65.29 | X-H torsion
[ 10718 10713 10712 10709 ] final   28.84 input   66.30 | X-H torsion
[ 10763 10752 10751 10750 ] final  100.67 input  -60.55 | X-H torsion
[ 11005 11000 10999 10996 ] final   75.44 input  -57.11 | X-H torsion

> <Gold.Protein.ActiveResidues>
 VAL166  LYS551  ARG553  GLY616  TRP617  ASP618  TYR619  PRO620  LYS621  CYS622 
 ASP623  PHE694  ASN695  SER759  ASP760  ASP761  ALA762  ILE779  LEU786  VAL792 
 PHE793  MET794  SER795  GLU796  ALA797  LYS798  CYS799  TRP800  GLU811  SER814 

> <Gold.Protein.RotatedAtoms>
  151.2583  135.0645  159.9088 H   0  0  0  0  0  0  0  0  0  0  0  0  # atno 6907 bound_to 6896
  152.5370  134.0258  159.8012 H   0  0  0  0  0  0  0  0  0  0  0  0  # atno 6908 bound_to 6896
  151.0477  133.5601  159.2676 H   0  0  0  0  0  0  0  0  0  0  0  0  # atno 6909 bound_to 6896
  145.7332  139.2692  143.1529 H   0  0  0  0  0  0  0  0  0  0  0  0  # atno 7974 bound_to 7965
  155.5748  140.0638  157.2797 H   0  0  0  0  0  0  0  0  0  0  0  0  # atno 8008 bound_to 7997
  154.4350  140.1862  156.0963 H   0  0  0  0  0  0  0  0  0  0  0  0  # atno 8009 bound_to 7997
  156.0349  140.3302  155.7183 H   0  0  0  0  0  0  0  0  0  0  0  0  # atno 8010 bound_to 7997
  140.3223  143.3042  152.0033 H   0  0  0  0  0  0  0  0  0  0  0  0  # atno 10167 bound_to 10162
  157.2388  130.7059  149.6348 H   0  0  0  0  0  0  0  0  0  0  0  0  # atno 10718 bound_to 10713
  153.3169  135.4071  155.1384 H   0  0  0  0  0  0  0  0  0  0  0  0  # atno 10763 bound_to 10752
  154.8590  135.3578  154.5648 H   0  0  0  0  0  0  0  0  0  0  0  0  # atno 10764 bound_to 10752
  153.6080  135.7069  153.5417 H   0  0  0  0  0  0  0  0  0  0  0  0  # atno 10765 bound_to 10752
  139.9343  134.7518  156.1272 H   0  0  0  0  0  0  0  0  0  0  0  0  # atno 11005 bound_to 11000
  146.0518  140.8061  142.9778 LP  0  0  0  0  0  0  0  0  0  0  0  0  # atno 17320 bound_to 7965
  144.6888  140.3064  143.7255 LP  0  0  0  0  0  0  0  0  0  0  0  0  # atno 17321 bound_to 7965
  139.4872  144.6301  151.7086 LP  0  0  0  0  0  0  0  0  0  0  0  0  # atno 17342 bound_to 10162
  140.5473  144.0483  150.6112 LP  0  0  0  0  0  0  0  0  0  0  0  0  # atno 17343 bound_to 10162
  155.9671  130.4465  150.5542 LP  0  0  0  0  0  0  0  0  0  0  0  0  # atno 17370 bound_to 10713
  157.3401  131.0715  151.1795 LP  0  0  0  0  0  0  0  0  0  0  0  0  # atno 17371 bound_to 10713
  141.0949  133.6699  156.2623 LP  0  0  0  0  0  0  0  0  0  0  0  0  # atno 17394 bound_to 11000
  140.6117  134.5452  157.5534 LP  0  0  0  0  0  0  0  0  0  0  0  0  # atno 17395 bound_to 11000

$$$$
