AV-unprocessed.smi:2213|AV-procd|sdf|8956|dock6
  -GOLD-   2272012173D 1   1.00000     0.00000
 Structure written by MMmdl.
 38 39  0  0  0  0  0  0  0  0  1 V2000
  143.8003  144.4121  154.7682 C   0  0  0  0  0  0  0  0  0  0  0  0
  144.9512  143.4659  155.0610 C   0  0  0  0  0  0  0  0  0  0  0  0
  145.6890  143.0500  153.9488 N   0  0  0  0  0  0  0  0  0  0  0  0
  146.6831  142.2377  154.1014 C   0  0  0  0  0  0  0  0  0  0  0  0
  147.0523  141.7532  155.3669 N   0  0  0  0  0  0  0  0  0  0  0  0
  148.1981  140.8292  155.4023 C   0  0  0  0  0  0  0  0  0  0  0  0
  149.4427  141.4096  154.6935 C   0  0  2  0  0  0  0  0  0  0  0  0
  150.2222  140.3720  154.1330 O   0  0  0  0  0  0  0  0  0  0  0  0
  150.3492  142.2184  155.6372 C   0  0  0  0  0  0  0  0  0  0  0  0
  150.9335  141.3525  156.6025 O   0  0  0  0  0  0  0  0  0  0  0  0
  151.4933  141.9068  157.7345 C   0  0  0  0  0  0  0  0  0  0  0  0
  151.3274  143.2625  158.1168 C   0  0  0  0  0  0  0  0  0  0  0  0
  151.9350  143.7547  159.2885 C   0  0  0  0  0  0  0  0  0  0  0  0
  151.7246  145.4067  159.7396 Cl  0  0  0  0  0  0  0  0  0  0  0  0
  152.7135  142.9014  160.0921 C   0  0  0  0  0  0  0  0  0  0  0  0
  152.8828  141.5547  159.7227 C   0  0  0  0  0  0  0  0  0  0  0  0
  152.2759  141.0605  158.5514 C   0  0  0  0  0  0  0  0  0  0  0  0
  152.4978  139.4020  158.1214 Cl  0  0  0  0  0  0  0  0  0  0  0  0
  146.3959  142.1199  156.5055 C   0  0  0  0  0  0  0  0  0  0  0  0
  146.7414  141.7045  157.6132 O   0  0  0  0  0  0  0  0  0  0  0  0
  145.2613  143.0381  156.3153 C   0  0  0  0  0  0  0  0  0  0  0  0
  144.4936  143.4567  157.5630 C   0  0  0  0  0  0  0  0  0  0  0  0
  142.8526  143.9636  155.0673 H   0  0  0  0  0  0  0  0  0  0  0  0
  143.7382  144.6447  153.7043 H   0  0  0  0  0  0  0  0  0  0  0  0
  143.9292  145.3505  155.3079 H   0  0  0  0  0  0  0  0  0  0  0  0
  147.2919  141.8855  153.2669 H   0  0  0  0  0  0  0  0  0  0  0  0
  148.4423  140.6262  156.4469 H   0  0  0  0  0  0  0  0  0  0  0  0
  147.9480  139.8484  154.9915 H   0  0  0  0  0  0  0  0  0  0  0  0
  149.1430  142.0673  153.8768 H   0  0  0  0  0  0  0  0  0  0  0  0
  149.6527  139.7969  153.6453 H   0  0  0  0  0  0  0  0  0  0  0  0
  151.1138  142.7503  155.0680 H   0  0  0  0  0  0  0  0  0  0  0  0
  149.7413  142.9637  156.1527 H   0  0  0  0  0  0  0  0  0  0  0  0
  150.7366  143.9462  157.5265 H   0  0  0  0  0  0  0  0  0  0  0  0
  153.1802  143.2772  160.9907 H   0  0  0  0  0  0  0  0  0  0  0  0
  153.4797  140.8996  160.3400 H   0  0  0  0  0  0  0  0  0  0  0  0
  145.1573  143.9736  158.2566 H   0  0  0  0  0  0  0  0  0  0  0  0
  144.0911  142.5789  158.0696 H   0  0  0  0  0  0  0  0  0  0  0  0
  143.6590  144.1228  157.3510 H   0  0  0  0  0  0  0  0  0  0  0  0
  1  2  1  0  0  0  0
  1 23  1  0  0  0  0
  1 24  1  0  0  0  0
  1 25  1  0  0  0  0
  2 21  2  0  0  0  0
  2  3  1  0  0  0  0
  3  4  2  0  0  0  0
  4  5  1  0  0  0  0
  4 26  1  0  0  0  0
  5  6  1  0  0  0  0
  5 19  1  0  0  0  0
  6  7  1  0  0  0  0
  6 27  1  0  0  0  0
  6 28  1  0  0  0  0
  7  8  1  0  0  0  0
  7  9  1  0  0  0  0
  7 29  1  0  0  0  0
  8 30  1  0  0  0  0
  9 10  1  0  0  0  0
  9 31  1  0  0  0  0
  9 32  1  0  0  0  0
 10 11  1  0  0  0  0
 11 17  1  0  0  0  0
 11 12  2  0  0  0  0
 12 13  1  0  0  0  0
 12 33  1  0  0  0  0
 13 14  1  0  0  0  0
 13 15  2  0  0  0  0
 15 16  1  0  0  0  0
 15 34  1  0  0  0  0
 16 17  2  0  0  0  0
 16 35  1  0  0  0  0
 17 18  1  0  0  0  0
 19 20  2  0  0  0  0
 19 21  1  0  0  0  0
 21 22  1  0  0  0  0
 22 36  1  0  0  0  0
 22 37  1  0  0  0  0
 22 38  1  0  0  0  0
M  END
> <s_m_source_file>
AV-unprocessed.smi

> <i_m_source_file_index>
2213

> <i_lp_mmshare_version>
43012

> <i_f3d_flags>
0

> <s_epik_input>
W0NIM11jMW5bY0hdbihjKD1PKWMxW0NIM10pW0NIMl1bQ0BIXShbT0hdKVtDSDJdT2MyW2NIXWMoQ2wpW2NIXVtjSF1jMkNs

> <s_epik_cmdline>
J2VwaWtfcHl0aG9uJywgJy1waCcsICc3LjAnLCAnLXRuJywgJzgnLCAnLW1hJywgJzIwMCcsICctbWV0YWxfYmluZGluZycsICctaW1hZScsICc8aW5maWxlLm1hZT4nLCAnLW9tYWUnLCAnPG91dGZpbGUubWFlPic=

> <r_lp_tautomer_probability>
1

> <r_epik_Ionization_Penalty>
3.50205e-05

> <r_epik_Ionization_Penalty_Charging>
7.87908e-08

> <r_epik_Ionization_Penalty_Neutral>
3.49418e-05

> <r_epik_State_Penalty>
-0

> <r_epik_Charging_Adjusted_Penalty>
7.87908e-08

> <i_epik_Tot_Q>
0

> <i_epik_Tot_abs_Q>
0

> <r_epik_Metal_State_Penalty>
-0

> <b_epik_Metal_Only>
0

> <s_lp_Force_Field>
OPLS_2005

> <r_lp_Energy>
24.8727

> <b_lp_Chiralities_Consistent>
1

> <s_lp_Variant>
AV-unprocessed.smi:2213-1

> <Gold.Version>
5.8.1

> <Gold.Id.Protein>
6NUR|6NUR_protein|mol2

> <Gold.PLP.Fitness>
47.0563

> <Gold.PLP.PLP>
-45.2598

> <Gold.PLP.part.hbond>
-1.5898

> <Gold.PLP.part.metal>
0.0000

> <Gold.PLP.part.buried>
-5.3821

> <Gold.PLP.part.nonpolar>
-37.8167

> <Gold.PLP.part.repulsive>
0.3652

> <Gold.PLP.ligand.clash>
0.0000

> <Gold.PLP.ligand.torsion>
0.6206

> <Gold.PLP.Chemscore.Hbond>
1.0000

> <Gold.PLP.Chemscore.CHOScore>
0.0000

> <Gold.PLP.Chemscore.Metal>
0.0000

> <Gold.Chemscore.Hbonds>
donor molecule, donor type, donor heavy atom, donor atom, acceptor molecule, acceptor atom, score
      P1  H  7989  7998       L1     8  0.90

> <Gold.PLP.Chemscore.Internal.Correction>
0.0377

> <Gold.Rescore>
     Score         DG    S(hbond)    S(metal)    S(lipo)     H(rot)  DE(clash)    DE(int)     intcor
     12.84     -13.94       0.29        0.00     116.16       2.38       0.18       0.92       ----

> <Gold.Chemscore.Fitness>
12.8368

> <Gold.Chemscore.DG>
-13.9359

> <Gold.Chemscore.ZeroCoef>
-5.4800

> <Gold.Chemscore.Hbond>
0.2888

> <Gold.Chemscore.Metal>
0.0000

> <Gold.Chemscore.Lipo>
116.1612

> <Gold.Chemscore.Internal_Hbond>
0.0000

> <Gold.Chemscore.DEClash>
0.1753

> <Gold.Chemscore.DEInternal>
0.9238

> <Gold.Chemscore.Rot>
2.3826

> <Gold.Chemscore.Internal.Correction>
   9.000000E+99

> <Gold.Chemscore.Hbonds>
donor molecule, donor type, donor heavy atom, donor atom, acceptor molecule, acceptor atom, score
      L1  H     8    30       P1  7957  0.01
      P1  H  7989  7998       L1     8  0.75

> <Gold.Chemscore.Hbond.Weighted>
-0.9646

> <Gold.Chemscore.Metal.Weighted>
-0.0000

> <Gold.Chemscore.Lipo.Weighted>
-13.5909

> <Gold.Chemscore.Internal_Hbond.Weighted>
0.0000

> <Gold.Chemscore.DEClash.Weighted>
0.1753

> <Gold.Chemscore.DEInternal.Weighted>
0.9238

> <Gold.Chemscore.Rot.Weighted>
6.0996

> <Gold.Chemscore.Internal.Correction.Weighted>
   9.000000E+99

> <Gold.Protein.RotatedTorsions>
[ 6907 6896 6895 6894 ] final  158.53 input  -60.11 | X-H torsion
[ 7974 7965 7964 7962 ] final  172.94 input  175.53 | X-H torsion
[ 8008 7997 7996 7995 ] final -101.94 input   59.86 | X-H torsion
[ 10167 10162 10161 10158 ] final -133.19 input  -65.29 | X-H torsion
[ 10718 10713 10712 10709 ] final  162.64 input   66.30 | X-H torsion
[ 10763 10752 10751 10750 ] final  168.71 input  -60.55 | X-H torsion
[ 11005 11000 10999 10996 ] final -156.26 input  -57.11 | X-H torsion

> <Gold.Protein.ActiveResidues>
 VAL166  LYS551  ARG553  GLY616  TRP617  ASP618  TYR619  PRO620  LYS621  CYS622 
 ASP623  PHE694  ASN695  SER759  ASP760  ASP761  ALA762  ILE779  LEU786  VAL792 
 PHE793  MET794  SER795  GLU796  ALA797  LYS798  CYS799  TRP800  GLU811  SER814 

> <Gold.Protein.RotatedAtoms>
  151.9990  133.3818  159.4174 H   0  0  0  0  0  0  0  0  0  0  0  0  # atno 6907 bound_to 6896
  150.6912  134.3854  159.5062 H   0  0  0  0  0  0  0  0  0  0  0  0  # atno 6908 bound_to 6896
  152.1599  134.8920  160.0593 H   0  0  0  0  0  0  0  0  0  0  0  0  # atno 6909 bound_to 6896
  144.7256  139.9573  143.6434 H   0  0  0  0  0  0  0  0  0  0  0  0  # atno 7974 bound_to 7965
  154.8496  140.0431  157.1595 H   0  0  0  0  0  0  0  0  0  0  0  0  # atno 8008 bound_to 7997
  154.8957  140.2993  155.5325 H   0  0  0  0  0  0  0  0  0  0  0  0  # atno 8009 bound_to 7997
  156.2995  140.2385  156.3978 H   0  0  0  0  0  0  0  0  0  0  0  0  # atno 8010 bound_to 7997
  139.9008  143.6610  152.2595 H   0  0  0  0  0  0  0  0  0  0  0  0  # atno 10167 bound_to 10162
  157.1198  131.0489  151.2420 H   0  0  0  0  0  0  0  0  0  0  0  0  # atno 10718 bound_to 10713
  154.3725  135.2753  155.2258 H   0  0  0  0  0  0  0  0  0  0  0  0  # atno 10763 bound_to 10752
  154.4399  135.5957  153.6126 H   0  0  0  0  0  0  0  0  0  0  0  0  # atno 10764 bound_to 10752
  152.9838  135.6016  154.3958 H   0  0  0  0  0  0  0  0  0  0  0  0  # atno 10765 bound_to 10752
  140.6775  134.4181  157.5228 H   0  0  0  0  0  0  0  0  0  0  0  0  # atno 11005 bound_to 11000
  146.0665  139.3655  143.0549 LP  0  0  0  0  0  0  0  0  0  0  0  0  # atno 17320 bound_to 7965
  145.8024  140.9764  143.0991 LP  0  0  0  0  0  0  0  0  0  0  0  0  # atno 17321 bound_to 7965
  139.7027  144.7632  151.1246 LP  0  0  0  0  0  0  0  0  0  0  0  0  # atno 17342 bound_to 10162
  140.7707  143.5436  150.9284 LP  0  0  0  0  0  0  0  0  0  0  0  0  # atno 17343 bound_to 10162
  157.4487  130.7585  149.7132 LP  0  0  0  0  0  0  0  0  0  0  0  0  # atno 17370 bound_to 10713
  155.9831  130.4003  150.3380 LP  0  0  0  0  0  0  0  0  0  0  0  0  # atno 17371 bound_to 10713
  139.8962  134.8665  156.2097 LP  0  0  0  0  0  0  0  0  0  0  0  0  # atno 17394 bound_to 11000
  141.0344  133.6971  156.1486 LP  0  0  0  0  0  0  0  0  0  0  0  0  # atno 17395 bound_to 11000

$$$$
