AV-unprocessed.smi:413|AV-procd|sdf|2513|dock3
  -GOLD-   2262022463D 1   1.00000     0.00000
 Structure written by MMmdl.
 40 42  0  0  0  0  0  0  0  0  1 V2000
  154.2074  140.3458  159.7549 C   0  0  0  0  0  0  0  0  0  0  0  0
  153.0571  141.0806  159.2430 N   0  0  0  0  0  0  0  0  0  0  0  0
  152.3239  140.7849  158.1440 C   0  0  0  0  0  0  0  0  0  0  0  0
  152.5099  139.8357  157.3828 O   0  0  0  0  0  0  0  0  0  0  0  0
  151.3522  141.7204  158.0251 N   0  0  0  0  0  0  0  0  0  0  0  0
  150.3475  141.8006  156.9673 C   0  0  0  0  0  0  0  0  0  0  0  0
  148.9166  141.6864  157.5309 C   0  0  1  0  0  0  0  0  0  0  0  0
  148.3607  142.9692  157.7362 O   0  0  0  0  0  0  0  0  0  0  0  0
  147.9670  140.9032  156.6096 C   0  0  0  0  0  0  0  0  0  0  0  0
  147.8780  141.5501  155.3456 O   0  0  0  0  0  0  0  0  0  0  0  0
  146.8113  142.3910  155.1137 C   0  0  0  0  0  0  0  0  0  0  0  0
  146.6773  142.9073  153.8081 C   0  0  0  0  0  0  0  0  0  0  0  0
  145.6157  143.7723  153.4801 C   0  0  0  0  0  0  0  0  0  0  0  0
  144.6729  144.1315  154.4607 C   0  0  0  0  0  0  0  0  0  0  0  0
  143.6512  144.9627  154.1476 F   0  0  0  0  0  0  0  0  0  0  0  0
  144.7946  143.6246  155.7678 C   0  0  0  0  0  0  0  0  0  0  0  0
  145.8568  142.7595  156.0958 C   0  0  0  0  0  0  0  0  0  0  0  0
  151.4770  142.6481  159.0692 C   0  0  0  0  0  0  0  0  0  0  0  0
  150.7314  143.7985  159.3804 C   0  0  0  0  0  0  0  0  0  0  0  0
  151.1257  144.5346  160.5225 C   0  0  0  0  0  0  0  0  0  0  0  0
  152.2304  144.1180  161.3106 C   0  0  0  0  0  0  0  0  0  0  0  0
  152.9645  142.9565  160.9734 C   0  0  0  0  0  0  0  0  0  0  0  0
  152.5501  142.2443  159.8349 C   0  0  0  0  0  0  0  0  0  0  0  0
  154.3552  139.4006  159.2310 H   0  0  0  0  0  0  0  0  0  0  0  0
  154.0734  140.1231  160.8139 H   0  0  0  0  0  0  0  0  0  0  0  0
  155.1137  140.9410  159.6427 H   0  0  0  0  0  0  0  0  0  0  0  0
  150.4667  142.7149  156.3833 H   0  0  0  0  0  0  0  0  0  0  0  0
  150.5348  140.9810  156.2727 H   0  0  0  0  0  0  0  0  0  0  0  0
  148.9362  141.1812  158.4976 H   0  0  0  0  0  0  0  0  0  0  0  0
  148.8757  143.5989  157.2545 H   0  0  0  0  0  0  0  0  0  0  0  0
  148.3703  139.8993  156.4674 H   0  0  0  0  0  0  0  0  0  0  0  0
  146.9831  140.8025  157.0714 H   0  0  0  0  0  0  0  0  0  0  0  0
  147.3967  142.6361  153.0493 H   0  0  0  0  0  0  0  0  0  0  0  0
  145.5251  144.1590  152.4759 H   0  0  0  0  0  0  0  0  0  0  0  0
  144.0715  143.8995  156.5214 H   0  0  0  0  0  0  0  0  0  0  0  0
  145.9165  142.3922  157.1089 H   0  0  0  0  0  0  0  0  0  0  0  0
  149.8936  144.1115  158.7750 H   0  0  0  0  0  0  0  0  0  0  0  0
  150.5799  145.4250  160.7973 H   0  0  0  0  0  0  0  0  0  0  0  0
  152.5152  144.6953  162.1780 H   0  0  0  0  0  0  0  0  0  0  0  0
  153.8074  142.6339  161.5666 H   0  0  0  0  0  0  0  0  0  0  0  0
  1  2  1  0  0  0  0
  1 24  1  0  0  0  0
  1 25  1  0  0  0  0
  1 26  1  0  0  0  0
  2 23  1  0  0  0  0
  2  3  1  0  0  0  0
  3  4  2  0  0  0  0
  3  5  1  0  0  0  0
  5  6  1  0  0  0  0
  5 18  1  0  0  0  0
  6  7  1  0  0  0  0
  6 27  1  0  0  0  0
  6 28  1  0  0  0  0
  7  8  1  0  0  0  0
  7  9  1  0  0  0  0
  7 29  1  0  0  0  0
  8 30  1  0  0  0  0
  9 10  1  0  0  0  0
  9 31  1  0  0  0  0
  9 32  1  0  0  0  0
 10 11  1  0  0  0  0
 11 17  1  0  0  0  0
 11 12  2  0  0  0  0
 12 13  1  0  0  0  0
 12 33  1  0  0  0  0
 13 14  2  0  0  0  0
 13 34  1  0  0  0  0
 14 15  1  0  0  0  0
 14 16  1  0  0  0  0
 16 17  2  0  0  0  0
 16 35  1  0  0  0  0
 17 36  1  0  0  0  0
 18 23  2  0  0  0  0
 18 19  1  0  0  0  0
 19 20  2  0  0  0  0
 19 37  1  0  0  0  0
 20 21  1  0  0  0  0
 20 38  1  0  0  0  0
 21 22  2  0  0  0  0
 21 39  1  0  0  0  0
 22 23  1  0  0  0  0
 22 40  1  0  0  0  0
M  END
> <s_m_source_file>
AV-unprocessed.smi

> <i_m_source_file_index>
413

> <i_lp_mmshare_version>
43012

> <i_f3d_flags>
0

> <s_epik_input>
W2NIXTFbY0hdW2NIXVtjSF1jKGMxMiluKFtDSDNdKWMoPU8pbjJbQ0gyXVtDQEhdKFtPSF0pW0NIMl1PYzNbY0hdW2NIXWMoRilbY0hdW2NIXTM=

> <s_epik_cmdline>
J2VwaWtfcHl0aG9uJywgJy1waCcsICc3LjAnLCAnLXRuJywgJzgnLCAnLW1hJywgJzIwMCcsICctbWV0YWxfYmluZGluZycsICctaW1hZScsICc8aW5maWxlLm1hZT4nLCAnLW9tYWUnLCAnPG91dGZpbGUubWFlPic=

> <r_lp_tautomer_probability>
1

> <r_epik_Ionization_Penalty>
2.40172e-06

> <r_epik_Ionization_Penalty_Charging>
2.42369e-09

> <r_epik_Ionization_Penalty_Neutral>
2.3993e-06

> <r_epik_State_Penalty>
-0

> <r_epik_Charging_Adjusted_Penalty>
2.42369e-09

> <i_epik_Tot_Q>
0

> <i_epik_Tot_abs_Q>
0

> <r_epik_Metal_State_Penalty>
-0

> <b_epik_Metal_Only>
0

> <s_lp_Force_Field>
OPLS_2005

> <r_lp_Energy>
47.225

> <b_lp_Chiralities_Consistent>
1

> <s_lp_Variant>
AV-unprocessed.smi:413-2

> <Gold.Version>
5.8.1

> <Gold.Id.Protein>
6NUR|6NUR_protein|mol2

> <Gold.PLP.Fitness>
52.7653

> <Gold.PLP.PLP>
-48.6759

> <Gold.PLP.part.hbond>
-2.9255

> <Gold.PLP.part.metal>
0.0000

> <Gold.PLP.part.buried>
-6.1805

> <Gold.PLP.part.nonpolar>
-39.0629

> <Gold.PLP.part.repulsive>
0.1078

> <Gold.PLP.ligand.clash>
0.0000

> <Gold.PLP.ligand.torsion>
0.7974

> <Gold.PLP.Chemscore.Hbond>
1.8800

> <Gold.PLP.Chemscore.CHOScore>
0.0000

> <Gold.PLP.Chemscore.Metal>
0.0000

> <Gold.Chemscore.Hbonds>
donor molecule, donor type, donor heavy atom, donor atom, acceptor molecule, acceptor atom, score
      L1  H     8    30       P1  8028  0.86
      P1  H  7997  8009       L1     4  0.99

> <Gold.PLP.Chemscore.Internal.Correction>
0.0442

> <Gold.Rescore>
     Score         DG    S(hbond)    S(metal)    S(lipo)     H(rot)  DE(clash)    DE(int)     intcor
     14.13     -16.03       0.95        0.00     112.83       2.27       0.22       1.67       ----

> <Gold.Chemscore.Fitness>
14.1348

> <Gold.Chemscore.DG>
-16.0313

> <Gold.Chemscore.ZeroCoef>
-5.4800

> <Gold.Chemscore.Hbond>
0.9472

> <Gold.Chemscore.Metal>
0.0000

> <Gold.Chemscore.Lipo>
112.8254

> <Gold.Chemscore.Internal_Hbond>
0.0000

> <Gold.Chemscore.DEClash>
0.2229

> <Gold.Chemscore.DEInternal>
1.6737

> <Gold.Chemscore.Rot>
2.2706

> <Gold.Chemscore.Internal.Correction>
   9.000000E+99

> <Gold.Chemscore.Hbonds>
donor molecule, donor type, donor heavy atom, donor atom, acceptor molecule, acceptor atom, score
      L1  H     8    30       P1  8028  0.22
      P1  H  7997  8009       L1     4  0.36

> <Gold.Chemscore.Hbond.Weighted>
-3.1635

> <Gold.Chemscore.Metal.Weighted>
-0.0000

> <Gold.Chemscore.Lipo.Weighted>
-13.2006

> <Gold.Chemscore.Internal_Hbond.Weighted>
0.0000

> <Gold.Chemscore.DEClash.Weighted>
0.2229

> <Gold.Chemscore.DEInternal.Weighted>
1.6737

> <Gold.Chemscore.Rot.Weighted>
5.8128

> <Gold.Chemscore.Internal.Correction.Weighted>
   9.000000E+99

> <Gold.Protein.RotatedTorsions>
[ 6907 6896 6895 6894 ] final  172.28 input  -60.11 | X-H torsion
[ 7974 7965 7964 7962 ] final -175.73 input  175.53 | X-H torsion
[ 8008 7997 7996 7995 ] final  167.18 input   59.86 | X-H torsion
[ 10167 10162 10161 10158 ] final  -88.88 input  -65.29 | X-H torsion
[ 10718 10713 10712 10709 ] final  -13.94 input   66.30 | X-H torsion
[ 10763 10752 10751 10750 ] final -138.75 input  -60.55 | X-H torsion
[ 11005 11000 10999 10996 ] final -159.70 input  -57.11 | X-H torsion

> <Gold.Protein.ActiveResidues>
 VAL166  LYS551  ARG553  GLY616  TRP617  ASP618  TYR619  PRO620  LYS621  CYS622 
 ASP623  PHE694  ASN695  SER759  ASP760  ASP761  ALA762  ILE779  LEU786  VAL792 
 PHE793  MET794  SER795  GLU796  ALA797  LYS798  CYS799  TRP800  GLU811  SER814 

> <Gold.Protein.RotatedAtoms>
  151.7868  133.3355  159.3487 H   0  0  0  0  0  0  0  0  0  0  0  0  # atno 6907 bound_to 6896
  150.7406  134.5880  159.5982 H   0  0  0  0  0  0  0  0  0  0  0  0  # atno 6908 bound_to 6896
  152.3238  134.7348  160.0358 H   0  0  0  0  0  0  0  0  0  0  0  0  # atno 6909 bound_to 6896
  144.7127  140.1276  143.6401 H   0  0  0  0  0  0  0  0  0  0  0  0  # atno 7974 bound_to 7965
  156.1655  140.1623  156.8538 H   0  0  0  0  0  0  0  0  0  0  0  0  # atno 8008 bound_to 7997
  154.5203  140.0779  156.8195 H   0  0  0  0  0  0  0  0  0  0  0  0  # atno 8009 bound_to 7997
  155.3620  140.3395  155.4243 H   0  0  0  0  0  0  0  0  0  0  0  0  # atno 8010 bound_to 7997
  140.3703  143.2797  151.9508 H   0  0  0  0  0  0  0  0  0  0  0  0  # atno 10167 bound_to 10162
  156.6230  130.4881  149.6157 H   0  0  0  0  0  0  0  0  0  0  0  0  # atno 10718 bound_to 10713
  154.8628  135.3603  154.5435 H   0  0  0  0  0  0  0  0  0  0  0  0  # atno 10763 bound_to 10752
  153.6056  135.7011  153.5372 H   0  0  0  0  0  0  0  0  0  0  0  0  # atno 10764 bound_to 10752
  153.3253  135.4139  155.1412 H   0  0  0  0  0  0  0  0  0  0  0  0  # atno 10765 bound_to 10752
  140.6396  134.4565  157.5233 H   0  0  0  0  0  0  0  0  0  0  0  0  # atno 11005 bound_to 11000
  145.9315  139.2609  143.1322 LP  0  0  0  0  0  0  0  0  0  0  0  0  # atno 17320 bound_to 7965
  145.9518  140.8903  143.0255 LP  0  0  0  0  0  0  0  0  0  0  0  0  # atno 17321 bound_to 7965
  139.4804  144.5912  151.7768 LP  0  0  0  0  0  0  0  0  0  0  0  0  # atno 17342 bound_to 10162
  140.5039  144.1127  150.5978 LP  0  0  0  0  0  0  0  0  0  0  0  0  # atno 17343 bound_to 10162
  156.2296  130.6786  151.1450 LP  0  0  0  0  0  0  0  0  0  0  0  0  # atno 17370 bound_to 10713
  157.7222  131.0674  150.6087 LP  0  0  0  0  0  0  0  0  0  0  0  0  # atno 17371 bound_to 10713
  139.9085  134.8396  156.1615 LP  0  0  0  0  0  0  0  0  0  0  0  0  # atno 17394 bound_to 11000
  141.0616  133.6839  156.1964 LP  0  0  0  0  0  0  0  0  0  0  0  0  # atno 17395 bound_to 11000

$$$$
