AV-unprocessed.smi:1033|AV-procd|sdf|4495|dock4
  -GOLD-   22720 2483D 1   1.00000     0.00000
 Structure written by MMmdl.
 56 58  0  0  0  0  0  0  0  0  2 V2000
  153.4598  141.9466  161.2975 C   0  0  0  0  0  0  0  0  0  0  0  0
  152.7391  141.7681  159.9726 C   0  0  0  0  0  0  0  0  0  0  0  0
  152.9977  140.6132  159.2004 C   0  0  0  0  0  0  0  0  0  0  0  0
  152.3509  140.4106  157.9617 C   0  0  0  0  0  0  0  0  0  0  0  0
  152.4527  139.3705  157.0538 N   0  0  0  0  0  0  0  0  0  0  0  0
  151.6077  139.7599  156.1038 C   0  0  0  0  0  0  0  0  0  0  0  0
  150.9718  140.9335  156.2874 N   0  0  0  0  0  0  0  0  0  0  0  0
  150.0146  141.5605  155.3941 C   0  0  0  0  0  0  0  0  0  0  0  0
  148.5597  141.3261  155.8443 C   0  0  1  0  0  0  0  0  0  0  0  0
  147.6719  142.1266  155.0896 O   0  0  0  0  0  0  0  0  0  0  0  0
  148.0604  139.8635  155.8309 C   0  0  0  0  0  0  0  0  0  0  0  0
  148.7416  138.9451  154.9059 N   0  0  0  0  0  0  0  0  0  0  0  0
  148.3255  137.5415  155.0127 C   0  0  0  0  0  0  0  0  0  0  0  0
  146.9076  137.2671  154.4670 C   0  0  0  0  0  0  0  0  0  0  0  0
  146.7936  137.7269  153.0576 N   0  3  0  0  0  0  0  0  0  0  0  0
  145.4678  137.4569  152.4460 C   0  0  0  0  0  0  0  0  0  0  0  0
  145.5051  136.3100  151.4159 C   0  0  2  0  0  0  0  0  0  0  0  0
  144.1083  135.8567  150.9664 C   0  0  0  0  0  0  0  0  0  0  0  0
  146.1580  135.2051  152.0040 O   0  0  0  0  0  0  0  0  0  0  0  0
  147.1904  139.1528  152.9450 C   0  0  0  0  0  0  0  0  0  0  0  0
  148.6112  139.3516  153.5066 C   0  0  0  0  0  0  0  0  0  0  0  0
  151.4308  141.4029  157.5131 C   0  0  0  0  0  0  0  0  0  0  0  0
  151.1633  142.5549  158.2732 C   0  0  0  0  0  0  0  0  0  0  0  0
  151.8191  142.7422  159.5081 C   0  0  0  0  0  0  0  0  0  0  0  0
  151.5252  143.9906  160.3208 C   0  0  0  0  0  0  0  0  0  0  0  0
  154.1027  141.0942  161.5187 H   0  0  0  0  0  0  0  0  0  0  0  0
  152.7433  142.0446  162.1135 H   0  0  0  0  0  0  0  0  0  0  0  0
  154.0842  142.8400  161.2746 H   0  0  0  0  0  0  0  0  0  0  0  0
  153.6985  139.8710  159.5537 H   0  0  0  0  0  0  0  0  0  0  0  0
  151.4438  139.1595  155.2207 H   0  0  0  0  0  0  0  0  0  0  0  0
  150.2396  142.6266  155.3583 H   0  0  0  0  0  0  0  0  0  0  0  0
  150.1721  141.1604  154.3918 H   0  0  0  0  0  0  0  0  0  0  0  0
  148.4732  141.6713  156.8754 H   0  0  0  0  0  0  0  0  0  0  0  0
  147.8855  143.0352  155.2391 H   0  0  0  0  0  0  0  0  0  0  0  0
  148.0792  139.4657  156.8448 H   0  0  0  0  0  0  0  0  0  0  0  0
  147.0020  139.9070  155.5698 H   0  0  0  0  0  0  0  0  0  0  0  0
  149.0347  136.9247  154.4588 H   0  0  0  0  0  0  0  0  0  0  0  0
  148.3828  137.1928  156.0400 H   0  0  0  0  0  0  0  0  0  0  0  0
  146.7125  136.1975  154.5298 H   0  0  0  0  0  0  0  0  0  0  0  0
  146.1504  137.7554  155.0810 H   0  0  0  0  0  0  0  0  0  0  0  0
  144.7472  137.2398  153.2364 H   0  0  0  0  0  0  0  0  0  0  0  0
  145.1093  138.3582  151.9460 H   0  0  0  0  0  0  0  0  0  0  0  0
  146.0928  136.5954  150.5441 H   0  0  0  0  0  0  0  0  0  0  0  0
  143.5734  136.6622  150.4628 H   0  0  0  0  0  0  0  0  0  0  0  0
  143.5017  135.5330  151.8131 H   0  0  0  0  0  0  0  0  0  0  0  0
  144.1735  135.0228  150.2666 H   0  0  0  0  0  0  0  0  0  0  0  0
  147.0865  135.3800  152.0360 H   0  0  0  0  0  0  0  0  0  0  0  0
  147.1733  139.4566  151.8977 H   0  0  0  0  0  0  0  0  0  0  0  0
  146.4717  139.7837  153.4706 H   0  0  0  0  0  0  0  0  0  0  0  0
  148.9137  140.3933  153.3925 H   0  0  0  0  0  0  0  0  0  0  0  0
  149.3135  138.7752  152.9024 H   0  0  0  0  0  0  0  0  0  0  0  0
  150.4606  143.2888  157.9076 H   0  0  0  0  0  0  0  0  0  0  0  0
  150.8101  144.6374  159.8117 H   0  0  0  0  0  0  0  0  0  0  0  0
  152.4374  144.5646  160.4849 H   0  0  0  0  0  0  0  0  0  0  0  0
  151.1036  143.7241  161.2900 H   0  0  0  0  0  0  0  0  0  0  0  0
  147.4715  137.2051  152.5205 H   0  0  0  0  0  0  0  0  0  0  0  0
  1  2  1  0  0  0  0
  1 26  1  0  0  0  0
  1 27  1  0  0  0  0
  1 28  1  0  0  0  0
  2 24  1  0  0  0  0
  2  3  2  0  0  0  0
  3  4  1  0  0  0  0
  3 29  1  0  0  0  0
  4 22  2  0  0  0  0
  4  5  1  0  0  0  0
  5  6  2  0  0  0  0
  6  7  1  0  0  0  0
  6 30  1  0  0  0  0
  7  8  1  0  0  0  0
  7 22  1  0  0  0  0
  8  9  1  0  0  0  0
  8 31  1  0  0  0  0
  8 32  1  0  0  0  0
  9 10  1  0  0  0  0
  9 11  1  0  0  0  0
  9 33  1  0  0  0  0
 10 34  1  0  0  0  0
 11 12  1  0  0  0  0
 11 35  1  0  0  0  0
 11 36  1  0  0  0  0
 12 21  1  0  0  0  0
 12 13  1  0  0  0  0
 13 14  1  0  0  0  0
 13 37  1  0  0  0  0
 13 38  1  0  0  0  0
 14 15  1  0  0  0  0
 14 39  1  0  0  0  0
 14 40  1  0  0  0  0
 15 16  1  0  0  0  0
 15 20  1  0  0  0  0
 15 56  1  0  0  0  0
 16 17  1  0  0  0  0
 16 41  1  0  0  0  0
 16 42  1  0  0  0  0
 17 18  1  0  0  0  0
 17 19  1  0  0  0  0
 17 43  1  0  0  0  0
 18 44  1  0  0  0  0
 18 45  1  0  0  0  0
 18 46  1  0  0  0  0
 19 47  1  0  0  0  0
 20 21  1  0  0  0  0
 20 48  1  0  0  0  0
 20 49  1  0  0  0  0
 21 50  1  0  0  0  0
 21 51  1  0  0  0  0
 22 23  1  0  0  0  0
 23 24  2  0  0  0  0
 23 52  1  0  0  0  0
 24 25  1  0  0  0  0
 25 53  1  0  0  0  0
 25 54  1  0  0  0  0
 25 55  1  0  0  0  0
M  CHG  1  15   1
M  END
> <s_m_source_file>
AV-unprocessed.smi

> <i_m_source_file_index>
1033

> <i_lp_mmshare_version>
43012

> <i_f3d_flags>
0

> <s_epik_input>
W0NIM11jKFtjSF0xKWMoW0NIM10pW2NIXWMoYzEyKW4oW2NIXW4yKVtDSDJdW0NASF0oW09IXSlbQ0gyXU4zW0NIMl1bQ0gyXU4oW0NIMl1bQ0gyXTMpW0NIMl1bQ0BIXShbQ0gzXSlbT0hd

> <s_epik_cmdline>
J2VwaWtfcHl0aG9uJywgJy1waCcsICc3LjAnLCAnLXRuJywgJzgnLCAnLW1hJywgJzIwMCcsICctbWV0YWxfYmluZGluZycsICctaW1hZScsICc8aW5maWxlLm1hZT4nLCAnLW9tYWUnLCAnPG91dGZpbGUubWFlPic=

> <r_epik_Ionization_Penalty>
0.129152

> <r_epik_Ionization_Penalty_Charging>
0.00083231

> <r_epik_Ionization_Penalty_Neutral>
0.128319

> <r_epik_State_Penalty>
0.556973

> <r_epik_Charging_Adjusted_Penalty>
0.557805

> <i_epik_Tot_Q>
1

> <i_epik_Tot_abs_Q>
1

> <r_epik_Metal_State_Penalty>
0.490047

> <b_epik_Metal_Only>
0

> <s_lp_Force_Field>
OPLS_2005

> <r_lp_Energy>
40.305

> <b_lp_Chiralities_Consistent>
1

> <s_lp_Variant>
AV-unprocessed.smi:1033-6

> <Gold.Version>
5.8.1

> <Gold.Id.Protein>
6NUR|6NUR_protein|mol2

> <Gold.PLP.Fitness>
55.6254

> <Gold.PLP.PLP>
-43.5425

> <Gold.PLP.part.hbond>
-4.0000

> <Gold.PLP.part.metal>
0.0000

> <Gold.PLP.part.buried>
0.3135

> <Gold.PLP.part.nonpolar>
-39.0922

> <Gold.PLP.part.repulsive>
0.1215

> <Gold.PLP.ligand.clash>
0.0000

> <Gold.PLP.ligand.torsion>
1.5971

> <Gold.PLP.Chemscore.Hbond>
5.0000

> <Gold.PLP.Chemscore.CHOScore>
0.0000

> <Gold.PLP.Chemscore.Metal>
0.0000

> <Gold.Chemscore.Hbonds>
donor molecule, donor type, donor heavy atom, donor atom, acceptor molecule, acceptor atom, score
      L1  H    10    34       P1  8028  1.00
      L1  H    15    56       P1  7948  2.00
      L1  H    19    47       P1  7948  1.00
      P1  H  7997  8010       L1     5  0.40

> <Gold.PLP.Chemscore.Internal.Correction>
0.2771

> <Gold.Rescore>
     Score         DG    S(hbond)    S(metal)    S(lipo)     H(rot)  DE(clash)    DE(int)     intcor
     19.15     -22.51       2.93        0.00     128.91       3.07       1.72       1.64       ----

> <Gold.Chemscore.Fitness>
19.1489

> <Gold.Chemscore.DG>
-22.5086

> <Gold.Chemscore.ZeroCoef>
-5.4800

> <Gold.Chemscore.Hbond>
2.9319

> <Gold.Chemscore.Metal>
0.0000

> <Gold.Chemscore.Lipo>
128.9108

> <Gold.Chemscore.Internal_Hbond>
0.0000

> <Gold.Chemscore.DEClash>
1.7215

> <Gold.Chemscore.DEInternal>
1.6382

> <Gold.Chemscore.Rot>
3.0650

> <Gold.Chemscore.Internal.Correction>
   9.000000E+99

> <Gold.Chemscore.Hbonds>
donor molecule, donor type, donor heavy atom, donor atom, acceptor molecule, acceptor atom, score
      L1  H    10    34       P1  8028  0.77
      L1  H    15    56       P1  7948  1.00
      L1  H    19    47       P1  7948  0.93
      P1  H  7997  8010       L1     5  0.01

> <Gold.Chemscore.Hbond.Weighted>
-9.7925

> <Gold.Chemscore.Metal.Weighted>
-0.0000

> <Gold.Chemscore.Lipo.Weighted>
-15.0826

> <Gold.Chemscore.Internal_Hbond.Weighted>
0.0000

> <Gold.Chemscore.DEClash.Weighted>
1.7215

> <Gold.Chemscore.DEInternal.Weighted>
1.6382

> <Gold.Chemscore.Rot.Weighted>
7.8465

> <Gold.Chemscore.Internal.Correction.Weighted>
   9.000000E+99

> <Gold.Protein.RotatedTorsions>
[ 6907 6896 6895 6894 ] final  165.62 input  -60.11 | X-H torsion
[ 7974 7965 7964 7962 ] final -108.27 input  175.53 | X-H torsion
[ 8008 7997 7996 7995 ] final   76.47 input   59.86 | X-H torsion
[ 10167 10162 10161 10158 ] final  130.49 input  -65.29 | X-H torsion
[ 10718 10713 10712 10709 ] final   43.48 input   66.30 | X-H torsion
[ 10763 10752 10751 10750 ] final  -74.57 input  -60.55 | X-H torsion
[ 11005 11000 10999 10996 ] final  119.70 input  -57.11 | X-H torsion

> <Gold.Protein.ActiveResidues>
 VAL166  LYS551  ARG553  GLY616  TRP617  ASP618  TYR619  PRO620  LYS621  CYS622 
 ASP623  PHE694  ASN695  SER759  ASP760  ASP761  ALA762  ILE779  LEU786  VAL792 
 PHE793  MET794  SER795  GLU796  ALA797  LYS798  CYS799  TRP800  GLU811  SER814 

> <Gold.Protein.RotatedAtoms>
  151.8916  133.3517  159.3799 H   0  0  0  0  0  0  0  0  0  0  0  0  # atno 6907 bound_to 6896
  150.7102  134.4918  159.5528 H   0  0  0  0  0  0  0  0  0  0  0  0  # atno 6908 bound_to 6896
  152.2489  134.8153  160.0500 H   0  0  0  0  0  0  0  0  0  0  0  0  # atno 6909 bound_to 6896
  145.1950  140.9031  143.3403 H   0  0  0  0  0  0  0  0  0  0  0  0  # atno 7974 bound_to 7965
  155.8278  140.3467  155.5553 H   0  0  0  0  0  0  0  0  0  0  0  0  # atno 8008 bound_to 7997
  155.8274  140.0922  157.1832 H   0  0  0  0  0  0  0  0  0  0  0  0  # atno 8009 bound_to 7997
  154.4004  140.1418  156.3561 H   0  0  0  0  0  0  0  0  0  0  0  0  # atno 8010 bound_to 7997
  139.5428  144.6746  151.4570 H   0  0  0  0  0  0  0  0  0  0  0  0  # atno 10167 bound_to 10162
  157.4163  130.7943  149.7475 H   0  0  0  0  0  0  0  0  0  0  0  0  # atno 10718 bound_to 10713
  154.4749  135.5860  153.6348 H   0  0  0  0  0  0  0  0  0  0  0  0  # atno 10763 bound_to 10752
  152.9839  135.6076  154.3320 H   0  0  0  0  0  0  0  0  0  0  0  0  # atno 10764 bound_to 10752
  154.3205  135.2843  155.2501 H   0  0  0  0  0  0  0  0  0  0  0  0  # atno 10765 bound_to 10752
  139.9156  134.9630  156.7695 H   0  0  0  0  0  0  0  0  0  0  0  0  # atno 11005 bound_to 11000
  145.0004  139.3604  143.6170 LP  0  0  0  0  0  0  0  0  0  0  0  0  # atno 17320 bound_to 7965
  146.3429  139.9224  142.8765 LP  0  0  0  0  0  0  0  0  0  0  0  0  # atno 17321 bound_to 7965
  140.6664  143.8388  150.6947 LP  0  0  0  0  0  0  0  0  0  0  0  0  # atno 17342 bound_to 10162
  140.1799  143.4124  152.1941 LP  0  0  0  0  0  0  0  0  0  0  0  0  # atno 17343 bound_to 10162
  155.9866  130.3973  150.3203 LP  0  0  0  0  0  0  0  0  0  0  0  0  # atno 17370 bound_to 10713
  157.1347  131.0281  151.2954 LP  0  0  0  0  0  0  0  0  0  0  0  0  # atno 17371 bound_to 10713
  140.6632  133.9626  155.7816 LP  0  0  0  0  0  0  0  0  0  0  0  0  # atno 17394 bound_to 11000
  141.0629  134.0320  157.3634 LP  0  0  0  0  0  0  0  0  0  0  0  0  # atno 17395 bound_to 11000

$$$$
