AV-unprocessed.smi:3331|AV-procd|sdf|12828|dock1
  -GOLD-   2272019203D 1   1.00000     0.00000
 Structure written by MMmdl.
 46 47  0  0  0  0  0  0  0  0  1 V2000
  151.7618  137.8161  155.2909 C   0  0  0  0  0  0  0  0  0  0  0  0
  150.5853  138.7986  155.3738 C   0  0  1  0  0  0  0  0  0  0  0  0
  151.0705  140.2375  155.6651 C   0  0  0  0  0  0  0  0  0  0  0  0
  149.9304  141.2801  155.6161 C   0  0  2  0  0  0  0  0  0  0  0  0
  149.0576  141.2457  156.8834 C   0  0  0  0  0  0  0  0  0  0  0  0
  149.1122  141.0993  154.3188 C   0  0  0  0  0  0  0  0  0  0  0  0
  148.6168  139.7177  154.2349 N   0  0  0  0  0  0  0  0  0  0  0  0
  147.3263  139.3122  154.3524 C   0  0  0  0  0  0  0  0  0  0  0  0
  146.4132  140.1093  154.5780 O   0  0  0  0  0  0  0  0  0  0  0  0
  146.9594  137.8161  154.2033 C   0  0  1  0  0  0  0  0  0  0  0  0
  145.9054  137.4297  155.2528 C   0  0  0  0  0  0  0  0  0  0  0  0
  146.4671  137.4626  152.8585 N   0  0  0  0  0  0  0  0  0  0  0  0
  145.7790  136.1770  152.8064 C   0  0  0  0  0  0  0  0  0  0  0  0
  145.2736  135.9269  151.3787 C   0  0  0  0  0  0  0  0  0  0  0  0
  145.1123  134.5109  151.1105 N   0  0  0  0  0  0  0  0  0  0  0  0
  143.9601  133.8253  150.7874 C   0  0  0  0  0  0  0  0  0  0  0  0
  144.3009  132.5131  150.6236 C   0  0  0  0  0  0  0  0  0  0  0  0
  145.7021  132.4948  150.8704 C   0  0  0  0  0  0  0  0  0  0  0  0
  146.1848  133.6918  151.1627 N   0  0  0  0  0  0  0  0  0  0  0  0
  149.7295  138.7690  154.0898 C   0  0  0  0  0  0  0  0  0  0  0  0
  152.4326  138.0684  154.4691 H   0  0  0  0  0  0  0  0  0  0  0  0
  151.4105  136.7961  155.1330 H   0  0  0  0  0  0  0  0  0  0  0  0
  152.3448  137.8244  156.2121 H   0  0  0  0  0  0  0  0  0  0  0  0
  149.9540  138.4782  156.2038 H   0  0  0  0  0  0  0  0  0  0  0  0
  151.5801  140.2787  156.6287 H   0  0  0  0  0  0  0  0  0  0  0  0
  151.8182  140.5115  154.9194 H   0  0  0  0  0  0  0  0  0  0  0  0
  150.3902  142.2685  155.5814 H   0  0  0  0  0  0  0  0  0  0  0  0
  148.5616  140.2839  157.0129 H   0  0  0  0  0  0  0  0  0  0  0  0
  148.2848  142.0136  156.8468 H   0  0  0  0  0  0  0  0  0  0  0  0
  149.6572  141.4286  157.7752 H   0  0  0  0  0  0  0  0  0  0  0  0
  148.3371  141.8586  154.2394 H   0  0  0  0  0  0  0  0  0  0  0  0
  149.7571  141.2860  153.4587 H   0  0  0  0  0  0  0  0  0  0  0  0
  147.8412  137.1999  154.3661 H   0  0  0  0  0  0  0  0  0  0  0  0
  146.2565  137.6327  156.2651 H   0  0  0  0  0  0  0  0  0  0  0  0
  145.6707  136.3661  155.1983 H   0  0  0  0  0  0  0  0  0  0  0  0
  144.9756  137.9818  155.1078 H   0  0  0  0  0  0  0  0  0  0  0  0
  147.2098  137.4850  152.1742 H   0  0  0  0  0  0  0  0  0  0  0  0
  146.4457  135.3665  153.1019 H   0  0  0  0  0  0  0  0  0  0  0  0
  144.9405  136.1806  153.5044 H   0  0  0  0  0  0  0  0  0  0  0  0
  144.3158  136.4239  151.2156 H   0  0  0  0  0  0  0  0  0  0  0  0
  145.9731  136.3386  150.6494 H   0  0  0  0  0  0  0  0  0  0  0  0
  143.0051  134.3221  150.7006 H   0  0  0  0  0  0  0  0  0  0  0  0
  143.6489  131.6915  150.3665 H   0  0  0  0  0  0  0  0  0  0  0  0
  146.3783  131.6529  150.8468 H   0  0  0  0  0  0  0  0  0  0  0  0
  150.3334  139.0479  153.2249 H   0  0  0  0  0  0  0  0  0  0  0  0
  149.3936  137.7499  153.8936 H   0  0  0  0  0  0  0  0  0  0  0  0
  1  2  1  0  0  0  0
  1 21  1  0  0  0  0
  1 22  1  0  0  0  0
  1 23  1  0  0  0  0
  2 20  1  0  0  0  0
  2  3  1  0  0  0  0
  2 24  1  0  0  0  0
  3  4  1  0  0  0  0
  3 25  1  0  0  0  0
  3 26  1  0  0  0  0
  4  5  1  0  0  0  0
  4  6  1  0  0  0  0
  4 27  1  0  0  0  0
  5 28  1  0  0  0  0
  5 29  1  0  0  0  0
  5 30  1  0  0  0  0
  6  7  1  0  0  0  0
  6 31  1  0  0  0  0
  6 32  1  0  0  0  0
  7  8  1  0  0  0  0
  7 20  1  0  0  0  0
  8  9  2  0  0  0  0
  8 10  1  0  0  0  0
 10 11  1  0  0  0  0
 10 12  1  0  0  0  0
 10 33  1  0  0  0  0
 11 34  1  0  0  0  0
 11 35  1  0  0  0  0
 11 36  1  0  0  0  0
 12 13  1  0  0  0  0
 12 37  1  0  0  0  0
 13 14  1  0  0  0  0
 13 38  1  0  0  0  0
 13 39  1  0  0  0  0
 14 15  1  0  0  0  0
 14 40  1  0  0  0  0
 14 41  1  0  0  0  0
 15 19  1  0  0  0  0
 15 16  1  0  0  0  0
 16 17  2  0  0  0  0
 16 42  1  0  0  0  0
 17 18  1  0  0  0  0
 17 43  1  0  0  0  0
 18 19  2  0  0  0  0
 18 44  1  0  0  0  0
 20 45  1  0  0  0  0
 20 46  1  0  0  0  0
M  END
> <s_m_source_file>
AV-unprocessed.smi

> <i_m_source_file_index>
3331

> <i_lp_mmshare_version>
43012

> <i_f3d_flags>
0

> <s_epik_input>
W0NIM11bQ0BASF0xW0NIMl1bQ0BASF0oW0NIM10pW0NIMl1OKFtDSDJdMSlDKD1PKVtDQEhdKFtDSDNdKVtOSF1bQ0gyXVtDSDJdbjJbY0hdW2NIXVtjSF1uMg==

> <s_epik_cmdline>
J2VwaWtfcHl0aG9uJywgJy1waCcsICc3LjAnLCAnLXRuJywgJzgnLCAnLW1hJywgJzIwMCcsICctbWV0YWxfYmluZGluZycsICctaW1hZScsICc8aW5maWxlLm1hZT4nLCAnLW9tYWUnLCAnPG91dGZpbGUubWFlPic=

> <r_lp_tautomer_probability>
1

> <r_epik_Ionization_Penalty>
0.767994

> <r_epik_Ionization_Penalty_Charging>
0

> <r_epik_Ionization_Penalty_Neutral>
0.767994

> <r_epik_State_Penalty>
0.795453

> <r_epik_Charging_Adjusted_Penalty>
0.795453

> <i_epik_Tot_Q>
0

> <i_epik_Tot_abs_Q>
0

> <r_epik_Metal_State_Penalty>
0.794784

> <b_epik_Metal_Only>
0

> <s_lp_Force_Field>
OPLS_2005

> <r_lp_Energy>
29.1639

> <b_lp_Chiralities_Consistent>
1

> <s_lp_Variant>
AV-unprocessed.smi:3331-12

> <Gold.Version>
5.8.1

> <Gold.Id.Protein>
6NUR|6NUR_protein|mol2

> <Gold.PLP.Fitness>
40.5937

> <Gold.PLP.PLP>
-34.3414

> <Gold.PLP.part.hbond>
-1.0000

> <Gold.PLP.part.metal>
0.0000

> <Gold.PLP.part.buried>
-3.8819

> <Gold.PLP.part.nonpolar>
-30.4065

> <Gold.PLP.part.repulsive>
0.2992

> <Gold.PLP.ligand.clash>
0.0000

> <Gold.PLP.ligand.torsion>
0.8790

> <Gold.PLP.Chemscore.Hbond>
0.6503

> <Gold.PLP.Chemscore.CHOScore>
2.0000

> <Gold.PLP.Chemscore.Metal>
0.0000

> <Gold.Chemscore.Hbonds>
donor molecule, donor type, donor heavy atom, donor atom, acceptor molecule, acceptor atom, score
      L1  H    12    37       P1  7948  0.47
      L1  C    16    42       P1 10186  1.00
      L1  C    18    44       P1 10747  0.39

> <Gold.PLP.Chemscore.Internal.Correction>
0.0595

> <Gold.Rescore>
     Score         DG    S(hbond)    S(metal)    S(lipo)     H(rot)  DE(clash)    DE(int)     intcor
     12.59     -13.53       0.74        0.00      84.13       1.66       0.04       0.90       ----

> <Gold.Chemscore.Fitness>
12.5857

> <Gold.Chemscore.DG>
-13.5273

> <Gold.Chemscore.ZeroCoef>
-5.4800

> <Gold.Chemscore.Hbond>
0.7385

> <Gold.Chemscore.Metal>
0.0000

> <Gold.Chemscore.Lipo>
84.1256

> <Gold.Chemscore.Internal_Hbond>
0.0000

> <Gold.Chemscore.DEClash>
0.0386

> <Gold.Chemscore.DEInternal>
0.9029

> <Gold.Chemscore.Rot>
1.6649

> <Gold.Chemscore.Internal.Correction>
   9.000000E+99

> <Gold.Chemscore.Hbonds>
donor molecule, donor type, donor heavy atom, donor atom, acceptor molecule, acceptor atom, score
      L1  H    12    37       P1  7948  0.47

> <Gold.Chemscore.Hbond.Weighted>
-2.4666

> <Gold.Chemscore.Metal.Weighted>
-0.0000

> <Gold.Chemscore.Lipo.Weighted>
-9.8427

> <Gold.Chemscore.Internal_Hbond.Weighted>
0.0000

> <Gold.Chemscore.DEClash.Weighted>
0.0386

> <Gold.Chemscore.DEInternal.Weighted>
0.9029

> <Gold.Chemscore.Rot.Weighted>
4.2621

> <Gold.Chemscore.Internal.Correction.Weighted>
   9.000000E+99

> <Gold.Protein.RotatedTorsions>
[ 6907 6896 6895 6894 ] final -110.40 input  -60.11 | X-H torsion
[ 7974 7965 7964 7962 ] final  129.06 input  175.53 | X-H torsion
[ 8008 7997 7996 7995 ] final -123.64 input   59.86 | X-H torsion
[ 10167 10162 10161 10158 ] final -128.17 input  -65.29 | X-H torsion
[ 10718 10713 10712 10709 ] final -179.94 input   66.30 | X-H torsion
[ 10763 10752 10751 10750 ] final   78.26 input  -60.55 | X-H torsion
[ 11005 11000 10999 10996 ] final -100.60 input  -57.11 | X-H torsion

> <Gold.Protein.ActiveResidues>
 VAL166  LYS551  ARG553  GLY616  TRP617  ASP618  TYR619  PRO620  LYS621  CYS622 
 ASP623  PHE694  ASN695  SER759  ASP760  ASP761  ALA762  ILE779  LEU786  VAL792 
 PHE793  MET794  SER795  GLU796  ALA797  LYS798  CYS799  TRP800  GLU811  SER814 

> <Gold.Protein.RotatedAtoms>
  150.7623  133.9387  159.3449 H   0  0  0  0  0  0  0  0  0  0  0  0  # atno 6907 bound_to 6896
  151.7293  135.0876  160.0307 H   0  0  0  0  0  0  0  0  0  0  0  0  # atno 6908 bound_to 6896
  152.3600  133.6247  159.6044 H   0  0  0  0  0  0  0  0  0  0  0  0  # atno 6909 bound_to 6896
  145.0328  139.4031  143.5141 H   0  0  0  0  0  0  0  0  0  0  0  0  # atno 7974 bound_to 7965
  155.1838  140.0411  157.2887 H   0  0  0  0  0  0  0  0  0  0  0  0  # atno 8008 bound_to 7997
  154.6185  140.2495  155.7551 H   0  0  0  0  0  0  0  0  0  0  0  0  # atno 8009 bound_to 7997
  156.2420  140.2900  156.0482 H   0  0  0  0  0  0  0  0  0  0  0  0  # atno 8010 bound_to 7997
  139.9531  143.6034  152.2469 H   0  0  0  0  0  0  0  0  0  0  0  0  # atno 10167 bound_to 10162
  156.8666  130.9769  151.3078 H   0  0  0  0  0  0  0  0  0  0  0  0  # atno 10718 bound_to 10713
  153.0861  135.4883  154.8599 H   0  0  0  0  0  0  0  0  0  0  0  0  # atno 10763 bound_to 10752
  154.7212  135.3040  154.9047 H   0  0  0  0  0  0  0  0  0  0  0  0  # atno 10764 bound_to 10752
  153.9711  135.6801  153.4800 H   0  0  0  0  0  0  0  0  0  0  0  0  # atno 10765 bound_to 10752
  141.1264  133.8412  157.1124 H   0  0  0  0  0  0  0  0  0  0  0  0  # atno 11005 bound_to 11000
  146.3500  139.9886  142.8688 LP  0  0  0  0  0  0  0  0  0  0  0  0  # atno 17320 bound_to 7965
  145.1749  140.9739  143.4300 LP  0  0  0  0  0  0  0  0  0  0  0  0  # atno 17321 bound_to 7965
  139.6613  144.7662  151.1958 LP  0  0  0  0  0  0  0  0  0  0  0  0  # atno 17342 bound_to 10162
  140.7577  143.6006  150.8703 LP  0  0  0  0  0  0  0  0  0  0  0  0  # atno 17343 bound_to 10162
  157.6220  130.8662  149.9124 LP  0  0  0  0  0  0  0  0  0  0  0  0  # atno 17370 bound_to 10713
  156.0748  130.3680  150.0700 LP  0  0  0  0  0  0  0  0  0  0  0  0  # atno 17371 bound_to 10713
  140.0267  134.9920  157.0700 LP  0  0  0  0  0  0  0  0  0  0  0  0  # atno 17394 bound_to 11000
  140.4351  134.1740  155.7170 LP  0  0  0  0  0  0  0  0  0  0  0  0  # atno 17395 bound_to 11000

$$$$
