AV-unprocessed.smi:1040|AV-procd|sdf|4527|dock5
  -GOLD-   22720 2543D 1   1.00000     0.00000
 Structure written by MMmdl.
 55 56  0  0  0  0  0  0  0  0  2 V2000
  149.6553  132.8695  155.7042 C   0  0  0  0  0  0  0  0  0  0  0  0
  149.4462  134.0524  154.7445 C   0  0  1  0  0  0  0  0  0  0  0  0
  148.0982  134.0256  154.1810 N   0  0  0  0  0  0  0  0  0  0  0  0
  147.7430  133.4702  153.0144 C   0  0  0  0  0  0  0  0  0  0  0  0
  148.5209  132.8624  152.2793 O   0  0  0  0  0  0  0  0  0  0  0  0
  146.4439  133.6883  152.7550 N   0  0  0  0  0  0  0  0  0  0  0  0
  145.7047  133.3188  151.5962 C   0  0  0  0  0  0  0  0  0  0  0  0
  146.1792  132.3517  150.6741 C   0  0  0  0  0  0  0  0  0  0  0  0
  145.4032  132.0236  149.5452 C   0  0  0  0  0  0  0  0  0  0  0  0
  144.1639  132.6624  149.3581 C   0  0  0  0  0  0  0  0  0  0  0  0
  143.7344  133.5684  150.2611 N   0  3  0  0  0  0  0  0  0  0  0  0
  144.4373  133.9182  151.3665 C   0  0  0  0  0  0  0  0  0  0  0  0
  143.8825  134.8674  152.2469 N   0  0  0  0  0  0  0  0  0  0  0  0
  144.2202  136.2698  152.0067 C   0  0  0  0  0  0  0  0  0  0  0  0
  143.8429  137.1344  153.2219 C   0  0  0  0  0  0  0  0  0  0  0  0
  142.3655  136.9387  153.5998 C   0  0  0  0  0  0  0  0  0  0  0  0
  142.0595  135.4463  153.8068 C   0  0  0  0  0  0  0  0  0  0  0  0
  142.4805  134.6213  152.5786 C   0  0  0  0  0  0  0  0  0  0  0  0
  149.7379  135.4143  155.3858 C   0  0  0  0  0  0  0  0  0  0  0  0
  150.1285  135.4788  156.5524 O   0  0  0  0  0  0  0  0  0  0  0  0
  149.5549  136.4893  154.5982 N   0  0  0  0  0  0  0  0  0  0  0  0
  149.7513  137.9061  154.9287 C   0  0  0  0  0  0  0  0  0  0  0  0
  148.7167  138.7027  154.1144 C   0  0  0  0  0  0  0  0  0  0  0  0
  151.1683  138.3675  154.5271 C   0  0  0  0  0  0  0  0  0  0  0  0
  149.5031  138.1540  156.4319 C   0  0  0  0  0  0  0  0  0  0  0  0
  150.6653  132.8699  156.1160 H   0  0  0  0  0  0  0  0  0  0  0  0
  149.5121  131.9162  155.1949 H   0  0  0  0  0  0  0  0  0  0  0  0
  148.9563  132.9086  156.5406 H   0  0  0  0  0  0  0  0  0  0  0  0
  150.1541  133.9404  153.9203 H   0  0  0  0  0  0  0  0  0  0  0  0
  147.3876  134.5050  154.7146 H   0  0  0  0  0  0  0  0  0  0  0  0
  145.9579  134.2845  153.4088 H   0  0  0  0  0  0  0  0  0  0  0  0
  147.1228  131.8483  150.8207 H   0  0  0  0  0  0  0  0  0  0  0  0
  145.7540  131.2896  148.8344 H   0  0  0  0  0  0  0  0  0  0  0  0
  143.5040  132.4722  148.5238 H   0  0  0  0  0  0  0  0  0  0  0  0
  145.2879  136.3656  151.8049 H   0  0  0  0  0  0  0  0  0  0  0  0
  143.6903  136.6248  151.1216 H   0  0  0  0  0  0  0  0  0  0  0  0
  144.4749  136.8667  154.0701 H   0  0  0  0  0  0  0  0  0  0  0  0
  144.0398  138.1852  153.0083 H   0  0  0  0  0  0  0  0  0  0  0  0
  142.1297  137.5007  154.5041 H   0  0  0  0  0  0  0  0  0  0  0  0
  141.7285  137.3376  152.8095 H   0  0  0  0  0  0  0  0  0  0  0  0
  142.5894  135.0831  154.6886 H   0  0  0  0  0  0  0  0  0  0  0  0
  140.9965  135.3064  154.0045 H   0  0  0  0  0  0  0  0  0  0  0  0
  141.8640  134.8921  151.7206 H   0  0  0  0  0  0  0  0  0  0  0  0
  142.3037  133.5624  152.7687 H   0  0  0  0  0  0  0  0  0  0  0  0
  149.2408  136.3060  153.6562 H   0  0  0  0  0  0  0  0  0  0  0  0
  148.7989  139.7731  154.3069 H   0  0  0  0  0  0  0  0  0  0  0  0
  147.6976  138.4033  154.3628 H   0  0  0  0  0  0  0  0  0  0  0  0
  148.8515  138.5524  153.0424 H   0  0  0  0  0  0  0  0  0  0  0  0
  151.3691  138.1638  153.4746 H   0  0  0  0  0  0  0  0  0  0  0  0
  151.9434  137.8727  155.1121 H   0  0  0  0  0  0  0  0  0  0  0  0
  151.2901  139.4402  154.6810 H   0  0  0  0  0  0  0  0  0  0  0  0
  149.5546  139.2175  156.6670 H   0  0  0  0  0  0  0  0  0  0  0  0
  150.2407  137.6540  157.0594 H   0  0  0  0  0  0  0  0  0  0  0  0
  148.5174  137.7990  156.7354 H   0  0  0  0  0  0  0  0  0  0  0  0
  142.8280  134.0099  150.1056 H   0  0  0  0  0  0  0  0  0  0  0  0
  1  2  1  0  0  0  0
  1 26  1  0  0  0  0
  1 27  1  0  0  0  0
  1 28  1  0  0  0  0
  2  3  1  0  0  0  0
  2 19  1  0  0  0  0
  2 29  1  0  0  0  0
  3  4  1  0  0  0  0
  3 30  1  0  0  0  0
  4  5  2  0  0  0  0
  4  6  1  0  0  0  0
  6  7  1  0  0  0  0
  6 31  1  0  0  0  0
  7 12  1  0  0  0  0
  7  8  2  0  0  0  0
  8  9  1  0  0  0  0
  8 32  1  0  0  0  0
  9 10  2  0  0  0  0
  9 33  1  0  0  0  0
 10 11  1  0  0  0  0
 10 34  1  0  0  0  0
 11 12  2  0  0  0  0
 11 55  1  0  0  0  0
 12 13  1  0  0  0  0
 13 18  1  0  0  0  0
 13 14  1  0  0  0  0
 14 15  1  0  0  0  0
 14 35  1  0  0  0  0
 14 36  1  0  0  0  0
 15 16  1  0  0  0  0
 15 37  1  0  0  0  0
 15 38  1  0  0  0  0
 16 17  1  0  0  0  0
 16 39  1  0  0  0  0
 16 40  1  0  0  0  0
 17 18  1  0  0  0  0
 17 41  1  0  0  0  0
 17 42  1  0  0  0  0
 18 43  1  0  0  0  0
 18 44  1  0  0  0  0
 19 20  2  0  0  0  0
 19 21  1  0  0  0  0
 21 22  1  0  0  0  0
 21 45  1  0  0  0  0
 22 23  1  0  0  0  0
 22 24  1  0  0  0  0
 22 25  1  0  0  0  0
 23 46  1  0  0  0  0
 23 47  1  0  0  0  0
 23 48  1  0  0  0  0
 24 49  1  0  0  0  0
 24 50  1  0  0  0  0
 24 51  1  0  0  0  0
 25 52  1  0  0  0  0
 25 53  1  0  0  0  0
 25 54  1  0  0  0  0
M  CHG  1  11   1
M  END
> <s_m_source_file>
AV-unprocessed.smi

> <i_m_source_file_index>
1040

> <i_lp_mmshare_version>
43012

> <i_f3d_flags>
0

> <s_epik_input>
W0NIM11DKFtDSDNdKShbQ0gzXSlbTkhdQyg9TylbQ0BIXShbQ0gzXSlbTkhdQyg9TylbTkhdYzFbY0hdW2NIXVtjSF1uYzFOMltDSDJdW0NIMl1bQ0gyXVtDSDJdW0NIMl0y

> <s_epik_cmdline>
J2VwaWtfcHl0aG9uJywgJy1waCcsICc3LjAnLCAnLXRuJywgJzgnLCAnLW1hJywgJzIwMCcsICctbWV0YWxfYmluZGluZycsICctaW1hZScsICc8aW5maWxlLm1hZT4nLCAnLW9tYWUnLCAnPG91dGZpbGUubWFlPic=

> <r_lp_tautomer_probability>
0.999994

> <r_epik_Ionization_Penalty>
1.20468

> <r_epik_Ionization_Penalty_Charging>
1.20466

> <r_epik_Ionization_Penalty_Neutral>
1.88859e-05

> <r_epik_State_Penalty>
1.27057

> <r_epik_Charging_Adjusted_Penalty>
2.47523

> <i_epik_Tot_Q>
1

> <i_epik_Tot_abs_Q>
1

> <r_epik_Metal_State_Penalty>
1.34448

> <b_epik_Metal_Only>
0

> <s_lp_Force_Field>
OPLS_2005

> <r_lp_Energy>
27.4215

> <b_lp_Chiralities_Consistent>
1

> <s_lp_Variant>
AV-unprocessed.smi:1040-4

> <Gold.Version>
5.8.1

> <Gold.Id.Protein>
6NUR|6NUR_protein|mol2

> <Gold.PLP.Fitness>
46.6588

> <Gold.PLP.PLP>
-40.2718

> <Gold.PLP.part.hbond>
-2.4155

> <Gold.PLP.part.metal>
0.0000

> <Gold.PLP.part.buried>
-5.1591

> <Gold.PLP.part.nonpolar>
-32.9338

> <Gold.PLP.part.repulsive>
1.4421

> <Gold.PLP.ligand.clash>
0.0012

> <Gold.PLP.ligand.torsion>
1.4941

> <Gold.PLP.Chemscore.Hbond>
3.0000

> <Gold.PLP.Chemscore.CHOScore>
0.0000

> <Gold.PLP.Chemscore.Metal>
0.0000

> <Gold.Chemscore.Hbonds>
donor molecule, donor type, donor heavy atom, donor atom, acceptor molecule, acceptor atom, score
      L1  H    11    55       P1 10186  2.00
      L1  H    21    45       P1  7948  1.00

> <Gold.PLP.Chemscore.Internal.Correction>
0.3764

> <Gold.Rescore>
     Score         DG    S(hbond)    S(metal)    S(lipo)     H(rot)  DE(clash)    DE(int)     intcor
     14.62     -18.49       1.99        0.00      90.37       1.64       0.33       3.55       ----

> <Gold.Chemscore.Fitness>
14.6156

> <Gold.Chemscore.DG>
-18.4908

> <Gold.Chemscore.ZeroCoef>
-5.4800

> <Gold.Chemscore.Hbond>
1.9889

> <Gold.Chemscore.Metal>
0.0000

> <Gold.Chemscore.Lipo>
90.3711

> <Gold.Chemscore.Internal_Hbond>
0.0000

> <Gold.Chemscore.DEClash>
0.3301

> <Gold.Chemscore.DEInternal>
3.5451

> <Gold.Chemscore.Rot>
1.6428

> <Gold.Chemscore.Internal.Correction>
   9.000000E+99

> <Gold.Chemscore.Hbonds>
donor molecule, donor type, donor heavy atom, donor atom, acceptor molecule, acceptor atom, score
      L1  H    11    55       P1 10186  0.98
      L1  H    21    45       P1  7948  0.91

> <Gold.Chemscore.Hbond.Weighted>
-6.6428

> <Gold.Chemscore.Metal.Weighted>
-0.0000

> <Gold.Chemscore.Lipo.Weighted>
-10.5734

> <Gold.Chemscore.Internal_Hbond.Weighted>
0.0000

> <Gold.Chemscore.DEClash.Weighted>
0.3301

> <Gold.Chemscore.DEInternal.Weighted>
3.5451

> <Gold.Chemscore.Rot.Weighted>
4.2055

> <Gold.Chemscore.Internal.Correction.Weighted>
   9.000000E+99

> <Gold.Protein.RotatedTorsions>
[ 6907 6896 6895 6894 ] final  -39.50 input  -60.11 | X-H torsion
[ 7974 7965 7964 7962 ] final    5.00 input  175.53 | X-H torsion
[ 8008 7997 7996 7995 ] final    8.58 input   59.86 | X-H torsion
[ 10167 10162 10161 10158 ] final   75.83 input  -65.29 | X-H torsion
[ 10718 10713 10712 10709 ] final   96.09 input   66.30 | X-H torsion
[ 10763 10752 10751 10750 ] final  129.10 input  -60.55 | X-H torsion
[ 11005 11000 10999 10996 ] final  -45.66 input  -57.11 | X-H torsion

> <Gold.Protein.ActiveResidues>
 VAL166  LYS551  ARG553  GLY616  TRP617  ASP618  TYR619  PRO620  LYS621  CYS622 
 ASP623  PHE694  ASN695  SER759  ASP760  ASP761  ALA762  ILE779  LEU786  VAL792 
 PHE793  MET794  SER795  GLU796  ALA797  LYS798  CYS799  TRP800  GLU811  SER814 

> <Gold.Protein.RotatedAtoms>
  150.9896  134.9233  159.7891 H   0  0  0  0  0  0  0  0  0  0  0  0  # atno 6907 bound_to 6896
  152.5247  134.3300  159.9189 H   0  0  0  0  0  0  0  0  0  0  0  0  # atno 6908 bound_to 6896
  151.3306  133.3961  159.2697 H   0  0  0  0  0  0  0  0  0  0  0  0  # atno 6909 bound_to 6896
  146.2442  140.0450  142.8379 H   0  0  0  0  0  0  0  0  0  0  0  0  # atno 7974 bound_to 7965
  154.7687  140.2798  155.6155 H   0  0  0  0  0  0  0  0  0  0  0  0  # atno 8008 bound_to 7997
  156.2929  140.2645  156.2412 H   0  0  0  0  0  0  0  0  0  0  0  0  # atno 8009 bound_to 7997
  154.9927  140.0373  157.2316 H   0  0  0  0  0  0  0  0  0  0  0  0  # atno 8010 bound_to 7997
  139.9988  144.5702  150.7755 H   0  0  0  0  0  0  0  0  0  0  0  0  # atno 10167 bound_to 10162
  157.6931  131.0567  150.4438 H   0  0  0  0  0  0  0  0  0  0  0  0  # atno 10718 bound_to 10713
  153.7362  135.3231  155.3295 H   0  0  0  0  0  0  0  0  0  0  0  0  # atno 10763 bound_to 10752
  154.8310  135.4534  154.1072 H   0  0  0  0  0  0  0  0  0  0  0  0  # atno 10764 bound_to 10752
  153.2233  135.6951  153.8055 H   0  0  0  0  0  0  0  0  0  0  0  0  # atno 10765 bound_to 10752
  141.0530  133.6736  156.3045 H   0  0  0  0  0  0  0  0  0  0  0  0  # atno 11005 bound_to 11000
  145.1035  140.9361  143.4698 LP  0  0  0  0  0  0  0  0  0  0  0  0  # atno 17320 bound_to 7965
  145.0648  139.3077  143.5862 LP  0  0  0  0  0  0  0  0  0  0  0  0  # atno 17321 bound_to 7965
  140.7427  143.2835  151.3529 LP  0  0  0  0  0  0  0  0  0  0  0  0  # atno 17342 bound_to 10162
  139.6287  144.0764  152.2457 LP  0  0  0  0  0  0  0  0  0  0  0  0  # atno 17343 bound_to 10162
  156.4794  130.4070  149.6470 LP  0  0  0  0  0  0  0  0  0  0  0  0  # atno 17370 bound_to 10713
  156.3521  130.7437  151.2398 LP  0  0  0  0  0  0  0  0  0  0  0  0  # atno 17371 bound_to 10713
  140.6019  134.5546  157.5519 LP  0  0  0  0  0  0  0  0  0  0  0  0  # atno 17394 bound_to 11000
  139.9366  134.7864  156.0787 LP  0  0  0  0  0  0  0  0  0  0  0  0  # atno 17395 bound_to 11000

$$$$
