AV-unprocessed.smi:1539|AV-procd|sdf|6196|dock4
  -GOLD-   22720 6363D 1   1.00000     0.00000
 Structure written by MMmdl.
 42 43  0  0  0  0  0  0  0  0  2 V2000
  155.6147  136.1395  158.7119 C   0  0  0  0  0  0  0  0  0  0  0  0
  154.6784  136.0570  159.9198 C   0  0  0  0  0  0  0  0  0  0  0  0
  153.4909  135.8018  159.7175 O   0  0  0  0  0  0  0  0  0  0  0  0
  155.1761  136.2776  161.1614 N   0  0  0  0  0  0  0  0  0  0  0  0
  154.3098  136.2705  162.3500 C   0  0  0  0  0  0  0  0  0  0  0  0
  153.6703  137.6547  162.5905 C   0  0  0  0  0  0  0  0  0  0  0  0
  154.7031  138.7896  162.7708 C   0  0  0  0  0  0  0  0  0  0  0  0
  155.5411  138.9571  161.5679 N   0  0  0  0  0  0  0  0  0  0  0  0
  155.1961  139.6847  160.4735 C   0  0  0  0  0  0  0  0  0  0  0  0
  155.7309  139.5476  159.3722 O   0  0  0  0  0  0  0  0  0  0  0  0
  154.2004  140.5658  160.6750 N   0  0  0  0  0  0  0  0  0  0  0  0
  153.6294  141.4325  159.6515 C   0  0  0  0  0  0  0  0  0  0  0  0
  152.4724  142.2771  160.2095 C   0  0  0  0  0  0  0  0  0  0  0  0
  152.0021  143.2602  159.2330 N   0  0  0  0  0  0  0  0  0  0  0  0
  152.7116  144.3078  158.7047 C   0  0  0  0  0  0  0  0  0  0  0  0
  151.8691  144.9505  157.8346 C   0  0  0  0  0  0  0  0  0  0  0  0
  150.6823  144.2683  157.8687 N   0  3  0  0  0  0  0  0  0  0  0  0
  150.7657  143.2393  158.7188 C   0  0  0  0  0  0  0  0  0  0  0  0
  156.7912  138.1763  161.6118 C   0  0  0  0  0  0  0  0  0  0  0  0
  156.5746  136.6477  161.4435 C   0  0  0  0  0  0  0  0  0  0  0  0
  156.1467  137.0908  158.6921 H   0  0  0  0  0  0  0  0  0  0  0  0
  155.0502  136.0569  157.7825 H   0  0  0  0  0  0  0  0  0  0  0  0
  156.3422  135.3280  158.7336 H   0  0  0  0  0  0  0  0  0  0  0  0
  153.5292  135.5141  162.2539 H   0  0  0  0  0  0  0  0  0  0  0  0
  154.8779  135.9772  163.2335 H   0  0  0  0  0  0  0  0  0  0  0  0
  152.9948  137.8937  161.7683 H   0  0  0  0  0  0  0  0  0  0  0  0
  153.0447  137.6019  163.4819 H   0  0  0  0  0  0  0  0  0  0  0  0
  154.1984  139.7212  163.0305 H   0  0  0  0  0  0  0  0  0  0  0  0
  155.3290  138.5656  163.6356 H   0  0  0  0  0  0  0  0  0  0  0  0
  153.7988  140.6207  161.5999 H   0  0  0  0  0  0  0  0  0  0  0  0
  154.4070  142.0742  159.2332 H   0  0  0  0  0  0  0  0  0  0  0  0
  153.2738  140.8045  158.8341 H   0  0  0  0  0  0  0  0  0  0  0  0
  151.6310  141.6446  160.4964 H   0  0  0  0  0  0  0  0  0  0  0  0
  152.7821  142.8237  161.1014 H   0  0  0  0  0  0  0  0  0  0  0  0
  153.7367  144.5115  158.9803 H   0  0  0  0  0  0  0  0  0  0  0  0
  152.0215  145.8191  157.2103 H   0  0  0  0  0  0  0  0  0  0  0  0
  149.9875  142.5318  158.9445 H   0  0  0  0  0  0  0  0  0  0  0  0
  157.5018  138.5156  160.8570 H   0  0  0  0  0  0  0  0  0  0  0  0
  157.2989  138.3684  162.5578 H   0  0  0  0  0  0  0  0  0  0  0  0
  156.8929  136.1471  162.3586 H   0  0  0  0  0  0  0  0  0  0  0  0
  157.2600  136.2594  160.6905 H   0  0  0  0  0  0  0  0  0  0  0  0
  149.8591  144.5063  157.3296 H   0  0  0  0  0  0  0  0  0  0  0  0
  1  2  1  0  0  0  0
  1 21  1  0  0  0  0
  1 22  1  0  0  0  0
  1 23  1  0  0  0  0
  2  3  2  0  0  0  0
  2  4  1  0  0  0  0
  4 20  1  0  0  0  0
  4  5  1  0  0  0  0
  5  6  1  0  0  0  0
  5 24  1  0  0  0  0
  5 25  1  0  0  0  0
  6  7  1  0  0  0  0
  6 26  1  0  0  0  0
  6 27  1  0  0  0  0
  7  8  1  0  0  0  0
  7 28  1  0  0  0  0
  7 29  1  0  0  0  0
  8  9  1  0  0  0  0
  8 19  1  0  0  0  0
  9 10  2  0  0  0  0
  9 11  1  0  0  0  0
 11 12  1  0  0  0  0
 11 30  1  0  0  0  0
 12 13  1  0  0  0  0
 12 31  1  0  0  0  0
 12 32  1  0  0  0  0
 13 14  1  0  0  0  0
 13 33  1  0  0  0  0
 13 34  1  0  0  0  0
 14 18  1  0  0  0  0
 14 15  1  0  0  0  0
 15 16  2  0  0  0  0
 15 35  1  0  0  0  0
 16 17  1  0  0  0  0
 16 36  1  0  0  0  0
 17 18  2  0  0  0  0
 17 42  1  0  0  0  0
 18 37  1  0  0  0  0
 19 20  1  0  0  0  0
 19 38  1  0  0  0  0
 19 39  1  0  0  0  0
 20 40  1  0  0  0  0
 20 41  1  0  0  0  0
M  CHG  1  17   1
M  END
> <s_m_source_file>
AV-unprocessed.smi

> <i_m_source_file_index>
1539

> <i_lp_mmshare_version>
43012

> <i_f3d_flags>
0

> <s_epik_input>
W0NIM11DKD1PKU4xW0NIMl1bQ0gyXVtDSDJdTihbQ0gyXVtDSDJdMSlDKD1PKVtOSF1bQ0gyXVtDSDJdbjJbY0hdW2NIXW5bY0hdMg==

> <s_epik_cmdline>
J2VwaWtfcHl0aG9uJywgJy1waCcsICc3LjAnLCAnLXRuJywgJzgnLCAnLW1hJywgJzIwMCcsICctbWV0YWxfYmluZGluZycsICctaW1hZScsICc8aW5maWxlLm1hZT4nLCAnLW9tYWUnLCAnPG91dGZpbGUubWFlPic=

> <r_lp_tautomer_probability>
1

> <r_epik_Ionization_Penalty>
0.254079

> <r_epik_Ionization_Penalty_Charging>
0

> <r_epik_Ionization_Penalty_Neutral>
0.254079

> <r_epik_State_Penalty>
0.245493

> <r_epik_Charging_Adjusted_Penalty>
0.245493

> <i_epik_Tot_Q>
1

> <i_epik_Tot_abs_Q>
1

> <r_epik_Metal_State_Penalty>
0.535648

> <b_epik_Metal_Only>
0

> <s_lp_Force_Field>
OPLS_2005

> <r_lp_Energy>
43.2206

> <b_lp_Chiralities_Consistent>
1

> <s_lp_Variant>
AV-unprocessed.smi:1539-1

> <Gold.Version>
5.8.1

> <Gold.Id.Protein>
6NUR|6NUR_protein|mol2

> <Gold.PLP.Fitness>
45.9874

> <Gold.PLP.PLP>
-34.2719

> <Gold.PLP.part.hbond>
-3.0000

> <Gold.PLP.part.metal>
0.0000

> <Gold.PLP.part.buried>
-4.7350

> <Gold.PLP.part.nonpolar>
-26.6131

> <Gold.PLP.part.repulsive>
0.0917

> <Gold.PLP.ligand.clash>
0.0000

> <Gold.PLP.ligand.torsion>
0.1515

> <Gold.PLP.Chemscore.Hbond>
4.0000

> <Gold.PLP.Chemscore.CHOScore>
0.0000

> <Gold.PLP.Chemscore.Metal>
0.0000

> <Gold.Chemscore.Hbonds>
donor molecule, donor type, donor heavy atom, donor atom, acceptor molecule, acceptor atom, score
      L1  H    17    42       P1  8028  1.90
      P1  H  6896  6907       L1     3  1.00
      P1  H  7997  8008       L1    10  0.88

> <Gold.PLP.Chemscore.Internal.Correction>
0.0184

> <Gold.Rescore>
     Score         DG    S(hbond)    S(metal)    S(lipo)     H(rot)  DE(clash)    DE(int)     intcor
     19.10     -19.26       2.96        0.00      70.49       1.70       0.02       0.13       ----

> <Gold.Chemscore.Fitness>
19.1043

> <Gold.Chemscore.DG>
-19.2600

> <Gold.Chemscore.ZeroCoef>
-5.4800

> <Gold.Chemscore.Hbond>
2.9623

> <Gold.Chemscore.Metal>
0.0000

> <Gold.Chemscore.Lipo>
70.4901

> <Gold.Chemscore.Internal_Hbond>
0.0000

> <Gold.Chemscore.DEClash>
0.0223

> <Gold.Chemscore.DEInternal>
0.1334

> <Gold.Chemscore.Rot>
1.7036

> <Gold.Chemscore.Internal.Correction>
   9.000000E+99

> <Gold.Chemscore.Hbonds>
donor molecule, donor type, donor heavy atom, donor atom, acceptor molecule, acceptor atom, score
      L1  H    17    42       P1  8028  0.21
      P1  H  6896  6907       L1     3  0.94
      P1  H  7997  8008       L1    10  0.86

> <Gold.Chemscore.Hbond.Weighted>
-9.8940

> <Gold.Chemscore.Metal.Weighted>
-0.0000

> <Gold.Chemscore.Lipo.Weighted>
-8.2473

> <Gold.Chemscore.Internal_Hbond.Weighted>
0.0000

> <Gold.Chemscore.DEClash.Weighted>
0.0223

> <Gold.Chemscore.DEInternal.Weighted>
0.1334

> <Gold.Chemscore.Rot.Weighted>
4.3613

> <Gold.Chemscore.Internal.Correction.Weighted>
   9.000000E+99

> <Gold.Protein.RotatedTorsions>
[ 6907 6896 6895 6894 ] final   54.48 input  -60.11 | X-H torsion
[ 7974 7965 7964 7962 ] final   74.87 input  175.53 | X-H torsion
[ 8008 7997 7996 7995 ] final -139.98 input   59.86 | X-H torsion
[ 10167 10162 10161 10158 ] final   15.73 input  -65.29 | X-H torsion
[ 10718 10713 10712 10709 ] final  -75.38 input   66.30 | X-H torsion
[ 10763 10752 10751 10750 ] final   80.19 input  -60.55 | X-H torsion
[ 11005 11000 10999 10996 ] final -161.37 input  -57.11 | X-H torsion

> <Gold.Protein.ActiveResidues>
 VAL166  LYS551  ARG553  GLY616  TRP617  ASP618  TYR619  PRO620  LYS621  CYS622 
 ASP623  PHE694  ASN695  SER759  ASP760  ASP761  ALA762  ILE779  LEU786  VAL792 
 PHE793  MET794  SER795  GLU796  ALA797  LYS798  CYS799  TRP800  GLU811  SER814 

> <Gold.Protein.RotatedAtoms>
  152.3443  134.7093  160.0254 H   0  0  0  0  0  0  0  0  0  0  0  0  # atno 6907 bound_to 6896
  151.7468  133.3319  159.3388 H   0  0  0  0  0  0  0  0  0  0  0  0  # atno 6908 bound_to 6896
  150.7499  134.6161  159.6156 H   0  0  0  0  0  0  0  0  0  0  0  0  # atno 6909 bound_to 6896
  145.7228  139.2655  143.1586 H   0  0  0  0  0  0  0  0  0  0  0  0  # atno 7974 bound_to 7965
  155.4539  140.0540  157.2998 H   0  0  0  0  0  0  0  0  0  0  0  0  # atno 8008 bound_to 7997
  154.4766  140.2063  155.9820 H   0  0  0  0  0  0  0  0  0  0  0  0  # atno 8009 bound_to 7997
  156.1141  140.3199  155.8118 H   0  0  0  0  0  0  0  0  0  0  0  0  # atno 8010 bound_to 7997
  140.5847  143.8913  150.6820 H   0  0  0  0  0  0  0  0  0  0  0  0  # atno 10167 bound_to 10162
  156.0209  130.4439  150.3035 H   0  0  0  0  0  0  0  0  0  0  0  0  # atno 10718 bound_to 10713
  153.1013  135.4812  154.8872 H   0  0  0  0  0  0  0  0  0  0  0  0  # atno 10763 bound_to 10752
  154.7382  135.3076  154.8777 H   0  0  0  0  0  0  0  0  0  0  0  0  # atno 10764 bound_to 10752
  153.9393  135.6836  153.4798 H   0  0  0  0  0  0  0  0  0  0  0  0  # atno 10765 bound_to 10752
  140.6211  134.4749  157.5223 H   0  0  0  0  0  0  0  0  0  0  0  0  # atno 11005 bound_to 11000
  146.0609  140.7971  142.9735 LP  0  0  0  0  0  0  0  0  0  0  0  0  # atno 17320 bound_to 7965
  144.6912  140.3196  143.7234 LP  0  0  0  0  0  0  0  0  0  0  0  0  # atno 17321 bound_to 7965
  140.2421  143.3656  152.1478 LP  0  0  0  0  0  0  0  0  0  0  0  0  # atno 17342 bound_to 10162
  139.5190  144.7014  151.5482 LP  0  0  0  0  0  0  0  0  0  0  0  0  # atno 17343 bound_to 10162
  157.1137  131.0228  151.3037 LP  0  0  0  0  0  0  0  0  0  0  0  0  # atno 17370 bound_to 10713
  157.4684  130.7694  149.7300 LP  0  0  0  0  0  0  0  0  0  0  0  0  # atno 17371 bound_to 10713
  139.9153  134.8259  156.1388 LP  0  0  0  0  0  0  0  0  0  0  0  0  # atno 17394 bound_to 11000
  141.0741  133.6783  156.2201 LP  0  0  0  0  0  0  0  0  0  0  0  0  # atno 17395 bound_to 11000

$$$$
