AV-unprocessed.smi:282|AV-procd|sdf|2124|dock10
  -GOLD-   2262021433D 1   1.00000     0.00000
 Structure written by MMmdl.
 65 69  0  0  0  0  0  0  0  0  2 V2000
  152.1443  138.5960  154.4912 C   0  0  0  0  0  0  0  0  0  0  0  0
  152.5939  139.3018  155.7777 C   0  0  0  0  0  0  0  0  0  0  0  0
  151.5491  139.2238  156.9113 C   0  0  1  0  0  0  0  0  0  0  0  0
  152.1339  139.6954  158.2611 C   0  0  0  0  0  0  0  0  0  0  0  0
  152.3009  141.1713  158.3127 N   0  3  2  0  0  0  0  0  0  0  0  0
  152.8980  141.6144  159.5986 C   0  0  0  0  0  0  0  0  0  0  0  0
  153.1813  143.1245  159.5921 C   0  0  0  0  0  0  0  0  0  0  0  0
  151.9037  143.9153  159.2875 C   0  0  0  0  0  0  0  0  0  0  0  0
  151.2928  143.4308  157.9668 C   0  0  0  0  0  0  0  0  0  0  0  0
  151.0457  141.9088  157.9827 C   0  0  1  0  0  0  0  0  0  0  0  0
  150.4710  141.4395  156.6310 C   0  0  0  0  0  0  0  0  0  0  0  0
  150.3369  139.9856  156.5920 N   0  0  0  0  0  0  0  0  0  0  0  0
  149.1252  139.4961  156.9640 C   0  0  0  0  0  0  0  0  0  0  0  0
  147.9971  140.2138  156.7174 N   0  0  0  0  0  0  0  0  0  0  0  0
  146.8009  139.7357  157.0714 C   0  0  0  0  0  0  0  0  0  0  0  0
  146.5098  138.5828  157.6756 N   0  0  0  0  0  0  0  0  0  0  0  0
  147.6370  137.8608  157.9359 C   0  0  0  0  0  0  0  0  0  0  0  0
  148.9710  138.2382  157.6125 C   0  0  0  0  0  0  0  0  0  0  0  0
  149.8557  137.2519  158.0312 N   0  0  0  0  0  0  0  0  0  0  0  0
  149.0880  136.3390  158.5606 C   0  0  0  0  0  0  0  0  0  0  0  0
  147.7423  136.6304  158.5623 N   0  0  0  0  0  0  0  0  0  0  0  0
  146.6702  135.7970  159.0878 C   0  0  0  0  0  0  0  0  0  0  0  0
  146.4316  135.9247  160.6221 C   0  0  0  0  0  0  0  0  0  0  0  0
  145.4849  137.1180  160.9401 C   0  0  0  0  0  0  0  0  0  0  0  0
  145.9578  138.3354  160.3992 O   0  0  0  0  0  0  0  0  0  0  0  0
  145.8115  134.6136  161.1676 C   0  0  0  0  0  0  0  0  0  0  0  0
  145.8400  134.5263  162.7046 C   0  0  0  0  0  0  0  0  0  0  0  0
  147.1713  134.6806  163.1786 O   0  0  0  0  0  0  0  0  0  0  0  0
  147.7325  135.9436  162.8453 C   0  0  0  0  0  0  0  0  0  0  0  0
  147.8063  136.0968  161.3155 C   0  0  0  0  0  0  0  0  0  0  0  0
  152.9261  138.6404  153.7325 H   0  0  0  0  0  0  0  0  0  0  0  0
  151.2519  139.0608  154.0714 H   0  0  0  0  0  0  0  0  0  0  0  0
  151.9199  137.5450  154.6759 H   0  0  0  0  0  0  0  0  0  0  0  0
  153.5194  138.8342  156.1156 H   0  0  0  0  0  0  0  0  0  0  0  0
  152.8495  140.3378  155.5550 H   0  0  0  0  0  0  0  0  0  0  0  0
  151.2930  138.1680  157.0119 H   0  0  0  0  0  0  0  0  0  0  0  0
  151.4744  139.3916  159.0752 H   0  0  0  0  0  0  0  0  0  0  0  0
  153.0916  139.2068  158.4448 H   0  0  0  0  0  0  0  0  0  0  0  0
  152.2239  141.3633  160.4193 H   0  0  0  0  0  0  0  0  0  0  0  0
  153.8278  141.0726  159.7750 H   0  0  0  0  0  0  0  0  0  0  0  0
  153.5894  143.4320  160.5553 H   0  0  0  0  0  0  0  0  0  0  0  0
  153.9429  143.3525  158.8453 H   0  0  0  0  0  0  0  0  0  0  0  0
  151.1850  143.7856  160.0976 H   0  0  0  0  0  0  0  0  0  0  0  0
  152.1244  144.9819  159.2323 H   0  0  0  0  0  0  0  0  0  0  0  0
  150.3572  143.9595  157.7801 H   0  0  0  0  0  0  0  0  0  0  0  0
  151.9609  143.6879  157.1435 H   0  0  0  0  0  0  0  0  0  0  0  0
  150.3150  141.6843  158.7623 H   0  0  0  0  0  0  0  0  0  0  0  0
  149.5166  141.9349  156.4548 H   0  0  0  0  0  0  0  0  0  0  0  0
  151.1231  141.7509  155.8148 H   0  0  0  0  0  0  0  0  0  0  0  0
  145.9563  140.3673  156.8380 H   0  0  0  0  0  0  0  0  0  0  0  0
  149.4862  135.4246  158.9758 H   0  0  0  0  0  0  0  0  0  0  0  0
  145.7582  136.0476  158.5443 H   0  0  0  0  0  0  0  0  0  0  0  0
  146.8903  134.7619  158.8232 H   0  0  0  0  0  0  0  0  0  0  0  0
  144.4828  136.9339  160.5530 H   0  0  0  0  0  0  0  0  0  0  0  0
  145.3645  137.2621  162.0124 H   0  0  0  0  0  0  0  0  0  0  0  0
  145.7569  138.3524  159.4758 H   0  0  0  0  0  0  0  0  0  0  0  0
  144.7854  134.4975  160.8170 H   0  0  0  0  0  0  0  0  0  0  0  0
  146.3651  133.7606  160.7733 H   0  0  0  0  0  0  0  0  0  0  0  0
  145.1881  135.2706  163.1627 H   0  0  0  0  0  0  0  0  0  0  0  0
  145.4697  133.5524  163.0251 H   0  0  0  0  0  0  0  0  0  0  0  0
  147.1567  136.7480  163.3038 H   0  0  0  0  0  0  0  0  0  0  0  0
  148.7351  135.9998  163.2695 H   0  0  0  0  0  0  0  0  0  0  0  0
  148.4981  135.3423  160.9379 H   0  0  0  0  0  0  0  0  0  0  0  0
  148.2510  137.0590  161.0604 H   0  0  0  0  0  0  0  0  0  0  0  0
  152.9657  141.4063  157.5897 H   0  0  0  0  0  0  0  0  0  0  0  0
  1  2  1  0  0  0  0
  1 31  1  0  0  0  0
  1 32  1  0  0  0  0
  1 33  1  0  0  0  0
  2  3  1  0  0  0  0
  2 34  1  0  0  0  0
  2 35  1  0  0  0  0
  3 12  1  0  0  0  0
  3  4  1  0  0  0  0
  3 36  1  0  0  0  0
  4  5  1  0  0  0  0
  4 37  1  0  0  0  0
  4 38  1  0  0  0  0
  5 10  1  0  0  0  0
  5  6  1  0  0  0  0
  5 65  1  0  0  0  0
  6  7  1  0  0  0  0
  6 39  1  0  0  0  0
  6 40  1  0  0  0  0
  7  8  1  0  0  0  0
  7 41  1  0  0  0  0
  7 42  1  0  0  0  0
  8  9  1  0  0  0  0
  8 43  1  0  0  0  0
  8 44  1  0  0  0  0
  9 10  1  0  0  0  0
  9 45  1  0  0  0  0
  9 46  1  0  0  0  0
 10 11  1  0  0  0  0
 10 47  1  0  0  0  0
 11 12  1  0  0  0  0
 11 48  1  0  0  0  0
 11 49  1  0  0  0  0
 12 13  1  0  0  0  0
 13 18  1  0  0  0  0
 13 14  2  0  0  0  0
 14 15  1  0  0  0  0
 15 16  2  0  0  0  0
 15 50  1  0  0  0  0
 16 17  1  0  0  0  0
 17 21  1  0  0  0  0
 17 18  2  0  0  0  0
 18 19  1  0  0  0  0
 19 20  2  0  0  0  0
 20 21  1  0  0  0  0
 20 51  1  0  0  0  0
 21 22  1  0  0  0  0
 22 23  1  0  0  0  0
 22 52  1  0  0  0  0
 22 53  1  0  0  0  0
 23 30  1  0  0  0  0
 23 24  1  0  0  0  0
 23 26  1  0  0  0  0
 24 25  1  0  0  0  0
 24 54  1  0  0  0  0
 24 55  1  0  0  0  0
 25 56  1  0  0  0  0
 26 27  1  0  0  0  0
 26 57  1  0  0  0  0
 26 58  1  0  0  0  0
 27 28  1  0  0  0  0
 27 59  1  0  0  0  0
 27 60  1  0  0  0  0
 28 29  1  0  0  0  0
 29 30  1  0  0  0  0
 29 61  1  0  0  0  0
 29 62  1  0  0  0  0
 30 63  1  0  0  0  0
 30 64  1  0  0  0  0
M  CHG  1   5   1
M  END
> <s_m_source_file>
AV-unprocessed.smi

> <i_m_source_file_index>
282

> <i_lp_mmshare_version>
43012

> <i_f3d_flags>
0

> <s_epik_input>
W0NIMl0xW0NIMl1bQ0gyXVtDSDJdW0NAQEhdKE4xMilbQ0gyXU4oW0NAQEhdKFtDSDJdMilbQ0gyXVtDSDNdKWMobltjSF1uMyljKGMzNCluW2NIXW40W0NIMl1DNShbQ0gyXVtPSF0pW0NIMl1bQ0gyXU9bQ0gyXVtDSDJdNQ==

> <s_epik_cmdline>
J2VwaWtfcHl0aG9uJywgJy1waCcsICc3LjAnLCAnLXRuJywgJzgnLCAnLW1hJywgJzIwMCcsICctbWV0YWxfYmluZGluZycsICctaW1hZScsICc8aW5maWxlLm1hZT4nLCAnLW9tYWUnLCAnPG91dGZpbGUubWFlPic=

> <r_lp_tautomer_probability>
1

> <r_epik_Ionization_Penalty>
0.00308583

> <r_epik_Ionization_Penalty_Charging>
0.00300384

> <r_epik_Ionization_Penalty_Neutral>
8.19894e-05

> <r_epik_State_Penalty>
-0

> <r_epik_Charging_Adjusted_Penalty>
0.00300384

> <i_epik_Tot_Q>
1

> <i_epik_Tot_abs_Q>
1

> <r_epik_Metal_State_Penalty>
-0

> <b_epik_Metal_Only>
0

> <s_lp_Force_Field>
OPLS_2005

> <r_lp_Energy>
57.1852

> <b_lp_Chiralities_Consistent>
1

> <s_lp_Variant>
AV-unprocessed.smi:282-8

> <Gold.Version>
5.8.1

> <Gold.Id.Protein>
6NUR|6NUR_protein|mol2

> <Gold.PLP.Fitness>
46.6764

> <Gold.PLP.PLP>
-46.5299

> <Gold.PLP.part.hbond>
-1.0014

> <Gold.PLP.part.metal>
0.0000

> <Gold.PLP.part.buried>
-6.1597

> <Gold.PLP.part.nonpolar>
-40.2847

> <Gold.PLP.part.repulsive>
0.1055

> <Gold.PLP.ligand.clash>
0.0000

> <Gold.PLP.ligand.torsion>
1.0082

> <Gold.PLP.Chemscore.Hbond>
0.6232

> <Gold.PLP.Chemscore.CHOScore>
0.0000

> <Gold.PLP.Chemscore.Metal>
0.0000

> <Gold.Chemscore.Hbonds>
donor molecule, donor type, donor heavy atom, donor atom, acceptor molecule, acceptor atom, score
      P1  H  6934  6947       L1    25  0.66

> <Gold.PLP.Chemscore.Internal.Correction>
0.2933

> <Gold.Rescore>
     Score         DG    S(hbond)    S(metal)    S(lipo)     H(rot)  DE(clash)    DE(int)     intcor
     13.44     -17.20       0.89        0.00     122.93       2.20       0.20       3.56       ----

> <Gold.Chemscore.Fitness>
13.4406

> <Gold.Chemscore.DG>
-17.2000

> <Gold.Chemscore.ZeroCoef>
-5.4800

> <Gold.Chemscore.Hbond>
0.8923

> <Gold.Chemscore.Metal>
0.0000

> <Gold.Chemscore.Lipo>
122.9273

> <Gold.Chemscore.Internal_Hbond>
0.0000

> <Gold.Chemscore.DEClash>
0.1996

> <Gold.Chemscore.DEInternal>
3.5598

> <Gold.Chemscore.Rot>
2.2042

> <Gold.Chemscore.Internal.Correction>
   9.000000E+99

> <Gold.Chemscore.Hbonds>
donor molecule, donor type, donor heavy atom, donor atom, acceptor molecule, acceptor atom, score
      P1  H  6934  6947       L1    25  0.64

> <Gold.Chemscore.Hbond.Weighted>
-2.9804

> <Gold.Chemscore.Metal.Weighted>
-0.0000

> <Gold.Chemscore.Lipo.Weighted>
-14.3825

> <Gold.Chemscore.Internal_Hbond.Weighted>
0.0000

> <Gold.Chemscore.DEClash.Weighted>
0.1996

> <Gold.Chemscore.DEInternal.Weighted>
3.5598

> <Gold.Chemscore.Rot.Weighted>
5.6429

> <Gold.Chemscore.Internal.Correction.Weighted>
   9.000000E+99

> <Gold.Protein.RotatedTorsions>
[ 6907 6896 6895 6894 ] final -154.52 input  -60.11 | X-H torsion
[ 7974 7965 7964 7962 ] final -112.07 input  175.53 | X-H torsion
[ 8008 7997 7996 7995 ] final  178.33 input   59.86 | X-H torsion
[ 10167 10162 10161 10158 ] final  105.12 input  -65.29 | X-H torsion
[ 10718 10713 10712 10709 ] final  165.12 input   66.30 | X-H torsion
[ 10763 10752 10751 10750 ] final   75.87 input  -60.55 | X-H torsion
[ 11005 11000 10999 10996 ] final  -77.22 input  -57.11 | X-H torsion

> <Gold.Protein.ActiveResidues>
 VAL166  LYS551  ARG553  GLY616  TRP617  ASP618  TYR619  PRO620  LYS621  CYS622 
 ASP623  PHE694  ASN695  SER759  ASP760  ASP761  ALA762  ILE779  LEU786  VAL792 
 PHE793  MET794  SER795  GLU796  ALA797  LYS798  CYS799  TRP800  GLU811  SER814 

> <Gold.Protein.RotatedAtoms>
  151.2587  133.4313  159.2614 H   0  0  0  0  0  0  0  0  0  0  0  0  # atno 6907 bound_to 6896
  151.0551  134.9699  159.8241 H   0  0  0  0  0  0  0  0  0  0  0  0  # atno 6908 bound_to 6896
  152.5389  134.2540  159.8962 H   0  0  0  0  0  0  0  0  0  0  0  0  # atno 6909 bound_to 6896
  145.1484  140.8816  143.3661 H   0  0  0  0  0  0  0  0  0  0  0  0  # atno 7974 bound_to 7965
  156.0558  140.1336  156.9998 H   0  0  0  0  0  0  0  0  0  0  0  0  # atno 8008 bound_to 7997
  154.4457  140.1001  156.6515 H   0  0  0  0  0  0  0  0  0  0  0  0  # atno 8009 bound_to 7997
  155.5453  140.3462  155.4458 H   0  0  0  0  0  0  0  0  0  0  0  0  # atno 8010 bound_to 7997
  139.7119  144.7076  151.1013 H   0  0  0  0  0  0  0  0  0  0  0  0  # atno 10167 bound_to 10162
  157.0847  131.0401  151.2561 H   0  0  0  0  0  0  0  0  0  0  0  0  # atno 10718 bound_to 10713
  153.0685  135.4972  154.8253 H   0  0  0  0  0  0  0  0  0  0  0  0  # atno 10763 bound_to 10752
  154.6988  135.2998  154.9374 H   0  0  0  0  0  0  0  0  0  0  0  0  # atno 10764 bound_to 10752
  154.0104  135.6755  153.4818 H   0  0  0  0  0  0  0  0  0  0  0  0  # atno 10765 bound_to 10752
  141.1659  133.7014  156.7787 H   0  0  0  0  0  0  0  0  0  0  0  0  # atno 11005 bound_to 11000
  145.0457  139.3223  143.5954 LP  0  0  0  0  0  0  0  0  0  0  0  0  # atno 17320 bound_to 7965
  146.3497  139.9847  142.8692 LP  0  0  0  0  0  0  0  0  0  0  0  0  # atno 17321 bound_to 7965
  140.7735  143.5282  150.9455 LP  0  0  0  0  0  0  0  0  0  0  0  0  # atno 17342 bound_to 10162
  139.8966  143.6887  152.3137 LP  0  0  0  0  0  0  0  0  0  0  0  0  # atno 17343 bound_to 10162
  157.4771  130.7743  149.7378 LP  0  0  0  0  0  0  0  0  0  0  0  0  # atno 17370 bound_to 10713
  155.9914  130.3938  150.2986 LP  0  0  0  0  0  0  0  0  0  0  0  0  # atno 17371 bound_to 10713
  140.2410  134.8613  157.3573 LP  0  0  0  0  0  0  0  0  0  0  0  0  # atno 17394 bound_to 11000
  140.1796  134.4507  155.7780 LP  0  0  0  0  0  0  0  0  0  0  0  0  # atno 17395 bound_to 11000

$$$$
