AV-unprocessed.smi:1683|AV-procd|sdf|6751|dock10
  -GOLD-   22720 7513D 1   1.00000     0.00000
 Structure written by MMmdl.
 37 38  0  0  0  0  0  0  0  0  2 V2000
  144.8365  137.6218  152.5840 O   0  0  0  0  0  0  0  0  0  0  0  0
  145.9775  137.2886  152.2646 C   0  0  0  0  0  0  0  0  0  0  0  0
  147.0695  138.0046  152.5686 N   0  0  0  0  0  0  0  0  0  0  0  0
  147.0675  139.2739  153.2892 C   0  0  0  0  0  0  0  0  0  0  0  0
  148.4741  139.6824  153.7692 C   0  0  2  0  0  0  0  0  0  0  0  0
  149.2880  138.5336  154.3551 C   0  0  0  0  0  0  0  0  0  0  0  0
  150.3637  139.2654  155.1520 C   0  0  0  0  0  0  0  0  0  0  0  0
  149.6955  140.4600  155.7158 N   0  3  1  0  0  0  0  0  0  0  0  0
  150.5760  141.6365  155.9246 C   0  0  0  0  0  0  0  0  0  0  0  0
  150.7535  141.9978  157.4104 C   0  0  0  0  0  0  0  0  0  0  0  0
  151.5587  141.1332  158.0266 F   0  0  0  0  0  0  0  0  0  0  0  0
  151.2948  143.2118  157.4989 F   0  0  0  0  0  0  0  0  0  0  0  0
  149.5699  142.0123  158.0235 F   0  0  0  0  0  0  0  0  0  0  0  0
  148.4966  140.7362  154.8866 C   0  0  0  0  0  0  0  0  0  0  0  0
  146.2959  136.1789  151.5790 N   0  0  0  0  0  0  0  0  0  0  0  0
  145.4087  135.1833  151.0987 C   0  0  0  0  0  0  0  0  0  0  0  0
  145.6486  133.7978  150.8617 C   0  0  0  0  0  0  0  0  0  0  0  0
  144.5594  133.1930  150.4089 N   0  0  0  0  0  0  0  0  0  0  0  0
  143.6308  134.1743  150.3543 N   0  0  0  0  0  0  0  0  0  0  0  0
  144.1058  135.4008  150.7633 C   0  0  0  0  0  0  0  0  0  0  0  0
  142.6882  133.9923  150.0398 H   0  0  0  0  0  0  0  0  0  0  0  0
  147.9659  137.6572  152.2597 H   0  0  0  0  0  0  0  0  0  0  0  0
  146.6635  140.0367  152.6229 H   0  0  0  0  0  0  0  0  0  0  0  0
  146.3825  139.2125  154.1368 H   0  0  0  0  0  0  0  0  0  0  0  0
  149.0383  140.0789  152.9231 H   0  0  0  0  0  0  0  0  0  0  0  0
  148.6725  137.9302  155.0245 H   0  0  0  0  0  0  0  0  0  0  0  0
  149.7037  137.8756  153.5914 H   0  0  0  0  0  0  0  0  0  0  0  0
  150.7975  138.6402  155.9327 H   0  0  0  0  0  0  0  0  0  0  0  0
  151.1661  139.5698  154.4778 H   0  0  0  0  0  0  0  0  0  0  0  0
  151.5438  141.4720  155.4482 H   0  0  0  0  0  0  0  0  0  0  0  0
  150.1235  142.4914  155.4198 H   0  0  0  0  0  0  0  0  0  0  0  0
  148.4935  141.7446  154.4699 H   0  0  0  0  0  0  0  0  0  0  0  0
  147.6184  140.6450  155.5268 H   0  0  0  0  0  0  0  0  0  0  0  0
  147.2732  136.0331  151.3729 H   0  0  0  0  0  0  0  0  0  0  0  0
  146.5487  133.2162  150.9955 H   0  0  0  0  0  0  0  0  0  0  0  0
  143.4927  136.2899  150.7802 H   0  0  0  0  0  0  0  0  0  0  0  0
  149.3435  140.1928  156.6243 H   0  0  0  0  0  0  0  0  0  0  0  0
  1  2  2  0  0  0  0
  2  3  1  0  0  0  0
  2 15  1  0  0  0  0
  3  4  1  0  0  0  0
  3 22  1  0  0  0  0
  4  5  1  0  0  0  0
  4 23  1  0  0  0  0
  4 24  1  0  0  0  0
  5 14  1  0  0  0  0
  5  6  1  0  0  0  0
  5 25  1  0  0  0  0
  6  7  1  0  0  0  0
  6 26  1  0  0  0  0
  6 27  1  0  0  0  0
  7  8  1  0  0  0  0
  7 28  1  0  0  0  0
  7 29  1  0  0  0  0
  8  9  1  0  0  0  0
  8 14  1  0  0  0  0
  8 37  1  0  0  0  0
  9 10  1  0  0  0  0
  9 30  1  0  0  0  0
  9 31  1  0  0  0  0
 10 11  1  0  0  0  0
 10 12  1  0  0  0  0
 10 13  1  0  0  0  0
 14 32  1  0  0  0  0
 14 33  1  0  0  0  0
 15 16  1  0  0  0  0
 15 34  1  0  0  0  0
 16 20  2  0  0  0  0
 16 17  1  0  0  0  0
 17 18  2  0  0  0  0
 17 35  1  0  0  0  0
 18 19  1  0  0  0  0
 19 21  1  0  0  0  0
 19 20  1  0  0  0  0
 20 36  1  0  0  0  0
M  CHG  1   8   1
M  END
> <s_m_source_file>
AV-unprocessed.smi

> <i_m_source_file_index>
1683

> <i_lp_mmshare_version>
43012

> <i_f3d_flags>
0

> <s_epik_input>
W2NIXTFbbkhdbltjSF1jMVtOSF1DKD1PKVtOSF1bQ0gyXVtDQEBIXTJbQ0gyXVtDSDJdTihbQ0gyXTIpW0NIMl1DKEYpKEYpRg==

> <s_epik_cmdline>
J2VwaWtfcHl0aG9uJywgJy1waCcsICc3LjAnLCAnLXRuJywgJzgnLCAnLW1hJywgJzIwMCcsICctbWV0YWxfYmluZGluZycsICctaW1hZScsICc8aW5maWxlLm1hZT4nLCAnLW9tYWUnLCAnPG91dGZpbGUubWFlPic=

> <r_lp_tautomer_probability>
0.5

> <r_epik_Ionization_Penalty>
0.641865

> <r_epik_Ionization_Penalty_Charging>
0.64182

> <r_epik_Ionization_Penalty_Neutral>
4.50685e-05

> <r_epik_State_Penalty>
0.65957

> <r_epik_Charging_Adjusted_Penalty>
1.30139

> <i_epik_Tot_Q>
1

> <i_epik_Tot_abs_Q>
1

> <r_epik_Metal_State_Penalty>
0.659571

> <b_epik_Metal_Only>
0

> <s_lp_Force_Field>
OPLS_2005

> <r_lp_Energy>
31.6125

> <b_lp_Chiralities_Consistent>
1

> <s_lp_Variant>
AV-unprocessed.smi:1683-5

> <Gold.Version>
5.8.1

> <Gold.Id.Protein>
6NUR|6NUR_protein|mol2

> <Gold.PLP.Fitness>
43.0893

> <Gold.PLP.PLP>
-33.3353

> <Gold.PLP.part.hbond>
-3.0000

> <Gold.PLP.part.metal>
0.0000

> <Gold.PLP.part.buried>
-4.8725

> <Gold.PLP.part.nonpolar>
-28.2317

> <Gold.PLP.part.repulsive>
1.0716

> <Gold.PLP.ligand.clash>
0.0000

> <Gold.PLP.ligand.torsion>
1.2715

> <Gold.PLP.Chemscore.Hbond>
2.9600

> <Gold.PLP.Chemscore.CHOScore>
0.9998

> <Gold.PLP.Chemscore.Metal>
0.0000

> <Gold.Chemscore.Hbonds>
donor molecule, donor type, donor heavy atom, donor atom, acceptor molecule, acceptor atom, score
      L1  H     3    22       P1  7948  0.96
      L1  H    15    34       P1  7948  1.00
      L1  H    19    21       P1 10186  1.00
      L1  C    20    36       P1 10171  1.00

> <Gold.PLP.Chemscore.Internal.Correction>
0.4176

> <Gold.Rescore>
     Score         DG    S(hbond)    S(metal)    S(lipo)     H(rot)  DE(clash)    DE(int)     intcor
     14.30     -18.02       2.89        0.00      64.38       1.81       1.49       2.22       ----

> <Gold.Chemscore.Fitness>
14.3000

> <Gold.Chemscore.DG>
-18.0159

> <Gold.Chemscore.ZeroCoef>
-5.4800

> <Gold.Chemscore.Hbond>
2.8866

> <Gold.Chemscore.Metal>
0.0000

> <Gold.Chemscore.Lipo>
64.3795

> <Gold.Chemscore.Internal_Hbond>
0.0000

> <Gold.Chemscore.DEClash>
1.4943

> <Gold.Chemscore.DEInternal>
2.2216

> <Gold.Chemscore.Rot>
1.8116

> <Gold.Chemscore.Internal.Correction>
   9.000000E+99

> <Gold.Chemscore.Hbonds>
donor molecule, donor type, donor heavy atom, donor atom, acceptor molecule, acceptor atom, score
      L1  H     3    22       P1  7948  0.92
      L1  H    15    34       P1  7948  0.94
      L1  H    19    21       P1 10186  0.98

> <Gold.Chemscore.Hbond.Weighted>
-9.6412

> <Gold.Chemscore.Metal.Weighted>
-0.0000

> <Gold.Chemscore.Lipo.Weighted>
-7.5324

> <Gold.Chemscore.Internal_Hbond.Weighted>
0.0000

> <Gold.Chemscore.DEClash.Weighted>
1.4943

> <Gold.Chemscore.DEInternal.Weighted>
2.2216

> <Gold.Chemscore.Rot.Weighted>
4.6378

> <Gold.Chemscore.Internal.Correction.Weighted>
   9.000000E+99

> <Gold.Protein.RotatedTorsions>
[ 6907 6896 6895 6894 ] final  127.42 input  -60.11 | X-H torsion
[ 7974 7965 7964 7962 ] final  143.21 input  175.53 | X-H torsion
[ 8008 7997 7996 7995 ] final -122.30 input   59.86 | X-H torsion
[ 10167 10162 10161 10158 ] final -176.98 input  -65.29 | X-H torsion
[ 10718 10713 10712 10709 ] final  133.65 input   66.30 | X-H torsion
[ 10763 10752 10751 10750 ] final  -95.01 input  -60.55 | X-H torsion
[ 11005 11000 10999 10996 ] final  152.62 input  -57.11 | X-H torsion

> <Gold.Protein.ActiveResidues>
 VAL166  LYS551  ARG553  GLY616  TRP617  ASP618  TYR619  PRO620  LYS621  CYS622 
 ASP623  PHE694  ASN695  SER759  ASP760  ASP761  ALA762  ILE779  LEU786  VAL792 
 PHE793  MET794  SER795  GLU796  ALA797  LYS798  CYS799  TRP800  GLU811  SER814 

> <Gold.Protein.RotatedAtoms>
  152.3814  133.6551  159.6163 H   0  0  0  0  0  0  0  0  0  0  0  0  # atno 6907 bound_to 6896
  150.7744  133.9108  159.3377 H   0  0  0  0  0  0  0  0  0  0  0  0  # atno 6908 bound_to 6896
  151.6913  135.0947  160.0285 H   0  0  0  0  0  0  0  0  0  0  0  0  # atno 6909 bound_to 6896
  144.8940  139.5517  143.5785 H   0  0  0  0  0  0  0  0  0  0  0  0  # atno 7974 bound_to 7965
  155.1620  140.0406  157.2844 H   0  0  0  0  0  0  0  0  0  0  0  0  # atno 8008 bound_to 7997
  154.6330  140.2528  155.7384 H   0  0  0  0  0  0  0  0  0  0  0  0  # atno 8009 bound_to 7997
  156.2494  140.2871  156.0690 H   0  0  0  0  0  0  0  0  0  0  0  0  # atno 8010 bound_to 7997
  139.5503  144.2127  152.1064 H   0  0  0  0  0  0  0  0  0  0  0  0  # atno 10167 bound_to 10162
  157.4751  131.1082  150.9753 H   0  0  0  0  0  0  0  0  0  0  0  0  # atno 10718 bound_to 10713
  154.7109  135.5136  153.8665 H   0  0  0  0  0  0  0  0  0  0  0  0  # atno 10763 bound_to 10752
  153.0780  135.6622  154.0115 H   0  0  0  0  0  0  0  0  0  0  0  0  # atno 10764 bound_to 10752
  153.9957  135.3015  155.3387 H   0  0  0  0  0  0  0  0  0  0  0  0  # atno 10765 bound_to 10752
  140.1324  134.8793  157.2221 H   0  0  0  0  0  0  0  0  0  0  0  0  # atno 11005 bound_to 11000
  146.3070  139.7615  142.9048 LP  0  0  0  0  0  0  0  0  0  0  0  0  # atno 17320 bound_to 7965
  145.3732  141.0346  143.3219 LP  0  0  0  0  0  0  0  0  0  0  0  0  # atno 17321 bound_to 7965
  140.1621  144.5015  150.6626 LP  0  0  0  0  0  0  0  0  0  0  0  0  # atno 17342 bound_to 10162
  140.6763  143.2307  151.5498 LP  0  0  0  0  0  0  0  0  0  0  0  0  # atno 17343 bound_to 10162
  157.0505  130.5785  149.5369 LP  0  0  0  0  0  0  0  0  0  0  0  0  # atno 17370 bound_to 10713
  156.0093  130.5183  150.7935 LP  0  0  0  0  0  0  0  0  0  0  0  0  # atno 17371 bound_to 10713
  140.2826  134.3333  155.7338 LP  0  0  0  0  0  0  0  0  0  0  0  0  # atno 17394 bound_to 11000
  141.2172  133.7487  156.9386 LP  0  0  0  0  0  0  0  0  0  0  0  0  # atno 17395 bound_to 11000

$$$$
