AV-unprocessed.smi:1978|AV-procd|sdf|8003|dock4
  -GOLD-   2272010193D 1   1.00000     0.00000
 Structure written by MMmdl.
 44 45  0  0  0  0  0  0  0  0  3 V2000
  145.0239  134.1053  162.8262 C   0  0  0  0  0  0  0  0  0  0  0  0
  146.1547  134.6790  162.0426 C   0  0  0  0  0  0  0  0  0  0  0  0
  146.7651  135.9011  162.0542 C   0  0  0  0  0  0  0  0  0  0  0  0
  147.7654  135.7742  161.0518 C   0  0  0  0  0  0  0  0  0  0  0  0
  148.6500  136.7173  160.6924 N   0  5  0  0  0  0  0  0  0  0  0  0
  149.4554  136.5244  159.6231 C   0  0  0  0  0  0  0  0  0  0  0  0
  149.3787  135.6049  158.8050 O   0  0  0  0  0  0  0  0  0  0  0  0
  150.4106  137.4560  159.4984 N   0  0  0  0  0  0  0  0  0  0  0  0
  151.4470  137.4939  158.4711 C   0  0  0  0  0  0  0  0  0  0  0  0
  152.7337  138.1652  159.0026 C   0  0  1  0  0  0  0  0  0  0  0  0
  153.9438  137.9490  158.0671 C   0  0  0  0  0  0  0  0  0  0  0  0
  152.5079  139.6107  159.3335 N   0  3  2  0  0  0  0  0  0  0  0  0
  151.9164  140.4020  158.2133 C   0  0  0  0  0  0  0  0  0  0  0  0
  151.4568  141.7893  158.6839 C   0  0  0  0  0  0  0  0  0  0  0  0
  152.6236  142.5608  159.3030 C   0  0  0  0  0  0  0  0  0  0  0  0
  153.2460  141.7325  160.4312 C   0  0  0  0  0  0  0  0  0  0  0  0
  153.6752  140.3292  159.9484 C   0  0  1  0  0  0  0  0  0  0  0  0
  154.3224  139.5736  161.1272 C   0  0  0  0  0  0  0  0  0  0  0  0
  147.7712  134.5762  160.4921 N   0  0  0  0  0  0  0  0  0  0  0  0
  146.7374  133.8692  161.1181 O   0  0  0  0  0  0  0  0  0  0  0  0
  145.3013  133.9914  163.8742 H   0  0  0  0  0  0  0  0  0  0  0  0
  144.7367  133.1254  162.4441 H   0  0  0  0  0  0  0  0  0  0  0  0
  144.1508  134.7559  162.7755 H   0  0  0  0  0  0  0  0  0  0  0  0
  146.5317  136.7517  162.6767 H   0  0  0  0  0  0  0  0  0  0  0  0
  150.4260  138.1910  160.1905 H   0  0  0  0  0  0  0  0  0  0  0  0
  151.6546  136.4802  158.1311 H   0  0  0  0  0  0  0  0  0  0  0  0
  151.0589  138.0446  157.6135 H   0  0  0  0  0  0  0  0  0  0  0  0
  152.9427  137.6326  159.9274 H   0  0  0  0  0  0  0  0  0  0  0  0
  154.1686  136.8883  157.9530 H   0  0  0  0  0  0  0  0  0  0  0  0
  154.8464  138.4195  158.4558 H   0  0  0  0  0  0  0  0  0  0  0  0
  153.7598  138.3456  157.0685 H   0  0  0  0  0  0  0  0  0  0  0  0
  152.6472  140.5146  157.4115 H   0  0  0  0  0  0  0  0  0  0  0  0
  151.0557  139.8966  157.7811 H   0  0  0  0  0  0  0  0  0  0  0  0
  151.0446  142.3503  157.8445 H   0  0  0  0  0  0  0  0  0  0  0  0
  150.6519  141.6844  159.4127 H   0  0  0  0  0  0  0  0  0  0  0  0
  153.3744  142.7748  158.5411 H   0  0  0  0  0  0  0  0  0  0  0  0
  152.2808  143.5229  159.6851 H   0  0  0  0  0  0  0  0  0  0  0  0
  154.1046  142.2696  160.8366 H   0  0  0  0  0  0  0  0  0  0  0  0
  152.5298  141.6378  161.2488 H   0  0  0  0  0  0  0  0  0  0  0  0
  154.4379  140.4609  159.1798 H   0  0  0  0  0  0  0  0  0  0  0  0
  155.0529  140.2016  161.6378 H   0  0  0  0  0  0  0  0  0  0  0  0
  154.8653  138.6876  160.7987 H   0  0  0  0  0  0  0  0  0  0  0  0
  153.5783  139.2706  161.8647 H   0  0  0  0  0  0  0  0  0  0  0  0
  151.8022  139.5959  160.0561 H   0  0  0  0  0  0  0  0  0  0  0  0
  1  2  1  0  0  0  0
  1 21  1  0  0  0  0
  1 22  1  0  0  0  0
  1 23  1  0  0  0  0
  2 20  1  0  0  0  0
  2  3  2  0  0  0  0
  3  4  1  0  0  0  0
  3 24  1  0  0  0  0
  4  5  1  0  0  0  0
  4 19  2  0  0  0  0
  5  6  1  0  0  0  0
  6  7  2  0  0  0  0
  6  8  1  0  0  0  0
  8  9  1  0  0  0  0
  8 25  1  0  0  0  0
  9 10  1  0  0  0  0
  9 26  1  0  0  0  0
  9 27  1  0  0  0  0
 10 11  1  0  0  0  0
 10 12  1  0  0  0  0
 10 28  1  0  0  0  0
 11 29  1  0  0  0  0
 11 30  1  0  0  0  0
 11 31  1  0  0  0  0
 12 17  1  0  0  0  0
 12 13  1  0  0  0  0
 12 44  1  0  0  0  0
 13 14  1  0  0  0  0
 13 32  1  0  0  0  0
 13 33  1  0  0  0  0
 14 15  1  0  0  0  0
 14 34  1  0  0  0  0
 14 35  1  0  0  0  0
 15 16  1  0  0  0  0
 15 36  1  0  0  0  0
 15 37  1  0  0  0  0
 16 17  1  0  0  0  0
 16 38  1  0  0  0  0
 16 39  1  0  0  0  0
 17 18  1  0  0  0  0
 17 40  1  0  0  0  0
 18 41  1  0  0  0  0
 18 42  1  0  0  0  0
 18 43  1  0  0  0  0
 19 20  1  0  0  0  0
M  CHG  1   5  -1
M  CHG  1  12   1
M  END
> <s_m_source_file>
AV-unprocessed.smi

> <i_m_source_file_index>
1978

> <i_lp_mmshare_version>
43012

> <i_f3d_flags>
0

> <s_epik_input>
W0NIM11jMVtjSF1jKG5vMSlbTkhdQyg9TylbTkhdW0NIMl1bQ0BIXShbQ0gzXSlOMltDSDJdW0NIMl1bQ0gyXVtDSDJdW0NASF0yW0NIM10=

> <s_epik_cmdline>
J2VwaWtfcHl0aG9uJywgJy1waCcsICc3LjAnLCAnLXRuJywgJzgnLCAnLW1hJywgJzIwMCcsICctbWV0YWxfYmluZGluZycsICctaW1hZScsICc8aW5maWxlLm1hZT4nLCAnLW9tYWUnLCAnPG91dGZpbGUubWFlPic=

> <r_epik_Ionization_Penalty>
6.22372

> <r_epik_Ionization_Penalty_Charging>
6.22362

> <r_epik_Ionization_Penalty_Neutral>
9.65074e-05

> <r_epik_State_Penalty>
6.22363

> <r_epik_Charging_Adjusted_Penalty>
12.4472

> <i_epik_Tot_Q>
0

> <i_epik_Tot_abs_Q>
2

> <r_epik_Metal_State_Penalty>
2.16675

> <b_epik_Metal_Only>
1

> <s_lp_Force_Field>
OPLS_2005

> <r_lp_Energy>
13.2836

> <b_lp_Chiralities_Consistent>
1

> <s_lp_Variant>
AV-unprocessed.smi:1978-12

> <Gold.Version>
5.8.1

> <Gold.Id.Protein>
6NUR|6NUR_protein|mol2

> <Gold.PLP.Fitness>
42.5136

> <Gold.PLP.PLP>
-34.3753

> <Gold.PLP.part.hbond>
-2.0000

> <Gold.PLP.part.metal>
0.0000

> <Gold.PLP.part.buried>
-4.9011

> <Gold.PLP.part.nonpolar>
-28.1937

> <Gold.PLP.part.repulsive>
0.5476

> <Gold.PLP.ligand.clash>
0.0000

> <Gold.PLP.ligand.torsion>
0.3351

> <Gold.PLP.Chemscore.Hbond>
2.8880

> <Gold.PLP.Chemscore.CHOScore>
0.0000

> <Gold.PLP.Chemscore.Metal>
0.0000

> <Gold.Chemscore.Hbonds>
donor molecule, donor type, donor heavy atom, donor atom, acceptor molecule, acceptor atom, score
      P1  H  6896  6908       L1     7  1.00
      P1  H  6931  6943       L1     5  1.92

> <Gold.PLP.Chemscore.Internal.Correction>
0.1446

> <Gold.Rescore>
     Score         DG    S(hbond)    S(metal)    S(lipo)     H(rot)  DE(clash)    DE(int)     intcor
     15.31     -17.37       1.68        0.00      86.76       1.52       0.03       2.03       ----

> <Gold.Chemscore.Fitness>
15.3079

> <Gold.Chemscore.DG>
-17.3676

> <Gold.Chemscore.ZeroCoef>
-5.4800

> <Gold.Chemscore.Hbond>
1.6844

> <Gold.Chemscore.Metal>
0.0000

> <Gold.Chemscore.Lipo>
86.7557

> <Gold.Chemscore.Internal_Hbond>
0.0000

> <Gold.Chemscore.DEClash>
0.0270

> <Gold.Chemscore.DEInternal>
2.0327

> <Gold.Chemscore.Rot>
1.5190

> <Gold.Chemscore.Internal.Correction>
   9.000000E+99

> <Gold.Chemscore.Hbonds>
donor molecule, donor type, donor heavy atom, donor atom, acceptor molecule, acceptor atom, score
      P1  H  6896  6908       L1     7  0.34
      P1  H  6931  6943       L1     5  0.85

> <Gold.Chemscore.Hbond.Weighted>
-5.6259

> <Gold.Chemscore.Metal.Weighted>
-0.0000

> <Gold.Chemscore.Lipo.Weighted>
-10.1504

> <Gold.Chemscore.Internal_Hbond.Weighted>
0.0000

> <Gold.Chemscore.DEClash.Weighted>
0.0270

> <Gold.Chemscore.DEInternal.Weighted>
2.0327

> <Gold.Chemscore.Rot.Weighted>
3.8886

> <Gold.Chemscore.Internal.Correction.Weighted>
   9.000000E+99

> <Gold.Protein.RotatedTorsions>
[ 6907 6896 6895 6894 ] final  156.89 input  -60.11 | X-H torsion
[ 7974 7965 7964 7962 ] final  -83.05 input  175.53 | X-H torsion
[ 8008 7997 7996 7995 ] final   28.62 input   59.86 | X-H torsion
[ 10167 10162 10161 10158 ] final  103.86 input  -65.29 | X-H torsion
[ 10718 10713 10712 10709 ] final -111.22 input   66.30 | X-H torsion
[ 10763 10752 10751 10750 ] final   13.78 input  -60.55 | X-H torsion
[ 11005 11000 10999 10996 ] final -115.26 input  -57.11 | X-H torsion

> <Gold.Protein.ActiveResidues>
 VAL166  LYS551  ARG553  GLY616  TRP617  ASP618  TYR619  PRO620  LYS621  CYS622 
 ASP623  PHE694  ASN695  SER759  ASP760  ASP761  ALA762  ILE779  LEU786  VAL792 
 PHE793  MET794  SER795  GLU796  ALA797  LYS798  CYS799  TRP800  GLU811  SER814 

> <Gold.Protein.RotatedAtoms>
  152.0231  133.3906  159.4265 H   0  0  0  0  0  0  0  0  0  0  0  0  # atno 6907 bound_to 6896
  150.6888  134.3604  159.4957 H   0  0  0  0  0  0  0  0  0  0  0  0  # atno 6908 bound_to 6896
  152.1380  134.9084  160.0606 H   0  0  0  0  0  0  0  0  0  0  0  0  # atno 6909 bound_to 6896
  145.5252  140.9527  143.1633 H   0  0  0  0  0  0  0  0  0  0  0  0  # atno 7974 bound_to 7965
  155.0615  140.3190  155.4659 H   0  0  0  0  0  0  0  0  0  0  0  0  # atno 8008 bound_to 7997
  156.2812  140.2128  156.5686 H   0  0  0  0  0  0  0  0  0  0  0  0  # atno 8009 bound_to 7997
  154.7128  140.0496  157.0554 H   0  0  0  0  0  0  0  0  0  0  0  0  # atno 8010 bound_to 7997
  139.7227  144.7054  151.0847 H   0  0  0  0  0  0  0  0  0  0  0  0  # atno 10167 bound_to 10162
  156.0635  130.5856  150.8344 H   0  0  0  0  0  0  0  0  0  0  0  0  # atno 10718 bound_to 10713
  153.1687  135.6808  153.8638 H   0  0  0  0  0  0  0  0  0  0  0  0  # atno 10763 bound_to 10752
  153.8010  135.3156  155.3391 H   0  0  0  0  0  0  0  0  0  0  0  0  # atno 10764 bound_to 10752
  154.7983  135.4793  154.0305 H   0  0  0  0  0  0  0  0  0  0  0  0  # atno 10765 bound_to 10752
  141.0499  133.9703  157.2854 H   0  0  0  0  0  0  0  0  0  0  0  0  # atno 11005 bound_to 11000
  144.7655  139.6856  143.7217 LP  0  0  0  0  0  0  0  0  0  0  0  0  # atno 17320 bound_to 7965
  146.2080  139.5417  142.9700 LP  0  0  0  0  0  0  0  0  0  0  0  0  # atno 17321 bound_to 7965
  140.7757  143.5146  150.9611 LP  0  0  0  0  0  0  0  0  0  0  0  0  # atno 17342 bound_to 10162
  139.8833  143.7045  152.3154 LP  0  0  0  0  0  0  0  0  0  0  0  0  # atno 17343 bound_to 10162
  157.5660  131.0946  150.9489 LP  0  0  0  0  0  0  0  0  0  0  0  0  # atno 17370 bound_to 10713
  156.9716  130.5493  149.5291 LP  0  0  0  0  0  0  0  0  0  0  0  0  # atno 17371 bound_to 10713
  139.9342  135.0198  156.8501 LP  0  0  0  0  0  0  0  0  0  0  0  0  # atno 17394 bound_to 11000
  140.6075  134.0114  155.7563 LP  0  0  0  0  0  0  0  0  0  0  0  0  # atno 17395 bound_to 11000

$$$$
