AV-unprocessed.smi:3209|AV-procd|sdf|12269|dock6
  -GOLD-   2272018103D 1   1.00000     0.00000
 Structure written by MMmdl.
 37 39  0  0  0  0  0  0  0  0  2 V2000
  145.4507  143.0513  156.5908 C   0  0  0  0  0  0  0  0  0  0  0  0
  146.4943  142.5244  155.6661 C   0  0  0  0  0  0  0  0  0  0  0  0
  147.6836  142.0733  156.0737 N   0  0  0  0  0  0  0  0  0  0  0  0
  148.4861  141.6365  155.0154 C   0  0  0  0  0  0  0  0  0  0  0  0
  149.8574  141.0998  155.2934 C   0  0  0  0  0  0  0  0  0  0  0  0
  150.3210  141.4044  156.7242 C   0  0  0  0  0  0  0  0  0  0  0  0
  150.6151  142.8421  156.8919 N   0  3  0  0  0  0  0  0  0  0  0  0
  150.7028  143.2918  158.2985 C   0  0  1  0  0  0  0  0  0  0  0  0
  151.7594  142.5045  159.1083 C   0  0  0  0  0  0  0  0  0  0  0  0
  152.6940  143.6136  159.6247 C   0  0  2  0  0  0  0  0  0  0  0  0
  151.9579  144.4632  160.6773 C   0  0  0  0  0  0  0  0  0  0  0  0
  150.9568  145.2664  159.8251 C   0  0  0  0  0  0  0  0  0  0  0  0
  151.2244  144.7419  158.4015 C   0  0  1  0  0  0  0  0  0  0  0  0
  152.7391  144.5573  158.4295 C   0  0  0  0  0  0  0  0  0  0  0  0
  147.8793  141.7581  153.7899 C   0  0  0  0  0  0  0  0  0  0  0  0
  146.2775  142.4311  153.9227 S   0  0  0  0  0  0  0  0  0  0  0  0
  145.8587  143.1895  157.5925 H   0  0  0  0  0  0  0  0  0  0  0  0
  144.6156  142.3529  156.6457 H   0  0  0  0  0  0  0  0  0  0  0  0
  145.0823  144.0115  156.2297 H   0  0  0  0  0  0  0  0  0  0  0  0
  149.8738  140.0219  155.1272 H   0  0  0  0  0  0  0  0  0  0  0  0
  150.5694  141.5226  154.5831 H   0  0  0  0  0  0  0  0  0  0  0  0
  149.5481  141.1140  157.4372 H   0  0  0  0  0  0  0  0  0  0  0  0
  151.2107  140.8183  156.9572 H   0  0  0  0  0  0  0  0  0  0  0  0
  151.4851  143.0605  156.4279 H   0  0  0  0  0  0  0  0  0  0  0  0
  149.7138  143.2146  158.7532 H   0  0  0  0  0  0  0  0  0  0  0  0
  151.3139  141.9280  159.9199 H   0  0  0  0  0  0  0  0  0  0  0  0
  152.3174  141.8103  158.4778 H   0  0  0  0  0  0  0  0  0  0  0  0
  153.6645  143.2467  159.9597 H   0  0  0  0  0  0  0  0  0  0  0  0
  151.4645  143.8489  161.4317 H   0  0  0  0  0  0  0  0  0  0  0  0
  152.6486  145.1336  161.1904 H   0  0  0  0  0  0  0  0  0  0  0  0
  149.9238  145.1149  160.1405 H   0  0  0  0  0  0  0  0  0  0  0  0
  151.1707  146.3341  159.8897 H   0  0  0  0  0  0  0  0  0  0  0  0
  150.8516  145.4068  157.6214 H   0  0  0  0  0  0  0  0  0  0  0  0
  153.2847  145.4815  158.6290 H   0  0  0  0  0  0  0  0  0  0  0  0
  153.1391  144.0943  157.5257 H   0  0  0  0  0  0  0  0  0  0  0  0
  148.2741  141.4951  152.8196 H   0  0  0  0  0  0  0  0  0  0  0  0
  149.8729  143.3609  156.4445 H   0  0  0  0  0  0  0  0  0  0  0  0
  1  2  1  0  0  0  0
  1 17  1  0  0  0  0
  1 18  1  0  0  0  0
  1 19  1  0  0  0  0
  2 16  1  0  0  0  0
  2  3  2  0  0  0  0
  3  4  1  0  0  0  0
  4  5  1  0  0  0  0
  4 15  2  0  0  0  0
  5  6  1  0  0  0  0
  5 20  1  0  0  0  0
  5 21  1  0  0  0  0
  6  7  1  0  0  0  0
  6 22  1  0  0  0  0
  6 23  1  0  0  0  0
  7  8  1  0  0  0  0
  7 24  1  0  0  0  0
  7 37  1  0  0  0  0
  8 13  1  0  0  0  0
  8  9  1  0  0  0  0
  8 25  1  0  0  0  0
  9 10  1  0  0  0  0
  9 26  1  0  0  0  0
  9 27  1  0  0  0  0
 10 14  1  0  0  0  0
 10 11  1  0  0  0  0
 10 28  1  0  0  0  0
 11 12  1  0  0  0  0
 11 29  1  0  0  0  0
 11 30  1  0  0  0  0
 12 13  1  0  0  0  0
 12 31  1  0  0  0  0
 12 32  1  0  0  0  0
 13 14  1  0  0  0  0
 13 33  1  0  0  0  0
 14 34  1  0  0  0  0
 14 35  1  0  0  0  0
 15 16  1  0  0  0  0
 15 36  1  0  0  0  0
M  CHG  1   7   1
M  END
> <s_m_source_file>
AV-unprocessed.smi

> <i_m_source_file_index>
3209

> <i_lp_mmshare_version>
43012

> <i_f3d_flags>
0

> <s_epik_input>
W0NIM11jMW5jKFtjSF1zMSlbQ0gyXVtDSDJdW05IXVtDQEhdKFtDSDJdW0NASF0yMylbQ0BIXShbQ0gyXTMpW0NIMl1bQ0gyXTI=

> <s_epik_cmdline>
J2VwaWtfcHl0aG9uJywgJy1waCcsICc3LjAnLCAnLXRuJywgJzgnLCAnLW1hJywgJzIwMCcsICctbWV0YWxfYmluZGluZycsICctaW1hZScsICc8aW5maWxlLm1hZT4nLCAnLW9tYWUnLCAnPG91dGZpbGUubWFlPic=

> <r_lp_tautomer_probability>
1

> <r_epik_Ionization_Penalty>
0.000342479

> <r_epik_Ionization_Penalty_Charging>
0.000317129

> <r_epik_Ionization_Penalty_Neutral>
2.535e-05

> <r_epik_State_Penalty>
-0

> <r_epik_Charging_Adjusted_Penalty>
0.000317129

> <i_epik_Tot_Q>
1

> <i_epik_Tot_abs_Q>
1

> <r_epik_Metal_State_Penalty>
-0

> <b_epik_Metal_Only>
0

> <s_lp_Force_Field>
OPLS_2005

> <r_lp_Energy>
48.296

> <b_lp_Chiralities_Consistent>
1

> <s_lp_Variant>
AV-unprocessed.smi:3209-2

> <Gold.Version>
5.8.1

> <Gold.Id.Protein>
6NUR|6NUR_protein|mol2

> <Gold.PLP.Fitness>
50.5383

> <Gold.PLP.PLP>
-42.0467

> <Gold.PLP.part.hbond>
-1.0000

> <Gold.PLP.part.metal>
0.0000

> <Gold.PLP.part.buried>
-4.5237

> <Gold.PLP.part.nonpolar>
-36.9005

> <Gold.PLP.part.repulsive>
1.1335

> <Gold.PLP.ligand.clash>
0.0000

> <Gold.PLP.ligand.torsion>
0.2631

> <Gold.PLP.Chemscore.Hbond>
2.0000

> <Gold.PLP.Chemscore.CHOScore>
1.0000

> <Gold.PLP.Chemscore.Metal>
0.0000

> <Gold.Chemscore.Hbonds>
donor molecule, donor type, donor heavy atom, donor atom, acceptor molecule, acceptor atom, score
      L1  H     7    37       P1  8028  2.00
      L1  C    15    36       P1  7957  0.92

> <Gold.PLP.Chemscore.Internal.Correction>
0.0179

> <Gold.Rescore>
     Score         DG    S(hbond)    S(metal)    S(lipo)     H(rot)  DE(clash)    DE(int)     intcor
     19.59     -20.04       0.98        0.00     125.30       1.31       0.20       0.25       ----

> <Gold.Chemscore.Fitness>
19.5880

> <Gold.Chemscore.DG>
-20.0425

> <Gold.Chemscore.ZeroCoef>
-5.4800

> <Gold.Chemscore.Hbond>
0.9755

> <Gold.Chemscore.Metal>
0.0000

> <Gold.Chemscore.Lipo>
125.3006

> <Gold.Chemscore.Internal_Hbond>
0.0000

> <Gold.Chemscore.DEClash>
0.2016

> <Gold.Chemscore.DEInternal>
0.2529

> <Gold.Chemscore.Rot>
1.3108

> <Gold.Chemscore.Internal.Correction>
   9.000000E+99

> <Gold.Chemscore.Hbonds>
donor molecule, donor type, donor heavy atom, donor atom, acceptor molecule, acceptor atom, score
      L1  H     7    37       P1  8028  1.00

> <Gold.Chemscore.Hbond.Weighted>
-3.2581

> <Gold.Chemscore.Metal.Weighted>
-0.0000

> <Gold.Chemscore.Lipo.Weighted>
-14.6602

> <Gold.Chemscore.Internal_Hbond.Weighted>
0.0000

> <Gold.Chemscore.DEClash.Weighted>
0.2016

> <Gold.Chemscore.DEInternal.Weighted>
0.2529

> <Gold.Chemscore.Rot.Weighted>
3.3558

> <Gold.Chemscore.Internal.Correction.Weighted>
   9.000000E+99

> <Gold.Protein.RotatedTorsions>
[ 6907 6896 6895 6894 ] final -178.36 input  -60.11 | X-H torsion
[ 7974 7965 7964 7962 ] final   65.89 input  175.53 | X-H torsion
[ 8008 7997 7996 7995 ] final  -90.34 input   59.86 | X-H torsion
[ 10167 10162 10161 10158 ] final   95.64 input  -65.29 | X-H torsion
[ 10718 10713 10712 10709 ] final   68.92 input   66.30 | X-H torsion
[ 10763 10752 10751 10750 ] final    8.67 input  -60.55 | X-H torsion
[ 11005 11000 10999 10996 ] final  149.58 input  -57.11 | X-H torsion

> <Gold.Protein.ActiveResidues>
 VAL166  LYS551  ARG553  GLY616  TRP617  ASP618  TYR619  PRO620  LYS621  CYS622 
 ASP623  PHE694  ASN695  SER759  ASP760  ASP761  ALA762  ILE779  LEU786  VAL792 
 PHE793  MET794  SER795  GLU796  ALA797  LYS798  CYS799  TRP800  GLU811  SER814 

> <Gold.Protein.RotatedAtoms>
  151.6360  133.3329  159.3119 H   0  0  0  0  0  0  0  0  0  0  0  0  # atno 6907 bound_to 6896
  150.8032  134.7144  159.6631 H   0  0  0  0  0  0  0  0  0  0  0  0  # atno 6908 bound_to 6896
  152.4126  134.6102  160.0075 H   0  0  0  0  0  0  0  0  0  0  0  0  # atno 6909 bound_to 6896
  145.8331  139.3151  143.0975 H   0  0  0  0  0  0  0  0  0  0  0  0  # atno 7974 bound_to 7965
  154.6974  140.0531  157.0424 H   0  0  0  0  0  0  0  0  0  0  0  0  # atno 8008 bound_to 7997
  155.0732  140.3202  155.4605 H   0  0  0  0  0  0  0  0  0  0  0  0  # atno 8009 bound_to 7997
  156.2749  140.2078  156.5860 H   0  0  0  0  0  0  0  0  0  0  0  0  # atno 8010 bound_to 7997
  139.7970  144.6829  150.9816 H   0  0  0  0  0  0  0  0  0  0  0  0  # atno 10167 bound_to 10162
  157.6316  130.9398  150.0443 H   0  0  0  0  0  0  0  0  0  0  0  0  # atno 10718 bound_to 10713
  153.2225  135.6883  153.7983 H   0  0  0  0  0  0  0  0  0  0  0  0  # atno 10763 bound_to 10752
  153.7177  135.3272  155.3261 H   0  0  0  0  0  0  0  0  0  0  0  0  # atno 10764 bound_to 10752
  154.8276  135.4605  154.1078 H   0  0  0  0  0  0  0  0  0  0  0  0  # atno 10765 bound_to 10752
  140.1057  134.8955  157.1863 H   0  0  0  0  0  0  0  0  0  0  0  0  # atno 11005 bound_to 11000
  145.9549  140.8881  143.0240 LP  0  0  0  0  0  0  0  0  0  0  0  0  # atno 17320 bound_to 7965
  144.6738  140.1731  143.7412 LP  0  0  0  0  0  0  0  0  0  0  0  0  # atno 17321 bound_to 7965
  140.7820  143.4321  151.0678 LP  0  0  0  0  0  0  0  0  0  0  0  0  # atno 17342 bound_to 10162
  139.7995  143.8104  152.3161 LP  0  0  0  0  0  0  0  0  0  0  0  0  # atno 17343 bound_to 10162
  156.1525  130.3642  149.9418 LP  0  0  0  0  0  0  0  0  0  0  0  0  # atno 17370 bound_to 10713
  156.7434  130.9088  151.3633 LP  0  0  0  0  0  0  0  0  0  0  0  0  # atno 17371 bound_to 10713
  140.3158  134.2971  155.7256 LP  0  0  0  0  0  0  0  0  0  0  0  0  # atno 17394 bound_to 11000
  141.2117  133.7679  156.9842 LP  0  0  0  0  0  0  0  0  0  0  0  0  # atno 17395 bound_to 11000

$$$$
