AV-unprocessed.smi:362|AV-procd|sdf|2422|dock2
  -GOLD-   2262022363D 1   1.00000     0.00000
 Structure written by MMmdl.
 35 37  0  0  0  0  0  0  0  0  2 V2000
  152.7951  140.2660  157.7460 O   0  0  0  0  0  0  0  0  0  0  0  0
  151.7780  140.9604  157.7642 C   0  0  0  0  0  0  0  0  0  0  0  0
  150.5789  140.6036  156.8761 C   0  0  0  0  0  0  0  0  0  0  0  0
  150.7668  139.3322  156.1594 N   0  0  0  0  0  0  0  0  0  0  0  0
  151.1077  138.1973  156.9162 C   0  0  0  0  0  0  0  0  0  0  0  0
  151.3047  136.9947  156.3433 C   0  0  0  0  0  0  0  0  0  0  0  0
  151.1545  136.8858  154.8975 C   0  0  0  0  0  0  0  0  0  0  0  0
  151.3237  135.7938  154.3583 O   0  0  0  0  0  0  0  0  0  0  0  0
  150.8284  138.0170  154.2061 N   0  5  0  0  0  0  0  0  0  0  0  0
  150.6346  139.2344  154.8018 C   0  0  0  0  0  0  0  0  0  0  0  0
  150.3437  140.2440  154.1586 O   0  0  0  0  0  0  0  0  0  0  0  0
  151.6282  142.0378  158.5517 N   0  0  0  0  0  0  0  0  0  0  0  0
  152.6245  142.6033  159.4586 C   0  0  0  0  0  0  0  0  0  0  0  0
  152.6159  141.9715  160.8428 C   0  0  0  0  0  0  0  0  0  0  0  0
  152.8946  142.7892  162.0811 C   0  0  0  0  0  0  0  0  0  0  0  0
  153.8981  141.7599  161.6102 C   0  0  0  0  0  0  0  0  0  0  0  0
  152.5835  144.1215  159.5533 C   0  0  0  0  0  0  0  0  0  0  0  0
  151.2783  144.8757  159.4713 C   0  0  0  0  0  0  0  0  0  0  0  0
  152.2811  144.9732  158.3432 C   0  0  0  0  0  0  0  0  0  0  0  0
  149.6904  140.5603  157.5071 H   0  0  0  0  0  0  0  0  0  0  0  0
  150.3861  141.4090  156.1643 H   0  0  0  0  0  0  0  0  0  0  0  0
  151.2058  138.3650  157.9787 H   0  0  0  0  0  0  0  0  0  0  0  0
  151.5703  136.1331  156.9382 H   0  0  0  0  0  0  0  0  0  0  0  0
  150.7505  142.5331  158.4907 H   0  0  0  0  0  0  0  0  0  0  0  0
  153.5811  142.3438  159.0031 H   0  0  0  0  0  0  0  0  0  0  0  0
  151.8668  141.1908  160.9613 H   0  0  0  0  0  0  0  0  0  0  0  0
  153.1576  143.8372  161.9531 H   0  0  0  0  0  0  0  0  0  0  0  0
  152.3173  142.5586  162.9740 H   0  0  0  0  0  0  0  0  0  0  0  0
  153.9894  140.8411  162.1857 H   0  0  0  0  0  0  0  0  0  0  0  0
  154.8212  142.1238  161.1634 H   0  0  0  0  0  0  0  0  0  0  0  0
  153.3238  144.5364  160.2347 H   0  0  0  0  0  0  0  0  0  0  0  0
  150.3715  144.3026  159.2885 H   0  0  0  0  0  0  0  0  0  0  0  0
  151.1598  145.7431  160.1174 H   0  0  0  0  0  0  0  0  0  0  0  0
  152.8314  145.9058  158.2368 H   0  0  0  0  0  0  0  0  0  0  0  0
  152.0350  144.4682  157.4116 H   0  0  0  0  0  0  0  0  0  0  0  0
  1  2  2  0  0  0  0
  2  3  1  0  0  0  0
  2 12  1  0  0  0  0
  3  4  1  0  0  0  0
  3 20  1  0  0  0  0
  3 21  1  0  0  0  0
  4 10  1  0  0  0  0
  4  5  1  0  0  0  0
  5  6  2  0  0  0  0
  5 22  1  0  0  0  0
  6  7  1  0  0  0  0
  6 23  1  0  0  0  0
  7  8  2  0  0  0  0
  7  9  1  0  0  0  0
  9 10  1  0  0  0  0
 10 11  2  0  0  0  0
 12 13  1  0  0  0  0
 12 24  1  0  0  0  0
 13 14  1  0  0  0  0
 13 17  1  0  0  0  0
 13 25  1  0  0  0  0
 14 16  1  0  0  0  0
 14 15  1  0  0  0  0
 14 26  1  0  0  0  0
 15 16  1  0  0  0  0
 15 27  1  0  0  0  0
 15 28  1  0  0  0  0
 16 29  1  0  0  0  0
 16 30  1  0  0  0  0
 17 19  1  0  0  0  0
 17 18  1  0  0  0  0
 17 31  1  0  0  0  0
 18 19  1  0  0  0  0
 18 32  1  0  0  0  0
 18 33  1  0  0  0  0
 19 34  1  0  0  0  0
 19 35  1  0  0  0  0
M  CHG  1   9  -1
M  END
> <s_m_source_file>
AV-unprocessed.smi

> <i_m_source_file_index>
362

> <i_lp_mmshare_version>
43012

> <i_f3d_flags>
0

> <s_epik_input>
W0NIMl0xW0NIMl1bQ0hdMVtDSF0oW0NIXTJbQ0gyXVtDSDJdMilbTkhdQyg9TylbQ0gyXW4zW2NIXVtjSF1jKD1PKVtuSF1jMz1P

> <s_epik_cmdline>
J2VwaWtfcHl0aG9uJywgJy1waCcsICc3LjAnLCAnLXRuJywgJzgnLCAnLW1hJywgJzIwMCcsICctbWV0YWxfYmluZGluZycsICctaW1hZScsICc8aW5maWxlLm1hZT4nLCAnLW9tYWUnLCAnPG91dGZpbGUubWFlPic=

> <r_lp_tautomer_probability>
0.999537

> <r_epik_Ionization_Penalty>
3.10326

> <r_epik_Ionization_Penalty_Charging>
2.95532e-08

> <r_epik_Ionization_Penalty_Neutral>
3.10326

> <r_epik_State_Penalty>
3.10233

> <r_epik_Charging_Adjusted_Penalty>
3.10233

> <i_epik_Tot_Q>
-1

> <i_epik_Tot_abs_Q>
1

> <r_epik_Metal_State_Penalty>
0.461987

> <b_epik_Metal_Only>
1

> <s_lp_Force_Field>
OPLS_2005

> <r_lp_Energy>
32.875

> <b_lp_Chiralities_Consistent>
1

> <s_lp_Variant>
AV-unprocessed.smi:362-2

> <Gold.Version>
5.8.1

> <Gold.Id.Protein>
6NUR|6NUR_protein|mol2

> <Gold.PLP.Fitness>
48.4671

> <Gold.PLP.PLP>
-41.2378

> <Gold.PLP.part.hbond>
-2.8396

> <Gold.PLP.part.metal>
0.0000

> <Gold.PLP.part.buried>
-5.9775

> <Gold.PLP.part.nonpolar>
-33.2654

> <Gold.PLP.part.repulsive>
0.9485

> <Gold.PLP.ligand.clash>
0.0000

> <Gold.PLP.ligand.torsion>
1.9368

> <Gold.PLP.Chemscore.Hbond>
2.9672

> <Gold.PLP.Chemscore.CHOScore>
0.0000

> <Gold.PLP.Chemscore.Metal>
0.0000

> <Gold.Chemscore.Hbonds>
donor molecule, donor type, donor heavy atom, donor atom, acceptor molecule, acceptor atom, score
      P1  H  7989  7998       L1    11  1.00
      P1  H  7997  8009       L1     1  0.96
      P1  H 10752 10763       L1     8  1.00

> <Gold.PLP.Chemscore.Internal.Correction>
2.2013

> <Gold.Rescore>
     Score         DG    S(hbond)    S(metal)    S(lipo)     H(rot)  DE(clash)    DE(int)     intcor
     14.66     -17.87       1.99        0.00      94.99       2.09       0.07       3.14       ----

> <Gold.Chemscore.Fitness>
14.6624

> <Gold.Chemscore.DG>
-17.8712

> <Gold.Chemscore.ZeroCoef>
-5.4800

> <Gold.Chemscore.Hbond>
1.9867

> <Gold.Chemscore.Metal>
0.0000

> <Gold.Chemscore.Lipo>
94.9874

> <Gold.Chemscore.Internal_Hbond>
0.0000

> <Gold.Chemscore.DEClash>
0.0717

> <Gold.Chemscore.DEInternal>
3.1372

> <Gold.Chemscore.Rot>
2.0929

> <Gold.Chemscore.Internal.Correction>
   9.000000E+99

> <Gold.Chemscore.Hbonds>
donor molecule, donor type, donor heavy atom, donor atom, acceptor molecule, acceptor atom, score
      P1  H  7989  7998       L1    11  0.75
      P1  H  7997  8009       L1     1  0.92
      P1  H 10752 10763       L1     8  0.34

> <Gold.Chemscore.Hbond.Weighted>
-6.6356

> <Gold.Chemscore.Metal.Weighted>
-0.0000

> <Gold.Chemscore.Lipo.Weighted>
-11.1135

> <Gold.Chemscore.Internal_Hbond.Weighted>
0.0000

> <Gold.Chemscore.DEClash.Weighted>
0.0717

> <Gold.Chemscore.DEInternal.Weighted>
3.1372

> <Gold.Chemscore.Rot.Weighted>
5.3579

> <Gold.Chemscore.Internal.Correction.Weighted>
   9.000000E+99

> <Gold.Protein.RotatedTorsions>
[ 6907 6896 6895 6894 ] final  -11.07 input  -60.11 | X-H torsion
[ 7974 7965 7964 7962 ] final  -60.86 input  175.53 | X-H torsion
[ 8008 7997 7996 7995 ] final  169.65 input   59.86 | X-H torsion
[ 10167 10162 10161 10158 ] final -101.35 input  -65.29 | X-H torsion
[ 10718 10713 10712 10709 ] final  100.67 input   66.30 | X-H torsion
[ 10763 10752 10751 10750 ] final   56.76 input  -60.55 | X-H torsion
[ 11005 11000 10999 10996 ] final  -15.98 input  -57.11 | X-H torsion

> <Gold.Protein.ActiveResidues>
 VAL166  LYS551  ARG553  GLY616  TRP617  ASP618  TYR619  PRO620  LYS621  CYS622 
 ASP623  PHE694  ASN695  SER759  ASP760  ASP761  ALA762  ILE779  LEU786  VAL792 
 PHE793  MET794  SER795  GLU796  ALA797  LYS798  CYS799  TRP800  GLU811  SER814 

> <Gold.Protein.RotatedAtoms>
  151.3920  135.0957  159.9528 H   0  0  0  0  0  0  0  0  0  0  0  0  # atno 6907 bound_to 6896
  152.5077  133.8971  159.7433 H   0  0  0  0  0  0  0  0  0  0  0  0  # atno 6908 bound_to 6896
  150.9426  133.6583  159.2816 H   0  0  0  0  0  0  0  0  0  0  0  0  # atno 6909 bound_to 6896
  145.8105  140.8601  143.0184 H   0  0  0  0  0  0  0  0  0  0  0  0  # atno 7974 bound_to 7965
  156.1438  140.1558  156.8879 H   0  0  0  0  0  0  0  0  0  0  0  0  # atno 8008 bound_to 7997
  154.5010  140.0825  156.7836 H   0  0  0  0  0  0  0  0  0  0  0  0  # atno 8009 bound_to 7997
  155.4028  140.3415  155.4260 H   0  0  0  0  0  0  0  0  0  0  0  0  # atno 8010 bound_to 7997
  140.2423  143.3530  152.0791 H   0  0  0  0  0  0  0  0  0  0  0  0  # atno 10167 bound_to 10162
  157.6848  131.0705  150.5136 H   0  0  0  0  0  0  0  0  0  0  0  0  # atno 10718 bound_to 10713
  152.9837  135.5665  154.5282 H   0  0  0  0  0  0  0  0  0  0  0  0  # atno 10763 bound_to 10752
  154.4758  135.2786  155.1610 H   0  0  0  0  0  0  0  0  0  0  0  0  # atno 10764 bound_to 10752
  154.3139  135.6282  153.5531 H   0  0  0  0  0  0  0  0  0  0  0  0  # atno 10765 bound_to 10752
  140.8021  133.8206  155.9480 H   0  0  0  0  0  0  0  0  0  0  0  0  # atno 11005 bound_to 11000
  144.6758  140.0388  143.7481 LP  0  0  0  0  0  0  0  0  0  0  0  0  # atno 17320 bound_to 7965
  145.9782  139.2921  143.1057 LP  0  0  0  0  0  0  0  0  0  0  0  0  # atno 17321 bound_to 7965
  139.5073  144.6830  151.5960 LP  0  0  0  0  0  0  0  0  0  0  0  0  # atno 17342 bound_to 10162
  140.6104  143.9446  150.6449 LP  0  0  0  0  0  0  0  0  0  0  0  0  # atno 17343 bound_to 10162
  156.5452  130.4218  149.6134 LP  0  0  0  0  0  0  0  0  0  0  0  0  # atno 17370 bound_to 10713
  156.2950  130.7145  151.2003 LP  0  0  0  0  0  0  0  0  0  0  0  0  # atno 17371 bound_to 10713
  140.9284  134.2053  157.4880 LP  0  0  0  0  0  0  0  0  0  0  0  0  # atno 17394 bound_to 11000
  139.8721  134.9822  156.5148 LP  0  0  0  0  0  0  0  0  0  0  0  0  # atno 17395 bound_to 11000

$$$$
