AV-unprocessed.smi:1047|AV-procd|sdf|4584|dock5
  -GOLD-   22720 3 53D 1   1.00000     0.00000
 Structure written by MMmdl.
 58 60  0  0  0  0  0  0  0  0  4 V2000
  149.5008  129.1101  154.0343 C   0  0  0  0  0  0  0  0  0  0  0  0
  149.5550  130.2909  155.0141 C   0  0  0  0  0  0  0  0  0  0  0  0
  149.3666  131.6000  154.3396 N   0  3  1  0  0  0  0  0  0  0  0  0
  148.1547  131.6236  153.4866 C   0  0  0  0  0  0  0  0  0  0  0  0
  148.0304  132.9737  152.7611 C   0  0  0  0  0  0  0  0  0  0  0  0
  148.0037  134.0296  153.7141 O   0  0  0  0  0  0  0  0  0  0  0  0
  149.1911  134.0786  154.4979 C   0  0  1  0  0  0  0  0  0  0  0  0
  149.1342  135.3182  155.4075 C   0  0  0  0  0  0  0  0  0  0  0  0
  149.3919  136.5678  154.6618 N   0  3  0  0  0  0  0  0  0  0  0  0
  150.6928  137.1970  154.9660 C   0  0  0  0  0  0  0  0  0  0  0  0
  150.5651  138.2237  156.1040 C   0  0  1  0  0  0  0  0  0  0  0  0
  150.5471  137.5302  157.3369 O   0  0  0  0  0  0  0  0  0  0  0  0
  151.7272  139.2367  156.0939 C   0  0  0  0  0  0  0  0  0  0  0  0
  151.3032  140.6031  156.4344 N   0  0  0  0  0  0  0  0  0  0  0  0
  150.5417  141.4784  155.7225 C   0  0  0  0  0  0  0  0  0  0  0  0
  150.4368  142.6222  156.4538 N   0  3  0  0  0  0  0  0  0  0  0  0
  151.1428  142.4774  157.6497 C   0  0  0  0  0  0  0  0  0  0  0  0
  151.3279  143.3581  158.7086 C   0  0  0  0  0  0  0  0  0  0  0  0
  152.1062  142.9037  159.7970 C   0  0  0  0  0  0  0  0  0  0  0  0
  152.3255  143.8403  160.9728 C   0  0  0  0  0  0  0  0  0  0  0  0
  152.6713  141.6022  159.7971 C   0  0  0  0  0  0  0  0  0  0  0  0
  153.5021  141.1226  160.9751 C   0  0  0  0  0  0  0  0  0  0  0  0
  152.4748  140.7228  158.7083 C   0  0  0  0  0  0  0  0  0  0  0  0
  151.7033  141.1849  157.6441 C   0  0  0  0  0  0  0  0  0  0  0  0
  149.3642  132.7545  155.2727 C   0  0  0  0  0  0  0  0  0  0  0  0
  149.5512  128.1637  154.5735 H   0  0  0  0  0  0  0  0  0  0  0  0
  150.3320  129.1231  153.3299 H   0  0  0  0  0  0  0  0  0  0  0  0
  148.5722  129.1138  153.4627 H   0  0  0  0  0  0  0  0  0  0  0  0
  148.7600  130.1513  155.7481 H   0  0  0  0  0  0  0  0  0  0  0  0
  150.4934  130.2856  155.5707 H   0  0  0  0  0  0  0  0  0  0  0  0
  148.2026  130.8184  152.7522 H   0  0  0  0  0  0  0  0  0  0  0  0
  147.2702  131.4455  154.1002 H   0  0  0  0  0  0  0  0  0  0  0  0
  148.8553  133.1181  152.0616 H   0  0  0  0  0  0  0  0  0  0  0  0
  147.1104  133.0030  152.1774 H   0  0  0  0  0  0  0  0  0  0  0  0
  150.0421  134.2036  153.8256 H   0  0  0  0  0  0  0  0  0  0  0  0
  148.1567  135.3793  155.8877 H   0  0  0  0  0  0  0  0  0  0  0  0
  149.8736  135.2233  156.2037 H   0  0  0  0  0  0  0  0  0  0  0  0
  149.3547  136.3669  153.6725 H   0  0  0  0  0  0  0  0  0  0  0  0
  151.4223  136.4288  155.2270 H   0  0  0  0  0  0  0  0  0  0  0  0
  151.0573  137.6901  154.0637 H   0  0  0  0  0  0  0  0  0  0  0  0
  149.6226  138.7638  156.0024 H   0  0  0  0  0  0  0  0  0  0  0  0
  150.6075  138.1617  158.0381 H   0  0  0  0  0  0  0  0  0  0  0  0
  152.5286  138.9306  156.7669 H   0  0  0  0  0  0  0  0  0  0  0  0
  152.1691  139.2816  155.0975 H   0  0  0  0  0  0  0  0  0  0  0  0
  150.1026  141.3010  154.7511 H   0  0  0  0  0  0  0  0  0  0  0  0
  150.8943  144.3477  158.7018 H   0  0  0  0  0  0  0  0  0  0  0  0
  153.3896  144.0259  161.1219 H   0  0  0  0  0  0  0  0  0  0  0  0
  151.9173  143.4092  161.8874 H   0  0  0  0  0  0  0  0  0  0  0  0
  151.8390  144.8031  160.8122 H   0  0  0  0  0  0  0  0  0  0  0  0
  153.8568  140.1023  160.8256 H   0  0  0  0  0  0  0  0  0  0  0  0
  152.9111  141.1381  161.8913 H   0  0  0  0  0  0  0  0  0  0  0  0
  154.3746  141.7611  161.1144 H   0  0  0  0  0  0  0  0  0  0  0  0
  152.9041  139.7319  158.7128 H   0  0  0  0  0  0  0  0  0  0  0  0
  148.5588  132.6264  155.9974 H   0  0  0  0  0  0  0  0  0  0  0  0
  150.2972  132.7872  155.8345 H   0  0  0  0  0  0  0  0  0  0  0  0
  148.6656  137.2342  154.8826 H   0  0  0  0  0  0  0  0  0  0  0  0
  150.1536  131.7194  153.7172 H   0  0  0  0  0  0  0  0  0  0  0  0
  149.9233  143.4417  156.1549 H   0  0  0  0  0  0  0  0  0  0  0  0
  1  2  1  0  0  0  0
  1 26  1  0  0  0  0
  1 27  1  0  0  0  0
  1 28  1  0  0  0  0
  2  3  1  0  0  0  0
  2 29  1  0  0  0  0
  2 30  1  0  0  0  0
  3 25  1  0  0  0  0
  3  4  1  0  0  0  0
  3 57  1  0  0  0  0
  4  5  1  0  0  0  0
  4 31  1  0  0  0  0
  4 32  1  0  0  0  0
  5  6  1  0  0  0  0
  5 33  1  0  0  0  0
  5 34  1  0  0  0  0
  6  7  1  0  0  0  0
  7  8  1  0  0  0  0
  7 25  1  0  0  0  0
  7 35  1  0  0  0  0
  8  9  1  0  0  0  0
  8 36  1  0  0  0  0
  8 37  1  0  0  0  0
  9 10  1  0  0  0  0
  9 38  1  0  0  0  0
  9 56  1  0  0  0  0
 10 11  1  0  0  0  0
 10 39  1  0  0  0  0
 10 40  1  0  0  0  0
 11 12  1  0  0  0  0
 11 13  1  0  0  0  0
 11 41  1  0  0  0  0
 12 42  1  0  0  0  0
 13 14  1  0  0  0  0
 13 43  1  0  0  0  0
 13 44  1  0  0  0  0
 14 24  1  0  0  0  0
 14 15  1  0  0  0  0
 15 16  2  0  0  0  0
 15 45  1  0  0  0  0
 16 17  1  0  0  0  0
 16 58  1  0  0  0  0
 17 24  2  0  0  0  0
 17 18  1  0  0  0  0
 18 19  2  0  0  0  0
 18 46  1  0  0  0  0
 19 20  1  0  0  0  0
 19 21  1  0  0  0  0
 20 47  1  0  0  0  0
 20 48  1  0  0  0  0
 20 49  1  0  0  0  0
 21 22  1  0  0  0  0
 21 23  2  0  0  0  0
 22 50  1  0  0  0  0
 22 51  1  0  0  0  0
 22 52  1  0  0  0  0
 23 24  1  0  0  0  0
 23 53  1  0  0  0  0
 25 54  1  0  0  0  0
 25 55  1  0  0  0  0
M  CHG  1   3   1
M  CHG  1   9   1
M  CHG  1  16   1
M  END
> <s_m_source_file>
AV-unprocessed.smi

> <i_m_source_file_index>
1047

> <i_lp_mmshare_version>
43012

> <i_f3d_flags>
0

> <s_epik_input>
W0NIM11bQ0gyXU4xW0NIMl1bQ0gyXU9bQ0BIXShbQ0gyXTEpW0NIMl1bTkhdW0NIMl1bQ0BIXShbT0hdKVtDSDJdbihbY0hdbjIpYyhjMjMpW2NIXWMoW0NIM10pYyhbY0hdMylbQ0gzXQ==

> <s_epik_cmdline>
J2VwaWtfcHl0aG9uJywgJy1waCcsICc3LjAnLCAnLXRuJywgJzgnLCAnLW1hJywgJzIwMCcsICctbWV0YWxfYmluZGluZycsICctaW1hZScsICc8aW5maWxlLm1hZT4nLCAnLW9tYWUnLCAnPG91dGZpbGUubWFlPic=

> <r_epik_Ionization_Penalty>
1.6114

> <r_epik_Ionization_Penalty_Charging>
1.61139

> <r_epik_Ionization_Penalty_Neutral>
5.04732e-06

> <r_epik_State_Penalty>
1.63724

> <r_epik_Charging_Adjusted_Penalty>
3.24864

> <i_epik_Tot_Q>
3

> <i_epik_Tot_abs_Q>
3

> <r_epik_Metal_State_Penalty>
5.64594

> <b_epik_Metal_Only>
0

> <s_lp_Force_Field>
OPLS_2005

> <r_lp_Energy>
40.2566

> <b_lp_Chiralities_Consistent>
1

> <s_lp_Variant>
AV-unprocessed.smi:1047-25

> <Gold.Version>
5.8.1

> <Gold.Id.Protein>
6NUR|6NUR_protein|mol2

> <Gold.PLP.Fitness>
59.8974

> <Gold.PLP.PLP>
-50.7397

> <Gold.PLP.part.hbond>
-2.0000

> <Gold.PLP.part.metal>
0.0000

> <Gold.PLP.part.buried>
-6.4980

> <Gold.PLP.part.nonpolar>
-42.9500

> <Gold.PLP.part.repulsive>
0.6023

> <Gold.PLP.ligand.clash>
0.0000

> <Gold.PLP.ligand.torsion>
1.5067

> <Gold.PLP.Chemscore.Hbond>
4.0000

> <Gold.PLP.Chemscore.CHOScore>
0.0000

> <Gold.PLP.Chemscore.Metal>
0.0000

> <Gold.Chemscore.Hbonds>
donor molecule, donor type, donor heavy atom, donor atom, acceptor molecule, acceptor atom, score
      L1  H     9    38       P1  7948  2.00
      L1  H    16    58       P1  8028  2.00

> <Gold.PLP.Chemscore.Internal.Correction>
0.1712

> <Gold.Rescore>
     Score         DG    S(hbond)    S(metal)    S(lipo)     H(rot)  DE(clash)    DE(int)     intcor
     18.44     -19.94       1.94        0.00     129.04       2.78       0.16       1.34       ----

> <Gold.Chemscore.Fitness>
18.4385

> <Gold.Chemscore.DG>
-19.9402

> <Gold.Chemscore.ZeroCoef>
-5.4800

> <Gold.Chemscore.Hbond>
1.9437

> <Gold.Chemscore.Metal>
0.0000

> <Gold.Chemscore.Lipo>
129.0381

> <Gold.Chemscore.Internal_Hbond>
0.0000

> <Gold.Chemscore.DEClash>
0.1600

> <Gold.Chemscore.DEInternal>
1.3417

> <Gold.Chemscore.Rot>
2.7848

> <Gold.Chemscore.Internal.Correction>
   9.000000E+99

> <Gold.Chemscore.Hbonds>
donor molecule, donor type, donor heavy atom, donor atom, acceptor molecule, acceptor atom, score
      L1  H     9    38       P1  7948  0.85
      L1  H    16    58       P1  8028  1.00

> <Gold.Chemscore.Hbond.Weighted>
-6.4918

> <Gold.Chemscore.Metal.Weighted>
-0.0000

> <Gold.Chemscore.Lipo.Weighted>
-15.0975

> <Gold.Chemscore.Internal_Hbond.Weighted>
0.0000

> <Gold.Chemscore.DEClash.Weighted>
0.1600

> <Gold.Chemscore.DEInternal.Weighted>
1.3417

> <Gold.Chemscore.Rot.Weighted>
7.1291

> <Gold.Chemscore.Internal.Correction.Weighted>
   9.000000E+99

> <Gold.Protein.RotatedTorsions>
[ 6907 6896 6895 6894 ] final  142.92 input  -60.11 | X-H torsion
[ 7974 7965 7964 7962 ] final  -44.95 input  175.53 | X-H torsion
[ 8008 7997 7996 7995 ] final -100.51 input   59.86 | X-H torsion
[ 10167 10162 10161 10158 ] final -150.64 input  -65.29 | X-H torsion
[ 10718 10713 10712 10709 ] final -147.50 input   66.30 | X-H torsion
[ 10763 10752 10751 10750 ] final    9.89 input  -60.55 | X-H torsion
[ 11005 11000 10999 10996 ] final  -36.47 input  -57.11 | X-H torsion

> <Gold.Protein.ActiveResidues>
 VAL166  LYS551  ARG553  GLY616  TRP617  ASP618  TYR619  PRO620  LYS621  CYS622 
 ASP623  PHE694  ASN695  SER759  ASP760  ASP761  ALA762  ILE779  LEU786  VAL792 
 PHE793  MET794  SER795  GLU796  ALA797  LYS798  CYS799  TRP800  GLU811  SER814 

> <Gold.Protein.RotatedAtoms>
  152.2128  133.4924  159.5118 H   0  0  0  0  0  0  0  0  0  0  0  0  # atno 6907 bound_to 6896
  150.6994  134.1445  159.4126 H   0  0  0  0  0  0  0  0  0  0  0  0  # atno 6908 bound_to 6896
  151.9365  135.0233  160.0583 H   0  0  0  0  0  0  0  0  0  0  0  0  # atno 6909 bound_to 6896
  145.9870  140.7222  142.9335 H   0  0  0  0  0  0  0  0  0  0  0  0  # atno 7974 bound_to 7965
  154.8296  140.0440  157.1467 H   0  0  0  0  0  0  0  0  0  0  0  0  # atno 8008 bound_to 7997
  154.9167  140.3021  155.5217 H   0  0  0  0  0  0  0  0  0  0  0  0  # atno 8009 bound_to 7997
  156.2986  140.2348  156.4213 H   0  0  0  0  0  0  0  0  0  0  0  0  # atno 8010 bound_to 7997
  139.7337  143.8769  152.2542 H   0  0  0  0  0  0  0  0  0  0  0  0  # atno 10167 bound_to 10162
  156.4083  130.7968  151.2184 H   0  0  0  0  0  0  0  0  0  0  0  0  # atno 10718 bound_to 10713
  153.2091  135.6866  153.8136 H   0  0  0  0  0  0  0  0  0  0  0  0  # atno 10763 bound_to 10752
  153.7375  135.3243  155.3299 H   0  0  0  0  0  0  0  0  0  0  0  0  # atno 10764 bound_to 10752
  154.8212  135.4650  154.0891 H   0  0  0  0  0  0  0  0  0  0  0  0  # atno 10765 bound_to 10752
  140.9877  133.7022  156.1794 H   0  0  0  0  0  0  0  0  0  0  0  0  # atno 11005 bound_to 11000
  144.6877  140.3005  143.7264 LP  0  0  0  0  0  0  0  0  0  0  0  0  # atno 17320 bound_to 7965
  145.7686  139.1849  143.2225 LP  0  0  0  0  0  0  0  0  0  0  0  0  # atno 17321 bound_to 7965
  139.8699  144.7073  150.8999 LP  0  0  0  0  0  0  0  0  0  0  0  0  # atno 17342 bound_to 10162
  140.7775  143.3747  151.1586 LP  0  0  0  0  0  0  0  0  0  0  0  0  # atno 17343 bound_to 10162
  157.7506  131.0265  150.3967 LP  0  0  0  0  0  0  0  0  0  0  0  0  # atno 17370 bound_to 10713
  156.4260  130.3962  149.6792 LP  0  0  0  0  0  0  0  0  0  0  0  0  # atno 17371 bound_to 10713
  140.7089  134.4483  157.5582 LP  0  0  0  0  0  0  0  0  0  0  0  0  # atno 17394 bound_to 11000
  139.8978  134.8628  156.2029 LP  0  0  0  0  0  0  0  0  0  0  0  0  # atno 17395 bound_to 11000

$$$$
