AV-unprocessed.smi:2339|AV-procd|sdf|9338|dock6
  -GOLD-   2272012563D 1   1.00000     0.00000
 Structure written by MMmdl.
 49 52  0  0  0  0  0  0  0  0  1 V2000
  144.0067  132.4428  149.5604 C   0  0  0  0  0  0  0  0  0  0  0  0
  144.5049  132.4224  151.0098 C   0  0  0  0  0  0  0  0  0  0  0  0
  144.3973  133.7319  151.6364 N   0  0  0  0  0  0  0  0  0  0  0  0
  143.1697  134.3710  151.7759 C   0  0  0  0  0  0  0  0  0  0  0  0
  143.0169  135.6098  152.2826 C   0  0  0  0  0  0  0  0  0  0  0  0
  144.2080  136.3630  152.7242 C   0  0  0  0  0  0  0  0  0  0  0  0
  144.1064  137.4983  153.1901 O   0  0  0  0  0  0  0  0  0  0  0  0
  145.5196  135.6799  152.5744 C   0  0  0  0  0  0  0  0  0  0  0  0
  146.6434  136.3973  153.0121 N   0  0  0  0  0  0  0  0  0  0  0  0
  146.7882  137.1963  154.0889 C   0  0  0  0  0  0  0  0  0  0  0  0
  145.9215  137.4251  154.9294 O   0  0  0  0  0  0  0  0  0  0  0  0
  148.0158  137.7321  154.1984 N   0  0  0  0  0  0  0  0  0  0  0  0
  148.5014  138.6411  155.2495 C   0  0  2  0  0  0  0  0  0  0  0  0
  148.0210  140.0896  155.1018 C   0  0  2  0  0  0  0  0  0  0  0  0
  146.9022  140.7732  154.4011 C   0  0  0  0  0  0  0  0  0  0  0  0
  147.7156  141.9780  153.8587 C   0  0  0  0  0  0  0  0  0  0  0  0
  149.1084  141.6663  154.1147 O   0  0  0  0  0  0  0  0  0  0  0  0
  149.1538  140.2524  154.1104 C   0  0  1  0  0  0  0  0  0  0  0  0
  149.9357  139.2396  154.9802 C   0  0  0  0  0  0  0  0  0  0  0  0
  150.7178  139.8091  156.1813 C   0  0  0  0  0  0  0  0  0  0  0  0
  152.0927  139.1417  156.2193 C   0  0  0  0  0  0  0  0  0  0  0  0
  152.3449  138.7191  154.7798 C   0  0  0  0  0  0  0  0  0  0  0  0
  150.9580  138.3473  154.2633 C   0  0  0  0  0  0  0  0  0  0  0  0
  145.5311  134.4283  152.0494 C   0  0  0  0  0  0  0  0  0  0  0  0
  144.0820  131.4523  149.1115 H   0  0  0  0  0  0  0  0  0  0  0  0
  144.5925  133.1313  148.9509 H   0  0  0  0  0  0  0  0  0  0  0  0
  142.9626  132.7523  149.5074 H   0  0  0  0  0  0  0  0  0  0  0  0
  143.9322  131.6965  151.5883 H   0  0  0  0  0  0  0  0  0  0  0  0
  145.5420  132.0866  151.0401 H   0  0  0  0  0  0  0  0  0  0  0  0
  142.3232  133.7865  151.4453 H   0  0  0  0  0  0  0  0  0  0  0  0
  142.0420  136.0657  152.3740 H   0  0  0  0  0  0  0  0  0  0  0  0
  147.4655  136.2752  152.4383 H   0  0  0  0  0  0  0  0  0  0  0  0
  148.6963  137.4532  153.5063 H   0  0  0  0  0  0  0  0  0  0  0  0
  148.3913  138.2433  156.2597 H   0  0  0  0  0  0  0  0  0  0  0  0
  148.2183  140.6098  156.0447 H   0  0  0  0  0  0  0  0  0  0  0  0
  146.4856  140.1674  153.5955 H   0  0  0  0  0  0  0  0  0  0  0  0
  146.1001  141.0739  155.0757 H   0  0  0  0  0  0  0  0  0  0  0  0
  147.5469  142.1099  152.7892 H   0  0  0  0  0  0  0  0  0  0  0  0
  147.4506  142.9089  154.3607 H   0  0  0  0  0  0  0  0  0  0  0  0
  148.9352  139.8674  153.1090 H   0  0  0  0  0  0  0  0  0  0  0  0
  150.8493  140.8857  156.0661 H   0  0  0  0  0  0  0  0  0  0  0  0
  150.1946  139.6596  157.1264 H   0  0  0  0  0  0  0  0  0  0  0  0
  152.8707  139.7987  156.6091 H   0  0  0  0  0  0  0  0  0  0  0  0
  152.0525  138.2572  156.8567 H   0  0  0  0  0  0  0  0  0  0  0  0
  152.7350  139.5647  154.2117 H   0  0  0  0  0  0  0  0  0  0  0  0
  153.0604  137.9003  154.6975 H   0  0  0  0  0  0  0  0  0  0  0  0
  150.7650  137.2993  154.4957 H   0  0  0  0  0  0  0  0  0  0  0  0
  150.9063  138.4429  153.1782 H   0  0  0  0  0  0  0  0  0  0  0  0
  146.4332  133.8516  151.9232 H   0  0  0  0  0  0  0  0  0  0  0  0
  1  2  1  0  0  0  0
  1 25  1  0  0  0  0
  1 26  1  0  0  0  0
  1 27  1  0  0  0  0
  2  3  1  0  0  0  0
  2 28  1  0  0  0  0
  2 29  1  0  0  0  0
  3 24  1  0  0  0  0
  3  4  1  0  0  0  0
  4  5  2  0  0  0  0
  4 30  1  0  0  0  0
  5  6  1  0  0  0  0
  5 31  1  0  0  0  0
  6  7  2  0  0  0  0
  6  8  1  0  0  0  0
  8  9  1  0  0  0  0
  8 24  2  0  0  0  0
  9 10  1  0  0  0  0
  9 32  1  0  0  0  0
 10 11  2  0  0  0  0
 10 12  1  0  0  0  0
 12 13  1  0  0  0  0
 12 33  1  0  0  0  0
 13 19  1  0  0  0  0
 13 14  1  0  0  0  0
 13 34  1  0  0  0  0
 14 18  1  0  0  0  0
 14 15  1  0  0  0  0
 14 35  1  0  0  0  0
 15 16  1  0  0  0  0
 15 36  1  0  0  0  0
 15 37  1  0  0  0  0
 16 17  1  0  0  0  0
 16 38  1  0  0  0  0
 16 39  1  0  0  0  0
 17 18  1  0  0  0  0
 18 19  1  0  0  0  0
 18 40  1  0  0  0  0
 19 23  1  0  0  0  0
 19 20  1  0  0  0  0
 20 21  1  0  0  0  0
 20 41  1  0  0  0  0
 20 42  1  0  0  0  0
 21 22  1  0  0  0  0
 21 43  1  0  0  0  0
 21 44  1  0  0  0  0
 22 23  1  0  0  0  0
 22 45  1  0  0  0  0
 22 46  1  0  0  0  0
 23 47  1  0  0  0  0
 23 48  1  0  0  0  0
 24 49  1  0  0  0  0
M  END
> <s_m_source_file>
AV-unprocessed.smi

> <i_m_source_file_index>
2339

> <i_lp_mmshare_version>
43012

> <i_f3d_flags>
0

> <s_epik_input>
W0NIM11bQ0gyXW4xW2NIXVtjSF1jKD1PKWMoW2NIXTEpW05IXUMoPU8pW05IXVtDQEBIXTJbQ0BASF0oW0NIMl1bQ0gyXU8zKVtDQEBIXTNDMjRbQ0gyXVtDSDJdW0NIMl1bQ0gyXTQ=

> <s_epik_cmdline>
J2VwaWtfcHl0aG9uJywgJy1waCcsICc3LjAnLCAnLXRuJywgJzgnLCAnLW1hJywgJzIwMCcsICctbWV0YWxfYmluZGluZycsICctaW1hZScsICc8aW5maWxlLm1hZT4nLCAnLW9tYWUnLCAnPG91dGZpbGUubWFlPic=

> <r_lp_tautomer_probability>
1

> <r_epik_Ionization_Penalty>
0.00145966

> <r_epik_Ionization_Penalty_Charging>
0.00143969

> <r_epik_Ionization_Penalty_Neutral>
1.99697e-05

> <r_epik_State_Penalty>
0.000961843

> <r_epik_Charging_Adjusted_Penalty>
0.00240153

> <i_epik_Tot_Q>
0

> <i_epik_Tot_abs_Q>
0

> <r_epik_Metal_State_Penalty>
-0

> <b_epik_Metal_Only>
0

> <s_lp_Force_Field>
OPLS_2005

> <r_lp_Energy>
81.9731

> <b_lp_Chiralities_Consistent>
1

> <s_lp_Variant>
AV-unprocessed.smi:2339-3

> <Gold.Version>
5.8.1

> <Gold.Id.Protein>
6NUR|6NUR_protein|mol2

> <Gold.PLP.Fitness>
48.3794

> <Gold.PLP.PLP>
-39.4482

> <Gold.PLP.part.hbond>
-3.3899

> <Gold.PLP.part.metal>
0.0000

> <Gold.PLP.part.buried>
-4.4060

> <Gold.PLP.part.nonpolar>
-31.4492

> <Gold.PLP.part.repulsive>
0.4263

> <Gold.PLP.ligand.clash>
0.0000

> <Gold.PLP.ligand.torsion>
0.4495

> <Gold.PLP.Chemscore.Hbond>
2.4036

> <Gold.PLP.Chemscore.CHOScore>
0.7812

> <Gold.PLP.Chemscore.Metal>
0.0000

> <Gold.Chemscore.Hbonds>
donor molecule, donor type, donor heavy atom, donor atom, acceptor molecule, acceptor atom, score
      L1  H     9    32       P1  7948  1.00
      L1  H    12    33       P1  7948  0.81
      P1  H  8011  8017       L1    17  0.41
      L1  C     4    30       P1 10186  0.81

> <Gold.PLP.Chemscore.Internal.Correction>
0.2759

> <Gold.Rescore>
     Score         DG    S(hbond)    S(metal)    S(lipo)     H(rot)  DE(clash)    DE(int)     intcor
     15.47     -19.89       1.80        0.00      97.27       1.17       0.11       4.30       ----

> <Gold.Chemscore.Fitness>
15.4748

> <Gold.Chemscore.DG>
-19.8865

> <Gold.Chemscore.ZeroCoef>
-5.4800

> <Gold.Chemscore.Hbond>
1.8004

> <Gold.Chemscore.Metal>
0.0000

> <Gold.Chemscore.Lipo>
97.2697

> <Gold.Chemscore.Internal_Hbond>
0.0000

> <Gold.Chemscore.DEClash>
0.1104

> <Gold.Chemscore.DEInternal>
4.3013

> <Gold.Chemscore.Rot>
1.1670

> <Gold.Chemscore.Internal.Correction>
   9.000000E+99

> <Gold.Chemscore.Hbonds>
donor molecule, donor type, donor heavy atom, donor atom, acceptor molecule, acceptor atom, score
      L1  H     9    32       P1  7948  0.98
      L1  H    12    33       P1  7948  0.78
      P1  H  8011  8017       L1    17  0.04

> <Gold.Chemscore.Hbond.Weighted>
-6.0134

> <Gold.Chemscore.Metal.Weighted>
-0.0000

> <Gold.Chemscore.Lipo.Weighted>
-11.3806

> <Gold.Chemscore.Internal_Hbond.Weighted>
0.0000

> <Gold.Chemscore.DEClash.Weighted>
0.1104

> <Gold.Chemscore.DEInternal.Weighted>
4.3013

> <Gold.Chemscore.Rot.Weighted>
2.9874

> <Gold.Chemscore.Internal.Correction.Weighted>
   9.000000E+99

> <Gold.Protein.RotatedTorsions>
[ 6907 6896 6895 6894 ] final   62.20 input  -60.11 | X-H torsion
[ 7974 7965 7964 7962 ] final  145.77 input  175.53 | X-H torsion
[ 8008 7997 7996 7995 ] final   41.00 input   59.86 | X-H torsion
[ 10167 10162 10161 10158 ] final   -8.30 input  -65.29 | X-H torsion
[ 10718 10713 10712 10709 ] final  -11.99 input   66.30 | X-H torsion
[ 10763 10752 10751 10750 ] final   84.71 input  -60.55 | X-H torsion
[ 11005 11000 10999 10996 ] final  -94.77 input  -57.11 | X-H torsion

> <Gold.Protein.ActiveResidues>
 VAL166  LYS551  ARG553  GLY616  TRP617  ASP618  TYR619  PRO620  LYS621  CYS622 
 ASP623  PHE694  ASN695  SER759  ASP760  ASP761  ALA762  ILE779  LEU786  VAL792 
 PHE793  MET794  SER795  GLU796  ALA797  LYS798  CYS799  TRP800  GLU811  SER814 

> <Gold.Protein.RotatedAtoms>
  152.4152  134.6054  160.0011 H   0  0  0  0  0  0  0  0  0  0  0  0  # atno 6907 bound_to 6896
  151.6220  133.3333  159.3098 H   0  0  0  0  0  0  0  0  0  0  0  0  # atno 6908 bound_to 6896
  150.8041  134.7194  159.6694 H   0  0  0  0  0  0  0  0  0  0  0  0  # atno 6909 bound_to 6896
  144.8725  139.5823  143.5880 H   0  0  0  0  0  0  0  0  0  0  0  0  # atno 7974 bound_to 7965
  155.2624  140.3360  155.4272 H   0  0  0  0  0  0  0  0  0  0  0  0  # atno 8008 bound_to 7997
  156.2169  140.1792  156.7611 H   0  0  0  0  0  0  0  0  0  0  0  0  # atno 8009 bound_to 7997
  154.5766  140.0661  156.9028 H   0  0  0  0  0  0  0  0  0  0  0  0  # atno 8010 bound_to 7997
  140.7055  143.5985  150.8822 H   0  0  0  0  0  0  0  0  0  0  0  0  # atno 10167 bound_to 10162
  156.6510  130.4955  149.6062 H   0  0  0  0  0  0  0  0  0  0  0  0  # atno 10718 bound_to 10713
  153.1407  135.4644  154.9491 H   0  0  0  0  0  0  0  0  0  0  0  0  # atno 10763 bound_to 10752
  154.7744  135.3169  154.8125 H   0  0  0  0  0  0  0  0  0  0  0  0  # atno 10764 bound_to 10752
  153.8648  135.6909  153.4833 H   0  0  0  0  0  0  0  0  0  0  0  0  # atno 10765 bound_to 10752
  141.1461  133.7979  157.0343 H   0  0  0  0  0  0  0  0  0  0  0  0  # atno 11005 bound_to 11000
  146.2940  139.7223  142.9140 LP  0  0  0  0  0  0  0  0  0  0  0  0  # atno 17320 bound_to 7965
  145.4103  141.0395  143.3021 LP  0  0  0  0  0  0  0  0  0  0  0  0  # atno 17321 bound_to 7965
  139.9709  143.6058  152.2974 LP  0  0  0  0  0  0  0  0  0  0  0  0  # atno 17342 bound_to 10162
  139.6644  144.7662  151.1901 LP  0  0  0  0  0  0  0  0  0  0  0  0  # atno 17343 bound_to 10162
  156.2084  130.6663  151.1243 LP  0  0  0  0  0  0  0  0  0  0  0  0  # atno 17370 bound_to 10713
  157.7141  131.0719  150.6394 LP  0  0  0  0  0  0  0  0  0  0  0  0  # atno 17371 bound_to 10713
  140.0734  134.9690  157.1504 LP  0  0  0  0  0  0  0  0  0  0  0  0  # atno 17394 bound_to 11000
  140.3679  134.2422  155.7180 LP  0  0  0  0  0  0  0  0  0  0  0  0  # atno 17395 bound_to 11000

$$$$
