AV-unprocessed.smi:609|AV-procd|sdf|3045|dock3
  -GOLD-   2262023563D 1   1.00000     0.00000
 Structure written by MMmdl.
 43 45  0  0  0  0  0  0  0  0  2 V2000
  153.3781  142.4791  161.6006 C   0  0  0  0  0  0  0  0  0  0  0  0
  152.7067  142.2501  160.2578 C   0  0  0  0  0  0  0  0  0  0  0  0
  153.0114  141.0790  159.5280 C   0  0  0  0  0  0  0  0  0  0  0  0
  152.4070  140.8274  158.2769 C   0  0  0  0  0  0  0  0  0  0  0  0
  152.5560  139.7631  157.4041 N   0  0  0  0  0  0  0  0  0  0  0  0
  151.7295  140.1054  156.4204 C   0  0  0  0  0  0  0  0  0  0  0  0
  151.0713  141.2741  156.5465 N   0  0  0  0  0  0  0  0  0  0  0  0
  150.1352  141.8599  155.6037 C   0  0  0  0  0  0  0  0  0  0  0  0
  149.3592  140.7967  154.8007 C   0  0  2  0  0  0  0  0  0  0  0  0
  149.5135  141.0869  153.4266 O   0  0  0  0  0  0  0  0  0  0  0  0
  147.8588  140.7359  155.1436 C   0  0  0  0  0  0  0  0  0  0  0  0
  147.0085  142.2993  154.7887 S   0  0  0  0  0  0  0  0  0  0  0  0
  145.4091  142.1377  155.5200 C   0  0  0  0  0  0  0  0  0  0  0  0
  144.3955  141.4554  154.9805 N   0  3  0  0  0  0  0  0  0  0  0  0
  143.2994  141.5273  155.7971 C   0  0  0  0  0  0  0  0  0  0  0  0
  143.6700  142.2803  156.8827 C   0  0  0  0  0  0  0  0  0  0  0  0
  144.9800  142.6396  156.6891 N   0  0  0  0  0  0  0  0  0  0  0  0
  145.8034  143.4379  157.6009 C   0  0  0  0  0  0  0  0  0  0  0  0
  151.4831  141.7881  157.7712 C   0  0  0  0  0  0  0  0  0  0  0  0
  151.1718  142.9569  158.4875 C   0  0  0  0  0  0  0  0  0  0  0  0
  151.7850  143.1929  159.7358 C   0  0  0  0  0  0  0  0  0  0  0  0
  151.4420  144.4584  160.5016 C   0  0  0  0  0  0  0  0  0  0  0  0
  154.0101  141.6354  161.8788 H   0  0  0  0  0  0  0  0  0  0  0  0
  152.6326  142.6098  162.3852 H   0  0  0  0  0  0  0  0  0  0  0  0
  154.0050  143.3702  161.5659 H   0  0  0  0  0  0  0  0  0  0  0  0
  153.7135  140.3608  159.9254 H   0  0  0  0  0  0  0  0  0  0  0  0
  151.6027  139.4749  155.5522 H   0  0  0  0  0  0  0  0  0  0  0  0
  149.4425  142.4978  156.1551 H   0  0  0  0  0  0  0  0  0  0  0  0
  150.6930  142.5122  154.9307 H   0  0  0  0  0  0  0  0  0  0  0  0
  149.8053  139.8190  154.9859 H   0  0  0  0  0  0  0  0  0  0  0  0
  149.3783  140.2912  152.9348 H   0  0  0  0  0  0  0  0  0  0  0  0
  147.3735  139.9571  154.5588 H   0  0  0  0  0  0  0  0  0  0  0  0
  147.7143  140.4796  156.1937 H   0  0  0  0  0  0  0  0  0  0  0  0
  142.3625  141.0483  155.5526 H   0  0  0  0  0  0  0  0  0  0  0  0
  143.1119  142.5763  157.7594 H   0  0  0  0  0  0  0  0  0  0  0  0
  145.4185  143.3355  158.6159 H   0  0  0  0  0  0  0  0  0  0  0  0
  145.7553  144.4855  157.3034 H   0  0  0  0  0  0  0  0  0  0  0  0
  146.8364  143.0901  157.5782 H   0  0  0  0  0  0  0  0  0  0  0  0
  150.4660  143.6653  158.0796 H   0  0  0  0  0  0  0  0  0  0  0  0
  150.7718  145.1000  159.9290 H   0  0  0  0  0  0  0  0  0  0  0  0
  152.3433  145.0306  160.7219 H   0  0  0  0  0  0  0  0  0  0  0  0
  150.9489  144.2120  161.4421 H   0  0  0  0  0  0  0  0  0  0  0  0
  144.4358  140.9628  154.0971 H   0  0  0  0  0  0  0  0  0  0  0  0
  1  2  1  0  0  0  0
  1 23  1  0  0  0  0
  1 24  1  0  0  0  0
  1 25  1  0  0  0  0
  2 21  1  0  0  0  0
  2  3  2  0  0  0  0
  3  4  1  0  0  0  0
  3 26  1  0  0  0  0
  4 19  2  0  0  0  0
  4  5  1  0  0  0  0
  5  6  2  0  0  0  0
  6  7  1  0  0  0  0
  6 27  1  0  0  0  0
  7  8  1  0  0  0  0
  7 19  1  0  0  0  0
  8  9  1  0  0  0  0
  8 28  1  0  0  0  0
  8 29  1  0  0  0  0
  9 10  1  0  0  0  0
  9 11  1  0  0  0  0
  9 30  1  0  0  0  0
 10 31  1  0  0  0  0
 11 12  1  0  0  0  0
 11 32  1  0  0  0  0
 11 33  1  0  0  0  0
 12 13  1  0  0  0  0
 13 17  1  0  0  0  0
 13 14  2  0  0  0  0
 14 15  1  0  0  0  0
 14 43  1  0  0  0  0
 15 16  2  0  0  0  0
 15 34  1  0  0  0  0
 16 17  1  0  0  0  0
 16 35  1  0  0  0  0
 17 18  1  0  0  0  0
 18 36  1  0  0  0  0
 18 37  1  0  0  0  0
 18 38  1  0  0  0  0
 19 20  1  0  0  0  0
 20 21  2  0  0  0  0
 20 39  1  0  0  0  0
 21 22  1  0  0  0  0
 22 40  1  0  0  0  0
 22 41  1  0  0  0  0
 22 42  1  0  0  0  0
M  CHG  1  14   1
M  END
> <s_m_source_file>
AV-unprocessed.smi

> <i_m_source_file_index>
609

> <i_lp_mmshare_version>
43012

> <i_f3d_flags>
0

> <s_epik_input>
W0NIM11jKFtjSF0xKWMoW0NIM10pW2NIXWMoYzEyKW4oW2NIXW4yKVtDSDJdW0NASF0oW09IXSlbQ0gyXVNjM25bY0hdW2NIXW4zW0NIM10=

> <s_epik_cmdline>
J2VwaWtfcHl0aG9uJywgJy1waCcsICc3LjAnLCAnLXRuJywgJzgnLCAnLW1hJywgJzIwMCcsICctbWV0YWxfYmluZGluZycsICctaW1hZScsICc8aW5maWxlLm1hZT4nLCAnLW9tYWUnLCAnPG91dGZpbGUubWFlPic=

> <r_lp_tautomer_probability>
1

> <r_epik_Ionization_Penalty>
0.215713

> <r_epik_Ionization_Penalty_Charging>
0

> <r_epik_Ionization_Penalty_Neutral>
0.215713

> <r_epik_State_Penalty>
0.19579

> <r_epik_Charging_Adjusted_Penalty>
0.19579

> <i_epik_Tot_Q>
1

> <i_epik_Tot_abs_Q>
1

> <r_epik_Metal_State_Penalty>
0.429751

> <b_epik_Metal_Only>
0

> <s_lp_Force_Field>
OPLS_2005

> <r_lp_Energy>
11.8688

> <b_lp_Chiralities_Consistent>
1

> <s_lp_Variant>
AV-unprocessed.smi:609-1

> <Gold.Version>
5.8.1

> <Gold.Id.Protein>
6NUR|6NUR_protein|mol2

> <Gold.PLP.Fitness>
55.0701

> <Gold.PLP.PLP>
-43.8548

> <Gold.PLP.part.hbond>
-4.8786

> <Gold.PLP.part.metal>
0.0000

> <Gold.PLP.part.buried>
-3.4019

> <Gold.PLP.part.nonpolar>
-34.2628

> <Gold.PLP.part.repulsive>
0.0000

> <Gold.PLP.ligand.clash>
0.0000

> <Gold.PLP.ligand.torsion>
1.3898

> <Gold.PLP.Chemscore.Hbond>
4.6410

> <Gold.PLP.Chemscore.CHOScore>
0.0000

> <Gold.PLP.Chemscore.Metal>
0.0000

> <Gold.Chemscore.Hbonds>
donor molecule, donor type, donor heavy atom, donor atom, acceptor molecule, acceptor atom, score
      L1  H    10    31       P1  7957  0.54
      L1  H    14    43       P1 10175  1.98
      P1  H  7989  7998       L1    10  0.09
      P1  H  7997  8008       L1     5  1.00
      P1  H  8011  8017       L1    10  1.00

> <Gold.PLP.Chemscore.Internal.Correction>
0.0720

> <Gold.Rescore>
     Score         DG    S(hbond)    S(metal)    S(lipo)     H(rot)  DE(clash)    DE(int)     intcor
     19.43     -20.94       2.84        0.00     106.00       2.52       0.10       1.40       ----

> <Gold.Chemscore.Fitness>
19.4343

> <Gold.Chemscore.DG>
-20.9402

> <Gold.Chemscore.ZeroCoef>
-5.4800

> <Gold.Chemscore.Hbond>
2.8436

> <Gold.Chemscore.Metal>
0.0000

> <Gold.Chemscore.Lipo>
105.9973

> <Gold.Chemscore.Internal_Hbond>
0.0000

> <Gold.Chemscore.DEClash>
0.1047

> <Gold.Chemscore.DEInternal>
1.4012

> <Gold.Chemscore.Rot>
2.5153

> <Gold.Chemscore.Internal.Correction>
   9.000000E+99

> <Gold.Chemscore.Hbonds>
donor molecule, donor type, donor heavy atom, donor atom, acceptor molecule, acceptor atom, score
      L1  H    10    31       P1  7957  0.54
      L1  H    14    43       P1 10175  0.85
      P1  H  7997  8008       L1     5  0.17
      P1  H  8011  8017       L1    10  0.73

> <Gold.Chemscore.Hbond.Weighted>
-9.4976

> <Gold.Chemscore.Metal.Weighted>
-0.0000

> <Gold.Chemscore.Lipo.Weighted>
-12.4017

> <Gold.Chemscore.Internal_Hbond.Weighted>
0.0000

> <Gold.Chemscore.DEClash.Weighted>
0.1047

> <Gold.Chemscore.DEInternal.Weighted>
1.4012

> <Gold.Chemscore.Rot.Weighted>
6.4391

> <Gold.Chemscore.Internal.Correction.Weighted>
   9.000000E+99

> <Gold.Protein.RotatedTorsions>
[ 6907 6896 6895 6894 ] final   43.35 input  -60.11 | X-H torsion
[ 7974 7965 7964 7962 ] final  101.77 input  175.53 | X-H torsion
[ 8008 7997 7996 7995 ] final  -61.36 input   59.86 | X-H torsion
[ 10167 10162 10161 10158 ] final  148.16 input  -65.29 | X-H torsion
[ 10718 10713 10712 10709 ] final  154.13 input   66.30 | X-H torsion
[ 10763 10752 10751 10750 ] final  129.96 input  -60.55 | X-H torsion
[ 11005 11000 10999 10996 ] final -123.39 input  -57.11 | X-H torsion

> <Gold.Protein.ActiveResidues>
 VAL166  LYS551  ARG553  GLY616  TRP617  ASP618  TYR619  PRO620  LYS621  CYS622 
 ASP623  PHE694  ASN695  SER759  ASP760  ASP761  ALA762  ILE779  LEU786  VAL792 
 PHE793  MET794  SER795  GLU796  ALA797  LYS798  CYS799  TRP800  GLU811  SER814 

> <Gold.Protein.RotatedAtoms>
  152.2191  134.8429  160.0487 H   0  0  0  0  0  0  0  0  0  0  0  0  # atno 6907 bound_to 6896
  151.9219  133.3583  159.3908 H   0  0  0  0  0  0  0  0  0  0  0  0  # atno 6908 bound_to 6896
  150.6995  134.4551  159.5398 H   0  0  0  0  0  0  0  0  0  0  0  0  # atno 6909 bound_to 6896
  145.3679  139.2404  143.3471 H   0  0  0  0  0  0  0  0  0  0  0  0  # atno 7974 bound_to 7965
  154.4444  140.1019  156.6418 H   0  0  0  0  0  0  0  0  0  0  0  0  # atno 8008 bound_to 7997
  155.5493  140.3485  155.4446 H   0  0  0  0  0  0  0  0  0  0  0  0  # atno 8009 bound_to 7997
  156.0540  140.1311  157.0006 H   0  0  0  0  0  0  0  0  0  0  0  0  # atno 8010 bound_to 7997
  139.4879  144.5701  151.7071 H   0  0  0  0  0  0  0  0  0  0  0  0  # atno 10167 bound_to 10162
  157.2356  131.0748  151.1825 H   0  0  0  0  0  0  0  0  0  0  0  0  # atno 10718 bound_to 10713
  153.7502  135.3211  155.3320 H   0  0  0  0  0  0  0  0  0  0  0  0  # atno 10763 bound_to 10752
  154.8266  135.4565  154.0940 H   0  0  0  0  0  0  0  0  0  0  0  0  # atno 10764 bound_to 10752
  153.2140  135.6939  153.8162 H   0  0  0  0  0  0  0  0  0  0  0  0  # atno 10765 bound_to 10752
  140.9922  134.0522  157.3640 H   0  0  0  0  0  0  0  0  0  0  0  0  # atno 11005 bound_to 11000
  146.2898  140.4325  142.8744 LP  0  0  0  0  0  0  0  0  0  0  0  0  # atno 17320 bound_to 7965
  144.8598  140.7123  143.6115 LP  0  0  0  0  0  0  0  0  0  0  0  0  # atno 17321 bound_to 7965
  140.5286  144.0766  150.6046 LP  0  0  0  0  0  0  0  0  0  0  0  0  # atno 17342 bound_to 10162
  140.3748  143.2834  152.0237 LP  0  0  0  0  0  0  0  0  0  0  0  0  # atno 17343 bound_to 10162
  157.3432  130.7044  149.6394 LP  0  0  0  0  0  0  0  0  0  0  0  0  # atno 17370 bound_to 10713
  155.9673  130.4274  150.4741 LP  0  0  0  0  0  0  0  0  0  0  0  0  # atno 17371 bound_to 10713
  139.8998  135.0160  156.7211 LP  0  0  0  0  0  0  0  0  0  0  0  0  # atno 17394 bound_to 11000
  140.7022  133.9297  155.8031 LP  0  0  0  0  0  0  0  0  0  0  0  0  # atno 17395 bound_to 11000

$$$$
