AV-unprocessed.smi:771|AV-procd|sdf|3683|dock5
  -GOLD-   22720 1103D 1   1.00000     0.00000
 Structure written by MMmdl.
 41 42  0  0  0  0  0  0  0  0  3 V2000
  146.2061  138.2065  154.3956 O   0  0  0  0  0  0  0  0  0  0  0  0
  146.2881  138.4273  153.1863 C   0  0  0  0  0  0  0  0  0  0  0  0
  147.4211  139.2928  152.6160 C   0  0  0  0  0  0  0  0  0  0  0  0
  148.3980  139.7237  153.6307 N   0  0  0  0  0  0  0  0  0  0  0  0
  149.3635  138.7786  154.0301 C   0  0  0  0  0  0  0  0  0  0  0  0
  150.3014  139.0607  154.9555 C   0  0  0  0  0  0  0  0  0  0  0  0
  151.2829  138.0769  155.3565 N   0  3  0  0  0  0  0  0  0  0  0  0
  152.0949  138.3768  156.2258 O   0  0  0  0  0  0  0  0  0  0  0  0
  151.2763  136.9743  154.8172 O   0  5  0  0  0  0  0  0  0  0  0  0
  150.2932  140.3874  155.5410 C   0  0  0  0  0  0  0  0  0  0  0  0
  149.3696  141.2943  155.1664 C   0  0  0  0  0  0  0  0  0  0  0  0
  148.3471  140.9835  154.1620 C   0  0  0  0  0  0  0  0  0  0  0  0
  147.4964  141.8053  153.8205 O   0  0  0  0  0  0  0  0  0  0  0  0
  145.4281  137.9249  152.2871 N   0  0  0  0  0  0  0  0  0  0  0  0
  144.2828  137.0712  152.5907 C   0  0  0  0  0  0  0  0  0  0  0  0
  144.5108  135.6025  152.1663 C   0  0  2  0  0  0  0  0  0  0  0  0
  145.8555  135.0695  152.7052 C   0  0  0  0  0  0  0  0  0  0  0  0
  146.0614  133.5865  152.3577 C   0  0  0  0  0  0  0  0  0  0  0  0
  145.9637  133.3502  150.8438 C   0  0  0  0  0  0  0  0  0  0  0  0
  144.6306  133.8738  150.2833 C   0  0  0  0  0  0  0  0  0  0  0  0
  144.3887  135.3538  150.6392 C   0  0  2  0  0  0  0  0  0  0  0  0
  145.2994  136.1613  149.9170 O   0  0  0  0  0  0  0  0  0  0  0  0
  147.9181  138.7262  151.8273 H   0  0  0  0  0  0  0  0  0  0  0  0
  146.9898  140.1606  152.1133 H   0  0  0  0  0  0  0  0  0  0  0  0
  149.2806  137.8192  153.5398 H   0  0  0  0  0  0  0  0  0  0  0  0
  151.0261  140.6632  156.2847 H   0  0  0  0  0  0  0  0  0  0  0  0
  149.3811  142.2760  155.6164 H   0  0  0  0  0  0  0  0  0  0  0  0
  145.5756  138.1547  151.3147 H   0  0  0  0  0  0  0  0  0  0  0  0
  144.0146  137.1300  153.6469 H   0  0  0  0  0  0  0  0  0  0  0  0
  143.4294  137.4764  152.0461 H   0  0  0  0  0  0  0  0  0  0  0  0
  143.7269  135.0134  152.6453 H   0  0  0  0  0  0  0  0  0  0  0  0
  146.6790  135.6576  152.2976 H   0  0  0  0  0  0  0  0  0  0  0  0
  145.8979  135.1942  153.7877 H   0  0  0  0  0  0  0  0  0  0  0  0
  147.0321  133.2507  152.7235 H   0  0  0  0  0  0  0  0  0  0  0  0
  145.3122  132.9828  152.8713 H   0  0  0  0  0  0  0  0  0  0  0  0
  146.7955  133.8466  150.3425 H   0  0  0  0  0  0  0  0  0  0  0  0
  146.0652  132.2866  150.6262 H   0  0  0  0  0  0  0  0  0  0  0  0
  144.5986  133.7347  149.2021 H   0  0  0  0  0  0  0  0  0  0  0  0
  143.8162  133.2728  150.6899 H   0  0  0  0  0  0  0  0  0  0  0  0
  143.3873  135.6222  150.3023 H   0  0  0  0  0  0  0  0  0  0  0  0
  145.5498  135.7005  149.1300 H   0  0  0  0  0  0  0  0  0  0  0  0
  1  2  2  0  0  0  0
  2  3  1  0  0  0  0
  2 14  1  0  0  0  0
  3  4  1  0  0  0  0
  3 23  1  0  0  0  0
  3 24  1  0  0  0  0
  4 12  1  0  0  0  0
  4  5  1  0  0  0  0
  5  6  2  0  0  0  0
  5 25  1  0  0  0  0
  6  7  1  0  0  0  0
  6 10  1  0  0  0  0
  7  8  2  0  0  0  0
  7  9  1  0  0  0  0
 10 11  2  0  0  0  0
 10 26  1  0  0  0  0
 11 12  1  0  0  0  0
 11 27  1  0  0  0  0
 12 13  2  0  0  0  0
 14 15  1  0  0  0  0
 14 28  1  0  0  0  0
 15 16  1  0  0  0  0
 15 29  1  0  0  0  0
 15 30  1  0  0  0  0
 16 21  1  0  0  0  0
 16 17  1  0  0  0  0
 16 31  1  0  0  0  0
 17 18  1  0  0  0  0
 17 32  1  0  0  0  0
 17 33  1  0  0  0  0
 18 19  1  0  0  0  0
 18 34  1  0  0  0  0
 18 35  1  0  0  0  0
 19 20  1  0  0  0  0
 19 36  1  0  0  0  0
 19 37  1  0  0  0  0
 20 21  1  0  0  0  0
 20 38  1  0  0  0  0
 20 39  1  0  0  0  0
 21 22  1  0  0  0  0
 21 40  1  0  0  0  0
 22 41  1  0  0  0  0
M  CHG  1   7   1
M  CHG  1   9  -1
M  END
> <s_m_source_file>
AV-unprocessed.smi

> <i_m_source_file_index>
771

> <i_lp_mmshare_version>
43012

> <i_f3d_flags>
0

> <s_epik_input>
Tz1jMVtjSF1bY0hdYyhbTitdKD1PKVtPLV0pW2NIXW4xW0NIMl1DKD1PKVtOSF1bQ0gyXVtDQEBIXTJbQ0gyXVtDSDJdW0NIMl1bQ0gyXVtDQEhdMltPSF0=

> <s_epik_cmdline>
J2VwaWtfcHl0aG9uJywgJy1waCcsICc3LjAnLCAnLXRuJywgJzgnLCAnLW1hJywgJzIwMCcsICctbWV0YWxfYmluZGluZycsICctaW1hZScsICc8aW5maWxlLm1hZT4nLCAnLW9tYWUnLCAnPG91dGZpbGUubWFlPic=

> <r_lp_tautomer_probability>
1

> <r_epik_Ionization_Penalty>
3.77175e-07

> <r_epik_Ionization_Penalty_Charging>
7.70067e-11

> <r_epik_Ionization_Penalty_Neutral>
3.77098e-07

> <r_epik_State_Penalty>
-0

> <r_epik_Charging_Adjusted_Penalty>
7.70067e-11

> <i_epik_Tot_Q>
0

> <i_epik_Tot_abs_Q>
2

> <r_epik_Metal_State_Penalty>
-0

> <b_epik_Metal_Only>
0

> <s_lp_Force_Field>
OPLS_2005

> <r_lp_Energy>
25.3676

> <b_lp_Chiralities_Consistent>
1

> <s_lp_Variant>
AV-unprocessed.smi:771-3

> <Gold.Version>
5.8.1

> <Gold.Id.Protein>
6NUR|6NUR_protein|mol2

> <Gold.PLP.Fitness>
45.8255

> <Gold.PLP.PLP>
-36.7344

> <Gold.PLP.part.hbond>
-4.9636

> <Gold.PLP.part.metal>
0.0000

> <Gold.PLP.part.buried>
2.5401

> <Gold.PLP.part.nonpolar>
-35.3515

> <Gold.PLP.part.repulsive>
0.8581

> <Gold.PLP.ligand.clash>
0.0000

> <Gold.PLP.ligand.torsion>
0.4411

> <Gold.PLP.Chemscore.Hbond>
2.3161

> <Gold.PLP.Chemscore.CHOScore>
1.0000

> <Gold.PLP.Chemscore.Metal>
0.0000

> <Gold.Chemscore.Hbonds>
donor molecule, donor type, donor heavy atom, donor atom, acceptor molecule, acceptor atom, score
      L1  H    14    28       P1 10171  0.15
      L1  H    22    41       P1  7921  1.00
      P1  H 10752 10764       L1     9  0.63
      L1  C     5    25       P1  7948  1.00

> <Gold.PLP.Chemscore.Internal.Correction>
0.0250

> <Gold.Rescore>
     Score         DG    S(hbond)    S(metal)    S(lipo)     H(rot)  DE(clash)    DE(int)     intcor
     12.83     -14.99       2.34        0.00      68.57       2.48       0.35       1.80       ----

> <Gold.Chemscore.Fitness>
12.8335

> <Gold.Chemscore.DG>
-14.9854

> <Gold.Chemscore.ZeroCoef>
-5.4800

> <Gold.Chemscore.Hbond>
2.3411

> <Gold.Chemscore.Metal>
0.0000

> <Gold.Chemscore.Lipo>
68.5729

> <Gold.Chemscore.Internal_Hbond>
0.0000

> <Gold.Chemscore.DEClash>
0.3470

> <Gold.Chemscore.DEInternal>
1.8049

> <Gold.Chemscore.Rot>
2.4753

> <Gold.Chemscore.Internal.Correction>
   9.000000E+99

> <Gold.Chemscore.Hbonds>
donor molecule, donor type, donor heavy atom, donor atom, acceptor molecule, acceptor atom, score
      L1  H    14    28       P1 10171  0.15
      L1  H    22    41       P1  7921  1.00
      P1  H 10752 10764       L1     9  0.62

> <Gold.Chemscore.Hbond.Weighted>
-7.8193

> <Gold.Chemscore.Metal.Weighted>
-0.0000

> <Gold.Chemscore.Lipo.Weighted>
-8.0230

> <Gold.Chemscore.Internal_Hbond.Weighted>
0.0000

> <Gold.Chemscore.DEClash.Weighted>
0.3470

> <Gold.Chemscore.DEInternal.Weighted>
1.8049

> <Gold.Chemscore.Rot.Weighted>
6.3369

> <Gold.Chemscore.Internal.Correction.Weighted>
   9.000000E+99

> <Gold.Protein.RotatedTorsions>
[ 6907 6896 6895 6894 ] final -147.68 input  -60.11 | X-H torsion
[ 7974 7965 7964 7962 ] final  -50.42 input  175.53 | X-H torsion
[ 8008 7997 7996 7995 ] final  -34.98 input   59.86 | X-H torsion
[ 10167 10162 10161 10158 ] final  140.24 input  -65.29 | X-H torsion
[ 10718 10713 10712 10709 ] final   13.20 input   66.30 | X-H torsion
[ 10763 10752 10751 10750 ] final  -77.26 input  -60.55 | X-H torsion
[ 11005 11000 10999 10996 ] final   95.89 input  -57.11 | X-H torsion

> <Gold.Protein.ActiveResidues>
 VAL166  LYS551  ARG553  GLY616  TRP617  ASP618  TYR619  PRO620  LYS621  CYS622 
 ASP623  PHE694  ASN695  SER759  ASP760  ASP761  ALA762  ILE779  LEU786  VAL792 
 PHE793  MET794  SER795  GLU796  ALA797  LYS798  CYS799  TRP800  GLU811  SER814 

> <Gold.Protein.RotatedAtoms>
  151.1591  133.4856  159.2594 H   0  0  0  0  0  0  0  0  0  0  0  0  # atno 6907 bound_to 6896
  151.1473  135.0209  159.8662 H   0  0  0  0  0  0  0  0  0  0  0  0  # atno 6908 bound_to 6896
  152.5463  134.1479  159.8559 H   0  0  0  0  0  0  0  0  0  0  0  0  # atno 6909 bound_to 6896
  145.9300  140.7758  142.9604 H   0  0  0  0  0  0  0  0  0  0  0  0  # atno 7974 bound_to 7965
  154.4107  140.1669  156.2138 H   0  0  0  0  0  0  0  0  0  0  0  0  # atno 8008 bound_to 7997
  155.9421  140.3407  155.6313 H   0  0  0  0  0  0  0  0  0  0  0  0  # atno 8009 bound_to 7997
  155.6975  140.0741  157.2414 H   0  0  0  0  0  0  0  0  0  0  0  0  # atno 8010 bound_to 7997
  139.5054  144.6246  151.5969 H   0  0  0  0  0  0  0  0  0  0  0  0  # atno 10167 bound_to 10162
  157.0212  130.6155  149.5721 H   0  0  0  0  0  0  0  0  0  0  0  0  # atno 10718 bound_to 10713
  154.5106  135.5770  153.6602 H   0  0  0  0  0  0  0  0  0  0  0  0  # atno 10763 bound_to 10752
  152.9896  135.6158  154.2883 H   0  0  0  0  0  0  0  0  0  0  0  0  # atno 10764 bound_to 10752
  154.2798  135.2851  155.2682 H   0  0  0  0  0  0  0  0  0  0  0  0  # atno 10765 bound_to 10752
  139.8785  134.8922  156.4078 H   0  0  0  0  0  0  0  0  0  0  0  0  # atno 11005 bound_to 11000
  144.6763  140.2112  143.7377 LP  0  0  0  0  0  0  0  0  0  0  0  0  # atno 17320 bound_to 7965
  145.8439  139.2143  143.1811 LP  0  0  0  0  0  0  0  0  0  0  0  0  # atno 17321 bound_to 7965
  140.5959  143.9698  150.6354 LP  0  0  0  0  0  0  0  0  0  0  0  0  # atno 17342 bound_to 10162
  140.2893  143.3335  152.1077 LP  0  0  0  0  0  0  0  0  0  0  0  0  # atno 17343 bound_to 10162
  156.0101  130.5192  150.7962 LP  0  0  0  0  0  0  0  0  0  0  0  0  # atno 17370 bound_to 10713
  157.5248  131.0933  151.0032 LP  0  0  0  0  0  0  0  0  0  0  0  0  # atno 17371 bound_to 10713
  140.9222  133.7637  155.9920 LP  0  0  0  0  0  0  0  0  0  0  0  0  # atno 17394 bound_to 11000
  140.8427  134.3048  157.5307 LP  0  0  0  0  0  0  0  0  0  0  0  0  # atno 17395 bound_to 11000

$$$$
