AV-unprocessed.smi:2361|AV-procd|sdf|9412|dock2
  -GOLD-   2272013 43D 1   1.00000     0.00000
 Structure written by MMmdl.
 26 27  0  0  0  0  0  0  0  0  1 V2000
  151.0933  139.7893  154.5987 O   0  0  0  0  0  0  0  0  0  0  0  0
  150.1300  140.3583  155.1125 C   0  0  0  0  0  0  0  0  0  0  0  0
  150.1162  140.8587  156.3613 N   0  0  0  0  0  0  0  0  0  0  0  0
  151.1503  140.8404  157.3389 C   0  0  0  0  0  0  0  0  0  0  0  0
  152.1680  139.8552  157.3812 C   0  0  0  0  0  0  0  0  0  0  0  0
  153.1369  139.8234  158.3204 N   0  0  0  0  0  0  0  0  0  0  0  0
  153.1284  140.7792  159.2719 C   0  0  0  0  0  0  0  0  0  0  0  0
  152.1576  141.7970  159.3375 C   0  0  0  0  0  0  0  0  0  0  0  0
  152.2229  142.9721  160.6025 Cl  0  0  0  0  0  0  0  0  0  0  0  0
  151.1453  141.8257  158.3538 C   0  0  0  0  0  0  0  0  0  0  0  0
  149.9230  143.0520  158.3904 Cl  0  0  0  0  0  0  0  0  0  0  0  0
  148.8345  140.5429  154.3130 C   0  0  1  0  0  0  0  0  0  0  0  0
  147.5562  140.1421  155.0740 C   0  0  0  0  0  0  0  0  0  0  0  0
  146.8659  141.4659  155.3378 C   0  0  0  0  0  0  0  0  0  0  0  0
  147.3297  142.3004  154.1530 C   0  0  0  0  0  0  0  0  0  0  0  0
  148.6926  141.9309  154.0160 O   0  0  0  0  0  0  0  0  0  0  0  0
  149.2863  141.3731  156.6195 H   0  0  0  0  0  0  0  0  0  0  0  0
  152.2116  139.0488  156.6661 H   0  0  0  0  0  0  0  0  0  0  0  0
  153.9174  140.7262  160.0076 H   0  0  0  0  0  0  0  0  0  0  0  0
  148.8894  139.9843  153.3768 H   0  0  0  0  0  0  0  0  0  0  0  0
  146.9303  139.5185  154.4348 H   0  0  0  0  0  0  0  0  0  0  0  0
  147.7362  139.5839  155.9937 H   0  0  0  0  0  0  0  0  0  0  0  0
  145.7811  141.3787  155.4018 H   0  0  0  0  0  0  0  0  0  0  0  0
  147.2323  141.9018  156.2681 H   0  0  0  0  0  0  0  0  0  0  0  0
  146.7844  142.0305  153.2473 H   0  0  0  0  0  0  0  0  0  0  0  0
  147.2184  143.3719  154.3195 H   0  0  0  0  0  0  0  0  0  0  0  0
  1  2  2  0  0  0  0
  2  3  1  0  0  0  0
  2 12  1  0  0  0  0
  3  4  1  0  0  0  0
  3 17  1  0  0  0  0
  4 10  1  0  0  0  0
  4  5  2  0  0  0  0
  5  6  1  0  0  0  0
  5 18  1  0  0  0  0
  6  7  2  0  0  0  0
  7  8  1  0  0  0  0
  7 19  1  0  0  0  0
  8  9  1  0  0  0  0
  8 10  2  0  0  0  0
 10 11  1  0  0  0  0
 12 16  1  0  0  0  0
 12 13  1  0  0  0  0
 12 20  1  0  0  0  0
 13 14  1  0  0  0  0
 13 21  1  0  0  0  0
 13 22  1  0  0  0  0
 14 15  1  0  0  0  0
 14 23  1  0  0  0  0
 14 24  1  0  0  0  0
 15 16  1  0  0  0  0
 15 25  1  0  0  0  0
 15 26  1  0  0  0  0
M  END
> <s_m_source_file>
AV-unprocessed.smi

> <i_m_source_file_index>
2361

> <i_lp_mmshare_version>
43012

> <i_f3d_flags>
0

> <s_epik_input>
TzFbQ0gyXVtDSDJdW0NIMl1bQ0BIXTFDKD1PKVtOSF1jMltjSF1uW2NIXWMoQ2wpYzJDbA==

> <s_epik_cmdline>
J2VwaWtfcHl0aG9uJywgJy1waCcsICc3LjAnLCAnLXRuJywgJzgnLCAnLW1hJywgJzIwMCcsICctbWV0YWxfYmluZGluZycsICctaW1hZScsICc8aW5maWxlLm1hZT4nLCAnLW9tYWUnLCAnPG91dGZpbGUubWFlPic=

> <r_lp_tautomer_probability>
1

> <r_epik_Ionization_Penalty>
7.18707e-06

> <r_epik_Ionization_Penalty_Charging>
0

> <r_epik_Ionization_Penalty_Neutral>
7.18707e-06

> <r_epik_State_Penalty>
-0

> <r_epik_Charging_Adjusted_Penalty>
0

> <i_epik_Tot_Q>
0

> <i_epik_Tot_abs_Q>
0

> <r_epik_Metal_State_Penalty>
-0

> <b_epik_Metal_Only>
0

> <s_lp_Force_Field>
OPLS_2005

> <r_lp_Energy>
24.5043

> <b_lp_Chiralities_Consistent>
1

> <s_lp_Variant>
AV-unprocessed.smi:2361-2

> <Gold.Version>
5.8.1

> <Gold.Id.Protein>
6NUR|6NUR_protein|mol2

> <Gold.PLP.Fitness>
36.0570

> <Gold.PLP.PLP>
-29.3541

> <Gold.PLP.part.hbond>
-3.0000

> <Gold.PLP.part.metal>
0.0000

> <Gold.PLP.part.buried>
-3.2371

> <Gold.PLP.part.nonpolar>
-22.8153

> <Gold.PLP.part.repulsive>
0.3303

> <Gold.PLP.ligand.clash>
0.0000

> <Gold.PLP.ligand.torsion>
0.3480

> <Gold.PLP.Chemscore.Hbond>
2.4640

> <Gold.PLP.Chemscore.CHOScore>
0.0000

> <Gold.PLP.Chemscore.Metal>
0.0000

> <Gold.Chemscore.Hbonds>
donor molecule, donor type, donor heavy atom, donor atom, acceptor molecule, acceptor atom, score
      P1  H  7989  7998       L1     1  1.00
      P1  H  7997  8009       L1     6  0.95
      P1  H  8011  8017       L1    16  0.41

> <Gold.PLP.Chemscore.Internal.Correction>
0.0069

> <Gold.Rescore>
     Score         DG    S(hbond)    S(metal)    S(lipo)     H(rot)  DE(clash)    DE(int)     intcor
     14.11     -15.71       1.42        0.00      68.73       1.00       0.05       1.56       ----

> <Gold.Chemscore.Fitness>
14.1064

> <Gold.Chemscore.DG>
-15.7147

> <Gold.Chemscore.ZeroCoef>
-5.4800

> <Gold.Chemscore.Hbond>
1.4230

> <Gold.Chemscore.Metal>
0.0000

> <Gold.Chemscore.Lipo>
68.7339

> <Gold.Chemscore.Internal_Hbond>
0.0000

> <Gold.Chemscore.DEClash>
0.0521

> <Gold.Chemscore.DEInternal>
1.5563

> <Gold.Chemscore.Rot>
1.0000

> <Gold.Chemscore.Internal.Correction>
   9.000000E+99

> <Gold.Chemscore.Hbonds>
donor molecule, donor type, donor heavy atom, donor atom, acceptor molecule, acceptor atom, score
      P1  H  7989  7998       L1     1  0.45
      P1  H  7997  8009       L1     6  0.15
      P1  H  8011  8017       L1    16  0.31

> <Gold.Chemscore.Hbond.Weighted>
-4.7529

> <Gold.Chemscore.Metal.Weighted>
-0.0000

> <Gold.Chemscore.Lipo.Weighted>
-8.0419

> <Gold.Chemscore.Internal_Hbond.Weighted>
0.0000

> <Gold.Chemscore.DEClash.Weighted>
0.0521

> <Gold.Chemscore.DEInternal.Weighted>
1.5563

> <Gold.Chemscore.Rot.Weighted>
2.5600

> <Gold.Chemscore.Internal.Correction.Weighted>
   9.000000E+99

> <Gold.Protein.RotatedTorsions>
[ 6907 6896 6895 6894 ] final  -34.62 input  -60.11 | X-H torsion
[ 7974 7965 7964 7962 ] final  152.63 input  175.53 | X-H torsion
[ 8008 7997 7996 7995 ] final  143.58 input   59.86 | X-H torsion
[ 10167 10162 10161 10158 ] final -166.44 input  -65.29 | X-H torsion
[ 10718 10713 10712 10709 ] final -155.93 input   66.30 | X-H torsion
[ 10763 10752 10751 10750 ] final -171.56 input  -60.55 | X-H torsion
[ 11005 11000 10999 10996 ] final   30.18 input  -57.11 | X-H torsion

> <Gold.Protein.ActiveResidues>
 VAL166  LYS551  ARG553  GLY616  TRP617  ASP618  TYR619  PRO620  LYS621  CYS622 
 ASP623  PHE694  ASN695  SER759  ASP760  ASP761  ALA762  ILE779  LEU786  VAL792 
 PHE793  MET794  SER795  GLU796  ALA797  LYS798  CYS799  TRP800  GLU811  SER814 

> <Gold.Protein.RotatedAtoms>
  151.0503  134.9668  159.8207 H   0  0  0  0  0  0  0  0  0  0  0  0  # atno 6907 bound_to 6896
  152.5379  134.2546  159.8922 H   0  0  0  0  0  0  0  0  0  0  0  0  # atno 6908 bound_to 6896
  151.2561  133.4282  159.2647 H   0  0  0  0  0  0  0  0  0  0  0  0  # atno 6909 bound_to 6896
  144.8209  139.6694  143.6101 H   0  0  0  0  0  0  0  0  0  0  0  0  # atno 7974 bound_to 7965
  156.2927  140.2258  156.4913 H   0  0  0  0  0  0  0  0  0  0  0  0  # atno 8008 bound_to 7997
  154.7768  140.0463  157.1117 H   0  0  0  0  0  0  0  0  0  0  0  0  # atno 8009 bound_to 7997
  154.9807  140.3078  155.4951 H   0  0  0  0  0  0  0  0  0  0  0  0  # atno 8010 bound_to 7997
  139.6114  144.0806  152.1846 H   0  0  0  0  0  0  0  0  0  0  0  0  # atno 10167 bound_to 10162
  156.5195  130.8471  151.2677 H   0  0  0  0  0  0  0  0  0  0  0  0  # atno 10718 bound_to 10713
  154.6291  135.2884  155.0237 H   0  0  0  0  0  0  0  0  0  0  0  0  # atno 10763 bound_to 10752
  154.1404  135.6519  153.4945 H   0  0  0  0  0  0  0  0  0  0  0  0  # atno 10764 bound_to 10752
  153.0271  135.5331  154.7112 H   0  0  0  0  0  0  0  0  0  0  0  0  # atno 10765 bound_to 10752
  140.2971  134.2799  155.7762 H   0  0  0  0  0  0  0  0  0  0  0  0  # atno 11005 bound_to 11000
  146.2514  139.6208  142.9424 LP  0  0  0  0  0  0  0  0  0  0  0  0  # atno 17320 bound_to 7965
  145.5108  141.0435  143.2489 LP  0  0  0  0  0  0  0  0  0  0  0  0  # atno 17321 bound_to 7965
  140.0426  144.5996  150.7399 LP  0  0  0  0  0  0  0  0  0  0  0  0  # atno 17342 bound_to 10162
  140.7322  143.2703  151.3911 LP  0  0  0  0  0  0  0  0  0  0  0  0  # atno 17343 bound_to 10162
  157.7439  130.9922  150.2628 LP  0  0  0  0  0  0  0  0  0  0  0  0  # atno 17370 bound_to 10713
  156.3163  130.3779  149.7616 LP  0  0  0  0  0  0  0  0  0  0  0  0  # atno 17371 bound_to 10713
  141.2135  133.7622  156.9711 LP  0  0  0  0  0  0  0  0  0  0  0  0  # atno 17394 bound_to 11000
  140.1143  134.9457  157.2111 LP  0  0  0  0  0  0  0  0  0  0  0  0  # atno 17395 bound_to 11000

$$$$
