AV-unprocessed.smi:2878|AV-procd|sdf|11045|dock6
  -GOLD-   2272015513D 1   1.00000     0.00000
 Structure written by MMmdl.
 42 43  0  0  0  0  0  0  0  0  1 V2000
  143.8884  135.7379  152.7193 C   0  0  0  0  0  0  0  0  0  0  0  0
  145.2820  136.0306  151.5961 S   0  0  0  0  0  0  0  0  0  0  0  0
  145.5499  134.3597  150.9211 C   0  0  2  0  0  0  0  0  0  0  0  0
  144.2247  133.8199  150.3507 C   0  0  0  0  0  0  0  0  0  0  0  0
  144.3767  132.3962  149.7967 C   0  0  0  0  0  0  0  0  0  0  0  0
  144.9177  131.4461  150.8732 C   0  0  0  0  0  0  0  0  0  0  0  0
  146.2502  131.9579  151.4383 C   0  0  0  0  0  0  0  0  0  0  0  0
  146.1300  133.3951  151.9856 C   0  0  1  0  0  0  0  0  0  0  0  0
  147.4501  133.8473  152.4196 N   0  0  0  0  0  0  0  0  0  0  0  0
  148.2695  133.1847  153.2474 C   0  0  0  0  0  0  0  0  0  0  0  0
  148.0216  132.0813  153.7333 O   0  0  0  0  0  0  0  0  0  0  0  0
  149.3916  133.8761  153.4911 N   0  0  0  0  0  0  0  0  0  0  0  0
  150.4673  133.4354  154.3716 C   0  0  0  0  0  0  0  0  0  0  0  0
  150.5969  134.3439  155.6047 C   0  0  0  0  0  0  0  0  0  0  0  0
  151.0595  135.7178  155.2525 C   0  0  0  0  0  0  0  0  0  0  0  0
  152.3115  136.1139  155.0350 N   0  0  0  0  0  0  0  0  0  0  0  0
  152.1296  137.4461  154.8213 C   0  0  0  0  0  0  0  0  0  0  0  0
  153.2541  138.3772  154.5200 C   0  0  0  0  0  0  0  0  0  0  0  0
  150.8793  137.8830  154.9097 N   0  0  0  0  0  0  0  0  0  0  0  0
  150.1520  136.7228  155.2118 O   0  0  0  0  0  0  0  0  0  0  0  0
  143.6198  136.6637  153.2277 H   0  0  0  0  0  0  0  0  0  0  0  0
  144.1554  134.9973  153.4731 H   0  0  0  0  0  0  0  0  0  0  0  0
  143.0143  135.3823  152.1751 H   0  0  0  0  0  0  0  0  0  0  0  0
  146.2546  134.4428  150.0925 H   0  0  0  0  0  0  0  0  0  0  0  0
  143.4607  133.8240  151.1297 H   0  0  0  0  0  0  0  0  0  0  0  0
  143.8630  134.4808  149.5622 H   0  0  0  0  0  0  0  0  0  0  0  0
  143.4152  132.0350  149.4311 H   0  0  0  0  0  0  0  0  0  0  0  0
  145.0512  132.4049  148.9395 H   0  0  0  0  0  0  0  0  0  0  0  0
  144.1899  131.3518  151.6800 H   0  0  0  0  0  0  0  0  0  0  0  0
  145.0495  130.4474  150.4562 H   0  0  0  0  0  0  0  0  0  0  0  0
  146.5936  131.2869  152.2268 H   0  0  0  0  0  0  0  0  0  0  0  0
  147.0077  131.9235  150.6536 H   0  0  0  0  0  0  0  0  0  0  0  0
  145.4414  133.3809  152.8327 H   0  0  0  0  0  0  0  0  0  0  0  0
  147.7528  134.7470  152.0764 H   0  0  0  0  0  0  0  0  0  0  0  0
  149.5060  134.7740  153.0442 H   0  0  0  0  0  0  0  0  0  0  0  0
  150.3020  132.4001  154.6750 H   0  0  0  0  0  0  0  0  0  0  0  0
  151.3979  133.4475  153.8033 H   0  0  0  0  0  0  0  0  0  0  0  0
  149.6373  134.4199  156.1178 H   0  0  0  0  0  0  0  0  0  0  0  0
  151.3007  133.9174  156.3203 H   0  0  0  0  0  0  0  0  0  0  0  0
  152.9051  139.2273  153.9328 H   0  0  0  0  0  0  0  0  0  0  0  0
  154.0321  137.8656  153.9530 H   0  0  0  0  0  0  0  0  0  0  0  0
  153.6892  138.7512  155.4470 H   0  0  0  0  0  0  0  0  0  0  0  0
  1  2  1  0  0  0  0
  1 21  1  0  0  0  0
  1 22  1  0  0  0  0
  1 23  1  0  0  0  0
  2  3  1  0  0  0  0
  3  8  1  0  0  0  0
  3  4  1  0  0  0  0
  3 24  1  0  0  0  0
  4  5  1  0  0  0  0
  4 25  1  0  0  0  0
  4 26  1  0  0  0  0
  5  6  1  0  0  0  0
  5 27  1  0  0  0  0
  5 28  1  0  0  0  0
  6  7  1  0  0  0  0
  6 29  1  0  0  0  0
  6 30  1  0  0  0  0
  7  8  1  0  0  0  0
  7 31  1  0  0  0  0
  7 32  1  0  0  0  0
  8  9  1  0  0  0  0
  8 33  1  0  0  0  0
  9 10  1  0  0  0  0
  9 34  1  0  0  0  0
 10 11  2  0  0  0  0
 10 12  1  0  0  0  0
 12 13  1  0  0  0  0
 12 35  1  0  0  0  0
 13 14  1  0  0  0  0
 13 36  1  0  0  0  0
 13 37  1  0  0  0  0
 14 15  1  0  0  0  0
 14 38  1  0  0  0  0
 14 39  1  0  0  0  0
 15 20  1  0  0  0  0
 15 16  2  0  0  0  0
 16 17  1  0  0  0  0
 17 18  1  0  0  0  0
 17 19  2  0  0  0  0
 18 40  1  0  0  0  0
 18 41  1  0  0  0  0
 18 42  1  0  0  0  0
 19 20  1  0  0  0  0
M  END
> <s_m_source_file>
AV-unprocessed.smi

> <i_m_source_file_index>
2878

> <i_lp_mmshare_version>
43012

> <i_f3d_flags>
0

> <s_epik_input>
W0NIM11TW0NAQEhdMVtDSDJdW0NIMl1bQ0gyXVtDSDJdW0NASF0xW05IXUMoPU8pW05IXVtDSDJdW0NIMl1jMm5jKFtDSDNdKW5vMg==

> <s_epik_cmdline>
J2VwaWtfcHl0aG9uJywgJy1waCcsICc3LjAnLCAnLXRuJywgJzgnLCAnLW1hJywgJzIwMCcsICctbWV0YWxfYmluZGluZycsICctaW1hZScsICc8aW5maWxlLm1hZT4nLCAnLW9tYWUnLCAnPG91dGZpbGUubWFlPic=

> <r_lp_tautomer_probability>
1

> <r_epik_Ionization_Penalty>
4.9299e-05

> <r_epik_Ionization_Penalty_Charging>
0

> <r_epik_Ionization_Penalty_Neutral>
4.9299e-05

> <r_epik_State_Penalty>
-0

> <r_epik_Charging_Adjusted_Penalty>
0

> <i_epik_Tot_Q>
0

> <i_epik_Tot_abs_Q>
0

> <r_epik_Metal_State_Penalty>
-0

> <b_epik_Metal_Only>
0

> <s_lp_Force_Field>
OPLS_2005

> <r_lp_Energy>
1.6378

> <b_lp_Chiralities_Consistent>
1

> <s_lp_Variant>
AV-unprocessed.smi:2878-1

> <Gold.Version>
5.8.1

> <Gold.Id.Protein>
6NUR|6NUR_protein|mol2

> <Gold.PLP.Fitness>
45.3124

> <Gold.PLP.PLP>
-38.1076

> <Gold.PLP.part.hbond>
-3.0000

> <Gold.PLP.part.metal>
0.0000

> <Gold.PLP.part.buried>
-6.1771

> <Gold.PLP.part.nonpolar>
-29.6161

> <Gold.PLP.part.repulsive>
0.3911

> <Gold.PLP.ligand.clash>
0.0000

> <Gold.PLP.ligand.torsion>
0.3927

> <Gold.PLP.Chemscore.Hbond>
2.6500

> <Gold.PLP.Chemscore.CHOScore>
0.0000

> <Gold.PLP.Chemscore.Metal>
0.0000

> <Gold.Chemscore.Hbonds>
donor molecule, donor type, donor heavy atom, donor atom, acceptor molecule, acceptor atom, score
      L1  H     9    34       P1  7948  1.00
      L1  H    12    35       P1  7948  0.10

> <Gold.PLP.Chemscore.Internal.Correction>
0.0402

> <Gold.Rescore>
     Score         DG    S(hbond)    S(metal)    S(lipo)     H(rot)  DE(clash)    DE(int)     intcor
     15.37     -15.74       1.98        0.00      76.82       2.09       0.09       0.28       ----

> <Gold.Chemscore.Fitness>
15.3674

> <Gold.Chemscore.DG>
-15.7357

> <Gold.Chemscore.ZeroCoef>
-5.4800

> <Gold.Chemscore.Hbond>
1.9831

> <Gold.Chemscore.Metal>
0.0000

> <Gold.Chemscore.Lipo>
76.8227

> <Gold.Chemscore.Internal_Hbond>
0.0000

> <Gold.Chemscore.DEClash>
0.0921

> <Gold.Chemscore.DEInternal>
0.2762

> <Gold.Chemscore.Rot>
2.0923

> <Gold.Chemscore.Internal.Correction>
   9.000000E+99

> <Gold.Chemscore.Hbonds>
donor molecule, donor type, donor heavy atom, donor atom, acceptor molecule, acceptor atom, score
      L1  H     9    34       P1  7948  0.59

> <Gold.Chemscore.Hbond.Weighted>
-6.6236

> <Gold.Chemscore.Metal.Weighted>
-0.0000

> <Gold.Chemscore.Lipo.Weighted>
-8.9883

> <Gold.Chemscore.Internal_Hbond.Weighted>
0.0000

> <Gold.Chemscore.DEClash.Weighted>
0.0921

> <Gold.Chemscore.DEInternal.Weighted>
0.2762

> <Gold.Chemscore.Rot.Weighted>
5.3562

> <Gold.Chemscore.Internal.Correction.Weighted>
   9.000000E+99

> <Gold.Protein.RotatedTorsions>
[ 6907 6896 6895 6894 ] final   60.29 input  -60.11 | X-H torsion
[ 7974 7965 7964 7962 ] final -150.24 input  175.53 | X-H torsion
[ 8008 7997 7996 7995 ] final  -88.47 input   59.86 | X-H torsion
[ 10167 10162 10161 10158 ] final  152.42 input  -65.29 | X-H torsion
[ 10718 10713 10712 10709 ] final -136.18 input   66.30 | X-H torsion
[ 10763 10752 10751 10750 ] final   67.29 input  -60.55 | X-H torsion
[ 11005 11000 10999 10996 ] final    2.09 input  -57.11 | X-H torsion

> <Gold.Protein.ActiveResidues>
 VAL166  LYS551  ARG553  GLY616  TRP617  ASP618  TYR619  PRO620  LYS621  CYS622 
 ASP623  PHE694  ASN695  SER759  ASP760  ASP761  ALA762  ILE779  LEU786  VAL792 
 PHE793  MET794  SER795  GLU796  ALA797  LYS798  CYS799  TRP800  GLU811  SER814 

> <Gold.Protein.RotatedAtoms>
  152.3990  134.6317  160.0077 H   0  0  0  0  0  0  0  0  0  0  0  0  # atno 6907 bound_to 6896
  151.6528  133.3314  159.3164 H   0  0  0  0  0  0  0  0  0  0  0  0  # atno 6908 bound_to 6896
  150.7893  134.6947  159.6561 H   0  0  0  0  0  0  0  0  0  0  0  0  # atno 6909 bound_to 6896
  144.7919  140.4958  143.5767 H   0  0  0  0  0  0  0  0  0  0  0  0  # atno 7974 bound_to 7965
  154.6752  140.0553  157.0208 H   0  0  0  0  0  0  0  0  0  0  0  0  # atno 8008 bound_to 7997
  155.1031  140.3231  155.4523 H   0  0  0  0  0  0  0  0  0  0  0  0  # atno 8009 bound_to 7997
  156.2673  140.2027  156.6156 H   0  0  0  0  0  0  0  0  0  0  0  0  # atno 8010 bound_to 7997
  139.4833  144.5360  151.7645 H   0  0  0  0  0  0  0  0  0  0  0  0  # atno 10167 bound_to 10162
  156.2742  130.7283  151.1260 H   0  0  0  0  0  0  0  0  0  0  0  0  # atno 10718 bound_to 10713
  153.0179  135.5289  154.6957 H   0  0  0  0  0  0  0  0  0  0  0  0  # atno 10763 bound_to 10752
  154.6080  135.2875  155.0466 H   0  0  0  0  0  0  0  0  0  0  0  0  # atno 10764 bound_to 10752
  154.1498  135.6564  153.5013 H   0  0  0  0  0  0  0  0  0  0  0  0  # atno 10765 bound_to 10752
  140.6082  133.9773  155.8164 H   0  0  0  0  0  0  0  0  0  0  0  0  # atno 11005 bound_to 11000
  145.5772  139.1487  143.3255 LP  0  0  0  0  0  0  0  0  0  0  0  0  # atno 17320 bound_to 7965
  146.2174  140.5903  142.9032 LP  0  0  0  0  0  0  0  0  0  0  0  0  # atno 17321 bound_to 7965
  140.4892  144.1335  150.5947 LP  0  0  0  0  0  0  0  0  0  0  0  0  # atno 17342 bound_to 10162
  140.4190  143.2620  151.9739 LP  0  0  0  0  0  0  0  0  0  0  0  0  # atno 17343 bound_to 10162
  157.7294  131.0624  150.5776 LP  0  0  0  0  0  0  0  0  0  0  0  0  # atno 17370 bound_to 10713
  156.5876  130.4320  149.5950 LP  0  0  0  0  0  0  0  0  0  0  0  0  # atno 17371 bound_to 10713
  141.0826  134.0039  157.3362 LP  0  0  0  0  0  0  0  0  0  0  0  0  # atno 17394 bound_to 11000
  139.9203  135.0200  156.8040 LP  0  0  0  0  0  0  0  0  0  0  0  0  # atno 17395 bound_to 11000

$$$$
