AV-unprocessed.smi:1279|AV-procd|sdf|5356|dock7
  -GOLD-   22720 4493D 1   1.00000     0.00000
 Structure written by MMmdl.
 46 47  0  0  0  0  0  0  0  0  2 V2000
  152.4362  141.2856  156.4503 C   0  0  0  0  0  0  0  0  0  0  0  0
  152.3299  139.9585  155.7589 C   0  0  0  0  0  0  0  0  0  0  0  0
  151.1492  139.2235  155.4472 C   0  0  0  0  0  0  0  0  0  0  0  0
  151.6435  138.1081  154.8282 C   0  0  0  0  0  0  0  0  0  0  0  0
  150.9682  137.0497  154.3064 N   0  0  0  0  0  0  0  0  0  0  0  0
  150.3412  136.0520  154.9537 C   0  0  0  0  0  0  0  0  0  0  0  0
  150.2704  135.9242  156.1762 O   0  0  0  0  0  0  0  0  0  0  0  0
  149.7932  135.1831  154.0920 N   0  0  0  0  0  0  0  0  0  0  0  0
  149.0456  133.9896  154.4715 C   0  0  0  0  0  0  0  0  0  0  0  0
  147.5248  134.2356  154.4243 C   0  0  0  0  0  0  0  0  0  0  0  0
  147.0229  134.4318  153.0407 N   0  3  2  0  0  0  0  0  0  0  0  0
  145.7946  135.2674  153.0058 C   0  0  0  0  0  0  0  0  0  0  0  0
  145.3614  135.5695  151.5598 C   0  0  0  0  0  0  0  0  0  0  0  0
  145.1649  134.2877  150.7308 C   0  0  2  0  0  0  0  0  0  0  0  0
  143.8803  133.5277  151.1057 C   0  0  0  0  0  0  0  0  0  0  0  0
  146.4280  133.4141  150.8371 C   0  0  0  0  0  0  0  0  0  0  0  0
  146.8383  133.1564  152.2983 C   0  0  0  0  0  0  0  0  0  0  0  0
  153.0172  138.1953  154.7846 N   0  0  0  0  0  0  0  0  0  0  0  0
  153.9824  137.2668  154.2288 C   0  0  0  0  0  0  0  0  0  0  0  0
  153.4374  139.3417  155.3619 N   0  0  0  0  0  0  0  0  0  0  0  0
  151.4520  141.6711  156.7166 H   0  0  0  0  0  0  0  0  0  0  0  0
  152.9190  142.0242  155.8099 H   0  0  0  0  0  0  0  0  0  0  0  0
  153.0195  141.2048  157.3677 H   0  0  0  0  0  0  0  0  0  0  0  0
  150.1232  139.4903  155.6508 H   0  0  0  0  0  0  0  0  0  0  0  0
  150.9498  137.0087  153.2980 H   0  0  0  0  0  0  0  0  0  0  0  0
  149.8957  135.3631  153.1037 H   0  0  0  0  0  0  0  0  0  0  0  0
  149.3188  133.1571  153.8207 H   0  0  0  0  0  0  0  0  0  0  0  0
  149.3658  133.7163  155.4760 H   0  0  0  0  0  0  0  0  0  0  0  0
  146.9836  133.4173  154.9022 H   0  0  0  0  0  0  0  0  0  0  0  0
  147.3050  135.1299  155.0088 H   0  0  0  0  0  0  0  0  0  0  0  0
  144.9935  134.7654  153.5500 H   0  0  0  0  0  0  0  0  0  0  0  0
  145.9788  136.2110  153.5211 H   0  0  0  0  0  0  0  0  0  0  0  0
  144.4473  136.1643  151.5590 H   0  0  0  0  0  0  0  0  0  0  0  0
  146.1238  136.1886  151.0847 H   0  0  0  0  0  0  0  0  0  0  0  0
  145.0548  134.5833  149.6867 H   0  0  0  0  0  0  0  0  0  0  0  0
  143.8893  133.1866  152.1404 H   0  0  0  0  0  0  0  0  0  0  0  0
  143.7461  132.6509  150.4716 H   0  0  0  0  0  0  0  0  0  0  0  0
  143.0015  134.1602  150.9762 H   0  0  0  0  0  0  0  0  0  0  0  0
  146.2773  132.4671  150.3175 H   0  0  0  0  0  0  0  0  0  0  0  0
  147.2510  133.9124  150.3227 H   0  0  0  0  0  0  0  0  0  0  0  0
  147.7626  132.5802  152.3017 H   0  0  0  0  0  0  0  0  0  0  0  0
  146.0892  132.5439  152.8016 H   0  0  0  0  0  0  0  0  0  0  0  0
  153.7896  136.2637  154.6100 H   0  0  0  0  0  0  0  0  0  0  0  0
  154.9975  137.5579  154.5030 H   0  0  0  0  0  0  0  0  0  0  0  0
  153.8968  137.2587  153.1420 H   0  0  0  0  0  0  0  0  0  0  0  0
  147.7323  134.9588  152.5514 H   0  0  0  0  0  0  0  0  0  0  0  0
  1  2  1  0  0  0  0
  1 21  1  0  0  0  0
  1 22  1  0  0  0  0
  1 23  1  0  0  0  0
  2 20  2  0  0  0  0
  2  3  1  0  0  0  0
  3  4  2  0  0  0  0
  3 24  1  0  0  0  0
  4  5  1  0  0  0  0
  4 18  1  0  0  0  0
  5  6  1  0  0  0  0
  5 25  1  0  0  0  0
  6  7  2  0  0  0  0
  6  8  1  0  0  0  0
  8  9  1  0  0  0  0
  8 26  1  0  0  0  0
  9 10  1  0  0  0  0
  9 27  1  0  0  0  0
  9 28  1  0  0  0  0
 10 11  1  0  0  0  0
 10 29  1  0  0  0  0
 10 30  1  0  0  0  0
 11 17  1  0  0  0  0
 11 12  1  0  0  0  0
 11 46  1  0  0  0  0
 12 13  1  0  0  0  0
 12 31  1  0  0  0  0
 12 32  1  0  0  0  0
 13 14  1  0  0  0  0
 13 33  1  0  0  0  0
 13 34  1  0  0  0  0
 14 15  1  0  0  0  0
 14 16  1  0  0  0  0
 14 35  1  0  0  0  0
 15 36  1  0  0  0  0
 15 37  1  0  0  0  0
 15 38  1  0  0  0  0
 16 17  1  0  0  0  0
 16 39  1  0  0  0  0
 16 40  1  0  0  0  0
 17 41  1  0  0  0  0
 17 42  1  0  0  0  0
 18 19  1  0  0  0  0
 18 20  1  0  0  0  0
 19 43  1  0  0  0  0
 19 44  1  0  0  0  0
 19 45  1  0  0  0  0
M  CHG  1  11   1
M  END
> <s_m_source_file>
AV-unprocessed.smi

> <i_m_source_file_index>
1279

> <i_lp_mmshare_version>
43012

> <i_f3d_flags>
0

> <s_epik_input>
W0NIM11jMVtjSF1jKG4objEpW0NIM10pW05IXUMoPU8pW05IXVtDSDJdW0NIMl1OMltDSDJdW0NIMl1bQ0hdKFtDSDNdKVtDSDJdW0NIMl0y

> <s_epik_cmdline>
J2VwaWtfcHl0aG9uJywgJy1waCcsICc3LjAnLCAnLXRuJywgJzgnLCAnLW1hJywgJzIwMCcsICctbWV0YWxfYmluZGluZycsICctaW1hZScsICc8aW5maWxlLm1hZT4nLCAnLW9tYWUnLCAnPG91dGZpbGUubWFlPic=

> <r_lp_tautomer_probability>
1

> <r_epik_Ionization_Penalty>
0.00166091

> <r_epik_Ionization_Penalty_Charging>
0.0015841

> <r_epik_Ionization_Penalty_Neutral>
7.68112e-05

> <r_epik_State_Penalty>
0.00106518

> <r_epik_Charging_Adjusted_Penalty>
0.00264928

> <i_epik_Tot_Q>
1

> <i_epik_Tot_abs_Q>
1

> <r_epik_Metal_State_Penalty>
-0

> <b_epik_Metal_Only>
0

> <s_lp_Force_Field>
OPLS_2005

> <r_lp_Energy>
19.8524

> <b_lp_Chiralities_Consistent>
1

> <s_lp_Variant>
AV-unprocessed.smi:1279-2

> <Gold.Version>
5.8.1

> <Gold.Id.Protein>
6NUR|6NUR_protein|mol2

> <Gold.PLP.Fitness>
42.3797

> <Gold.PLP.PLP>
-33.8537

> <Gold.PLP.part.hbond>
-4.5730

> <Gold.PLP.part.metal>
0.0000

> <Gold.PLP.part.buried>
-0.3195

> <Gold.PLP.part.nonpolar>
-29.4527

> <Gold.PLP.part.repulsive>
0.1251

> <Gold.PLP.ligand.clash>
0.0000

> <Gold.PLP.ligand.torsion>
1.1076

> <Gold.PLP.Chemscore.Hbond>
3.5702

> <Gold.PLP.Chemscore.CHOScore>
0.0000

> <Gold.PLP.Chemscore.Metal>
0.0000

> <Gold.Chemscore.Hbonds>
donor molecule, donor type, donor heavy atom, donor atom, acceptor molecule, acceptor atom, score
      L1  H     5    25       P1  7949  0.82
      L1  H    11    46       P1  7948  2.00
      P1  H  7997  8010       L1    20  0.63

> <Gold.PLP.Chemscore.Internal.Correction>
0.0305

> <Gold.Rescore>
     Score         DG    S(hbond)    S(metal)    S(lipo)     H(rot)  DE(clash)    DE(int)     intcor
     13.18     -15.72       1.86        0.00      66.97       1.48       1.26       1.28       ----

> <Gold.Chemscore.Fitness>
13.1764

> <Gold.Chemscore.DG>
-15.7177

> <Gold.Chemscore.ZeroCoef>
-5.4800

> <Gold.Chemscore.Hbond>
1.8565

> <Gold.Chemscore.Metal>
0.0000

> <Gold.Chemscore.Lipo>
66.9704

> <Gold.Chemscore.Internal_Hbond>
0.0000

> <Gold.Chemscore.DEClash>
1.2627

> <Gold.Chemscore.DEInternal>
1.2786

> <Gold.Chemscore.Rot>
1.4838

> <Gold.Chemscore.Internal.Correction>
   9.000000E+99

> <Gold.Chemscore.Hbonds>
donor molecule, donor type, donor heavy atom, donor atom, acceptor molecule, acceptor atom, score
      L1  H     5    25       P1  7949  0.17
      L1  H    11    46       P1  7948  0.96
      P1  H  7997  8010       L1    20  0.07

> <Gold.Chemscore.Hbond.Weighted>
-6.2007

> <Gold.Chemscore.Metal.Weighted>
-0.0000

> <Gold.Chemscore.Lipo.Weighted>
-7.8355

> <Gold.Chemscore.Internal_Hbond.Weighted>
0.0000

> <Gold.Chemscore.DEClash.Weighted>
1.2627

> <Gold.Chemscore.DEInternal.Weighted>
1.2786

> <Gold.Chemscore.Rot.Weighted>
3.7985

> <Gold.Chemscore.Internal.Correction.Weighted>
   9.000000E+99

> <Gold.Protein.RotatedTorsions>
[ 6907 6896 6895 6894 ] final   15.17 input  -60.11 | X-H torsion
[ 7974 7965 7964 7962 ] final -152.52 input  175.53 | X-H torsion
[ 8008 7997 7996 7995 ] final   79.28 input   59.86 | X-H torsion
[ 10167 10162 10161 10158 ] final -175.96 input  -65.29 | X-H torsion
[ 10718 10713 10712 10709 ] final -108.83 input   66.30 | X-H torsion
[ 10763 10752 10751 10750 ] final  169.67 input  -60.55 | X-H torsion
[ 11005 11000 10999 10996 ] final  -90.21 input  -57.11 | X-H torsion

> <Gold.Protein.ActiveResidues>
 VAL166  LYS551  ARG553  GLY616  TRP617  ASP618  TYR619  PRO620  LYS621  CYS622 
 ASP623  PHE694  ASN695  SER759  ASP760  ASP761  ALA762  ILE779  LEU786  VAL792 
 PHE793  MET794  SER795  GLU796  ALA797  LYS798  CYS799  TRP800  GLU811  SER814 

> <Gold.Protein.RotatedAtoms>
  151.8139  135.0672  160.0416 H   0  0  0  0  0  0  0  0  0  0  0  0  # atno 6907 bound_to 6896
  152.3000  133.5642  159.5621 H   0  0  0  0  0  0  0  0  0  0  0  0  # atno 6908 bound_to 6896
  150.7269  134.0220  159.3747 H   0  0  0  0  0  0  0  0  0  0  0  0  # atno 6909 bound_to 6896
  144.7790  140.4651  143.5853 H   0  0  0  0  0  0  0  0  0  0  0  0  # atno 7974 bound_to 7965
  155.8675  140.3450  155.5798 H   0  0  0  0  0  0  0  0  0  0  0  0  # atno 8008 bound_to 7997
  155.7865  140.0865  157.2051 H   0  0  0  0  0  0  0  0  0  0  0  0  # atno 8009 bound_to 7997
  154.4015  140.1491  156.3100 H   0  0  0  0  0  0  0  0  0  0  0  0  # atno 8010 bound_to 7997
  139.5554  144.2003  152.1150 H   0  0  0  0  0  0  0  0  0  0  0  0  # atno 10167 bound_to 10162
  156.0506  130.5733  150.8016 H   0  0  0  0  0  0  0  0  0  0  0  0  # atno 10718 bound_to 10713
  154.3865  135.2753  155.2180 H   0  0  0  0  0  0  0  0  0  0  0  0  # atno 10763 bound_to 10752
  154.4264  135.5987  153.6045 H   0  0  0  0  0  0  0  0  0  0  0  0  # atno 10764 bound_to 10752
  152.9833  135.5985  154.4114 H   0  0  0  0  0  0  0  0  0  0  0  0  # atno 10765 bound_to 10752
  141.1570  133.7678  156.9705 H   0  0  0  0  0  0  0  0  0  0  0  0  # atno 11005 bound_to 11000
  145.6104  139.1512  143.3079 LP  0  0  0  0  0  0  0  0  0  0  0  0  # atno 17320 bound_to 7965
  146.1987  140.6220  142.9112 LP  0  0  0  0  0  0  0  0  0  0  0  0  # atno 17321 bound_to 7965
  140.1506  144.5118  150.6689 LP  0  0  0  0  0  0  0  0  0  0  0  0  # atno 17342 bound_to 10162
  140.6825  143.2334  151.5346 LP  0  0  0  0  0  0  0  0  0  0  0  0  # atno 17343 bound_to 10162
  157.5427  131.0941  150.9805 LP  0  0  0  0  0  0  0  0  0  0  0  0  # atno 17370 bound_to 10713
  157.0084  130.5627  149.5318 LP  0  0  0  0  0  0  0  0  0  0  0  0  # atno 17371 bound_to 10713
  140.1132  134.9463  157.2096 LP  0  0  0  0  0  0  0  0  0  0  0  0  # atno 17394 bound_to 11000
  140.3167  134.2963  155.7255 LP  0  0  0  0  0  0  0  0  0  0  0  0  # atno 17395 bound_to 11000

$$$$
