AV-unprocessed.smi:937|AV-procd|sdf|4215|dock10
  -GOLD-   22720 2123D 1   1.00000     0.00000
 Structure written by MMmdl.
 46 47  0  0  0  0  0  0  0  0  2 V2000
  151.1182  143.8059  158.9740 C   0  0  0  0  0  0  0  0  0  0  0  0
  151.2755  142.6141  158.0536 C   0  0  0  0  0  0  0  0  0  0  0  0
  152.0019  141.4626  158.4266 C   0  0  0  0  0  0  0  0  0  0  0  0
  152.1060  140.3896  157.5171 C   0  0  0  0  0  0  0  0  0  0  0  0
  151.4816  140.4891  156.2543 C   0  0  0  0  0  0  0  0  0  0  0  0
  151.5768  139.3529  155.2553 C   0  0  0  0  0  0  0  0  0  0  0  0
  150.2921  139.2016  154.4247 C   0  0  0  0  0  0  0  0  0  0  0  0
  149.9749  137.7991  154.1875 N   0  0  0  0  0  0  0  0  0  0  0  0
  149.9357  136.8475  155.1353 C   0  0  0  0  0  0  0  0  0  0  0  0
  150.1877  137.0628  156.3194 O   0  0  0  0  0  0  0  0  0  0  0  0
  149.5874  135.6253  154.6943 N   0  0  0  0  0  0  0  0  0  0  0  0
  149.4523  134.3853  155.4614 C   0  0  2  0  0  0  0  0  0  0  0  0
  150.8053  133.9685  156.0732 C   0  0  0  0  0  0  0  0  0  0  0  0
  150.6899  132.6297  156.8166 C   0  0  0  0  0  0  0  0  0  0  0  0
  150.1419  131.5272  155.8973 C   0  0  0  0  0  0  0  0  0  0  0  0
  148.7844  131.9229  155.2786 C   0  0  2  0  0  0  0  0  0  0  0  0
  148.2222  130.8161  154.3628 C   0  0  0  0  0  0  0  0  0  0  0  0
  147.7942  129.7773  155.0810 F   0  0  0  0  0  0  0  0  0  0  0  0
  147.2053  131.2913  153.6439 F   0  0  0  0  0  0  0  0  0  0  0  0
  149.1665  130.3976  153.5200 F   0  0  0  0  0  0  0  0  0  0  0  0
  148.9112  133.2740  154.5418 C   0  0  0  0  0  0  0  0  0  0  0  0
  150.7700  141.6652  155.9356 C   0  0  0  0  0  0  0  0  0  0  0  0
  150.6937  142.6710  156.8344 N   0  3  0  0  0  0  0  0  0  0  0  0
  151.5859  143.6197  159.9413 H   0  0  0  0  0  0  0  0  0  0  0  0
  150.0623  144.0202  159.1425 H   0  0  0  0  0  0  0  0  0  0  0  0
  151.5840  144.6885  158.5348 H   0  0  0  0  0  0  0  0  0  0  0  0
  152.4744  141.3987  159.3962 H   0  0  0  0  0  0  0  0  0  0  0  0
  152.6597  139.5022  157.7877 H   0  0  0  0  0  0  0  0  0  0  0  0
  152.4328  139.5293  154.6023 H   0  0  0  0  0  0  0  0  0  0  0  0
  151.7869  138.4262  155.7912 H   0  0  0  0  0  0  0  0  0  0  0  0
  149.4515  139.6545  154.9510 H   0  0  0  0  0  0  0  0  0  0  0  0
  150.3847  139.7284  153.4734 H   0  0  0  0  0  0  0  0  0  0  0  0
  149.7560  137.5325  153.2385 H   0  0  0  0  0  0  0  0  0  0  0  0
  149.3947  135.5477  153.7059 H   0  0  0  0  0  0  0  0  0  0  0  0
  148.7267  134.5336  156.2632 H   0  0  0  0  0  0  0  0  0  0  0  0
  151.5554  133.8813  155.2858 H   0  0  0  0  0  0  0  0  0  0  0  0
  151.1681  134.7341  156.7597 H   0  0  0  0  0  0  0  0  0  0  0  0
  151.6653  132.3370  157.2060 H   0  0  0  0  0  0  0  0  0  0  0  0
  150.0346  132.7459  157.6807 H   0  0  0  0  0  0  0  0  0  0  0  0
  150.8640  131.3251  155.1052 H   0  0  0  0  0  0  0  0  0  0  0  0
  150.0408  130.6018  156.4650 H   0  0  0  0  0  0  0  0  0  0  0  0
  148.0749  132.0584  156.0966 H   0  0  0  0  0  0  0  0  0  0  0  0
  147.9393  133.5718  154.1465 H   0  0  0  0  0  0  0  0  0  0  0  0
  149.5701  133.1588  153.6797 H   0  0  0  0  0  0  0  0  0  0  0  0
  150.2637  141.8319  154.9959 H   0  0  0  0  0  0  0  0  0  0  0  0
  150.1729  143.5110  156.5816 H   0  0  0  0  0  0  0  0  0  0  0  0
  1  2  1  0  0  0  0
  1 24  1  0  0  0  0
  1 25  1  0  0  0  0
  1 26  1  0  0  0  0
  2 23  1  0  0  0  0
  2  3  2  0  0  0  0
  3  4  1  0  0  0  0
  3 27  1  0  0  0  0
  4  5  2  0  0  0  0
  4 28  1  0  0  0  0
  5  6  1  0  0  0  0
  5 22  1  0  0  0  0
  6  7  1  0  0  0  0
  6 29  1  0  0  0  0
  6 30  1  0  0  0  0
  7  8  1  0  0  0  0
  7 31  1  0  0  0  0
  7 32  1  0  0  0  0
  8  9  1  0  0  0  0
  8 33  1  0  0  0  0
  9 10  2  0  0  0  0
  9 11  1  0  0  0  0
 11 12  1  0  0  0  0
 11 34  1  0  0  0  0
 12 21  1  0  0  0  0
 12 13  1  0  0  0  0
 12 35  1  0  0  0  0
 13 14  1  0  0  0  0
 13 36  1  0  0  0  0
 13 37  1  0  0  0  0
 14 15  1  0  0  0  0
 14 38  1  0  0  0  0
 14 39  1  0  0  0  0
 15 16  1  0  0  0  0
 15 40  1  0  0  0  0
 15 41  1  0  0  0  0
 16 17  1  0  0  0  0
 16 21  1  0  0  0  0
 16 42  1  0  0  0  0
 17 18  1  0  0  0  0
 17 19  1  0  0  0  0
 17 20  1  0  0  0  0
 21 43  1  0  0  0  0
 21 44  1  0  0  0  0
 22 23  2  0  0  0  0
 22 45  1  0  0  0  0
 23 46  1  0  0  0  0
M  CHG  1  23   1
M  END
> <s_m_source_file>
AV-unprocessed.smi

> <i_m_source_file_index>
937

> <i_lp_mmshare_version>
43012

> <i_f3d_flags>
0

> <s_epik_input>
W0NIM11jMVtjSF1bY0hdYyhbY0hdbjEpW0NIMl1bQ0gyXVtOSF1DKD1PKVtOSF1bQ0BASF0yW0NIMl1bQ0gyXVtDSDJdW0NAQEhdKEMoRikoRilGKVtDSDJdMg==

> <s_epik_cmdline>
J2VwaWtfcHl0aG9uJywgJy1waCcsICc3LjAnLCAnLXRuJywgJzgnLCAnLW1hJywgJzIwMCcsICctbWV0YWxfYmluZGluZycsICctaW1hZScsICc8aW5maWxlLm1hZT4nLCAnLW9tYWUnLCAnPG91dGZpbGUubWFlPic=

> <r_epik_Ionization_Penalty>
1.4226

> <r_epik_Ionization_Penalty_Charging>
1.42255

> <r_epik_Ionization_Penalty_Neutral>
5.16456e-05

> <r_epik_State_Penalty>
1.50646

> <r_epik_Charging_Adjusted_Penalty>
2.92901

> <i_epik_Tot_Q>
1

> <i_epik_Tot_abs_Q>
1

> <r_epik_Metal_State_Penalty>
1.55846

> <b_epik_Metal_Only>
0

> <s_lp_Force_Field>
OPLS_2005

> <r_lp_Energy>
23.9189

> <b_lp_Chiralities_Consistent>
1

> <s_lp_Variant>
AV-unprocessed.smi:937-7

> <Gold.Version>
5.8.1

> <Gold.Id.Protein>
6NUR|6NUR_protein|mol2

> <Gold.PLP.Fitness>
48.8429

> <Gold.PLP.PLP>
-38.7859

> <Gold.PLP.part.hbond>
-3.0000

> <Gold.PLP.part.metal>
0.0000

> <Gold.PLP.part.buried>
-4.8319

> <Gold.PLP.part.nonpolar>
-30.3381

> <Gold.PLP.part.repulsive>
0.1404

> <Gold.PLP.ligand.clash>
0.0000

> <Gold.PLP.ligand.torsion>
0.9836

> <Gold.PLP.Chemscore.Hbond>
4.0000

> <Gold.PLP.Chemscore.CHOScore>
0.0000

> <Gold.PLP.Chemscore.Metal>
0.0000

> <Gold.Chemscore.Hbonds>
donor molecule, donor type, donor heavy atom, donor atom, acceptor molecule, acceptor atom, score
      L1  H     8    33       P1  7948  1.00
      L1  H    11    34       P1  7948  1.00
      L1  H    23    46       P1  8028  2.00

> <Gold.PLP.Chemscore.Internal.Correction>
0.0243

> <Gold.Rescore>
     Score         DG    S(hbond)    S(metal)    S(lipo)     H(rot)  DE(clash)    DE(int)     intcor
     19.19     -21.46       2.83        0.00      92.06       1.66       0.07       2.19       ----

> <Gold.Chemscore.Fitness>
19.1935

> <Gold.Chemscore.DG>
-21.4564

> <Gold.Chemscore.ZeroCoef>
-5.4800

> <Gold.Chemscore.Hbond>
2.8298

> <Gold.Chemscore.Metal>
0.0000

> <Gold.Chemscore.Lipo>
92.0558

> <Gold.Chemscore.Internal_Hbond>
0.0000

> <Gold.Chemscore.DEClash>
0.0679

> <Gold.Chemscore.DEInternal>
2.1949

> <Gold.Chemscore.Rot>
1.6585

> <Gold.Chemscore.Internal.Correction>
   9.000000E+99

> <Gold.Chemscore.Hbonds>
donor molecule, donor type, donor heavy atom, donor atom, acceptor molecule, acceptor atom, score
      L1  H     8    33       P1  7948  0.60
      L1  H    11    34       P1  7948  0.33
      L1  H    23    46       P1  8028  0.97

> <Gold.Chemscore.Hbond.Weighted>
-9.4516

> <Gold.Chemscore.Metal.Weighted>
-0.0000

> <Gold.Chemscore.Lipo.Weighted>
-10.7705

> <Gold.Chemscore.Internal_Hbond.Weighted>
0.0000

> <Gold.Chemscore.DEClash.Weighted>
0.0679

> <Gold.Chemscore.DEInternal.Weighted>
2.1949

> <Gold.Chemscore.Rot.Weighted>
4.2457

> <Gold.Chemscore.Internal.Correction.Weighted>
   9.000000E+99

> <Gold.Protein.RotatedTorsions>
[ 6907 6896 6895 6894 ] final  120.36 input  -60.11 | X-H torsion
[ 7974 7965 7964 7962 ] final  -77.39 input  175.53 | X-H torsion
[ 8008 7997 7996 7995 ] final  -38.90 input   59.86 | X-H torsion
[ 10167 10162 10161 10158 ] final   10.07 input  -65.29 | X-H torsion
[ 10718 10713 10712 10709 ] final  -22.97 input   66.30 | X-H torsion
[ 10763 10752 10751 10750 ] final  -81.81 input  -60.55 | X-H torsion
[ 11005 11000 10999 10996 ] final  100.70 input  -57.11 | X-H torsion

> <Gold.Protein.ActiveResidues>
 VAL166  LYS551  ARG553  GLY616  TRP617  ASP618  TYR619  PRO620  LYS621  CYS622 
 ASP623  PHE694  ASN695  SER759  ASP760  ASP761  ALA762  ILE779  LEU786  VAL792 
 PHE793  MET794  SER795  GLU796  ALA797  LYS798  CYS799  TRP800  GLU811  SER814 

> <Gold.Protein.RotatedAtoms>
  152.4403  133.7436  159.6654 H   0  0  0  0  0  0  0  0  0  0  0  0  # atno 6907 bound_to 6896
  150.8293  133.8107  159.3111 H   0  0  0  0  0  0  0  0  0  0  0  0  # atno 6908 bound_to 6896
  151.5766  135.1063  160.0059 H   0  0  0  0  0  0  0  0  0  0  0  0  # atno 6909 bound_to 6896
  145.6003  140.9410  143.1244 H   0  0  0  0  0  0  0  0  0  0  0  0  # atno 7974 bound_to 7965
  154.4030  140.1565  156.2775 H   0  0  0  0  0  0  0  0  0  0  0  0  # atno 8008 bound_to 7997
  155.8898  140.3439  155.5926 H   0  0  0  0  0  0  0  0  0  0  0  0  # atno 8009 bound_to 7997
  155.7571  140.0812  157.2164 H   0  0  0  0  0  0  0  0  0  0  0  0  # atno 8010 bound_to 7997
  140.6216  143.8191  150.7182 H   0  0  0  0  0  0  0  0  0  0  0  0  # atno 10167 bound_to 10162
  156.4973  130.4580  149.6721 H   0  0  0  0  0  0  0  0  0  0  0  0  # atno 10718 bound_to 10713
  154.5682  135.5613  153.7070 H   0  0  0  0  0  0  0  0  0  0  0  0  # atno 10763 bound_to 10752
  153.0040  135.6290  154.2151 H   0  0  0  0  0  0  0  0  0  0  0  0  # atno 10764 bound_to 10752
  154.2090  135.2874  155.2944 H   0  0  0  0  0  0  0  0  0  0  0  0  # atno 10765 bound_to 10752
  139.8771  134.9151  156.4795 H   0  0  0  0  0  0  0  0  0  0  0  0  # atno 11005 bound_to 11000
  144.7313  139.7718  143.7346 LP  0  0  0  0  0  0  0  0  0  0  0  0  # atno 17320 bound_to 7965
  146.1581  139.4686  143.0006 LP  0  0  0  0  0  0  0  0  0  0  0  0  # atno 17321 bound_to 7965
  140.1782  143.4137  152.1952 LP  0  0  0  0  0  0  0  0  0  0  0  0  # atno 17342 bound_to 10162
  139.5444  144.7285  151.4631 LP  0  0  0  0  0  0  0  0  0  0  0  0  # atno 17343 bound_to 10162
  156.3367  130.7360  151.2299 LP  0  0  0  0  0  0  0  0  0  0  0  0  # atno 17370 bound_to 10713
  157.7467  131.0415  150.4649 LP  0  0  0  0  0  0  0  0  0  0  0  0  # atno 17371 bound_to 10713
  140.8737  133.7969  155.9392 LP  0  0  0  0  0  0  0  0  0  0  0  0  # atno 17394 bound_to 11000
  140.8926  134.2477  157.5086 LP  0  0  0  0  0  0  0  0  0  0  0  0  # atno 17395 bound_to 11000

$$$$
