AV-unprocessed.smi:255|AV-procd|sdf|1949|dock9
  -GOLD-   2262021 83D 1   1.00000     0.00000
 Structure written by MMmdl.
 44 47  0  0  0  0  0  0  0  0  1 V2000
  154.2835  139.9315  160.1655 O   0  0  0  0  0  0  0  0  0  0  0  0
  153.0141  140.0469  159.5581 C   0  0  0  0  0  0  0  0  0  0  0  0
  152.8888  141.3910  158.8159 C   0  0  2  0  0  0  0  0  0  0  0  0
  152.9913  142.6014  159.7450 C   0  0  0  0  0  0  0  0  0  0  0  0
  152.3765  143.7008  158.8875 C   0  0  2  0  0  0  0  0  0  0  0  0
  151.9252  144.7235  159.6129 F   0  0  0  0  0  0  0  0  0  0  0  0
  151.2609  142.9803  158.1255 C   0  0  0  0  0  0  0  0  0  0  0  0
  151.5931  141.5571  158.1598 N   0  0  0  0  0  0  0  0  0  0  0  0
  151.4618  140.8997  156.9863 C   0  0  0  0  0  0  0  0  0  0  0  0
  152.5018  140.1830  156.4840 N   0  0  0  0  0  0  0  0  0  0  0  0
  152.3588  139.5201  155.3321 C   0  0  0  0  0  0  0  0  0  0  0  0
  151.2858  139.4414  154.5413 N   0  0  0  0  0  0  0  0  0  0  0  0
  150.2421  140.1599  155.0473 C   0  0  0  0  0  0  0  0  0  0  0  0
  150.2455  140.9091  156.2563 C   0  0  0  0  0  0  0  0  0  0  0  0
  149.0050  141.4998  156.4577 N   0  0  0  0  0  0  0  0  0  0  0  0
  148.3069  141.1262  155.4196 C   0  0  0  0  0  0  0  0  0  0  0  0
  148.9739  140.3258  154.5185 N   0  0  0  0  0  0  0  0  0  0  0  0
  148.4396  139.7752  153.2825 C   0  0  0  0  0  0  0  0  0  0  0  0
  147.2450  138.8186  153.5044 C   0  0  1  0  0  0  0  0  0  0  0  0
  146.1522  139.5602  154.0194 O   0  0  0  0  0  0  0  0  0  0  0  0
  146.7861  138.0886  152.2451 C   0  0  0  0  0  0  0  0  0  0  0  0
  146.2766  136.7614  152.7887 C   0  0  0  0  0  0  0  0  0  0  0  0
  147.2218  136.4612  153.8014 O   0  0  0  0  0  0  0  0  0  0  0  0
  147.5556  137.6669  154.4816 C   0  0  0  0  0  0  0  0  0  0  0  0
  153.6898  141.4752  158.0784 H   0  0  0  0  0  0  0  0  0  0  0  0
  153.1183  144.0907  158.1892 H   0  0  0  0  0  0  0  0  0  0  0  0
  154.7213  140.7670  160.1064 H   0  0  0  0  0  0  0  0  0  0  0  0
  152.8283  139.2009  158.8952 H   0  0  0  0  0  0  0  0  0  0  0  0
  152.2748  139.9944  160.3578 H   0  0  0  0  0  0  0  0  0  0  0  0
  152.3918  142.4443  160.6433 H   0  0  0  0  0  0  0  0  0  0  0  0
  154.0148  142.8215  160.0501 H   0  0  0  0  0  0  0  0  0  0  0  0
  150.3090  143.1080  158.6416 H   0  0  0  0  0  0  0  0  0  0  0  0
  151.1411  143.3820  157.1186 H   0  0  0  0  0  0  0  0  0  0  0  0
  153.2277  138.9733  154.9967 H   0  0  0  0  0  0  0  0  0  0  0  0
  147.2799  141.4304  155.2779 H   0  0  0  0  0  0  0  0  0  0  0  0
  148.1411  140.6048  152.6404 H   0  0  0  0  0  0  0  0  0  0  0  0
  149.2459  139.2596  152.7590 H   0  0  0  0  0  0  0  0  0  0  0  0
  145.5427  139.7229  153.3154 H   0  0  0  0  0  0  0  0  0  0  0  0
  146.0408  138.6335  151.6639 H   0  0  0  0  0  0  0  0  0  0  0  0
  147.6371  137.8908  151.5922 H   0  0  0  0  0  0  0  0  0  0  0  0
  145.2839  136.8703  153.2283 H   0  0  0  0  0  0  0  0  0  0  0  0
  146.2372  135.9802  152.0294 H   0  0  0  0  0  0  0  0  0  0  0  0
  148.6084  137.6345  154.7641 H   0  0  0  0  0  0  0  0  0  0  0  0
  146.9740  137.7399  155.4021 H   0  0  0  0  0  0  0  0  0  0  0  0
  1  2  1  0  0  0  0
  1 27  1  0  0  0  0
  2  3  1  0  0  0  0
  2 28  1  0  0  0  0
  2 29  1  0  0  0  0
  3 25  1  0  0  0  0
  3  8  1  0  0  0  0
  3  4  1  0  0  0  0
  4  5  1  0  0  0  0
  4 30  1  0  0  0  0
  4 31  1  0  0  0  0
  5 26  1  0  0  0  0
  5  6  1  0  0  0  0
  5  7  1  0  0  0  0
  7  8  1  0  0  0  0
  7 32  1  0  0  0  0
  7 33  1  0  0  0  0
  8  9  1  0  0  0  0
  9 14  1  0  0  0  0
  9 10  2  0  0  0  0
 10 11  1  0  0  0  0
 11 12  2  0  0  0  0
 11 34  1  0  0  0  0
 12 13  1  0  0  0  0
 13 17  1  0  0  0  0
 13 14  2  0  0  0  0
 14 15  1  0  0  0  0
 15 16  2  0  0  0  0
 16 17  1  0  0  0  0
 16 35  1  0  0  0  0
 17 18  1  0  0  0  0
 18 19  1  0  0  0  0
 18 36  1  0  0  0  0
 18 37  1  0  0  0  0
 19 24  1  0  0  0  0
 19 20  1  0  0  0  0
 19 21  1  0  0  0  0
 20 38  1  0  0  0  0
 21 22  1  0  0  0  0
 21 39  1  0  0  0  0
 21 40  1  0  0  0  0
 22 23  1  0  0  0  0
 22 41  1  0  0  0  0
 22 42  1  0  0  0  0
 23 24  1  0  0  0  0
 24 43  1  0  0  0  0
 24 44  1  0  0  0  0
M  END
> <s_m_source_file>
AV-unprocessed.smi

> <i_m_source_file_index>
255

> <i_lp_mmshare_version>
43012

> <i_f3d_flags>
0

> <s_epik_input>
W09IXVtDSDJdW0NAQEhdMVtDSDJdW0NASF0oRilbQ0gyXU4xYyhuW2NIXW4yKWMoYzIzKW5bY0hdbjNbQ0gyXVtDQEBdNChbT0hdKVtDSDJdW0NIMl1PW0NIMl00

> <s_epik_cmdline>
J2VwaWtfcHl0aG9uJywgJy1waCcsICc3LjAnLCAnLXRuJywgJzgnLCAnLW1hJywgJzIwMCcsICctbWV0YWxfYmluZGluZycsICctaW1hZScsICc8aW5maWxlLm1hZT4nLCAnLW9tYWUnLCAnPG91dGZpbGUubWFlPic=

> <r_lp_tautomer_probability>
1

> <r_epik_Ionization_Penalty>
0.0058098

> <r_epik_Ionization_Penalty_Charging>
0

> <r_epik_Ionization_Penalty_Neutral>
0.0058098

> <r_epik_State_Penalty>
0.00411166

> <r_epik_Charging_Adjusted_Penalty>
0.00411166

> <i_epik_Tot_Q>
0

> <i_epik_Tot_abs_Q>
0

> <r_epik_Metal_State_Penalty>
-0

> <b_epik_Metal_Only>
0

> <s_lp_Force_Field>
OPLS_2005

> <r_lp_Energy>
52.3254

> <b_lp_Chiralities_Consistent>
1

> <s_lp_Variant>
AV-unprocessed.smi:255-1

> <Gold.Version>
5.8.1

> <Gold.Id.Protein>
6NUR|6NUR_protein|mol2

> <Gold.PLP.Fitness>
48.3312

> <Gold.PLP.PLP>
-42.3579

> <Gold.PLP.part.hbond>
-3.0000

> <Gold.PLP.part.metal>
0.0000

> <Gold.PLP.part.buried>
0.2312

> <Gold.PLP.part.nonpolar>
-41.1816

> <Gold.PLP.part.repulsive>
2.0347

> <Gold.PLP.ligand.clash>
0.0000

> <Gold.PLP.ligand.torsion>
0.0760

> <Gold.PLP.Chemscore.Hbond>
2.0139

> <Gold.PLP.Chemscore.CHOScore>
0.0000

> <Gold.PLP.Chemscore.Metal>
0.0000

> <Gold.Chemscore.Hbonds>
donor molecule, donor type, donor heavy atom, donor atom, acceptor molecule, acceptor atom, score
      L1  H    20    38       P1 10175  0.63
      P1  H  7989  7998       L1    12  0.36
      P1  H  7997  8010       L1    10  0.62

> <Gold.PLP.Chemscore.Internal.Correction>
0.0836

> <Gold.Rescore>
     Score         DG    S(hbond)    S(metal)    S(lipo)     H(rot)  DE(clash)    DE(int)     intcor
      8.06      -9.48       1.00        0.00      78.44       3.33       0.95       0.47       ----

> <Gold.Chemscore.Fitness>
8.0556

> <Gold.Chemscore.DG>
-9.4807

> <Gold.Chemscore.ZeroCoef>
-5.4800

> <Gold.Chemscore.Hbond>
1.0003

> <Gold.Chemscore.Metal>
0.0000

> <Gold.Chemscore.Lipo>
78.4402

> <Gold.Chemscore.Internal_Hbond>
0.0000

> <Gold.Chemscore.DEClash>
0.9544

> <Gold.Chemscore.DEInternal>
0.4708

> <Gold.Chemscore.Rot>
3.3273

> <Gold.Chemscore.Internal.Correction>
   9.000000E+99

> <Gold.Chemscore.Hbonds>
donor molecule, donor type, donor heavy atom, donor atom, acceptor molecule, acceptor atom, score
      L1  H    20    38       P1 10175  0.61
      P1  H  7997  8010       L1    10  0.24

> <Gold.Chemscore.Hbond.Weighted>
-3.3411

> <Gold.Chemscore.Metal.Weighted>
-0.0000

> <Gold.Chemscore.Lipo.Weighted>
-9.1775

> <Gold.Chemscore.Internal_Hbond.Weighted>
0.0000

> <Gold.Chemscore.DEClash.Weighted>
0.9544

> <Gold.Chemscore.DEInternal.Weighted>
0.4708

> <Gold.Chemscore.Rot.Weighted>
8.5179

> <Gold.Chemscore.Internal.Correction.Weighted>
   9.000000E+99

> <Gold.Protein.RotatedTorsions>
[ 6907 6896 6895 6894 ] final  112.20 input  -60.11 | X-H torsion
[ 7974 7965 7964 7962 ] final -172.28 input  175.53 | X-H torsion
[ 8008 7997 7996 7995 ] final   44.36 input   59.86 | X-H torsion
[ 10167 10162 10161 10158 ] final  -12.50 input  -65.29 | X-H torsion
[ 10718 10713 10712 10709 ] final   -6.48 input   66.30 | X-H torsion
[ 10763 10752 10751 10750 ] final  -54.33 input  -60.55 | X-H torsion
[ 11005 11000 10999 10996 ] final   15.99 input  -57.11 | X-H torsion

> <Gold.Protein.ActiveResidues>
 VAL166  LYS551  ARG553  GLY616  TRP617  ASP618  TYR619  PRO620  LYS621  CYS622 
 ASP623  PHE694  ASN695  SER759  ASP760  ASP761  ALA762  ILE779  LEU786  VAL792 
 PHE793  MET794  SER795  GLU796  ALA797  LYS798  CYS799  TRP800  GLU811  SER814 

> <Gold.Protein.RotatedAtoms>
  152.4929  133.8549  159.7220 H   0  0  0  0  0  0  0  0  0  0  0  0  # atno 6907 bound_to 6896
  150.9076  133.7029  159.2869 H   0  0  0  0  0  0  0  0  0  0  0  0  # atno 6908 bound_to 6896
  151.4449  135.1028  159.9733 H   0  0  0  0  0  0  0  0  0  0  0  0  # atno 6909 bound_to 6896
  144.7148  140.1796  143.6359 H   0  0  0  0  0  0  0  0  0  0  0  0  # atno 7974 bound_to 7965
  155.3180  140.3395  155.4242 H   0  0  0  0  0  0  0  0  0  0  0  0  # atno 8008 bound_to 7997
  156.1923  140.1702  156.8105 H   0  0  0  0  0  0  0  0  0  0  0  0  # atno 8009 bound_to 7997
  154.5457  140.0716  156.8568 H   0  0  0  0  0  0  0  0  0  0  0  0  # atno 8010 bound_to 7997
  140.7162  143.5525  150.9285 H   0  0  0  0  0  0  0  0  0  0  0  0  # atno 10167 bound_to 10162
  156.7313  130.5181  149.5845 H   0  0  0  0  0  0  0  0  0  0  0  0  # atno 10718 bound_to 10713
  154.1731  135.6456  153.5014 H   0  0  0  0  0  0  0  0  0  0  0  0  # atno 10763 bound_to 10752
  153.0079  135.5388  154.6592 H   0  0  0  0  0  0  0  0  0  0  0  0  # atno 10764 bound_to 10752
  154.5936  135.2936  155.0582 H   0  0  0  0  0  0  0  0  0  0  0  0  # atno 10765 bound_to 10752
  140.4521  134.1214  155.7704 H   0  0  0  0  0  0  0  0  0  0  0  0  # atno 11005 bound_to 11000
  145.8868  139.2353  143.1573 LP  0  0  0  0  0  0  0  0  0  0  0  0  # atno 17320 bound_to 7965
  145.9942  140.8577  143.0051 LP  0  0  0  0  0  0  0  0  0  0  0  0  # atno 17321 bound_to 7965
  139.9250  143.6561  152.3089 LP  0  0  0  0  0  0  0  0  0  0  0  0  # atno 17342 bound_to 10162
  139.6991  144.7637  151.1304 LP  0  0  0  0  0  0  0  0  0  0  0  0  # atno 17343 bound_to 10162
  156.1527  130.6321  151.0617 LP  0  0  0  0  0  0  0  0  0  0  0  0  # atno 17370 bound_to 10713
  157.6858  131.0825  150.7247 LP  0  0  0  0  0  0  0  0  0  0  0  0  # atno 17371 bound_to 10713
  141.1659  133.8703  157.1714 LP  0  0  0  0  0  0  0  0  0  0  0  0  # atno 17394 bound_to 11000
  140.0000  135.0031  157.0169 LP  0  0  0  0  0  0  0  0  0  0  0  0  # atno 17395 bound_to 11000

$$$$
