AV-unprocessed.smi:791|AV-procd|sdf|3748|dock9
  -GOLD-   22720 1183D 1   1.00000     0.00000
 Structure written by MMmdl.
 30 32  0  0  0  0  0  0  0  0  2 V2000
  152.1818  144.7213  159.6468 C   0  0  0  0  0  0  0  0  0  0  0  0
  151.0010  145.2873  158.8398 C   0  0  0  0  0  0  0  0  0  0  0  0
  149.9319  144.2749  158.6952 N   0  3  0  0  0  0  0  0  0  0  0  0
  150.3957  143.0333  158.0375 C   0  0  0  0  0  0  0  0  0  0  0  0
  151.5825  142.4155  158.8036 C   0  0  1  0  0  0  0  0  0  0  0  0
  152.0612  141.1472  158.1672 C   0  0  0  0  0  0  0  0  0  0  0  0
  153.0799  140.4646  158.6762 N   0  0  0  0  0  0  0  0  0  0  0  0
  153.1936  139.3619  157.8176 O   0  0  0  0  0  0  0  0  0  0  0  0
  152.2314  139.5240  156.8789 C   0  0  0  0  0  0  0  0  0  0  0  0
  152.0732  138.4831  155.8237 C   0  0  0  0  0  0  0  0  0  0  0  0
  152.6223  138.7037  154.4331 C   0  0  0  0  0  0  0  0  0  0  0  0
  151.1317  138.6943  154.6598 C   0  0  0  0  0  0  0  0  0  0  0  0
  151.4773  140.6048  157.0621 N   0  0  0  0  0  0  0  0  0  0  0  0
  152.7211  143.4343  159.0040 C   0  0  0  0  0  0  0  0  0  0  0  0
  151.8617  144.5146  160.6690 H   0  0  0  0  0  0  0  0  0  0  0  0
  152.9770  145.4644  159.7162 H   0  0  0  0  0  0  0  0  0  0  0  0
  150.5924  146.1685  159.3347 H   0  0  0  0  0  0  0  0  0  0  0  0
  151.3333  145.6029  157.8500 H   0  0  0  0  0  0  0  0  0  0  0  0
  149.5855  144.0410  159.6148 H   0  0  0  0  0  0  0  0  0  0  0  0
  149.5655  142.3282  157.9888 H   0  0  0  0  0  0  0  0  0  0  0  0
  150.6802  143.2628  157.0095 H   0  0  0  0  0  0  0  0  0  0  0  0
  151.2149  142.1567  159.7987 H   0  0  0  0  0  0  0  0  0  0  0  0
  152.1470  137.4845  156.2498 H   0  0  0  0  0  0  0  0  0  0  0  0
  153.0922  139.6622  154.2214 H   0  0  0  0  0  0  0  0  0  0  0  0
  153.0580  137.8473  153.9228 H   0  0  0  0  0  0  0  0  0  0  0  0
  150.5742  137.8312  154.3022 H   0  0  0  0  0  0  0  0  0  0  0  0
  150.6097  139.6471  154.5951 H   0  0  0  0  0  0  0  0  0  0  0  0
  153.1801  143.6758  158.0441 H   0  0  0  0  0  0  0  0  0  0  0  0
  153.5079  143.0068  159.6268 H   0  0  0  0  0  0  0  0  0  0  0  0
  149.1761  144.6697  158.1537 H   0  0  0  0  0  0  0  0  0  0  0  0
  1 14  1  0  0  0  0
  1  2  1  0  0  0  0
  1 15  1  0  0  0  0
  1 16  1  0  0  0  0
  2  3  1  0  0  0  0
  2 17  1  0  0  0  0
  2 18  1  0  0  0  0
  3  4  1  0  0  0  0
  3 19  1  0  0  0  0
  3 30  1  0  0  0  0
  4  5  1  0  0  0  0
  4 20  1  0  0  0  0
  4 21  1  0  0  0  0
  5  6  1  0  0  0  0
  5 14  1  0  0  0  0
  5 22  1  0  0  0  0
  6 13  1  0  0  0  0
  6  7  2  0  0  0  0
  7  8  1  0  0  0  0
  8  9  1  0  0  0  0
  9 10  1  0  0  0  0
  9 13  2  0  0  0  0
 10 12  1  0  0  0  0
 10 11  1  0  0  0  0
 10 23  1  0  0  0  0
 11 12  1  0  0  0  0
 11 24  1  0  0  0  0
 11 25  1  0  0  0  0
 12 26  1  0  0  0  0
 12 27  1  0  0  0  0
 14 28  1  0  0  0  0
 14 29  1  0  0  0  0
M  CHG  1   3   1
M  END
> <s_m_source_file>
AV-unprocessed.smi

> <i_m_source_file_index>
791

> <i_lp_mmshare_version>
43012

> <i_f3d_flags>
0

> <s_epik_input>
W0NIMl0xW0NIMl1bQ0gyXVtOSF1bQ0gyXVtDQEhdMWMybm9jKG4yKVtDSF0zW0NIMl1bQ0gyXTM=

> <s_epik_cmdline>
J2VwaWtfcHl0aG9uJywgJy1waCcsICc3LjAnLCAnLXRuJywgJzgnLCAnLW1hJywgJzIwMCcsICctbWV0YWxfYmluZGluZycsICctaW1hZScsICc8aW5maWxlLm1hZT4nLCAnLW9tYWUnLCAnPG91dGZpbGUubWFlPic=

> <r_lp_tautomer_probability>
1

> <r_epik_Ionization_Penalty>
0.000532935

> <r_epik_Ionization_Penalty_Charging>
0.000532935

> <r_epik_Ionization_Penalty_Neutral>
2.72852e-13

> <r_epik_State_Penalty>
0.000332992

> <r_epik_Charging_Adjusted_Penalty>
0.000865928

> <i_epik_Tot_Q>
1

> <i_epik_Tot_abs_Q>
1

> <r_epik_Metal_State_Penalty>
-0

> <b_epik_Metal_Only>
0

> <s_lp_Force_Field>
OPLS_2005

> <r_lp_Energy>
11.8714

> <b_lp_Chiralities_Consistent>
1

> <s_lp_Variant>
AV-unprocessed.smi:791-1

> <Gold.Version>
5.8.1

> <Gold.Id.Protein>
6NUR|6NUR_protein|mol2

> <Gold.PLP.Fitness>
37.4422

> <Gold.PLP.PLP>
-30.1104

> <Gold.PLP.part.hbond>
-3.1160

> <Gold.PLP.part.metal>
0.0000

> <Gold.PLP.part.buried>
-2.7112

> <Gold.PLP.part.nonpolar>
-23.3124

> <Gold.PLP.part.repulsive>
0.1220

> <Gold.PLP.ligand.clash>
0.0000

> <Gold.PLP.ligand.torsion>
0.4201

> <Gold.PLP.Chemscore.Hbond>
2.6650

> <Gold.PLP.Chemscore.CHOScore>
0.0000

> <Gold.PLP.Chemscore.Metal>
0.0000

> <Gold.Chemscore.Hbonds>
donor molecule, donor type, donor heavy atom, donor atom, acceptor molecule, acceptor atom, score
      L1  H     3    30       P1  8029  2.00
      P1  H  7997  8010       L1     8  0.63

> <Gold.PLP.Chemscore.Internal.Correction>
0.1769

> <Gold.Rescore>
     Score         DG    S(hbond)    S(metal)    S(lipo)     H(rot)  DE(clash)    DE(int)     intcor
     13.66     -13.96       0.97        0.00      71.90       1.23       0.02       0.29       ----

> <Gold.Chemscore.Fitness>
13.6579

> <Gold.Chemscore.DG>
-13.9641

> <Gold.Chemscore.ZeroCoef>
-5.4800

> <Gold.Chemscore.Hbond>
0.9651

> <Gold.Chemscore.Metal>
0.0000

> <Gold.Chemscore.Lipo>
71.9021

> <Gold.Chemscore.Internal_Hbond>
0.0000

> <Gold.Chemscore.DEClash>
0.0174

> <Gold.Chemscore.DEInternal>
0.2888

> <Gold.Chemscore.Rot>
1.2312

> <Gold.Chemscore.Internal.Correction>
   9.000000E+99

> <Gold.Chemscore.Hbonds>
donor molecule, donor type, donor heavy atom, donor atom, acceptor molecule, acceptor atom, score
      L1  H     3    30       P1  8029  0.25
      P1  H  7997  8010       L1     8  0.01

> <Gold.Chemscore.Hbond.Weighted>
-3.2233

> <Gold.Chemscore.Metal.Weighted>
-0.0000

> <Gold.Chemscore.Lipo.Weighted>
-8.4126

> <Gold.Chemscore.Internal_Hbond.Weighted>
0.0000

> <Gold.Chemscore.DEClash.Weighted>
0.0174

> <Gold.Chemscore.DEInternal.Weighted>
0.2888

> <Gold.Chemscore.Rot.Weighted>
3.1518

> <Gold.Chemscore.Internal.Correction.Weighted>
   9.000000E+99

> <Gold.Protein.RotatedTorsions>
[ 6907 6896 6895 6894 ] final  -55.18 input  -60.11 | X-H torsion
[ 7974 7965 7964 7962 ] final   68.56 input  175.53 | X-H torsion
[ 8008 7997 7996 7995 ] final   41.20 input   59.86 | X-H torsion
[ 10167 10162 10161 10158 ] final   -4.41 input  -65.29 | X-H torsion
[ 10718 10713 10712 10709 ] final  126.55 input   66.30 | X-H torsion
[ 10763 10752 10751 10750 ] final  136.38 input  -60.55 | X-H torsion
[ 11005 11000 10999 10996 ] final -122.52 input  -57.11 | X-H torsion

> <Gold.Protein.ActiveResidues>
 VAL166  LYS551  ARG553  GLY616  TRP617  ASP618  TYR619  PRO620  LYS621  CYS622 
 ASP623  PHE694  ASN695  SER759  ASP760  ASP761  ALA762  ILE779  LEU786  VAL792 
 PHE793  MET794  SER795  GLU796  ALA797  LYS798  CYS799  TRP800  GLU811  SER814 

> <Gold.Protein.RotatedAtoms>
  150.8274  134.7511  159.6824 H   0  0  0  0  0  0  0  0  0  0  0  0  # atno 6907 bound_to 6896
  152.4383  134.5639  159.9911 H   0  0  0  0  0  0  0  0  0  0  0  0  # atno 6908 bound_to 6896
  151.5808  133.3340  159.3044 H   0  0  0  0  0  0  0  0  0  0  0  0  # atno 6909 bound_to 6896
  145.8012  139.2983  143.1154 H   0  0  0  0  0  0  0  0  0  0  0  0  # atno 7974 bound_to 7965
  155.2658  140.3362  155.4269 H   0  0  0  0  0  0  0  0  0  0  0  0  # atno 8008 bound_to 7997
  156.2155  140.1787  156.7641 H   0  0  0  0  0  0  0  0  0  0  0  0  # atno 8009 bound_to 7997
  154.5747  140.0664  156.9001 H   0  0  0  0  0  0  0  0  0  0  0  0  # atno 8010 bound_to 7997
  140.6926  143.6427  150.8421 H   0  0  0  0  0  0  0  0  0  0  0  0  # atno 10167 bound_to 10162
  157.5409  131.1097  150.8860 H   0  0  0  0  0  0  0  0  0  0  0  0  # atno 10718 bound_to 10713
  153.8555  135.3074  155.3435 H   0  0  0  0  0  0  0  0  0  0  0  0  # atno 10763 bound_to 10752
  154.7872  135.4803  153.9975 H   0  0  0  0  0  0  0  0  0  0  0  0  # atno 10764 bound_to 10752
  153.1493  135.6840  153.9001 H   0  0  0  0  0  0  0  0  0  0  0  0  # atno 10765 bound_to 10752
  140.9989  134.0432  157.3563 H   0  0  0  0  0  0  0  0  0  0  0  0  # atno 11005 bound_to 11000
  145.9876  140.8630  143.0082 LP  0  0  0  0  0  0  0  0  0  0  0  0  # atno 17320 bound_to 7965
  144.6768  140.2170  143.7371 LP  0  0  0  0  0  0  0  0  0  0  0  0  # atno 17321 bound_to 7965
  140.0142  143.5611  152.2827 LP  0  0  0  0  0  0  0  0  0  0  0  0  # atno 17342 bound_to 10162
  139.6345  144.7648  151.2466 LP  0  0  0  0  0  0  0  0  0  0  0  0  # atno 17343 bound_to 10162
  156.9413  130.5385  149.5280 LP  0  0  0  0  0  0  0  0  0  0  0  0  # atno 17370 bound_to 10713
  156.0496  130.5567  150.8959 LP  0  0  0  0  0  0  0  0  0  0  0  0  # atno 17371 bound_to 10713
  139.9028  135.0170  156.7350 LP  0  0  0  0  0  0  0  0  0  0  0  0  # atno 17394 bound_to 11000
  140.6921  133.9380  155.7973 LP  0  0  0  0  0  0  0  0  0  0  0  0  # atno 17395 bound_to 11000

$$$$
