AV-unprocessed.smi:110|AV-procd|sdf|1073|dock8
  -GOLD-   2262018163D 1   1.00000     0.00000
 Structure written by MMmdl.
 46 50  0  0  0  0  0  0  0  0  1 V2000
  144.7371  143.4187  154.1135 O   0  0  0  0  0  0  0  0  0  0  0  0
  145.0188  142.2665  154.8792 C   0  0  0  0  0  0  0  0  0  0  0  0
  146.5402  142.0627  154.9868 C   0  0  1  0  0  0  0  0  0  0  0  0
  146.8651  141.1349  156.0215 O   0  0  0  0  0  0  0  0  0  0  0  0
  148.0535  140.4628  155.7244 C   0  0  2  0  0  0  0  0  0  0  0  0
  149.0774  140.7495  156.7826 N   0  0  0  0  0  0  0  0  0  0  0  0
  148.9212  141.5607  157.8833 C   0  0  0  0  0  0  0  0  0  0  0  0
  149.9606  141.6487  158.6667 N   0  0  0  0  0  0  0  0  0  0  0  0
  150.9187  140.8481  158.0567 C   0  0  0  0  0  0  0  0  0  0  0  0
  152.2633  140.4908  158.3641 C   0  0  0  0  0  0  0  0  0  0  0  0
  152.9496  140.9311  159.4447 N   0  0  0  0  0  0  0  0  0  0  0  0
  153.9868  140.0763  160.0397 C   0  0  0  0  0  0  0  0  0  0  0  0
  154.2648  140.6035  161.4601 C   0  0  0  0  0  0  0  0  0  0  0  0
  153.4090  141.8287  161.4824 C   0  0  0  0  0  0  0  0  0  0  0  0
  153.3083  142.7781  162.5140 C   0  0  0  0  0  0  0  0  0  0  0  0
  152.4530  143.8838  162.3187 C   0  0  0  0  0  0  0  0  0  0  0  0
  151.7322  144.0252  161.1100 C   0  0  0  0  0  0  0  0  0  0  0  0
  151.8514  143.0596  160.0861 C   0  0  0  0  0  0  0  0  0  0  0  0
  152.6895  141.9453  160.2970 C   0  0  0  0  0  0  0  0  0  0  0  0
  152.8824  139.6060  157.5420 N   0  0  0  0  0  0  0  0  0  0  0  0
  152.2487  139.1333  156.4661 C   0  0  0  0  0  0  0  0  0  0  0  0
  151.0118  139.3988  156.0447 N   0  0  0  0  0  0  0  0  0  0  0  0
  150.3681  140.2646  156.8794 C   0  0  0  0  0  0  0  0  0  0  0  0
  148.4998  140.8858  154.3102 C   0  0  2  0  0  0  0  0  0  0  0  0
  149.5421  141.8455  154.2989 O   0  0  0  0  0  0  0  0  0  0  0  0
  147.2202  141.4783  153.7413 C   0  0  1  0  0  0  0  0  0  0  0  0
  146.4241  140.4675  153.1487 O   0  0  0  0  0  0  0  0  0  0  0  0
  147.0225  143.0164  155.2053 H   0  0  0  0  0  0  0  0  0  0  0  0
  147.8738  139.3901  155.8037 H   0  0  0  0  0  0  0  0  0  0  0  0
  148.8405  140.0110  153.7547 H   0  0  0  0  0  0  0  0  0  0  0  0
  147.4124  142.2410  152.9852 H   0  0  0  0  0  0  0  0  0  0  0  0
  144.0170  143.2256  153.5330 H   0  0  0  0  0  0  0  0  0  0  0  0
  144.5557  142.3445  155.8632 H   0  0  0  0  0  0  0  0  0  0  0  0
  144.5614  141.4179  154.3697 H   0  0  0  0  0  0  0  0  0  0  0  0
  148.0013  142.0875  158.0922 H   0  0  0  0  0  0  0  0  0  0  0  0
  153.6651  139.0343  160.0652 H   0  0  0  0  0  0  0  0  0  0  0  0
  154.8892  140.1321  159.4297 H   0  0  0  0  0  0  0  0  0  0  0  0
  153.9410  139.9004  162.2278 H   0  0  0  0  0  0  0  0  0  0  0  0
  155.3160  140.8500  161.6124 H   0  0  0  0  0  0  0  0  0  0  0  0
  153.8731  142.6678  163.4279 H   0  0  0  0  0  0  0  0  0  0  0  0
  152.3556  144.6308  163.0927 H   0  0  0  0  0  0  0  0  0  0  0  0
  151.0892  144.8807  160.9661 H   0  0  0  0  0  0  0  0  0  0  0  0
  151.3110  143.1841  159.1595 H   0  0  0  0  0  0  0  0  0  0  0  0
  152.8121  138.4427  155.8561 H   0  0  0  0  0  0  0  0  0  0  0  0
  150.0800  141.7123  155.0645 H   0  0  0  0  0  0  0  0  0  0  0  0
  145.6120  140.8553  152.8602 H   0  0  0  0  0  0  0  0  0  0  0  0
  1  2  1  0  0  0  0
  1 32  1  0  0  0  0
  2  3  1  0  0  0  0
  2 33  1  0  0  0  0
  2 34  1  0  0  0  0
  3 28  1  0  0  0  0
  3 26  1  0  0  0  0
  3  4  1  0  0  0  0
  4  5  1  0  0  0  0
  5 29  1  0  0  0  0
  5  6  1  0  0  0  0
  5 24  1  0  0  0  0
  6 23  1  0  0  0  0
  6  7  1  0  0  0  0
  7  8  2  0  0  0  0
  7 35  1  0  0  0  0
  8  9  1  0  0  0  0
  9 23  2  0  0  0  0
  9 10  1  0  0  0  0
 10 11  1  0  0  0  0
 10 20  2  0  0  0  0
 11 19  1  0  0  0  0
 11 12  1  0  0  0  0
 12 13  1  0  0  0  0
 12 36  1  0  0  0  0
 12 37  1  0  0  0  0
 13 14  1  0  0  0  0
 13 38  1  0  0  0  0
 13 39  1  0  0  0  0
 14 19  2  0  0  0  0
 14 15  1  0  0  0  0
 15 16  2  0  0  0  0
 15 40  1  0  0  0  0
 16 17  1  0  0  0  0
 16 41  1  0  0  0  0
 17 18  2  0  0  0  0
 17 42  1  0  0  0  0
 18 19  1  0  0  0  0
 18 43  1  0  0  0  0
 20 21  1  0  0  0  0
 21 22  2  0  0  0  0
 21 44  1  0  0  0  0
 22 23  1  0  0  0  0
 24 30  1  0  0  0  0
 24 25  1  0  0  0  0
 24 26  1  0  0  0  0
 25 45  1  0  0  0  0
 26 31  1  0  0  0  0
 26 27  1  0  0  0  0
 27 46  1  0  0  0  0
M  END
> <s_m_source_file>
AV-unprocessed.smi

> <i_m_source_file_index>
110

> <i_lp_mmshare_version>
43012

> <i_f3d_flags>
0

> <s_epik_input>
W09IXVtDSDJdW0NASF0xT1tDQEhdKFtDQEhdKFtPSF0pW0NAQEhdMVtPSF0pbihbY0hdbjIpYyhjMjMpbltjSF1uYzNOKFtDSDJdW0NIMl00KWMoYzQ1KVtjSF1bY0hdW2NIXVtjSF01

> <s_epik_cmdline>
J2VwaWtfcHl0aG9uJywgJy1waCcsICc3LjAnLCAnLXRuJywgJzgnLCAnLW1hJywgJzIwMCcsICctbWV0YWxfYmluZGluZycsICctaW1hZScsICc8aW5maWxlLm1hZT4nLCAnLW9tYWUnLCAnPG91dGZpbGUubWFlPic=

> <r_lp_tautomer_probability>
1

> <r_epik_Ionization_Penalty>
0.00068475

> <r_epik_Ionization_Penalty_Charging>
0

> <r_epik_Ionization_Penalty_Neutral>
0.00068475

> <r_epik_State_Penalty>
0.000417442

> <r_epik_Charging_Adjusted_Penalty>
0.000417442

> <i_epik_Tot_Q>
0

> <i_epik_Tot_abs_Q>
0

> <r_epik_Metal_State_Penalty>
-0

> <b_epik_Metal_Only>
0

> <s_epik_Chemistry_Notes>
This compound contains an acetal/aminal-like group ( X-CH(R)-Y where X, Y are N, S, or O) that may be acid/base labile, releasing an aldehyde.

> <s_lp_Force_Field>
OPLS_2005

> <r_lp_Energy>
62.4803

> <b_lp_Chiralities_Consistent>
1

> <s_lp_Variant>
AV-unprocessed.smi:110-11

> <Gold.Version>
5.8.1

> <Gold.Id.Protein>
6NUR|6NUR_protein|mol2

> <Gold.PLP.Fitness>
61.2040

> <Gold.PLP.PLP>
-52.3046

> <Gold.PLP.part.hbond>
-5.6285

> <Gold.PLP.part.metal>
0.0000

> <Gold.PLP.part.buried>
-6.3003

> <Gold.PLP.part.nonpolar>
-40.3405

> <Gold.PLP.part.repulsive>
0.0915

> <Gold.PLP.ligand.clash>
0.0000

> <Gold.PLP.ligand.torsion>
0.3422

> <Gold.PLP.Chemscore.Hbond>
3.1735

> <Gold.PLP.Chemscore.CHOScore>
0.0000

> <Gold.PLP.Chemscore.Metal>
0.0000

> <Gold.Chemscore.Hbonds>
donor molecule, donor type, donor heavy atom, donor atom, acceptor molecule, acceptor atom, score
      L1  H     1    32       P1 10174  0.76
      L1  H    27    46       P1 10175  0.90
      P1  H  7997  8009       L1    20  1.00
      P1  H  8011  8017       L1    25  0.41

> <Gold.PLP.Chemscore.Internal.Correction>
0.0633

> <Gold.Rescore>
     Score         DG    S(hbond)    S(metal)    S(lipo)     H(rot)  DE(clash)    DE(int)     intcor
     15.22     -17.16       2.28        0.00     108.90       3.38       0.03       1.92       ----

> <Gold.Chemscore.Fitness>
15.2203

> <Gold.Chemscore.DG>
-17.1642

> <Gold.Chemscore.ZeroCoef>
-5.4800

> <Gold.Chemscore.Hbond>
2.2769

> <Gold.Chemscore.Metal>
0.0000

> <Gold.Chemscore.Lipo>
108.9015

> <Gold.Chemscore.Internal_Hbond>
0.0000

> <Gold.Chemscore.DEClash>
0.0278

> <Gold.Chemscore.DEInternal>
1.9160

> <Gold.Chemscore.Rot>
3.3837

> <Gold.Chemscore.Internal.Correction>
   9.000000E+99

> <Gold.Chemscore.Hbonds>
donor molecule, donor type, donor heavy atom, donor atom, acceptor molecule, acceptor atom, score
      L1  H     1    32       P1 10174  0.13
      L1  H    27    46       P1 10175  0.30
      P1  H  7997  8009       L1    20  0.47
      P1  H  8011  8017       L1    25  0.23

> <Gold.Chemscore.Hbond.Weighted>
-7.6049

> <Gold.Chemscore.Metal.Weighted>
-0.0000

> <Gold.Chemscore.Lipo.Weighted>
-12.7415

> <Gold.Chemscore.Internal_Hbond.Weighted>
0.0000

> <Gold.Chemscore.DEClash.Weighted>
0.0278

> <Gold.Chemscore.DEInternal.Weighted>
1.9160

> <Gold.Chemscore.Rot.Weighted>
8.6622

> <Gold.Chemscore.Internal.Correction.Weighted>
   9.000000E+99

> <Gold.Protein.RotatedTorsions>
[ 6907 6896 6895 6894 ] final -118.43 input  -60.11 | X-H torsion
[ 7974 7965 7964 7962 ] final -178.72 input  175.53 | X-H torsion
[ 8008 7997 7996 7995 ] final  159.10 input   59.86 | X-H torsion
[ 10167 10162 10161 10158 ] final  157.57 input  -65.29 | X-H torsion
[ 10718 10713 10712 10709 ] final -139.42 input   66.30 | X-H torsion
[ 10763 10752 10751 10750 ] final -153.02 input  -60.55 | X-H torsion
[ 11005 11000 10999 10996 ] final  -44.38 input  -57.11 | X-H torsion

> <Gold.Protein.ActiveResidues>
 VAL166  LYS551  ARG553  GLY616  TRP617  ASP618  TYR619  PRO620  LYS621  CYS622 
 ASP623  PHE694  ASN695  SER759  ASP760  ASP761  ALA762  ILE779  LEU786  VAL792 
 PHE793  MET794  SER795  GLU796  ALA797  LYS798  CYS799  TRP800  GLU811  SER814 

> <Gold.Protein.RotatedAtoms>
  150.8219  133.8238  159.3135 H   0  0  0  0  0  0  0  0  0  0  0  0  # atno 6907 bound_to 6896
  151.5993  135.1046  160.0066 H   0  0  0  0  0  0  0  0  0  0  0  0  # atno 6908 bound_to 6896
  152.4307  133.7232  159.6602 H   0  0  0  0  0  0  0  0  0  0  0  0  # atno 6909 bound_to 6896
  144.7132  140.0826  143.6425 H   0  0  0  0  0  0  0  0  0  0  0  0  # atno 7974 bound_to 7965
  156.2261  140.1840  156.7360 H   0  0  0  0  0  0  0  0  0  0  0  0  # atno 8008 bound_to 7997
  154.5943  140.0646  156.9310 H   0  0  0  0  0  0  0  0  0  0  0  0  # atno 8009 bound_to 7997
  155.2283  140.3313  155.4309 H   0  0  0  0  0  0  0  0  0  0  0  0  # atno 8010 bound_to 7997
  139.4823  144.4905  151.8315 H   0  0  0  0  0  0  0  0  0  0  0  0  # atno 10167 bound_to 10162
  156.3105  130.7479  151.1554 H   0  0  0  0  0  0  0  0  0  0  0  0  # atno 10718 bound_to 10713
  154.7956  135.3222  154.7675 H   0  0  0  0  0  0  0  0  0  0  0  0  # atno 10763 bound_to 10752
  153.8354  135.6875  153.4813 H   0  0  0  0  0  0  0  0  0  0  0  0  # atno 10764 bound_to 10752
  153.1646  135.4647  154.9761 H   0  0  0  0  0  0  0  0  0  0  0  0  # atno 10765 bound_to 10752
  141.0447  133.6766  156.2865 H   0  0  0  0  0  0  0  0  0  0  0  0  # atno 11005 bound_to 11000
  145.9689  139.2855  143.1110 LP  0  0  0  0  0  0  0  0  0  0  0  0  # atno 17320 bound_to 7965
  145.9138  140.9162  143.0440 LP  0  0  0  0  0  0  0  0  0  0  0  0  # atno 17321 bound_to 7965
  140.4389  144.2014  150.5890 LP  0  0  0  0  0  0  0  0  0  0  0  0  # atno 17342 bound_to 10162
  140.4704  143.2415  151.9097 LP  0  0  0  0  0  0  0  0  0  0  0  0  # atno 17343 bound_to 10162
  157.7390  131.0534  150.5261 LP  0  0  0  0  0  0  0  0  0  0  0  0  # atno 17370 bound_to 10713
  156.5400  130.4205  149.6159 LP  0  0  0  0  0  0  0  0  0  0  0  0  # atno 17371 bound_to 10713
  140.6170  134.5401  157.5542 LP  0  0  0  0  0  0  0  0  0  0  0  0  # atno 17394 bound_to 11000
  139.9302  134.7978  156.0952 LP  0  0  0  0  0  0  0  0  0  0  0  0  # atno 17395 bound_to 11000

$$$$
