AV-unprocessed.smi:2451|AV-procd|sdf|9673|dock6
  -GOLD-   2272013313D 1   1.00000     0.00000
 Structure written by MMmdl.
 38 39  0  0  0  0  0  0  0  0  1 V2000
  152.2554  143.4774  161.3853 C   0  0  0  0  0  0  0  0  0  0  0  0
  152.9857  143.5166  160.0268 C   0  0  2  0  0  0  0  0  0  0  0  0
  152.5019  144.6963  159.1597 C   0  0  0  0  0  0  0  0  0  0  0  0
  151.0878  144.4653  158.6047 C   0  0  0  0  0  0  0  0  0  0  0  0
  151.0174  143.1567  157.8063 C   0  0  0  0  0  0  0  0  0  0  0  0
  151.5033  141.9504  158.6325 C   0  0  1  0  0  0  0  0  0  0  0  0
  151.5119  140.7658  157.7686 N   0  0  0  0  0  0  0  0  0  0  0  0
  150.0353  140.2649  157.0323 S   0  0  0  0  0  0  0  0  0  0  0  0
  150.2058  138.8700  156.5964 O   0  0  0  0  0  0  0  0  0  0  0  0
  148.9411  140.6190  157.9492 O   0  0  0  0  0  0  0  0  0  0  0  0
  149.9496  141.3405  155.5394 C   0  0  0  0  0  0  0  0  0  0  0  0
  148.7424  140.9753  154.7242 C   0  0  0  0  0  0  0  0  0  0  0  0
  147.6681  141.8120  154.3128 C   0  0  0  0  0  0  0  0  0  0  0  0
  146.8593  140.9683  153.6074 C   0  0  0  0  0  0  0  0  0  0  0  0
  147.3825  139.7163  153.5862 O   0  0  0  0  0  0  0  0  0  0  0  0
  148.5842  139.7304  154.3033 N   0  0  0  0  0  0  0  0  0  0  0  0
  152.9148  142.1874  159.2267 C   0  0  2  0  0  0  0  0  0  0  0  0
  153.4187  140.9869  160.0525 C   0  0  0  0  0  0  0  0  0  0  0  0
  151.2014  143.2223  161.2793 H   0  0  0  0  0  0  0  0  0  0  0  0
  152.3090  144.4459  161.8829 H   0  0  0  0  0  0  0  0  0  0  0  0
  152.7047  142.7508  162.0618 H   0  0  0  0  0  0  0  0  0  0  0  0
  154.0364  143.7036  160.2528 H   0  0  0  0  0  0  0  0  0  0  0  0
  152.5309  145.6236  159.7330 H   0  0  0  0  0  0  0  0  0  0  0  0
  153.1920  144.8364  158.3267 H   0  0  0  0  0  0  0  0  0  0  0  0
  150.3633  144.4412  159.4192 H   0  0  0  0  0  0  0  0  0  0  0  0
  150.8008  145.3019  157.9671 H   0  0  0  0  0  0  0  0  0  0  0  0
  149.9950  142.9896  157.4649 H   0  0  0  0  0  0  0  0  0  0  0  0
  151.6285  143.2571  156.9079 H   0  0  0  0  0  0  0  0  0  0  0  0
  150.8002  141.7843  159.4495 H   0  0  0  0  0  0  0  0  0  0  0  0
  152.2708  140.8086  157.0889 H   0  0  0  0  0  0  0  0  0  0  0  0
  149.9167  142.3810  155.8635 H   0  0  0  0  0  0  0  0  0  0  0  0
  150.8638  141.1995  154.9630 H   0  0  0  0  0  0  0  0  0  0  0  0
  147.5181  142.8646  154.5015 H   0  0  0  0  0  0  0  0  0  0  0  0
  145.9228  141.1008  153.0859 H   0  0  0  0  0  0  0  0  0  0  0  0
  153.6031  142.2959  158.3866 H   0  0  0  0  0  0  0  0  0  0  0  0
  152.7228  140.7263  160.8501 H   0  0  0  0  0  0  0  0  0  0  0  0
  154.3865  141.2000  160.5066 H   0  0  0  0  0  0  0  0  0  0  0  0
  153.5433  140.1002  159.4306 H   0  0  0  0  0  0  0  0  0  0  0  0
  1  2  1  0  0  0  0
  1 19  1  0  0  0  0
  1 20  1  0  0  0  0
  1 21  1  0  0  0  0
  2 17  1  0  0  0  0
  2  3  1  0  0  0  0
  2 22  1  0  0  0  0
  3  4  1  0  0  0  0
  3 23  1  0  0  0  0
  3 24  1  0  0  0  0
  4  5  1  0  0  0  0
  4 25  1  0  0  0  0
  4 26  1  0  0  0  0
  5  6  1  0  0  0  0
  5 27  1  0  0  0  0
  5 28  1  0  0  0  0
  6  7  1  0  0  0  0
  6 17  1  0  0  0  0
  6 29  1  0  0  0  0
  7  8  1  0  0  0  0
  7 30  1  0  0  0  0
  8  9  2  0  0  0  0
  8 10  2  0  0  0  0
  8 11  1  0  0  0  0
 11 12  1  0  0  0  0
 11 31  1  0  0  0  0
 11 32  1  0  0  0  0
 12 16  2  0  0  0  0
 12 13  1  0  0  0  0
 13 14  2  0  0  0  0
 13 33  1  0  0  0  0
 14 15  1  0  0  0  0
 14 34  1  0  0  0  0
 15 16  1  0  0  0  0
 17 18  1  0  0  0  0
 17 35  1  0  0  0  0
 18 36  1  0  0  0  0
 18 37  1  0  0  0  0
 18 38  1  0  0  0  0
M  END
> <s_m_source_file>
AV-unprocessed.smi

> <i_m_source_file_index>
2451

> <i_lp_mmshare_version>
43012

> <i_f3d_flags>
0

> <s_epik_input>
W0NIM11bQ0BASF0xW0NIMl1bQ0gyXVtDSDJdW0NASF0oW0NASF0xW0NIM10pW05IXVMoPU8pKD1PKVtDSDJdYzJbY0hdW2NIXW9uMg==

> <s_epik_cmdline>
J2VwaWtfcHl0aG9uJywgJy1waCcsICc3LjAnLCAnLXRuJywgJzgnLCAnLW1hJywgJzIwMCcsICctbWV0YWxfYmluZGluZycsICctaW1hZScsICc8aW5maWxlLm1hZT4nLCAnLW9tYWUnLCAnPG91dGZpbGUubWFlPic=

> <r_lp_tautomer_probability>
1

> <r_epik_Ionization_Penalty>
8.73668e-05

> <r_epik_Ionization_Penalty_Charging>
0

> <r_epik_Ionization_Penalty_Neutral>
8.73668e-05

> <r_epik_State_Penalty>
-0

> <r_epik_Charging_Adjusted_Penalty>
0

> <i_epik_Tot_Q>
0

> <i_epik_Tot_abs_Q>
0

> <r_epik_Metal_State_Penalty>
0.0716439

> <b_epik_Metal_Only>
0

> <s_lp_Force_Field>
OPLS_2005

> <r_lp_Energy>
8.38809

> <b_lp_Chiralities_Consistent>
1

> <s_lp_Variant>
AV-unprocessed.smi:2451-5

> <Gold.Version>
5.8.1

> <Gold.Id.Protein>
6NUR|6NUR_protein|mol2

> <Gold.PLP.Fitness>
41.7523

> <Gold.PLP.PLP>
-39.7001

> <Gold.PLP.part.hbond>
0.0000

> <Gold.PLP.part.metal>
0.0000

> <Gold.PLP.part.buried>
-6.2204

> <Gold.PLP.part.nonpolar>
-34.9687

> <Gold.PLP.part.repulsive>
0.8754

> <Gold.PLP.ligand.clash>
0.0000

> <Gold.PLP.ligand.torsion>
0.5387

> <Gold.PLP.Chemscore.Hbond>
0.0000

> <Gold.PLP.Chemscore.CHOScore>
0.9979

> <Gold.PLP.Chemscore.Metal>
0.0000

> <Gold.Chemscore.Hbonds>
donor molecule, donor type, donor heavy atom, donor atom, acceptor molecule, acceptor atom, score
      L1  C    14    34       P1 10175  1.00

> <Gold.PLP.Chemscore.Internal.Correction>
0.1359

> <Gold.Rescore>
     Score         DG    S(hbond)    S(metal)    S(lipo)     H(rot)  DE(clash)    DE(int)     intcor
     14.93     -15.54       0.00        0.00     122.25       1.66       0.02       0.58       ----

> <Gold.Chemscore.Fitness>
14.9344

> <Gold.Chemscore.DG>
-15.5370

> <Gold.Chemscore.ZeroCoef>
-5.4800

> <Gold.Chemscore.Hbond>
0.0000

> <Gold.Chemscore.Metal>
0.0000

> <Gold.Chemscore.Lipo>
122.2531

> <Gold.Chemscore.Internal_Hbond>
0.0000

> <Gold.Chemscore.DEClash>
0.0199

> <Gold.Chemscore.DEInternal>
0.5827

> <Gold.Chemscore.Rot>
1.6588

> <Gold.Chemscore.Internal.Correction>
   9.000000E+99

> <Gold.Chemscore.Hbond.Weighted>
-0.0000

> <Gold.Chemscore.Metal.Weighted>
-0.0000

> <Gold.Chemscore.Lipo.Weighted>
-14.3036

> <Gold.Chemscore.Internal_Hbond.Weighted>
0.0000

> <Gold.Chemscore.DEClash.Weighted>
0.0199

> <Gold.Chemscore.DEInternal.Weighted>
0.5827

> <Gold.Chemscore.Rot.Weighted>
4.2466

> <Gold.Chemscore.Internal.Correction.Weighted>
   9.000000E+99

> <Gold.Protein.RotatedTorsions>
[ 6907 6896 6895 6894 ] final   99.44 input  -60.11 | X-H torsion
[ 7974 7965 7964 7962 ] final -156.30 input  175.53 | X-H torsion
[ 8008 7997 7996 7995 ] final   65.96 input   59.86 | X-H torsion
[ 10167 10162 10161 10158 ] final   71.00 input  -65.29 | X-H torsion
[ 10718 10713 10712 10709 ] final  -92.43 input   66.30 | X-H torsion
[ 10763 10752 10751 10750 ] final -130.08 input  -60.55 | X-H torsion
[ 11005 11000 10999 10996 ] final  -21.39 input  -57.11 | X-H torsion

> <Gold.Protein.ActiveResidues>
 VAL166  LYS551  ARG553  GLY616  TRP617  ASP618  TYR619  PRO620  LYS621  CYS622 
 ASP623  PHE694  ASN695  SER759  ASP760  ASP761  ALA762  ILE779  LEU786  VAL792 
 PHE793  MET794  SER795  GLU796  ALA797  LYS798  CYS799  TRP800  GLU811  SER814 

> <Gold.Protein.RotatedAtoms>
  152.5392  134.0428  159.8074 H   0  0  0  0  0  0  0  0  0  0  0  0  # atno 6907 bound_to 6896
  151.0582  133.5559  159.2644 H   0  0  0  0  0  0  0  0  0  0  0  0  # atno 6908 bound_to 6896
  151.2468  135.0616  159.9100 H   0  0  0  0  0  0  0  0  0  0  0  0  # atno 6909 bound_to 6896
  144.7599  140.4129  143.5984 H   0  0  0  0  0  0  0  0  0  0  0  0  # atno 7974 bound_to 7965
  155.6699  140.3497  155.4814 H   0  0  0  0  0  0  0  0  0  0  0  0  # atno 8008 bound_to 7997
  155.9697  140.1153  157.0846 H   0  0  0  0  0  0  0  0  0  0  0  0  # atno 8009 bound_to 7997
  154.4163  140.1159  156.5275 H   0  0  0  0  0  0  0  0  0  0  0  0  # atno 8010 bound_to 7997
  140.0508  144.5313  150.7364 H   0  0  0  0  0  0  0  0  0  0  0  0  # atno 10167 bound_to 10162
  156.0002  130.4987  150.5624 H   0  0  0  0  0  0  0  0  0  0  0  0  # atno 10718 bound_to 10713
  154.8756  135.3874  154.4024 H   0  0  0  0  0  0  0  0  0  0  0  0  # atno 10763 bound_to 10752
  153.4747  135.7030  153.5978 H   0  0  0  0  0  0  0  0  0  0  0  0  # atno 10764 bound_to 10752
  153.4419  135.3854  155.2201 H   0  0  0  0  0  0  0  0  0  0  0  0  # atno 10765 bound_to 10752
  140.8557  133.7824  156.0016 H   0  0  0  0  0  0  0  0  0  0  0  0  # atno 11005 bound_to 11000
  145.6653  139.1589  143.2785 LP  0  0  0  0  0  0  0  0  0  0  0  0  # atno 17320 bound_to 7965
  146.1651  140.6729  142.9259 LP  0  0  0  0  0  0  0  0  0  0  0  0  # atno 17321 bound_to 7965
  140.7217  143.2595  151.4255 LP  0  0  0  0  0  0  0  0  0  0  0  0  # atno 17342 bound_to 10162
  139.5954  144.1409  152.2137 LP  0  0  0  0  0  0  0  0  0  0  0  0  # atno 17343 bound_to 10162
  157.3531  131.0737  151.1697 LP  0  0  0  0  0  0  0  0  0  0  0  0  # atno 17370 bound_to 10713
  157.2507  130.6612  149.5930 LP  0  0  0  0  0  0  0  0  0  0  0  0  # atno 17371 bound_to 10713
  140.8740  134.2692  157.5177 LP  0  0  0  0  0  0  0  0  0  0  0  0  # atno 17394 bound_to 11000
  139.8705  134.9582  156.4292 LP  0  0  0  0  0  0  0  0  0  0  0  0  # atno 17395 bound_to 11000

$$$$
