AV-unprocessed.smi:1683|AV-procd|sdf|6751|dock3
  -GOLD-   22720 7503D 1   1.00000     0.00000
 Structure written by MMmdl.
 37 38  0  0  0  0  0  0  0  0  2 V2000
  145.2921  137.0295  153.6221 O   0  0  0  0  0  0  0  0  0  0  0  0
  144.7665  137.5083  152.6174 C   0  0  0  0  0  0  0  0  0  0  0  0
  145.4103  138.3091  151.7561 N   0  0  0  0  0  0  0  0  0  0  0  0
  146.7970  138.7442  151.8903 C   0  0  0  0  0  0  0  0  0  0  0  0
  147.0603  139.4742  153.2221 C   0  0  2  0  0  0  0  0  0  0  0  0
  147.3058  140.9716  153.0713 C   0  0  0  0  0  0  0  0  0  0  0  0
  147.9870  141.3278  154.3891 C   0  0  0  0  0  0  0  0  0  0  0  0
  148.8374  140.1631  154.7232 N   0  3  1  0  0  0  0  0  0  0  0  0
  149.0503  139.9320  156.1738 C   0  0  0  0  0  0  0  0  0  0  0  0
  150.4736  140.2920  156.6369 C   0  0  0  0  0  0  0  0  0  0  0  0
  150.6058  140.1463  157.9549 F   0  0  0  0  0  0  0  0  0  0  0  0
  151.3425  139.4808  156.0357 F   0  0  0  0  0  0  0  0  0  0  0  0
  150.7609  141.5497  156.3012 F   0  0  0  0  0  0  0  0  0  0  0  0
  148.2980  138.9900  153.9925 C   0  0  0  0  0  0  0  0  0  0  0  0
  143.4949  137.3038  152.2377 N   0  0  0  0  0  0  0  0  0  0  0  0
  142.5210  136.5100  152.8937 C   0  0  0  0  0  0  0  0  0  0  0  0
  141.2808  136.9018  153.4783 C   0  0  0  0  0  0  0  0  0  0  0  0
  140.6463  135.8610  153.9993 N   0  0  0  0  0  0  0  0  0  0  0  0
  141.4655  134.8137  153.7548 N   0  0  0  0  0  0  0  0  0  0  0  0
  142.6175  135.1642  153.0860 C   0  0  0  0  0  0  0  0  0  0  0  0
  141.2262  133.8767  154.0469 H   0  0  0  0  0  0  0  0  0  0  0  0
  144.8969  138.6613  150.9612 H   0  0  0  0  0  0  0  0  0  0  0  0
  147.4336  137.8621  151.8151 H   0  0  0  0  0  0  0  0  0  0  0  0
  147.0620  139.3869  151.0488 H   0  0  0  0  0  0  0  0  0  0  0  0
  146.1922  139.3534  153.8726 H   0  0  0  0  0  0  0  0  0  0  0  0
  147.9812  141.1671  152.2367 H   0  0  0  0  0  0  0  0  0  0  0  0
  146.3884  141.5371  152.9048 H   0  0  0  0  0  0  0  0  0  0  0  0
  148.5707  142.2459  154.3184 H   0  0  0  0  0  0  0  0  0  0  0  0
  147.2274  141.4688  155.1600 H   0  0  0  0  0  0  0  0  0  0  0  0
  148.3049  140.4767  156.7555 H   0  0  0  0  0  0  0  0  0  0  0  0
  148.8866  138.8722  156.3750 H   0  0  0  0  0  0  0  0  0  0  0  0
  148.0441  138.1598  154.6535 H   0  0  0  0  0  0  0  0  0  0  0  0
  149.0705  138.6375  153.3080 H   0  0  0  0  0  0  0  0  0  0  0  0
  143.1886  137.7687  151.3957 H   0  0  0  0  0  0  0  0  0  0  0  0
  140.8227  137.8774  153.5462 H   0  0  0  0  0  0  0  0  0  0  0  0
  143.3777  134.4469  152.8139 H   0  0  0  0  0  0  0  0  0  0  0  0
  149.7457  140.3426  154.3189 H   0  0  0  0  0  0  0  0  0  0  0  0
  1  2  2  0  0  0  0
  2  3  1  0  0  0  0
  2 15  1  0  0  0  0
  3  4  1  0  0  0  0
  3 22  1  0  0  0  0
  4  5  1  0  0  0  0
  4 23  1  0  0  0  0
  4 24  1  0  0  0  0
  5 14  1  0  0  0  0
  5  6  1  0  0  0  0
  5 25  1  0  0  0  0
  6  7  1  0  0  0  0
  6 26  1  0  0  0  0
  6 27  1  0  0  0  0
  7  8  1  0  0  0  0
  7 28  1  0  0  0  0
  7 29  1  0  0  0  0
  8  9  1  0  0  0  0
  8 14  1  0  0  0  0
  8 37  1  0  0  0  0
  9 10  1  0  0  0  0
  9 30  1  0  0  0  0
  9 31  1  0  0  0  0
 10 11  1  0  0  0  0
 10 12  1  0  0  0  0
 10 13  1  0  0  0  0
 14 32  1  0  0  0  0
 14 33  1  0  0  0  0
 15 16  1  0  0  0  0
 15 34  1  0  0  0  0
 16 20  2  0  0  0  0
 16 17  1  0  0  0  0
 17 18  2  0  0  0  0
 17 35  1  0  0  0  0
 18 19  1  0  0  0  0
 19 21  1  0  0  0  0
 19 20  1  0  0  0  0
 20 36  1  0  0  0  0
M  CHG  1   8   1
M  END
> <s_m_source_file>
AV-unprocessed.smi

> <i_m_source_file_index>
1683

> <i_lp_mmshare_version>
43012

> <i_f3d_flags>
0

> <s_epik_input>
W2NIXTFbbkhdbltjSF1jMVtOSF1DKD1PKVtOSF1bQ0gyXVtDQEBIXTJbQ0gyXVtDSDJdTihbQ0gyXTIpW0NIMl1DKEYpKEYpRg==

> <s_epik_cmdline>
J2VwaWtfcHl0aG9uJywgJy1waCcsICc3LjAnLCAnLXRuJywgJzgnLCAnLW1hJywgJzIwMCcsICctbWV0YWxfYmluZGluZycsICctaW1hZScsICc8aW5maWxlLm1hZT4nLCAnLW9tYWUnLCAnPG91dGZpbGUubWFlPic=

> <r_lp_tautomer_probability>
0.5

> <r_epik_Ionization_Penalty>
0.641865

> <r_epik_Ionization_Penalty_Charging>
0.64182

> <r_epik_Ionization_Penalty_Neutral>
4.50685e-05

> <r_epik_State_Penalty>
0.65957

> <r_epik_Charging_Adjusted_Penalty>
1.30139

> <i_epik_Tot_Q>
1

> <i_epik_Tot_abs_Q>
1

> <r_epik_Metal_State_Penalty>
0.659571

> <b_epik_Metal_Only>
0

> <s_lp_Force_Field>
OPLS_2005

> <r_lp_Energy>
31.6125

> <b_lp_Chiralities_Consistent>
1

> <s_lp_Variant>
AV-unprocessed.smi:1683-5

> <Gold.Version>
5.8.1

> <Gold.Id.Protein>
6NUR|6NUR_protein|mol2

> <Gold.PLP.Fitness>
44.8669

> <Gold.PLP.PLP>
-37.2495

> <Gold.PLP.part.hbond>
-4.9929

> <Gold.PLP.part.metal>
0.0000

> <Gold.PLP.part.buried>
-3.8892

> <Gold.PLP.part.nonpolar>
-27.7011

> <Gold.PLP.part.repulsive>
0.5340

> <Gold.PLP.ligand.clash>
0.0000

> <Gold.PLP.ligand.torsion>
1.9975

> <Gold.PLP.Chemscore.Hbond>
3.7316

> <Gold.PLP.Chemscore.CHOScore>
0.0000

> <Gold.PLP.Chemscore.Metal>
0.0000

> <Gold.Chemscore.Hbonds>
donor molecule, donor type, donor heavy atom, donor atom, acceptor molecule, acceptor atom, score
      L1  H     3    22       P1 10171  1.00
      L1  H    15    34       P1 10171  0.86

> <Gold.PLP.Chemscore.Internal.Correction>
0.4176

> <Gold.Rescore>
     Score         DG    S(hbond)    S(metal)    S(lipo)     H(rot)  DE(clash)    DE(int)     intcor
     14.51     -18.72       3.35        0.00      57.19       1.81       0.64       3.56       ----

> <Gold.Chemscore.Fitness>
14.5127

> <Gold.Chemscore.DG>
-18.7186

> <Gold.Chemscore.ZeroCoef>
-5.4800

> <Gold.Chemscore.Hbond>
3.3487

> <Gold.Chemscore.Metal>
0.0000

> <Gold.Chemscore.Lipo>
57.1941

> <Gold.Chemscore.Internal_Hbond>
0.0000

> <Gold.Chemscore.DEClash>
0.6434

> <Gold.Chemscore.DEInternal>
3.5625

> <Gold.Chemscore.Rot>
1.8116

> <Gold.Chemscore.Internal.Correction>
   9.000000E+99

> <Gold.Chemscore.Hbonds>
donor molecule, donor type, donor heavy atom, donor atom, acceptor molecule, acceptor atom, score
      L1  H     3    22       P1 10171  0.92
      L1  H    15    34       P1 10171  0.55

> <Gold.Chemscore.Hbond.Weighted>
-11.1846

> <Gold.Chemscore.Metal.Weighted>
-0.0000

> <Gold.Chemscore.Lipo.Weighted>
-6.6917

> <Gold.Chemscore.Internal_Hbond.Weighted>
0.0000

> <Gold.Chemscore.DEClash.Weighted>
0.6434

> <Gold.Chemscore.DEInternal.Weighted>
3.5625

> <Gold.Chemscore.Rot.Weighted>
4.6378

> <Gold.Chemscore.Internal.Correction.Weighted>
   9.000000E+99

> <Gold.Protein.RotatedTorsions>
[ 6907 6896 6895 6894 ] final -150.44 input  -60.11 | X-H torsion
[ 7974 7965 7964 7962 ] final  152.06 input  175.53 | X-H torsion
[ 8008 7997 7996 7995 ] final  -63.68 input   59.86 | X-H torsion
[ 10167 10162 10161 10158 ] final  109.84 input  -65.29 | X-H torsion
[ 10718 10713 10712 10709 ] final  117.96 input   66.30 | X-H torsion
[ 10763 10752 10751 10750 ] final   -8.46 input  -60.55 | X-H torsion
[ 11005 11000 10999 10996 ] final   17.70 input  -57.11 | X-H torsion

> <Gold.Protein.ActiveResidues>
 VAL166  LYS551  ARG553  GLY616  TRP617  ASP618  TYR619  PRO620  LYS621  CYS622 
 ASP623  PHE694  ASN695  SER759  ASP760  ASP761  ALA762  ILE779  LEU786  VAL792 
 PHE793  MET794  SER795  GLU796  ALA797  LYS798  CYS799  TRP800  GLU811  SER814 

> <Gold.Protein.RotatedAtoms>
  151.1986  133.4624  159.2595 H   0  0  0  0  0  0  0  0  0  0  0  0  # atno 6907 bound_to 6896
  151.1092  135.0017  159.8496 H   0  0  0  0  0  0  0  0  0  0  0  0  # atno 6908 bound_to 6896
  152.5449  134.1906  159.8725 H   0  0  0  0  0  0  0  0  0  0  0  0  # atno 6909 bound_to 6896
  144.8249  139.6619  143.6084 H   0  0  0  0  0  0  0  0  0  0  0  0  # atno 7974 bound_to 7965
  154.4568  140.0970  156.6780 H   0  0  0  0  0  0  0  0  0  0  0  0  # atno 8008 bound_to 7997
  155.5114  140.3476  155.4371 H   0  0  0  0  0  0  0  0  0  0  0  0  # atno 8009 bound_to 7997
  156.0793  140.1369  156.9721 H   0  0  0  0  0  0  0  0  0  0  0  0  # atno 8010 bound_to 7997
  139.6735  144.7124  151.1644 H   0  0  0  0  0  0  0  0  0  0  0  0  # atno 10167 bound_to 10162
  157.6062  131.1043  150.7688 H   0  0  0  0  0  0  0  0  0  0  0  0  # atno 10718 bound_to 10713
  153.4408  135.7013  153.6170 H   0  0  0  0  0  0  0  0  0  0  0  0  # atno 10763 bound_to 10752
  153.4546  135.3750  155.2304 H   0  0  0  0  0  0  0  0  0  0  0  0  # atno 10764 bound_to 10752
  154.8727  135.4005  154.3806 H   0  0  0  0  0  0  0  0  0  0  0  0  # atno 10765 bound_to 10752
  140.4331  134.1399  155.7682 H   0  0  0  0  0  0  0  0  0  0  0  0  # atno 11005 bound_to 11000
  146.2554  139.6290  142.9398 LP  0  0  0  0  0  0  0  0  0  0  0  0  # atno 17320 bound_to 7965
  145.5023  141.0437  143.2533 LP  0  0  0  0  0  0  0  0  0  0  0  0  # atno 17321 bound_to 7965
  140.7627  143.5807  150.8898 LP  0  0  0  0  0  0  0  0  0  0  0  0  # atno 17342 bound_to 10162
  139.9474  143.6311  152.3038 LP  0  0  0  0  0  0  0  0  0  0  0  0  # atno 17343 bound_to 10162
  156.8076  130.4941  149.5360 LP  0  0  0  0  0  0  0  0  0  0  0  0  # atno 17370 bound_to 10713
  156.1149  130.6068  151.0105 LP  0  0  0  0  0  0  0  0  0  0  0  0  # atno 17371 bound_to 10713
  141.1737  133.8557  157.1489 LP  0  0  0  0  0  0  0  0  0  0  0  0  # atno 17394 bound_to 11000
  140.0121  134.9983  157.0416 LP  0  0  0  0  0  0  0  0  0  0  0  0  # atno 17395 bound_to 11000

$$$$
