AV-unprocessed.smi:2001|AV-procd|sdf|8103|dock6
  -GOLD-   2272010323D 1   1.00000     0.00000
 Structure written by MMmdl.
 50 51  0  0  0  0  0  0  0  0  1 V2000
  149.0318  131.4177  158.7667 C   0  0  0  0  0  0  0  0  0  0  0  0
  149.8304  132.1824  157.8804 O   0  0  0  0  0  0  0  0  0  0  0  0
  150.9681  131.4706  157.4242 C   0  0  0  0  0  0  0  0  0  0  0  0
  151.5399  132.1842  156.1896 C   0  0  0  0  0  0  0  0  0  0  0  0
  151.0251  133.5522  156.0711 N   0  0  0  0  0  0  0  0  0  0  0  0
  151.6433  134.4635  156.9114 N   0  0  0  0  0  0  0  0  0  0  0  0
  151.2751  135.7040  156.9084 C   0  0  0  0  0  0  0  0  0  0  0  0
  151.9176  136.7172  157.7909 C   0  0  0  0  0  0  0  0  0  0  0  0
  152.6488  136.3931  158.7284 O   0  0  0  0  0  0  0  0  0  0  0  0
  151.6412  137.9996  157.4935 N   0  0  0  0  0  0  0  0  0  0  0  0
  152.1433  139.1554  158.2252 C   0  0  0  0  0  0  0  0  0  0  0  0
  151.4420  140.4496  157.7737 C   0  0  0  0  0  0  0  0  0  0  0  0
  151.8794  141.6584  158.4692 N   0  0  0  0  0  0  0  0  0  0  0  0
  151.8975  141.4538  159.9120 C   0  0  0  0  0  0  0  0  0  0  0  0
  152.3987  142.7002  160.6632 C   0  0  2  0  0  0  0  0  0  0  0  0
  152.3461  142.5168  162.1836 C   0  0  0  0  0  0  0  0  0  0  0  0
  151.5803  143.8175  160.3225 O   0  0  0  0  0  0  0  0  0  0  0  0
  151.4661  144.0845  158.9237 C   0  0  1  0  0  0  0  0  0  0  0  0
  152.7457  144.7239  158.3586 C   0  0  0  0  0  0  0  0  0  0  0  0
  151.0346  142.8123  158.1663 C   0  0  0  0  0  0  0  0  0  0  0  0
  150.2105  136.1621  156.0316 C   0  0  0  0  0  0  0  0  0  0  0  0
  149.6173  135.2617  155.2176 C   0  0  0  0  0  0  0  0  0  0  0  0
  150.0148  133.8533  155.2005 C   0  0  0  0  0  0  0  0  0  0  0  0
  149.4869  133.0139  154.4717 O   0  0  0  0  0  0  0  0  0  0  0  0
  148.1706  132.0056  159.0841 H   0  0  0  0  0  0  0  0  0  0  0  0
  149.5927  131.1351  159.6586 H   0  0  0  0  0  0  0  0  0  0  0  0
  148.6620  130.5122  158.2837 H   0  0  0  0  0  0  0  0  0  0  0  0
  151.7169  131.4221  158.2163 H   0  0  0  0  0  0  0  0  0  0  0  0
  150.6891  130.4466  157.1705 H   0  0  0  0  0  0  0  0  0  0  0  0
  152.6295  132.2012  156.2541 H   0  0  0  0  0  0  0  0  0  0  0  0
  151.3116  131.6130  155.2879 H   0  0  0  0  0  0  0  0  0  0  0  0
  151.0338  138.1839  156.7079 H   0  0  0  0  0  0  0  0  0  0  0  0
  151.9638  138.9885  159.2875 H   0  0  0  0  0  0  0  0  0  0  0  0
  153.2245  139.2193  158.0989 H   0  0  0  0  0  0  0  0  0  0  0  0
  151.5645  140.5820  156.6975 H   0  0  0  0  0  0  0  0  0  0  0  0
  150.3716  140.3174  157.9386 H   0  0  0  0  0  0  0  0  0  0  0  0
  150.8966  141.1938  160.2607 H   0  0  0  0  0  0  0  0  0  0  0  0
  152.5413  140.6076  160.1559 H   0  0  0  0  0  0  0  0  0  0  0  0
  153.4308  142.9065  160.3783 H   0  0  0  0  0  0  0  0  0  0  0  0
  152.9659  141.6771  162.4986 H   0  0  0  0  0  0  0  0  0  0  0  0
  151.3275  142.3283  162.5237 H   0  0  0  0  0  0  0  0  0  0  0  0
  152.7090  143.4080  162.6963 H   0  0  0  0  0  0  0  0  0  0  0  0
  150.6701  144.8221  158.8180 H   0  0  0  0  0  0  0  0  0  0  0  0
  152.6016  145.0266  157.3212 H   0  0  0  0  0  0  0  0  0  0  0  0
  153.5925  144.0382  158.3824 H   0  0  0  0  0  0  0  0  0  0  0  0
  153.0193  145.6133  158.9265 H   0  0  0  0  0  0  0  0  0  0  0  0
  151.0385  143.0221  157.0975 H   0  0  0  0  0  0  0  0  0  0  0  0
  150.0011  142.5811  158.4293 H   0  0  0  0  0  0  0  0  0  0  0  0
  149.8967  137.1958  156.0228 H   0  0  0  0  0  0  0  0  0  0  0  0
  148.8259  135.5885  154.5591 H   0  0  0  0  0  0  0  0  0  0  0  0
  1  2  1  0  0  0  0
  1 25  1  0  0  0  0
  1 26  1  0  0  0  0
  1 27  1  0  0  0  0
  2  3  1  0  0  0  0
  3  4  1  0  0  0  0
  3 28  1  0  0  0  0
  3 29  1  0  0  0  0
  4  5  1  0  0  0  0
  4 30  1  0  0  0  0
  4 31  1  0  0  0  0
  5 23  1  0  0  0  0
  5  6  1  0  0  0  0
  6  7  2  0  0  0  0
  7  8  1  0  0  0  0
  7 21  1  0  0  0  0
  8  9  2  0  0  0  0
  8 10  1  0  0  0  0
 10 11  1  0  0  0  0
 10 32  1  0  0  0  0
 11 12  1  0  0  0  0
 11 33  1  0  0  0  0
 11 34  1  0  0  0  0
 12 13  1  0  0  0  0
 12 35  1  0  0  0  0
 12 36  1  0  0  0  0
 13 20  1  0  0  0  0
 13 14  1  0  0  0  0
 14 15  1  0  0  0  0
 14 37  1  0  0  0  0
 14 38  1  0  0  0  0
 15 16  1  0  0  0  0
 15 17  1  0  0  0  0
 15 39  1  0  0  0  0
 16 40  1  0  0  0  0
 16 41  1  0  0  0  0
 16 42  1  0  0  0  0
 17 18  1  0  0  0  0
 18 19  1  0  0  0  0
 18 20  1  0  0  0  0
 18 43  1  0  0  0  0
 19 44  1  0  0  0  0
 19 45  1  0  0  0  0
 19 46  1  0  0  0  0
 20 47  1  0  0  0  0
 20 48  1  0  0  0  0
 21 22  2  0  0  0  0
 21 49  1  0  0  0  0
 22 23  1  0  0  0  0
 22 50  1  0  0  0  0
 23 24  2  0  0  0  0
M  END
> <s_m_source_file>
AV-unprocessed.smi

> <i_m_source_file_index>
2001

> <i_lp_mmshare_version>
43012

> <i_f3d_flags>
0

> <s_epik_input>
W0NIM11PW0NIMl1bQ0gyXW4xbmMoW2NIXVtjSF1jMT1PKUMoPU8pW05IXVtDSDJdW0NIMl1OMltDSDJdW0NAQEhdKFtDSDNdKU9bQ0BASF0oW0NIM10pW0NIMl0y

> <s_epik_cmdline>
J2VwaWtfcHl0aG9uJywgJy1waCcsICc3LjAnLCAnLXRuJywgJzgnLCAnLW1hJywgJzIwMCcsICctbWV0YWxfYmluZGluZycsICctaW1hZScsICc8aW5maWxlLm1hZT4nLCAnLW9tYWUnLCAnPG91dGZpbGUubWFlPic=

> <r_lp_tautomer_probability>
1

> <r_epik_Ionization_Penalty>
0.206669

> <r_epik_Ionization_Penalty_Charging>
5.55992e-09

> <r_epik_Ionization_Penalty_Neutral>
0.206669

> <r_epik_State_Penalty>
0.196651

> <r_epik_Charging_Adjusted_Penalty>
0.196651

> <i_epik_Tot_Q>
0

> <i_epik_Tot_abs_Q>
0

> <r_epik_Metal_State_Penalty>
0.198372

> <b_epik_Metal_Only>
0

> <s_lp_Force_Field>
OPLS_2005

> <r_lp_Energy>
40.7423

> <b_lp_Chiralities_Consistent>
1

> <s_lp_Variant>
AV-unprocessed.smi:2001-2

> <Gold.Version>
5.8.1

> <Gold.Id.Protein>
6NUR|6NUR_protein|mol2

> <Gold.PLP.Fitness>
42.1519

> <Gold.PLP.PLP>
-40.5713

> <Gold.PLP.part.hbond>
-2.9008

> <Gold.PLP.part.metal>
0.0000

> <Gold.PLP.part.buried>
-7.2323

> <Gold.PLP.part.nonpolar>
-31.2110

> <Gold.PLP.part.repulsive>
0.1722

> <Gold.PLP.ligand.clash>
0.0165

> <Gold.PLP.ligand.torsion>
0.8174

> <Gold.PLP.Chemscore.Hbond>
1.0014

> <Gold.PLP.Chemscore.CHOScore>
0.0000

> <Gold.PLP.Chemscore.Metal>
0.0000

> <Gold.Chemscore.Hbonds>
donor molecule, donor type, donor heavy atom, donor atom, acceptor molecule, acceptor atom, score
      P1  H  6896  6907       L1     9  0.11
      P1  H  6896  6909       L1     2  0.29

> <Gold.PLP.Chemscore.Internal.Correction>
0.2276

> <Gold.Rescore>
     Score         DG    S(hbond)    S(metal)    S(lipo)     H(rot)  DE(clash)    DE(int)     intcor
     13.68     -14.67       0.79        0.00      99.80       2.00       0.02       0.98       ----

> <Gold.Chemscore.Fitness>
13.6774

> <Gold.Chemscore.DG>
-14.6721

> <Gold.Chemscore.ZeroCoef>
-5.4800

> <Gold.Chemscore.Hbond>
0.7905

> <Gold.Chemscore.Metal>
0.0000

> <Gold.Chemscore.Lipo>
99.8030

> <Gold.Chemscore.Internal_Hbond>
0.0000

> <Gold.Chemscore.DEClash>
0.0186

> <Gold.Chemscore.DEInternal>
0.9761

> <Gold.Chemscore.Rot>
2.0020

> <Gold.Chemscore.Internal.Correction>
   9.000000E+99

> <Gold.Chemscore.Hbonds>
donor molecule, donor type, donor heavy atom, donor atom, acceptor molecule, acceptor atom, score
      P1  H  6896  6907       L1     9  0.03
      P1  H  6896  6909       L1     2  0.01

> <Gold.Chemscore.Hbond.Weighted>
-2.6403

> <Gold.Chemscore.Metal.Weighted>
-0.0000

> <Gold.Chemscore.Lipo.Weighted>
-11.6769

> <Gold.Chemscore.Internal_Hbond.Weighted>
0.0000

> <Gold.Chemscore.DEClash.Weighted>
0.0186

> <Gold.Chemscore.DEInternal.Weighted>
0.9761

> <Gold.Chemscore.Rot.Weighted>
5.1252

> <Gold.Chemscore.Internal.Correction.Weighted>
   9.000000E+99

> <Gold.Protein.RotatedTorsions>
[ 6907 6896 6895 6894 ] final  -24.40 input  -60.11 | X-H torsion
[ 7974 7965 7964 7962 ] final  -44.65 input  175.53 | X-H torsion
[ 8008 7997 7996 7995 ] final  -41.44 input   59.86 | X-H torsion
[ 10167 10162 10161 10158 ] final  -55.58 input  -65.29 | X-H torsion
[ 10718 10713 10712 10709 ] final  -37.93 input   66.30 | X-H torsion
[ 10763 10752 10751 10750 ] final  -21.13 input  -60.55 | X-H torsion
[ 11005 11000 10999 10996 ] final   81.76 input  -57.11 | X-H torsion

> <Gold.Protein.ActiveResidues>
 VAL166  LYS551  ARG553  GLY616  TRP617  ASP618  TYR619  PRO620  LYS621  CYS622 
 ASP623  PHE694  ASN695  SER759  ASP760  ASP761  ALA762  ILE779  LEU786  VAL792 
 PHE793  MET794  SER795  GLU796  ALA797  LYS798  CYS799  TRP800  GLU811  SER814 

> <Gold.Protein.RotatedAtoms>
  151.1901  135.0399  159.8828 H   0  0  0  0  0  0  0  0  0  0  0  0  # atno 6907 bound_to 6896
  152.5440  134.0965  159.8310 H   0  0  0  0  0  0  0  0  0  0  0  0  # atno 6908 bound_to 6896
  151.1093  133.5138  159.2638 H   0  0  0  0  0  0  0  0  0  0  0  0  # atno 6909 bound_to 6896
  145.9899  140.7192  142.9322 H   0  0  0  0  0  0  0  0  0  0  0  0  # atno 7974 bound_to 7965
  154.4004  140.1499  156.3191 H   0  0  0  0  0  0  0  0  0  0  0  0  # atno 8008 bound_to 7997
  155.8546  140.3456  155.5694 H   0  0  0  0  0  0  0  0  0  0  0  0  # atno 8009 bound_to 7997
  155.7947  140.0861  157.1980 H   0  0  0  0  0  0  0  0  0  0  0  0  # atno 8010 bound_to 7997
  140.6366  143.2485  151.5101 H   0  0  0  0  0  0  0  0  0  0  0  0  # atno 10167 bound_to 10162
  156.3095  130.4251  149.8064 H   0  0  0  0  0  0  0  0  0  0  0  0  # atno 10718 bound_to 10713
  153.6313  135.6989  153.5274 H   0  0  0  0  0  0  0  0  0  0  0  0  # atno 10763 bound_to 10752
  153.2857  135.4172  155.1120 H   0  0  0  0  0  0  0  0  0  0  0  0  # atno 10764 bound_to 10752
  154.8521  135.3613  154.5855 H   0  0  0  0  0  0  0  0  0  0  0  0  # atno 10765 bound_to 10752
  139.9087  134.8021  156.2085 H   0  0  0  0  0  0  0  0  0  0  0  0  # atno 11005 bound_to 11000
  144.6886  140.3052  143.7257 LP  0  0  0  0  0  0  0  0  0  0  0  0  # atno 17320 bound_to 7965
  145.7645  139.1836  143.2248 LP  0  0  0  0  0  0  0  0  0  0  0  0  # atno 17321 bound_to 7965
  139.5576  144.2236  152.1639 LP  0  0  0  0  0  0  0  0  0  0  0  0  # atno 17342 bound_to 10162
  140.1494  144.5129  150.6696 LP  0  0  0  0  0  0  0  0  0  0  0  0  # atno 17343 bound_to 10162
  156.5412  130.8301  151.3269 LP  0  0  0  0  0  0  0  0  0  0  0  0  # atno 17370 bound_to 10713
  157.7388  130.9819  150.2272 LP  0  0  0  0  0  0  0  0  0  0  0  0  # atno 17371 bound_to 10713
  141.0480  133.6903  156.1719 LP  0  0  0  0  0  0  0  0  0  0  0  0  # atno 17394 bound_to 11000
  140.6854  134.4723  157.5589 LP  0  0  0  0  0  0  0  0  0  0  0  0  # atno 17395 bound_to 11000

$$$$
