AV-unprocessed.smi:2754|AV-procd|sdf|10616|dock9
  -GOLD-   2272015 63D 1   1.00000     0.00000
 Structure written by MMmdl.
 28 29  0  0  0  0  0  0  0  0  2 V2000
  151.6323  144.1712  162.6928 N   0  0  0  0  0  0  0  0  0  0  0  0
  152.2685  143.1885  161.9756 C   0  0  0  0  0  0  0  0  0  0  0  0
  153.1480  142.4374  162.6409 N   0  0  0  0  0  0  0  0  0  0  0  0
  153.7743  141.4682  161.9388 C   0  0  0  0  0  0  0  0  0  0  0  0
  153.5156  141.2587  160.5687 C   0  0  0  0  0  0  0  0  0  0  0  0
  152.5661  142.1171  159.9728 C   0  0  0  0  0  0  0  0  0  0  0  0
  152.2022  141.9942  158.4999 C   0  0  1  0  0  0  0  0  0  0  0  0
  151.5717  140.6277  158.1667 C   0  0  0  0  0  0  0  0  0  0  0  0
  151.2135  140.5501  156.6745 C   0  0  0  0  0  0  0  0  0  0  0  0
  150.3217  141.7325  156.2607 C   0  0  0  0  0  0  0  0  0  0  0  0
  150.9737  143.0191  156.5890 N   0  3  0  0  0  0  0  0  0  0  0  0
  151.2994  143.1530  158.0262 C   0  0  0  0  0  0  0  0  0  0  0  0
  151.9432  143.0850  160.6850 N   0  0  0  0  0  0  0  0  0  0  0  0
  150.9566  144.7718  162.2430 H   0  0  0  0  0  0  0  0  0  0  0  0
  151.9120  144.3734  163.6415 H   0  0  0  0  0  0  0  0  0  0  0  0
  154.4868  140.8572  162.4730 H   0  0  0  0  0  0  0  0  0  0  0  0
  154.0203  140.4814  160.0139 H   0  0  0  0  0  0  0  0  0  0  0  0
  153.1350  142.0628  157.9375 H   0  0  0  0  0  0  0  0  0  0  0  0
  152.2578  139.8212  158.4273 H   0  0  0  0  0  0  0  0  0  0  0  0
  150.6703  140.4747  158.7619 H   0  0  0  0  0  0  0  0  0  0  0  0
  152.1263  140.5519  156.0772 H   0  0  0  0  0  0  0  0  0  0  0  0
  150.7071  139.6082  156.4616 H   0  0  0  0  0  0  0  0  0  0  0  0
  150.1212  141.6986  155.1895 H   0  0  0  0  0  0  0  0  0  0  0  0
  149.3574  141.6778  156.7678 H   0  0  0  0  0  0  0  0  0  0  0  0
  151.8294  143.0897  156.0570 H   0  0  0  0  0  0  0  0  0  0  0  0
  150.3696  143.1770  158.5962 H   0  0  0  0  0  0  0  0  0  0  0  0
  151.7960  144.1106  158.1860 H   0  0  0  0  0  0  0  0  0  0  0  0
  150.3603  143.7755  156.3207 H   0  0  0  0  0  0  0  0  0  0  0  0
  1  2  1  0  0  0  0
  1 14  1  0  0  0  0
  1 15  1  0  0  0  0
  2 13  1  0  0  0  0
  2  3  2  0  0  0  0
  3  4  1  0  0  0  0
  4  5  2  0  0  0  0
  4 16  1  0  0  0  0
  5  6  1  0  0  0  0
  5 17  1  0  0  0  0
  6  7  1  0  0  0  0
  6 13  2  0  0  0  0
  7 12  1  0  0  0  0
  7  8  1  0  0  0  0
  7 18  1  0  0  0  0
  8  9  1  0  0  0  0
  8 19  1  0  0  0  0
  8 20  1  0  0  0  0
  9 10  1  0  0  0  0
  9 21  1  0  0  0  0
  9 22  1  0  0  0  0
 10 11  1  0  0  0  0
 10 23  1  0  0  0  0
 10 24  1  0  0  0  0
 11 12  1  0  0  0  0
 11 25  1  0  0  0  0
 11 28  1  0  0  0  0
 12 26  1  0  0  0  0
 12 27  1  0  0  0  0
M  CHG  1  11   1
M  END
> <s_m_source_file>
AV-unprocessed.smi

> <i_m_source_file_index>
2754

> <i_lp_mmshare_version>
43012

> <i_f3d_flags>
0

> <s_epik_input>
W05IMl1jMW5bY0hdW2NIXWMobjEpW0NAQEhdMltDSDJdW0NIMl1bQ0gyXVtOSF1bQ0gyXTI=

> <s_epik_cmdline>
J2VwaWtfcHl0aG9uJywgJy1waCcsICc3LjAnLCAnLXRuJywgJzgnLCAnLW1hJywgJzIwMCcsICctbWV0YWxfYmluZGluZycsICctaW1hZScsICc8aW5maWxlLm1hZT4nLCAnLW9tYWUnLCAnPG91dGZpbGUubWFlPic=

> <r_lp_tautomer_probability>
1

> <r_epik_Ionization_Penalty>
0.000528025

> <r_epik_Ionization_Penalty_Charging>
0.000372054

> <r_epik_Ionization_Penalty_Neutral>
0.000155972

> <r_epik_State_Penalty>
-0

> <r_epik_Charging_Adjusted_Penalty>
0.000372054

> <i_epik_Tot_Q>
1

> <i_epik_Tot_abs_Q>
1

> <r_epik_Metal_State_Penalty>
-0

> <b_epik_Metal_Only>
0

> <s_lp_Force_Field>
OPLS_2005

> <r_lp_Energy>
4.9837

> <b_lp_Chiralities_Consistent>
1

> <s_lp_Variant>
AV-unprocessed.smi:2754-2

> <Gold.Version>
5.8.1

> <Gold.Id.Protein>
6NUR|6NUR_protein|mol2

> <Gold.PLP.Fitness>
37.6433

> <Gold.PLP.PLP>
-31.7396

> <Gold.PLP.part.hbond>
-3.0000

> <Gold.PLP.part.metal>
0.0000

> <Gold.PLP.part.buried>
-5.5456

> <Gold.PLP.part.nonpolar>
-23.3928

> <Gold.PLP.part.repulsive>
0.2808

> <Gold.PLP.ligand.clash>
0.0000

> <Gold.PLP.ligand.torsion>
0.0657

> <Gold.PLP.Chemscore.Hbond>
2.0000

> <Gold.PLP.Chemscore.CHOScore>
0.0000

> <Gold.PLP.Chemscore.Metal>
0.0000

> <Gold.Chemscore.Hbonds>
donor molecule, donor type, donor heavy atom, donor atom, acceptor molecule, acceptor atom, score
      L1  H    11    28       P1  8028  2.00

> <Gold.PLP.Chemscore.Internal.Correction>
0.0351

> <Gold.Rescore>
     Score         DG    S(hbond)    S(metal)    S(lipo)     H(rot)  DE(clash)    DE(int)     intcor
     11.45     -13.42       1.00        0.00      61.18       1.00       1.92       0.05       ----

> <Gold.Chemscore.Fitness>
11.4489

> <Gold.Chemscore.DG>
-13.4178

> <Gold.Chemscore.ZeroCoef>
-5.4800

> <Gold.Chemscore.Hbond>
1.0000

> <Gold.Chemscore.Metal>
0.0000

> <Gold.Chemscore.Lipo>
61.1782

> <Gold.Chemscore.Internal_Hbond>
0.0000

> <Gold.Chemscore.DEClash>
1.9222

> <Gold.Chemscore.DEInternal>
0.0467

> <Gold.Chemscore.Rot>
1.0000

> <Gold.Chemscore.Internal.Correction>
   9.000000E+99

> <Gold.Chemscore.Hbonds>
donor molecule, donor type, donor heavy atom, donor atom, acceptor molecule, acceptor atom, score
      L1  H    11    28       P1  8028  1.00

> <Gold.Chemscore.Hbond.Weighted>
-3.3400

> <Gold.Chemscore.Metal.Weighted>
-0.0000

> <Gold.Chemscore.Lipo.Weighted>
-7.1578

> <Gold.Chemscore.Internal_Hbond.Weighted>
0.0000

> <Gold.Chemscore.DEClash.Weighted>
1.9222

> <Gold.Chemscore.DEInternal.Weighted>
0.0467

> <Gold.Chemscore.Rot.Weighted>
2.5600

> <Gold.Chemscore.Internal.Correction.Weighted>
   9.000000E+99

> <Gold.Protein.RotatedTorsions>
[ 6907 6896 6895 6894 ] final   98.46 input  -60.11 | X-H torsion
[ 7974 7965 7964 7962 ] final   31.06 input  175.53 | X-H torsion
[ 8008 7997 7996 7995 ] final   78.79 input   59.86 | X-H torsion
[ 10167 10162 10161 10158 ] final  -39.55 input  -65.29 | X-H torsion
[ 10718 10713 10712 10709 ] final  -75.71 input   66.30 | X-H torsion
[ 10763 10752 10751 10750 ] final  -11.50 input  -60.55 | X-H torsion
[ 11005 11000 10999 10996 ] final -154.41 input  -57.11 | X-H torsion

> <Gold.Protein.ActiveResidues>
 VAL166  LYS551  ARG553  GLY616  TRP617  ASP618  TYR619  PRO620  LYS621  CYS622 
 ASP623  PHE694  ASN695  SER759  ASP760  ASP761  ALA762  ILE779  LEU786  VAL792 
 PHE793  MET794  SER795  GLU796  ALA797  LYS798  CYS799  TRP800  GLU811  SER814 

> <Gold.Protein.RotatedAtoms>
  152.5408  134.0577  159.8137 H   0  0  0  0  0  0  0  0  0  0  0  0  # atno 6907 bound_to 6896
  151.0709  133.5459  159.2634 H   0  0  0  0  0  0  0  0  0  0  0  0  # atno 6908 bound_to 6896
  151.2322  135.0567  159.9046 H   0  0  0  0  0  0  0  0  0  0  0  0  # atno 6909 bound_to 6896
  146.1573  139.6706  142.9057 H   0  0  0  0  0  0  0  0  0  0  0  0  # atno 7974 bound_to 7965
  155.8606  140.3454  155.5754 H   0  0  0  0  0  0  0  0  0  0  0  0  # atno 8008 bound_to 7997
  155.7937  140.0875  157.2014 H   0  0  0  0  0  0  0  0  0  0  0  0  # atno 8009 bound_to 7997
  154.4011  140.1478  156.3180 H   0  0  0  0  0  0  0  0  0  0  0  0  # atno 8010 bound_to 7997
  140.7061  143.3207  151.2799 H   0  0  0  0  0  0  0  0  0  0  0  0  # atno 10167 bound_to 10162
  156.0198  130.4447  150.3084 H   0  0  0  0  0  0  0  0  0  0  0  0  # atno 10718 bound_to 10713
  153.4847  135.7017  153.5918 H   0  0  0  0  0  0  0  0  0  0  0  0  # atno 10763 bound_to 10752
  153.4116  135.3847  155.2054 H   0  0  0  0  0  0  0  0  0  0  0  0  # atno 10764 bound_to 10752
  154.8720  135.3906  154.4301 H   0  0  0  0  0  0  0  0  0  0  0  0  # atno 10765 bound_to 10752
  140.6976  134.3972  157.5213 H   0  0  0  0  0  0  0  0  0  0  0  0  # atno 11005 bound_to 11000
  145.4675  141.0435  143.2717 LP  0  0  0  0  0  0  0  0  0  0  0  0  # atno 17320 bound_to 7965
  144.7981  139.6195  143.7084 LP  0  0  0  0  0  0  0  0  0  0  0  0  # atno 17321 bound_to 7965
  139.6660  144.0104  152.2723 LP  0  0  0  0  0  0  0  0  0  0  0  0  # atno 17342 bound_to 10162
  139.9687  144.6508  150.8010 LP  0  0  0  0  0  0  0  0  0  0  0  0  # atno 17343 bound_to 10162
  157.1186  131.0240  151.3018 LP  0  0  0  0  0  0  0  0  0  0  0  0  # atno 17370 bound_to 10713
  157.4646  130.7673  149.7267 LP  0  0  0  0  0  0  0  0  0  0  0  0  # atno 17371 bound_to 10713
  139.8905  134.8802  156.2364 LP  0  0  0  0  0  0  0  0  0  0  0  0  # atno 17394 bound_to 11000
  141.0190  133.7052  156.1236 LP  0  0  0  0  0  0  0  0  0  0  0  0  # atno 17395 bound_to 11000

$$$$
