AV-unprocessed.smi:2575|AV-procd|sdf|10117|dock2
  -GOLD-   2272014133D 1   1.00000     0.00000
 Structure written by MMmdl.
 31 32  0  0  0  0  0  0  0  0  1 V2000
  146.4558  142.8967  154.0579 C   0  0  0  0  0  0  0  0  0  0  0  0
  146.8817  141.8095  155.0470 C   0  0  0  0  0  0  0  0  0  0  0  0
  148.2867  141.6403  154.9646 O   0  0  0  0  0  0  0  0  0  0  0  0
  148.7649  140.5921  155.7936 C   0  0  0  0  0  0  0  0  0  0  0  0
  150.2151  140.2390  155.4247 C   0  0  1  0  0  0  0  0  0  0  0  0
  150.2899  139.9583  154.0404 O   0  0  0  0  0  0  0  0  0  0  0  0
  151.2374  141.3165  155.8383 C   0  0  0  0  0  0  0  0  0  0  0  0
  151.8816  141.0136  157.1038 N   0  0  0  0  0  0  0  0  0  0  0  0
  152.4637  139.7941  157.2820 N   0  0  0  0  0  0  0  0  0  0  0  0
  152.9729  139.7467  158.4769 N   0  0  0  0  0  0  0  0  0  0  0  0
  152.7213  140.9585  159.0983 C   0  0  0  0  0  0  0  0  0  0  0  0
  153.0446  141.4422  160.3856 C   0  0  0  0  0  0  0  0  0  0  0  0
  152.6635  142.7451  160.7754 C   0  0  0  0  0  0  0  0  0  0  0  0
  153.0753  143.3000  162.3591 Cl  0  0  0  0  0  0  0  0  0  0  0  0
  151.9545  143.5806  159.8787 C   0  0  0  0  0  0  0  0  0  0  0  0
  151.4835  145.1780  160.3389 Cl  0  0  0  0  0  0  0  0  0  0  0  0
  151.6246  143.1109  158.5916 C   0  0  0  0  0  0  0  0  0  0  0  0
  152.0111  141.8105  158.2246 C   0  0  0  0  0  0  0  0  0  0  0  0
  145.3775  143.0536  154.0921 H   0  0  0  0  0  0  0  0  0  0  0  0
  146.7219  142.6222  153.0368 H   0  0  0  0  0  0  0  0  0  0  0  0
  146.9400  143.8462  154.2873 H   0  0  0  0  0  0  0  0  0  0  0  0
  146.5953  142.0956  156.0601 H   0  0  0  0  0  0  0  0  0  0  0  0
  146.3748  140.8728  154.8109 H   0  0  0  0  0  0  0  0  0  0  0  0
  148.7330  140.9247  156.8324 H   0  0  0  0  0  0  0  0  0  0  0  0
  148.1226  139.7127  155.7193 H   0  0  0  0  0  0  0  0  0  0  0  0
  150.4654  139.3078  155.9344 H   0  0  0  0  0  0  0  0  0  0  0  0
  149.4899  139.5293  153.7769 H   0  0  0  0  0  0  0  0  0  0  0  0
  152.0110  141.4264  155.0775 H   0  0  0  0  0  0  0  0  0  0  0  0
  150.7469  142.2874  155.9235 H   0  0  0  0  0  0  0  0  0  0  0  0
  153.5861  140.8101  161.0739 H   0  0  0  0  0  0  0  0  0  0  0  0
  151.0846  143.7383  157.8976 H   0  0  0  0  0  0  0  0  0  0  0  0
  1  2  1  0  0  0  0
  1 19  1  0  0  0  0
  1 20  1  0  0  0  0
  1 21  1  0  0  0  0
  2  3  1  0  0  0  0
  2 22  1  0  0  0  0
  2 23  1  0  0  0  0
  3  4  1  0  0  0  0
  4  5  1  0  0  0  0
  4 24  1  0  0  0  0
  4 25  1  0  0  0  0
  5  6  1  0  0  0  0
  5  7  1  0  0  0  0
  5 26  1  0  0  0  0
  6 27  1  0  0  0  0
  7  8  1  0  0  0  0
  7 28  1  0  0  0  0
  7 29  1  0  0  0  0
  8 18  1  0  0  0  0
  8  9  1  0  0  0  0
  9 10  2  0  0  0  0
 10 11  1  0  0  0  0
 11 18  2  0  0  0  0
 11 12  1  0  0  0  0
 12 13  2  0  0  0  0
 12 30  1  0  0  0  0
 13 14  1  0  0  0  0
 13 15  1  0  0  0  0
 15 16  1  0  0  0  0
 15 17  2  0  0  0  0
 17 18  1  0  0  0  0
 17 31  1  0  0  0  0
M  END
> <s_m_source_file>
AV-unprocessed.smi

> <i_m_source_file_index>
2575

> <i_lp_mmshare_version>
43012

> <i_f3d_flags>
0

> <s_epik_input>
W0NIM11bQ0gyXU9bQ0gyXVtDQEhdKFtPSF0pW0NIMl1uKG5uMSljKGMxMilbY0hdYyhDbCljKENsKVtjSF0y

> <s_epik_cmdline>
J2VwaWtfcHl0aG9uJywgJy1waCcsICc3LjAnLCAnLXRuJywgJzgnLCAnLW1hJywgJzIwMCcsICctbWV0YWxfYmluZGluZycsICctaW1hZScsICc8aW5maWxlLm1hZT4nLCAnLW9tYWUnLCAnPG91dGZpbGUubWFlPic=

> <r_lp_tautomer_probability>
1

> <r_epik_Ionization_Penalty>
2.39516e-06

> <r_epik_Ionization_Penalty_Charging>
0

> <r_epik_Ionization_Penalty_Neutral>
2.39516e-06

> <r_epik_State_Penalty>
-0

> <r_epik_Charging_Adjusted_Penalty>
0

> <i_epik_Tot_Q>
0

> <i_epik_Tot_abs_Q>
0

> <r_epik_Metal_State_Penalty>
-0

> <b_epik_Metal_Only>
0

> <s_lp_Force_Field>
OPLS_2005

> <r_lp_Energy>
8.42798

> <b_lp_Chiralities_Consistent>
1

> <s_lp_Variant>
AV-unprocessed.smi:2575-2

> <Gold.Version>
5.8.1

> <Gold.Id.Protein>
6NUR|6NUR_protein|mol2

> <Gold.PLP.Fitness>
43.6145

> <Gold.PLP.PLP>
-40.3136

> <Gold.PLP.part.hbond>
-3.4261

> <Gold.PLP.part.metal>
0.0000

> <Gold.PLP.part.buried>
-6.0916

> <Gold.PLP.part.nonpolar>
-29.4809

> <Gold.PLP.part.repulsive>
0.1338

> <Gold.PLP.ligand.clash>
0.0000

> <Gold.PLP.ligand.torsion>
0.6937

> <Gold.PLP.Chemscore.Hbond>
1.5363

> <Gold.PLP.Chemscore.CHOScore>
0.0000

> <Gold.PLP.Chemscore.Metal>
0.0000

> <Gold.Chemscore.Hbonds>
donor molecule, donor type, donor heavy atom, donor atom, acceptor molecule, acceptor atom, score
      P1  H  7989  7998       L1     6  1.00
      P1  H  7997  8008       L1     9  0.46

> <Gold.PLP.Chemscore.Internal.Correction>
0.0795

> <Gold.Rescore>
     Score         DG    S(hbond)    S(metal)    S(lipo)     H(rot)  DE(clash)    DE(int)     intcor
     15.65     -16.55       1.04        0.00     112.96       2.19       0.26       0.65       ----

> <Gold.Chemscore.Fitness>
15.6483

> <Gold.Chemscore.DG>
-16.5547

> <Gold.Chemscore.ZeroCoef>
-5.4800

> <Gold.Chemscore.Hbond>
1.0374

> <Gold.Chemscore.Metal>
0.0000

> <Gold.Chemscore.Lipo>
112.9614

> <Gold.Chemscore.Internal_Hbond>
0.0000

> <Gold.Chemscore.DEClash>
0.2602

> <Gold.Chemscore.DEInternal>
0.6462

> <Gold.Chemscore.Rot>
2.1901

> <Gold.Chemscore.Internal.Correction>
   9.000000E+99

> <Gold.Chemscore.Hbonds>
donor molecule, donor type, donor heavy atom, donor atom, acceptor molecule, acceptor atom, score
      P1  H  7989  7998       L1     6  0.48
      P1  H  7997  8008       L1     9  0.01

> <Gold.Chemscore.Hbond.Weighted>
-3.4648

> <Gold.Chemscore.Metal.Weighted>
-0.0000

> <Gold.Chemscore.Lipo.Weighted>
-13.2165

> <Gold.Chemscore.Internal_Hbond.Weighted>
0.0000

> <Gold.Chemscore.DEClash.Weighted>
0.2602

> <Gold.Chemscore.DEInternal.Weighted>
0.6462

> <Gold.Chemscore.Rot.Weighted>
5.6066

> <Gold.Chemscore.Internal.Correction.Weighted>
   9.000000E+99

> <Gold.Protein.RotatedTorsions>
[ 6907 6896 6895 6894 ] final   -0.03 input  -60.11 | X-H torsion
[ 7974 7965 7964 7962 ] final -102.06 input  175.53 | X-H torsion
[ 8008 7997 7996 7995 ] final  -51.57 input   59.86 | X-H torsion
[ 10167 10162 10161 10158 ] final  -71.32 input  -65.29 | X-H torsion
[ 10718 10713 10712 10709 ] final  -89.18 input   66.30 | X-H torsion
[ 10763 10752 10751 10750 ] final   24.10 input  -60.55 | X-H torsion
[ 11005 11000 10999 10996 ] final   89.31 input  -57.11 | X-H torsion

> <Gold.Protein.ActiveResidues>
 VAL166  LYS551  ARG553  GLY616  TRP617  ASP618  TYR619  PRO620  LYS621  CYS622 
 ASP623  PHE694  ASN695  SER759  ASP760  ASP761  ALA762  ILE779  LEU786  VAL792 
 PHE793  MET794  SER795  GLU796  ALA797  LYS798  CYS799  TRP800  GLU811  SER814 

> <Gold.Protein.RotatedAtoms>
  151.5688  135.1063  159.9990 H   0  0  0  0  0  0  0  0  0  0  0  0  # atno 6907 bound_to 6896
  152.4411  133.7445  159.6670 H   0  0  0  0  0  0  0  0  0  0  0  0  # atno 6908 bound_to 6896
  150.8316  133.8012  159.3119 H   0  0  0  0  0  0  0  0  0  0  0  0  # atno 6909 bound_to 6896
  145.2736  140.9306  143.2972 H   0  0  0  0  0  0  0  0  0  0  0  0  # atno 7974 bound_to 7965
  154.4086  140.1245  156.4850 H   0  0  0  0  0  0  0  0  0  0  0  0  # atno 8008 bound_to 7997
  155.7047  140.3494  155.4928 H   0  0  0  0  0  0  0  0  0  0  0  0  # atno 8009 bound_to 7997
  155.9354  140.1077  157.1089 H   0  0  0  0  0  0  0  0  0  0  0  0  # atno 8010 bound_to 7997
  140.5282  143.2324  151.7309 H   0  0  0  0  0  0  0  0  0  0  0  0  # atno 10167 bound_to 10162
  155.9984  130.4863  150.5132 H   0  0  0  0  0  0  0  0  0  0  0  0  # atno 10718 bound_to 10713
  153.0789  135.6612  154.0088 H   0  0  0  0  0  0  0  0  0  0  0  0  # atno 10763 bound_to 10752
  153.9715  135.2964  155.3428 H   0  0  0  0  0  0  0  0  0  0  0  0  # atno 10764 bound_to 10752
  154.7183  135.5175  153.8844 H   0  0  0  0  0  0  0  0  0  0  0  0  # atno 10765 bound_to 10752
  139.8878  134.8543  156.3124 H   0  0  0  0  0  0  0  0  0  0  0  0  # atno 11005 bound_to 11000
  144.9313  139.4295  143.6493 LP  0  0  0  0  0  0  0  0  0  0  0  0  # atno 17320 bound_to 7965
  146.3238  139.8226  142.8924 LP  0  0  0  0  0  0  0  0  0  0  0  0  # atno 17321 bound_to 7965
  139.4945  144.4153  152.0036 LP  0  0  0  0  0  0  0  0  0  0  0  0  # atno 17342 bound_to 10162
  140.3254  144.3379  150.5999 LP  0  0  0  0  0  0  0  0  0  0  0  0  # atno 17343 bound_to 10162
  157.3102  131.0662  151.2006 LP  0  0  0  0  0  0  0  0  0  0  0  0  # atno 17370 bound_to 10713
  157.2955  130.6817  149.6136 LP  0  0  0  0  0  0  0  0  0  0  0  0  # atno 17371 bound_to 10713
  140.9841  133.7249  156.0716 LP  0  0  0  0  0  0  0  0  0  0  0  0  # atno 17394 bound_to 11000
  140.7710  134.3832  157.5507 LP  0  0  0  0  0  0  0  0  0  0  0  0  # atno 17395 bound_to 11000

$$$$
