AV-unprocessed.smi:1180|AV-procd|sdf|4963|dock2
  -GOLD-   22720 3553D 1   1.00000     0.00000
 Structure written by MMmdl.
 38 39  0  0  0  0  0  0  0  0  1 V2000
  146.3489  138.2808  152.1424 C   0  0  0  0  0  0  0  0  0  0  0  0
  147.2405  139.2463  152.8932 C   0  0  0  0  0  0  0  0  0  0  0  0
  146.6438  140.4698  153.1482 N   0  0  0  0  0  0  0  0  0  0  0  0
  147.3766  141.4171  153.8413 C   0  0  0  0  0  0  0  0  0  0  0  0
  146.6396  142.7221  154.0872 C   0  0  0  0  0  0  0  0  0  0  0  0
  148.6440  141.1595  154.2547 C   0  0  0  0  0  0  0  0  0  0  0  0
  149.4932  142.1681  155.0253 C   0  0  0  0  0  0  0  0  0  0  0  0
  150.1973  141.6157  156.2648 C   0  0  0  0  0  0  0  0  0  0  0  0
  149.9345  140.4846  156.6717 O   0  0  0  0  0  0  0  0  0  0  0  0
  151.0878  142.4281  156.8544 N   0  0  0  0  0  0  0  0  0  0  0  0
  151.8629  142.1146  158.0503 C   0  0  0  0  0  0  0  0  0  0  0  0
  152.3191  143.3862  158.7903 C   0  0  1  0  0  0  0  0  0  0  0  0
  151.4257  144.5860  158.5511 C   0  0  0  0  0  0  0  0  0  0  0  0
  151.8139  145.5057  159.7051 C   0  0  0  0  0  0  0  0  0  0  0  0
  152.1948  144.6478  160.7769 O   0  0  0  0  0  0  0  0  0  0  0  0
  152.2833  143.3025  160.3175 C   0  0  0  0  0  0  0  0  0  0  0  0
  149.2339  139.8369  153.9389 C   0  0  0  0  0  0  0  0  0  0  0  0
  150.3849  139.5518  154.2680 O   0  0  0  0  0  0  0  0  0  0  0  0
  148.4442  138.9077  153.2425 N   0  0  0  0  0  0  0  0  0  0  0  0
  145.7028  140.7005  152.8633 H   0  0  0  0  0  0  0  0  0  0  0  0
  146.8586  137.3320  151.9701 H   0  0  0  0  0  0  0  0  0  0  0  0
  146.0678  138.6969  151.1745 H   0  0  0  0  0  0  0  0  0  0  0  0
  145.4402  138.0813  152.7115 H   0  0  0  0  0  0  0  0  0  0  0  0
  147.1773  143.5564  153.6373 H   0  0  0  0  0  0  0  0  0  0  0  0
  146.5407  142.9098  155.1564 H   0  0  0  0  0  0  0  0  0  0  0  0
  145.6366  142.7033  153.6589 H   0  0  0  0  0  0  0  0  0  0  0  0
  148.8891  143.0334  155.3030 H   0  0  0  0  0  0  0  0  0  0  0  0
  150.2579  142.5749  154.3639 H   0  0  0  0  0  0  0  0  0  0  0  0
  151.2349  143.3397  156.4455 H   0  0  0  0  0  0  0  0  0  0  0  0
  151.2252  141.5228  158.7071 H   0  0  0  0  0  0  0  0  0  0  0  0
  152.7176  141.4813  157.8055 H   0  0  0  0  0  0  0  0  0  0  0  0
  153.3325  143.6439  158.4769 H   0  0  0  0  0  0  0  0  0  0  0  0
  151.5761  145.0460  157.5740 H   0  0  0  0  0  0  0  0  0  0  0  0
  150.3756  144.3031  158.6370 H   0  0  0  0  0  0  0  0  0  0  0  0
  152.6736  146.1183  159.4308 H   0  0  0  0  0  0  0  0  0  0  0  0
  151.0021  146.1724  159.9966 H   0  0  0  0  0  0  0  0  0  0  0  0
  151.3947  142.7668  160.6541 H   0  0  0  0  0  0  0  0  0  0  0  0
  153.1580  142.7993  160.7303 H   0  0  0  0  0  0  0  0  0  0  0  0
  1 21  1  0  0  0  0
  1 22  1  0  0  0  0
  1 23  1  0  0  0  0
  1  2  1  0  0  0  0
  2  3  1  0  0  0  0
  2 19  2  0  0  0  0
  3  4  1  0  0  0  0
  3 20  1  0  0  0  0
  4  6  2  0  0  0  0
  4  5  1  0  0  0  0
  5 24  1  0  0  0  0
  5 25  1  0  0  0  0
  5 26  1  0  0  0  0
  6 17  1  0  0  0  0
  6  7  1  0  0  0  0
  7  8  1  0  0  0  0
  7 27  1  0  0  0  0
  7 28  1  0  0  0  0
  8  9  2  0  0  0  0
  8 10  1  0  0  0  0
 10 11  1  0  0  0  0
 10 29  1  0  0  0  0
 11 12  1  0  0  0  0
 11 30  1  0  0  0  0
 11 31  1  0  0  0  0
 12 16  1  0  0  0  0
 12 13  1  0  0  0  0
 12 32  1  0  0  0  0
 13 14  1  0  0  0  0
 13 33  1  0  0  0  0
 13 34  1  0  0  0  0
 14 15  1  0  0  0  0
 14 35  1  0  0  0  0
 14 36  1  0  0  0  0
 15 16  1  0  0  0  0
 16 37  1  0  0  0  0
 16 38  1  0  0  0  0
 17 18  2  0  0  0  0
 17 19  1  0  0  0  0
M  END
> <s_m_source_file>
AV-unprocessed.smi

> <i_m_source_file_index>
1180

> <i_lp_mmshare_version>
43012

> <i_f3d_flags>
0

> <s_epik_input>
W0NIM11jMW5jKFtDSDNdKWMoYyg9TylbbkhdMSlbQ0gyXUMoPU8pW05IXVtDSDJdW0NAQEhdMltDSDJdW0NIMl1PW0NIMl0y

> <s_epik_cmdline>
J2VwaWtfcHl0aG9uJywgJy1waCcsICc3LjAnLCAnLXRuJywgJzgnLCAnLW1hJywgJzIwMCcsICctbWV0YWxfYmluZGluZycsICctaW1hZScsICc8aW5maWxlLm1hZT4nLCAnLW9tYWUnLCAnPG91dGZpbGUubWFlPic=

> <r_lp_tautomer_probability>
0.156392

> <r_epik_Ionization_Penalty>
0.014237

> <r_epik_Ionization_Penalty_Charging>
0.0141173

> <r_epik_Ionization_Penalty_Neutral>
0.000119724

> <r_epik_State_Penalty>
1.52876

> <r_epik_Charging_Adjusted_Penalty>
1.54288

> <i_epik_Tot_Q>
0

> <i_epik_Tot_abs_Q>
0

> <r_epik_Metal_State_Penalty>
1.70686

> <b_epik_Metal_Only>
0

> <s_lp_Force_Field>
OPLS_2005

> <r_lp_Energy>
23.3722

> <b_lp_Chiralities_Consistent>
1

> <s_lp_Variant>
AV-unprocessed.smi:1180-4

> <Gold.Version>
5.8.1

> <Gold.Id.Protein>
6NUR|6NUR_protein|mol2

> <Gold.PLP.Fitness>
42.1837

> <Gold.PLP.PLP>
-37.9217

> <Gold.PLP.part.hbond>
-2.0000

> <Gold.PLP.part.metal>
0.0000

> <Gold.PLP.part.buried>
0.3322

> <Gold.PLP.part.nonpolar>
-39.4747

> <Gold.PLP.part.repulsive>
3.2918

> <Gold.PLP.ligand.clash>
0.0000

> <Gold.PLP.ligand.torsion>
0.8747

> <Gold.PLP.Chemscore.Hbond>
2.0000

> <Gold.PLP.Chemscore.CHOScore>
0.0000

> <Gold.PLP.Chemscore.Metal>
0.0000

> <Gold.Chemscore.Hbonds>
donor molecule, donor type, donor heavy atom, donor atom, acceptor molecule, acceptor atom, score
      L1  H     3    20       P1 10175  0.93
      P1  H  7989  7998       L1    18  1.00

> <Gold.PLP.Chemscore.Internal.Correction>
0.0114

> <Gold.Rescore>
     Score         DG    S(hbond)    S(metal)    S(lipo)     H(rot)  DE(clash)    DE(int)     intcor
     11.03     -17.94       1.90        0.00      91.64       1.81       2.18       4.73       ----

> <Gold.Chemscore.Fitness>
11.0274

> <Gold.Chemscore.DG>
-17.9383

> <Gold.Chemscore.ZeroCoef>
-5.4800

> <Gold.Chemscore.Hbond>
1.9044

> <Gold.Chemscore.Metal>
0.0000

> <Gold.Chemscore.Lipo>
91.6430

> <Gold.Chemscore.Internal_Hbond>
0.0000

> <Gold.Chemscore.DEClash>
2.1824

> <Gold.Chemscore.DEInternal>
4.7285

> <Gold.Chemscore.Rot>
1.8065

> <Gold.Chemscore.Internal.Correction>
   9.000000E+99

> <Gold.Chemscore.Hbonds>
donor molecule, donor type, donor heavy atom, donor atom, acceptor molecule, acceptor atom, score
      L1  H     3    20       P1 10175  0.49
      P1  H  7989  7998       L1    18  0.69

> <Gold.Chemscore.Hbond.Weighted>
-6.3606

> <Gold.Chemscore.Metal.Weighted>
-0.0000

> <Gold.Chemscore.Lipo.Weighted>
-10.7222

> <Gold.Chemscore.Internal_Hbond.Weighted>
0.0000

> <Gold.Chemscore.DEClash.Weighted>
2.1824

> <Gold.Chemscore.DEInternal.Weighted>
4.7285

> <Gold.Chemscore.Rot.Weighted>
4.6246

> <Gold.Chemscore.Internal.Correction.Weighted>
   9.000000E+99

> <Gold.Protein.RotatedTorsions>
[ 6907 6896 6895 6894 ] final -107.10 input  -60.11 | X-H torsion
[ 7974 7965 7964 7962 ] final  -21.41 input  175.53 | X-H torsion
[ 8008 7997 7996 7995 ] final  -29.98 input   59.86 | X-H torsion
[ 10167 10162 10161 10158 ] final  -70.72 input  -65.29 | X-H torsion
[ 10718 10713 10712 10709 ] final  -29.33 input   66.30 | X-H torsion
[ 10763 10752 10751 10750 ] final  -33.97 input  -60.55 | X-H torsion
[ 11005 11000 10999 10996 ] final   90.81 input  -57.11 | X-H torsion

> <Gold.Protein.ActiveResidues>
 VAL166  LYS551  ARG553  GLY616  TRP617  ASP618  TYR619  PRO620  LYS621  CYS622 
 ASP623  PHE694  ASN695  SER759  ASP760  ASP761  ALA762  ILE779  LEU786  VAL792 
 PHE793  MET794  SER795  GLU796  ALA797  LYS798  CYS799  TRP800  GLU811  SER814 

> <Gold.Protein.RotatedAtoms>
  150.7425  133.9877  159.3596 H   0  0  0  0  0  0  0  0  0  0  0  0  # atno 6907 bound_to 6896
  151.7823  135.0756  160.0385 H   0  0  0  0  0  0  0  0  0  0  0  0  # atno 6908 bound_to 6896
  152.3266  133.5875  159.5817 H   0  0  0  0  0  0  0  0  0  0  0  0  # atno 6909 bound_to 6896
  146.1734  140.4337  142.8523 H   0  0  0  0  0  0  0  0  0  0  0  0  # atno 7974 bound_to 7965
  154.4268  140.1804  156.1333 H   0  0  0  0  0  0  0  0  0  0  0  0  # atno 8008 bound_to 7997
  156.0050  140.3356  155.6858 H   0  0  0  0  0  0  0  0  0  0  0  0  # atno 8009 bound_to 7997
  155.6190  140.0658  157.2674 H   0  0  0  0  0  0  0  0  0  0  0  0  # atno 8010 bound_to 7997
  140.5330  143.2320  151.7228 H   0  0  0  0  0  0  0  0  0  0  0  0  # atno 10167 bound_to 10162
  156.4138  130.4413  149.7233 H   0  0  0  0  0  0  0  0  0  0  0  0  # atno 10718 bound_to 10713
  153.8390  135.6859  153.4805 H   0  0  0  0  0  0  0  0  0  0  0  0  # atno 10763 bound_to 10752
  153.1465  135.4635  154.9572 H   0  0  0  0  0  0  0  0  0  0  0  0  # atno 10764 bound_to 10752
  154.7853  135.3283  154.7845 H   0  0  0  0  0  0  0  0  0  0  0  0  # atno 10765 bound_to 10752
  139.8849  134.8636  156.3338 H   0  0  0  0  0  0  0  0  0  0  0  0  # atno 11005 bound_to 11000
  144.8198  140.6531  143.6360 LP  0  0  0  0  0  0  0  0  0  0  0  0  # atno 17320 bound_to 7965
  145.4278  139.1554  143.4039 LP  0  0  0  0  0  0  0  0  0  0  0  0  # atno 17321 bound_to 7965
  139.4961  144.4086  152.0105 LP  0  0  0  0  0  0  0  0  0  0  0  0  # atno 17342 bound_to 10162
  140.3189  144.3451  150.6014 LP  0  0  0  0  0  0  0  0  0  0  0  0  # atno 17343 bound_to 10162
  156.4201  130.7764  151.2781 LP  0  0  0  0  0  0  0  0  0  0  0  0  # atno 17370 bound_to 10713
  157.7507  131.0185  150.3630 LP  0  0  0  0  0  0  0  0  0  0  0  0  # atno 17371 bound_to 10713
  140.9705  133.7331  156.0527 LP  0  0  0  0  0  0  0  0  0  0  0  0  # atno 17394 bound_to 11000
  140.7877  134.3653  157.5472 LP  0  0  0  0  0  0  0  0  0  0  0  0  # atno 17395 bound_to 11000

$$$$
