AV-unprocessed.smi:2787|AV-procd|sdf|10757|dock5
  -GOLD-   2272015193D 1   1.00000     0.00000
 Structure written by MMmdl.
 35 36  0  0  0  0  0  0  0  0  1 V2000
  150.1333  138.3999  153.5095 O   0  0  0  0  0  0  0  0  0  0  0  0
  151.2816  137.9725  154.2116 C   0  0  0  0  0  0  0  0  0  0  0  0
  151.8888  139.1350  155.0105 C   0  0  0  0  0  0  0  0  0  0  0  0
  151.5729  139.0676  156.5150 C   0  0  0  0  0  0  0  0  0  0  0  0
  151.6888  140.4023  157.1955 C   0  0  0  0  0  0  0  0  0  0  0  0
  152.4632  140.5517  158.2716 N   0  0  0  0  0  0  0  0  0  0  0  0
  152.3077  141.8870  158.5828 C   0  0  0  0  0  0  0  0  0  0  0  0
  152.8777  142.6618  159.6185 C   0  0  0  0  0  0  0  0  0  0  0  0
  152.5645  144.0316  159.7398 C   0  0  0  0  0  0  0  0  0  0  0  0
  151.6785  144.6441  158.8301 C   0  0  0  0  0  0  0  0  0  0  0  0
  151.1001  143.8895  157.7914 C   0  0  0  0  0  0  0  0  0  0  0  0
  151.4168  142.5224  157.6739 C   0  0  0  0  0  0  0  0  0  0  0  0
  151.0288  141.5210  156.7880 N   0  0  0  0  0  0  0  0  0  0  0  0
  150.0969  141.7049  155.6799 C   0  0  0  0  0  0  0  0  0  0  0  0
  148.6422  141.3641  156.0612 C   0  0  1  0  0  0  0  0  0  0  0  0
  148.1058  142.3915  156.8703 O   0  0  0  0  0  0  0  0  0  0  0  0
  147.7332  141.1592  154.8340 C   0  0  0  0  0  0  0  0  0  0  0  0
  146.5102  140.7988  155.2234 F   0  0  0  0  0  0  0  0  0  0  0  0
  147.6599  142.2710  154.1017 F   0  0  0  0  0  0  0  0  0  0  0  0
  148.2272  140.1811  154.0747 F   0  0  0  0  0  0  0  0  0  0  0  0
  149.6799  137.6385  153.1810 H   0  0  0  0  0  0  0  0  0  0  0  0
  151.0199  137.1426  154.8689 H   0  0  0  0  0  0  0  0  0  0  0  0
  152.0068  137.5960  153.4897 H   0  0  0  0  0  0  0  0  0  0  0  0
  152.9711  139.1210  154.8761 H   0  0  0  0  0  0  0  0  0  0  0  0
  151.5472  140.0819  154.5927 H   0  0  0  0  0  0  0  0  0  0  0  0
  150.5849  138.6393  156.6613 H   0  0  0  0  0  0  0  0  0  0  0  0
  152.2660  138.3799  157.0010 H   0  0  0  0  0  0  0  0  0  0  0  0
  153.5570  142.2012  160.3203 H   0  0  0  0  0  0  0  0  0  0  0  0
  153.0055  144.6151  160.5347 H   0  0  0  0  0  0  0  0  0  0  0  0
  151.4430  145.6935  158.9304 H   0  0  0  0  0  0  0  0  0  0  0  0
  150.4215  144.3566  157.0934 H   0  0  0  0  0  0  0  0  0  0  0  0
  150.1735  142.7139  155.2804 H   0  0  0  0  0  0  0  0  0  0  0  0
  150.4196  141.0537  154.8669 H   0  0  0  0  0  0  0  0  0  0  0  0
  148.6375  140.4484  156.6538 H   0  0  0  0  0  0  0  0  0  0  0  0
  148.0681  143.1855  156.3595 H   0  0  0  0  0  0  0  0  0  0  0  0
  1  2  1  0  0  0  0
  1 21  1  0  0  0  0
  2  3  1  0  0  0  0
  2 22  1  0  0  0  0
  2 23  1  0  0  0  0
  3  4  1  0  0  0  0
  3 24  1  0  0  0  0
  3 25  1  0  0  0  0
  4  5  1  0  0  0  0
  4 26  1  0  0  0  0
  4 27  1  0  0  0  0
  5 13  1  0  0  0  0
  5  6  2  0  0  0  0
  6  7  1  0  0  0  0
  7 12  2  0  0  0  0
  7  8  1  0  0  0  0
  8  9  2  0  0  0  0
  8 28  1  0  0  0  0
  9 10  1  0  0  0  0
  9 29  1  0  0  0  0
 10 11  2  0  0  0  0
 10 30  1  0  0  0  0
 11 12  1  0  0  0  0
 11 31  1  0  0  0  0
 12 13  1  0  0  0  0
 13 14  1  0  0  0  0
 14 15  1  0  0  0  0
 14 32  1  0  0  0  0
 14 33  1  0  0  0  0
 15 16  1  0  0  0  0
 15 17  1  0  0  0  0
 15 34  1  0  0  0  0
 16 35  1  0  0  0  0
 17 18  1  0  0  0  0
 17 19  1  0  0  0  0
 17 20  1  0  0  0  0
M  END
> <s_m_source_file>
AV-unprocessed.smi

> <i_m_source_file_index>
2787

> <i_lp_mmshare_version>
43012

> <i_f3d_flags>
0

> <s_epik_input>
W09IXVtDSDJdW0NIMl1bQ0gyXWMobjEpbihbQ0gyXVtDQEhdKFtPSF0pQyhGKShGKUYpYyhjMTIpW2NIXVtjSF1bY0hdW2NIXTI=

> <s_epik_cmdline>
J2VwaWtfcHl0aG9uJywgJy1waCcsICc3LjAnLCAnLXRuJywgJzgnLCAnLW1hJywgJzIwMCcsICctbWV0YWxfYmluZGluZycsICctaW1hZScsICc8aW5maWxlLm1hZT4nLCAnLW9tYWUnLCAnPG91dGZpbGUubWFlPic=

> <r_epik_Ionization_Penalty>
0.137914

> <r_epik_Ionization_Penalty_Charging>
0

> <r_epik_Ionization_Penalty_Neutral>
0.137914

> <r_epik_State_Penalty>
0.107668

> <r_epik_Charging_Adjusted_Penalty>
0.107668

> <i_epik_Tot_Q>
0

> <i_epik_Tot_abs_Q>
0

> <r_epik_Metal_State_Penalty>
0.000111872

> <b_epik_Metal_Only>
0

> <s_lp_Force_Field>
OPLS_2005

> <r_lp_Energy>
11.7706

> <b_lp_Chiralities_Consistent>
1

> <s_lp_Variant>
AV-unprocessed.smi:2787-2

> <Gold.Version>
5.8.1

> <Gold.Id.Protein>
6NUR|6NUR_protein|mol2

> <Gold.PLP.Fitness>
49.2939

> <Gold.PLP.PLP>
-45.0506

> <Gold.PLP.part.hbond>
-3.1261

> <Gold.PLP.part.metal>
0.0000

> <Gold.PLP.part.buried>
-1.8604

> <Gold.PLP.part.nonpolar>
-39.0588

> <Gold.PLP.part.repulsive>
0.0000

> <Gold.PLP.ligand.clash>
0.0000

> <Gold.PLP.ligand.torsion>
0.9343

> <Gold.PLP.Chemscore.Hbond>
2.0000

> <Gold.PLP.Chemscore.CHOScore>
0.0000

> <Gold.PLP.Chemscore.Metal>
0.0000

> <Gold.Chemscore.Hbonds>
donor molecule, donor type, donor heavy atom, donor atom, acceptor molecule, acceptor atom, score
      L1  H     1    21       P1  7948  1.00
      L1  H    16    35       P1  8028  1.00

> <Gold.PLP.Chemscore.Internal.Correction>
0.1119

> <Gold.Rescore>
     Score         DG    S(hbond)    S(metal)    S(lipo)     H(rot)  DE(clash)    DE(int)     intcor
     12.91     -14.14       1.54        0.00     105.29       3.44       0.38       0.85       ----

> <Gold.Chemscore.Fitness>
12.9091

> <Gold.Chemscore.DG>
-14.1381

> <Gold.Chemscore.ZeroCoef>
-5.4800

> <Gold.Chemscore.Hbond>
1.5382

> <Gold.Chemscore.Metal>
0.0000

> <Gold.Chemscore.Lipo>
105.2902

> <Gold.Chemscore.Internal_Hbond>
0.0000

> <Gold.Chemscore.DEClash>
0.3780

> <Gold.Chemscore.DEInternal>
0.8511

> <Gold.Chemscore.Rot>
3.4369

> <Gold.Chemscore.Internal.Correction>
   9.000000E+99

> <Gold.Chemscore.Hbonds>
donor molecule, donor type, donor heavy atom, donor atom, acceptor molecule, acceptor atom, score
      L1  H     1    21       P1  7948  0.70
      L1  H    16    35       P1  8028  0.33

> <Gold.Chemscore.Hbond.Weighted>
-5.1375

> <Gold.Chemscore.Metal.Weighted>
-0.0000

> <Gold.Chemscore.Lipo.Weighted>
-12.3190

> <Gold.Chemscore.Internal_Hbond.Weighted>
0.0000

> <Gold.Chemscore.DEClash.Weighted>
0.3780

> <Gold.Chemscore.DEInternal.Weighted>
0.8511

> <Gold.Chemscore.Rot.Weighted>
8.7984

> <Gold.Chemscore.Internal.Correction.Weighted>
   9.000000E+99

> <Gold.Protein.RotatedTorsions>
[ 6907 6896 6895 6894 ] final  -29.25 input  -60.11 | X-H torsion
[ 7974 7965 7964 7962 ] final  -76.75 input  175.53 | X-H torsion
[ 8008 7997 7996 7995 ] final  -35.58 input   59.86 | X-H torsion
[ 10167 10162 10161 10158 ] final   34.42 input  -65.29 | X-H torsion
[ 10718 10713 10712 10709 ] final   41.69 input   66.30 | X-H torsion
[ 10763 10752 10751 10750 ] final  102.42 input  -60.55 | X-H torsion
[ 11005 11000 10999 10996 ] final -137.80 input  -57.11 | X-H torsion

> <Gold.Protein.ActiveResidues>
 VAL166  LYS551  ARG553  GLY616  TRP617  ASP618  TYR619  PRO620  LYS621  CYS622 
 ASP623  PHE694  ASN695  SER759  ASP760  ASP761  ALA762  ILE779  LEU786  VAL792 
 PHE793  MET794  SER795  GLU796  ALA797  LYS798  CYS799  TRP800  GLU811  SER814 

> <Gold.Protein.RotatedAtoms>
  151.1217  135.0083  159.8541 H   0  0  0  0  0  0  0  0  0  0  0  0  # atno 6907 bound_to 6896
  152.5448  134.1714  159.8608 H   0  0  0  0  0  0  0  0  0  0  0  0  # atno 6908 bound_to 6896
  151.1773  133.4702  159.2627 H   0  0  0  0  0  0  0  0  0  0  0  0  # atno 6909 bound_to 6896
  145.6087  140.9392  143.1201 H   0  0  0  0  0  0  0  0  0  0  0  0  # atno 7974 bound_to 7965
  154.4092  140.1653  156.2235 H   0  0  0  0  0  0  0  0  0  0  0  0  # atno 8008 bound_to 7997
  155.9343  140.3412  155.6252 H   0  0  0  0  0  0  0  0  0  0  0  0  # atno 8009 bound_to 7997
  155.7068  140.0752  157.2378 H   0  0  0  0  0  0  0  0  0  0  0  0  # atno 8010 bound_to 7997
  140.4317  144.1316  150.6160 H   0  0  0  0  0  0  0  0  0  0  0  0  # atno 10167 bound_to 10162
  157.3964  130.7835  149.7312 H   0  0  0  0  0  0  0  0  0  0  0  0  # atno 10718 bound_to 10713
  153.3393  135.4011  155.1559 H   0  0  0  0  0  0  0  0  0  0  0  0  # atno 10763 bound_to 10752
  154.8640  135.3630  154.5366 H   0  0  0  0  0  0  0  0  0  0  0  0  # atno 10764 bound_to 10752
  153.5810  135.7076  153.5523 H   0  0  0  0  0  0  0  0  0  0  0  0  # atno 10765 bound_to 10752
  140.8676  134.2090  157.4670 H   0  0  0  0  0  0  0  0  0  0  0  0  # atno 11005 bound_to 11000
  144.7279  139.7818  143.7358 LP  0  0  0  0  0  0  0  0  0  0  0  0  # atno 17320 bound_to 7965
  146.1521  139.4607  143.0042 LP  0  0  0  0  0  0  0  0  0  0  0  0  # atno 17321 bound_to 7965
  140.4420  143.2522  151.9460 LP  0  0  0  0  0  0  0  0  0  0  0  0  # atno 17342 bound_to 10162
  139.4785  144.5645  151.8187 LP  0  0  0  0  0  0  0  0  0  0  0  0  # atno 17343 bound_to 10162
  155.9811  130.4022  150.3488 LP  0  0  0  0  0  0  0  0  0  0  0  0  # atno 17370 bound_to 10713
  157.1610  131.0345  151.2841 LP  0  0  0  0  0  0  0  0  0  0  0  0  # atno 17371 bound_to 10713
  139.8710  134.9759  156.4902 LP  0  0  0  0  0  0  0  0  0  0  0  0  # atno 17394 bound_to 11000
  140.8610  133.8060  155.9265 LP  0  0  0  0  0  0  0  0  0  0  0  0  # atno 17395 bound_to 11000

$$$$
