AV-unprocessed.smi:1785|AV-procd|sdf|7201|dock9
  -GOLD-   22720 8443D 1   1.00000     0.00000
 Structure written by MMmdl.
 27 28  0  0  0  0  0  0  0  0  2 V2000
  153.2543  141.9168  160.3504 C   0  0  0  0  0  0  0  0  0  0  0  0
  152.4107  143.0404  159.7694 C   0  0  0  0  0  0  0  0  0  0  0  0
  152.1984  144.2085  160.5314 C   0  0  0  0  0  0  0  0  0  0  0  0
  151.4132  145.2437  159.9962 C   0  0  0  0  0  0  0  0  0  0  0  0
  150.8689  145.0617  158.7135 C   0  0  0  0  0  0  0  0  0  0  0  0
  151.0667  143.9484  157.9785 N   0  0  0  0  0  0  0  0  0  0  0  0
  151.8300  142.9441  158.4742 C   0  0  0  0  0  0  0  0  0  0  0  0
  151.9928  141.8493  157.7116 N   0  5  0  0  0  0  0  0  0  0  0  0
  151.0675  141.5041  156.7788 C   0  0  0  0  0  0  0  0  0  0  0  0
  150.0504  142.1608  156.5373 O   0  0  0  0  0  0  0  0  0  0  0  0
  151.3457  140.2737  156.0429 C   0  0  0  0  0  0  0  0  0  0  0  0
  152.2028  139.3563  156.5515 C   0  0  0  0  0  0  0  0  0  0  0  0
  152.5478  138.1943  155.9072 O   0  0  0  0  0  0  0  0  0  0  0  0
  152.1420  138.1290  154.5457 C   0  0  0  0  0  0  0  0  0  0  0  0
  150.7274  138.7029  154.3841 C   0  0  0  0  0  0  0  0  0  0  0  0
  150.6877  140.0452  154.8539 O   0  0  0  0  0  0  0  0  0  0  0  0
  153.5585  142.1353  161.3742 H   0  0  0  0  0  0  0  0  0  0  0  0
  154.1550  141.7723  159.7533 H   0  0  0  0  0  0  0  0  0  0  0  0
  152.6923  140.9826  160.3590 H   0  0  0  0  0  0  0  0  0  0  0  0
  152.6298  144.3120  161.5162 H   0  0  0  0  0  0  0  0  0  0  0  0
  151.2315  146.1502  160.5539 H   0  0  0  0  0  0  0  0  0  0  0  0
  150.2560  145.8296  158.2652 H   0  0  0  0  0  0  0  0  0  0  0  0
  152.7322  139.4588  157.4879 H   0  0  0  0  0  0  0  0  0  0  0  0
  152.8510  138.6863  153.9318 H   0  0  0  0  0  0  0  0  0  0  0  0
  152.1741  137.0917  154.2127 H   0  0  0  0  0  0  0  0  0  0  0  0
  150.4228  138.6820  153.3377 H   0  0  0  0  0  0  0  0  0  0  0  0
  150.0056  138.1048  154.9418 H   0  0  0  0  0  0  0  0  0  0  0  0
  1  2  1  0  0  0  0
  1 17  1  0  0  0  0
  1 18  1  0  0  0  0
  1 19  1  0  0  0  0
  2  7  1  0  0  0  0
  2  3  2  0  0  0  0
  3  4  1  0  0  0  0
  3 20  1  0  0  0  0
  4  5  2  0  0  0  0
  4 21  1  0  0  0  0
  5  6  1  0  0  0  0
  5 22  1  0  0  0  0
  6  7  2  0  0  0  0
  7  8  1  0  0  0  0
  8  9  1  0  0  0  0
  9 10  2  0  0  0  0
  9 11  1  0  0  0  0
 11 16  1  0  0  0  0
 11 12  2  0  0  0  0
 12 13  1  0  0  0  0
 12 23  1  0  0  0  0
 13 14  1  0  0  0  0
 14 15  1  0  0  0  0
 14 24  1  0  0  0  0
 14 25  1  0  0  0  0
 15 16  1  0  0  0  0
 15 26  1  0  0  0  0
 15 27  1  0  0  0  0
M  CHG  1   8  -1
M  END
> <s_m_source_file>
AV-unprocessed.smi

> <i_m_source_file_index>
1785

> <i_lp_mmshare_version>
43012

> <i_f3d_flags>
0

> <s_epik_input>
W0NIM11jMVtjSF1bY0hdW2NIXW5jMVtOSF1DKD1PKUMyPVtDSF1PW0NIMl1bQ0gyXU8y

> <s_epik_cmdline>
J2VwaWtfcHl0aG9uJywgJy1waCcsICc3LjAnLCAnLXRuJywgJzgnLCAnLW1hJywgJzIwMCcsICctbWV0YWxfYmluZGluZycsICctaW1hZScsICc8aW5maWxlLm1hZT4nLCAnLW9tYWUnLCAnPG91dGZpbGUubWFlPic=

> <r_lp_tautomer_probability>
1

> <r_epik_Ionization_Penalty>
11.0036

> <r_epik_Ionization_Penalty_Charging>
5.9985

> <r_epik_Ionization_Penalty_Neutral>
5.00509

> <r_epik_State_Penalty>
5.99847

> <r_epik_Charging_Adjusted_Penalty>
11.997

> <i_epik_Tot_Q>
-1

> <i_epik_Tot_abs_Q>
1

> <r_epik_Metal_State_Penalty>
1.95147

> <b_epik_Metal_Only>
1

> <s_lp_Force_Field>
OPLS_2005

> <r_lp_Energy>
4.89912

> <b_lp_Chiralities_Consistent>
1

> <s_lp_Variant>
AV-unprocessed.smi:1785-2

> <Gold.Version>
5.8.1

> <Gold.Id.Protein>
6NUR|6NUR_protein|mol2

> <Gold.PLP.Fitness>
41.2763

> <Gold.PLP.PLP>
-35.7128

> <Gold.PLP.part.hbond>
-1.0000

> <Gold.PLP.part.metal>
0.0000

> <Gold.PLP.part.buried>
-5.0327

> <Gold.PLP.part.nonpolar>
-31.8032

> <Gold.PLP.part.repulsive>
1.4756

> <Gold.PLP.ligand.clash>
0.0000

> <Gold.PLP.ligand.torsion>
0.3051

> <Gold.PLP.Chemscore.Hbond>
1.0000

> <Gold.PLP.Chemscore.CHOScore>
1.0000

> <Gold.PLP.Chemscore.Metal>
0.0000

> <Gold.Chemscore.Hbonds>
donor molecule, donor type, donor heavy atom, donor atom, acceptor molecule, acceptor atom, score
      P1  H  7989  7998       L1    16  1.00
      L1  C     5    22       P1  8029  0.99

> <Gold.PLP.Chemscore.Internal.Correction>
0.1736

> <Gold.Rescore>
     Score         DG    S(hbond)    S(metal)    S(lipo)     H(rot)  DE(clash)    DE(int)     intcor
     15.24     -17.76       0.69        0.00      85.23       0.00       0.42       2.11       ----

> <Gold.Chemscore.Fitness>
15.2359

> <Gold.Chemscore.DG>
-17.7625

> <Gold.Chemscore.ZeroCoef>
-5.4800

> <Gold.Chemscore.Hbond>
0.6917

> <Gold.Chemscore.Metal>
0.0000

> <Gold.Chemscore.Lipo>
85.2324

> <Gold.Chemscore.Internal_Hbond>
0.0000

> <Gold.Chemscore.DEClash>
0.4168

> <Gold.Chemscore.DEInternal>
2.1098

> <Gold.Chemscore.Rot>
0.0000

> <Gold.Chemscore.Internal.Correction>
   9.000000E+99

> <Gold.Chemscore.Hbonds>
donor molecule, donor type, donor heavy atom, donor atom, acceptor molecule, acceptor atom, score
      P1  H  7989  7998       L1    16  0.17

> <Gold.Chemscore.Hbond.Weighted>
-2.3103

> <Gold.Chemscore.Metal.Weighted>
-0.0000

> <Gold.Chemscore.Lipo.Weighted>
-9.9722

> <Gold.Chemscore.Internal_Hbond.Weighted>
0.0000

> <Gold.Chemscore.DEClash.Weighted>
0.4168

> <Gold.Chemscore.DEInternal.Weighted>
2.1098

> <Gold.Chemscore.Rot.Weighted>
0.0000

> <Gold.Chemscore.Internal.Correction.Weighted>
   9.000000E+99

> <Gold.Protein.RotatedTorsions>
[ 6907 6896 6895 6894 ] final  -97.74 input  -60.11 | X-H torsion
[ 7974 7965 7964 7962 ] final  -72.07 input  175.53 | X-H torsion
[ 8008 7997 7996 7995 ] final   49.89 input   59.86 | X-H torsion
[ 10167 10162 10161 10158 ] final    6.29 input  -65.29 | X-H torsion
[ 10718 10713 10712 10709 ] final   51.39 input   66.30 | X-H torsion
[ 10763 10752 10751 10750 ] final  119.64 input  -60.55 | X-H torsion
[ 11005 11000 10999 10996 ] final   57.66 input  -57.11 | X-H torsion

> <Gold.Protein.ActiveResidues>
 VAL166  LYS551  ARG553  GLY616  TRP617  ASP618  TYR619  PRO620  LYS621  CYS622 
 ASP623  PHE694  ASN695  SER759  ASP760  ASP761  ALA762  ILE779  LEU786  VAL792 
 PHE793  MET794  SER795  GLU796  ALA797  LYS798  CYS799  TRP800  GLU811  SER814 

> <Gold.Protein.RotatedAtoms>
  150.7025  134.1302  159.4066 H   0  0  0  0  0  0  0  0  0  0  0  0  # atno 6907 bound_to 6896
  151.9287  135.0264  160.0537 H   0  0  0  0  0  0  0  0  0  0  0  0  # atno 6908 bound_to 6896
  152.2194  133.4936  159.5190 H   0  0  0  0  0  0  0  0  0  0  0  0  # atno 6909 bound_to 6896
  145.6699  140.9224  143.0889 H   0  0  0  0  0  0  0  0  0  0  0  0  # atno 7974 bound_to 7965
  155.4097  140.3441  155.4263 H   0  0  0  0  0  0  0  0  0  0  0  0  # atno 8008 bound_to 7997
  156.1456  140.1555  156.8884 H   0  0  0  0  0  0  0  0  0  0  0  0  # atno 8009 bound_to 7997
  154.5007  140.0815  156.7773 H   0  0  0  0  0  0  0  0  0  0  0  0  # atno 8010 bound_to 7997
  140.6436  143.7716  150.7464 H   0  0  0  0  0  0  0  0  0  0  0  0  # atno 10167 bound_to 10162
  157.4976  130.8416  149.8277 H   0  0  0  0  0  0  0  0  0  0  0  0  # atno 10718 bound_to 10713
  153.5861  135.3474  155.2893 H   0  0  0  0  0  0  0  0  0  0  0  0  # atno 10763 bound_to 10752
  154.8660  135.4193  154.2567 H   0  0  0  0  0  0  0  0  0  0  0  0  # atno 10764 bound_to 10752
  153.3364  135.7047  153.6975 H   0  0  0  0  0  0  0  0  0  0  0  0  # atno 10765 bound_to 10752
  140.0436  134.5838  155.9351 H   0  0  0  0  0  0  0  0  0  0  0  0  # atno 11005 bound_to 11000
  144.7060  139.8558  143.7429 LP  0  0  0  0  0  0  0  0  0  0  0  0  # atno 17320 bound_to 7965
  146.1054  139.4054  143.0320 LP  0  0  0  0  0  0  0  0  0  0  0  0  # atno 17321 bound_to 7965
  140.1353  143.4489  152.2228 LP  0  0  0  0  0  0  0  0  0  0  0  0  # atno 17342 bound_to 10162
  139.5645  144.7427  151.4061 LP  0  0  0  0  0  0  0  0  0  0  0  0  # atno 17343 bound_to 10162
  156.0210  130.3796  150.1964 LP  0  0  0  0  0  0  0  0  0  0  0  0  # atno 17370 bound_to 10713
  157.0153  130.9963  151.3355 LP  0  0  0  0  0  0  0  0  0  0  0  0  # atno 17371 bound_to 10713
  141.1895  133.6565  156.5372 LP  0  0  0  0  0  0  0  0  0  0  0  0  # atno 17394 bound_to 11000
  140.4030  134.7340  157.4791 LP  0  0  0  0  0  0  0  0  0  0  0  0  # atno 17395 bound_to 11000

$$$$
