AV-unprocessed.smi:72|AV-procd|sdf|664|dock9
  -GOLD-   2262016563D 1   1.00000     0.00000
 Structure written by MMmdl.
 29 30  0  0  0  0  0  0  0  0  1 V2000
  144.6924  132.9540  156.7111 N   0  0  0  0  0  0  0  0  0  0  0  0
  144.8407  134.0812  156.1119 C   0  0  0  0  0  0  0  0  0  0  0  0
  145.7132  135.1038  156.5137 N   0  0  0  0  0  0  0  0  0  0  0  0
  145.7609  136.1937  155.8116 C   0  0  0  0  0  0  0  0  0  0  0  0
  144.9383  136.3891  154.6259 N   0  0  0  0  0  0  0  0  0  0  0  0
  144.9952  137.6624  153.8025 C   0  0  1  0  0  0  0  0  0  0  0  0
  145.7778  138.6178  154.4635 O   0  0  0  0  0  0  0  0  0  0  0  0
  146.9617  138.8682  153.7152 C   0  0  2  0  0  0  0  0  0  0  0  0
  147.5583  140.2395  154.0796 C   0  0  0  0  0  0  0  0  0  0  0  0
  148.8015  140.4645  153.4474 O   0  0  0  0  0  0  0  0  0  0  0  0
  146.5282  138.6550  152.2645 C   0  0  1  0  0  0  0  0  0  0  0  0
  147.6155  138.4459  151.3827 O   0  0  0  0  0  0  0  0  0  0  0  0
  145.5975  137.4517  152.3892 C   0  0  1  0  0  0  0  0  0  0  0  0
  146.2886  136.2193  152.2451 O   0  0  0  0  0  0  0  0  0  0  0  0
  144.0602  135.3627  154.2024 C   0  0  0  0  0  0  0  0  0  0  0  0
  143.3601  135.4684  153.1956 O   0  0  0  0  0  0  0  0  0  0  0  0
  144.0452  134.2522  154.9709 N   0  0  0  0  0  0  0  0  0  0  0  0
  143.9738  138.0457  153.7779 H   0  0  0  0  0  0  0  0  0  0  0  0
  147.6822  138.0954  153.9887 H   0  0  0  0  0  0  0  0  0  0  0  0
  145.9467  139.5071  151.9116 H   0  0  0  0  0  0  0  0  0  0  0  0
  144.8016  137.4852  151.6446 H   0  0  0  0  0  0  0  0  0  0  0  0
  144.0094  132.3849  156.2330 H   0  0  0  0  0  0  0  0  0  0  0  0
  146.4196  137.0235  156.0668 H   0  0  0  0  0  0  0  0  0  0  0  0
  146.8648  141.0396  153.8198 H   0  0  0  0  0  0  0  0  0  0  0  0
  147.7185  140.2948  155.1566 H   0  0  0  0  0  0  0  0  0  0  0  0
  148.7466  140.1539  152.5565 H   0  0  0  0  0  0  0  0  0  0  0  0
  148.3172  139.0285  151.6295 H   0  0  0  0  0  0  0  0  0  0  0  0
  147.2143  136.4000  152.1897 H   0  0  0  0  0  0  0  0  0  0  0  0
  143.4259  133.5043  154.6952 H   0  0  0  0  0  0  0  0  0  0  0  0
  1  2  2  0  0  0  0
  1 22  1  0  0  0  0
  2 17  1  0  0  0  0
  2  3  1  0  0  0  0
  3  4  2  0  0  0  0
  4  5  1  0  0  0  0
  4 23  1  0  0  0  0
  5  6  1  0  0  0  0
  5 15  1  0  0  0  0
  6 18  1  0  0  0  0
  6 13  1  0  0  0  0
  6  7  1  0  0  0  0
  7  8  1  0  0  0  0
  8 19  1  0  0  0  0
  8  9  1  0  0  0  0
  8 11  1  0  0  0  0
  9 10  1  0  0  0  0
  9 24  1  0  0  0  0
  9 25  1  0  0  0  0
 10 26  1  0  0  0  0
 11 20  1  0  0  0  0
 11 12  1  0  0  0  0
 11 13  1  0  0  0  0
 12 27  1  0  0  0  0
 13 21  1  0  0  0  0
 13 14  1  0  0  0  0
 14 28  1  0  0  0  0
 15 16  2  0  0  0  0
 15 17  1  0  0  0  0
 17 29  1  0  0  0  0
M  END
> <s_m_source_file>
AV-unprocessed.smi

> <i_m_source_file_index>
72

> <i_lp_mmshare_version>
43012

> <i_f3d_flags>
0

> <s_epik_input>
W05IMl1jMW5bY0hdbihjKD1PKW4xKVtDQEBIXTJPW0NASF0oW0NIMl1bT0hdKVtDQEBIXShbT0hdKVtDQEhdMltPSF0=

> <s_epik_cmdline>
J2VwaWtfcHl0aG9uJywgJy1waCcsICc3LjAnLCAnLXRuJywgJzgnLCAnLW1hJywgJzIwMCcsICctbWV0YWxfYmluZGluZycsICctaW1hZScsICc8aW5maWxlLm1hZT4nLCAnLW9tYWUnLCAnPG91dGZpbGUubWFlPic=

> <r_lp_tautomer_probability>
7.17554e-07

> <r_epik_Ionization_Penalty>
0.0066451

> <r_epik_Ionization_Penalty_Charging>
0.00663793

> <r_epik_Ionization_Penalty_Neutral>
7.17052e-06

> <r_epik_State_Penalty>
0.419231

> <r_epik_Charging_Adjusted_Penalty>
0.425868

> <i_epik_Tot_Q>
0

> <i_epik_Tot_abs_Q>
0

> <r_epik_Metal_State_Penalty>
1.44144

> <b_epik_Metal_Only>
0

> <s_epik_Chemistry_Notes>
This compound contains an acetal/aminal-like group ( X-CH(R)-Y where X, Y are N, S, or O) that may be acid/base labile, releasing an aldehyde.

> <s_lp_Force_Field>
OPLS_2005

> <r_lp_Energy>
49.4302

> <b_lp_Chiralities_Consistent>
1

> <s_lp_Variant>
AV-unprocessed.smi:72-2

> <Gold.Version>
5.8.1

> <Gold.Id.Protein>
6NUR|6NUR_protein|mol2

> <Gold.PLP.Fitness>
34.5885

> <Gold.PLP.PLP>
-17.3820

> <Gold.PLP.part.hbond>
-6.7023

> <Gold.PLP.part.metal>
0.0000

> <Gold.PLP.part.buried>
-2.5394

> <Gold.PLP.part.nonpolar>
-8.3469

> <Gold.PLP.part.repulsive>
0.1990

> <Gold.PLP.ligand.clash>
0.0000

> <Gold.PLP.ligand.torsion>
0.1330

> <Gold.PLP.Chemscore.Hbond>
5.8080

> <Gold.PLP.Chemscore.CHOScore>
0.0000

> <Gold.PLP.Chemscore.Metal>
0.0000

> <Gold.Chemscore.Hbonds>
donor molecule, donor type, donor heavy atom, donor atom, acceptor molecule, acceptor atom, score
      L1  H     1    22       P1 10957  1.00
      L1  H    10    26       P1  7957  0.86
      L1  H    12    27       P1  7957  0.93
      L1  H    14    28       P1  7948  1.00
      L1  H    17    29       P1 10957  1.00
      P1  H  7954  7966       L1    12  1.00

> <Gold.PLP.Chemscore.Internal.Correction>
0.0484

> <Gold.Rescore>
     Score         DG    S(hbond)    S(metal)    S(lipo)     H(rot)  DE(clash)    DE(int)     intcor
     14.82     -15.19       5.17        0.00      24.20       4.06       0.17       0.20       ----

> <Gold.Chemscore.Fitness>
14.8225

> <Gold.Chemscore.DG>
-15.1924

> <Gold.Chemscore.ZeroCoef>
-5.4800

> <Gold.Chemscore.Hbond>
5.1719

> <Gold.Chemscore.Metal>
0.0000

> <Gold.Chemscore.Lipo>
24.2028

> <Gold.Chemscore.Internal_Hbond>
0.0000

> <Gold.Chemscore.DEClash>
0.1739

> <Gold.Chemscore.DEInternal>
0.1960

> <Gold.Chemscore.Rot>
4.0600

> <Gold.Chemscore.Internal.Correction>
   9.000000E+99

> <Gold.Chemscore.Hbonds>
donor molecule, donor type, donor heavy atom, donor atom, acceptor molecule, acceptor atom, score
      L1  H     1    22       P1 10957  0.93
      L1  H    10    26       P1  7957  0.85
      L1  H    12    27       P1  7957  0.78
      L1  H    14    28       P1  7948  1.00
      L1  H    17    29       P1 10957  0.98
      P1  H  7954  7966       L1    12  0.24

> <Gold.Chemscore.Hbond.Weighted>
-17.2743

> <Gold.Chemscore.Metal.Weighted>
-0.0000

> <Gold.Chemscore.Lipo.Weighted>
-2.8317

> <Gold.Chemscore.Internal_Hbond.Weighted>
0.0000

> <Gold.Chemscore.DEClash.Weighted>
0.1739

> <Gold.Chemscore.DEInternal.Weighted>
0.1960

> <Gold.Chemscore.Rot.Weighted>
10.3936

> <Gold.Chemscore.Internal.Correction.Weighted>
   9.000000E+99

> <Gold.Protein.RotatedTorsions>
[ 6907 6896 6895 6894 ] final   98.88 input  -60.11 | X-H torsion
[ 7974 7965 7964 7962 ] final -150.86 input  175.53 | X-H torsion
[ 8008 7997 7996 7995 ] final  -42.72 input   59.86 | X-H torsion
[ 10167 10162 10161 10158 ] final  111.82 input  -65.29 | X-H torsion
[ 10718 10713 10712 10709 ] final -123.84 input   66.30 | X-H torsion
[ 10763 10752 10751 10750 ] final -124.94 input  -60.55 | X-H torsion
[ 11005 11000 10999 10996 ] final   12.93 input  -57.11 | X-H torsion

> <Gold.Protein.ActiveResidues>
 VAL166  LYS551  ARG553  GLY616  TRP617  ASP618  TYR619  PRO620  LYS621  CYS622 
 ASP623  PHE694  ASN695  SER759  ASP760  ASP761  ALA762  ILE779  LEU786  VAL792 
 PHE793  MET794  SER795  GLU796  ALA797  LYS798  CYS799  TRP800  GLU811  SER814 

> <Gold.Protein.RotatedAtoms>
  152.5402  134.0513  159.8110 H   0  0  0  0  0  0  0  0  0  0  0  0  # atno 6907 bound_to 6896
  151.0654  133.5502  159.2638 H   0  0  0  0  0  0  0  0  0  0  0  0  # atno 6908 bound_to 6896
  151.2385  135.0588  159.9069 H   0  0  0  0  0  0  0  0  0  0  0  0  # atno 6909 bound_to 6896
  144.7883  140.4876  143.5790 H   0  0  0  0  0  0  0  0  0  0  0  0  # atno 7974 bound_to 7965
  154.3998  140.1466  156.3401 H   0  0  0  0  0  0  0  0  0  0  0  0  # atno 8008 bound_to 7997
  155.8364  140.3464  155.5583 H   0  0  0  0  0  0  0  0  0  0  0  0  # atno 8009 bound_to 7997
  155.8133  140.0887  157.1881 H   0  0  0  0  0  0  0  0  0  0  0  0  # atno 8010 bound_to 7997
  139.6582  144.7129  151.1915 H   0  0  0  0  0  0  0  0  0  0  0  0  # atno 10167 bound_to 10162
  156.1536  130.6552  150.9950 H   0  0  0  0  0  0  0  0  0  0  0  0  # atno 10718 bound_to 10713
  154.8730  135.4046  154.3188 H   0  0  0  0  0  0  0  0  0  0  0  0  # atno 10763 bound_to 10752
  153.4020  135.7018  153.6425 H   0  0  0  0  0  0  0  0  0  0  0  0  # atno 10764 bound_to 10752
  153.5164  135.3696  155.2582 H   0  0  0  0  0  0  0  0  0  0  0  0  # atno 10765 bound_to 10752
  140.4865  134.0883  155.7762 H   0  0  0  0  0  0  0  0  0  0  0  0  # atno 11005 bound_to 11000
  145.5862  139.1492  143.3208 LP  0  0  0  0  0  0  0  0  0  0  0  0  # atno 17320 bound_to 7965
  146.2125  140.5990  142.9053 LP  0  0  0  0  0  0  0  0  0  0  0  0  # atno 17321 bound_to 7965
  140.7568  143.6037  150.8674 LP  0  0  0  0  0  0  0  0  0  0  0  0  # atno 17342 bound_to 10162
  139.9692  143.6076  152.2979 LP  0  0  0  0  0  0  0  0  0  0  0  0  # atno 17343 bound_to 10162
  157.6677  131.0868  150.7688 LP  0  0  0  0  0  0  0  0  0  0  0  0  # atno 17370 bound_to 10713
  156.7755  130.4842  149.5410 LP  0  0  0  0  0  0  0  0  0  0  0  0  # atno 17371 bound_to 10713
  141.1505  133.8977  157.2109 LP  0  0  0  0  0  0  0  0  0  0  0  0  # atno 17394 bound_to 11000
  139.9795  135.0103  156.9714 LP  0  0  0  0  0  0  0  0  0  0  0  0  # atno 17395 bound_to 11000

$$$$
