AV-unprocessed.smi:45|AV-procd|sdf|408|dock4
  -GOLD-   2262016263D 1   1.00000     0.00000
 Structure written by MMmdl.
 60 63  0  0  0  0  0  0  0  0  1 V2000
  153.6762  141.8140  160.6950 C   0  0  0  0  0  0  0  0  0  0  0  0
  152.9671  141.7444  159.4666 O   0  0  0  0  0  0  0  0  0  0  0  0
  152.6324  140.4993  158.9756 C   0  0  0  0  0  0  0  0  0  0  0  0
  152.9450  139.2818  159.6324 C   0  0  0  0  0  0  0  0  0  0  0  0
  152.5704  138.0471  159.0683 C   0  0  0  0  0  0  0  0  0  0  0  0
  151.8767  138.0063  157.8422 C   0  0  0  0  0  0  0  0  0  0  0  0
  151.4787  136.6779  157.2281 C   0  0  0  0  0  0  0  0  0  0  0  0
  150.0453  136.5470  157.0072 N   0  0  0  0  0  0  0  0  0  0  0  0
  149.3130  135.5027  157.5967 C   0  0  0  0  0  0  0  0  0  0  0  0
  148.9288  135.6546  158.8863 N   0  0  0  0  0  0  0  0  0  0  0  0
  148.2384  134.6693  159.4686 C   0  0  0  0  0  0  0  0  0  0  0  0
  147.8597  134.8432  160.8001 N   0  0  0  0  0  0  0  0  0  0  0  0
  147.9946  136.1334  161.4686 C   0  0  0  0  0  0  0  0  0  0  0  0
  146.8520  136.2062  162.4795 C   0  0  0  0  0  0  0  0  0  0  0  0
  146.6131  134.7436  162.8286 C   0  0  0  0  0  0  0  0  0  0  0  0
  146.8799  134.0133  161.5047 C   0  0  2  0  0  0  0  0  0  0  0  0
  147.3502  132.5584  161.7152 C   0  0  0  0  0  0  0  0  0  0  0  0
  147.0914  131.7931  160.5578 O   0  0  0  0  0  0  0  0  0  0  0  0
  147.8898  133.5200  158.8823 N   0  0  0  0  0  0  0  0  0  0  0  0
  148.2619  133.3422  157.5980 C   0  0  0  0  0  0  0  0  0  0  0  0
  148.9987  134.3141  156.8825 C   0  0  0  0  0  0  0  0  0  0  0  0
  149.3724  134.0860  155.4421 C   0  0  0  0  0  0  0  0  0  0  0  0
  150.2064  134.7933  154.8760 O   0  0  0  0  0  0  0  0  0  0  0  0
  148.7559  133.0505  154.8503 N   0  0  0  0  0  0  0  0  0  0  0  0
  148.9414  132.6517  153.4602 C   0  0  0  0  0  0  0  0  0  0  0  0
  147.6348  132.6099  152.6876 C   0  0  0  0  0  0  0  0  0  0  0  0
  147.5177  133.4608  151.6623 N   0  0  0  0  0  0  0  0  0  0  0  0
  146.3608  133.4221  150.9662 C   0  0  0  0  0  0  0  0  0  0  0  0
  145.3233  132.5288  151.3007 C   0  0  0  0  0  0  0  0  0  0  0  0
  145.5613  131.6806  152.4009 C   0  0  0  0  0  0  0  0  0  0  0  0
  146.7197  131.7239  153.0941 N   0  0  0  0  0  0  0  0  0  0  0  0
  151.5652  139.2116  157.1831 C   0  0  0  0  0  0  0  0  0  0  0  0
  151.9388  140.4477  157.7459 C   0  0  0  0  0  0  0  0  0  0  0  0
  151.5392  141.9066  156.9114 Cl  0  0  0  0  0  0  0  0  0  0  0  0
  145.9643  134.0172  160.9109 H   0  0  0  0  0  0  0  0  0  0  0  0
  153.8682  142.8584  160.9403 H   0  0  0  0  0  0  0  0  0  0  0  0
  154.6408  141.3093  160.6279 H   0  0  0  0  0  0  0  0  0  0  0  0
  153.0981  141.3841  161.5140 H   0  0  0  0  0  0  0  0  0  0  0  0
  153.4749  139.2672  160.5725 H   0  0  0  0  0  0  0  0  0  0  0  0
  152.8193  137.1292  159.5810 H   0  0  0  0  0  0  0  0  0  0  0  0
  151.9992  136.5466  156.2785 H   0  0  0  0  0  0  0  0  0  0  0  0
  151.8149  135.8792  157.8905 H   0  0  0  0  0  0  0  0  0  0  0  0
  149.5564  137.2885  156.5256 H   0  0  0  0  0  0  0  0  0  0  0  0
  148.9603  136.1650  161.9744 H   0  0  0  0  0  0  0  0  0  0  0  0
  147.9494  136.9703  160.7706 H   0  0  0  0  0  0  0  0  0  0  0  0
  147.0899  136.8223  163.3472 H   0  0  0  0  0  0  0  0  0  0  0  0
  145.9620  136.6201  162.0032 H   0  0  0  0  0  0  0  0  0  0  0  0
  147.3316  134.4333  163.5891 H   0  0  0  0  0  0  0  0  0  0  0  0
  145.6119  134.5583  163.2183 H   0  0  0  0  0  0  0  0  0  0  0  0
  148.4194  132.5029  161.9145 H   0  0  0  0  0  0  0  0  0  0  0  0
  146.8441  132.1050  162.5679 H   0  0  0  0  0  0  0  0  0  0  0  0
  147.1334  130.8776  160.7878 H   0  0  0  0  0  0  0  0  0  0  0  0
  147.9595  132.4117  157.1400 H   0  0  0  0  0  0  0  0  0  0  0  0
  148.0930  132.5145  155.3909 H   0  0  0  0  0  0  0  0  0  0  0  0
  149.6553  133.3164  152.9698 H   0  0  0  0  0  0  0  0  0  0  0  0
  149.3912  131.6584  153.4460 H   0  0  0  0  0  0  0  0  0  0  0  0
  146.2626  134.1074  150.1374 H   0  0  0  0  0  0  0  0  0  0  0  0
  144.3976  132.4963  150.7451 H   0  0  0  0  0  0  0  0  0  0  0  0
  144.8206  130.9648  152.7253 H   0  0  0  0  0  0  0  0  0  0  0  0
  151.0366  139.1922  156.2413 H   0  0  0  0  0  0  0  0  0  0  0  0
  1  2  1  0  0  0  0
  1 36  1  0  0  0  0
  1 37  1  0  0  0  0
  1 38  1  0  0  0  0
  2  3  1  0  0  0  0
  3 33  1  0  0  0  0
  3  4  2  0  0  0  0
  4  5  1  0  0  0  0
  4 39  1  0  0  0  0
  5  6  2  0  0  0  0
  5 40  1  0  0  0  0
  6  7  1  0  0  0  0
  6 32  1  0  0  0  0
  7  8  1  0  0  0  0
  7 41  1  0  0  0  0
  7 42  1  0  0  0  0
  8  9  1  0  0  0  0
  8 43  1  0  0  0  0
  9 21  1  0  0  0  0
  9 10  2  0  0  0  0
 10 11  1  0  0  0  0
 11 12  1  0  0  0  0
 11 19  2  0  0  0  0
 12 16  1  0  0  0  0
 12 13  1  0  0  0  0
 13 14  1  0  0  0  0
 13 44  1  0  0  0  0
 13 45  1  0  0  0  0
 14 15  1  0  0  0  0
 14 46  1  0  0  0  0
 14 47  1  0  0  0  0
 15 16  1  0  0  0  0
 15 48  1  0  0  0  0
 15 49  1  0  0  0  0
 16 35  1  0  0  0  0
 16 17  1  0  0  0  0
 17 18  1  0  0  0  0
 17 50  1  0  0  0  0
 17 51  1  0  0  0  0
 18 52  1  0  0  0  0
 19 20  1  0  0  0  0
 20 21  2  0  0  0  0
 20 53  1  0  0  0  0
 21 22  1  0  0  0  0
 22 23  2  0  0  0  0
 22 24  1  0  0  0  0
 24 25  1  0  0  0  0
 24 54  1  0  0  0  0
 25 26  1  0  0  0  0
 25 55  1  0  0  0  0
 25 56  1  0  0  0  0
 26 31  1  0  0  0  0
 26 27  2  0  0  0  0
 27 28  1  0  0  0  0
 28 29  2  0  0  0  0
 28 57  1  0  0  0  0
 29 30  1  0  0  0  0
 29 58  1  0  0  0  0
 30 31  2  0  0  0  0
 30 59  1  0  0  0  0
 32 33  2  0  0  0  0
 32 60  1  0  0  0  0
 33 34  1  0  0  0  0
M  END
> <s_m_source_file>
AV-unprocessed.smi

> <i_m_source_file_index>
45

> <i_lp_mmshare_version>
43012

> <i_f3d_flags>
0

> <s_epik_input>
W0NIM11PYzFbY0hdW2NIXWMoW2NIXWMxQ2wpW0NIMl1bTkhdYzJuYyhOM1tDSDJdW0NIMl1bQ0gyXVtDQEhdM1tDSDJdW09IXSluW2NIXWMyQyg9TylbTkhdW0NIMl1jNG5bY0hdW2NIXVtjSF1uNA==

> <s_epik_cmdline>
J2VwaWtfcHl0aG9uJywgJy1waCcsICc3LjAnLCAnLXRuJywgJzgnLCAnLW1hJywgJzIwMCcsICctbWV0YWxfYmluZGluZycsICctaW1hZScsICc8aW5maWxlLm1hZT4nLCAnLW9tYWUnLCAnPG91dGZpbGUubWFlPic=

> <r_lp_tautomer_probability>
1

> <r_epik_Ionization_Penalty>
0.0522664

> <r_epik_Ionization_Penalty_Charging>
0

> <r_epik_Ionization_Penalty_Neutral>
0.0522664

> <r_epik_State_Penalty>
0.0369431

> <r_epik_Charging_Adjusted_Penalty>
0.0369431

> <i_epik_Tot_Q>
0

> <i_epik_Tot_abs_Q>
0

> <r_epik_Metal_State_Penalty>
0.0404664

> <b_epik_Metal_Only>
0

> <s_epik_Chemistry_Notes>
This compound contains an electron-poor aromatic ring that is susceptible to covalent hydrolysis at low pH, typically resulting in measured values for nitrogen ring protonation that are around two units higher than predicted values.

> <s_lp_Force_Field>
OPLS_2005

> <r_lp_Energy>
32.9916

> <b_lp_Chiralities_Consistent>
1

> <s_lp_Variant>
AV-unprocessed.smi:45-2

> <Gold.Version>
5.8.1

> <Gold.Id.Protein>
6NUR|6NUR_protein|mol2

> <Gold.PLP.Fitness>
52.1778

> <Gold.PLP.PLP>
-50.8808

> <Gold.PLP.part.hbond>
0.0000

> <Gold.PLP.part.metal>
0.0000

> <Gold.PLP.part.buried>
-7.4226

> <Gold.PLP.part.nonpolar>
-43.4441

> <Gold.PLP.part.repulsive>
1.0723

> <Gold.PLP.ligand.clash>
0.0000

> <Gold.PLP.ligand.torsion>
1.1460

> <Gold.PLP.Chemscore.Hbond>
0.0090

> <Gold.PLP.Chemscore.CHOScore>
0.9596

> <Gold.PLP.Chemscore.Metal>
0.0000

> <Gold.Chemscore.Hbonds>
donor molecule, donor type, donor heavy atom, donor atom, acceptor molecule, acceptor atom, score
      P1  H  6896  6909       L1    10  0.19
      L1  C    28    57       P1  7921  0.68

> <Gold.PLP.Chemscore.Internal.Correction>
0.6834

> <Gold.Rescore>
     Score         DG    S(hbond)    S(metal)    S(lipo)     H(rot)  DE(clash)    DE(int)     intcor
      8.94     -13.28       0.00        0.00     130.08       2.90       0.07       4.27       ----

> <Gold.Chemscore.Fitness>
8.9366

> <Gold.Chemscore.DG>
-13.2781

> <Gold.Chemscore.ZeroCoef>
-5.4800

> <Gold.Chemscore.Hbond>
0.0000

> <Gold.Chemscore.Metal>
0.0000

> <Gold.Chemscore.Lipo>
130.0772

> <Gold.Chemscore.Internal_Hbond>
0.0000

> <Gold.Chemscore.DEClash>
0.0678

> <Gold.Chemscore.DEInternal>
4.2737

> <Gold.Chemscore.Rot>
2.8988

> <Gold.Chemscore.Internal.Correction>
   9.000000E+99

> <Gold.Chemscore.Hbond.Weighted>
-0.0000

> <Gold.Chemscore.Metal.Weighted>
-0.0000

> <Gold.Chemscore.Lipo.Weighted>
-15.2190

> <Gold.Chemscore.Internal_Hbond.Weighted>
0.0000

> <Gold.Chemscore.DEClash.Weighted>
0.0678

> <Gold.Chemscore.DEInternal.Weighted>
4.2737

> <Gold.Chemscore.Rot.Weighted>
7.4209

> <Gold.Chemscore.Internal.Correction.Weighted>
   9.000000E+99

> <Gold.Protein.RotatedTorsions>
[ 6907 6896 6895 6894 ] final   64.34 input  -60.11 | X-H torsion
[ 7974 7965 7964 7962 ] final  150.73 input  175.53 | X-H torsion
[ 8008 7997 7996 7995 ] final -171.72 input   59.86 | X-H torsion
[ 10167 10162 10161 10158 ] final   16.88 input  -65.29 | X-H torsion
[ 10718 10713 10712 10709 ] final  179.57 input   66.30 | X-H torsion
[ 10763 10752 10751 10750 ] final  120.26 input  -60.55 | X-H torsion
[ 11005 11000 10999 10996 ] final   28.40 input  -57.11 | X-H torsion

> <Gold.Protein.ActiveResidues>
 VAL166  LYS551  ARG553  GLY616  TRP617  ASP618  TYR619  PRO620  LYS621  CYS622 
 ASP623  PHE694  ASN695  SER759  ASP760  ASP761  ALA762  ILE779  LEU786  VAL792 
 PHE793  MET794  SER795  GLU796  ALA797  LYS798  CYS799  TRP800  GLU811  SER814 

> <Gold.Protein.RotatedAtoms>
  152.4324  134.5752  159.9932 H   0  0  0  0  0  0  0  0  0  0  0  0  # atno 6907 bound_to 6896
  151.5871  133.3365  159.3028 H   0  0  0  0  0  0  0  0  0  0  0  0  # atno 6908 bound_to 6896
  150.8218  134.7466  159.6844 H   0  0  0  0  0  0  0  0  0  0  0  0  # atno 6909 bound_to 6896
  144.8343  139.6445  143.6045 H   0  0  0  0  0  0  0  0  0  0  0  0  # atno 7974 bound_to 7965
  155.9352  140.1098  157.1100 H   0  0  0  0  0  0  0  0  0  0  0  0  # atno 8008 bound_to 7997
  154.4078  140.1229  156.4921 H   0  0  0  0  0  0  0  0  0  0  0  0  # atno 8009 bound_to 7997
  155.7030  140.3471  155.4943 H   0  0  0  0  0  0  0  0  0  0  0  0  # atno 8010 bound_to 7997
  140.5766  143.9061  150.6755 H   0  0  0  0  0  0  0  0  0  0  0  0  # atno 10167 bound_to 10162
  156.8738  130.9793  151.3070 H   0  0  0  0  0  0  0  0  0  0  0  0  # atno 10718 bound_to 10713
  153.5957  135.3457  155.2927 H   0  0  0  0  0  0  0  0  0  0  0  0  # atno 10763 bound_to 10752
  154.8645  135.4215  154.2467 H   0  0  0  0  0  0  0  0  0  0  0  0  # atno 10764 bound_to 10752
  153.3285  135.7043  153.7040 H   0  0  0  0  0  0  0  0  0  0  0  0  # atno 10765 bound_to 10752
  140.3160  134.2596  155.7725 H   0  0  0  0  0  0  0  0  0  0  0  0  # atno 11005 bound_to 11000
  146.2643  139.6484  142.9340 LP  0  0  0  0  0  0  0  0  0  0  0  0  # atno 17320 bound_to 7965
  145.4828  141.0438  143.2636 LP  0  0  0  0  0  0  0  0  0  0  0  0  # atno 17321 bound_to 7965
  140.2550  143.3565  152.1373 LP  0  0  0  0  0  0  0  0  0  0  0  0  # atno 17342 bound_to 10162
  139.5146  144.6950  151.5655 LP  0  0  0  0  0  0  0  0  0  0  0  0  # atno 17343 bound_to 10162
  157.6180  130.8633  149.9061 LP  0  0  0  0  0  0  0  0  0  0  0  0  # atno 17370 bound_to 10713
  156.0712  130.3685  150.0771 LP  0  0  0  0  0  0  0  0  0  0  0  0  # atno 17371 bound_to 10713
  141.2097  133.7740  156.9977 LP  0  0  0  0  0  0  0  0  0  0  0  0  # atno 17394 bound_to 11000
  140.0983  134.9551  157.1884 LP  0  0  0  0  0  0  0  0  0  0  0  0  # atno 17395 bound_to 11000

$$$$
