AV-unprocessed.smi:1529|AV-procd|sdf|6152|dock5
  -GOLD-   22720 6303D 1   1.00000     0.00000
 Structure written by MMmdl.
 50 51  0  0  0  0  0  0  0  0  1 V2000
  147.3066  133.0398  151.0924 C   0  0  0  0  0  0  0  0  0  0  0  0
  148.4357  132.6330  152.0335 C   0  0  0  0  0  0  0  0  0  0  0  0
  148.5603  131.4580  152.3776 O   0  0  0  0  0  0  0  0  0  0  0  0
  149.2504  133.6171  152.4426 N   0  0  0  0  0  0  0  0  0  0  0  0
  150.3863  133.4470  153.3433 C   0  0  0  0  0  0  0  0  0  0  0  0
  150.1842  134.1599  154.6929 C   0  0  0  0  0  0  0  0  0  0  0  0
  149.2489  135.3801  154.6118 C   0  0  0  0  0  0  0  0  0  0  0  0
  149.7897  136.5171  155.3465 N   0  0  0  0  0  0  0  0  0  0  0  0
  151.0301  137.0108  155.1997 C   0  0  0  0  0  0  0  0  0  0  0  0
  151.8641  136.5344  154.4291 O   0  0  0  0  0  0  0  0  0  0  0  0
  151.3824  138.1612  156.0977 C   0  0  0  0  0  0  0  0  0  0  0  0
  150.6046  138.4466  157.2391 C   0  0  0  0  0  0  0  0  0  0  0  0
  150.9747  139.5199  158.0719 C   0  0  0  0  0  0  0  0  0  0  0  0
  152.1213  140.2830  157.7482 C   0  0  0  0  0  0  0  0  0  0  0  0
  152.5076  141.3671  158.5660 N   0  0  0  0  0  0  0  0  0  0  0  0
  151.8143  142.6411  158.3870 C   0  0  0  0  0  0  0  0  0  0  0  0
  152.5522  143.7661  159.1358 C   0  0  1  0  0  0  0  0  0  0  0  0
  151.7919  145.0949  159.0712 C   0  0  0  0  0  0  0  0  0  0  0  0
  152.6957  143.3988  160.5051 O   0  0  0  0  0  0  0  0  0  0  0  0
  153.4694  142.2139  160.6725 C   0  0  1  0  0  0  0  0  0  0  0  0
  153.6422  141.9613  162.1738 C   0  0  0  0  0  0  0  0  0  0  0  0
  152.7617  141.0416  159.9669 C   0  0  0  0  0  0  0  0  0  0  0  0
  152.8789  139.9951  156.6612 N   0  0  0  0  0  0  0  0  0  0  0  0
  152.5201  138.9656  155.8655 C   0  0  0  0  0  0  0  0  0  0  0  0
  146.6951  133.8212  151.5449 H   0  0  0  0  0  0  0  0  0  0  0  0
  146.6622  132.1888  150.8691 H   0  0  0  0  0  0  0  0  0  0  0  0
  147.7119  133.4173  150.1533 H   0  0  0  0  0  0  0  0  0  0  0  0
  149.0722  134.5520  152.1046 H   0  0  0  0  0  0  0  0  0  0  0  0
  150.5724  132.3841  153.5061 H   0  0  0  0  0  0  0  0  0  0  0  0
  151.2746  133.8402  152.8483 H   0  0  0  0  0  0  0  0  0  0  0  0
  149.7988  133.4523  155.4286 H   0  0  0  0  0  0  0  0  0  0  0  0
  151.1600  134.4759  155.0641 H   0  0  0  0  0  0  0  0  0  0  0  0
  149.0679  135.6551  153.5711 H   0  0  0  0  0  0  0  0  0  0  0  0
  148.2766  135.1402  155.0425 H   0  0  0  0  0  0  0  0  0  0  0  0
  149.1800  136.9557  156.0214 H   0  0  0  0  0  0  0  0  0  0  0  0
  149.7325  137.8557  157.4803 H   0  0  0  0  0  0  0  0  0  0  0  0
  150.3866  139.7333  158.9519 H   0  0  0  0  0  0  0  0  0  0  0  0
  151.7561  142.8909  157.3266 H   0  0  0  0  0  0  0  0  0  0  0  0
  150.7924  142.5491  158.7579 H   0  0  0  0  0  0  0  0  0  0  0  0
  153.5415  143.9113  158.6982 H   0  0  0  0  0  0  0  0  0  0  0  0
  151.6654  145.4249  158.0399 H   0  0  0  0  0  0  0  0  0  0  0  0
  152.3298  145.8777  159.6067 H   0  0  0  0  0  0  0  0  0  0  0  0
  150.8015  145.0054  159.5188 H   0  0  0  0  0  0  0  0  0  0  0  0
  154.4564  142.3655  160.2314 H   0  0  0  0  0  0  0  0  0  0  0  0
  154.2401  141.0679  162.3556 H   0  0  0  0  0  0  0  0  0  0  0  0
  152.6780  141.8249  162.6645 H   0  0  0  0  0  0  0  0  0  0  0  0
  154.1448  142.8008  162.6547 H   0  0  0  0  0  0  0  0  0  0  0  0
  151.8088  140.8297  160.4539 H   0  0  0  0  0  0  0  0  0  0  0  0
  153.3735  140.1461  160.0669 H   0  0  0  0  0  0  0  0  0  0  0  0
  153.1704  138.7848  155.0221 H   0  0  0  0  0  0  0  0  0  0  0  0
  1  2  1  0  0  0  0
  1 25  1  0  0  0  0
  1 26  1  0  0  0  0
  1 27  1  0  0  0  0
  2  3  2  0  0  0  0
  2  4  1  0  0  0  0
  4  5  1  0  0  0  0
  4 28  1  0  0  0  0
  5  6  1  0  0  0  0
  5 29  1  0  0  0  0
  5 30  1  0  0  0  0
  6  7  1  0  0  0  0
  6 31  1  0  0  0  0
  6 32  1  0  0  0  0
  7  8  1  0  0  0  0
  7 33  1  0  0  0  0
  7 34  1  0  0  0  0
  8  9  1  0  0  0  0
  8 35  1  0  0  0  0
  9 10  2  0  0  0  0
  9 11  1  0  0  0  0
 11 24  1  0  0  0  0
 11 12  2  0  0  0  0
 12 13  1  0  0  0  0
 12 36  1  0  0  0  0
 13 14  2  0  0  0  0
 13 37  1  0  0  0  0
 14 15  1  0  0  0  0
 14 23  1  0  0  0  0
 15 22  1  0  0  0  0
 15 16  1  0  0  0  0
 16 17  1  0  0  0  0
 16 38  1  0  0  0  0
 16 39  1  0  0  0  0
 17 18  1  0  0  0  0
 17 19  1  0  0  0  0
 17 40  1  0  0  0  0
 18 41  1  0  0  0  0
 18 42  1  0  0  0  0
 18 43  1  0  0  0  0
 19 20  1  0  0  0  0
 20 21  1  0  0  0  0
 20 22  1  0  0  0  0
 20 44  1  0  0  0  0
 21 45  1  0  0  0  0
 21 46  1  0  0  0  0
 21 47  1  0  0  0  0
 22 48  1  0  0  0  0
 22 49  1  0  0  0  0
 23 24  2  0  0  0  0
 24 50  1  0  0  0  0
M  END
> <s_m_source_file>
AV-unprocessed.smi

> <i_m_source_file_index>
1529

> <i_lp_mmshare_version>
43012

> <i_f3d_flags>
0

> <s_epik_input>
W0NIM11DKD1PKVtOSF1bQ0gyXVtDSDJdW0NIMl1bTkhdQyg9TyljMVtjSF1bY0hdYyhuW2NIXTEpTjJbQ0gyXVtDQEBIXShbQ0gzXSlPW0NAQEhdKFtDSDNdKVtDSDJdMg==

> <s_epik_cmdline>
J2VwaWtfcHl0aG9uJywgJy1waCcsICc3LjAnLCAnLXRuJywgJzgnLCAnLW1hJywgJzIwMCcsICctbWV0YWxfYmluZGluZycsICctaW1hZScsICc8aW5maWxlLm1hZT4nLCAnLW9tYWUnLCAnPG91dGZpbGUubWFlPic=

> <r_lp_tautomer_probability>
1

> <r_epik_Ionization_Penalty>
2.1474e-05

> <r_epik_Ionization_Penalty_Charging>
0

> <r_epik_Ionization_Penalty_Neutral>
2.1474e-05

> <r_epik_State_Penalty>
-0

> <r_epik_Charging_Adjusted_Penalty>
0

> <i_epik_Tot_Q>
0

> <i_epik_Tot_abs_Q>
0

> <r_epik_Metal_State_Penalty>
-0

> <b_epik_Metal_Only>
0

> <s_lp_Force_Field>
OPLS_2005

> <r_lp_Energy>
16.5769

> <b_lp_Chiralities_Consistent>
1

> <s_lp_Variant>
AV-unprocessed.smi:1529-1

> <Gold.Version>
5.8.1

> <Gold.Id.Protein>
6NUR|6NUR_protein|mol2

> <Gold.PLP.Fitness>
51.5408

> <Gold.PLP.PLP>
-44.1668

> <Gold.PLP.part.hbond>
-3.0000

> <Gold.PLP.part.metal>
0.0000

> <Gold.PLP.part.buried>
-5.9530

> <Gold.PLP.part.nonpolar>
-35.1713

> <Gold.PLP.part.repulsive>
0.2863

> <Gold.PLP.ligand.clash>
0.0000

> <Gold.PLP.ligand.torsion>
1.0077

> <Gold.PLP.Chemscore.Hbond>
3.0000

> <Gold.PLP.Chemscore.CHOScore>
0.0000

> <Gold.PLP.Chemscore.Metal>
0.0000

> <Gold.Chemscore.Hbonds>
donor molecule, donor type, donor heavy atom, donor atom, acceptor molecule, acceptor atom, score
      P1  H  7997  8009       L1    23  0.98
      P1  H 10752 10763       L1    10  0.67

> <Gold.PLP.Chemscore.Internal.Correction>
0.3893

> <Gold.Rescore>
     Score         DG    S(hbond)    S(metal)    S(lipo)     H(rot)  DE(clash)    DE(int)     intcor
     18.97     -20.30       2.51        0.00     100.34       2.07       0.24       1.09       ----

> <Gold.Chemscore.Fitness>
18.9705

> <Gold.Chemscore.DG>
-20.2980

> <Gold.Chemscore.ZeroCoef>
-5.4800

> <Gold.Chemscore.Hbond>
2.5092

> <Gold.Chemscore.Metal>
0.0000

> <Gold.Chemscore.Lipo>
100.3409

> <Gold.Chemscore.Internal_Hbond>
0.0000

> <Gold.Chemscore.DEClash>
0.2386

> <Gold.Chemscore.DEInternal>
1.0889

> <Gold.Chemscore.Rot>
2.0713

> <Gold.Chemscore.Internal.Correction>
   9.000000E+99

> <Gold.Chemscore.Hbonds>
donor molecule, donor type, donor heavy atom, donor atom, acceptor molecule, acceptor atom, score
      P1  H  7997  8009       L1    23  0.64
      P1  H 10752 10763       L1    10  0.67

> <Gold.Chemscore.Hbond.Weighted>
-8.3806

> <Gold.Chemscore.Metal.Weighted>
-0.0000

> <Gold.Chemscore.Lipo.Weighted>
-11.7399

> <Gold.Chemscore.Internal_Hbond.Weighted>
0.0000

> <Gold.Chemscore.DEClash.Weighted>
0.2386

> <Gold.Chemscore.DEInternal.Weighted>
1.0889

> <Gold.Chemscore.Rot.Weighted>
5.3025

> <Gold.Chemscore.Internal.Correction.Weighted>
   9.000000E+99

> <Gold.Protein.RotatedTorsions>
[ 6907 6896 6895 6894 ] final   12.86 input  -60.11 | X-H torsion
[ 7974 7965 7964 7962 ] final   80.69 input  175.53 | X-H torsion
[ 8008 7997 7996 7995 ] final  172.88 input   59.86 | X-H torsion
[ 10167 10162 10161 10158 ] final  -81.95 input  -65.29 | X-H torsion
[ 10718 10713 10712 10709 ] final  172.61 input   66.30 | X-H torsion
[ 10763 10752 10751 10750 ] final   51.49 input  -60.55 | X-H torsion
[ 11005 11000 10999 10996 ] final  -34.06 input  -57.11 | X-H torsion

> <Gold.Protein.ActiveResidues>
 VAL166  LYS551  ARG553  GLY616  TRP617  ASP618  TYR619  PRO620  LYS621  CYS622 
 ASP623  PHE694  ASN695  SER759  ASP760  ASP761  ALA762  ILE779  LEU786  VAL792 
 PHE793  MET794  SER795  GLU796  ALA797  LYS798  CYS799  TRP800  GLU811  SER814 

> <Gold.Protein.RotatedAtoms>
  151.7771  135.0771  160.0368 H   0  0  0  0  0  0  0  0  0  0  0  0  # atno 6907 bound_to 6896
  152.3248  133.5889  159.5777 H   0  0  0  0  0  0  0  0  0  0  0  0  # atno 6908 bound_to 6896
  150.7389  133.9873  159.3637 H   0  0  0  0  0  0  0  0  0  0  0  0  # atno 6909 bound_to 6896
  145.6480  139.2441  143.1993 H   0  0  0  0  0  0  0  0  0  0  0  0  # atno 7974 bound_to 7965
  156.1130  140.1474  156.9311 H   0  0  0  0  0  0  0  0  0  0  0  0  # atno 8008 bound_to 7997
  154.4781  140.0888  156.7353 H   0  0  0  0  0  0  0  0  0  0  0  0  # atno 8009 bound_to 7997
  155.4562  140.3436  155.4309 H   0  0  0  0  0  0  0  0  0  0  0  0  # atno 8010 bound_to 7997
  140.4365  143.2530  151.8686 H   0  0  0  0  0  0  0  0  0  0  0  0  # atno 10167 bound_to 10162
  156.9764  131.0105  151.2892 H   0  0  0  0  0  0  0  0  0  0  0  0  # atno 10718 bound_to 10713
  152.9785  135.5844  154.4424 H   0  0  0  0  0  0  0  0  0  0  0  0  # atno 10763 bound_to 10752
  154.4024  135.2769  155.2090 H   0  0  0  0  0  0  0  0  0  0  0  0  # atno 10764 bound_to 10752
  154.3916  135.6124  153.5900 H   0  0  0  0  0  0  0  0  0  0  0  0  # atno 10765 bound_to 10752
  140.9685  133.7123  156.1485 H   0  0  0  0  0  0  0  0  0  0  0  0  # atno 11005 bound_to 11000
  146.1227  140.7288  142.9450 LP  0  0  0  0  0  0  0  0  0  0  0  0  # atno 17320 bound_to 7965
  144.7133  140.4119  143.7064 LP  0  0  0  0  0  0  0  0  0  0  0  0  # atno 17321 bound_to 7965
  139.4787  144.5277  151.8712 LP  0  0  0  0  0  0  0  0  0  0  0  0  # atno 17342 bound_to 10162
  140.4367  144.2041  150.5889 LP  0  0  0  0  0  0  0  0  0  0  0  0  # atno 17343 bound_to 10162
  157.5557  130.8212  149.8201 LP  0  0  0  0  0  0  0  0  0  0  0  0  # atno 17370 bound_to 10713
  156.0262  130.3779  150.1817 LP  0  0  0  0  0  0  0  0  0  0  0  0  # atno 17371 bound_to 10713
  140.7364  134.4199  157.5560 LP  0  0  0  0  0  0  0  0  0  0  0  0  # atno 17394 bound_to 11000
  139.8903  134.8807  156.2375 LP  0  0  0  0  0  0  0  0  0  0  0  0  # atno 17395 bound_to 11000

$$$$
