AV-unprocessed.smi:596|AV-procd|sdf|3019|dock5
  -GOLD-   2262023533D 1   1.00000     0.00000
 Structure written by MMmdl.
 41 42  0  0  0  0  0  0  0  0  3 V2000
  155.8981  139.7286  158.7335 O   0  0  0  0  0  0  0  0  0  0  0  0
  155.1616  139.0122  159.4104 C   0  0  0  0  0  0  0  0  0  0  0  0
  155.6844  137.6448  159.8845 C   0  0  0  0  0  0  0  0  0  0  0  0
  155.4584  137.3521  161.3118 N   0  0  0  0  0  0  0  0  0  0  0  0
  156.1002  138.1921  162.2433 C   0  0  0  0  0  0  0  0  0  0  0  0
  155.9605  138.0254  163.5730 C   0  0  0  0  0  0  0  0  0  0  0  0
  156.6168  138.9056  164.5145 N   0  3  0  0  0  0  0  0  0  0  0  0
  156.3824  138.7674  165.7106 O   0  0  0  0  0  0  0  0  0  0  0  0
  157.3854  139.7638  164.0910 O   0  5  0  0  0  0  0  0  0  0  0  0
  155.1206  136.9358  164.0311 C   0  0  0  0  0  0  0  0  0  0  0  0
  154.5006  136.1315  163.1452 C   0  0  0  0  0  0  0  0  0  0  0  0
  154.6467  136.3206  161.6984 C   0  0  0  0  0  0  0  0  0  0  0  0
  154.0699  135.5998  160.8845 O   0  0  0  0  0  0  0  0  0  0  0  0
  153.9163  139.3775  159.7606 N   0  0  0  0  0  0  0  0  0  0  0  0
  153.2779  140.6398  159.4094 C   0  0  0  0  0  0  0  0  0  0  0  0
  153.6639  141.7570  160.3941 C   0  0  0  0  0  0  0  0  0  0  0  0
  152.7483  142.9657  160.2983 C   0  0  0  0  0  0  0  0  0  0  0  0
  152.5007  143.5811  159.1255 C   0  0  0  0  0  0  0  0  0  0  0  0
  151.5817  144.7799  158.9677 C   0  0  0  0  0  0  0  0  0  0  0  0
  150.7017  145.0116  160.2075 C   0  0  0  0  0  0  0  0  0  0  0  0
  151.5118  144.8497  161.4997 C   0  0  0  0  0  0  0  0  0  0  0  0
  152.1233  143.4410  161.6053 C   0  0  0  0  0  0  0  0  0  0  0  0
  155.2382  136.8699  159.2589 H   0  0  0  0  0  0  0  0  0  0  0  0
  156.7515  137.5990  159.6625 H   0  0  0  0  0  0  0  0  0  0  0  0
  156.6963  138.9772  161.8004 H   0  0  0  0  0  0  0  0  0  0  0  0
  154.9831  136.7562  165.0873 H   0  0  0  0  0  0  0  0  0  0  0  0
  153.8794  135.3259  163.5082 H   0  0  0  0  0  0  0  0  0  0  0  0
  153.3724  138.7337  160.3167 H   0  0  0  0  0  0  0  0  0  0  0  0
  153.5385  140.9221  158.3878 H   0  0  0  0  0  0  0  0  0  0  0  0
  152.2000  140.4781  159.4221 H   0  0  0  0  0  0  0  0  0  0  0  0
  153.6411  141.3819  161.4180 H   0  0  0  0  0  0  0  0  0  0  0  0
  154.6916  142.0716  160.2068 H   0  0  0  0  0  0  0  0  0  0  0  0
  152.9760  143.2274  158.2220 H   0  0  0  0  0  0  0  0  0  0  0  0
  152.2016  145.6564  158.7766 H   0  0  0  0  0  0  0  0  0  0  0  0
  150.9528  144.6381  158.0886 H   0  0  0  0  0  0  0  0  0  0  0  0
  150.2485  146.0023  160.1630 H   0  0  0  0  0  0  0  0  0  0  0  0
  149.8788  144.2954  160.2099 H   0  0  0  0  0  0  0  0  0  0  0  0
  152.3088  145.5945  161.5174 H   0  0  0  0  0  0  0  0  0  0  0  0
  150.8842  145.0491  162.3685 H   0  0  0  0  0  0  0  0  0  0  0  0
  151.3514  142.7269  161.8941 H   0  0  0  0  0  0  0  0  0  0  0  0
  152.8752  143.4301  162.3951 H   0  0  0  0  0  0  0  0  0  0  0  0
  1  2  2  0  0  0  0
  2  3  1  0  0  0  0
  2 14  1  0  0  0  0
  3  4  1  0  0  0  0
  3 23  1  0  0  0  0
  3 24  1  0  0  0  0
  4 12  1  0  0  0  0
  4  5  1  0  0  0  0
  5  6  2  0  0  0  0
  5 25  1  0  0  0  0
  6  7  1  0  0  0  0
  6 10  1  0  0  0  0
  7  8  2  0  0  0  0
  7  9  1  0  0  0  0
 10 11  2  0  0  0  0
 10 26  1  0  0  0  0
 11 12  1  0  0  0  0
 11 27  1  0  0  0  0
 12 13  2  0  0  0  0
 14 15  1  0  0  0  0
 14 28  1  0  0  0  0
 15 16  1  0  0  0  0
 15 29  1  0  0  0  0
 15 30  1  0  0  0  0
 16 17  1  0  0  0  0
 16 31  1  0  0  0  0
 16 32  1  0  0  0  0
 17 22  1  0  0  0  0
 17 18  2  0  0  0  0
 18 19  1  0  0  0  0
 18 33  1  0  0  0  0
 19 20  1  0  0  0  0
 19 34  1  0  0  0  0
 19 35  1  0  0  0  0
 20 21  1  0  0  0  0
 20 36  1  0  0  0  0
 20 37  1  0  0  0  0
 21 22  1  0  0  0  0
 21 38  1  0  0  0  0
 21 39  1  0  0  0  0
 22 40  1  0  0  0  0
 22 41  1  0  0  0  0
M  CHG  1   7   1
M  CHG  1   9  -1
M  END
> <s_m_source_file>
AV-unprocessed.smi

> <i_m_source_file_index>
596

> <i_lp_mmshare_version>
43012

> <i_f3d_flags>
0

> <s_epik_input>
Tz1jMVtjSF1bY0hdYyhbTitdKD1PKVtPLV0pW2NIXW4xW0NIMl1DKD1PKVtOSF1bQ0gyXVtDSDJdQzI9W0NIXVtDSDJdW0NIMl1bQ0gyXVtDSDJdMg==

> <s_epik_cmdline>
J2VwaWtfcHl0aG9uJywgJy1waCcsICc3LjAnLCAnLXRuJywgJzgnLCAnLW1hJywgJzIwMCcsICctbWV0YWxfYmluZGluZycsICctaW1hZScsICc8aW5maWxlLm1hZT4nLCAnLW9tYWUnLCAnPG91dGZpbGUubWFlPic=

> <r_lp_tautomer_probability>
1

> <r_epik_Ionization_Penalty>
1.81809e-08

> <r_epik_Ionization_Penalty_Charging>
7.7346e-11

> <r_epik_Ionization_Penalty_Neutral>
1.81035e-08

> <r_epik_State_Penalty>
-0

> <r_epik_Charging_Adjusted_Penalty>
7.7346e-11

> <i_epik_Tot_Q>
0

> <i_epik_Tot_abs_Q>
2

> <r_epik_Metal_State_Penalty>
-0

> <b_epik_Metal_Only>
0

> <s_lp_Force_Field>
OPLS_2005

> <r_lp_Energy>
18.9868

> <b_lp_Chiralities_Consistent>
1

> <s_lp_Variant>
AV-unprocessed.smi:596-1

> <Gold.Version>
5.8.1

> <Gold.Id.Protein>
6NUR|6NUR_protein|mol2

> <Gold.PLP.Fitness>
50.4399

> <Gold.PLP.PLP>
-45.4176

> <Gold.PLP.part.hbond>
-2.0000

> <Gold.PLP.part.metal>
0.0000

> <Gold.PLP.part.buried>
-3.3711

> <Gold.PLP.part.nonpolar>
-40.1648

> <Gold.PLP.part.repulsive>
0.2263

> <Gold.PLP.ligand.clash>
0.0000

> <Gold.PLP.ligand.torsion>
0.4456

> <Gold.PLP.Chemscore.Hbond>
1.9425

> <Gold.PLP.Chemscore.CHOScore>
0.0000

> <Gold.PLP.Chemscore.Metal>
0.0000

> <Gold.Chemscore.Hbonds>
donor molecule, donor type, donor heavy atom, donor atom, acceptor molecule, acceptor atom, score
      P1  H  6896  6908       L1    13  0.93
      P1  H  7997  8010       L1     1  0.91

> <Gold.PLP.Chemscore.Internal.Correction>
0.0861

> <Gold.Rescore>
     Score         DG    S(hbond)    S(metal)    S(lipo)     H(rot)  DE(clash)    DE(int)     intcor
     20.86     -21.37       1.98        0.00     122.73       1.98       0.04       0.47       ----

> <Gold.Chemscore.Fitness>
20.8586

> <Gold.Chemscore.DG>
-21.3668

> <Gold.Chemscore.ZeroCoef>
-5.4800

> <Gold.Chemscore.Hbond>
1.9778

> <Gold.Chemscore.Metal>
0.0000

> <Gold.Chemscore.Lipo>
122.7254

> <Gold.Chemscore.Internal_Hbond>
0.0000

> <Gold.Chemscore.DEClash>
0.0356

> <Gold.Chemscore.DEInternal>
0.4726

> <Gold.Chemscore.Rot>
1.9835

> <Gold.Chemscore.Internal.Correction>
   9.000000E+99

> <Gold.Chemscore.Hbonds>
donor molecule, donor type, donor heavy atom, donor atom, acceptor molecule, acceptor atom, score
      P1  H  6896  6908       L1    13  0.88
      P1  H  7997  8010       L1     1  0.85

> <Gold.Chemscore.Hbond.Weighted>
-6.6057

> <Gold.Chemscore.Metal.Weighted>
-0.0000

> <Gold.Chemscore.Lipo.Weighted>
-14.3589

> <Gold.Chemscore.Internal_Hbond.Weighted>
0.0000

> <Gold.Chemscore.DEClash.Weighted>
0.0356

> <Gold.Chemscore.DEInternal.Weighted>
0.4726

> <Gold.Chemscore.Rot.Weighted>
5.0778

> <Gold.Chemscore.Internal.Correction.Weighted>
   9.000000E+99

> <Gold.Protein.RotatedTorsions>
[ 6907 6896 6895 6894 ] final  -55.91 input  -60.11 | X-H torsion
[ 7974 7965 7964 7962 ] final  137.09 input  175.53 | X-H torsion
[ 8008 7997 7996 7995 ] final  -39.07 input   59.86 | X-H torsion
[ 10167 10162 10161 10158 ] final  107.36 input  -65.29 | X-H torsion
[ 10718 10713 10712 10709 ] final -132.99 input   66.30 | X-H torsion
[ 10763 10752 10751 10750 ] final  -31.48 input  -60.55 | X-H torsion
[ 11005 11000 10999 10996 ] final -152.78 input  -57.11 | X-H torsion

> <Gold.Protein.ActiveResidues>
 VAL166  LYS551  ARG553  GLY616  TRP617  ASP618  TYR619  PRO620  LYS621  CYS622 
 ASP623  PHE694  ASN695  SER759  ASP760  ASP761  ALA762  ILE779  LEU786  VAL792 
 PHE793  MET794  SER795  GLU796  ALA797  LYS798  CYS799  TRP800  GLU811  SER814 

> <Gold.Protein.RotatedAtoms>
  150.8211  134.7419  159.6772 H   0  0  0  0  0  0  0  0  0  0  0  0  # atno 6907 bound_to 6896
  152.4327  134.5744  159.9940 H   0  0  0  0  0  0  0  0  0  0  0  0  # atno 6908 bound_to 6896
  151.5928  133.3327  159.3067 H   0  0  0  0  0  0  0  0  0  0  0  0  # atno 6909 bound_to 6896
  144.9501  139.4828  143.5530 H   0  0  0  0  0  0  0  0  0  0  0  0  # atno 7974 bound_to 7965
  154.4028  140.1561  156.2803 H   0  0  0  0  0  0  0  0  0  0  0  0  # atno 8008 bound_to 7997
  155.8875  140.3440  155.5910 H   0  0  0  0  0  0  0  0  0  0  0  0  # atno 8009 bound_to 7997
  155.7596  140.0816  157.2152 H   0  0  0  0  0  0  0  0  0  0  0  0  # atno 8010 bound_to 7997
  139.6934  144.7105  151.1310 H   0  0  0  0  0  0  0  0  0  0  0  0  # atno 10167 bound_to 10162
  156.2402  130.7091  151.0949 H   0  0  0  0  0  0  0  0  0  0  0  0  # atno 10718 bound_to 10713
  153.7980  135.6892  153.4860 H   0  0  0  0  0  0  0  0  0  0  0  0  # atno 10763 bound_to 10752
  153.1706  135.4544  154.9896 H   0  0  0  0  0  0  0  0  0  0  0  0  # atno 10764 bound_to 10752
  154.8018  135.3340  154.7471 H   0  0  0  0  0  0  0  0  0  0  0  0  # atno 10765 bound_to 10752
  140.7152  134.3788  157.5192 H   0  0  0  0  0  0  0  0  0  0  0  0  # atno 11005 bound_to 11000
  146.3318  139.8581  142.8861 LP  0  0  0  0  0  0  0  0  0  0  0  0  # atno 17320 bound_to 7965
  145.2857  141.0152  143.3692 LP  0  0  0  0  0  0  0  0  0  0  0  0  # atno 17321 bound_to 7965
  140.7689  143.5527  150.9186 LP  0  0  0  0  0  0  0  0  0  0  0  0  # atno 17342 bound_to 10162
  139.9205  143.6611  152.3097 LP  0  0  0  0  0  0  0  0  0  0  0  0  # atno 17343 bound_to 10162
  157.7172  131.0703  150.6281 LP  0  0  0  0  0  0  0  0  0  0  0  0  # atno 17370 bound_to 10713
  156.6353  130.4443  149.5772 LP  0  0  0  0  0  0  0  0  0  0  0  0  # atno 17371 bound_to 10713
  139.8861  134.8917  156.2601 LP  0  0  0  0  0  0  0  0  0  0  0  0  # atno 17394 bound_to 11000
  141.0051  133.7129  156.1021 LP  0  0  0  0  0  0  0  0  0  0  0  0  # atno 17395 bound_to 11000

$$$$
