AV-unprocessed.smi:34|AV-procd|sdf|226|dock7
  -GOLD-   2262015553D 1   1.00000     0.00000
 Structure written by MMmdl.
 55 59  0  0  0  0  0  0  0  0  1 V2000
  146.2643  134.0641  154.0691 O   0  0  0  0  0  0  0  0  0  0  0  0
  146.7300  133.4147  153.1322 C   0  0  0  0  0  0  0  0  0  0  0  0
  148.0733  132.8640  153.1656 N   0  0  0  0  0  0  0  0  0  0  0  0
  149.0131  133.0059  154.1295 C   0  0  0  0  0  0  0  0  0  0  0  0
  149.8414  131.9930  154.4952 N   0  0  0  0  0  0  0  0  0  0  0  0
  150.7520  132.1837  155.4532 C   0  0  0  0  0  0  0  0  0  0  0  0
  151.0011  133.2902  156.1554 N   0  0  0  0  0  0  0  0  0  0  0  0
  150.1822  134.3200  155.7898 C   0  0  0  0  0  0  0  0  0  0  0  0
  149.1649  134.2497  154.7966 C   0  0  0  0  0  0  0  0  0  0  0  0
  148.5113  135.4701  154.7045 N   0  0  0  0  0  0  0  0  0  0  0  0
  149.1070  136.2142  155.5962 C   0  0  0  0  0  0  0  0  0  0  0  0
  150.1525  135.6182  156.2712 N   0  0  0  0  0  0  0  0  0  0  0  0
  151.0013  136.2190  157.3618 C   0  0  1  0  0  0  0  0  0  0  0  0
  151.8664  137.1564  156.7992 O   0  0  0  0  0  0  0  0  0  0  0  0
  151.2194  138.4198  156.7879 C   0  0  2  0  0  0  0  0  0  0  0  0
  152.2175  139.5518  156.5058 C   0  0  0  0  0  0  0  0  0  0  0  0
  152.3424  140.3764  157.6567 O   0  0  0  0  0  0  0  0  0  0  0  0
  153.2460  140.0890  158.6195 C   0  0  0  0  0  0  0  0  0  0  0  0
  154.0317  139.1411  158.5602 O   0  0  0  0  0  0  0  0  0  0  0  0
  153.2066  141.0514  159.7574 C   0  0  0  0  0  0  0  0  0  0  0  0
  152.3941  142.2050  159.6605 C   0  0  0  0  0  0  0  0  0  0  0  0
  152.3221  143.1233  160.7257 C   0  0  0  0  0  0  0  0  0  0  0  0
  153.0617  142.8986  161.9012 C   0  0  0  0  0  0  0  0  0  0  0  0
  153.8730  141.7542  162.0105 C   0  0  0  0  0  0  0  0  0  0  0  0
  153.9464  140.8349  160.9460 C   0  0  0  0  0  0  0  0  0  0  0  0
  150.6270  138.4372  158.1922 C   0  0  1  0  0  0  0  0  0  0  0  0
  149.6364  139.3227  158.3042 F   0  0  0  0  0  0  0  0  0  0  0  0
  150.1273  137.0069  158.3641 C   0  0  2  0  0  0  0  0  0  0  0  0
  150.3046  136.5710  159.6958 O   0  0  0  0  0  0  0  0  0  0  0  0
  145.9108  133.0804  151.9192 C   0  0  0  0  0  0  0  0  0  0  0  0
  146.5121  132.4309  150.8174 C   0  0  0  0  0  0  0  0  0  0  0  0
  145.7491  132.1007  149.6804 C   0  0  0  0  0  0  0  0  0  0  0  0
  144.3768  132.4096  149.6382 C   0  0  0  0  0  0  0  0  0  0  0  0
  143.7665  133.0452  150.7357 C   0  0  0  0  0  0  0  0  0  0  0  0
  144.5284  133.3762  151.8733 C   0  0  0  0  0  0  0  0  0  0  0  0
  148.3488  132.3250  152.3576 H   0  0  0  0  0  0  0  0  0  0  0  0
  151.3693  131.3292  155.6886 H   0  0  0  0  0  0  0  0  0  0  0  0
  148.7981  137.2329  155.7815 H   0  0  0  0  0  0  0  0  0  0  0  0
  151.5399  135.3706  157.7855 H   0  0  0  0  0  0  0  0  0  0  0  0
  150.4191  138.4238  156.0447 H   0  0  0  0  0  0  0  0  0  0  0  0
  153.1999  139.1232  156.3075 H   0  0  0  0  0  0  0  0  0  0  0  0
  151.9391  140.1194  155.6167 H   0  0  0  0  0  0  0  0  0  0  0  0
  151.8151  142.3968  158.7685 H   0  0  0  0  0  0  0  0  0  0  0  0
  151.6981  144.0006  160.6402 H   0  0  0  0  0  0  0  0  0  0  0  0
  153.0057  143.6023  162.7187 H   0  0  0  0  0  0  0  0  0  0  0  0
  154.4394  141.5793  162.9134 H   0  0  0  0  0  0  0  0  0  0  0  0
  154.5740  139.9638  161.0649 H   0  0  0  0  0  0  0  0  0  0  0  0
  151.3948  138.6857  158.9271 H   0  0  0  0  0  0  0  0  0  0  0  0
  149.0730  136.9431  158.0942 H   0  0  0  0  0  0  0  0  0  0  0  0
  150.0192  137.2598  160.2769 H   0  0  0  0  0  0  0  0  0  0  0  0
  147.5643  132.1856  150.8342 H   0  0  0  0  0  0  0  0  0  0  0  0
  146.2175  131.6091  148.8404 H   0  0  0  0  0  0  0  0  0  0  0  0
  143.7918  132.1561  148.7663 H   0  0  0  0  0  0  0  0  0  0  0  0
  142.7122  133.2773  150.7063 H   0  0  0  0  0  0  0  0  0  0  0  0
  144.0370  133.8556  152.7074 H   0  0  0  0  0  0  0  0  0  0  0  0
  1  2  2  0  0  0  0
  2  3  1  0  0  0  0
  2 30  1  0  0  0  0
  3  4  1  0  0  0  0
  3 36  1  0  0  0  0
  4  9  1  0  0  0  0
  4  5  2  0  0  0  0
  5  6  1  0  0  0  0
  6  7  2  0  0  0  0
  6 37  1  0  0  0  0
  7  8  1  0  0  0  0
  8 12  1  0  0  0  0
  8  9  2  0  0  0  0
  9 10  1  0  0  0  0
 10 11  2  0  0  0  0
 11 12  1  0  0  0  0
 11 38  1  0  0  0  0
 12 13  1  0  0  0  0
 13 28  1  0  0  0  0
 13 14  1  0  0  0  0
 13 39  1  0  0  0  0
 14 15  1  0  0  0  0
 15 16  1  0  0  0  0
 15 26  1  0  0  0  0
 15 40  1  0  0  0  0
 16 17  1  0  0  0  0
 16 41  1  0  0  0  0
 16 42  1  0  0  0  0
 17 18  1  0  0  0  0
 18 19  2  0  0  0  0
 18 20  1  0  0  0  0
 20 25  1  0  0  0  0
 20 21  2  0  0  0  0
 21 22  1  0  0  0  0
 21 43  1  0  0  0  0
 22 23  2  0  0  0  0
 22 44  1  0  0  0  0
 23 24  1  0  0  0  0
 23 45  1  0  0  0  0
 24 25  2  0  0  0  0
 24 46  1  0  0  0  0
 25 47  1  0  0  0  0
 26 27  1  0  0  0  0
 26 28  1  0  0  0  0
 26 48  1  0  0  0  0
 28 29  1  0  0  0  0
 28 49  1  0  0  0  0
 29 50  1  0  0  0  0
 30 35  1  0  0  0  0
 30 31  2  0  0  0  0
 31 32  1  0  0  0  0
 31 51  1  0  0  0  0
 32 33  2  0  0  0  0
 32 52  1  0  0  0  0
 33 34  1  0  0  0  0
 33 53  1  0  0  0  0
 34 35  2  0  0  0  0
 34 54  1  0  0  0  0
 35 55  1  0  0  0  0
M  END
> <s_m_source_file>
AV-unprocessed.smi

> <i_m_source_file_index>
34

> <i_lp_mmshare_version>
43012

> <i_f3d_flags>
0

> <s_epik_input>
W2NIXTFbY0hdW2NIXVtjSF1bY0hdYzFDKD1PKVtOSF1jKG5bY0hdbjIpYyhjMjMpbltjSF1uM1tDQEBIXTRPW0NASF0oW0NAQEhdKEYpW0NASF00W09IXSlbQ0gyXU9DKD1PKWM1W2NIXVtjSF1bY0hdW2NIXVtjSF01

> <s_epik_cmdline>
J2VwaWtfcHl0aG9uJywgJy1waCcsICc3LjAnLCAnLXRuJywgJzgnLCAnLW1hJywgJzIwMCcsICctbWV0YWxfYmluZGluZycsICctaW1hZScsICc8aW5maWxlLm1hZT4nLCAnLW9tYWUnLCAnPG91dGZpbGUubWFlPic=

> <r_lp_tautomer_probability>
1

> <r_epik_Ionization_Penalty>
0.00257489

> <r_epik_Ionization_Penalty_Charging>
0

> <r_epik_Ionization_Penalty_Neutral>
0.00257489

> <r_epik_State_Penalty>
0.00519398

> <r_epik_Charging_Adjusted_Penalty>
0.00519398

> <i_epik_Tot_Q>
0

> <i_epik_Tot_abs_Q>
0

> <r_epik_Metal_State_Penalty>
0.335891

> <b_epik_Metal_Only>
0

> <s_epik_Chemistry_Notes>
This compound has an ester and may undergo hydrolysis at high or low pH. This compound contains an acetal/aminal-like group ( X-CH(R)-Y where X, Y are N, S, or O) that may be acid/base labile, releasing an aldehyde.

> <s_lp_Force_Field>
OPLS_2005

> <r_lp_Energy>
40.9193

> <b_lp_Chiralities_Consistent>
1

> <s_lp_Variant>
AV-unprocessed.smi:34-12

> <Gold.Version>
5.8.1

> <Gold.Id.Protein>
6NUR|6NUR_protein|mol2

> <Gold.PLP.Fitness>
60.4210

> <Gold.PLP.PLP>
-57.3299

> <Gold.PLP.part.hbond>
-2.0000

> <Gold.PLP.part.metal>
0.0000

> <Gold.PLP.part.buried>
-7.6565

> <Gold.PLP.part.nonpolar>
-49.2359

> <Gold.PLP.part.repulsive>
1.4615

> <Gold.PLP.ligand.clash>
0.0000

> <Gold.PLP.ligand.torsion>
1.5517

> <Gold.PLP.Chemscore.Hbond>
2.0000

> <Gold.PLP.Chemscore.CHOScore>
0.0000

> <Gold.PLP.Chemscore.Metal>
0.0000

> <Gold.Chemscore.Hbonds>
donor molecule, donor type, donor heavy atom, donor atom, acceptor molecule, acceptor atom, score
      P1  H  6896  6908       L1    29  1.00
      P1  H  7997  8010       L1    19  0.45

> <Gold.PLP.Chemscore.Internal.Correction>
0.1945

> <Gold.Rescore>
     Score         DG    S(hbond)    S(metal)    S(lipo)     H(rot)  DE(clash)    DE(int)     intcor
     15.09     -20.04       1.81        0.00     132.44       2.72       0.14       4.81       ----

> <Gold.Chemscore.Fitness>
15.0946

> <Gold.Chemscore.DG>
-20.0408

> <Gold.Chemscore.ZeroCoef>
-5.4800

> <Gold.Chemscore.Hbond>
1.8061

> <Gold.Chemscore.Metal>
0.0000

> <Gold.Chemscore.Lipo>
132.4394

> <Gold.Chemscore.Internal_Hbond>
0.0000

> <Gold.Chemscore.DEClash>
0.1365

> <Gold.Chemscore.DEInternal>
4.8096

> <Gold.Chemscore.Rot>
2.7215

> <Gold.Chemscore.Internal.Correction>
   9.000000E+99

> <Gold.Chemscore.Hbonds>
donor molecule, donor type, donor heavy atom, donor atom, acceptor molecule, acceptor atom, score
      P1  H  6896  6908       L1    29  0.93
      P1  H  7997  8010       L1    19  0.02

> <Gold.Chemscore.Hbond.Weighted>
-6.0324

> <Gold.Chemscore.Metal.Weighted>
-0.0000

> <Gold.Chemscore.Lipo.Weighted>
-15.4954

> <Gold.Chemscore.Internal_Hbond.Weighted>
0.0000

> <Gold.Chemscore.DEClash.Weighted>
0.1365

> <Gold.Chemscore.DEInternal.Weighted>
4.8096

> <Gold.Chemscore.Rot.Weighted>
6.9670

> <Gold.Chemscore.Internal.Correction.Weighted>
   9.000000E+99

> <Gold.Protein.RotatedTorsions>
[ 6907 6896 6895 6894 ] final -141.13 input  -60.11 | X-H torsion
[ 7974 7965 7964 7962 ] final  -66.62 input  175.53 | X-H torsion
[ 8008 7997 7996 7995 ] final   12.26 input   59.86 | X-H torsion
[ 10167 10162 10161 10158 ] final   36.30 input  -65.29 | X-H torsion
[ 10718 10713 10712 10709 ] final  161.45 input   66.30 | X-H torsion
[ 10763 10752 10751 10750 ] final   76.67 input  -60.55 | X-H torsion
[ 11005 11000 10999 10996 ] final   34.70 input  -57.11 | X-H torsion

> <Gold.Protein.ActiveResidues>
 VAL166  LYS551  ARG553  GLY616  TRP617  ASP618  TYR619  PRO620  LYS621  CYS622 
 ASP623  PHE694  ASN695  SER759  ASP760  ASP761  ALA762  ILE779  LEU786  VAL792 
 PHE793  MET794  SER795  GLU796  ALA797  LYS798  CYS799  TRP800  GLU811  SER814 

> <Gold.Protein.RotatedAtoms>
  151.0698  133.5475  159.2627 H   0  0  0  0  0  0  0  0  0  0  0  0  # atno 6907 bound_to 6896
  151.2419  135.0591  159.9038 H   0  0  0  0  0  0  0  0  0  0  0  0  # atno 6908 bound_to 6896
  152.5410  134.0471  159.8147 H   0  0  0  0  0  0  0  0  0  0  0  0  # atno 6909 bound_to 6896
  145.7395  140.8960  143.0537 H   0  0  0  0  0  0  0  0  0  0  0  0  # atno 7974 bound_to 7965
  154.8181  140.2879  155.5805 H   0  0  0  0  0  0  0  0  0  0  0  0  # atno 8008 bound_to 7997
  156.2995  140.2555  156.3013 H   0  0  0  0  0  0  0  0  0  0  0  0  # atno 8009 bound_to 7997
  154.9369  140.0382  157.2066 H   0  0  0  0  0  0  0  0  0  0  0  0  # atno 8010 bound_to 7997
  140.4141  144.1552  150.6142 H   0  0  0  0  0  0  0  0  0  0  0  0  # atno 10167 bound_to 10162
  157.1364  131.0529  151.2347 H   0  0  0  0  0  0  0  0  0  0  0  0  # atno 10718 bound_to 10713
  153.0742  135.4942  154.8370 H   0  0  0  0  0  0  0  0  0  0  0  0  # atno 10763 bound_to 10752
  154.7065  135.3011  154.9265 H   0  0  0  0  0  0  0  0  0  0  0  0  # atno 10764 bound_to 10752
  153.9972  135.6771  153.4810 H   0  0  0  0  0  0  0  0  0  0  0  0  # atno 10765 bound_to 10752
  140.2502  134.3312  155.7893 H   0  0  0  0  0  0  0  0  0  0  0  0  # atno 11005 bound_to 11000
  144.6874  139.9441  143.7476 LP  0  0  0  0  0  0  0  0  0  0  0  0  # atno 17320 bound_to 7965
  146.0461  139.3467  143.0668 LP  0  0  0  0  0  0  0  0  0  0  0  0  # atno 17321 bound_to 7965
  140.4606  143.2450  151.9225 LP  0  0  0  0  0  0  0  0  0  0  0  0  # atno 17342 bound_to 10162
  139.4782  144.5471  151.8441 LP  0  0  0  0  0  0  0  0  0  0  0  0  # atno 17343 bound_to 10162
  157.4346  130.7510  149.7019 LP  0  0  0  0  0  0  0  0  0  0  0  0  # atno 17370 bound_to 10713
  155.9797  130.4037  150.3570 LP  0  0  0  0  0  0  0  0  0  0  0  0  # atno 17371 bound_to 10713
  141.2202  133.7349  156.9025 LP  0  0  0  0  0  0  0  0  0  0  0  0  # atno 17394 bound_to 11000
  140.1565  134.9194  157.2661 LP  0  0  0  0  0  0  0  0  0  0  0  0  # atno 17395 bound_to 11000

$$$$
