AV-unprocessed.smi:1338|AV-procd|sdf|5500|dock9
  -GOLD-   22720 5 83D 1   1.00000     0.00000
 Structure written by MMmdl.
 40 41  0  0  0  0  0  0  0  0  1 V2000
  154.7178  136.4256  164.3950 C   0  0  0  0  0  0  0  0  0  0  0  0
  154.5681  137.0162  163.0098 C   0  0  0  0  0  0  0  0  0  0  0  0
  155.3422  138.1452  162.7991 N   0  0  0  0  0  0  0  0  0  0  0  0
  155.2785  138.7514  161.5568 C   0  0  0  0  0  0  0  0  0  0  0  0
  156.1634  139.9771  161.4077 C   0  0  0  0  0  0  0  0  0  0  0  0
  154.4781  138.2613  160.5761 C   0  0  0  0  0  0  0  0  0  0  0  0
  154.3797  138.9009  159.1924 C   0  0  0  0  0  0  0  0  0  0  0  0
  153.3153  139.9907  159.0534 C   0  0  0  0  0  0  0  0  0  0  0  0
  152.4331  139.8826  158.2022 O   0  0  0  0  0  0  0  0  0  0  0  0
  153.4038  141.0288  159.8993 N   0  0  0  0  0  0  0  0  0  0  0  0
  152.4801  142.1579  159.9493 C   0  0  0  0  0  0  0  0  0  0  0  0
  152.4571  142.9018  158.5979 C   0  0  0  0  0  0  0  0  0  0  0  0
  151.5471  144.1396  158.6536 C   0  0  0  0  0  0  0  0  0  0  0  0
  151.9567  145.0829  159.7956 C   0  0  0  0  0  0  0  0  0  0  0  0
  151.9756  144.3459  161.1441 C   0  0  0  0  0  0  0  0  0  0  0  0
  152.8872  143.1090  161.0907 C   0  0  0  0  0  0  0  0  0  0  0  0
  153.6631  137.0574  160.8657 C   0  0  0  0  0  0  0  0  0  0  0  0
  152.9052  136.5746  160.0255 O   0  0  0  0  0  0  0  0  0  0  0  0
  153.7725  136.4744  162.1385 N   0  0  0  0  0  0  0  0  0  0  0  0
  155.9501  138.5428  163.5006 H   0  0  0  0  0  0  0  0  0  0  0  0
  154.1697  135.4865  164.4796 H   0  0  0  0  0  0  0  0  0  0  0  0
  154.3304  137.1156  165.1449 H   0  0  0  0  0  0  0  0  0  0  0  0
  155.7674  136.2270  164.6143 H   0  0  0  0  0  0  0  0  0  0  0  0
  156.8878  139.8305  160.6064 H   0  0  0  0  0  0  0  0  0  0  0  0
  156.7179  140.1859  162.3235 H   0  0  0  0  0  0  0  0  0  0  0  0
  155.5619  140.8560  161.1749 H   0  0  0  0  0  0  0  0  0  0  0  0
  154.1929  138.1439  158.4300 H   0  0  0  0  0  0  0  0  0  0  0  0
  155.3548  139.3145  158.9325 H   0  0  0  0  0  0  0  0  0  0  0  0
  154.1634  141.0334  160.5645 H   0  0  0  0  0  0  0  0  0  0  0  0
  151.4758  141.7872  160.1638 H   0  0  0  0  0  0  0  0  0  0  0  0
  153.4685  143.2092  158.3277 H   0  0  0  0  0  0  0  0  0  0  0  0
  152.1158  142.2346  157.8056 H   0  0  0  0  0  0  0  0  0  0  0  0
  151.5829  144.6704  157.7019 H   0  0  0  0  0  0  0  0  0  0  0  0
  150.5121  143.8249  158.7934 H   0  0  0  0  0  0  0  0  0  0  0  0
  152.9449  145.4967  159.5910 H   0  0  0  0  0  0  0  0  0  0  0  0
  151.2705  145.9288  159.8434 H   0  0  0  0  0  0  0  0  0  0  0  0
  152.3109  145.0211  161.9319 H   0  0  0  0  0  0  0  0  0  0  0  0
  150.9621  144.0415  161.4083 H   0  0  0  0  0  0  0  0  0  0  0  0
  152.8493  142.5845  162.0463 H   0  0  0  0  0  0  0  0  0  0  0  0
  153.9211  143.4294  160.9548 H   0  0  0  0  0  0  0  0  0  0  0  0
  1 21  1  0  0  0  0
  1 22  1  0  0  0  0
  1 23  1  0  0  0  0
  1  2  1  0  0  0  0
  2  3  1  0  0  0  0
  2 19  2  0  0  0  0
  3  4  1  0  0  0  0
  3 20  1  0  0  0  0
  4  6  2  0  0  0  0
  4  5  1  0  0  0  0
  5 24  1  0  0  0  0
  5 25  1  0  0  0  0
  5 26  1  0  0  0  0
  6 17  1  0  0  0  0
  6  7  1  0  0  0  0
  7  8  1  0  0  0  0
  7 27  1  0  0  0  0
  7 28  1  0  0  0  0
  8  9  2  0  0  0  0
  8 10  1  0  0  0  0
 10 11  1  0  0  0  0
 10 29  1  0  0  0  0
 11 16  1  0  0  0  0
 11 12  1  0  0  0  0
 11 30  1  0  0  0  0
 12 13  1  0  0  0  0
 12 31  1  0  0  0  0
 12 32  1  0  0  0  0
 13 14  1  0  0  0  0
 13 33  1  0  0  0  0
 13 34  1  0  0  0  0
 14 15  1  0  0  0  0
 14 35  1  0  0  0  0
 14 36  1  0  0  0  0
 15 16  1  0  0  0  0
 15 37  1  0  0  0  0
 15 38  1  0  0  0  0
 16 39  1  0  0  0  0
 16 40  1  0  0  0  0
 17 18  2  0  0  0  0
 17 19  1  0  0  0  0
M  END
> <s_m_source_file>
AV-unprocessed.smi

> <i_m_source_file_index>
1338

> <i_lp_mmshare_version>
43012

> <i_f3d_flags>
0

> <s_epik_input>
W0NIM11jMW5jKFtDSDNdKWMoYyg9TylbbkhdMSlbQ0gyXUMoPU8pW05IXVtDSF0yW0NIMl1bQ0gyXVtDSDJdW0NIMl1bQ0gyXTI=

> <s_epik_cmdline>
J2VwaWtfcHl0aG9uJywgJy1waCcsICc3LjAnLCAnLXRuJywgJzgnLCAnLW1hJywgJzIwMCcsICctbWV0YWxfYmluZGluZycsICctaW1hZScsICc8aW5maWxlLm1hZT4nLCAnLW9tYWUnLCAnPG91dGZpbGUubWFlPic=

> <r_lp_tautomer_probability>
0.156392

> <r_epik_Ionization_Penalty>
0.0136832

> <r_epik_Ionization_Penalty_Charging>
0.0135532

> <r_epik_Ionization_Penalty_Neutral>
0.000130025

> <r_epik_State_Penalty>
1.15342

> <r_epik_Charging_Adjusted_Penalty>
1.16697

> <i_epik_Tot_Q>
0

> <i_epik_Tot_abs_Q>
0

> <r_epik_Metal_State_Penalty>
1.31441

> <b_epik_Metal_Only>
0

> <s_lp_Force_Field>
OPLS_2005

> <r_lp_Energy>
13.63

> <b_lp_Chiralities_Consistent>
1

> <s_lp_Variant>
AV-unprocessed.smi:1338-2

> <Gold.Version>
5.8.1

> <Gold.Id.Protein>
6NUR|6NUR_protein|mol2

> <Gold.PLP.Fitness>
44.5557

> <Gold.PLP.PLP>
-39.3220

> <Gold.PLP.part.hbond>
-2.0000

> <Gold.PLP.part.metal>
0.0000

> <Gold.PLP.part.buried>
-0.8645

> <Gold.PLP.part.nonpolar>
-36.7005

> <Gold.PLP.part.repulsive>
0.0792

> <Gold.PLP.ligand.clash>
0.0000

> <Gold.PLP.ligand.torsion>
0.3854

> <Gold.PLP.Chemscore.Hbond>
2.0000

> <Gold.PLP.Chemscore.CHOScore>
0.0000

> <Gold.PLP.Chemscore.Metal>
0.0000

> <Gold.Chemscore.Hbonds>
donor molecule, donor type, donor heavy atom, donor atom, acceptor molecule, acceptor atom, score
      P1  H  6896  6909       L1    18  1.00

> <Gold.PLP.Chemscore.Internal.Correction>
0.0045

> <Gold.Rescore>
     Score         DG    S(hbond)    S(metal)    S(lipo)     H(rot)  DE(clash)    DE(int)     intcor
     16.80     -19.48       1.74        0.00     102.74       1.49       0.70       1.98       ----

> <Gold.Chemscore.Fitness>
16.7957

> <Gold.Chemscore.DG>
-19.4751

> <Gold.Chemscore.ZeroCoef>
-5.4800

> <Gold.Chemscore.Hbond>
1.7365

> <Gold.Chemscore.Metal>
0.0000

> <Gold.Chemscore.Lipo>
102.7398

> <Gold.Chemscore.Internal_Hbond>
0.0000

> <Gold.Chemscore.DEClash>
0.6988

> <Gold.Chemscore.DEInternal>
1.9806

> <Gold.Chemscore.Rot>
1.4942

> <Gold.Chemscore.Internal.Correction>
   9.000000E+99

> <Gold.Chemscore.Hbonds>
donor molecule, donor type, donor heavy atom, donor atom, acceptor molecule, acceptor atom, score
      P1  H  6896  6909       L1    18  1.00

> <Gold.Chemscore.Hbond.Weighted>
-5.7998

> <Gold.Chemscore.Metal.Weighted>
-0.0000

> <Gold.Chemscore.Lipo.Weighted>
-12.0206

> <Gold.Chemscore.Internal_Hbond.Weighted>
0.0000

> <Gold.Chemscore.DEClash.Weighted>
0.6988

> <Gold.Chemscore.DEInternal.Weighted>
1.9806

> <Gold.Chemscore.Rot.Weighted>
3.8253

> <Gold.Chemscore.Internal.Correction.Weighted>
   9.000000E+99

> <Gold.Protein.RotatedTorsions>
[ 6907 6896 6895 6894 ] final  155.24 input  -60.11 | X-H torsion
[ 7974 7965 7964 7962 ] final -143.76 input  175.53 | X-H torsion
[ 8008 7997 7996 7995 ] final   35.48 input   59.86 | X-H torsion
[ 10167 10162 10161 10158 ] final -179.76 input  -65.29 | X-H torsion
[ 10718 10713 10712 10709 ] final  -52.73 input   66.30 | X-H torsion
[ 10763 10752 10751 10750 ] final  131.30 input  -60.55 | X-H torsion
[ 11005 11000 10999 10996 ] final   80.05 input  -57.11 | X-H torsion

> <Gold.Protein.ActiveResidues>
 VAL166  LYS551  ARG553  GLY616  TRP617  ASP618  TYR619  PRO620  LYS621  CYS622 
 ASP623  PHE694  ASN695  SER759  ASP760  ASP761  ALA762  ILE779  LEU786  VAL792 
 PHE793  MET794  SER795  GLU796  ALA797  LYS798  CYS799  TRP800  GLU811  SER814 

> <Gold.Protein.RotatedAtoms>
  152.0470  133.4002  159.4360 H   0  0  0  0  0  0  0  0  0  0  0  0  # atno 6907 bound_to 6896
  150.6872  134.3350  159.4853 H   0  0  0  0  0  0  0  0  0  0  0  0  # atno 6908 bound_to 6896
  152.1156  134.9242  160.0615 H   0  0  0  0  0  0  0  0  0  0  0  0  # atno 6909 bound_to 6896
  144.8346  140.5795  143.5492 H   0  0  0  0  0  0  0  0  0  0  0  0  # atno 7974 bound_to 7965
  155.1718  140.3292  155.4391 H   0  0  0  0  0  0  0  0  0  0  0  0  # atno 8008 bound_to 7997
  156.2507  140.1942  156.6771 H   0  0  0  0  0  0  0  0  0  0  0  0  # atno 8009 bound_to 7997
  154.6332  140.0580  156.9744 H   0  0  0  0  0  0  0  0  0  0  0  0  # atno 8010 bound_to 7997
  139.5372  144.2465  152.0819 H   0  0  0  0  0  0  0  0  0  0  0  0  # atno 10167 bound_to 10162
  156.1596  130.4150  149.9814 H   0  0  0  0  0  0  0  0  0  0  0  0  # atno 10718 bound_to 10713
  153.7721  135.3180  155.3353 H   0  0  0  0  0  0  0  0  0  0  0  0  # atno 10763 bound_to 10752
  154.8192  135.4615  154.0734 H   0  0  0  0  0  0  0  0  0  0  0  0  # atno 10764 bound_to 10752
  153.1996  135.6920  153.8332 H   0  0  0  0  0  0  0  0  0  0  0  0  # atno 10765 bound_to 10752
  139.9149  134.7890  156.1858 H   0  0  0  0  0  0  0  0  0  0  0  0  # atno 11005 bound_to 11000
  145.4822  139.1494  143.3756 LP  0  0  0  0  0  0  0  0  0  0  0  0  # atno 17320 bound_to 7965
  146.2646  140.4958  142.8839 LP  0  0  0  0  0  0  0  0  0  0  0  0  # atno 17321 bound_to 7965
  140.1937  144.4726  150.6466 LP  0  0  0  0  0  0  0  0  0  0  0  0  # atno 17342 bound_to 10162
  140.6584  143.2244  151.5915 LP  0  0  0  0  0  0  0  0  0  0  0  0  # atno 17343 bound_to 10162
  156.7648  130.9164  151.3642 LP  0  0  0  0  0  0  0  0  0  0  0  0  # atno 17370 bound_to 10713
  157.6722  130.9061  150.0066 LP  0  0  0  0  0  0  0  0  0  0  0  0  # atno 17371 bound_to 10713
  141.0614  133.6840  156.1960 LP  0  0  0  0  0  0  0  0  0  0  0  0  # atno 17394 bound_to 11000
  140.6655  134.4923  157.5585 LP  0  0  0  0  0  0  0  0  0  0  0  0  # atno 17395 bound_to 11000

$$$$
