AV-unprocessed.smi:3303|AV-procd|sdf|12657|dock10
  -GOLD-   2272018593D 1   1.00000     0.00000
 Structure written by MMmdl.
 45 46  0  0  0  0  0  0  0  0  3 V2000
  152.2745  140.2119  157.1554 C   0  0  0  0  0  0  0  0  0  0  0  0
  150.8478  140.4003  156.6093 C   0  0  2  0  0  0  0  0  0  0  0  0
  150.4123  139.1477  155.8215 C   0  0  0  0  0  0  0  0  0  0  0  0
  149.0330  139.2710  155.2819 N   0  3  2  0  0  0  0  0  0  0  0  0
  148.5931  137.9985  154.6594 C   0  0  0  0  0  0  0  0  0  0  0  0
  148.8862  140.4646  154.3961 C   0  0  1  0  0  0  0  0  0  0  0  0
  147.4546  140.6261  153.8485 C   0  0  0  0  0  0  0  0  0  0  0  0
  149.2962  141.7429  155.1560 C   0  0  0  0  0  0  0  0  0  0  0  0
  150.7225  141.6563  155.7212 C   0  0  1  0  0  0  0  0  0  0  0  0
  151.0244  142.8846  156.4918 N   0  3  0  0  0  0  0  0  0  0  0  0
  150.7014  142.8079  157.9305 C   0  0  0  0  0  0  0  0  0  0  0  0
  151.5143  143.8337  158.7316 C   0  0  0  0  0  0  0  0  0  0  0  0
  152.3014  143.1884  159.8557 C   0  0  0  0  0  0  0  0  0  0  0  0
  153.3162  142.2481  159.5783 C   0  0  0  0  0  0  0  0  0  0  0  0
  154.0230  141.6868  160.6595 C   0  0  0  0  0  0  0  0  0  0  0  0
  153.6891  142.0855  161.9681 C   0  0  0  0  0  0  0  0  0  0  0  0
  152.6600  143.0327  162.1388 C   0  0  0  0  0  0  0  0  0  0  0  0
  151.9780  143.5795  161.1085 N   0  0  0  0  0  0  0  0  0  0  0  0
  153.0012  140.1222  156.3472 H   0  0  0  0  0  0  0  0  0  0  0  0
  152.3448  139.3102  157.7648 H   0  0  0  0  0  0  0  0  0  0  0  0
  152.5794  141.0484  157.7846 H   0  0  0  0  0  0  0  0  0  0  0  0
  150.1761  140.5101  157.4627 H   0  0  0  0  0  0  0  0  0  0  0  0
  151.1048  138.9593  154.9991 H   0  0  0  0  0  0  0  0  0  0  0  0
  150.4629  138.2776  156.4779 H   0  0  0  0  0  0  0  0  0  0  0  0
  149.1244  137.8149  153.7248 H   0  0  0  0  0  0  0  0  0  0  0  0
  147.5227  138.0005  154.4561 H   0  0  0  0  0  0  0  0  0  0  0  0
  148.7806  137.1559  155.3260 H   0  0  0  0  0  0  0  0  0  0  0  0
  149.5590  140.3385  153.5458 H   0  0  0  0  0  0  0  0  0  0  0  0
  147.3550  141.5563  153.2883 H   0  0  0  0  0  0  0  0  0  0  0  0
  146.7187  140.6468  154.6530 H   0  0  0  0  0  0  0  0  0  0  0  0
  147.1849  139.8230  153.1627 H   0  0  0  0  0  0  0  0  0  0  0  0
  149.2230  142.6043  154.4904 H   0  0  0  0  0  0  0  0  0  0  0  0
  148.5898  141.9234  155.9684 H   0  0  0  0  0  0  0  0  0  0  0  0
  151.4178  141.5665  154.8840 H   0  0  0  0  0  0  0  0  0  0  0  0
  152.0093  143.0896  156.3987 H   0  0  0  0  0  0  0  0  0  0  0  0
  149.6352  142.9901  158.0715 H   0  0  0  0  0  0  0  0  0  0  0  0
  150.9089  141.7987  158.2891 H   0  0  0  0  0  0  0  0  0  0  0  0
  152.2070  144.3608  158.0735 H   0  0  0  0  0  0  0  0  0  0  0  0
  150.8510  144.5921  159.1497 H   0  0  0  0  0  0  0  0  0  0  0  0
  153.5509  141.9622  158.5634 H   0  0  0  0  0  0  0  0  0  0  0  0
  154.8078  140.9647  160.4882 H   0  0  0  0  0  0  0  0  0  0  0  0
  154.2098  141.6757  162.8209 H   0  0  0  0  0  0  0  0  0  0  0  0
  152.3783  143.3614  163.1281 H   0  0  0  0  0  0  0  0  0  0  0  0
  150.5001  143.6489  156.0899 H   0  0  0  0  0  0  0  0  0  0  0  0
  148.4266  139.4208  156.0760 H   0  0  0  0  0  0  0  0  0  0  0  0
  1  2  1  0  0  0  0
  1 19  1  0  0  0  0
  1 20  1  0  0  0  0
  1 21  1  0  0  0  0
  2  9  1  0  0  0  0
  2  3  1  0  0  0  0
  2 22  1  0  0  0  0
  3  4  1  0  0  0  0
  3 23  1  0  0  0  0
  3 24  1  0  0  0  0
  4  5  1  0  0  0  0
  4  6  1  0  0  0  0
  4 45  1  0  0  0  0
  5 25  1  0  0  0  0
  5 26  1  0  0  0  0
  5 27  1  0  0  0  0
  6  7  1  0  0  0  0
  6  8  1  0  0  0  0
  6 28  1  0  0  0  0
  7 29  1  0  0  0  0
  7 30  1  0  0  0  0
  7 31  1  0  0  0  0
  8  9  1  0  0  0  0
  8 32  1  0  0  0  0
  8 33  1  0  0  0  0
  9 10  1  0  0  0  0
  9 34  1  0  0  0  0
 10 11  1  0  0  0  0
 10 35  1  0  0  0  0
 10 44  1  0  0  0  0
 11 12  1  0  0  0  0
 11 36  1  0  0  0  0
 11 37  1  0  0  0  0
 12 13  1  0  0  0  0
 12 38  1  0  0  0  0
 12 39  1  0  0  0  0
 13 18  1  0  0  0  0
 13 14  2  0  0  0  0
 14 15  1  0  0  0  0
 14 40  1  0  0  0  0
 15 16  2  0  0  0  0
 15 41  1  0  0  0  0
 16 17  1  0  0  0  0
 16 42  1  0  0  0  0
 17 18  2  0  0  0  0
 17 43  1  0  0  0  0
M  CHG  1   4   1
M  CHG  1  10   1
M  END
> <s_m_source_file>
AV-unprocessed.smi

> <i_m_source_file_index>
3303

> <i_lp_mmshare_version>
43012

> <i_f3d_flags>
0

> <s_epik_input>
W0NIM11bQ0BASF0xW0NIMl1OKFtDSDNdKVtDQEBIXShbQ0gzXSlbQ0gyXVtDQEhdMVtOSF1bQ0gyXVtDSDJdYzJbY0hdW2NIXVtjSF1bY0hdbjI=

> <s_epik_cmdline>
J2VwaWtfcHl0aG9uJywgJy1waCcsICc3LjAnLCAnLXRuJywgJzgnLCAnLW1hJywgJzIwMCcsICctbWV0YWxfYmluZGluZycsICctaW1hZScsICc8aW5maWxlLm1hZT4nLCAnLW9tYWUnLCAnPG91dGZpbGUubWFlPic=

> <r_epik_Ionization_Penalty>
0.0769462

> <r_epik_Ionization_Penalty_Charging>
0.0759813

> <r_epik_Ionization_Penalty_Neutral>
0.000964829

> <r_epik_State_Penalty>
0.0654373

> <r_epik_Charging_Adjusted_Penalty>
0.141419

> <i_epik_Tot_Q>
2

> <i_epik_Tot_abs_Q>
2

> <r_epik_Metal_State_Penalty>
0.0656439

> <b_epik_Metal_Only>
0

> <s_lp_Force_Field>
OPLS_2005

> <r_lp_Energy>
29.1913

> <b_lp_Chiralities_Consistent>
1

> <s_lp_Variant>
AV-unprocessed.smi:3303-1

> <Gold.Version>
5.8.1

> <Gold.Id.Protein>
6NUR|6NUR_protein|mol2

> <Gold.PLP.Fitness>
43.7441

> <Gold.PLP.PLP>
-39.5002

> <Gold.PLP.part.hbond>
-1.0000

> <Gold.PLP.part.metal>
0.0000

> <Gold.PLP.part.buried>
-2.2362

> <Gold.PLP.part.nonpolar>
-35.7140

> <Gold.PLP.part.repulsive>
0.2221

> <Gold.PLP.ligand.clash>
0.0000

> <Gold.PLP.ligand.torsion>
0.8813

> <Gold.PLP.Chemscore.Hbond>
2.0000

> <Gold.PLP.Chemscore.CHOScore>
0.0000

> <Gold.PLP.Chemscore.Metal>
0.0000

> <Gold.Chemscore.Hbonds>
donor molecule, donor type, donor heavy atom, donor atom, acceptor molecule, acceptor atom, score
      L1  H    10    44       P1  8028  2.00

> <Gold.PLP.Chemscore.Internal.Correction>
0.0065

> <Gold.Rescore>
     Score         DG    S(hbond)    S(metal)    S(lipo)     H(rot)  DE(clash)    DE(int)     intcor
     18.75     -19.85       1.00        0.00     124.38       1.37       0.23       0.87       ----

> <Gold.Chemscore.Fitness>
18.7520

> <Gold.Chemscore.DG>
-19.8499

> <Gold.Chemscore.ZeroCoef>
-5.4800

> <Gold.Chemscore.Hbond>
0.9987

> <Gold.Chemscore.Metal>
0.0000

> <Gold.Chemscore.Lipo>
124.3824

> <Gold.Chemscore.Internal_Hbond>
0.0000

> <Gold.Chemscore.DEClash>
0.2304

> <Gold.Chemscore.DEInternal>
0.8674

> <Gold.Chemscore.Rot>
1.3744

> <Gold.Chemscore.Internal.Correction>
   9.000000E+99

> <Gold.Chemscore.Hbonds>
donor molecule, donor type, donor heavy atom, donor atom, acceptor molecule, acceptor atom, score
      L1  H    10    44       P1  8028  0.97

> <Gold.Chemscore.Hbond.Weighted>
-3.3356

> <Gold.Chemscore.Metal.Weighted>
-0.0000

> <Gold.Chemscore.Lipo.Weighted>
-14.5527

> <Gold.Chemscore.Internal_Hbond.Weighted>
0.0000

> <Gold.Chemscore.DEClash.Weighted>
0.2304

> <Gold.Chemscore.DEInternal.Weighted>
0.8674

> <Gold.Chemscore.Rot.Weighted>
3.5185

> <Gold.Chemscore.Internal.Correction.Weighted>
   9.000000E+99

> <Gold.Protein.RotatedTorsions>
[ 6907 6896 6895 6894 ] final -100.82 input  -60.11 | X-H torsion
[ 7974 7965 7964 7962 ] final    1.72 input  175.53 | X-H torsion
[ 8008 7997 7996 7995 ] final -153.49 input   59.86 | X-H torsion
[ 10167 10162 10161 10158 ] final   67.64 input  -65.29 | X-H torsion
[ 10718 10713 10712 10709 ] final  104.89 input   66.30 | X-H torsion
[ 10763 10752 10751 10750 ] final -152.72 input  -60.55 | X-H torsion
[ 11005 11000 10999 10996 ] final  149.41 input  -57.11 | X-H torsion

> <Gold.Protein.ActiveResidues>
 VAL166  LYS551  ARG553  GLY616  TRP617  ASP618  TYR619  PRO620  LYS621  CYS622 
 ASP623  PHE694  ASN695  SER759  ASP760  ASP761  ALA762  ILE779  LEU786  VAL792 
 PHE793  MET794  SER795  GLU796  ALA797  LYS798  CYS799  TRP800  GLU811  SER814 

> <Gold.Protein.RotatedAtoms>
  150.7130  134.0829  159.3903 H   0  0  0  0  0  0  0  0  0  0  0  0  # atno 6907 bound_to 6896
  151.8813  135.0450  160.0498 H   0  0  0  0  0  0  0  0  0  0  0  0  # atno 6908 bound_to 6896
  152.2565  133.5225  159.5393 H   0  0  0  0  0  0  0  0  0  0  0  0  # atno 6909 bound_to 6896
  146.2441  140.0944  142.8350 H   0  0  0  0  0  0  0  0  0  0  0  0  # atno 7974 bound_to 7965
  155.6716  140.0734  157.2518 H   0  0  0  0  0  0  0  0  0  0  0  0  # atno 8008 bound_to 7997
  154.4122  140.1698  156.1936 H   0  0  0  0  0  0  0  0  0  0  0  0  # atno 8009 bound_to 7997
  155.9612  140.3369  155.6495 H   0  0  0  0  0  0  0  0  0  0  0  0  # atno 8010 bound_to 7997
  140.0874  144.5018  150.7122 H   0  0  0  0  0  0  0  0  0  0  0  0  # atno 10167 bound_to 10162
  157.6725  131.0814  150.5774 H   0  0  0  0  0  0  0  0  0  0  0  0  # atno 10718 bound_to 10713
  154.7975  135.3229  154.7631 H   0  0  0  0  0  0  0  0  0  0  0  0  # atno 10763 bound_to 10752
  153.8306  135.6879  153.4819 H   0  0  0  0  0  0  0  0  0  0  0  0  # atno 10764 bound_to 10752
  153.1674  135.4636  154.9798 H   0  0  0  0  0  0  0  0  0  0  0  0  # atno 10765 bound_to 10752
  140.1043  134.8964  157.1842 H   0  0  0  0  0  0  0  0  0  0  0  0  # atno 11005 bound_to 11000
  145.0622  140.9096  143.4931 LP  0  0  0  0  0  0  0  0  0  0  0  0  # atno 17320 bound_to 7965
  145.1062  139.2788  143.5661 LP  0  0  0  0  0  0  0  0  0  0  0  0  # atno 17321 bound_to 7965
  140.7046  143.2459  151.4763 LP  0  0  0  0  0  0  0  0  0  0  0  0  # atno 17342 bound_to 10162
  139.5744  144.1852  152.1883 LP  0  0  0  0  0  0  0  0  0  0  0  0  # atno 17343 bound_to 10162
  156.6075  130.4371  149.5872 LP  0  0  0  0  0  0  0  0  0  0  0  0  # atno 17370 bound_to 10713
  156.2457  130.6877  151.1598 LP  0  0  0  0  0  0  0  0  0  0  0  0  # atno 17371 bound_to 10713
  140.3178  134.2951  155.7252 LP  0  0  0  0  0  0  0  0  0  0  0  0  # atno 17394 bound_to 11000
  141.2114  133.7690  156.9867 LP  0  0  0  0  0  0  0  0  0  0  0  0  # atno 17395 bound_to 11000

$$$$
