AV-unprocessed.smi:3331|AV-procd|sdf|12828|dock2
  -GOLD-   2272019203D 1   1.00000     0.00000
 Structure written by MMmdl.
 46 47  0  0  0  0  0  0  0  0  1 V2000
  151.9883  138.2682  154.8731 C   0  0  0  0  0  0  0  0  0  0  0  0
  150.7130  139.0862  155.1197 C   0  0  1  0  0  0  0  0  0  0  0  0
  151.0444  140.5154  155.6081 C   0  0  0  0  0  0  0  0  0  0  0  0
  149.7941  141.4156  155.7322 C   0  0  2  0  0  0  0  0  0  0  0  0
  148.9753  141.1006  156.9969 C   0  0  0  0  0  0  0  0  0  0  0  0
  148.9563  141.3280  154.4378 C   0  0  0  0  0  0  0  0  0  0  0  0
  148.6156  139.9245  154.1630 N   0  0  0  0  0  0  0  0  0  0  0  0
  147.3833  139.3600  154.2442 C   0  0  0  0  0  0  0  0  0  0  0  0
  146.3954  140.0060  154.6001 O   0  0  0  0  0  0  0  0  0  0  0  0
  147.1808  137.8681  153.8860 C   0  0  1  0  0  0  0  0  0  0  0  0
  146.8341  137.0694  155.1522 C   0  0  0  0  0  0  0  0  0  0  0  0
  146.1414  137.6447  152.8635 N   0  0  0  0  0  0  0  0  0  0  0  0
  145.9818  136.2440  152.4875 C   0  0  0  0  0  0  0  0  0  0  0  0
  145.4912  136.1588  151.0354 C   0  0  0  0  0  0  0  0  0  0  0  0
  145.3755  134.7830  150.5914 N   0  0  0  0  0  0  0  0  0  0  0  0
  144.2344  134.0803  150.2662 C   0  0  0  0  0  0  0  0  0  0  0  0
  144.6221  132.8226  149.9018 C   0  0  0  0  0  0  0  0  0  0  0  0
  146.0381  132.8530  150.0381 C   0  0  0  0  0  0  0  0  0  0  0  0
  146.4861  134.0274  150.4522 N   0  0  0  0  0  0  0  0  0  0  0  0
  149.8215  139.1411  153.8611 C   0  0  0  0  0  0  0  0  0  0  0  0
  152.5976  138.7106  154.0846 H   0  0  0  0  0  0  0  0  0  0  0  0
  151.7477  137.2473  154.5752 H   0  0  0  0  0  0  0  0  0  0  0  0
  152.5985  138.2125  155.7749 H   0  0  0  0  0  0  0  0  0  0  0  0
  150.1508  138.5803  155.9058 H   0  0  0  0  0  0  0  0  0  0  0  0
  151.5796  140.4776  156.5579 H   0  0  0  0  0  0  0  0  0  0  0  0
  151.7303  140.9773  154.8965 H   0  0  0  0  0  0  0  0  0  0  0  0
  150.1390  142.4453  155.8331 H   0  0  0  0  0  0  0  0  0  0  0  0
  148.5946  140.0794  156.9944 H   0  0  0  0  0  0  0  0  0  0  0  0
  148.1208  141.7714  157.0866 H   0  0  0  0  0  0  0  0  0  0  0  0
  149.5815  141.2227  157.8946 H   0  0  0  0  0  0  0  0  0  0  0  0
  148.0990  141.9962  154.4839 H   0  0  0  0  0  0  0  0  0  0  0  0
  149.5459  141.7084  153.6022 H   0  0  0  0  0  0  0  0  0  0  0  0
  148.0983  137.4590  153.4682 H   0  0  0  0  0  0  0  0  0  0  0  0
  147.6075  137.1726  155.9140 H   0  0  0  0  0  0  0  0  0  0  0  0
  146.7378  136.0061  154.9300 H   0  0  0  0  0  0  0  0  0  0  0  0
  145.8918  137.4027  155.5897 H   0  0  0  0  0  0  0  0  0  0  0  0
  146.3043  138.2071  152.0404 H   0  0  0  0  0  0  0  0  0  0  0  0
  146.9249  135.7055  152.5834 H   0  0  0  0  0  0  0  0  0  0  0  0
  145.2629  135.7644  153.1534 H   0  0  0  0  0  0  0  0  0  0  0  0
  144.5192  136.6429  150.9272 H   0  0  0  0  0  0  0  0  0  0  0  0
  146.1810  136.6793  150.3691 H   0  0  0  0  0  0  0  0  0  0  0  0
  143.2530  134.5283  150.3190 H   0  0  0  0  0  0  0  0  0  0  0  0
  143.9907  132.0055  149.5857 H   0  0  0  0  0  0  0  0  0  0  0  0
  146.7491  132.0619  149.8505 H   0  0  0  0  0  0  0  0  0  0  0  0
  150.3599  139.6081  153.0349 H   0  0  0  0  0  0  0  0  0  0  0  0
  149.5949  138.1283  153.5251 H   0  0  0  0  0  0  0  0  0  0  0  0
  1  2  1  0  0  0  0
  1 21  1  0  0  0  0
  1 22  1  0  0  0  0
  1 23  1  0  0  0  0
  2 20  1  0  0  0  0
  2  3  1  0  0  0  0
  2 24  1  0  0  0  0
  3  4  1  0  0  0  0
  3 25  1  0  0  0  0
  3 26  1  0  0  0  0
  4  5  1  0  0  0  0
  4  6  1  0  0  0  0
  4 27  1  0  0  0  0
  5 28  1  0  0  0  0
  5 29  1  0  0  0  0
  5 30  1  0  0  0  0
  6  7  1  0  0  0  0
  6 31  1  0  0  0  0
  6 32  1  0  0  0  0
  7  8  1  0  0  0  0
  7 20  1  0  0  0  0
  8  9  2  0  0  0  0
  8 10  1  0  0  0  0
 10 11  1  0  0  0  0
 10 12  1  0  0  0  0
 10 33  1  0  0  0  0
 11 34  1  0  0  0  0
 11 35  1  0  0  0  0
 11 36  1  0  0  0  0
 12 13  1  0  0  0  0
 12 37  1  0  0  0  0
 13 14  1  0  0  0  0
 13 38  1  0  0  0  0
 13 39  1  0  0  0  0
 14 15  1  0  0  0  0
 14 40  1  0  0  0  0
 14 41  1  0  0  0  0
 15 19  1  0  0  0  0
 15 16  1  0  0  0  0
 16 17  2  0  0  0  0
 16 42  1  0  0  0  0
 17 18  1  0  0  0  0
 17 43  1  0  0  0  0
 18 19  2  0  0  0  0
 18 44  1  0  0  0  0
 20 45  1  0  0  0  0
 20 46  1  0  0  0  0
M  END
> <s_m_source_file>
AV-unprocessed.smi

> <i_m_source_file_index>
3331

> <i_lp_mmshare_version>
43012

> <i_f3d_flags>
0

> <s_epik_input>
W0NIM11bQ0BASF0xW0NIMl1bQ0BASF0oW0NIM10pW0NIMl1OKFtDSDJdMSlDKD1PKVtDQEhdKFtDSDNdKVtOSF1bQ0gyXVtDSDJdbjJbY0hdW2NIXVtjSF1uMg==

> <s_epik_cmdline>
J2VwaWtfcHl0aG9uJywgJy1waCcsICc3LjAnLCAnLXRuJywgJzgnLCAnLW1hJywgJzIwMCcsICctbWV0YWxfYmluZGluZycsICctaW1hZScsICc8aW5maWxlLm1hZT4nLCAnLW9tYWUnLCAnPG91dGZpbGUubWFlPic=

> <r_lp_tautomer_probability>
1

> <r_epik_Ionization_Penalty>
0.767994

> <r_epik_Ionization_Penalty_Charging>
0

> <r_epik_Ionization_Penalty_Neutral>
0.767994

> <r_epik_State_Penalty>
0.795453

> <r_epik_Charging_Adjusted_Penalty>
0.795453

> <i_epik_Tot_Q>
0

> <i_epik_Tot_abs_Q>
0

> <r_epik_Metal_State_Penalty>
0.794784

> <b_epik_Metal_Only>
0

> <s_lp_Force_Field>
OPLS_2005

> <r_lp_Energy>
29.1639

> <b_lp_Chiralities_Consistent>
1

> <s_lp_Variant>
AV-unprocessed.smi:3331-12

> <Gold.Version>
5.8.1

> <Gold.Id.Protein>
6NUR|6NUR_protein|mol2

> <Gold.PLP.Fitness>
39.0657

> <Gold.PLP.PLP>
-33.6756

> <Gold.PLP.part.hbond>
0.0000

> <Gold.PLP.part.metal>
0.0000

> <Gold.PLP.part.buried>
-2.4011

> <Gold.PLP.part.nonpolar>
-31.8327

> <Gold.PLP.part.repulsive>
0.2966

> <Gold.PLP.ligand.clash>
0.0000

> <Gold.PLP.ligand.torsion>
0.3347

> <Gold.PLP.Chemscore.Hbond>
0.0000

> <Gold.PLP.Chemscore.CHOScore>
2.0000

> <Gold.PLP.Chemscore.Metal>
0.0000

> <Gold.Chemscore.Hbonds>
donor molecule, donor type, donor heavy atom, donor atom, acceptor molecule, acceptor atom, score
      L1  C    16    42       P1 10186  1.00
      L1  C    18    44       P1 10747  0.94

> <Gold.PLP.Chemscore.Internal.Correction>
0.0595

> <Gold.Rescore>
     Score         DG    S(hbond)    S(metal)    S(lipo)     H(rot)  DE(clash)    DE(int)     intcor
     10.66     -11.27       0.00        0.00      85.89       1.66       0.25       0.35       ----

> <Gold.Chemscore.Fitness>
10.6618

> <Gold.Chemscore.DG>
-11.2670

> <Gold.Chemscore.ZeroCoef>
-5.4800

> <Gold.Chemscore.Hbond>
0.0000

> <Gold.Chemscore.Metal>
0.0000

> <Gold.Chemscore.Lipo>
85.8894

> <Gold.Chemscore.Internal_Hbond>
0.0000

> <Gold.Chemscore.DEClash>
0.2512

> <Gold.Chemscore.DEInternal>
0.3540

> <Gold.Chemscore.Rot>
1.6649

> <Gold.Chemscore.Internal.Correction>
   9.000000E+99

> <Gold.Chemscore.Hbond.Weighted>
-0.0000

> <Gold.Chemscore.Metal.Weighted>
-0.0000

> <Gold.Chemscore.Lipo.Weighted>
-10.0491

> <Gold.Chemscore.Internal_Hbond.Weighted>
0.0000

> <Gold.Chemscore.DEClash.Weighted>
0.2512

> <Gold.Chemscore.DEInternal.Weighted>
0.3540

> <Gold.Chemscore.Rot.Weighted>
4.2621

> <Gold.Chemscore.Internal.Correction.Weighted>
   9.000000E+99

> <Gold.Protein.RotatedTorsions>
[ 6907 6896 6895 6894 ] final   61.97 input  -60.11 | X-H torsion
[ 7974 7965 7964 7962 ] final -145.29 input  175.53 | X-H torsion
[ 8008 7997 7996 7995 ] final   71.78 input   59.86 | X-H torsion
[ 10167 10162 10161 10158 ] final  151.96 input  -65.29 | X-H torsion
[ 10718 10713 10712 10709 ] final  -94.91 input   66.30 | X-H torsion
[ 10763 10752 10751 10750 ] final   95.82 input  -60.55 | X-H torsion
[ 11005 11000 10999 10996 ] final -165.38 input  -57.11 | X-H torsion

> <Gold.Protein.ActiveResidues>
 VAL166  LYS551  ARG553  GLY616  TRP617  ASP618  TYR619  PRO620  LYS621  CYS622 
 ASP623  PHE694  ASN695  SER759  ASP760  ASP761  ALA762  ILE779  LEU786  VAL792 
 PHE793  MET794  SER795  GLU796  ALA797  LYS798  CYS799  TRP800  GLU811  SER814 

> <Gold.Protein.RotatedAtoms>
  152.4133  134.6085  160.0019 H   0  0  0  0  0  0  0  0  0  0  0  0  # atno 6907 bound_to 6896
  151.6256  133.3330  159.3105 H   0  0  0  0  0  0  0  0  0  0  0  0  # atno 6908 bound_to 6896
  150.8023  134.7165  159.6678 H   0  0  0  0  0  0  0  0  0  0  0  0  # atno 6909 bound_to 6896
  144.8238  140.5603  143.5561 H   0  0  0  0  0  0  0  0  0  0  0  0  # atno 7974 bound_to 7965
  155.7590  140.3487  155.5188 H   0  0  0  0  0  0  0  0  0  0  0  0  # atno 8008 bound_to 7997
  155.8932  140.1021  157.1425 H   0  0  0  0  0  0  0  0  0  0  0  0  # atno 8009 bound_to 7997
  154.4035  140.1300  156.4329 H   0  0  0  0  0  0  0  0  0  0  0  0  # atno 8010 bound_to 7997
  139.4836  144.5397  151.7585 H   0  0  0  0  0  0  0  0  0  0  0  0  # atno 10167 bound_to 10162
  156.0034  130.5087  150.5998 H   0  0  0  0  0  0  0  0  0  0  0  0  # atno 10718 bound_to 10713
  153.2576  135.4240  155.0861 H   0  0  0  0  0  0  0  0  0  0  0  0  # atno 10763 bound_to 10752
  154.8407  135.3441  154.6423 H   0  0  0  0  0  0  0  0  0  0  0  0  # atno 10764 bound_to 10752
  153.6844  135.7037  153.5165 H   0  0  0  0  0  0  0  0  0  0  0  0  # atno 10765 bound_to 10752
  140.5764  134.5186  157.5171 H   0  0  0  0  0  0  0  0  0  0  0  0  # atno 11005 bound_to 11000
  145.5046  139.1482  143.3638 LP  0  0  0  0  0  0  0  0  0  0  0  0  # atno 17320 bound_to 7965
  146.2543  140.5186  142.8880 LP  0  0  0  0  0  0  0  0  0  0  0  0  # atno 17321 bound_to 7965
  140.4935  144.1275  150.5955 LP  0  0  0  0  0  0  0  0  0  0  0  0  # atno 17342 bound_to 10162
  140.4144  143.2641  151.9793 LP  0  0  0  0  0  0  0  0  0  0  0  0  # atno 17343 bound_to 10162
  157.3849  131.0786  151.1445 LP  0  0  0  0  0  0  0  0  0  0  0  0  # atno 17370 bound_to 10713
  157.2155  130.6457  149.5791 LP  0  0  0  0  0  0  0  0  0  0  0  0  # atno 17371 bound_to 10713
  139.9338  134.7914  156.0859 LP  0  0  0  0  0  0  0  0  0  0  0  0  # atno 17394 bound_to 11000
  141.1024  133.6672  156.2785 LP  0  0  0  0  0  0  0  0  0  0  0  0  # atno 17395 bound_to 11000

$$$$
