AV-unprocessed.smi:1697|AV-procd|sdf|6811|dock10
  -GOLD-   22720 7593D 1   1.00000     0.00000
 Structure written by MMmdl.
 53 55  0  0  0  0  0  0  0  0  1 V2000
  142.2629  146.8981  155.2691 C   0  0  0  0  0  0  0  0  0  0  0  0
  142.8842  145.5216  155.5158 C   0  0  0  0  0  0  0  0  0  0  0  0
  143.8632  145.2765  154.5168 O   0  0  0  0  0  0  0  0  0  0  0  0
  144.4192  143.9676  154.5451 C   0  0  0  0  0  0  0  0  0  0  0  0
  144.9620  143.6104  155.9423 C   0  0  0  0  0  0  0  0  0  0  0  0
  145.7202  142.2729  155.8995 C   0  0  0  0  0  0  0  0  0  0  0  0
  146.8212  142.2747  154.9355 N   0  0  0  0  0  0  0  0  0  0  0  0
  147.5505  141.0056  154.9864 C   0  0  0  0  0  0  0  0  0  0  0  0
  149.0562  141.0882  154.6664 C   0  0  2  0  0  0  0  0  0  0  0  0
  149.1933  141.3922  153.2929 O   0  0  0  0  0  0  0  0  0  0  0  0
  149.8041  139.7749  154.9699 C   0  0  0  0  0  0  0  0  0  0  0  0
  150.2785  139.7200  156.3403 N   0  0  0  0  0  0  0  0  0  0  0  0
  150.3109  138.6471  157.1540 C   0  0  0  0  0  0  0  0  0  0  0  0
  150.7973  138.8278  158.3788 N   0  0  0  0  0  0  0  0  0  0  0  0
  151.1121  140.1762  158.3584 C   0  0  0  0  0  0  0  0  0  0  0  0
  151.6712  141.0040  159.3566 C   0  0  0  0  0  0  0  0  0  0  0  0
  151.9091  142.3755  159.1112 C   0  0  0  0  0  0  0  0  0  0  0  0
  152.5106  143.2291  160.2136 C   0  0  0  0  0  0  0  0  0  0  0  0
  151.5854  142.9388  157.8505 C   0  0  0  0  0  0  0  0  0  0  0  0
  151.8275  144.4105  157.5650 C   0  0  0  0  0  0  0  0  0  0  0  0
  151.0297  142.1254  156.8412 C   0  0  0  0  0  0  0  0  0  0  0  0
  150.7978  140.7629  157.0980 C   0  0  0  0  0  0  0  0  0  0  0  0
  146.3041  142.5713  153.5959 C   0  0  0  0  0  0  0  0  0  0  0  0
  145.5725  143.9223  153.5309 C   0  0  0  0  0  0  0  0  0  0  0  0
  141.4996  147.1196  156.0151 H   0  0  0  0  0  0  0  0  0  0  0  0
  141.7938  146.9457  154.2860 H   0  0  0  0  0  0  0  0  0  0  0  0
  143.0180  147.6832  155.3194 H   0  0  0  0  0  0  0  0  0  0  0  0
  143.3290  145.4946  156.5102 H   0  0  0  0  0  0  0  0  0  0  0  0
  142.1080  144.7560  155.4795 H   0  0  0  0  0  0  0  0  0  0  0  0
  143.6670  143.2369  154.2415 H   0  0  0  0  0  0  0  0  0  0  0  0
  145.6306  144.3984  156.2916 H   0  0  0  0  0  0  0  0  0  0  0  0
  144.1519  143.5430  156.6678 H   0  0  0  0  0  0  0  0  0  0  0  0
  146.1064  142.0589  156.8966 H   0  0  0  0  0  0  0  0  0  0  0  0
  145.0223  141.4686  155.6615 H   0  0  0  0  0  0  0  0  0  0  0  0
  147.4463  140.5763  155.9840 H   0  0  0  0  0  0  0  0  0  0  0  0
  147.0773  140.2945  154.3071 H   0  0  0  0  0  0  0  0  0  0  0  0
  149.5154  141.9107  155.2136 H   0  0  0  0  0  0  0  0  0  0  0  0
  149.4154  140.5974  152.8324 H   0  0  0  0  0  0  0  0  0  0  0  0
  149.1482  138.9183  154.8096 H   0  0  0  0  0  0  0  0  0  0  0  0
  150.6523  139.6477  154.2955 H   0  0  0  0  0  0  0  0  0  0  0  0
  149.9627  137.6780  156.8270 H   0  0  0  0  0  0  0  0  0  0  0  0
  151.9163  140.5748  160.3169 H   0  0  0  0  0  0  0  0  0  0  0  0
  151.8080  144.0039  160.5203 H   0  0  0  0  0  0  0  0  0  0  0  0
  153.4280  143.7082  159.8712 H   0  0  0  0  0  0  0  0  0  0  0  0
  152.7545  142.6315  161.0923 H   0  0  0  0  0  0  0  0  0  0  0  0
  151.4665  144.6876  156.5742 H   0  0  0  0  0  0  0  0  0  0  0  0
  152.8929  144.6370  157.6097 H   0  0  0  0  0  0  0  0  0  0  0  0
  151.3091  145.0329  158.2946 H   0  0  0  0  0  0  0  0  0  0  0  0
  150.7806  142.5394  155.8752 H   0  0  0  0  0  0  0  0  0  0  0  0
  147.1189  142.6008  152.8741 H   0  0  0  0  0  0  0  0  0  0  0  0
  145.6316  141.7753  153.2726 H   0  0  0  0  0  0  0  0  0  0  0  0
  145.1924  144.0932  152.5234 H   0  0  0  0  0  0  0  0  0  0  0  0
  146.2793  144.7273  153.7372 H   0  0  0  0  0  0  0  0  0  0  0  0
  1  2  1  0  0  0  0
  1 25  1  0  0  0  0
  1 26  1  0  0  0  0
  1 27  1  0  0  0  0
  2  3  1  0  0  0  0
  2 28  1  0  0  0  0
  2 29  1  0  0  0  0
  3  4  1  0  0  0  0
  4 24  1  0  0  0  0
  4  5  1  0  0  0  0
  4 30  1  0  0  0  0
  5  6  1  0  0  0  0
  5 31  1  0  0  0  0
  5 32  1  0  0  0  0
  6  7  1  0  0  0  0
  6 33  1  0  0  0  0
  6 34  1  0  0  0  0
  7  8  1  0  0  0  0
  7 23  1  0  0  0  0
  8  9  1  0  0  0  0
  8 35  1  0  0  0  0
  8 36  1  0  0  0  0
  9 10  1  0  0  0  0
  9 11  1  0  0  0  0
  9 37  1  0  0  0  0
 10 38  1  0  0  0  0
 11 12  1  0  0  0  0
 11 39  1  0  0  0  0
 11 40  1  0  0  0  0
 12 22  1  0  0  0  0
 12 13  1  0  0  0  0
 13 14  2  0  0  0  0
 13 41  1  0  0  0  0
 14 15  1  0  0  0  0
 15 22  2  0  0  0  0
 15 16  1  0  0  0  0
 16 17  2  0  0  0  0
 16 42  1  0  0  0  0
 17 18  1  0  0  0  0
 17 19  1  0  0  0  0
 18 43  1  0  0  0  0
 18 44  1  0  0  0  0
 18 45  1  0  0  0  0
 19 20  1  0  0  0  0
 19 21  2  0  0  0  0
 20 46  1  0  0  0  0
 20 47  1  0  0  0  0
 20 48  1  0  0  0  0
 21 22  1  0  0  0  0
 21 49  1  0  0  0  0
 23 24  1  0  0  0  0
 23 50  1  0  0  0  0
 23 51  1  0  0  0  0
 24 52  1  0  0  0  0
 24 53  1  0  0  0  0
M  END
> <s_m_source_file>
AV-unprocessed.smi

> <i_m_source_file_index>
1697

> <i_lp_mmshare_version>
43012

> <i_f3d_flags>
0

> <s_epik_input>
W0NIM11bQ0gyXU9bQ0hdMVtDSDJdW0NIMl1OKFtDSDJdW0NIMl0xKVtDSDJdW0NASF0oW09IXSlbQ0gyXW4oW2NIXW4yKWMoYzIzKVtjSF1jKFtDSDNdKWMoW2NIXTMpW0NIM10=

> <s_epik_cmdline>
J2VwaWtfcHl0aG9uJywgJy1waCcsICc3LjAnLCAnLXRuJywgJzgnLCAnLW1hJywgJzIwMCcsICctbWV0YWxfYmluZGluZycsICctaW1hZScsICc8aW5maWxlLm1hZT4nLCAnLW9tYWUnLCAnPG91dGZpbGUubWFlPic=

> <r_epik_Ionization_Penalty>
1.9836

> <r_epik_Ionization_Penalty_Charging>
0

> <r_epik_Ionization_Penalty_Neutral>
1.9836

> <r_epik_State_Penalty>
2.07269

> <r_epik_Charging_Adjusted_Penalty>
2.07269

> <i_epik_Tot_Q>
0

> <i_epik_Tot_abs_Q>
0

> <r_epik_Metal_State_Penalty>
2.00215

> <b_epik_Metal_Only>
0

> <s_lp_Force_Field>
OPLS_2005

> <r_lp_Energy>
30.2153

> <b_lp_Chiralities_Consistent>
1

> <s_lp_Variant>
AV-unprocessed.smi:1697-9

> <Gold.Version>
5.8.1

> <Gold.Id.Protein>
6NUR|6NUR_protein|mol2

> <Gold.PLP.Fitness>
50.5058

> <Gold.PLP.PLP>
-47.3643

> <Gold.PLP.part.hbond>
-2.7632

> <Gold.PLP.part.metal>
0.0000

> <Gold.PLP.part.buried>
-7.6963

> <Gold.PLP.part.nonpolar>
-36.4954

> <Gold.PLP.part.repulsive>
0.2222

> <Gold.PLP.ligand.clash>
0.0000

> <Gold.PLP.ligand.torsion>
1.1117

> <Gold.PLP.Chemscore.Hbond>
1.7520

> <Gold.PLP.Chemscore.CHOScore>
0.0000

> <Gold.PLP.Chemscore.Metal>
0.0000

> <Gold.Chemscore.Hbonds>
donor molecule, donor type, donor heavy atom, donor atom, acceptor molecule, acceptor atom, score
      L1  H    10    38       P1  7957  0.75
      P1  H  8011  8017       L1    10  0.93

> <Gold.PLP.Chemscore.Internal.Correction>
0.1090

> <Gold.Rescore>
     Score         DG    S(hbond)    S(metal)    S(lipo)     H(rot)  DE(clash)    DE(int)     intcor
     17.88     -19.00       1.29        0.00     126.75       2.19       0.02       1.10       ----

> <Gold.Chemscore.Fitness>
17.8824

> <Gold.Chemscore.DG>
-18.9967

> <Gold.Chemscore.ZeroCoef>
-5.4800

> <Gold.Chemscore.Hbond>
1.2889

> <Gold.Chemscore.Metal>
0.0000

> <Gold.Chemscore.Lipo>
126.7461

> <Gold.Chemscore.Internal_Hbond>
0.0000

> <Gold.Chemscore.DEClash>
0.0170

> <Gold.Chemscore.DEInternal>
1.0974

> <Gold.Chemscore.Rot>
2.1943

> <Gold.Chemscore.Internal.Correction>
   9.000000E+99

> <Gold.Chemscore.Hbonds>
donor molecule, donor type, donor heavy atom, donor atom, acceptor molecule, acceptor atom, score
      L1  H    10    38       P1  7957  0.76
      P1  H  8011  8017       L1    10  0.19

> <Gold.Chemscore.Hbond.Weighted>
-4.3048

> <Gold.Chemscore.Metal.Weighted>
-0.0000

> <Gold.Chemscore.Lipo.Weighted>
-14.8293

> <Gold.Chemscore.Internal_Hbond.Weighted>
0.0000

> <Gold.Chemscore.DEClash.Weighted>
0.0170

> <Gold.Chemscore.DEInternal.Weighted>
1.0974

> <Gold.Chemscore.Rot.Weighted>
5.6174

> <Gold.Chemscore.Internal.Correction.Weighted>
   9.000000E+99

> <Gold.Protein.RotatedTorsions>
[ 6907 6896 6895 6894 ] final  -59.12 input  -60.11 | X-H torsion
[ 7974 7965 7964 7962 ] final  -35.03 input  175.53 | X-H torsion
[ 8008 7997 7996 7995 ] final   58.81 input   59.86 | X-H torsion
[ 10167 10162 10161 10158 ] final  -42.25 input  -65.29 | X-H torsion
[ 10718 10713 10712 10709 ] final   -5.87 input   66.30 | X-H torsion
[ 10763 10752 10751 10750 ] final -117.64 input  -60.55 | X-H torsion
[ 11005 11000 10999 10996 ] final   91.34 input  -57.11 | X-H torsion

> <Gold.Protein.ActiveResidues>
 VAL166  LYS551  ARG553  GLY616  TRP617  ASP618  TYR619  PRO620  LYS621  CYS622 
 ASP623  PHE694  ASN695  SER759  ASP760  ASP761  ALA762  ILE779  LEU786  VAL792 
 PHE793  MET794  SER795  GLU796  ALA797  LYS798  CYS799  TRP800  GLU811  SER814 

> <Gold.Protein.RotatedAtoms>
  150.7954  134.7009  159.6549 H   0  0  0  0  0  0  0  0  0  0  0  0  # atno 6907 bound_to 6896
  152.4066  134.6194  160.0056 H   0  0  0  0  0  0  0  0  0  0  0  0  # atno 6908 bound_to 6896
  151.6449  133.3287  159.3175 H   0  0  0  0  0  0  0  0  0  0  0  0  # atno 6909 bound_to 6896
  146.0780  140.6110  142.8921 H   0  0  0  0  0  0  0  0  0  0  0  0  # atno 7974 bound_to 7965
  155.5560  140.3487  155.4480 H   0  0  0  0  0  0  0  0  0  0  0  0  # atno 8008 bound_to 7997
  156.0548  140.1326  157.0034 H   0  0  0  0  0  0  0  0  0  0  0  0  # atno 8009 bound_to 7997
  154.4451  140.0997  156.6415 H   0  0  0  0  0  0  0  0  0  0  0  0  # atno 8010 bound_to 7997
  140.6975  143.3048  151.3183 H   0  0  0  0  0  0  0  0  0  0  0  0  # atno 10167 bound_to 10162
  156.7403  130.5207  149.5826 H   0  0  0  0  0  0  0  0  0  0  0  0  # atno 10718 bound_to 10713
  154.8561  135.4302  154.2012 H   0  0  0  0  0  0  0  0  0  0  0  0  # atno 10763 bound_to 10752
  153.3058  135.6972  153.7167 H   0  0  0  0  0  0  0  0  0  0  0  0  # atno 10764 bound_to 10752
  153.6279  135.3490  155.3006 H   0  0  0  0  0  0  0  0  0  0  0  0  # atno 10765 bound_to 10752
  139.8840  134.8668  156.3414 H   0  0  0  0  0  0  0  0  0  0  0  0  # atno 11005 bound_to 11000
  144.7274  140.4568  143.6963 LP  0  0  0  0  0  0  0  0  0  0  0  0  # atno 17320 bound_to 7965
  145.6270  139.1531  143.2990 LP  0  0  0  0  0  0  0  0  0  0  0  0  # atno 17321 bound_to 7965
  139.6450  144.0469  152.2583 LP  0  0  0  0  0  0  0  0  0  0  0  0  # atno 17342 bound_to 10162
  139.9986  144.6309  150.7749 LP  0  0  0  0  0  0  0  0  0  0  0  0  # atno 17343 bound_to 10162
  156.1469  130.6283  151.0544 LP  0  0  0  0  0  0  0  0  0  0  0  0  # atno 17370 bound_to 10713
  157.6821  131.0835  150.7341 LP  0  0  0  0  0  0  0  0  0  0  0  0  # atno 17371 bound_to 10713
  140.9656  133.7360  156.0462 LP  0  0  0  0  0  0  0  0  0  0  0  0  # atno 17394 bound_to 11000
  140.7935  134.3590  157.5458 LP  0  0  0  0  0  0  0  0  0  0  0  0  # atno 17395 bound_to 11000

$$$$
