AV-unprocessed.smi:1550|AV-procd|sdf|6229|dock10
  -GOLD-   22720 6403D 1   1.00000     0.00000
 Structure written by MMmdl.
 42 43  0  0  0  0  0  0  0  0  2 V2000
  148.8792  139.9339  155.2244 C   0  0  0  0  0  0  0  0  0  0  0  0
  149.7835  139.8882  156.4649 C   0  0  1  0  0  0  0  0  0  0  0  0
  149.8525  141.2106  156.9925 O   0  0  0  0  0  0  0  0  0  0  0  0
  150.6947  141.3739  158.1284 C   0  0  0  0  0  0  0  0  0  0  0  0
  150.7697  142.8666  158.4731 C   0  0  2  0  0  0  0  0  0  0  0  0
  152.0692  143.5120  157.9533 C   0  0  0  0  0  0  0  0  0  0  0  0
  152.1573  144.9778  158.3940 C   0  0  0  0  0  0  0  0  0  0  0  0
  151.9777  145.0712  159.9128 C   0  0  0  0  0  0  0  0  0  0  0  0
  150.6957  144.3420  160.3443 C   0  0  0  0  0  0  0  0  0  0  0  0
  150.7319  142.9916  159.8936 O   0  0  0  0  0  0  0  0  0  0  0  0
  149.2308  138.9206  157.5239 C   0  0  0  0  0  0  0  0  0  0  0  0
  148.5444  139.3606  158.4463 O   0  0  0  0  0  0  0  0  0  0  0  0
  149.5557  137.6249  157.3488 N   0  0  0  0  0  0  0  0  0  0  0  0
  149.2770  136.5211  158.1716 C   0  0  0  0  0  0  0  0  0  0  0  0
  148.8119  136.6082  159.4485 C   0  0  0  0  0  0  0  0  0  0  0  0
  148.5636  135.4285  160.2683 C   0  0  0  0  0  0  0  0  0  0  0  0
  148.0458  135.4698  161.6943 C   0  0  0  0  0  0  0  0  0  0  0  0
  148.9192  136.0946  162.4834 F   0  0  0  0  0  0  0  0  0  0  0  0
  146.8929  136.1361  161.7469 F   0  0  0  0  0  0  0  0  0  0  0  0
  147.8455  134.2431  162.1762 F   0  0  0  0  0  0  0  0  0  0  0  0
  148.8655  134.2553  159.6061 C   0  0  0  0  0  0  0  0  0  0  0  0
  149.3367  134.0830  158.3516 N   0  5  0  0  0  0  0  0  0  0  0  0
  149.5631  135.1921  157.5922 C   0  0  0  0  0  0  0  0  0  0  0  0
  149.9981  135.1088  156.4430 O   0  0  0  0  0  0  0  0  0  0  0  0
  148.7718  138.9456  154.7760 H   0  0  0  0  0  0  0  0  0  0  0  0
  149.2979  140.5953  154.4658 H   0  0  0  0  0  0  0  0  0  0  0  0
  147.8819  140.3030  155.4673 H   0  0  0  0  0  0  0  0  0  0  0  0
  150.7806  139.5713  156.1521 H   0  0  0  0  0  0  0  0  0  0  0  0
  150.3350  140.8119  158.9911 H   0  0  0  0  0  0  0  0  0  0  0  0
  151.6898  140.9982  157.8855 H   0  0  0  0  0  0  0  0  0  0  0  0
  149.9102  143.3769  158.0344 H   0  0  0  0  0  0  0  0  0  0  0  0
  152.9306  142.9642  158.3380 H   0  0  0  0  0  0  0  0  0  0  0  0
  152.1176  143.4465  156.8659 H   0  0  0  0  0  0  0  0  0  0  0  0
  153.1131  145.4092  158.0959 H   0  0  0  0  0  0  0  0  0  0  0  0
  151.3808  145.5587  157.8950 H   0  0  0  0  0  0  0  0  0  0  0  0
  152.8369  144.6210  160.4118 H   0  0  0  0  0  0  0  0  0  0  0  0
  151.9439  146.1149  160.2262 H   0  0  0  0  0  0  0  0  0  0  0  0
  150.6093  144.3477  161.4311 H   0  0  0  0  0  0  0  0  0  0  0  0
  149.8099  144.8441  159.9522 H   0  0  0  0  0  0  0  0  0  0  0  0
  150.0455  137.3958  156.4962 H   0  0  0  0  0  0  0  0  0  0  0  0
  148.6356  137.5693  159.9034 H   0  0  0  0  0  0  0  0  0  0  0  0
  148.7059  133.3137  160.1737 H   0  0  0  0  0  0  0  0  0  0  0  0
  1  2  1  0  0  0  0
  1 25  1  0  0  0  0
  1 26  1  0  0  0  0
  1 27  1  0  0  0  0
  2  3  1  0  0  0  0
  2 11  1  0  0  0  0
  2 28  1  0  0  0  0
  3  4  1  0  0  0  0
  4  5  1  0  0  0  0
  4 29  1  0  0  0  0
  4 30  1  0  0  0  0
  5 10  1  0  0  0  0
  5  6  1  0  0  0  0
  5 31  1  0  0  0  0
  6  7  1  0  0  0  0
  6 32  1  0  0  0  0
  6 33  1  0  0  0  0
  7  8  1  0  0  0  0
  7 34  1  0  0  0  0
  7 35  1  0  0  0  0
  8  9  1  0  0  0  0
  8 36  1  0  0  0  0
  8 37  1  0  0  0  0
  9 10  1  0  0  0  0
  9 38  1  0  0  0  0
  9 39  1  0  0  0  0
 11 12  2  0  0  0  0
 11 13  1  0  0  0  0
 13 14  1  0  0  0  0
 13 40  1  0  0  0  0
 14 23  1  0  0  0  0
 14 15  2  0  0  0  0
 15 16  1  0  0  0  0
 15 41  1  0  0  0  0
 16 17  1  0  0  0  0
 16 21  2  0  0  0  0
 17 18  1  0  0  0  0
 17 19  1  0  0  0  0
 17 20  1  0  0  0  0
 21 22  1  0  0  0  0
 21 42  1  0  0  0  0
 22 23  1  0  0  0  0
 23 24  2  0  0  0  0
M  CHG  1  22  -1
M  END
> <s_m_source_file>
AV-unprocessed.smi

> <i_m_source_file_index>
1550

> <i_lp_mmshare_version>
43012

> <i_f3d_flags>
0

> <s_epik_input>
TzFbQ0gyXVtDSDJdW0NIMl1bQ0gyXVtDQEhdMVtDSDJdT1tDQEBIXShbQ0gzXSlDKD1PKVtOSF1jMltjSF1jKEMoRikoRilGKVtjSF1bbkhdYzI9Tw==

> <s_epik_cmdline>
J2VwaWtfcHl0aG9uJywgJy1waCcsICc3LjAnLCAnLXRuJywgJzgnLCAnLW1hJywgJzIwMCcsICctbWV0YWxfYmluZGluZycsICctaW1hZScsICc8aW5maWxlLm1hZT4nLCAnLW9tYWUnLCAnPG91dGZpbGUubWFlPic=

> <r_epik_Ionization_Penalty>
2.54933

> <r_epik_Ionization_Penalty_Charging>
0.0583423

> <r_epik_Ionization_Penalty_Neutral>
2.49099

> <r_epik_State_Penalty>
2.65532

> <r_epik_Charging_Adjusted_Penalty>
2.71366

> <i_epik_Tot_Q>
-1

> <i_epik_Tot_abs_Q>
1

> <r_epik_Metal_State_Penalty>
0.516364

> <b_epik_Metal_Only>
0

> <s_lp_Force_Field>
OPLS_2005

> <r_lp_Energy>
27.7266

> <b_lp_Chiralities_Consistent>
1

> <s_lp_Variant>
AV-unprocessed.smi:1550-6

> <Gold.Version>
5.8.1

> <Gold.Id.Protein>
6NUR|6NUR_protein|mol2

> <Gold.PLP.Fitness>
44.6482

> <Gold.PLP.PLP>
-41.8246

> <Gold.PLP.part.hbond>
-3.0000

> <Gold.PLP.part.metal>
0.0000

> <Gold.PLP.part.buried>
-4.2174

> <Gold.PLP.part.nonpolar>
-34.5625

> <Gold.PLP.part.repulsive>
0.1755

> <Gold.PLP.ligand.clash>
0.0000

> <Gold.PLP.ligand.torsion>
1.3094

> <Gold.PLP.Chemscore.Hbond>
1.8000

> <Gold.PLP.Chemscore.CHOScore>
0.0000

> <Gold.PLP.Chemscore.Metal>
0.0000

> <Gold.PLP.Chemscore.Internal.Correction>
0.0423

> <Gold.Rescore>
     Score         DG    S(hbond)    S(metal)    S(lipo)     H(rot)  DE(clash)    DE(int)     intcor
      9.58     -12.04       0.01        0.00      95.61       1.82       0.06       2.40       ----

> <Gold.Chemscore.Fitness>
9.5832

> <Gold.Chemscore.DG>
-12.0373

> <Gold.Chemscore.ZeroCoef>
-5.4800

> <Gold.Chemscore.Hbond>
0.0119

> <Gold.Chemscore.Metal>
0.0000

> <Gold.Chemscore.Lipo>
95.6062

> <Gold.Chemscore.Internal_Hbond>
0.0000

> <Gold.Chemscore.DEClash>
0.0589

> <Gold.Chemscore.DEInternal>
2.3952

> <Gold.Chemscore.Rot>
1.8236

> <Gold.Chemscore.Internal.Correction>
   9.000000E+99

> <Gold.Chemscore.Hbond.Weighted>
-0.0398

> <Gold.Chemscore.Metal.Weighted>
-0.0000

> <Gold.Chemscore.Lipo.Weighted>
-11.1859

> <Gold.Chemscore.Internal_Hbond.Weighted>
0.0000

> <Gold.Chemscore.DEClash.Weighted>
0.0589

> <Gold.Chemscore.DEInternal.Weighted>
2.3952

> <Gold.Chemscore.Rot.Weighted>
4.6684

> <Gold.Chemscore.Internal.Correction.Weighted>
   9.000000E+99

> <Gold.Protein.RotatedTorsions>
[ 6907 6896 6895 6894 ] final    8.45 input  -60.11 | X-H torsion
[ 7974 7965 7964 7962 ] final -113.64 input  175.53 | X-H torsion
[ 8008 7997 7996 7995 ] final  -32.44 input   59.86 | X-H torsion
[ 10167 10162 10161 10158 ] final    0.25 input  -65.29 | X-H torsion
[ 10718 10713 10712 10709 ] final  -37.78 input   66.30 | X-H torsion
[ 10763 10752 10751 10750 ] final  136.87 input  -60.55 | X-H torsion
[ 11005 11000 10999 10996 ] final  -15.03 input  -57.11 | X-H torsion

> <Gold.Protein.ActiveResidues>
 VAL166  LYS551  ARG553  GLY616  TRP617  ASP618  TYR619  PRO620  LYS621  CYS622 
 ASP623  PHE694  ASN695  SER759  ASP760  ASP761  ALA762  ILE779  LEU786  VAL792 
 PHE793  MET794  SER795  GLU796  ALA797  LYS798  CYS799  TRP800  GLU811  SER814 

> <Gold.Protein.RotatedAtoms>
  151.7063  135.0921  160.0259 H   0  0  0  0  0  0  0  0  0  0  0  0  # atno 6907 bound_to 6896
  152.3689  133.6389  159.6080 H   0  0  0  0  0  0  0  0  0  0  0  0  # atno 6908 bound_to 6896
  150.7659  133.9218  159.3442 H   0  0  0  0  0  0  0  0  0  0  0  0  # atno 6909 bound_to 6896
  145.1296  140.8716  143.3766 H   0  0  0  0  0  0  0  0  0  0  0  0  # atno 7974 bound_to 7965
  154.4180  140.1737  156.1728 H   0  0  0  0  0  0  0  0  0  0  0  0  # atno 8008 bound_to 7997
  155.9746  140.3383  155.6583 H   0  0  0  0  0  0  0  0  0  0  0  0  # atno 8009 bound_to 7997
  155.6580  140.0698  157.2554 H   0  0  0  0  0  0  0  0  0  0  0  0  # atno 8010 bound_to 7997
  140.6737  143.6977  150.7976 H   0  0  0  0  0  0  0  0  0  0  0  0  # atno 10167 bound_to 10162
  156.3113  130.4253  149.8048 H   0  0  0  0  0  0  0  0  0  0  0  0  # atno 10718 bound_to 10713
  153.8637  135.3064  155.3439 H   0  0  0  0  0  0  0  0  0  0  0  0  # atno 10763 bound_to 10752
  154.7837  135.4821  153.9902 H   0  0  0  0  0  0  0  0  0  0  0  0  # atno 10764 bound_to 10752
  153.1446  135.6831  153.9069 H   0  0  0  0  0  0  0  0  0  0  0  0  # atno 10765 bound_to 10752
  140.7924  133.8277  155.9392 H   0  0  0  0  0  0  0  0  0  0  0  0  # atno 11005 bound_to 11000
  145.0650  139.3075  143.5861 LP  0  0  0  0  0  0  0  0  0  0  0  0  # atno 17320 bound_to 7965
  146.3515  140.0106  142.8667 LP  0  0  0  0  0  0  0  0  0  0  0  0  # atno 17321 bound_to 7965
  140.0667  143.5101  152.2601 LP  0  0  0  0  0  0  0  0  0  0  0  0  # atno 17342 bound_to 10162
  139.6018  144.7584  151.3155 LP  0  0  0  0  0  0  0  0  0  0  0  0  # atno 17343 bound_to 10162
  156.5390  130.8291  151.3262 LP  0  0  0  0  0  0  0  0  0  0  0  0  # atno 17370 bound_to 10713
  157.7391  130.9826  150.2295 LP  0  0  0  0  0  0  0  0  0  0  0  0  # atno 17371 bound_to 10713
  140.9376  134.1942  157.4820 LP  0  0  0  0  0  0  0  0  0  0  0  0  # atno 17394 bound_to 11000
  139.8730  134.9858  156.5299 LP  0  0  0  0  0  0  0  0  0  0  0  0  # atno 17395 bound_to 11000

$$$$
