AV-unprocessed.smi:3290|AV-procd|sdf|12614|dock5
  -GOLD-   2272018543D 1   1.00000     0.00000
 Structure written by MMmdl.
 43 44  0  0  0  0  0  0  0  0  2 V2000
  151.4780  145.5793  160.0950 C   0  0  0  0  0  0  0  0  0  0  0  0
  152.3370  144.3030  160.0443 C   0  0  1  0  0  0  0  0  0  0  0  0
  152.3467  143.6357  161.4362 C   0  0  0  0  0  0  0  0  0  0  0  0
  153.2265  142.3791  161.4691 C   0  0  0  0  0  0  0  0  0  0  0  0
  152.7826  141.3769  160.3982 C   0  0  0  0  0  0  0  0  0  0  0  0
  152.7833  142.0274  159.0081 C   0  0  0  0  0  0  0  0  0  0  0  0
  151.8916  143.2880  158.9499 C   0  0  2  0  0  0  0  0  0  0  0  0
  151.9179  143.8673  157.5169 C   0  0  0  0  0  0  0  0  0  0  0  0
  150.9263  143.2196  156.6348 N   0  3  0  0  0  0  0  0  0  0  0  0
  150.1642  142.1306  157.2782 C   0  0  0  0  0  0  0  0  0  0  0  0
  149.3475  141.3284  156.2500 C   0  0  2  0  0  0  0  0  0  0  0  0
  148.1965  140.8077  156.8866 O   0  0  0  0  0  0  0  0  0  0  0  0
  150.1877  140.2289  155.6198 C   0  0  0  0  0  0  0  0  0  0  0  0
  151.5413  140.0479  155.9784 C   0  0  0  0  0  0  0  0  0  0  0  0
  152.2713  139.0156  155.3562 C   0  0  0  0  0  0  0  0  0  0  0  0
  151.7420  138.1885  154.4296 N   0  0  0  0  0  0  0  0  0  0  0  0
  150.4482  138.3674  154.0884 C   0  0  0  0  0  0  0  0  0  0  0  0
  149.6308  139.3691  154.6499 C   0  0  0  0  0  0  0  0  0  0  0  0
  150.4198  145.3423  160.2091 H   0  0  0  0  0  0  0  0  0  0  0  0
  151.5981  146.1840  159.1967 H   0  0  0  0  0  0  0  0  0  0  0  0
  151.7665  146.2108  160.9359 H   0  0  0  0  0  0  0  0  0  0  0  0
  153.3603  144.6110  159.8234 H   0  0  0  0  0  0  0  0  0  0  0  0
  152.7051  144.3410  162.1870 H   0  0  0  0  0  0  0  0  0  0  0  0
  151.3283  143.3720  161.7253 H   0  0  0  0  0  0  0  0  0  0  0  0
  154.2691  142.6548  161.3060 H   0  0  0  0  0  0  0  0  0  0  0  0
  153.1784  141.9164  162.4553 H   0  0  0  0  0  0  0  0  0  0  0  0
  153.4431  140.5093  160.4040 H   0  0  0  0  0  0  0  0  0  0  0  0
  151.7831  141.0073  160.6312 H   0  0  0  0  0  0  0  0  0  0  0  0
  153.8061  142.2860  158.7298 H   0  0  0  0  0  0  0  0  0  0  0  0
  152.4427  141.2938  158.2763 H   0  0  0  0  0  0  0  0  0  0  0  0
  150.8716  142.9669  159.1693 H   0  0  0  0  0  0  0  0  0  0  0  0
  151.7577  144.9462  157.5375 H   0  0  0  0  0  0  0  0  0  0  0  0
  152.8991  143.7055  157.0682 H   0  0  0  0  0  0  0  0  0  0  0  0
  150.2701  143.9201  156.3194 H   0  0  0  0  0  0  0  0  0  0  0  0
  150.8675  141.4678  157.7848 H   0  0  0  0  0  0  0  0  0  0  0  0
  149.5084  142.5469  158.0448 H   0  0  0  0  0  0  0  0  0  0  0  0
  149.0065  141.9984  155.4593 H   0  0  0  0  0  0  0  0  0  0  0  0
  147.5194  141.4677  156.8672 H   0  0  0  0  0  0  0  0  0  0  0  0
  152.0144  140.6837  156.7126 H   0  0  0  0  0  0  0  0  0  0  0  0
  153.3082  138.8509  155.6091 H   0  0  0  0  0  0  0  0  0  0  0  0
  150.0516  137.6927  153.3442 H   0  0  0  0  0  0  0  0  0  0  0  0
  148.6011  139.4690  154.3394 H   0  0  0  0  0  0  0  0  0  0  0  0
  151.4082  142.8446  155.8306 H   0  0  0  0  0  0  0  0  0  0  0  0
  1  2  1  0  0  0  0
  1 19  1  0  0  0  0
  1 20  1  0  0  0  0
  1 21  1  0  0  0  0
  2  7  1  0  0  0  0
  2  3  1  0  0  0  0
  2 22  1  0  0  0  0
  3  4  1  0  0  0  0
  3 23  1  0  0  0  0
  3 24  1  0  0  0  0
  4  5  1  0  0  0  0
  4 25  1  0  0  0  0
  4 26  1  0  0  0  0
  5  6  1  0  0  0  0
  5 27  1  0  0  0  0
  5 28  1  0  0  0  0
  6  7  1  0  0  0  0
  6 29  1  0  0  0  0
  6 30  1  0  0  0  0
  7  8  1  0  0  0  0
  7 31  1  0  0  0  0
  8  9  1  0  0  0  0
  8 32  1  0  0  0  0
  8 33  1  0  0  0  0
  9 10  1  0  0  0  0
  9 34  1  0  0  0  0
  9 43  1  0  0  0  0
 10 11  1  0  0  0  0
 10 35  1  0  0  0  0
 10 36  1  0  0  0  0
 11 12  1  0  0  0  0
 11 13  1  0  0  0  0
 11 37  1  0  0  0  0
 12 38  1  0  0  0  0
 13 18  1  0  0  0  0
 13 14  2  0  0  0  0
 14 15  1  0  0  0  0
 14 39  1  0  0  0  0
 15 16  2  0  0  0  0
 15 40  1  0  0  0  0
 16 17  1  0  0  0  0
 17 18  2  0  0  0  0
 17 41  1  0  0  0  0
 18 42  1  0  0  0  0
M  CHG  1   9   1
M  END
> <s_m_source_file>
AV-unprocessed.smi

> <i_m_source_file_index>
3290

> <i_lp_mmshare_version>
43012

> <i_f3d_flags>
0

> <s_epik_input>
W0NIM11bQ0BASF0xW0NIMl1bQ0gyXVtDSDJdW0NIMl1bQ0BIXTFbQ0gyXVtOSF1bQ0gyXVtDQEhdKFtPSF0pYzJbY0hdW2NIXW5bY0hdW2NIXTI=

> <s_epik_cmdline>
J2VwaWtfcHl0aG9uJywgJy1waCcsICc3LjAnLCAnLXRuJywgJzgnLCAnLW1hJywgJzIwMCcsICctbWV0YWxfYmluZGluZycsICctaW1hZScsICc8aW5maWxlLm1hZT4nLCAnLW9tYWUnLCAnPG91dGZpbGUubWFlPic=

> <r_lp_tautomer_probability>
1

> <r_epik_Ionization_Penalty>
0.00420552

> <r_epik_Ionization_Penalty_Charging>
0.00207255

> <r_epik_Ionization_Penalty_Neutral>
0.00213297

> <r_epik_State_Penalty>
-0

> <r_epik_Charging_Adjusted_Penalty>
0.00207255

> <i_epik_Tot_Q>
1

> <i_epik_Tot_abs_Q>
1

> <r_epik_Metal_State_Penalty>
-0

> <b_epik_Metal_Only>
0

> <s_lp_Force_Field>
OPLS_2005

> <r_lp_Energy>
17.7323

> <b_lp_Chiralities_Consistent>
1

> <s_lp_Variant>
AV-unprocessed.smi:3290-4

> <Gold.Version>
5.8.1

> <Gold.Id.Protein>
6NUR|6NUR_protein|mol2

> <Gold.PLP.Fitness>
52.4128

> <Gold.PLP.PLP>
-48.0310

> <Gold.PLP.part.hbond>
-1.0000

> <Gold.PLP.part.metal>
0.0000

> <Gold.PLP.part.buried>
-5.7973

> <Gold.PLP.part.nonpolar>
-42.1831

> <Gold.PLP.part.repulsive>
0.1748

> <Gold.PLP.ligand.clash>
2.9392

> <Gold.PLP.ligand.torsion>
1.0474

> <Gold.PLP.Chemscore.Hbond>
2.0000

> <Gold.PLP.Chemscore.CHOScore>
1.1163

> <Gold.PLP.Chemscore.Metal>
0.0000

> <Gold.Chemscore.Hbonds>
donor molecule, donor type, donor heavy atom, donor atom, acceptor molecule, acceptor atom, score
      L1  H     9    34       P1  8028  2.00
      L1  C    17    41       P1  7948  1.00
      L1  C    17    41       P1  7949  0.04

> <Gold.PLP.Chemscore.Internal.Correction>
0.0667

> <Gold.Rescore>
     Score         DG    S(hbond)    S(metal)    S(lipo)     H(rot)  DE(clash)    DE(int)     intcor
     19.00     -19.99       1.00        0.00     140.34       2.05       0.03       0.96       ----

> <Gold.Chemscore.Fitness>
18.9991

> <Gold.Chemscore.DG>
-19.9870

> <Gold.Chemscore.ZeroCoef>
-5.4800

> <Gold.Chemscore.Hbond>
0.9983

> <Gold.Chemscore.Metal>
0.0000

> <Gold.Chemscore.Lipo>
140.3449

> <Gold.Chemscore.Internal_Hbond>
0.0000

> <Gold.Chemscore.DEClash>
0.0310

> <Gold.Chemscore.DEInternal>
0.9570

> <Gold.Chemscore.Rot>
2.0498

> <Gold.Chemscore.Internal.Correction>
   9.000000E+99

> <Gold.Chemscore.Hbonds>
donor molecule, donor type, donor heavy atom, donor atom, acceptor molecule, acceptor atom, score
      L1  H     9    34       P1  8028  1.00

> <Gold.Chemscore.Hbond.Weighted>
-3.3342

> <Gold.Chemscore.Metal.Weighted>
-0.0000

> <Gold.Chemscore.Lipo.Weighted>
-16.4204

> <Gold.Chemscore.Internal_Hbond.Weighted>
0.0000

> <Gold.Chemscore.DEClash.Weighted>
0.0310

> <Gold.Chemscore.DEInternal.Weighted>
0.9570

> <Gold.Chemscore.Rot.Weighted>
5.2475

> <Gold.Chemscore.Internal.Correction.Weighted>
   9.000000E+99

> <Gold.Protein.RotatedTorsions>
[ 6907 6896 6895 6894 ] final  -43.29 input  -60.11 | X-H torsion
[ 7974 7965 7964 7962 ] final -145.14 input  175.53 | X-H torsion
[ 8008 7997 7996 7995 ] final  -39.58 input   59.86 | X-H torsion
[ 10167 10162 10161 10158 ] final   73.03 input  -65.29 | X-H torsion
[ 10718 10713 10712 10709 ] final   27.16 input   66.30 | X-H torsion
[ 10763 10752 10751 10750 ] final  -97.15 input  -60.55 | X-H torsion
[ 11005 11000 10999 10996 ] final  -45.02 input  -57.11 | X-H torsion

> <Gold.Protein.ActiveResidues>
 VAL166  LYS551  ARG553  GLY616  TRP617  ASP618  TYR619  PRO620  LYS621  CYS622 
 ASP623  PHE694  ASN695  SER759  ASP760  ASP761  ALA762  ILE779  LEU786  VAL792 
 PHE793  MET794  SER795  GLU796  ALA797  LYS798  CYS799  TRP800  GLU811  SER814 

> <Gold.Protein.RotatedAtoms>
  150.9456  134.8861  159.7639 H   0  0  0  0  0  0  0  0  0  0  0  0  # atno 6907 bound_to 6896
  152.5098  134.3879  159.9384 H   0  0  0  0  0  0  0  0  0  0  0  0  # atno 6908 bound_to 6896
  151.3898  133.3752  159.2754 H   0  0  0  0  0  0  0  0  0  0  0  0  # atno 6909 bound_to 6896
  144.8248  140.5621  143.5554 H   0  0  0  0  0  0  0  0  0  0  0  0  # atno 7974 bound_to 7965
  154.4021  140.1548  156.2887 H   0  0  0  0  0  0  0  0  0  0  0  0  # atno 8008 bound_to 7997
  155.8805  140.3444  155.5862 H   0  0  0  0  0  0  0  0  0  0  0  0  # atno 8009 bound_to 7997
  155.7672  140.0825  157.2116 H   0  0  0  0  0  0  0  0  0  0  0  0  # atno 8010 bound_to 7997
  140.0288  144.5482  150.7523 H   0  0  0  0  0  0  0  0  0  0  0  0  # atno 10167 bound_to 10162
  157.2164  130.6958  149.6251 H   0  0  0  0  0  0  0  0  0  0  0  0  # atno 10718 bound_to 10713
  154.7303  135.5057  153.8953 H   0  0  0  0  0  0  0  0  0  0  0  0  # atno 10763 bound_to 10752
  153.0943  135.6668  153.9801 H   0  0  0  0  0  0  0  0  0  0  0  0  # atno 10764 bound_to 10752
  153.9604  135.3048  155.3413 H   0  0  0  0  0  0  0  0  0  0  0  0  # atno 10765 bound_to 10752
  141.0488  133.6751  156.2954 H   0  0  0  0  0  0  0  0  0  0  0  0  # atno 11005 bound_to 11000
  145.5025  139.1482  143.3649 LP  0  0  0  0  0  0  0  0  0  0  0  0  # atno 17320 bound_to 7965
  146.2553  140.5165  142.8876 LP  0  0  0  0  0  0  0  0  0  0  0  0  # atno 17321 bound_to 7965
  140.7311  143.2690  151.3949 LP  0  0  0  0  0  0  0  0  0  0  0  0  # atno 17342 bound_to 10162
  139.6090  144.1138  152.2279 LP  0  0  0  0  0  0  0  0  0  0  0  0  # atno 17343 bound_to 10162
  155.9686  130.4534  150.5811 LP  0  0  0  0  0  0  0  0  0  0  0  0  # atno 17370 bound_to 10713
  157.3620  131.0751  151.1629 LP  0  0  0  0  0  0  0  0  0  0  0  0  # atno 17371 bound_to 10713
  140.6095  134.5473  157.5531 LP  0  0  0  0  0  0  0  0  0  0  0  0  # atno 17394 bound_to 11000
  139.9333  134.7922  156.0870 LP  0  0  0  0  0  0  0  0  0  0  0  0  # atno 17395 bound_to 11000

$$$$
