AV-unprocessed.smi:1795|AV-procd|sdf|7250|dock3
  -GOLD-   22720 8503D 1   1.00000     0.00000
 Structure written by MMmdl.
 48 49  0  0  0  0  0  0  0  0  2 V2000
  141.6825  134.5370  153.2001 C   0  0  0  0  0  0  0  0  0  0  0  0
  142.9805  135.2116  152.7212 C   0  0  1  0  0  0  0  0  0  0  0  0
  144.0522  135.3376  153.8199 C   0  0  0  0  0  0  0  0  0  0  0  0
  144.6670  134.0215  154.1419 N   0  3  2  0  0  0  0  0  0  0  0  0
  145.6132  134.1021  155.3030 C   0  0  1  0  0  0  0  0  0  0  0  0
  146.0503  132.6773  155.7121 C   0  0  0  0  0  0  0  0  0  0  0  0
  146.8484  135.0110  155.0485 C   0  0  0  0  0  0  0  0  0  0  0  0
  147.6625  135.2082  156.2450 N   0  0  0  0  0  0  0  0  0  0  0  0
  147.2369  135.7476  157.3979 C   0  0  0  0  0  0  0  0  0  0  0  0
  146.0788  136.1238  157.5816 O   0  0  0  0  0  0  0  0  0  0  0  0
  148.2835  135.8735  158.5130 C   0  0  0  0  0  0  0  0  0  0  0  0
  147.7660  135.4618  159.8282 N   0  0  0  0  0  0  0  0  0  0  0  0
  147.5483  134.0846  160.0331 C   0  0  0  0  0  0  0  0  0  0  0  0
  147.0791  133.6057  161.1960 C   0  0  0  0  0  0  0  0  0  0  0  0
  146.7964  134.5436  162.2565 C   0  0  0  0  0  0  0  0  0  0  0  0
  146.9972  135.8633  162.0698 C   0  0  0  0  0  0  0  0  0  0  0  0
  147.5059  136.3919  160.7989 C   0  0  0  0  0  0  0  0  0  0  0  0
  147.6864  137.5966  160.6168 O   0  0  0  0  0  0  0  0  0  0  0  0
  145.2034  133.4116  152.8955 C   0  0  0  0  0  0  0  0  0  0  0  0
  144.1043  133.2954  151.8226 C   0  0  2  0  0  0  0  0  0  0  0  0
  144.6526  132.7583  150.4958 C   0  0  0  0  0  0  0  0  0  0  0  0
  143.5353  134.5757  151.5725 O   0  0  0  0  0  0  0  0  0  0  0  0
  141.2072  135.1277  153.9834 H   0  0  0  0  0  0  0  0  0  0  0  0
  141.8574  133.5419  153.6081 H   0  0  0  0  0  0  0  0  0  0  0  0
  140.9687  134.4428  152.3813 H   0  0  0  0  0  0  0  0  0  0  0  0
  142.7116  136.2197  152.4041 H   0  0  0  0  0  0  0  0  0  0  0  0
  144.8350  136.0190  153.4819 H   0  0  0  0  0  0  0  0  0  0  0  0
  143.6058  135.7971  154.7003 H   0  0  0  0  0  0  0  0  0  0  0  0
  145.0694  134.5435  156.1400 H   0  0  0  0  0  0  0  0  0  0  0  0
  146.6432  132.6831  156.6263 H   0  0  0  0  0  0  0  0  0  0  0  0
  146.6534  132.2137  154.9309 H   0  0  0  0  0  0  0  0  0  0  0  0
  145.2070  132.0179  155.9082 H   0  0  0  0  0  0  0  0  0  0  0  0
  147.4520  134.6147  154.2299 H   0  0  0  0  0  0  0  0  0  0  0  0
  146.5322  136.0097  154.7474 H   0  0  0  0  0  0  0  0  0  0  0  0
  148.6298  134.9228  156.1888 H   0  0  0  0  0  0  0  0  0  0  0  0
  149.1501  135.2740  158.2321 H   0  0  0  0  0  0  0  0  0  0  0  0
  148.6507  136.9003  158.5654 H   0  0  0  0  0  0  0  0  0  0  0  0
  147.7786  133.4503  159.1895 H   0  0  0  0  0  0  0  0  0  0  0  0
  146.9142  132.5471  161.3338 H   0  0  0  0  0  0  0  0  0  0  0  0
  146.4213  134.1853  163.2038 H   0  0  0  0  0  0  0  0  0  0  0  0
  146.7799  136.5502  162.8745 H   0  0  0  0  0  0  0  0  0  0  0  0
  146.0385  134.0091  152.5258 H   0  0  0  0  0  0  0  0  0  0  0  0
  145.5765  132.4056  153.0836 H   0  0  0  0  0  0  0  0  0  0  0  0
  143.3296  132.6100  152.1666 H   0  0  0  0  0  0  0  0  0  0  0  0
  145.0875  131.7666  150.6222 H   0  0  0  0  0  0  0  0  0  0  0  0
  145.4251  133.4137  150.0926 H   0  0  0  0  0  0  0  0  0  0  0  0
  143.8608  132.6796  149.7504 H   0  0  0  0  0  0  0  0  0  0  0  0
  143.9181  133.4124  154.4395 H   0  0  0  0  0  0  0  0  0  0  0  0
  1  2  1  0  0  0  0
  1 23  1  0  0  0  0
  1 24  1  0  0  0  0
  1 25  1  0  0  0  0
  2 22  1  0  0  0  0
  2  3  1  0  0  0  0
  2 26  1  0  0  0  0
  3  4  1  0  0  0  0
  3 27  1  0  0  0  0
  3 28  1  0  0  0  0
  4  5  1  0  0  0  0
  4 19  1  0  0  0  0
  4 48  1  0  0  0  0
  5  6  1  0  0  0  0
  5  7  1  0  0  0  0
  5 29  1  0  0  0  0
  6 30  1  0  0  0  0
  6 31  1  0  0  0  0
  6 32  1  0  0  0  0
  7  8  1  0  0  0  0
  7 33  1  0  0  0  0
  7 34  1  0  0  0  0
  8  9  1  0  0  0  0
  8 35  1  0  0  0  0
  9 10  2  0  0  0  0
  9 11  1  0  0  0  0
 11 12  1  0  0  0  0
 11 36  1  0  0  0  0
 11 37  1  0  0  0  0
 12 17  1  0  0  0  0
 12 13  1  0  0  0  0
 13 14  2  0  0  0  0
 13 38  1  0  0  0  0
 14 15  1  0  0  0  0
 14 39  1  0  0  0  0
 15 16  2  0  0  0  0
 15 40  1  0  0  0  0
 16 17  1  0  0  0  0
 16 41  1  0  0  0  0
 17 18  2  0  0  0  0
 19 20  1  0  0  0  0
 19 42  1  0  0  0  0
 19 43  1  0  0  0  0
 20 21  1  0  0  0  0
 20 22  1  0  0  0  0
 20 44  1  0  0  0  0
 21 45  1  0  0  0  0
 21 46  1  0  0  0  0
 21 47  1  0  0  0  0
M  CHG  1   4   1
M  END
> <s_m_source_file>
AV-unprocessed.smi

> <i_m_source_file_index>
1795

> <i_lp_mmshare_version>
43012

> <i_f3d_flags>
0

> <s_epik_input>
W0NIM11bQ0BASF0xW0NIMl1OKFtDSDJdW0NASF0oTzEpW0NIM10pW0NASF0oW0NIM10pW0NIMl1bTkhdQyg9TylbQ0gyXW4yW2NIXVtjSF1bY0hdW2NIXWMyPU8=

> <s_epik_cmdline>
J2VwaWtfcHl0aG9uJywgJy1waCcsICc3LjAnLCAnLXRuJywgJzgnLCAnLW1hJywgJzIwMCcsICctbWV0YWxfYmluZGluZycsICctaW1hZScsICc8aW5maWxlLm1hZT4nLCAnLW9tYWUnLCAnPG91dGZpbGUubWFlPic=

> <r_lp_tautomer_probability>
1

> <r_epik_Ionization_Penalty>
0.656654

> <r_epik_Ionization_Penalty_Charging>
0.656654

> <r_epik_Ionization_Penalty_Neutral>
8.90321e-08

> <r_epik_State_Penalty>
0.675641

> <r_epik_Charging_Adjusted_Penalty>
1.33229

> <i_epik_Tot_Q>
1

> <i_epik_Tot_abs_Q>
1

> <r_epik_Metal_State_Penalty>
0.675691

> <b_epik_Metal_Only>
0

> <s_lp_Force_Field>
OPLS_2005

> <r_lp_Energy>
30.8259

> <b_lp_Chiralities_Consistent>
1

> <s_lp_Variant>
AV-unprocessed.smi:1795-14

> <Gold.Version>
5.8.1

> <Gold.Id.Protein>
6NUR|6NUR_protein|mol2

> <Gold.PLP.Fitness>
42.0448

> <Gold.PLP.PLP>
-31.4011

> <Gold.PLP.part.hbond>
-3.0000

> <Gold.PLP.part.metal>
0.0000

> <Gold.PLP.part.buried>
-5.3794

> <Gold.PLP.part.nonpolar>
-23.7286

> <Gold.PLP.part.repulsive>
0.1922

> <Gold.PLP.ligand.clash>
0.0000

> <Gold.PLP.ligand.torsion>
0.3787

> <Gold.PLP.Chemscore.Hbond>
3.7600

> <Gold.PLP.Chemscore.CHOScore>
0.0000

> <Gold.PLP.Chemscore.Metal>
0.0000

> <Gold.Chemscore.Hbonds>
donor molecule, donor type, donor heavy atom, donor atom, acceptor molecule, acceptor atom, score
      L1  H     4    48       P1 10957  1.66
      P1  H  6931  6943       L1    18  0.59
      P1  H  6934  6947       L1    18  0.85

> <Gold.PLP.Chemscore.Internal.Correction>
0.1211

> <Gold.Rescore>
     Score         DG    S(hbond)    S(metal)    S(lipo)     H(rot)  DE(clash)    DE(int)     intcor
     17.11     -17.44       2.71        0.00      66.08       1.89       0.00       0.33       ----

> <Gold.Chemscore.Fitness>
17.1127

> <Gold.Chemscore.DG>
-17.4407

> <Gold.Chemscore.ZeroCoef>
-5.4800

> <Gold.Chemscore.Hbond>
2.7124

> <Gold.Chemscore.Metal>
0.0000

> <Gold.Chemscore.Lipo>
66.0846

> <Gold.Chemscore.Internal_Hbond>
0.0000

> <Gold.Chemscore.DEClash>
0.0000

> <Gold.Chemscore.DEInternal>
0.3280

> <Gold.Chemscore.Rot>
1.8870

> <Gold.Chemscore.Internal.Correction>
   9.000000E+99

> <Gold.Chemscore.Hbonds>
donor molecule, donor type, donor heavy atom, donor atom, acceptor molecule, acceptor atom, score
      L1  H     4    48       P1 10957  0.82
      P1  H  6931  6943       L1    18  0.44
      P1  H  6934  6947       L1    18  0.80

> <Gold.Chemscore.Hbond.Weighted>
-9.0595

> <Gold.Chemscore.Metal.Weighted>
-0.0000

> <Gold.Chemscore.Lipo.Weighted>
-7.7319

> <Gold.Chemscore.Internal_Hbond.Weighted>
0.0000

> <Gold.Chemscore.DEClash.Weighted>
0.0000

> <Gold.Chemscore.DEInternal.Weighted>
0.3280

> <Gold.Chemscore.Rot.Weighted>
4.8308

> <Gold.Chemscore.Internal.Correction.Weighted>
   9.000000E+99

> <Gold.Protein.RotatedTorsions>
[ 6907 6896 6895 6894 ] final -175.09 input  -60.11 | X-H torsion
[ 7974 7965 7964 7962 ] final   13.57 input  175.53 | X-H torsion
[ 8008 7997 7996 7995 ] final  -25.98 input   59.86 | X-H torsion
[ 10167 10162 10161 10158 ] final  -12.04 input  -65.29 | X-H torsion
[ 10718 10713 10712 10709 ] final  -57.59 input   66.30 | X-H torsion
[ 10763 10752 10751 10750 ] final   74.07 input  -60.55 | X-H torsion
[ 11005 11000 10999 10996 ] final   50.42 input  -57.11 | X-H torsion

> <Gold.Protein.ActiveResidues>
 VAL166  LYS551  ARG553  GLY616  TRP617  ASP618  TYR619  PRO620  LYS621  CYS622 
 ASP623  PHE694  ASN695  SER759  ASP760  ASP761  ALA762  ILE779  LEU786  VAL792 
 PHE793  MET794  SER795  GLU796  ALA797  LYS798  CYS799  TRP800  GLU811  SER814 

> <Gold.Protein.RotatedAtoms>
  151.5830  133.3375  159.3011 H   0  0  0  0  0  0  0  0  0  0  0  0  # atno 6907 bound_to 6896
  150.8303  134.7556  159.6859 H   0  0  0  0  0  0  0  0  0  0  0  0  # atno 6908 bound_to 6896
  152.4387  134.5641  159.9954 H   0  0  0  0  0  0  0  0  0  0  0  0  # atno 6909 bound_to 6896
  146.2326  139.9170  142.8516 H   0  0  0  0  0  0  0  0  0  0  0  0  # atno 7974 bound_to 7965
  154.4448  140.1912  156.0703 H   0  0  0  0  0  0  0  0  0  0  0  0  # atno 8008 bound_to 7997
  156.0516  140.3308  155.7330 H   0  0  0  0  0  0  0  0  0  0  0  0  # atno 8009 bound_to 7997
  155.5549  140.0598  157.2832 H   0  0  0  0  0  0  0  0  0  0  0  0  # atno 8010 bound_to 7997
  140.7152  143.5575  150.9232 H   0  0  0  0  0  0  0  0  0  0  0  0  # atno 10167 bound_to 10162
  156.1199  130.4167  150.0461 H   0  0  0  0  0  0  0  0  0  0  0  0  # atno 10718 bound_to 10713
  153.0562  135.5039  154.7987 H   0  0  0  0  0  0  0  0  0  0  0  0  # atno 10763 bound_to 10752
  154.6811  135.2968  154.9614 H   0  0  0  0  0  0  0  0  0  0  0  0  # atno 10764 bound_to 10752
  154.0399  135.6718  153.4842 H   0  0  0  0  0  0  0  0  0  0  0  0  # atno 10765 bound_to 10752
  140.1019  134.5070  155.8755 H   0  0  0  0  0  0  0  0  0  0  0  0  # atno 11005 bound_to 11000
  145.2174  140.9921  143.4065 LP  0  0  0  0  0  0  0  0  0  0  0  0  # atno 17320 bound_to 7965
  144.9639  139.3951  143.6342 LP  0  0  0  0  0  0  0  0  0  0  0  0  # atno 17321 bound_to 7965
  139.9300  143.6504  152.3078 LP  0  0  0  0  0  0  0  0  0  0  0  0  # atno 17342 bound_to 10162
  139.6952  144.7642  151.1369 LP  0  0  0  0  0  0  0  0  0  0  0  0  # atno 17343 bound_to 10162
  156.8402  130.9423  151.3632 LP  0  0  0  0  0  0  0  0  0  0  0  0  # atno 17370 bound_to 10713
  157.6383  130.8784  149.9400 LP  0  0  0  0  0  0  0  0  0  0  0  0  # atno 17371 bound_to 10713
  141.2108  133.6699  156.6535 LP  0  0  0  0  0  0  0  0  0  0  0  0  # atno 17394 bound_to 11000
  140.3208  134.8009  157.4251 LP  0  0  0  0  0  0  0  0  0  0  0  0  # atno 17395 bound_to 11000

$$$$
