AV-unprocessed.smi:675|AV-procd|sdf|3305|dock1
  -GOLD-   22720 0263D 1   1.00000     0.00000
 Structure written by MMmdl.
 28 29  0  0  0  0  0  0  0  0  2 V2000
  149.2178  141.3990  154.3347 O   0  0  0  0  0  0  0  0  0  0  0  0
  149.8559  141.1040  155.3441 C   0  0  0  0  0  0  0  0  0  0  0  0
  151.0601  140.4632  155.2933 N   0  5  0  0  0  0  0  0  0  0  0  0
  151.7830  140.1228  156.4044 C   0  0  0  0  0  0  0  0  0  0  0  0
  152.8641  139.5392  156.3286 O   0  0  0  0  0  0  0  0  0  0  0  0
  151.2820  140.4369  157.6370 N   0  0  0  0  0  0  0  0  0  0  0  0
  151.9656  140.0936  158.8943 C   0  0  0  0  0  0  0  0  0  0  0  0
  153.0809  141.1003  159.2574 C   0  0  2  0  0  0  0  0  0  0  0  0
  153.7645  140.6034  160.3909 O   0  0  0  0  0  0  0  0  0  0  0  0
  152.5590  142.5212  159.4729 C   0  0  0  0  0  0  0  0  0  0  0  0
  152.1348  143.2725  158.3529 C   0  0  0  0  0  0  0  0  0  0  0  0
  151.6719  144.5928  158.5052 C   0  0  0  0  0  0  0  0  0  0  0  0
  151.6285  145.1784  159.7827 C   0  0  0  0  0  0  0  0  0  0  0  0
  152.0503  144.4421  160.9046 C   0  0  0  0  0  0  0  0  0  0  0  0
  152.5161  143.1199  160.7590 C   0  0  0  0  0  0  0  0  0  0  0  0
  153.0331  142.2785  162.1790 Cl  0  0  0  0  0  0  0  0  0  0  0  0
  150.0500  141.1038  157.7435 C   0  0  0  0  0  0  0  0  0  0  0  0
  149.3235  141.4442  156.6617 C   0  0  0  0  0  0  0  0  0  0  0  0
  147.8051  142.2515  156.8263 Cl  0  0  0  0  0  0  0  0  0  0  0  0
  151.2572  140.0104  159.7200 H   0  0  0  0  0  0  0  0  0  0  0  0
  152.3948  139.0951  158.7956 H   0  0  0  0  0  0  0  0  0  0  0  0
  153.8218  141.0969  158.4598 H   0  0  0  0  0  0  0  0  0  0  0  0
  154.5020  140.0927  160.0943 H   0  0  0  0  0  0  0  0  0  0  0  0
  152.1757  142.8400  157.3639 H   0  0  0  0  0  0  0  0  0  0  0  0
  151.3558  145.1574  157.6406 H   0  0  0  0  0  0  0  0  0  0  0  0
  151.2766  146.1926  159.9020 H   0  0  0  0  0  0  0  0  0  0  0  0
  152.0210  144.8971  161.8836 H   0  0  0  0  0  0  0  0  0  0  0  0
  149.7308  141.3093  158.7550 H   0  0  0  0  0  0  0  0  0  0  0  0
  1  2  2  0  0  0  0
  2 18  1  0  0  0  0
  2  3  1  0  0  0  0
  3  4  1  0  0  0  0
  4  5  2  0  0  0  0
  4  6  1  0  0  0  0
  6  7  1  0  0  0  0
  6 17  1  0  0  0  0
  7  8  1  0  0  0  0
  7 20  1  0  0  0  0
  7 21  1  0  0  0  0
  8  9  1  0  0  0  0
  8 10  1  0  0  0  0
  8 22  1  0  0  0  0
  9 23  1  0  0  0  0
 10 15  1  0  0  0  0
 10 11  2  0  0  0  0
 11 12  1  0  0  0  0
 11 24  1  0  0  0  0
 12 13  2  0  0  0  0
 12 25  1  0  0  0  0
 13 14  1  0  0  0  0
 13 26  1  0  0  0  0
 14 15  2  0  0  0  0
 14 27  1  0  0  0  0
 15 16  1  0  0  0  0
 17 18  2  0  0  0  0
 17 28  1  0  0  0  0
 18 19  1  0  0  0  0
M  CHG  1   3  -1
M  END
> <s_m_source_file>
AV-unprocessed.smi

> <i_m_source_file_index>
675

> <i_lp_mmshare_version>
43012

> <i_f3d_flags>
0

> <s_epik_input>
Tz1jMVtuSF1jKD1PKW4oW2NIXWMxQ2wpW0NIMl1bQ0BIXShbT0hdKWMyW2NIXVtjSF1bY0hdW2NIXWMyQ2w=

> <s_epik_cmdline>
J2VwaWtfcHl0aG9uJywgJy1waCcsICc3LjAnLCAnLXRuJywgJzgnLCAnLW1hJywgJzIwMCcsICctbWV0YWxfYmluZGluZycsICctaW1hZScsICc8aW5maWxlLm1hZT4nLCAnLW9tYWUnLCAnPG91dGZpbGUubWFlPic=

> <r_epik_Ionization_Penalty>
1.79791

> <r_epik_Ionization_Penalty_Charging>
3.23819e-08

> <r_epik_Ionization_Penalty_Neutral>
1.79791

> <r_epik_State_Penalty>
1.91135

> <r_epik_Charging_Adjusted_Penalty>
1.91135

> <i_epik_Tot_Q>
-1

> <i_epik_Tot_abs_Q>
1

> <r_epik_Metal_State_Penalty>
0.014155

> <b_epik_Metal_Only>
0

> <s_lp_Force_Field>
OPLS_2005

> <r_lp_Energy>
20.012

> <b_lp_Chiralities_Consistent>
1

> <s_lp_Variant>
AV-unprocessed.smi:675-3

> <Gold.Version>
5.8.1

> <Gold.Id.Protein>
6NUR|6NUR_protein|mol2

> <Gold.PLP.Fitness>
51.5600

> <Gold.PLP.PLP>
-45.9067

> <Gold.PLP.part.hbond>
-3.7278

> <Gold.PLP.part.metal>
0.0000

> <Gold.PLP.part.buried>
-4.2527

> <Gold.PLP.part.nonpolar>
-38.0165

> <Gold.PLP.part.repulsive>
0.2134

> <Gold.PLP.ligand.clash>
0.0000

> <Gold.PLP.ligand.torsion>
0.5996

> <Gold.PLP.Chemscore.Hbond>
2.2711

> <Gold.PLP.Chemscore.CHOScore>
0.0000

> <Gold.PLP.Chemscore.Metal>
0.0000

> <Gold.Chemscore.Hbonds>
donor molecule, donor type, donor heavy atom, donor atom, acceptor molecule, acceptor atom, score
      P1  H  7989  7998       L1     3  0.98
      P1  H  7997  8009       L1     5  1.00
      P1  H  8011  8017       L1     1  0.19

> <Gold.PLP.Chemscore.Internal.Correction>
0.0393

> <Gold.Rescore>
     Score         DG    S(hbond)    S(metal)    S(lipo)     H(rot)  DE(clash)    DE(int)     intcor
     17.49     -19.93       2.26        0.00     105.58       2.13       0.06       2.38       ----

> <Gold.Chemscore.Fitness>
17.4933

> <Gold.Chemscore.DG>
-19.9335

> <Gold.Chemscore.ZeroCoef>
-5.4800

> <Gold.Chemscore.Hbond>
2.2600

> <Gold.Chemscore.Metal>
0.0000

> <Gold.Chemscore.Lipo>
105.5750

> <Gold.Chemscore.Internal_Hbond>
0.0000

> <Gold.Chemscore.DEClash>
0.0576

> <Gold.Chemscore.DEInternal>
2.3826

> <Gold.Chemscore.Rot>
2.1278

> <Gold.Chemscore.Internal.Correction>
   9.000000E+99

> <Gold.Chemscore.Hbonds>
donor molecule, donor type, donor heavy atom, donor atom, acceptor molecule, acceptor atom, score
      P1  H  7989  7998       L1     3  0.28
      P1  H  7997  8009       L1     5  0.98
      P1  H  8011  8017       L1     1  0.19

> <Gold.Chemscore.Hbond.Weighted>
-7.5483

> <Gold.Chemscore.Metal.Weighted>
-0.0000

> <Gold.Chemscore.Lipo.Weighted>
-12.3523

> <Gold.Chemscore.Internal_Hbond.Weighted>
0.0000

> <Gold.Chemscore.DEClash.Weighted>
0.0576

> <Gold.Chemscore.DEInternal.Weighted>
2.3826

> <Gold.Chemscore.Rot.Weighted>
5.4470

> <Gold.Chemscore.Internal.Correction.Weighted>
   9.000000E+99

> <Gold.Protein.RotatedTorsions>
[ 6907 6896 6895 6894 ] final -100.64 input  -60.11 | X-H torsion
[ 7974 7965 7964 7962 ] final  -60.22 input  175.53 | X-H torsion
[ 8008 7997 7996 7995 ] final -158.61 input   59.86 | X-H torsion
[ 10167 10162 10161 10158 ] final  103.63 input  -65.29 | X-H torsion
[ 10718 10713 10712 10709 ] final  -25.26 input   66.30 | X-H torsion
[ 10763 10752 10751 10750 ] final   83.98 input  -60.55 | X-H torsion
[ 11005 11000 10999 10996 ] final -129.92 input  -57.11 | X-H torsion

> <Gold.Protein.ActiveResidues>
 VAL166  LYS551  ARG553  GLY616  TRP617  ASP618  TYR619  PRO620  LYS621  CYS622 
 ASP623  PHE694  ASN695  SER759  ASP760  ASP761  ALA762  ILE779  LEU786  VAL792 
 PHE793  MET794  SER795  GLU796  ALA797  LYS798  CYS799  TRP800  GLU811  SER814 

> <Gold.Protein.RotatedAtoms>
  150.7123  134.0856  159.3913 H   0  0  0  0  0  0  0  0  0  0  0  0  # atno 6907 bound_to 6896
  151.8841  135.0440  160.0501 H   0  0  0  0  0  0  0  0  0  0  0  0  # atno 6908 bound_to 6896
  152.2544  133.5207  159.5381 H   0  0  0  0  0  0  0  0  0  0  0  0  # atno 6909 bound_to 6896
  145.8182  140.8557  143.0146 H   0  0  0  0  0  0  0  0  0  0  0  0  # atno 7974 bound_to 7965
  155.7501  140.0825  157.2205 H   0  0  0  0  0  0  0  0  0  0  0  0  # atno 8008 bound_to 7997
  154.4013  140.1562  156.2770 H   0  0  0  0  0  0  0  0  0  0  0  0  # atno 8009 bound_to 7997
  155.8938  140.3413  155.5979 H   0  0  0  0  0  0  0  0  0  0  0  0  # atno 8010 bound_to 7997
  139.7246  144.7050  151.0818 H   0  0  0  0  0  0  0  0  0  0  0  0  # atno 10167 bound_to 10162
  156.4667  130.4515  149.6894 H   0  0  0  0  0  0  0  0  0  0  0  0  # atno 10718 bound_to 10713
  153.1340  135.4671  154.9394 H   0  0  0  0  0  0  0  0  0  0  0  0  # atno 10763 bound_to 10752
  154.7690  135.3153  154.8231 H   0  0  0  0  0  0  0  0  0  0  0  0  # atno 10764 bound_to 10752
  153.8767  135.6898  153.4824 H   0  0  0  0  0  0  0  0  0  0  0  0  # atno 10765 bound_to 10752
  140.9390  134.1218  157.4167 H   0  0  0  0  0  0  0  0  0  0  0  0  # atno 11005 bound_to 11000
  144.6750  140.0494  143.7479 LP  0  0  0  0  0  0  0  0  0  0  0  0  # atno 17320 bound_to 7965
  145.9704  139.2865  143.1102 LP  0  0  0  0  0  0  0  0  0  0  0  0  # atno 17321 bound_to 7965
  140.7760  143.5121  150.9639 LP  0  0  0  0  0  0  0  0  0  0  0  0  # atno 17342 bound_to 10162
  139.8809  143.7074  152.3157 LP  0  0  0  0  0  0  0  0  0  0  0  0  # atno 17343 bound_to 10162
  156.3660  130.7506  151.2484 LP  0  0  0  0  0  0  0  0  0  0  0  0  # atno 17370 bound_to 10713
  157.7494  131.0337  150.4282 LP  0  0  0  0  0  0  0  0  0  0  0  0  # atno 17371 bound_to 10713
  139.8815  135.0030  156.6163 LP  0  0  0  0  0  0  0  0  0  0  0  0  # atno 17394 bound_to 11000
  140.7759  133.8700  155.8529 LP  0  0  0  0  0  0  0  0  0  0  0  0  # atno 17395 bound_to 11000

$$$$
