AV-unprocessed.smi:955|AV-procd|sdf|4260|dock2
  -GOLD-   22720 2173D 1   1.00000     0.00000
 Structure written by MMmdl.
 29 29  0  0  0  0  0  0  0  0  1 V2000
  153.4944  138.7074  154.6263 C   0  0  0  0  0  0  0  0  0  0  0  0
  152.2287  138.3215  155.4096 C   0  0  1  0  0  0  0  0  0  0  0  0
  151.5629  139.5533  155.8265 N   0  0  0  0  0  0  0  0  0  0  0  0
  151.2878  139.8970  157.0956 C   0  0  0  0  0  0  0  0  0  0  0  0
  151.6338  139.2205  158.0651 O   0  0  0  0  0  0  0  0  0  0  0  0
  150.4921  141.1977  157.2854 C   0  0  2  0  0  0  0  0  0  0  0  0
  149.9048  141.7403  155.9660 C   0  0  0  0  0  0  0  0  0  0  0  0
  151.3121  142.1868  157.9767 N   0  0  0  0  0  0  0  0  0  0  0  0
  151.5553  143.4940  157.6059 C   0  0  0  0  0  0  0  0  0  0  0  0
  152.3314  144.0599  158.5761 C   0  0  0  0  0  0  0  0  0  0  0  0
  152.5043  143.0128  159.5228 C   0  0  0  0  0  0  0  0  0  0  0  0
  151.8886  141.8976  159.1668 N   0  0  0  0  0  0  0  0  0  0  0  0
  151.3143  137.5195  154.4689 C   0  0  0  0  0  0  0  0  0  0  0  0
  150.7213  138.1965  153.4829 N   0  0  0  0  0  0  0  0  0  0  0  0
  151.1321  136.3138  154.6349 O   0  0  0  0  0  0  0  0  0  0  0  0
  154.0369  137.8229  154.2896 H   0  0  0  0  0  0  0  0  0  0  0  0
  154.1763  139.2861  155.2504 H   0  0  0  0  0  0  0  0  0  0  0  0
  153.2619  139.3104  153.7469 H   0  0  0  0  0  0  0  0  0  0  0  0
  152.5023  137.7223  156.2804 H   0  0  0  0  0  0  0  0  0  0  0  0
  151.2391  140.1638  155.0907 H   0  0  0  0  0  0  0  0  0  0  0  0
  149.6494  140.9673  157.9394 H   0  0  0  0  0  0  0  0  0  0  0  0
  149.2493  141.0057  155.4974 H   0  0  0  0  0  0  0  0  0  0  0  0
  150.6813  141.9967  155.2440 H   0  0  0  0  0  0  0  0  0  0  0  0
  149.3125  142.6379  156.1454 H   0  0  0  0  0  0  0  0  0  0  0  0
  151.1572  143.9099  156.6922 H   0  0  0  0  0  0  0  0  0  0  0  0
  152.7116  145.0700  158.6083 H   0  0  0  0  0  0  0  0  0  0  0  0
  153.0509  143.0312  160.4540 H   0  0  0  0  0  0  0  0  0  0  0  0
  150.1023  137.7191  152.8439 H   0  0  0  0  0  0  0  0  0  0  0  0
  150.8865  139.1879  153.3869 H   0  0  0  0  0  0  0  0  0  0  0  0
  1  2  1  0  0  0  0
  1 16  1  0  0  0  0
  1 17  1  0  0  0  0
  1 18  1  0  0  0  0
  2  3  1  0  0  0  0
  2 13  1  0  0  0  0
  2 19  1  0  0  0  0
  3  4  1  0  0  0  0
  3 20  1  0  0  0  0
  4  5  2  0  0  0  0
  4  6  1  0  0  0  0
  6  7  1  0  0  0  0
  6  8  1  0  0  0  0
  6 21  1  0  0  0  0
  7 22  1  0  0  0  0
  7 23  1  0  0  0  0
  7 24  1  0  0  0  0
  8 12  1  0  0  0  0
  8  9  1  0  0  0  0
  9 10  2  0  0  0  0
  9 25  1  0  0  0  0
 10 11  1  0  0  0  0
 10 26  1  0  0  0  0
 11 12  2  0  0  0  0
 11 27  1  0  0  0  0
 13 14  1  0  0  0  0
 13 15  2  0  0  0  0
 14 28  1  0  0  0  0
 14 29  1  0  0  0  0
M  END
> <s_m_source_file>
AV-unprocessed.smi

> <i_m_source_file_index>
955

> <i_lp_mmshare_version>
43012

> <i_f3d_flags>
0

> <s_epik_input>
W05IMl1DKD1PKVtDQEhdKFtDSDNdKVtOSF1DKD1PKVtDQEhdKFtDSDNdKW4xW2NIXVtjSF1bY0hdbjE=

> <s_epik_cmdline>
J2VwaWtfcHl0aG9uJywgJy1waCcsICc3LjAnLCAnLXRuJywgJzgnLCAnLW1hJywgJzIwMCcsICctbWV0YWxfYmluZGluZycsICctaW1hZScsICc8aW5maWxlLm1hZT4nLCAnLW9tYWUnLCAnPG91dGZpbGUubWFlPic=

> <r_lp_tautomer_probability>
1

> <r_epik_Ionization_Penalty>
2.8146e-05

> <r_epik_Ionization_Penalty_Charging>
0

> <r_epik_Ionization_Penalty_Neutral>
2.8146e-05

> <r_epik_State_Penalty>
-0

> <r_epik_Charging_Adjusted_Penalty>
0

> <i_epik_Tot_Q>
0

> <i_epik_Tot_abs_Q>
0

> <r_epik_Metal_State_Penalty>
-0

> <b_epik_Metal_Only>
0

> <s_lp_Force_Field>
OPLS_2005

> <r_lp_Energy>
4.43248

> <b_lp_Chiralities_Consistent>
1

> <s_lp_Variant>
AV-unprocessed.smi:955-2

> <Gold.Version>
5.8.1

> <Gold.Id.Protein>
6NUR|6NUR_protein|mol2

> <Gold.PLP.Fitness>
39.2582

> <Gold.PLP.PLP>
-31.1369

> <Gold.PLP.part.hbond>
-3.5537

> <Gold.PLP.part.metal>
0.0000

> <Gold.PLP.part.buried>
-3.3143

> <Gold.PLP.part.nonpolar>
-24.0006

> <Gold.PLP.part.repulsive>
0.4079

> <Gold.PLP.ligand.clash>
0.0736

> <Gold.PLP.ligand.torsion>
0.4578

> <Gold.PLP.Chemscore.Hbond>
2.0000

> <Gold.PLP.Chemscore.CHOScore>
1.0000

> <Gold.PLP.Chemscore.Metal>
0.0000

> <Gold.Chemscore.Hbonds>
donor molecule, donor type, donor heavy atom, donor atom, acceptor molecule, acceptor atom, score
      L1  H    14    28       P1  7948  0.73
      P1  H 10752 10764       L1    15  1.00
      L1  C     9    25       P1  8028  0.83

> <Gold.PLP.Chemscore.Internal.Correction>
0.1105

> <Gold.Rescore>
     Score         DG    S(hbond)    S(metal)    S(lipo)     H(rot)  DE(clash)    DE(int)     intcor
     10.75     -13.21       1.73        0.00      66.98       2.30       0.17       2.29       ----

> <Gold.Chemscore.Fitness>
10.7462

> <Gold.Chemscore.DG>
-13.2057

> <Gold.Chemscore.ZeroCoef>
-5.4800

> <Gold.Chemscore.Hbond>
1.7275

> <Gold.Chemscore.Metal>
0.0000

> <Gold.Chemscore.Lipo>
66.9816

> <Gold.Chemscore.Internal_Hbond>
0.0000

> <Gold.Chemscore.DEClash>
0.1696

> <Gold.Chemscore.DEInternal>
2.2899

> <Gold.Chemscore.Rot>
2.2972

> <Gold.Chemscore.Internal.Correction>
   9.000000E+99

> <Gold.Chemscore.Hbonds>
donor molecule, donor type, donor heavy atom, donor atom, acceptor molecule, acceptor atom, score
      L1  H    14    28       P1  7948  0.10
      P1  H 10752 10764       L1    15  0.35

> <Gold.Chemscore.Hbond.Weighted>
-5.7698

> <Gold.Chemscore.Metal.Weighted>
-0.0000

> <Gold.Chemscore.Lipo.Weighted>
-7.8368

> <Gold.Chemscore.Internal_Hbond.Weighted>
0.0000

> <Gold.Chemscore.DEClash.Weighted>
0.1696

> <Gold.Chemscore.DEInternal.Weighted>
2.2899

> <Gold.Chemscore.Rot.Weighted>
5.8809

> <Gold.Chemscore.Internal.Correction.Weighted>
   9.000000E+99

> <Gold.Protein.RotatedTorsions>
[ 6907 6896 6895 6894 ] final -127.05 input  -60.11 | X-H torsion
[ 7974 7965 7964 7962 ] final  170.16 input  175.53 | X-H torsion
[ 8008 7997 7996 7995 ] final   11.91 input   59.86 | X-H torsion
[ 10167 10162 10161 10158 ] final   34.09 input  -65.29 | X-H torsion
[ 10718 10713 10712 10709 ] final -168.20 input   66.30 | X-H torsion
[ 10763 10752 10751 10750 ] final  -69.90 input  -60.55 | X-H torsion
[ 11005 11000 10999 10996 ] final  168.73 input  -57.11 | X-H torsion

> <Gold.Protein.ActiveResidues>
 VAL166  LYS551  ARG553  GLY616  TRP617  ASP618  TYR619  PRO620  LYS621  CYS622 
 ASP623  PHE694  ASN695  SER759  ASP760  ASP761  ALA762  ILE779  LEU786  VAL792 
 PHE793  MET794  SER795  GLU796  ALA797  LYS798  CYS799  TRP800  GLU811  SER814 

> <Gold.Protein.RotatedAtoms>
  150.9032  133.7091  159.2873 H   0  0  0  0  0  0  0  0  0  0  0  0  # atno 6907 bound_to 6896
  151.4602  135.1036  159.9732 H   0  0  0  0  0  0  0  0  0  0  0  0  # atno 6908 bound_to 6896
  152.4889  133.8397  159.7201 H   0  0  0  0  0  0  0  0  0  0  0  0  # atno 6909 bound_to 6896
  144.7332  139.9160  143.6417 H   0  0  0  0  0  0  0  0  0  0  0  0  # atno 7974 bound_to 7965
  154.8134  140.2872  155.5837 H   0  0  0  0  0  0  0  0  0  0  0  0  # atno 8008 bound_to 7997
  156.2990  140.2564  156.2957 H   0  0  0  0  0  0  0  0  0  0  0  0  # atno 8009 bound_to 7997
  154.9421  140.0381  157.2091 H   0  0  0  0  0  0  0  0  0  0  0  0  # atno 8010 bound_to 7997
  140.4347  144.1274  150.6164 H   0  0  0  0  0  0  0  0  0  0  0  0  # atno 10167 bound_to 10162
  156.6934  130.9168  151.3071 H   0  0  0  0  0  0  0  0  0  0  0  0  # atno 10718 bound_to 10713
  154.4100  135.6011  153.5947 H   0  0  0  0  0  0  0  0  0  0  0  0  # atno 10763 bound_to 10752
  152.9790  135.5927  154.4082 H   0  0  0  0  0  0  0  0  0  0  0  0  # atno 10764 bound_to 10752
  154.3893  135.2842  155.2143 H   0  0  0  0  0  0  0  0  0  0  0  0  # atno 10765 bound_to 10752
  140.2903  134.7678  157.3833 H   0  0  0  0  0  0  0  0  0  0  0  0  # atno 11005 bound_to 11000
  146.0965  139.3958  143.0373 LP  0  0  0  0  0  0  0  0  0  0  0  0  # atno 17320 bound_to 7965
  145.7638  140.9924  143.1185 LP  0  0  0  0  0  0  0  0  0  0  0  0  # atno 17321 bound_to 7965
  140.4387  143.2536  151.9501 LP  0  0  0  0  0  0  0  0  0  0  0  0  # atno 17342 bound_to 10162
  139.4786  144.5675  151.8142 LP  0  0  0  0  0  0  0  0  0  0  0  0  # atno 17343 bound_to 10162
  157.7000  130.9323  150.0757 LP  0  0  0  0  0  0  0  0  0  0  0  0  # atno 17370 bound_to 10713
  156.1781  130.3649  149.9073 LP  0  0  0  0  0  0  0  0  0  0  0  0  # atno 17371 bound_to 10713
  140.1201  134.5231  155.8191 LP  0  0  0  0  0  0  0  0  0  0  0  0  # atno 17394 bound_to 11000
  141.2147  133.6753  156.6850 LP  0  0  0  0  0  0  0  0  0  0  0  0  # atno 17395 bound_to 11000

$$$$
