AV-unprocessed.smi:805|AV-procd|sdf|3797|dock3
  -GOLD-   22720 1233D 1   1.00000     0.00000
 Structure written by MMmdl.
 40 41  0  0  0  0  0  0  0  0  1 V2000
  153.3162  142.8967  162.9215 C   0  0  0  0  0  0  0  0  0  0  0  0
  152.1967  143.6655  162.2157 C   0  0  0  0  0  0  0  0  0  0  0  0
  151.5983  142.8195  161.2481 O   0  0  0  0  0  0  0  0  0  0  0  0
  152.1943  142.9377  159.9658 C   0  0  1  0  0  0  0  0  0  0  0  0
  151.7350  141.8882  158.9484 C   0  0  0  0  0  0  0  0  0  0  0  0
  151.7737  143.0237  157.9246 C   0  0  1  0  0  0  0  0  0  0  0  0
  150.6892  142.9420  156.9518 N   0  0  0  0  0  0  0  0  0  0  0  0
  150.3280  141.8199  156.3153 C   0  0  0  0  0  0  0  0  0  0  0  0
  150.8734  140.7320  156.4993 O   0  0  0  0  0  0  0  0  0  0  0  0
  149.3003  142.0463  155.4789 N   0  0  0  0  0  0  0  0  0  0  0  0
  148.6298  141.1255  154.6290 C   0  0  0  0  0  0  0  0  0  0  0  0
  149.0417  139.7771  154.6623 C   0  0  0  0  0  0  0  0  0  0  0  0
  148.3867  138.8383  153.8431 C   0  0  0  0  0  0  0  0  0  0  0  0
  147.3324  139.2854  153.0238 C   0  0  0  0  0  0  0  0  0  0  0  0
  146.9146  140.5681  152.9904 N   0  0  0  0  0  0  0  0  0  0  0  0
  147.5485  141.4642  153.7776 C   0  0  0  0  0  0  0  0  0  0  0  0
  151.5347  144.0276  159.0846 C   0  0  0  0  0  0  0  0  0  0  0  0
  150.0748  144.3774  159.4230 C   0  0  0  0  0  0  0  0  0  0  0  0
  152.2972  145.3487  158.9874 C   0  0  0  0  0  0  0  0  0  0  0  0
  153.8038  143.5190  163.6723 H   0  0  0  0  0  0  0  0  0  0  0  0
  154.0764  142.5728  162.2105 H   0  0  0  0  0  0  0  0  0  0  0  0
  152.9264  142.0107  163.4227 H   0  0  0  0  0  0  0  0  0  0  0  0
  151.4512  143.9890  162.9437 H   0  0  0  0  0  0  0  0  0  0  0  0
  152.6032  144.5589  161.7400 H   0  0  0  0  0  0  0  0  0  0  0  0
  153.2816  143.0392  160.0050 H   0  0  0  0  0  0  0  0  0  0  0  0
  152.4508  141.0861  158.7671 H   0  0  0  0  0  0  0  0  0  0  0  0
  150.7341  141.5015  159.1487 H   0  0  0  0  0  0  0  0  0  0  0  0
  152.7653  143.1241  157.4765 H   0  0  0  0  0  0  0  0  0  0  0  0
  150.1879  143.7946  156.7495 H   0  0  0  0  0  0  0  0  0  0  0  0
  148.9153  142.9793  155.4940 H   0  0  0  0  0  0  0  0  0  0  0  0
  149.8526  139.4635  155.3036 H   0  0  0  0  0  0  0  0  0  0  0  0
  148.6845  137.8001  153.8428 H   0  0  0  0  0  0  0  0  0  0  0  0
  146.8076  138.5929  152.3822 H   0  0  0  0  0  0  0  0  0  0  0  0
  147.1521  142.4658  153.7248 H   0  0  0  0  0  0  0  0  0  0  0  0
  149.6270  145.0148  158.6598 H   0  0  0  0  0  0  0  0  0  0  0  0
  150.0029  144.9097  160.3720 H   0  0  0  0  0  0  0  0  0  0  0  0
  149.4487  143.4892  159.5085 H   0  0  0  0  0  0  0  0  0  0  0  0
  151.8745  145.9991  158.2211 H   0  0  0  0  0  0  0  0  0  0  0  0
  153.3444  145.1879  158.7296 H   0  0  0  0  0  0  0  0  0  0  0  0
  152.2774  145.8925  159.9322 H   0  0  0  0  0  0  0  0  0  0  0  0
  1  2  1  0  0  0  0
  1 20  1  0  0  0  0
  1 21  1  0  0  0  0
  1 22  1  0  0  0  0
  2  3  1  0  0  0  0
  2 23  1  0  0  0  0
  2 24  1  0  0  0  0
  3  4  1  0  0  0  0
  4 17  1  0  0  0  0
  4  5  1  0  0  0  0
  4 25  1  0  0  0  0
  5  6  1  0  0  0  0
  5 26  1  0  0  0  0
  5 27  1  0  0  0  0
  6  7  1  0  0  0  0
  6 17  1  0  0  0  0
  6 28  1  0  0  0  0
  7  8  1  0  0  0  0
  7 29  1  0  0  0  0
  8  9  2  0  0  0  0
  8 10  1  0  0  0  0
 10 11  1  0  0  0  0
 10 30  1  0  0  0  0
 11 16  1  0  0  0  0
 11 12  2  0  0  0  0
 12 13  1  0  0  0  0
 12 31  1  0  0  0  0
 13 14  2  0  0  0  0
 13 32  1  0  0  0  0
 14 15  1  0  0  0  0
 14 33  1  0  0  0  0
 15 16  2  0  0  0  0
 16 34  1  0  0  0  0
 17 18  1  0  0  0  0
 17 19  1  0  0  0  0
 18 35  1  0  0  0  0
 18 36  1  0  0  0  0
 18 37  1  0  0  0  0
 19 38  1  0  0  0  0
 19 39  1  0  0  0  0
 19 40  1  0  0  0  0
M  END
> <s_m_source_file>
AV-unprocessed.smi

> <i_m_source_file_index>
805

> <i_lp_mmshare_version>
43012

> <i_f3d_flags>
0

> <s_epik_input>
W0NIM11bQ0gyXU9bQ0BASF0oQzEoW0NIM10pW0NIM10pW0NIMl1bQ0BIXTFbTkhdQyg9TylbTkhdYzJbY0hdW2NIXVtjSF1uW2NIXTI=

> <s_epik_cmdline>
J2VwaWtfcHl0aG9uJywgJy1waCcsICc3LjAnLCAnLXRuJywgJzgnLCAnLW1hJywgJzIwMCcsICctbWV0YWxfYmluZGluZycsICctaW1hZScsICc8aW5maWxlLm1hZT4nLCAnLW9tYWUnLCAnPG91dGZpbGUubWFlPic=

> <r_epik_Ionization_Penalty>
0.00485231

> <r_epik_Ionization_Penalty_Charging>
0

> <r_epik_Ionization_Penalty_Neutral>
0.00485231

> <r_epik_State_Penalty>
0.00349213

> <r_epik_Charging_Adjusted_Penalty>
0.00349213

> <i_epik_Tot_Q>
0

> <i_epik_Tot_abs_Q>
0

> <r_epik_Metal_State_Penalty>
-0

> <b_epik_Metal_Only>
0

> <s_lp_Force_Field>
OPLS_2005

> <r_lp_Energy>
21.475

> <b_lp_Chiralities_Consistent>
1

> <s_lp_Variant>
AV-unprocessed.smi:805-2

> <Gold.Version>
5.8.1

> <Gold.Id.Protein>
6NUR|6NUR_protein|mol2

> <Gold.PLP.Fitness>
49.0803

> <Gold.PLP.PLP>
-43.3167

> <Gold.PLP.part.hbond>
-3.0000

> <Gold.PLP.part.metal>
0.0000

> <Gold.PLP.part.buried>
-4.5741

> <Gold.PLP.part.nonpolar>
-36.2004

> <Gold.PLP.part.repulsive>
0.5276

> <Gold.PLP.ligand.clash>
0.0000

> <Gold.PLP.ligand.torsion>
0.6688

> <Gold.PLP.Chemscore.Hbond>
2.2664

> <Gold.PLP.Chemscore.CHOScore>
0.0000

> <Gold.PLP.Chemscore.Metal>
0.0000

> <Gold.Chemscore.Hbonds>
donor molecule, donor type, donor heavy atom, donor atom, acceptor molecule, acceptor atom, score
      L1  H     7    29       P1  8028  0.99
      L1  H    10    30       P1  8028  1.00
      P1  H  6933  6945       L1     3  0.35

> <Gold.PLP.Chemscore.Internal.Correction>
0.3021

> <Gold.Rescore>
     Score         DG    S(hbond)    S(metal)    S(lipo)     H(rot)  DE(clash)    DE(int)     intcor
     18.49     -23.22       2.19        0.00     118.84       1.36       1.43       3.29       ----

> <Gold.Chemscore.Fitness>
18.4878

> <Gold.Chemscore.DG>
-23.2158

> <Gold.Chemscore.ZeroCoef>
-5.4800

> <Gold.Chemscore.Hbond>
2.1858

> <Gold.Chemscore.Metal>
0.0000

> <Gold.Chemscore.Lipo>
118.8387

> <Gold.Chemscore.Internal_Hbond>
0.0000

> <Gold.Chemscore.DEClash>
1.4345

> <Gold.Chemscore.DEInternal>
3.2935

> <Gold.Chemscore.Rot>
1.3551

> <Gold.Chemscore.Internal.Correction>
   9.000000E+99

> <Gold.Chemscore.Hbonds>
donor molecule, donor type, donor heavy atom, donor atom, acceptor molecule, acceptor atom, score
      L1  H     7    29       P1  8028  0.94
      L1  H    10    30       P1  8028  0.99
      P1  H  6933  6945       L1     3  0.21

> <Gold.Chemscore.Hbond.Weighted>
-7.3007

> <Gold.Chemscore.Metal.Weighted>
-0.0000

> <Gold.Chemscore.Lipo.Weighted>
-13.9041

> <Gold.Chemscore.Internal_Hbond.Weighted>
0.0000

> <Gold.Chemscore.DEClash.Weighted>
1.4345

> <Gold.Chemscore.DEInternal.Weighted>
3.2935

> <Gold.Chemscore.Rot.Weighted>
3.4691

> <Gold.Chemscore.Internal.Correction.Weighted>
   9.000000E+99

> <Gold.Protein.RotatedTorsions>
[ 6907 6896 6895 6894 ] final -111.29 input  -60.11 | X-H torsion
[ 7974 7965 7964 7962 ] final   25.74 input  175.53 | X-H torsion
[ 8008 7997 7996 7995 ] final   22.32 input   59.86 | X-H torsion
[ 10167 10162 10161 10158 ] final    8.57 input  -65.29 | X-H torsion
[ 10718 10713 10712 10709 ] final  116.01 input   66.30 | X-H torsion
[ 10763 10752 10751 10750 ] final   62.98 input  -60.55 | X-H torsion
[ 11005 11000 10999 10996 ] final  -96.75 input  -57.11 | X-H torsion

> <Gold.Protein.ActiveResidues>
 VAL166  LYS551  ARG553  GLY616  TRP617  ASP618  TYR619  PRO620  LYS621  CYS622 
 ASP623  PHE694  ASN695  SER759  ASP760  ASP761  ALA762  ILE779  LEU786  VAL792 
 PHE793  MET794  SER795  GLU796  ALA797  LYS798  CYS799  TRP800  GLU811  SER814 

> <Gold.Protein.RotatedAtoms>
  150.7680  133.9257  159.3411 H   0  0  0  0  0  0  0  0  0  0  0  0  # atno 6907 bound_to 6896
  151.7150  135.0903  160.0284 H   0  0  0  0  0  0  0  0  0  0  0  0  # atno 6908 bound_to 6896
  152.3685  133.6350  159.6105 H   0  0  0  0  0  0  0  0  0  0  0  0  # atno 6909 bound_to 6896
  146.1873  139.7424  142.8857 H   0  0  0  0  0  0  0  0  0  0  0  0  # atno 7974 bound_to 7965
  154.9640  140.3081  155.5018 H   0  0  0  0  0  0  0  0  0  0  0  0  # atno 8008 bound_to 7997
  156.2974  140.2296  156.4666 H   0  0  0  0  0  0  0  0  0  0  0  0  # atno 8009 bound_to 7997
  154.7939  140.0438  157.1210 H   0  0  0  0  0  0  0  0  0  0  0  0  # atno 8010 bound_to 7997
  140.6306  143.8002  150.7291 H   0  0  0  0  0  0  0  0  0  0  0  0  # atno 10167 bound_to 10162
  157.6187  131.1020  150.7411 H   0  0  0  0  0  0  0  0  0  0  0  0  # atno 10718 bound_to 10713
  153.0001  135.5445  154.6279 H   0  0  0  0  0  0  0  0  0  0  0  0  # atno 10763 bound_to 10752
  154.5564  135.2830  155.0963 H   0  0  0  0  0  0  0  0  0  0  0  0  # atno 10764 bound_to 10752
  154.2183  135.6455  153.5189 H   0  0  0  0  0  0  0  0  0  0  0  0  # atno 10765 bound_to 10752
  141.1401  133.8120  157.0613 H   0  0  0  0  0  0  0  0  0  0  0  0  # atno 11005 bound_to 11000
  145.3899  141.0371  143.3130 LP  0  0  0  0  0  0  0  0  0  0  0  0  # atno 17320 bound_to 7965
  144.8421  139.5455  143.6895 LP  0  0  0  0  0  0  0  0  0  0  0  0  # atno 17321 bound_to 7965
  140.1612  143.4274  152.2065 LP  0  0  0  0  0  0  0  0  0  0  0  0  # atno 17342 bound_to 10162
  139.5521  144.7345  151.4404 LP  0  0  0  0  0  0  0  0  0  0  0  0  # atno 17343 bound_to 10162
  156.7773  130.4848  149.5407 LP  0  0  0  0  0  0  0  0  0  0  0  0  # atno 17370 bound_to 10713
  156.1321  130.6185  151.0348 LP  0  0  0  0  0  0  0  0  0  0  0  0  # atno 17371 bound_to 10713
  140.0569  134.9775  157.1237 LP  0  0  0  0  0  0  0  0  0  0  0  0  # atno 17394 bound_to 11000
  140.3906  134.2189  155.7166 LP  0  0  0  0  0  0  0  0  0  0  0  0  # atno 17395 bound_to 11000

$$$$
