AV-unprocessed.smi:610|AV-procd|sdf|3059|dock1
  -GOLD-   2262023583D 1   1.00000     0.00000
 Structure written by MMmdl.
 37 38  0  0  0  0  0  0  0  0  1 V2000
  151.7067  139.6910  158.6335 C   0  0  0  0  0  0  0  0  0  0  0  0
  151.4077  140.4070  157.3076 C   0  0  2  0  0  0  0  0  0  0  0  0
  150.6452  141.7258  157.5352 C   0  0  0  0  0  0  0  0  0  0  0  0
  151.4686  142.7321  158.1803 N   0  0  0  0  0  0  0  0  0  0  0  0
  151.7799  143.9972  157.6990 C   0  0  0  0  0  0  0  0  0  0  0  0
  152.5882  144.5888  158.6433 C   0  0  0  0  0  0  0  0  0  0  0  0
  152.7851  143.7120  159.7076 N   0  0  0  0  0  0  0  0  0  0  0  0
  152.0916  142.6347  159.3627 C   0  0  0  0  0  0  0  0  0  0  0  0
  150.6331  139.5294  156.4334 N   0  0  0  0  0  0  0  0  0  0  0  0
  150.2450  139.8099  155.1773 C   0  0  0  0  0  0  0  0  0  0  0  0
  150.5469  140.8643  154.6165 O   0  0  0  0  0  0  0  0  0  0  0  0
  149.3944  138.7548  154.4240 C   0  0  0  0  0  0  0  0  0  0  0  0
  150.0838  138.2349  153.2491 N   0  0  0  0  0  0  0  0  0  0  0  0
  149.0128  137.5642  155.3463 C   0  0  0  0  0  0  0  0  0  0  0  0
  147.4818  137.5362  155.4358 C   0  0  0  0  0  0  0  0  0  0  0  0
  147.0307  138.9394  155.0447 C   0  0  0  0  0  0  0  0  0  0  0  0
  148.0430  139.3640  153.9821 C   0  0  0  0  0  0  0  0  0  0  0  0
  152.2975  140.3245  159.2953 H   0  0  0  0  0  0  0  0  0  0  0  0
  152.2720  138.7732  158.4684 H   0  0  0  0  0  0  0  0  0  0  0  0
  150.7879  139.4269  159.1582 H   0  0  0  0  0  0  0  0  0  0  0  0
  152.3600  140.6466  156.8303 H   0  0  0  0  0  0  0  0  0  0  0  0
  150.2748  142.1268  156.5904 H   0  0  0  0  0  0  0  0  0  0  0  0
  149.7717  141.5517  158.1650 H   0  0  0  0  0  0  0  0  0  0  0  0
  151.4132  144.3604  156.7501 H   0  0  0  0  0  0  0  0  0  0  0  0
  153.0398  145.5700  158.6386 H   0  0  0  0  0  0  0  0  0  0  0  0
  152.0381  141.7521  159.9833 H   0  0  0  0  0  0  0  0  0  0  0  0
  150.3536  138.6368  156.8146 H   0  0  0  0  0  0  0  0  0  0  0  0
  149.5438  137.4759  152.8588 H   0  0  0  0  0  0  0  0  0  0  0  0
  150.1144  138.9524  152.5392 H   0  0  0  0  0  0  0  0  0  0  0  0
  149.3881  136.6062  154.9826 H   0  0  0  0  0  0  0  0  0  0  0  0
  149.4274  137.6825  156.3489 H   0  0  0  0  0  0  0  0  0  0  0  0
  147.0886  136.8168  154.7165 H   0  0  0  0  0  0  0  0  0  0  0  0
  147.1255  137.2433  156.4239 H   0  0  0  0  0  0  0  0  0  0  0  0
  146.0035  138.9648  154.6805 H   0  0  0  0  0  0  0  0  0  0  0  0
  147.0952  139.6036  155.9076 H   0  0  0  0  0  0  0  0  0  0  0  0
  148.0736  140.4491  153.8702 H   0  0  0  0  0  0  0  0  0  0  0  0
  147.7295  138.9601  153.0176 H   0  0  0  0  0  0  0  0  0  0  0  0
  1  2  1  0  0  0  0
  1 18  1  0  0  0  0
  1 19  1  0  0  0  0
  1 20  1  0  0  0  0
  2  3  1  0  0  0  0
  2  9  1  0  0  0  0
  2 21  1  0  0  0  0
  3  4  1  0  0  0  0
  3 22  1  0  0  0  0
  3 23  1  0  0  0  0
  4  8  1  0  0  0  0
  4  5  1  0  0  0  0
  5  6  2  0  0  0  0
  5 24  1  0  0  0  0
  6  7  1  0  0  0  0
  6 25  1  0  0  0  0
  7  8  2  0  0  0  0
  8 26  1  0  0  0  0
  9 10  1  0  0  0  0
  9 27  1  0  0  0  0
 10 11  2  0  0  0  0
 10 12  1  0  0  0  0
 12 17  1  0  0  0  0
 12 13  1  0  0  0  0
 12 14  1  0  0  0  0
 13 28  1  0  0  0  0
 13 29  1  0  0  0  0
 14 15  1  0  0  0  0
 14 30  1  0  0  0  0
 14 31  1  0  0  0  0
 15 16  1  0  0  0  0
 15 32  1  0  0  0  0
 15 33  1  0  0  0  0
 16 17  1  0  0  0  0
 16 34  1  0  0  0  0
 16 35  1  0  0  0  0
 17 36  1  0  0  0  0
 17 37  1  0  0  0  0
M  END
> <s_m_source_file>
AV-unprocessed.smi

> <i_m_source_file_index>
610

> <i_lp_mmshare_version>
43012

> <i_f3d_flags>
0

> <s_epik_input>
W2NIXTFuW2NIXVtjSF1uMVtDSDJdW0NAQEhdKFtDSDNdKVtOSF1DKD1PKUMyKFtOSDJdKVtDSDJdW0NIMl1bQ0gyXVtDSDJdMg==

> <s_epik_cmdline>
J2VwaWtfcHl0aG9uJywgJy1waCcsICc3LjAnLCAnLXRuJywgJzgnLCAnLW1hJywgJzIwMCcsICctbWV0YWxfYmluZGluZycsICctaW1hZScsICc8aW5maWxlLm1hZT4nLCAnLW9tYWUnLCAnPG91dGZpbGUubWFlPic=

> <r_lp_tautomer_probability>
1

> <r_epik_Ionization_Penalty>
1.91974

> <r_epik_Ionization_Penalty_Charging>
0.644069

> <r_epik_Ionization_Penalty_Neutral>
1.27567

> <r_epik_State_Penalty>
1.9806

> <r_epik_Charging_Adjusted_Penalty>
2.62467

> <i_epik_Tot_Q>
0

> <i_epik_Tot_abs_Q>
0

> <r_epik_Metal_State_Penalty>
1.61835

> <b_epik_Metal_Only>
0

> <s_lp_Force_Field>
OPLS_2005

> <r_lp_Energy>
21.9363

> <b_lp_Chiralities_Consistent>
1

> <s_lp_Variant>
AV-unprocessed.smi:610-7

> <Gold.Version>
5.8.1

> <Gold.Id.Protein>
6NUR|6NUR_protein|mol2

> <Gold.PLP.Fitness>
40.8251

> <Gold.PLP.PLP>
-29.6279

> <Gold.PLP.part.hbond>
-3.6462

> <Gold.PLP.part.metal>
0.0000

> <Gold.PLP.part.buried>
-1.9058

> <Gold.PLP.part.nonpolar>
-24.8530

> <Gold.PLP.part.repulsive>
0.1848

> <Gold.PLP.ligand.clash>
0.0000

> <Gold.PLP.ligand.torsion>
0.1011

> <Gold.PLP.Chemscore.Hbond>
2.7840

> <Gold.PLP.Chemscore.CHOScore>
1.0000

> <Gold.PLP.Chemscore.Metal>
0.0000

> <Gold.Chemscore.Hbonds>
donor molecule, donor type, donor heavy atom, donor atom, acceptor molecule, acceptor atom, score
      L1  H    13    28       P1  7948  1.00
      L1  H    13    29       P1  7957  1.00
      P1  H  7989  7998       L1    11  0.78
      L1  C     5    24       P1  8028  0.47

> <Gold.PLP.Chemscore.Internal.Correction>
0.0473

> <Gold.Rescore>
     Score         DG    S(hbond)    S(metal)    S(lipo)     H(rot)  DE(clash)    DE(int)     intcor
     15.17     -15.40       2.53        0.00      55.25       1.95       0.09       0.13       ----

> <Gold.Chemscore.Fitness>
15.1743

> <Gold.Chemscore.DG>
-15.3954

> <Gold.Chemscore.ZeroCoef>
-5.4800

> <Gold.Chemscore.Hbond>
2.5264

> <Gold.Chemscore.Metal>
0.0000

> <Gold.Chemscore.Lipo>
55.2493

> <Gold.Chemscore.Internal_Hbond>
0.0000

> <Gold.Chemscore.DEClash>
0.0901

> <Gold.Chemscore.DEInternal>
0.1310

> <Gold.Chemscore.Rot>
1.9480

> <Gold.Chemscore.Internal.Correction>
   9.000000E+99

> <Gold.Chemscore.Hbonds>
donor molecule, donor type, donor heavy atom, donor atom, acceptor molecule, acceptor atom, score
      L1  H    13    28       P1  7948  0.74
      L1  H    13    29       P1  7957  0.45
      P1  H  7989  7998       L1    11  0.73

> <Gold.Chemscore.Hbond.Weighted>
-8.4381

> <Gold.Chemscore.Metal.Weighted>
-0.0000

> <Gold.Chemscore.Lipo.Weighted>
-6.4642

> <Gold.Chemscore.Internal_Hbond.Weighted>
0.0000

> <Gold.Chemscore.DEClash.Weighted>
0.0901

> <Gold.Chemscore.DEInternal.Weighted>
0.1310

> <Gold.Chemscore.Rot.Weighted>
4.9869

> <Gold.Chemscore.Internal.Correction.Weighted>
   9.000000E+99

> <Gold.Protein.RotatedTorsions>
[ 6907 6896 6895 6894 ] final  -34.21 input  -60.11 | X-H torsion
[ 7974 7965 7964 7962 ] final -163.10 input  175.53 | X-H torsion
[ 8008 7997 7996 7995 ] final  -16.45 input   59.86 | X-H torsion
[ 10167 10162 10161 10158 ] final  140.80 input  -65.29 | X-H torsion
[ 10718 10713 10712 10709 ] final  170.62 input   66.30 | X-H torsion
[ 10763 10752 10751 10750 ] final   88.15 input  -60.55 | X-H torsion
[ 11005 11000 10999 10996 ] final   79.19 input  -57.11 | X-H torsion

> <Gold.Protein.ActiveResidues>
 VAL166  LYS551  ARG553  GLY616  TRP617  ASP618  TYR619  PRO620  LYS621  CYS622 
 ASP623  PHE694  ASN695  SER759  ASP760  ASP761  ALA762  ILE779  LEU786  VAL792 
 PHE793  MET794  SER795  GLU796  ALA797  LYS798  CYS799  TRP800  GLU811  SER814 

> <Gold.Protein.RotatedAtoms>
  151.0556  134.9702  159.8233 H   0  0  0  0  0  0  0  0  0  0  0  0  # atno 6907 bound_to 6896
  152.5387  134.2483  159.8899 H   0  0  0  0  0  0  0  0  0  0  0  0  # atno 6908 bound_to 6896
  151.2500  133.4312  159.2645 H   0  0  0  0  0  0  0  0  0  0  0  0  # atno 6909 bound_to 6896
  144.7336  140.3156  143.6180 H   0  0  0  0  0  0  0  0  0  0  0  0  # atno 7974 bound_to 7965
  154.5052  140.2169  155.9265 H   0  0  0  0  0  0  0  0  0  0  0  0  # atno 8008 bound_to 7997
  156.1484  140.3166  155.8575 H   0  0  0  0  0  0  0  0  0  0  0  0  # atno 8009 bound_to 7997
  155.3985  140.0483  157.3028 H   0  0  0  0  0  0  0  0  0  0  0  0  # atno 8010 bound_to 7997
  139.5038  144.6211  151.6048 H   0  0  0  0  0  0  0  0  0  0  0  0  # atno 10167 bound_to 10162
  157.0054  131.0188  151.2818 H   0  0  0  0  0  0  0  0  0  0  0  0  # atno 10718 bound_to 10713
  153.1739  135.4517  154.9939 H   0  0  0  0  0  0  0  0  0  0  0  0  # atno 10763 bound_to 10752
  154.7985  135.3246  154.7611 H   0  0  0  0  0  0  0  0  0  0  0  0  # atno 10764 bound_to 10752
  153.8083  135.6957  153.4899 H   0  0  0  0  0  0  0  0  0  0  0  0  # atno 10765 bound_to 10752
  139.9182  134.7823  156.1746 H   0  0  0  0  0  0  0  0  0  0  0  0  # atno 11005 bound_to 11000
  145.7621  139.1828  143.2261 LP  0  0  0  0  0  0  0  0  0  0  0  0  # atno 17320 bound_to 7965
  146.0978  140.7579  142.9564 LP  0  0  0  0  0  0  0  0  0  0  0  0  # atno 17321 bound_to 7965
  140.5914  143.9773  150.6327 LP  0  0  0  0  0  0  0  0  0  0  0  0  # atno 17342 bound_to 10162
  140.2955  143.3296  152.1022 LP  0  0  0  0  0  0  0  0  0  0  0  0  # atno 17343 bound_to 10162
  157.5359  130.8088  149.7972 LP  0  0  0  0  0  0  0  0  0  0  0  0  # atno 17370 bound_to 10713
  156.0155  130.3815  150.2124 LP  0  0  0  0  0  0  0  0  0  0  0  0  # atno 17371 bound_to 10713
  141.0679  133.6810  156.2082 LP  0  0  0  0  0  0  0  0  0  0  0  0  # atno 17394 bound_to 11000
  140.6555  134.5023  157.5580 LP  0  0  0  0  0  0  0  0  0  0  0  0  # atno 17395 bound_to 11000

$$$$
