AV-unprocessed.smi:1395|AV-procd|sdf|5671|dock7
  -GOLD-   22720 5293D 1   1.00000     0.00000
 Structure written by MMmdl.
 43 44  0  0  0  0  0  0  0  0  2 V2000
  151.8237  144.8961  157.2970 C   0  0  0  0  0  0  0  0  0  0  0  0
  151.9852  143.6011  158.0766 C   0  0  0  0  0  0  0  0  0  0  0  0
  152.9827  143.5142  159.0710 C   0  0  0  0  0  0  0  0  0  0  0  0
  153.1316  142.3162  159.7906 C   0  0  0  0  0  0  0  0  0  0  0  0
  152.2706  141.2489  159.4833 C   0  0  0  0  0  0  0  0  0  0  0  0
  151.3147  141.3233  158.5349 N   0  0  0  0  0  0  0  0  0  0  0  0
  151.1573  142.4728  157.8316 C   0  0  0  0  0  0  0  0  0  0  0  0
  150.1715  142.6219  156.8153 N   0  0  0  0  0  0  0  0  0  0  0  0
  149.6260  141.6731  156.0336 C   0  0  0  0  0  0  0  0  0  0  0  0
  149.8853  140.4705  156.0823 O   0  0  0  0  0  0  0  0  0  0  0  0
  148.7448  142.2022  155.1715 N   0  0  0  0  0  0  0  0  0  0  0  0
  147.9673  141.4470  154.1890 C   0  0  2  0  0  0  0  0  0  0  0  0
  147.0652  142.3650  153.3395 C   0  0  0  0  0  0  0  0  0  0  0  0
  145.8946  142.9399  154.1562 C   0  0  0  0  0  0  0  0  0  0  0  0
  145.0942  141.8556  154.7800 N   0  3  2  0  0  0  0  0  0  0  0  0
  143.8759  142.3710  155.4586 C   0  0  0  0  0  0  0  0  0  0  0  0
  142.9080  141.2872  155.9572 C   0  0  0  0  0  0  0  0  0  0  0  0
  142.3749  140.4335  155.0758 N   0  0  0  0  0  0  0  0  0  0  0  0
  142.6431  141.2211  157.1545 O   0  0  0  0  0  0  0  0  0  0  0  0
  145.9320  141.0009  155.6637 C   0  0  0  0  0  0  0  0  0  0  0  0
  147.1073  140.3791  154.8874 C   0  0  0  0  0  0  0  0  0  0  0  0
  152.5394  145.6498  157.6269 H   0  0  0  0  0  0  0  0  0  0  0  0
  150.8216  145.3030  157.4350 H   0  0  0  0  0  0  0  0  0  0  0  0
  151.9858  144.7234  156.2327 H   0  0  0  0  0  0  0  0  0  0  0  0
  153.6285  144.3538  159.2823 H   0  0  0  0  0  0  0  0  0  0  0  0
  153.8855  142.2181  160.5575 H   0  0  0  0  0  0  0  0  0  0  0  0
  152.3509  140.3105  160.0117 H   0  0  0  0  0  0  0  0  0  0  0  0
  149.8489  143.5661  156.6656 H   0  0  0  0  0  0  0  0  0  0  0  0
  148.5894  143.1989  155.2083 H   0  0  0  0  0  0  0  0  0  0  0  0
  148.6706  140.9359  153.5292 H   0  0  0  0  0  0  0  0  0  0  0  0
  147.6453  143.1752  152.8965 H   0  0  0  0  0  0  0  0  0  0  0  0
  146.6644  141.7934  152.5014 H   0  0  0  0  0  0  0  0  0  0  0  0
  146.2638  143.6154  154.9294 H   0  0  0  0  0  0  0  0  0  0  0  0
  145.2601  143.5323  153.4958 H   0  0  0  0  0  0  0  0  0  0  0  0
  144.1574  143.0257  156.2851 H   0  0  0  0  0  0  0  0  0  0  0  0
  143.3056  142.9869  154.7618 H   0  0  0  0  0  0  0  0  0  0  0  0
  141.7438  139.7054  155.3749 H   0  0  0  0  0  0  0  0  0  0  0  0
  142.6188  140.5174  154.0985 H   0  0  0  0  0  0  0  0  0  0  0  0
  146.3043  141.5954  156.4995 H   0  0  0  0  0  0  0  0  0  0  0  0
  145.3287  140.2023  156.0958 H   0  0  0  0  0  0  0  0  0  0  0  0
  146.7129  139.6915  154.1378 H   0  0  0  0  0  0  0  0  0  0  0  0
  147.7221  139.7757  155.5566 H   0  0  0  0  0  0  0  0  0  0  0  0
  144.7721  141.2748  154.0196 H   0  0  0  0  0  0  0  0  0  0  0  0
  1  2  1  0  0  0  0
  1 22  1  0  0  0  0
  1 23  1  0  0  0  0
  1 24  1  0  0  0  0
  2  7  1  0  0  0  0
  2  3  2  0  0  0  0
  3  4  1  0  0  0  0
  3 25  1  0  0  0  0
  4  5  2  0  0  0  0
  4 26  1  0  0  0  0
  5  6  1  0  0  0  0
  5 27  1  0  0  0  0
  6  7  2  0  0  0  0
  7  8  1  0  0  0  0
  8  9  1  0  0  0  0
  8 28  1  0  0  0  0
  9 10  2  0  0  0  0
  9 11  1  0  0  0  0
 11 12  1  0  0  0  0
 11 29  1  0  0  0  0
 12 21  1  0  0  0  0
 12 13  1  0  0  0  0
 12 30  1  0  0  0  0
 13 14  1  0  0  0  0
 13 31  1  0  0  0  0
 13 32  1  0  0  0  0
 14 15  1  0  0  0  0
 14 33  1  0  0  0  0
 14 34  1  0  0  0  0
 15 16  1  0  0  0  0
 15 20  1  0  0  0  0
 15 43  1  0  0  0  0
 16 17  1  0  0  0  0
 16 35  1  0  0  0  0
 16 36  1  0  0  0  0
 17 18  1  0  0  0  0
 17 19  2  0  0  0  0
 18 37  1  0  0  0  0
 18 38  1  0  0  0  0
 20 21  1  0  0  0  0
 20 39  1  0  0  0  0
 20 40  1  0  0  0  0
 21 41  1  0  0  0  0
 21 42  1  0  0  0  0
M  CHG  1  15   1
M  END
> <s_m_source_file>
AV-unprocessed.smi

> <i_m_source_file_index>
1395

> <i_lp_mmshare_version>
43012

> <i_f3d_flags>
0

> <s_epik_input>
W0NIM11jMVtjSF1bY0hdW2NIXW5jMVtOSF1DKD1PKVtOSF1bQ0hdMltDSDJdW0NIMl1OKFtDSDJdW0NIMl0yKVtDSDJdQyg9TylbTkgyXQ==

> <s_epik_cmdline>
J2VwaWtfcHl0aG9uJywgJy1waCcsICc3LjAnLCAnLXRuJywgJzgnLCAnLW1hJywgJzIwMCcsICctbWV0YWxfYmluZGluZycsICctaW1hZScsICc8aW5maWxlLm1hZT4nLCAnLW9tYWUnLCAnPG91dGZpbGUubWFlPic=

> <r_epik_Ionization_Penalty>
0.83893

> <r_epik_Ionization_Penalty_Charging>
0.838844

> <r_epik_Ionization_Penalty_Neutral>
8.62421e-05

> <r_epik_State_Penalty>
0.8734

> <r_epik_Charging_Adjusted_Penalty>
1.71224

> <i_epik_Tot_Q>
1

> <i_epik_Tot_abs_Q>
1

> <r_epik_Metal_State_Penalty>
0.890705

> <b_epik_Metal_Only>
0

> <s_lp_Force_Field>
OPLS_2005

> <r_lp_Energy>
18.2774

> <b_lp_Chiralities_Consistent>
1

> <s_lp_Variant>
AV-unprocessed.smi:1395-3

> <Gold.Version>
5.8.1

> <Gold.Id.Protein>
6NUR|6NUR_protein|mol2

> <Gold.PLP.Fitness>
49.8561

> <Gold.PLP.PLP>
-35.2193

> <Gold.PLP.part.hbond>
-4.0000

> <Gold.PLP.part.metal>
0.0000

> <Gold.PLP.part.buried>
-5.9381

> <Gold.PLP.part.nonpolar>
-25.3287

> <Gold.PLP.part.repulsive>
0.2560

> <Gold.PLP.ligand.clash>
0.0000

> <Gold.PLP.ligand.torsion>
0.1792

> <Gold.PLP.Chemscore.Hbond>
4.9920

> <Gold.PLP.Chemscore.CHOScore>
0.0000

> <Gold.PLP.Chemscore.Metal>
0.0000

> <Gold.Chemscore.Hbonds>
donor molecule, donor type, donor heavy atom, donor atom, acceptor molecule, acceptor atom, score
      L1  H     8    28       P1  8028  0.98
      L1  H    11    29       P1  8028  1.00
      L1  H    15    43       P1 10175  2.00
      L1  H    18    38       P1 10175  1.00

> <Gold.PLP.Chemscore.Internal.Correction>
0.0191

> <Gold.Rescore>
     Score         DG    S(hbond)    S(metal)    S(lipo)     H(rot)  DE(clash)    DE(int)     intcor
     19.36     -23.67       3.75        0.00      91.36       1.96       2.98       1.34       ----

> <Gold.Chemscore.Fitness>
19.3551

> <Gold.Chemscore.DG>
-23.6690

> <Gold.Chemscore.ZeroCoef>
-5.4800

> <Gold.Chemscore.Hbond>
3.7494

> <Gold.Chemscore.Metal>
0.0000

> <Gold.Chemscore.Lipo>
91.3613

> <Gold.Chemscore.Internal_Hbond>
0.0000

> <Gold.Chemscore.DEClash>
2.9781

> <Gold.Chemscore.DEInternal>
1.3358

> <Gold.Chemscore.Rot>
1.9622

> <Gold.Chemscore.Internal.Correction>
   9.000000E+99

> <Gold.Chemscore.Hbonds>
donor molecule, donor type, donor heavy atom, donor atom, acceptor molecule, acceptor atom, score
      L1  H     8    28       P1  8028  0.93
      L1  H    11    29       P1  8028  0.97
      L1  H    15    43       P1 10175  0.51
      L1  H    18    38       P1 10175  0.78

> <Gold.Chemscore.Hbond.Weighted>
-12.5229

> <Gold.Chemscore.Metal.Weighted>
-0.0000

> <Gold.Chemscore.Lipo.Weighted>
-10.6893

> <Gold.Chemscore.Internal_Hbond.Weighted>
0.0000

> <Gold.Chemscore.DEClash.Weighted>
2.9781

> <Gold.Chemscore.DEInternal.Weighted>
1.3358

> <Gold.Chemscore.Rot.Weighted>
5.0232

> <Gold.Chemscore.Internal.Correction.Weighted>
   9.000000E+99

> <Gold.Protein.RotatedTorsions>
[ 6907 6896 6895 6894 ] final  121.09 input  -60.11 | X-H torsion
[ 7974 7965 7964 7962 ] final   72.53 input  175.53 | X-H torsion
[ 8008 7997 7996 7995 ] final  140.85 input   59.86 | X-H torsion
[ 10167 10162 10161 10158 ] final -152.23 input  -65.29 | X-H torsion
[ 10718 10713 10712 10709 ] final   12.33 input   66.30 | X-H torsion
[ 10763 10752 10751 10750 ] final -111.48 input  -60.55 | X-H torsion
[ 11005 11000 10999 10996 ] final  -78.60 input  -57.11 | X-H torsion

> <Gold.Protein.ActiveResidues>
 VAL166  LYS551  ARG553  GLY616  TRP617  ASP618  TYR619  PRO620  LYS621  CYS622 
 ASP623  PHE694  ASN695  SER759  ASP760  ASP761  ALA762  ILE779  LEU786  VAL792 
 PHE793  MET794  SER795  GLU796  ALA797  LYS798  CYS799  TRP800  GLU811  SER814 

> <Gold.Protein.RotatedAtoms>
  152.4349  133.7342  159.6604 H   0  0  0  0  0  0  0  0  0  0  0  0  # atno 6907 bound_to 6896
  150.8231  133.8207  159.3136 H   0  0  0  0  0  0  0  0  0  0  0  0  # atno 6908 bound_to 6896
  151.5884  135.1057  160.0085 H   0  0  0  0  0  0  0  0  0  0  0  0  # atno 6909 bound_to 6896
  145.7522  139.2764  143.1425 H   0  0  0  0  0  0  0  0  0  0  0  0  # atno 7974 bound_to 7965
  156.2974  140.2330  156.4469 H   0  0  0  0  0  0  0  0  0  0  0  0  # atno 8008 bound_to 7997
  154.8136  140.0441  157.1381 H   0  0  0  0  0  0  0  0  0  0  0  0  # atno 8009 bound_to 7997
  154.9395  140.3027  155.5131 H   0  0  0  0  0  0  0  0  0  0  0  0  # atno 8010 bound_to 7997
  139.7199  143.8973  152.2499 H   0  0  0  0  0  0  0  0  0  0  0  0  # atno 10167 bound_to 10162
  157.0086  130.6108  149.5705 H   0  0  0  0  0  0  0  0  0  0  0  0  # atno 10718 bound_to 10713
  154.8302  135.4526  154.1045 H   0  0  0  0  0  0  0  0  0  0  0  0  # atno 10763 bound_to 10752
  153.2325  135.6907  153.7880 H   0  0  0  0  0  0  0  0  0  0  0  0  # atno 10764 bound_to 10752
  153.7258  135.3334  155.3252 H   0  0  0  0  0  0  0  0  0  0  0  0  # atno 10765 bound_to 10752
  141.1665  133.7070  156.7995 H   0  0  0  0  0  0  0  0  0  0  0  0  # atno 11005 bound_to 11000
  146.0346  140.8225  142.9859 LP  0  0  0  0  0  0  0  0  0  0  0  0  # atno 17320 bound_to 7965
  144.6847  140.2819  143.7291 LP  0  0  0  0  0  0  0  0  0  0  0  0  # atno 17321 bound_to 7965
  139.8866  144.6988  150.8817 LP  0  0  0  0  0  0  0  0  0  0  0  0  # atno 17342 bound_to 10162
  140.7751  143.3619  151.1812 LP  0  0  0  0  0  0  0  0  0  0  0  0  # atno 17343 bound_to 10162
  156.0144  130.5238  150.8090 LP  0  0  0  0  0  0  0  0  0  0  0  0  # atno 17370 bound_to 10713
  157.5337  131.0938  150.9921 LP  0  0  0  0  0  0  0  0  0  0  0  0  # atno 17371 bound_to 10713
  140.2266  134.8717  157.3433 LP  0  0  0  0  0  0  0  0  0  0  0  0  # atno 17394 bound_to 11000
  140.1933  134.4344  155.7703 LP  0  0  0  0  0  0  0  0  0  0  0  0  # atno 17395 bound_to 11000

$$$$
